drugbank_target|O13332 Inositol phosphorylceramide synthase (DB14058)
 OpenBabel12092121193D

  0  0  0     0  0            999 V3000
M  V30 BEGIN CTAB
M  V30 COUNTS 7491 7616 0 0 0
M  V30 BEGIN ATOM
M  V30 1 H -0.908 1.98254 -0.117106 0
M  V30 2 N 0 1.576 0 0
M  V30 3 C 0.933 2.03868 1.02534 0
M  V30 4 C 1.911 0.928543 1.3348 0
M  V30 5 O 3.095 1.19667 1.45644 0
M  V30 6 C 0.222 2.43627 2.35294 0
M  V30 7 C -0.732 3.65373 2.2001 0
M  V30 8 S 0.101 5.13292 1.52614 0
M  V30 9 C 1.257 5.56322 2.86805 0
M  V30 10 H 1.49 2.90518 0.631377 0
M  V30 11 H -0.977 1.52953 0.210867 0
M  V30 12 H 0.981 2.67203 3.11629 0
M  V30 13 H -0.358 1.57376 2.7183 0
M  V30 14 H -1.165 3.90944 3.18086 0
M  V30 15 H -1.563 3.418 1.51819 0
M  V30 16 H 0.729 5.58782 3.83104 0
M  V30 17 H 1.672 6.56266 2.65933 0
M  V30 18 H 2.08 4.83886 2.90714 0
M  V30 19 N 1.4781 -0.272755 1.55222 0
M  V30 20 C 2.4411 -1.32041 1.87344 0
M  V30 21 C 3.4411 -1.42342 0.74803 0
M  V30 22 O 4.6311 -1.41488 1.0162 0
M  V30 23 C 1.7631 -2.70173 2.07893 0
M  V30 24 H 2.9561 -1.04789 2.80997 0
M  V30 25 H 0.5091 -0.51083 1.47717 0
M  V30 26 H 1.2441 -3.02605 1.16622 0
M  V30 27 H 1.0291 -2.64082 2.89833 0
M  V30 28 H 2.5191 -3.45869 2.34017 0
M  V30 29 N 2.9562 -1.48159 -0.537278 0
M  V30 30 C 4.1812 -1.59707 -1.32319 0
M  V30 31 C 4.6062 -0.254859 -1.86365 0
M  V30 32 O 3.9642 0.772378 -1.64024 0
M  V30 33 C 4.0122 -2.6412 -2.45505 0
M  V30 34 O 3.1162 -2.20774 -3.48328 0
M  V30 35 H 2.4572 -0.535791 -0.392204 0
M  V30 36 H 4.9872 -1.94092 -0.647268 0
M  V30 37 H 4.9972 -2.85166 -2.91795 0
M  V30 38 H 3.6722 -3.61567 -2.05528 0
M  V30 39 H 2.2492 -2.09911 -3.08207 0
M  V30 40 N 4.4343 0.785586 -1.36625 0
M  V30 41 C 5.6593 1.57963 -1.34397 0
M  V30 42 C 6.0843 1.87964 0.071526 0
M  V30 43 O 5.4423 1.48182 1.0446 0
M  V30 44 C 5.4903 2.87511 -2.17646 0
M  V30 45 O 4.5943 3.81281 -1.57158 0
M  V30 46 H 3.9353 0.479014 -0.459828 0
M  V30 47 H 6.4653 0.973411 -1.79961 0
M  V30 48 H 6.4753 3.36745 -2.30362 0
M  V30 49 H 5.1503 2.65002 -3.20541 0
M  V30 50 H 3.7273 3.39885 -1.53403 0
M  V30 51 N 5.9124 1.20967 1.01018 0
M  V30 52 C 7.1614 1.01796 1.74128 0
M  V30 53 C 7.4744 -0.449691 1.90361 0
M  V30 54 O 8.6804 -0.76068 2.60626 0
M  V30 55 C 7.1364 1.7727 3.13215 0
M  V30 56 C 6.7444 3.28171 3.04972 0
M  V30 57 C 8.4884 1.66489 3.90489 0
M  V30 58 C 6.3954 3.96156 4.39107 0
M  V30 59 H 5.3254 0.377276 0.652824 0
M  V30 60 H 7.9764 1.44651 1.12909 0
M  V30 61 H 6.3584 1.27205 3.75013 0
M  V30 62 H 7.5324 3.85499 2.52443 0
M  V30 63 H 5.8474 3.39437 2.41188 0
M  V30 64 H 8.4444 2.14617 4.89738 0
M  V30 65 H 8.7874 0.6222 4.11624 0
M  V30 66 H 9.3204 2.14003 3.35332 0
M  V30 67 H 6.0594 5.00604 4.23174 0
M  V30 68 H 5.5794 3.43617 4.91617 0
M  V30 69 H 7.2584 4.00774 5.07926 0
M  V30 70 N 7.3905 -1.2043 1.01659 0
M  V30 71 C 8.3205 -2.25466 0.607226 0
M  V30 72 C 9.3015 -1.65853 -0.377716 0
M  V30 73 O 10.4865 -1.92409 -0.263149 0
M  V30 74 C 7.6165 -3.47256 -0.0552949 0
M  V30 75 C 6.5705 -4.19462 0.850632 0
M  V30 76 C 5.8965 -5.34673 0.0538859 0
M  V30 77 C 7.1965 -4.75603 2.15868 0
M  V30 78 H 8.8905 -2.59962 1.48526 0
M  V30 79 H 6.4365 -1.2496 0.715605 0
M  V30 80 H 8.3895 -4.19917 -0.353233 0
M  V30 81 H 7.1135 -3.11924 -0.968045 0
M  V30 82 H 5.7725 -3.48667 1.13257 0
M  V30 83 H 5.4205 -4.95585 -0.860514 0
M  V30 84 H 5.1205 -5.83913 0.657192 0
M  V30 85 H 6.6445 -6.10138 -0.237598 0
M  V30 86 H 8.0585 -5.40083 1.92311 0
M  V30 87 H 6.4555 -5.3528 2.71284 0
M  V30 88 H 7.5255 -3.94346 2.82169 0
M  V30 89 N 8.8686 -0.792821 -1.36206 0
M  V30 90 C 10.2846 -0.474903 -1.52371 0
M  V30 91 C 10.4846 1.00622 -1.74578 0
M  V30 92 O 9.5406 1.79162 -1.77924 0
M  V30 93 C 10.8536 -1.3083 -2.70747 0
M  V30 94 C 12.4016 -1.30234 -2.84619 0
M  V30 95 C 12.8766 -2.11956 -4.06004 0
M  V30 96 N 14.3676 -2.09419 -4.13156 0
M  V30 97 C 15.1026 -2.69419 -5.06163 0
M  V30 98 N 14.5986 -3.3829 -6.04592 0
M  V30 99 N 16.3916 -2.59134 -4.98804 0
M  V30 100 H 8.5426 -1.75222 -1.20046 0
M  V30 101 H 10.8056 -0.745024 -0.586211 0
M  V30 102 H 10.5116 -2.35881 -2.6087 0
M  V30 103 H 10.3856 -0.95196 -3.6499 0
M  V30 104 H 12.7726 -0.259748 -2.93955 0
M  V30 105 H 12.8536 -1.69847 -1.91274 0
M  V30 106 H 12.4976 -3.16248 -3.97429 0
M  V30 107 H 12.4276 -1.69711 -4.98503 0
M  V30 108 H 14.9186 -1.59297 -3.42685 0
M  V30 109 H 15.2316 -3.81394 -6.7213 0
M  V30 110 H 13.5766 -3.42393 -6.04807 0
M  V30 111 H 16.7676 -2.04927 -4.20859 0
M  V30 112 H 16.9406 -3.06185 -5.711 0
M  V30 113 N 10.3467 1.47872 -0.545128 0
M  V30 114 C 11.5717 2.07391 -0.0190611 0
M  V30 115 C 11.9967 1.39688 1.25971 0
M  V30 116 O 11.3547 0.467816 1.7516 0
M  V30 117 C 11.4027 3.60188 0.172335 0
M  V30 118 O 10.5067 3.9339 1.23766 0
M  V30 119 H 9.8477 0.662411 -0.0459059 0
M  V30 120 H 12.3777 1.90066 -0.757365 0
M  V30 121 H 12.3877 4.06129 0.390305 0
M  V30 122 H 11.0627 4.08865 -0.761725 0
M  V30 123 H 9.6397 3.5921 1.00114 0
M  V30 124 N 11.8248 0.280983 1.55075 0
M  V30 125 C 12.7718 -0.603937 2.22758 0
M  V30 126 C 13.7418 -1.1452 1.20309 0
M  V30 127 O 14.9268 -1.19343 1.48869 0
M  V30 128 C 12.0668 -1.77947 2.95684 0
M  V30 129 C 11.1798 -1.2715 4.12864 0
M  V30 130 C 10.3148 -2.4093 4.7342 0
M  V30 131 C 9.3538 -1.87165 5.82783 0
M  V30 132 N 8.4908 -2.94441 6.37377 0
M  V30 133 H 13.3308 -0.020124 2.97993 0
M  V30 134 H 10.8678 0.00183425 1.471 0
M  V30 135 H 12.8258 -2.47055 3.36184 0
M  V30 136 H 11.4558 -2.33522 2.22861 0
M  V30 137 H 10.5078 -0.473331 3.77444 0
M  V30 138 H 11.8198 -0.837751 4.91715 0
M  V30 139 H 10.9738 -3.18021 5.1667 0
M  V30 140 H 9.7128 -2.87623 3.93859 0
M  V30 141 H 8.7178 -1.08556 5.38976 0
M  V30 142 H 9.9428 -1.41401 6.64216 0
M  V30 143 H 7.8888 -3.40505 5.60707 0
M  V30 144 H 7.8058 -2.55501 7.11516 0
M  V30 145 H 9.0738 -3.71489 6.85285 0
M  V30 146 N 13.3029 -1.57598 0.00835791 0
M  V30 147 C 14.5519 -1.90107 -0.673968 0
M  V30 148 C 14.8649 -0.884275 -1.7447 0
M  V30 149 O 16.0709 -1.09987 -2.48224 0
M  V30 150 C 14.5269 -3.37497 -1.24995 0
M  V30 151 C 14.1349 -4.47491 -0.2136 0
M  V30 152 C 15.8789 -3.79104 -1.90999 0
M  V30 153 C 13.7859 -5.85963 -0.80005 0
M  V30 154 H 12.7159 -0.709393 -0.255495 0
M  V30 155 H 15.3669 -1.83365 0.0702693 0
M  V30 156 H 13.7489 -3.39102 -2.04513 0
M  V30 157 H 14.9229 -4.57414 0.557596 0
M  V30 158 H 13.2379 -4.14956 0.346474 0
M  V30 159 H 15.8349 -4.79901 -2.35795 0
M  V30 160 H 16.1779 -3.1306 -2.74407 0
M  V30 161 H 16.7109 -3.79833 -1.18203 0
M  V30 162 H 13.4499 -6.555 -0.00456708 0
M  V30 163 H 12.9699 -5.79687 -1.54021 0
M  V30 164 H 14.6489 -6.33884 -1.29615 0
M  V30 165 N 14.781 0.264519 -1.55364 0
M  V30 166 C 16.03 0.992812 -1.75574 0
M  V30 167 C 16.343 1.87142 -0.568979 0
M  V30 168 O 17.549 2.63513 -0.653682 0
M  V30 169 C 16.005 1.81519 -3.10771 0
M  V30 170 C 15.613 0.984839 -4.37041 0
M  V30 171 C 17.357 2.53727 -3.40327 0
M  V30 172 C 15.264 1.80209 -5.63275 0
M  V30 173 H 14.194 0.374412 -0.65447 0
M  V30 174 H 16.845 0.248138 -1.81815 0
M  V30 175 H 15.227 2.60115 -2.98591 0
M  V30 176 H 16.401 0.242455 -4.60162 0
M  V30 177 H 14.716 0.37691 -4.14691 0
M  V30 178 H 17.313 3.15292 -4.3185 0
M  V30 179 H 17.656 3.24447 -2.60845 0
M  V30 180 H 18.189 1.82156 -3.53644 0
M  V30 181 H 14.928 1.13896 -6.45529 0
M  V30 182 H 14.448 2.52022 -5.44284 0
M  V30 183 H 16.127 2.37364 -6.01887 0
M  V30 184 N 16.2591 1.48442 0.529413 0
M  V30 185 C 17.1911 1.59095 1.64989 0
M  V30 186 C 18.2041 0.475212 1.5571 0
M  V30 187 O 19.3931 0.746081 1.6216 0
M  V30 188 C 16.4931 1.50518 3.0364 0
M  V30 189 C 15.6661 2.77142 3.38395 0
M  V30 190 C 14.7251 2.62012 4.56329 0
M  V30 191 O 13.7511 3.35898 4.59522 0
M  V30 192 N 14.9531 1.71667 5.54536 0
M  V30 193 H 17.7181 2.55723 1.56287 0
M  V30 194 H 15.2791 1.45173 0.716697 0
M  V30 195 H 17.2711 1.38091 3.80412 0
M  V30 196 H 15.8411 0.618627 3.06418 0
M  V30 197 H 15.0611 3.0413 2.50796 0
M  V30 198 H 16.3491 3.61146 3.58401 0
M  V30 199 H 15.7471 1.10841 5.54735 0
M  V30 200 H 14.3041 1.65178 6.30523 0
M  V30 201 N 17.7372 -0.778329 1.37039 0
M  V30 202 C 18.6842 -1.89139 1.32269 0
M  V30 203 C 19.6542 -1.65017 0.189387 0
M  V30 204 O 20.8392 -1.87024 0.377693 0
M  V30 205 C 17.9792 -3.26112 1.12894 0
M  V30 206 C 17.0922 -3.62233 2.35396 0
M  V30 207 C 16.2272 -4.8838 2.08946 0
M  V30 208 C 15.2662 -5.17212 3.2735 0
M  V30 209 N 14.4032 -6.34546 3.00492 0
M  V30 210 H 19.2432 -1.92552 2.27437 0
M  V30 211 H 16.7802 -0.941473 1.13025 0
M  V30 212 H 18.7382 -4.05116 0.996835 0
M  V30 213 H 17.3682 -3.22091 0.213758 0
M  V30 214 H 16.4202 -2.78265 2.5937 0
M  V30 215 H 17.7322 -3.79481 3.23721 0
M  V30 216 H 16.8862 -5.75274 1.92729 0
M  V30 217 H 15.6252 -4.73222 1.17949 0
M  V30 218 H 14.6302 -4.28796 3.44113 0
M  V30 219 H 15.8552 -5.34283 4.19188 0
M  V30 220 H 13.8012 -6.20759 2.12118 0
M  V30 221 H 13.7182 -6.52179 3.82358 0
M  V30 222 H 14.9862 -7.24394 2.87879 0
M  V30 223 N 19.2153 -1.21501 -1.00376 0
M  V30 224 C 20.6263 -1.03146 -1.55621 0
M  V30 225 C 20.9773 0.408375 -1.91903 0
M  V30 226 O 20.1023 1.29177 -1.73616 0
M  V30 227 C 20.6973 -1.86612 -2.82775 0
M  V30 228 C 19.2563 -1.72586 -3.34501 0
M  V30 229 C 18.4033 -1.83747 -2.07683 0
M  V30 230 H 21.3543 -1.35505 -0.826081 0
M  V30 231 H 21.3753 -1.3771 -3.54706 0
M  V30 232 H 20.8873 -2.91399 -2.56336 0
M  V30 233 H 18.9883 -0.704877 -3.65872 0
M  V30 234 H 19.1013 -2.54623 -4.05837 0
M  V30 235 H 17.4653 -1.27069 -2.20739 0
M  V30 236 H 18.2483 -2.90044 -1.83655 0
M  V30 237 N 20.6934 1.19889 -1.02296 0
M  V30 238 C 21.9234 1.93109 -0.734332 0
M  V30 239 C 22.3314 1.75377 0.709889 0
M  V30 240 O 21.6744 1.06912 1.49384 0
M  V30 241 C 21.7364 3.45362 -0.99827 0
M  V30 242 C 21.4004 3.8686 -2.43287 0
M  V30 243 C 22.3974 3.92102 -3.41397 0
M  V30 244 C 20.0824 4.18668 -2.77529 0
M  V30 245 C 22.0764 4.28573 -4.71809 0
M  V30 246 C 19.7634 4.54813 -4.08153 0
M  V30 247 C 20.7614 4.59739 -5.05103 0
M  V30 248 O 20.4494 4.95051 -6.33388 0
M  V30 249 H 20.1814 0.620409 -0.268456 0
M  V30 250 H 22.7354 1.53144 -1.3688 0
M  V30 251 H 20.9654 3.85482 -0.306645 0
M  V30 252 H 22.6544 3.99814 -0.700234 0
M  V30 253 H 23.4204 3.67685 -3.1628 0
M  V30 254 H 19.2994 4.14021 -2.0275 0
M  V30 255 H 22.8434 4.32333 -5.4748 0
M  V30 256 H 18.7404 4.78687 -4.33047 0
M  V30 257 H 19.5084 5.1302 -6.37772 0
M  V30 258 N 22.1715 0.800033 1.35784 0
M  V30 259 C 23.1035 0.163596 2.28615 0
M  V30 260 C 24.1165 -0.633317 1.49976 0
M  V30 261 O 25.3055 -0.466754 1.72289 0
M  V30 262 C 22.4055 -0.790958 3.29541 0
M  V30 263 C 21.5785 -0.0418255 4.3738 0
M  V30 264 C 20.6375 -0.91389 5.18203 0
M  V30 265 O 19.6635 -0.367234 5.68014 0
M  V30 266 N 20.8655 -2.23682 5.35674 0
M  V30 267 H 23.6305 0.96105 2.83873 0
M  V30 268 H 21.1915 0.654894 1.48063 0
M  V30 269 H 23.1835 -1.37844 3.80501 0
M  V30 270 H 21.7535 -1.48925 2.74846 0
M  V30 271 H 20.9735 0.726813 3.87442 0
M  V30 272 H 22.2615 0.474719 5.06581 0
M  V30 273 H 21.6595 -2.70497 4.96838 0
M  V30 274 H 20.2165 -2.77369 5.89839 0
M  V30 275 N 23.6496 -1.47581 0.552962 0
M  V30 276 C 24.5796 -2.32762 -0.185451 0
M  V30 277 C 25.5606 -1.43527 -0.912905 0
M  V30 278 O 26.7456 -1.72388 -0.894201 0
M  V30 279 C 23.8756 -3.25219 -1.21859 0
M  V30 280 C 22.8296 -4.23661 -0.607864 0
M  V30 281 C 22.1556 -5.05413 -1.74533 0
M  V30 282 C 23.4556 -5.20481 0.435582 0
M  V30 283 H 25.1496 -2.94749 0.525684 0
M  V30 284 H 22.6956 -1.41738 0.254251 0
M  V30 285 H 24.6486 -3.8365 -1.7433 0
M  V30 286 H 23.3726 -2.61279 -1.95961 0
M  V30 287 H 22.0316 -3.66451 -0.104489 0
M  V30 288 H 21.6796 -4.3788 -2.47529 0
M  V30 289 H 21.3796 -5.72059 -1.34249 0
M  V30 290 H 22.9036 -5.66701 -2.27338 0
M  V30 291 H 24.3176 -5.733 -0.00290157 0
M  V30 292 H 22.7146 -5.95305 0.757067 0
M  V30 293 H 23.7846 -4.66217 1.33303 0
M  V30 294 N 25.1277 -0.289203 -1.54924 0
M  V30 295 C 26.3747 0.323519 -1.99899 0
M  V30 296 C 26.7027 1.54797 -1.17762 0
M  V30 297 O 25.9577 1.94237 -0.238835 0
M  V30 298 C 26.2567 0.736119 -3.49737 0
M  V30 299 C 25.9227 -0.385276 -4.49251 0
M  V30 300 C 24.5847 -0.693156 -4.76181 0
M  V30 301 C 26.9367 -1.14021 -5.08575 0
M  V30 302 C 24.2647 -1.7593 -5.59701 0
M  V30 303 C 26.6167 -2.19619 -5.93254 0
M  V30 304 C 25.2807 -2.51026 -6.185 0
M  V30 305 H 24.5507 0.118384 -0.731482 0
M  V30 306 H 27.1977 -0.405847 -1.8715 0
M  V30 307 H 25.5027 1.54539 -3.60035 0
M  V30 308 H 27.1997 1.22118 -3.81953 0
M  V30 309 H 23.7897 -0.135202 -4.28387 0
M  V30 310 H 27.9737 -0.915611 -4.87781 0
M  V30 311 H 23.2297 -2.0075 -5.77503 0
M  V30 312 H 27.4037 -2.78581 -6.38252 0
M  V30 313 H 25.0307 -3.33772 -6.83008 0
M  V30 314 N 26.6058 1.57591 -0.0167156 0
M  V30 315 C 27.5558 2.05953 0.978137 0
M  V30 316 C 28.5398 0.957532 1.29306 0
M  V30 317 O 29.7318 1.22119 1.28125 0
M  V30 318 C 26.8608 2.58006 2.26468 0
M  V30 319 C 25.9468 3.75113 1.97867 0
M  V30 320 N 26.3378 4.86187 1.39486 0
M  V30 321 C 24.6358 3.83363 2.27924 0
M  V30 322 C 25.3368 5.67502 1.27735 0
M  V30 323 N 24.3128 5.14023 1.76866 0
M  V30 324 H 28.1148 2.89236 0.521522 0
M  V30 325 H 25.6288 1.61301 0.188596 0
M  V30 326 H 27.6258 2.90937 2.98599 0
M  V30 327 H 26.2858 1.76148 2.72767 0
M  V30 328 H 27.2968 5.06695 1.07147 0
M  V30 329 H 23.9738 3.1239 2.76982 0
M  V30 330 H 25.3638 6.66791 0.826978 0
M  V30 331 N 28.0839 -0.256276 1.55502 0
M  V30 332 C 29.3139 -1.00196 1.80677 0
M  V30 333 C 29.7219 -1.79805 0.588797 0
M  V30 334 O 29.0649 -1.78055 -0.451883 0
M  V30 335 C 29.1269 -1.99515 2.99055 0
M  V30 336 C 28.7909 -1.38688 4.35448 0
M  V30 337 C 29.7879 -0.794079 5.138 0
M  V30 338 C 27.4729 -1.40906 4.82132 0
M  V30 339 C 29.4669 -0.231562 6.36979 0
M  V30 340 C 27.1539 -0.842684 6.05262 0
M  V30 341 C 28.1519 -0.254953 6.82524 0
M  V30 342 O 27.8399 0.3027 8.0333 0
M  V30 343 H 27.5719 -0.300919 0.60533 0
M  V30 344 H 30.1259 -0.287307 2.03381 0
M  V30 345 H 28.3559 -2.74785 2.72084 0
M  V30 346 H 30.0449 -2.60349 3.11405 0
M  V30 347 H 30.8109 -0.769519 4.78856 0
M  V30 348 H 26.6899 -1.85591 4.21992 0
M  V30 349 H 30.2339 0.227816 6.97228 0
M  V30 350 H 26.1309 -0.86454 6.39684 0
M  V30 351 H 26.8989 0.193662 8.18271 0
M  V30 352 N 29.562 -1.4872 -0.521534 0
M  V30 353 C 30.792 -1.6061 -1.29954 0
M  V30 354 C 31.2 -0.268728 -1.87282 0
M  V30 355 O 30.543 0.753221 -1.67548 0
M  V30 356 C 30.605 -2.60013 -2.48261 0
M  V30 357 C 30.269 -4.04874 -2.11957 0
M  V30 358 C 31.266 -4.92304 -1.67132 0
M  V30 359 C 28.951 -4.5047 -2.22221 0
M  V30 360 C 30.945 -6.2336 -1.33047 0
M  V30 361 C 28.632 -5.81544 -1.87748 0
M  V30 362 C 29.63 -6.67812 -1.43234 0
M  V30 363 O 29.318 -7.96446 -1.09217 0
M  V30 364 H 29.05 -0.544116 -0.401141 0
M  V30 365 H 31.604 -1.95339 -0.634958 0
M  V30 366 H 29.834 -2.20422 -3.17728 0
M  V30 367 H 31.523 -2.61648 -3.10315 0
M  V30 368 H 32.289 -4.58312 -1.58665 0
M  V30 369 H 28.168 -3.83504 -2.55823 0
M  V30 370 H 31.712 -6.90649 -0.982299 0
M  V30 371 H 27.609 -6.15069 -1.95858 0
M  V30 372 H 28.377 -8.09275 -1.22542 0
M  V30 373 N 31.0401 0.771051 -1.3745 0
M  V30 374 C 32.2871 1.52963 -1.32697 0
M  V30 375 C 32.6151 1.94299 0.0883274 0
M  V30 376 O 31.8701 1.64397 1.0617 0
M  V30 377 C 32.1691 2.80676 -2.2126 0
M  V30 378 C 31.8351 2.58389 -3.69521 0
M  V30 379 C 30.4971 2.52019 -4.09927 0
M  V30 380 C 32.8491 2.38469 -4.63446 0
M  V30 381 C 30.1771 2.23721 -5.42371 0
M  V30 382 C 32.5291 2.11694 -5.96128 0
M  V30 383 C 31.1931 2.03769 -6.35637 0
M  V30 384 H 30.4631 0.559732 -0.485573 0
M  V30 385 H 33.1101 0.888083 -1.69662 0
M  V30 386 H 31.4151 3.49392 -1.77291 0
M  V30 387 H 33.1121 3.38557 -2.14895 0
M  V30 388 H 29.7021 2.6421 -3.37478 0
M  V30 389 H 33.8861 2.4238 -4.33089 0
M  V30 390 H 29.1421 2.16081 -5.71943 0
M  V30 391 H 33.3161 1.9528 -6.6846 0
M  V30 392 H 30.9431 1.81606 -7.38189 0
M  V30 393 N 32.5182 1.22032 0.997298 0
M  V30 394 C 33.4482 1.01065 2.10495 0
M  V30 395 C 34.4292 -0.0669542 1.69968 0
M  V30 396 O 35.6142 0.0943987 1.9397 0
M  V30 397 C 32.7442 0.582874 3.42374 0
M  V30 398 C 31.6982 1.60592 3.96729 0
M  V30 399 C 31.0242 1.03412 5.24605 0
M  V30 400 C 32.3242 2.99478 4.27914 0
M  V30 401 H 34.0182 1.93708 2.28292 0
M  V30 402 H 31.5642 0.932761 1.09707 0
M  V30 403 H 33.5172 0.423332 4.19268 0
M  V30 404 H 32.2412 -0.379213 3.24391 0
M  V30 405 H 30.9002 1.75316 3.21963 0
M  V30 406 H 30.5482 0.063518 5.0296 0
M  V30 407 H 30.2482 1.71754 5.61938 0
M  V30 408 H 31.7722 0.886066 6.04137 0
M  V30 409 H 33.1862 2.88153 4.95622 0
M  V30 410 H 31.5832 3.64903 4.76409 0
M  V30 411 H 32.6532 3.49742 3.3587 0
M  V30 412 N 33.9963 -1.19345 1.0293 0
M  V30 413 C 35.2213 -1.93538 0.745511 0
M  V30 414 C 35.6463 -1.75007 -0.689511 0
M  V30 415 O 35.0043 -1.05265 -1.47611 0
M  V30 416 C 35.0523 -3.43336 1.10239 0
M  V30 417 O 34.1563 -4.11806 0.221289 0
M  V30 418 H 33.4973 -0.604193 0.275404 0
M  V30 419 H 36.0273 -1.5141 1.37609 0
M  V30 420 H 36.0373 -3.94004 1.05947 0
M  V30 421 H 34.7123 -3.56146 2.14786 0
M  V30 422 H 33.2893 -3.715 0.322842 0
M  V30 423 N 35.4744 -0.807222 -1.35358 0
M  V30 424 C 36.3844 -0.219594 -2.3357 0
M  V30 425 C 37.4004 0.637734 -1.61892 0
M  V30 426 O 38.5764 0.549336 -1.93763 0
M  V30 427 C 35.6414 0.62158 -3.41083 0
M  V30 428 C 34.7024 -0.256315 -4.28534 0
M  V30 429 C 33.9354 0.544807 -5.30912 0
M  V30 430 O 34.1584 1.77944 -5.41934 0
M  V30 431 O 33.0924 -0.0646478 -6.01865 0
M  V30 432 H 36.9184 -1.03208 -2.85625 0
M  V30 433 H 34.5034 -0.569025 -1.38139 0
M  V30 434 H 36.3854 1.10067 -4.06772 0
M  V30 435 H 35.0604 1.41165 -2.91297 0
M  V30 436 H 33.9674 -0.782559 -3.65823 0
M  V30 437 H 35.3004 -1.01034 -4.81719 0
M  V30 438 N 36.9525 1.47285 -0.560781 0
M  V30 439 C 37.8995 2.30058 0.18491 0
M  V30 440 C 38.8695 1.39281 0.904986 0
M  V30 441 O 40.0545 1.68241 0.899979 0
M  V30 442 C 37.1945 3.23317 1.20666 0
M  V30 443 C 36.3075 4.29186 0.492285 0
M  V30 444 C 35.4425 5.09592 1.49964 0
M  V30 445 C 34.4815 6.07232 0.770439 0
M  V30 446 N 33.6185 6.80584 1.72479 0
M  V30 447 H 38.4585 2.93302 -0.527048 0
M  V30 448 H 35.9955 1.44568 -0.271738 0
M  V30 449 H 37.9535 3.75811 1.81168 0
M  V30 450 H 36.5835 2.61929 1.88661 0
M  V30 451 H 35.6355 3.7972 -0.227333 0
M  V30 452 H 36.9475 4.98738 -0.0787929 0
M  V30 453 H 36.1015 5.66254 2.17809 0
M  V30 454 H 34.8405 4.3995 2.10464 0
M  V30 455 H 33.8455 5.49745 0.0780846 0
M  V30 456 H 35.0705 6.78884 0.171134 0
M  V30 457 H 33.0165 6.1367 2.3183 0
M  V30 458 H 32.9335 7.46319 1.20596 0
M  V30 459 H 34.2015 7.41818 2.39428 0
M  V30 460 N 38.4306 0.297415 1.54768 0
M  V30 461 C 39.3936 -0.567375 2.22066 0
M  V30 462 C 40.3936 -1.06409 1.20556 0
M  V30 463 O 41.5836 -0.960691 1.45315 0
M  V30 464 C 38.7156 -1.78517 2.90421 0
M  V30 465 H 39.9086 0.0205534 2.99893 0
M  V30 466 H 37.4616 0.0482163 1.56226 0
M  V30 467 H 38.1966 -2.41303 2.16664 0
M  V30 468 H 37.9816 -1.43669 3.64831 0
M  V30 469 H 39.4716 -2.39964 3.41771 0
M  V30 470 N 39.9087 -1.5758 0.0250728 0
M  V30 471 C 41.3197 -1.79476 -0.514323 0
M  V30 472 C 41.6707 -0.934956 -1.72491 0
M  V30 473 O 40.7957 -0.144245 -2.15919 0
M  V30 474 C 41.3907 -3.25503 -0.939842 0
M  V30 475 C 39.9497 -3.48408 -1.42438 0
M  V30 476 C 39.0967 -2.74583 -0.387201 0
M  V30 477 H 42.0477 -1.567 0.25113 0
M  V30 478 H 42.0687 -3.34992 -1.80445 0
M  V30 479 H 41.5807 -3.88056 -0.0585628 0
M  V30 480 H 39.6817 -2.91103 -2.32572 0
M  V30 481 H 39.7947 -4.57119 -1.43455 0
M  V30 482 H 38.1587 -2.39942 -0.854409 0
M  V30 483 H 38.9417 -3.39849 0.485543 0
M  V30 484 N 41.3868 0.248026 -1.55636 0
M  V30 485 C 42.6348 0.974295 -1.77065 0
M  V30 486 C 42.9558 1.85897 -0.588849 0
M  V30 487 O 42.2258 1.91868 0.395407 0
M  V30 488 H 40.8058 0.362733 -0.653019 0
M  V30 489 H 43.4678 0.266244 -1.93073 0
M  V30 490 H 42.5638 1.59667 -2.68166 0
M  V30 491 N 42.8649 1.48995 0.513639 0
M  V30 492 C 44.0899 1.61792 1.29762 0
M  V30 493 C 44.5149 0.284475 1.85936 0
M  V30 494 O 43.8729 -0.746185 1.65232 0
M  V30 495 C 43.9209 2.67993 2.41272 0
M  V30 496 O 43.0249 2.26287 3.44772 0
M  V30 497 H 42.3659 0.541963 0.38363 0
M  V30 498 H 44.8959 1.95097 0.616307 0
M  V30 499 H 44.9059 2.89772 2.87221 0
M  V30 500 H 43.5809 3.64791 1.9975 0
M  V30 501 H 42.1579 2.14788 3.04829 0
M  V30 502 N 44.343 -0.763751 1.37857 0
M  V30 503 C 45.571 -1.55293 1.36718 0
M  V30 504 C 45.986 -1.88745 -0.0455434 0
M  V30 505 O 45.343 -1.52039 -1.00947 0
M  V30 506 C 45.394 -2.85831 2.2132 0
M  V30 507 O 45.115 -2.5381 3.57089 0
M  V30 508 C 46.616 -3.80023 2.28249 0
M  V30 509 H 43.836 -0.480841 0.468009 0
M  V30 510 H 46.38 -0.946009 1.81303 0
M  V30 511 H 44.535 -3.42926 1.80223 0
M  V30 512 H 44.949 -3.37459 4.01524 0
M  V30 513 H 46.423 -4.68599 2.91752 0
M  V30 514 H 46.9 -4.1973 1.2932 0
M  V30 515 H 47.506 -3.28855 2.69693 0
M  V30 516 N 45.8211 -1.22559 -0.990812 0
M  V30 517 C 47.0671 -1.05297 -1.73322 0
M  V30 518 C 47.4001 0.410655 -1.89808 0
M  V30 519 O 46.6751 1.30439 -1.44277 0
M  V30 520 C 46.9581 -1.76713 -3.13759 0
M  V30 521 C 46.8111 -3.30684 -3.04907 0
M  V30 522 C 48.1301 -1.52121 -4.12974 0
M  V30 523 H 45.2491 -0.38392 -0.629106 0
M  V30 524 H 47.8911 -1.50926 -1.15418 0
M  V30 525 H 46.0411 -1.37924 -3.63193 0
M  V30 526 H 47.7131 -3.7893 -2.63077 0
M  V30 527 H 45.9561 -3.60253 -2.41661 0
M  V30 528 H 46.6271 -3.75833 -4.04294 0
M  V30 529 H 49.1031 -1.85819 -3.72304 0
M  V30 530 H 47.9791 -2.04582 -5.0935 0
M  V30 531 H 48.2401 -0.454257 -4.3976 0
M  V30 532 N 47.2992 1.18797 -1.03562 0
M  V30 533 C 48.5242 1.9314 -0.755764 0
M  V30 534 C 48.9492 1.7537 0.68022 0
M  V30 535 O 48.3072 1.06046 1.47051 0
M  V30 536 C 48.3552 3.42747 -1.12058 0
M  V30 537 O 47.4592 4.11683 -0.243124 0
M  V30 538 H 46.8002 0.602724 -0.278604 0
M  V30 539 H 49.3302 1.50678 -1.3841 0
M  V30 540 H 49.3402 3.93437 -1.08035 0
M  V30 541 H 48.0152 3.55002 -2.16672 0
M  V30 542 H 46.5922 3.71323 -0.342539 0
M  V30 543 N 48.7773 0.814389 1.34928 0
M  V30 544 C 50.0543 0.321363 1.92942 0
M  V30 545 C 50.4343 -1.19014 1.74353 0
M  V30 546 O 49.7823 -1.99328 1.11716 0
M  V30 547 C 49.9923 0.741323 3.41036 0
M  V30 548 C 51.3403 0.735266 4.18185 0
M  V30 549 O 52.3643 0.68336 3.49584 0
M  V30 550 O 51.2233 0.800703 5.40602 0
M  V30 551 H 48.3173 0.0858893 0.822528 0
M  V30 552 H 50.8633 0.898609 1.43955 0
M  V30 553 H 49.6353 1.78276 3.4833 0
M  V30 554 H 49.2583 0.139307 3.97356 0
M  V30 555 N 50.2554 -1.46986 0.568584 0
M  V30 556 C 51.1854 -2.32946 -0.160753 0
M  V30 557 C 52.1664 -1.44487 -0.897631 0
M  V30 558 O 53.3514 -1.73327 -0.875867 0
M  V30 559 C 50.4814 -3.26494 -1.18403 0
M  V30 560 C 49.4354 -4.24282 -0.562895 0
M  V30 561 C 48.7614 -5.07236 -1.69163 0
M  V30 562 C 50.0614 -5.19989 0.490761 0
M  V30 563 H 51.7554 -2.94175 0.556916 0
M  V30 564 H 49.3014 -1.4146 0.26927 0
M  V30 565 H 51.2544 -3.85477 -1.70251 0
M  V30 566 H 49.9784 -2.63343 -1.93179 0
M  V30 567 H 48.6374 -3.66541 -0.0656164 0
M  V30 568 H 48.2854 -4.4048 -2.42871 0
M  V30 569 H 47.9854 -5.7345 -1.28174 0
M  V30 570 H 49.5094 -5.6908 -2.21314 0
M  V30 571 H 50.9234 -5.73271 0.0579047 0
M  V30 572 H 49.3204 -5.94469 0.820165 0
M  V30 573 H 50.3904 -4.64777 1.3824 0
M  V30 574 N 51.7335 -0.305618 -1.54608 0
M  V30 575 C 52.6815 0.584119 -2.25146 0
M  V30 576 C 53.6755 1.13326 -1.25911 0
M  V30 577 O 54.8815 1.08337 -1.43747 0
M  V30 578 H 51.2565 0.206983 -0.722954 0
M  V30 579 H 53.2275 -0.033291 -2.98381 0
M  V30 580 C 51.9765 1.74225 -3.009 0
M  V30 581 H 51.2995 1.32892 -3.77067 0
M  V30 582 H 52.7395 2.34077 -3.53531 0
M  V30 583 C 51.1985 2.64914 -2.0814 0
M  V30 584 O 51.7285 3.66137 -1.65246 0
M  V30 585 N 49.9345 2.3275 -1.74 0
M  V30 586 H 49.4815 1.50479 -2.09078 0
M  V30 587 H 49.4395 2.93694 -1.12211 0
M  V30 588 N 53.2116 1.57565 -0.0334293 0
M  V30 589 C 54.4586 1.91978 0.644272 0
M  V30 590 C 54.7866 0.910231 1.71887 0
M  V30 591 O 54.0416 -0.0801961 1.95536 0
M  V30 592 C 54.3406 3.33112 1.29504 0
M  V30 593 C 54.0066 4.49537 0.350388 0
M  V30 594 C 52.6686 4.81115 0.0903974 0
M  V30 595 C 55.0206 5.20347 -0.298032 0
M  V30 596 C 52.3486 5.8086 -0.825746 0
M  V30 597 C 54.7006 6.2107 -1.20226 0
M  V30 598 C 53.3646 6.51088 -1.4711 0
M  V30 599 H 52.6346 0.702496 0.235756 0
M  V30 600 H 55.2816 1.91259 -0.0961176 0
M  V30 601 H 53.5866 3.30113 2.11028 0
M  V30 602 H 55.2836 3.57011 1.82603 0
M  V30 603 H 51.8736 4.24883 0.563205 0
M  V30 604 H 56.0576 4.96178 -0.110234 0
M  V30 605 H 51.3136 6.02461 -1.04169 0
M  V30 606 H 55.4876 6.75057 -1.71086 0
M  V30 607 H 53.1146 7.28193 -2.18264 0
M  V30 608 N 54.6897 -0.239769 1.55765 0
M  V30 609 C 55.9667 -0.990056 1.68693 0
M  V30 610 C 56.3467 -2.03107 0.5754 0
M  V30 611 O 55.6947 -2.24604 -0.42017 0
M  V30 612 C 55.9047 -1.61696 3.09282 0
M  V30 613 C 57.2527 -2.11613 3.6811 0
M  V30 614 O 58.2767 -1.71624 3.12127 0
M  V30 615 O 57.1357 -2.85057 4.66267 0
M  V30 616 H 54.2297 -0.461299 0.686391 0
M  V30 617 H 56.7757 -0.232991 1.68093 0
M  V30 618 H 55.5477 -0.864357 3.81634 0
M  V30 619 H 55.1707 -2.44005 3.13923 0
M  V30 620 N 56.1678 -1.49265 -0.50573 0
M  V30 621 C 57.3958 -1.62215 -1.28429 0
M  V30 622 C 57.8108 -0.291697 -1.86533 0
M  V30 623 O 57.1678 0.722233 -1.67601 0
M  V30 624 C 57.2188 -2.68735 -2.41793 0
M  V30 625 O 56.9398 -3.96619 -1.86078 0
M  V30 626 C 58.4408 -2.92346 -3.3324 0
M  V30 627 H 55.6608 -0.546239 -0.389697 0
M  V30 628 H 58.2048 -1.95265 -0.607609 0
M  V30 629 H 56.3598 -2.38476 -3.053 0
M  V30 630 H 56.7738 -4.55256 -2.60465 0
M  V30 631 H 58.2478 -3.70623 -4.09075 0
M  V30 632 H 58.7248 -2.02081 -3.89948 0
M  V30 633 H 59.3308 -3.24003 -2.75503 0
M  V30 634 N 57.6459 0.756429 -1.3826 0
M  V30 635 C 58.5939 1.89149 -1.35372 0
M  V30 636 C 59.5879 1.67691 -0.24004 0
M  V30 637 O 60.7939 1.75294 -0.408919 0
M  V30 638 H 57.1689 0.622271 -0.422236 0
M  V30 639 H 59.1399 1.88701 -2.31159 0
M  V30 640 C 57.8889 3.26599 -1.19284 0
M  V30 641 H 57.2119 3.43695 -2.0424 0
M  V30 642 H 58.6519 4.06274 -1.21316 0
M  V30 643 C 57.1109 3.3675 0.100454 0
M  V30 644 O 57.6409 3.86951 1.07851 0
M  V30 645 N 55.8469 2.90179 0.15633 0
M  V30 646 H 55.3939 2.49517 -0.640253 0
M  V30 647 H 55.3519 2.97352 1.02123 0
M  V30 648 N 59.124 1.23083 0.984299 0
M  V30 649 C 60.373 1.05466 1.71929 0
M  V30 650 C 60.686 -0.409211 1.91272 0
M  V30 651 O 61.892 -0.705226 2.62181 0
M  V30 652 C 60.348 1.83874 3.09384 0
M  V30 653 C 59.956 3.34566 2.97943 0
M  V30 654 C 61.7 1.74734 3.8687 0
M  V30 655 C 59.607 4.05381 4.30605 0
M  V30 656 H 58.537 0.391039 0.644674 0
M  V30 657 H 61.188 1.47013 1.09815 0
M  V30 658 H 59.57 1.35131 3.72231 0
M  V30 659 H 60.744 3.90767 2.44209 0
M  V30 660 H 59.059 3.44476 2.33934 0
M  V30 661 H 61.656 2.24957 4.85076 0
M  V30 662 H 61.999 0.709372 4.10212 0
M  V30 663 H 62.532 2.21067 3.30717 0
M  V30 664 H 59.271 5.09467 4.1246 0
M  V30 665 H 58.791 3.53967 4.84218 0
M  V30 666 H 60.47 4.11458 4.99311 0
M  V30 667 N 60.6021 -1.18246 1.0419 0
M  V30 668 C 61.5341 -2.2142 0.592088 0
M  V30 669 C 62.5471 -1.59233 -0.338909 0
M  V30 670 O 63.7361 -1.78002 -0.133231 0
M  V30 671 C 60.8361 -3.38546 -0.154854 0
M  V30 672 C 60.0091 -4.3031 0.784328 0
M  V30 673 C 59.0681 -5.26138 0.0804583 0
M  V30 674 O 58.0941 -5.64738 0.711292 0
M  V30 675 N 59.2961 -5.68261 -1.18574 0
M  V30 676 H 62.0611 -2.60636 1.47949 0
M  V30 677 H 59.6221 -1.33044 0.922544 0
M  V30 678 H 61.6141 -3.99678 -0.635606 0
M  V30 679 H 60.1841 -2.98012 -0.943811 0
M  V30 680 H 59.4041 -3.66764 1.44491 0
M  V30 681 H 60.6921 -4.8852 1.42218 0
M  V30 682 H 60.0901 -5.38957 -1.71876 0
M  V30 683 H 58.6471 -6.31584 -1.61074 0
M  V30 684 N 62.0802 -0.821533 -1.34494 0
M  V30 685 C 63.3082 -0.421884 -2.02553 0
M  V30 686 C 63.7232 0.971745 -1.61872 0
M  V30 687 O 63.0802 1.62864 -0.823496 0
M  V30 688 C 63.1312 -0.51285 -3.57844 0
M  V30 689 O 62.8522 -1.85155 -3.97051 0
M  V30 690 C 64.3532 -0.107921 -4.43169 0
M  V30 691 H 61.5732 -0.169482 -0.649243 0
M  V30 692 H 64.1172 -1.1093 -1.71798 0
M  V30 693 H 62.2722 0.126474 -3.87193 0
M  V30 694 H 62.6862 -1.82482 -4.91732 0
M  V30 695 H 64.1602 -0.222657 -5.51551 0
M  V30 696 H 64.6372 0.948401 -4.28838 0
M  V30 697 H 65.2432 -0.720989 -4.19144 0
M  V30 698 N 63.5583 1.46682 -0.576371 0
M  V30 699 C 64.7833 2.07304 -0.0630475 0
M  V30 700 C 65.2083 1.42329 1.2298 0
M  V30 701 O 64.5663 0.504865 1.74129 0
M  V30 702 C 64.6143 3.60472 0.095895 0
M  V30 703 O 63.7183 3.95927 1.15394 0
M  V30 704 H 63.0593 0.661288 -0.0599463 0
M  V30 705 H 65.5893 1.88417 -0.797511 0
M  V30 706 H 65.5993 4.06865 0.304071 0
M  V30 707 H 64.2743 4.07157 -0.84828 0
M  V30 708 H 62.8513 3.61252 0.924724 0
M  V30 709 N 65.0364 0.313813 1.54444 0
M  V30 710 C 65.9664 -0.549454 2.26943 0
M  V30 711 C 66.9474 -1.12741 1.27372 0
M  V30 712 O 68.1324 -1.15436 1.56167 0
M  V30 713 C 65.2624 -1.71523 3.01989 0
M  V30 714 C 64.2164 -1.26703 4.08816 0
M  V30 715 C 63.5424 -2.51898 4.71647 0
M  V30 716 C 64.8424 -0.388962 5.2085 0
M  V30 717 H 66.5364 0.0552661 2.99349 0
M  V30 718 H 64.0824 0.0280207 1.43973 0
M  V30 719 H 66.0354 -2.32535 3.51433 0
M  V30 720 H 64.7594 -2.34639 2.27183 0
M  V30 721 H 63.4184 -0.679896 3.6024 0
M  V30 722 H 63.0664 -3.13356 3.93468 0
M  V30 723 H 62.7664 -2.22605 5.43802 0
M  V30 724 H 64.2904 -3.1369 5.23861 0
M  V30 725 H 65.7044 -0.905107 5.6611 0
M  V30 726 H 64.1014 -0.18924 5.99802 0
M  V30 727 H 65.1714 0.582699 4.81386 0
M  V30 728 N 66.5145 -1.57545 0.0417849 0
M  V30 729 C 67.9305 -1.56467 -0.314704 0
M  V30 730 C 68.1305 -1.04859 -1.72066 0
M  V30 731 O 67.1865 -0.700983 -2.42575 0
M  V30 732 C 68.4995 -3.00317 -0.15174 0
M  V30 733 C 70.0475 -3.12201 -0.223553 0
M  V30 734 C 70.5225 -4.57913 -0.0892295 0
M  V30 735 N 72.0135 -4.6297 -0.145808 0
M  V30 736 C 72.7485 -5.73362 -0.0658459 0
M  V30 737 N 72.2445 -6.92769 0.0659282 0
M  V30 738 N 74.0375 -5.6197 -0.12075 0
M  V30 739 H 66.1885 -1.89416 0.961014 0
M  V30 740 H 68.4515 -0.871862 0.372237 0
M  V30 741 H 68.1575 -3.42073 0.817254 0
M  V30 742 H 68.0315 -3.65892 -0.916692 0
M  V30 743 H 70.4185 -2.70349 -1.18301 0
M  V30 744 H 70.4995 -2.49323 0.571994 0
M  V30 745 H 70.1435 -5.00448 0.866867 0
M  V30 746 H 70.0735 -5.18786 -0.903802 0
M  V30 747 H 72.5645 -3.7709 -0.247286 0
M  V30 748 H 72.8775 -7.72707 0.119905 0
M  V30 749 H 71.2225 -6.94927 0.100885 0
M  V30 750 H 74.4135 -4.67572 -0.222187 0
M  V30 751 H 74.5865 -6.47977 -0.0549735 0
M  V30 752 N 67.9926 0.231505 -1.5589 0
M  V30 753 C 68.9396 1.28682 -1.91598 0
M  V30 754 C 69.9096 1.47071 -0.771974 0
M  V30 755 O 71.0946 1.60802 -1.027 0
M  V30 756 C 68.2346 2.6342 -2.22944 0
M  V30 757 C 67.3476 2.52912 -3.50228 0
M  V30 758 C 66.4826 3.80106 -3.7107 0
M  V30 759 C 65.5216 3.64279 -4.91902 0
M  V30 760 N 64.6586 4.834 -5.09184 0
M  V30 761 H 69.4986 0.975305 -2.81588 0
M  V30 762 H 67.0356 0.470299 -1.39379 0
M  V30 763 H 68.9936 3.41869 -2.39126 0
M  V30 764 H 67.6236 2.92687 -1.36139 0
M  V30 765 H 66.6756 1.6595 -3.42294 0
M  V30 766 H 67.9876 2.37133 -4.38827 0
M  V30 767 H 67.1416 4.66999 -3.87295 0
M  V30 768 H 65.8806 3.98799 -2.80733 0
M  V30 769 H 64.8856 2.7577 -4.75637 0
M  V30 770 H 66.1106 3.47067 -5.83714 0
M  V30 771 H 64.0566 5.02425 -4.21788 0
M  V30 772 H 63.9736 4.70311 -5.91898 0
M  V30 773 H 65.2416 5.71747 -5.29835 0
M  V30 774 N 69.4707 1.49531 0.497807 0
M  V30 775 C 70.4007 1.6935 1.60757 0
M  V30 776 C 71.3817 0.542218 1.61227 0
M  V30 777 O 72.5667 0.778417 1.77917 0
M  V30 778 C 69.6967 1.76298 2.99226 0
M  V30 779 C 68.6507 2.91248 3.13622 0
M  V30 780 C 67.9767 2.83312 4.53474 0
M  V30 781 C 69.2767 4.3214 2.93346 0
M  V30 782 H 70.9707 2.62263 1.44425 0
M  V30 783 H 68.5167 1.26208 0.693367 0
M  V30 784 H 70.4697 1.88749 3.76765 0
M  V30 785 H 69.1937 0.799871 3.16654 0
M  V30 786 H 67.8527 2.78404 2.38509 0
M  V30 787 H 67.5007 1.84902 4.67782 0
M  V30 788 H 67.2007 3.60465 4.64046 0
M  V30 789 H 68.7247 2.97775 5.33069 0
M  V30 790 H 70.1387 4.45649 3.60652 0
M  V30 791 H 68.5357 5.1054 3.15387 0
M  V30 792 H 69.6057 4.46363 1.89441 0
M  V30 793 N 70.9488 -0.749086 1.3866 0
M  V30 794 C 71.8958 -1.86291 1.36251 0
M  V30 795 C 72.8658 -1.64578 0.224347 0
M  V30 796 O 74.0508 -1.86181 0.417279 0
M  V30 797 C 71.1908 -3.23644 1.19786 0
M  V30 798 C 70.3038 -3.57158 2.43027 0
M  V30 799 C 69.4388 -4.83838 2.19258 0
M  V30 800 C 68.4778 -5.10152 3.38247 0
M  V30 801 N 67.6148 -6.28029 3.13884 0
M  V30 802 H 72.4548 -1.87685 2.3147 0
M  V30 803 H 69.9918 -0.917287 1.14997 0
M  V30 804 H 71.9498 -4.0291 1.08254 0
M  V30 805 H 70.5798 -3.21566 0.282031 0
M  V30 806 H 69.6318 -2.72701 2.65214 0
M  V30 807 H 70.9438 -3.7253 3.31697 0
M  V30 808 H 70.0978 -5.71057 2.04888 0
M  V30 809 H 68.8368 -4.70614 1.2796 0
M  V30 810 H 67.8418 -4.21401 3.53131 0
M  V30 811 H 69.0668 -5.25271 4.30427 0
M  V30 812 H 67.0128 -6.1612 2.25238 0
M  V30 813 H 66.9298 -6.43922 3.96106 0
M  V30 814 H 68.1978 -7.18124 3.03179 0
M  V30 815 N 72.4269 -1.23603 -0.977757 0
M  V30 816 C 73.3769 -0.986664 -2.05545 0
M  V30 817 C 74.3609 0.0683009 -1.60755 0
M  V30 818 O 75.5529 -0.144162 -1.76412 0
M  V30 819 C 72.6819 -0.582623 -3.3832 0
M  V30 820 C 71.7679 -1.67313 -3.89701 0
M  V30 821 N 72.1589 -2.90394 -4.14132 0
M  V30 822 C 70.4569 -1.54832 -4.18262 0
M  V30 823 C 71.1579 -3.61017 -4.56116 0
M  V30 824 N 70.1339 -2.8854 -4.60701 0
M  V30 825 H 73.9359 -1.92139 -2.22396 0
M  V30 826 H 71.4499 -1.1358 -1.16074 0
M  V30 827 H 73.4469 -0.38524 -4.15116 0
M  V30 828 H 72.1069 0.34503 -3.22862 0
M  V30 829 H 73.1179 -3.26673 -4.01877 0
M  V30 830 H 69.7949 -0.687969 -4.11793 0
M  V30 831 H 71.1849 -4.66544 -4.83514 0
M  V30 832 N 73.905 1.17692 -1.04816 0
M  V30 833 C 74.855 2.1952 -0.616042 0
M  V30 834 C 75.839 1.57147 0.345485 0
M  V30 835 O 77.031 1.76245 0.163325 0
M  V30 836 C 74.16 3.43298 0.0116917 0
M  V30 837 C 73.246 4.12777 -0.973435 0
M  V30 838 N 73.637 4.5814 -2.14339 0
M  V30 839 C 71.935 4.38747 -0.80108 0
M  V30 840 C 72.636 5.11713 -2.7663 0
M  V30 841 N 71.612 5.03686 -2.04453 0
M  V30 842 H 75.414 2.52293 -1.5075 0
M  V30 843 H 72.928 1.3398 -0.917776 0
M  V30 844 H 74.925 4.15519 0.339006 0
M  V30 845 H 73.585 3.12018 0.898593 0
M  V30 846 H 74.596 4.52349 -2.52191 0
M  V30 847 H 71.273 4.17485 0.0350934 0
M  V30 848 H 72.663 5.56962 -3.75823 0
M  V30 849 N 75.3831 0.828654 1.34056 0
M  V30 850 C 76.3331 0.226828 2.26869 0
M  V30 851 C 77.3171 -0.612243 1.48796 0
M  V30 852 O 78.5091 -0.465884 1.70759 0
M  V30 853 C 75.6381 -0.605654 3.37915 0
M  V30 854 C 74.7241 0.244361 4.23395 0
M  V30 855 N 75.1151 1.31815 4.88322 0
M  V30 856 C 73.4131 0.0296616 4.4599 0
M  V30 857 C 74.1141 1.83895 5.51867 0
M  V30 858 N 73.0901 1.14196 5.3147 0
M  V30 859 H 76.8921 1.04811 2.74576 0
M  V30 860 H 74.4061 0.67205 1.47842 0
M  V30 861 H 76.4031 -1.05302 4.03382 0
M  V30 862 H 75.0631 -1.42504 2.91758 0
M  V30 863 H 76.0741 1.70099 4.8917 0
M  V30 864 H 72.7511 -0.757097 4.10578 0
M  V30 865 H 74.1411 2.7376 6.136 0
M  V30 866 N 76.8612 -1.46375 0.584142 0
M  V30 867 C 78.1072 -2.03248 0.0787103 0
M  V30 868 C 78.4622 -1.44737 -1.26763 0
M  V30 869 O 77.7552 -0.603625 -1.81843 0
M  V30 870 C 77.9492 -3.57373 -0.0439342 0
M  V30 871 C 77.7782 -4.30831 1.28897 0
M  V30 872 C 76.5482 -4.69683 1.8635 0
M  V30 873 C 78.7462 -4.64278 2.21248 0
M  V30 874 N 76.7282 -5.27898 3.13365 0
M  V30 875 C 78.0992 -5.23078 3.32851 0
M  V30 876 C 80.1542 -4.46209 2.20911 0
M  V30 877 C 78.8572 -5.65715 4.44251 0
M  V30 878 C 80.8832 -4.89864 3.31341 0
M  V30 879 C 80.2452 -5.48736 4.41665 0
M  V30 880 H 76.3442 -0.778714 0.0716144 0
M  V30 881 H 78.9282 -1.78509 0.777355 0
M  V30 882 H 77.0992 -3.81823 -0.711749 0
M  V30 883 H 78.8312 -4.00892 -0.553881 0
M  V30 884 H 75.5862 -4.52488 1.39826 0
M  V30 885 H 76.0102 -5.61525 3.78178 0
M  V30 886 H 80.6522 -4.00027 1.36888 0
M  V30 887 H 78.3702 -6.10875 5.29015 0
M  V30 888 H 81.9562 -4.77634 3.322 0
M  V30 889 H 80.8362 -5.81898 5.25704 0
M  V30 890 N 78.3393 -0.321999 -1.54275 0
M  V30 891 C 79.5673 0.283052 -2.04955 0
M  V30 892 C 79.9823 1.45904 -1.19823 0
M  V30 893 O 79.3393 1.81063 -0.228545 0
M  V30 894 C 79.3903 0.719028 -3.54277 0
M  V30 895 O 79.1113 -0.410175 -4.36176 0
M  V30 896 C 80.6123 1.38705 -4.21041 0
M  V30 897 H 77.8323 0.0584616 -0.668448 0
M  V30 898 H 80.3763 -0.467734 -1.99079 0
M  V30 899 H 78.5313 1.41979 -3.60445 0
M  V30 900 H 78.9453 -0.0669416 -5.24457 0
M  V30 901 H 80.4193 1.64306 -5.2698 0
M  V30 902 H 80.8963 2.33385 -3.72059 0
M  V30 903 H 81.5023 0.728906 -4.19007 0
M  V30 904 N 79.8174 1.5752 -0.0501392 0
M  V30 905 C 81.0634 1.92936 0.624798 0
M  V30 906 C 81.3964 0.928685 1.70555 0
M  V30 907 O 80.6714 -0.0454779 1.94447 0
M  V30 908 C 80.9544 3.38737 1.22185 0
M  V30 909 C 80.8074 4.49552 0.149218 0
M  V30 910 C 82.1264 3.84913 2.13378 0
M  V30 911 H 79.2454 0.701604 0.225657 0
M  V30 912 H 81.8874 1.89671 -0.111693 0
M  V30 913 H 80.0374 3.4165 1.84953 0
M  V30 914 H 81.7094 4.58768 -0.482648 0
M  V30 915 H 79.9524 4.30638 -0.522841 0
M  V30 916 H 80.6234 5.48653 0.606966 0
M  V30 917 H 83.0994 3.8387 1.60572 0
M  V30 918 H 81.9754 4.87584 2.52097 0
M  V30 919 H 82.2364 3.21611 3.03346 0
M  V30 920 N 81.2955 -0.223234 1.56011 0
M  V30 921 C 82.5435 -0.946003 1.78592 0
M  V30 922 C 82.8645 -1.84936 0.618349 0
M  V30 923 O 82.1345 -1.92473 -0.364833 0
M  V30 924 H 80.7145 -0.352298 0.658707 0
M  V30 925 H 83.3765 -0.235494 1.93472 0
M  V30 926 H 82.4725 -1.55381 2.70672 0
M  V30 927 N 82.7736 -1.49793 -0.48987 0
M  V30 928 C 83.6836 -1.70036 -1.61632 0
M  V30 929 C 84.6996 -0.583102 -1.63939 0
M  V30 930 O 85.8756 -0.859169 -1.82154 0
M  V30 931 C 82.9406 -1.77277 -2.97949 0
M  V30 932 C 82.0016 -3.00918 -3.06181 0
M  V30 933 C 81.2346 -3.07804 -4.35996 0
M  V30 934 O 81.4576 -2.21982 -5.25433 0
M  V30 935 O 80.3916 -4.00369 -4.49431 0
M  V30 936 H 84.2176 -2.65486 -1.47482 0
M  V30 937 H 81.8026 -1.33666 -0.667362 0
M  V30 938 H 83.6846 -1.84329 -3.78947 0
M  V30 939 H 82.3596 -0.850076 -3.12339 0
M  V30 940 H 81.2666 -2.99377 -2.2433 0
M  V30 941 H 82.5996 -3.92704 -2.96723 0
M  V30 942 N 84.2517 0.741722 -1.39055 0
M  V30 943 C 85.5007 1.49656 -1.35225 0
M  V30 944 C 85.8137 1.95533 0.0512708 0
M  V30 945 O 87.0197 2.7067 0.212138 0
M  V30 946 C 85.4757 2.70389 -2.37525 0
M  V30 947 C 85.0837 2.31489 -3.83558 0
M  V30 948 C 86.8277 3.48236 -2.42759 0
M  V30 949 C 84.7347 3.48903 -4.77515 0
M  V30 950 H 83.6647 0.56197 -0.502699 0
M  V30 951 H 86.3157 0.809727 -1.64668 0
M  V30 952 H 84.6977 3.41113 -2.01142 0
M  V30 953 H 85.8717 1.68354 -4.28945 0
M  V30 954 H 84.1867 1.66749 -3.81554 0
M  V30 955 H 86.7837 4.35558 -3.1015 0
M  V30 956 H 87.1267 3.90229 -1.45008 0
M  V30 957 H 87.6597 2.84535 -2.78002 0
M  V30 958 H 84.3987 3.11966 -5.76504 0
M  V30 959 H 83.9187 4.11041 -4.36813 0
M  V30 960 H 85.5977 4.15328 -4.96096 0
M  V30 961 N 85.7298 1.2412 0.971189 0
M  V30 962 C 86.9768 1.07881 1.71371 0
M  V30 963 C 87.3048 -0.382901 1.90694 0
M  V30 964 O 86.5598 -1.29945 1.46331 0
M  V30 965 C 86.8588 1.75983 3.11071 0
M  V30 966 C 86.5248 3.25909 3.11599 0
M  V30 967 C 85.1868 3.66813 3.11451 0
M  V30 968 C 87.5388 4.21771 3.062 0
M  V30 969 C 84.8668 5.02021 3.03631 0
M  V30 970 C 87.2188 5.56982 2.99923 0
M  V30 971 C 85.8828 5.97237 2.98102 0
M  V30 972 H 85.1528 0.394764 0.62709 0
M  V30 973 H 87.7998 1.54176 1.13587 0
M  V30 974 H 86.1048 1.22072 3.72298 0
M  V30 975 H 87.8018 1.60887 3.6731 0
M  V30 976 H 84.3918 2.93353 3.12477 0
M  V30 977 H 88.5758 3.91172 3.05447 0
M  V30 978 H 83.8318 5.32411 3.0058 0
M  V30 979 H 88.0058 6.30969 2.94704 0
M  V30 980 H 85.6328 7.01967 2.91798 0
M  V30 981 N 87.2079 -1.17134 1.05439 0
M  V30 982 C 88.1579 -2.1919 0.627675 0
M  V30 983 C 89.1419 -1.57328 -0.337147 0
M  V30 984 O 90.3339 -1.76329 -0.153976 0
M  V30 985 C 87.4629 -3.43299 0.00651435 0
M  V30 986 C 86.5489 -4.12255 0.995312 0
M  V30 987 N 86.9399 -4.56997 2.16765 0
M  V30 988 C 85.2379 -4.38316 0.824336 0
M  V30 989 C 85.9389 -5.10239 2.7934 0
M  V30 990 N 84.9149 -5.02595 2.07122 0
M  V30 991 H 88.7169 -2.5149 1.52086 0
M  V30 992 H 86.2309 -1.33491 0.924868 0
M  V30 993 H 88.2279 -4.15693 -0.316965 0
M  V30 994 H 86.8879 -3.1249 -0.882033 0
M  V30 995 H 87.8989 -4.51006 2.54587 0
M  V30 996 H 84.5759 -4.17498 -0.0129526 0
M  V30 997 H 85.9659 -5.54961 3.78772 0
M  V30 998 N 88.686 -0.835752 -1.33615 0
M  V30 999 C 89.916 -0.442701 -2.01801 0
M  V30 1000 C 90.324 0.959807 -1.63047 0
M  V30 1001 O 89.667 1.63468 -0.838088 0
M  V30 1002 C 89.729 -0.480125 -3.56279 0
M  V30 1003 C 89.393 -1.8382 -4.18401 0
M  V30 1004 C 90.39 -2.80097 -4.37998 0
M  V30 1005 C 88.075 -2.13019 -4.54894 0
M  V30 1006 C 90.069 -4.03736 -4.9323 0
M  V30 1007 C 87.756 -3.36916 -5.09834 0
M  V30 1008 C 88.754 -4.32091 -5.28948 0
M  V30 1009 O 88.442 -5.53797 -5.82721 0
M  V30 1010 H 88.174 -0.17441 -0.653114 0
M  V30 1011 H 90.728 -1.129 -1.71589 0
M  V30 1012 H 88.958 0.262931 -3.85805 0
M  V30 1013 H 90.647 -0.105335 -4.05763 0
M  V30 1014 H 91.413 -2.58838 -4.10156 0
M  V30 1015 H 87.292 -1.39733 -4.39313 0
M  V30 1016 H 90.836 -4.78034 -5.08064 0
M  V30 1017 H 86.733 -3.58033 -5.37106 0
M  V30 1018 H 87.501 -5.55494 -6.0114 0
M  V30 1019 N 90.1641 1.46063 -0.591896 0
M  V30 1020 C 91.4121 2.01938 -0.0808391 0
M  V30 1021 C 91.7331 1.46475 1.28725 0
M  V30 1022 O 91.0031 0.652944 1.84698 0
M  V30 1023 H 89.5831 0.746516 -0.0268938 0
M  V30 1024 H 92.2451 1.79055 -0.769752 0
M  V30 1025 H 91.3411 3.12094 -0.0187578 0
M  V30 1026 N 91.6422 0.330177 1.54103 0
M  V30 1027 C 92.8892 -0.270405 2.00686 0
M  V30 1028 C 93.2172 -1.51621 1.21825 0
M  V30 1029 O 92.4722 -1.93536 0.29025 0
M  V30 1030 C 92.7712 -0.643134 3.51566 0
M  V30 1031 C 92.4372 0.504251 4.48072 0
M  V30 1032 C 91.0992 0.819163 4.74176 0
M  V30 1033 C 93.4512 1.27465 5.05373 0
M  V30 1034 C 90.7792 1.90708 5.5484 0
M  V30 1035 C 93.1312 2.35271 5.87223 0
M  V30 1036 C 91.7952 2.67336 6.11627 0
M  V30 1037 H 91.0652 -0.0989482 0.734364 0
M  V30 1038 H 93.7122 0.455324 1.86008 0
M  V30 1039 H 92.0172 -1.44938 3.64006 0
M  V30 1040 H 93.7142 -1.11949 3.85056 0
M  V30 1041 H 90.3042 0.248733 4.27878 0
M  V30 1042 H 94.4882 1.04462 4.85182 0
M  V30 1043 H 89.7442 2.15991 5.71977 0
M  V30 1044 H 93.9182 2.95405 6.30641 0
M  V30 1045 H 91.5452 3.51763 6.73919 0
M  V30 1046 N 93.1203 -1.57491 0.0584922 0
M  V30 1047 C 94.0503 -2.14988 -0.911178 0
M  V30 1048 C 95.0313 -1.07343 -1.31952 0
M  V30 1049 O 96.2163 -1.35318 -1.39294 0
M  V30 1050 C 93.3463 -2.70078 -2.18347 0
M  V30 1051 C 92.3003 -3.82771 -1.91495 0
M  V30 1052 C 91.6263 -4.24408 -3.25241 0
M  V30 1053 C 92.9263 -5.07592 -1.23075 0
M  V30 1054 H 94.6203 -2.96263 -0.432246 0
M  V30 1055 H 92.1663 -1.42512 -0.206469 0
M  V30 1056 H 94.1193 -3.08943 -2.86587 0
M  V30 1057 H 92.8433 -1.86005 -2.68458 0
M  V30 1058 H 91.5023 -3.44389 -1.25664 0
M  V30 1059 H 91.1503 -3.37275 -3.73168 0
M  V30 1060 H 90.8503 -5.00366 -3.08071 0
M  V30 1061 H 92.3743 -4.65879 -3.94701 0
M  V30 1062 H 93.7883 -5.43857 -1.81362 0
M  V30 1063 H 92.1853 -5.88741 -1.16207 0
M  V30 1064 H 93.2553 -4.84454 -0.207847 0
M  V30 1065 N 94.5984 0.214957 -1.56127 0
M  V30 1066 C 95.8444 0.939762 -1.79712 0
M  V30 1067 C 96.1774 1.83723 -0.629247 0
M  V30 1068 O 95.4524 1.90925 0.371197 0
M  V30 1069 C 95.7354 1.77306 -3.13424 0
M  V30 1070 C 95.5884 0.90164 -4.40671 0
M  V30 1071 C 96.9074 2.74956 -3.43638 0
M  V30 1072 H 94.0264 0.340214 -0.653776 0
M  V30 1073 H 96.6684 0.20824 -1.88855 0
M  V30 1074 H 94.8184 2.39673 -3.0576 0
M  V30 1075 H 96.4904 0.294206 -4.60361 0
M  V30 1076 H 94.7334 0.207368 -4.33304 0
M  V30 1077 H 95.4044 1.51923 -5.30682 0
M  V30 1078 H 97.8804 2.22724 -3.51473 0
M  V30 1079 H 96.7564 3.30358 -4.38355 0
M  V30 1080 H 97.0174 3.53023 -2.66134 0
M  V30 1081 N 96.0765 1.50051 0.48192 0
M  V30 1082 C 97.3015 1.64508 1.26301 0
M  V30 1083 C 97.7265 0.323851 1.85291 0
M  V30 1084 O 97.0845 -0.710969 1.66778 0
M  V30 1085 C 97.1325 2.7305 2.35533 0
M  V30 1086 O 96.2365 2.3355 3.39895 0
M  V30 1087 H 95.5775 0.549978 0.372048 0
M  V30 1088 H 98.1075 1.9636 0.574786 0
M  V30 1089 H 98.1175 2.95799 2.8101 0
M  V30 1090 H 96.7925 3.68946 1.91967 0
M  V30 1091 H 95.3695 2.21205 3.00204 0
M  V30 1092 N 97.5546 -0.734337 1.39446 0
M  V30 1093 C 98.8036 -1.48937 1.36017 0
M  V30 1094 C 99.1166 -1.95557 -0.0409005 0
M  V30 1095 O 100.323 -2.70779 -0.19778 0
M  V30 1096 C 98.7786 -2.69125 2.38955 0
M  V30 1097 C 98.3866 -2.29452 3.8478 0
M  V30 1098 C 100.131 -3.46944 2.44603 0
M  V30 1099 C 98.0376 -3.46366 4.79358 0
M  V30 1100 H 96.9676 -0.559296 0.505672 0
M  V30 1101 H 99.6186 -0.800983 1.65095 0
M  V30 1102 H 98.0006 -3.40041 2.02948 0
M  V30 1103 H 99.1746 -1.66077 4.29831 0
M  V30 1104 H 97.4896 -1.64723 3.82433 0
M  V30 1105 H 100.087 -4.33907 3.12456 0
M  V30 1106 H 100.43 -3.89454 1.47076 0
M  V30 1107 H 100.963 -2.83056 2.79507 0
M  V30 1108 H 97.7016 -3.08905 5.78151 0
M  V30 1109 H 97.2216 -4.08719 4.38986 0
M  V30 1110 H 98.9006 -4.12691 4.98292 0
M  V30 1111 N 99.0327 -1.24633 -0.964593 0
M  V30 1112 C 99.9627 -1.06611 -2.07741 0
M  V30 1113 C 100.944 0.0218666 -1.70086 0
M  V30 1114 O 102.129 -0.145793 -1.93652 0
M  V30 1115 C 99.2587 -0.673444 -3.40708 0
M  V30 1116 C 98.2127 -1.71054 -3.92332 0
M  V30 1117 C 97.5387 -1.17285 -5.21678 0
M  V30 1118 C 98.8387 -3.10718 -4.19824 0
M  V30 1119 H 100.533 -1.99693 -2.23076 0
M  V30 1120 H 98.0787 -0.96152 -1.07195 0
M  V30 1121 H 100.032 -0.534345 -4.17998 0
M  V30 1122 H 98.7557 0.293073 -3.25282 0
M  V30 1123 H 97.4147 -1.83791 -3.17201 0
M  V30 1124 H 97.0627 -0.196847 -5.02615 0
M  V30 1125 H 96.7627 -1.86592 -5.57187 0
M  V30 1126 H 98.2867 -1.04593 -6.01575 0
M  V30 1127 H 99.7007 -3.01192 -4.87808 0
M  V30 1128 H 98.0977 -3.77406 -4.66567 0
M  V30 1129 H 99.1677 -3.58524 -3.26479 0
M  V30 1130 N 100.511 1.16574 -1.06058 0
M  V30 1131 C 101.758 1.87047 -0.775873 0
M  V30 1132 C 102.086 1.81562 0.697534 0
M  V30 1133 O 101.341 1.22445 1.52662 0
M  V30 1134 C 101.64 3.36195 -1.21275 0
M  V30 1135 C 101.306 3.6188 -2.68986 0
M  V30 1136 C 99.9678 3.68599 -3.09335 0
M  V30 1137 C 102.32 3.72648 -3.64394 0
M  V30 1138 C 99.6478 3.83584 -4.43937 0
M  V30 1139 C 102 3.89154 -4.98741 0
M  V30 1140 C 100.664 3.94114 -5.3873 0
M  V30 1141 H 99.9338 0.684452 -0.283912 0
M  V30 1142 H 102.581 1.37853 -1.32925 0
M  V30 1143 H 100.886 3.87505 -0.578528 0
M  V30 1144 H 102.583 3.89103 -0.969542 0
M  V30 1145 H 99.1728 3.57281 -2.36744 0
M  V30 1146 H 103.357 3.66769 -3.34356 0
M  V30 1147 H 98.6128 3.85677 -4.74409 0
M  V30 1148 H 102.787 3.96427 -5.72554 0
M  V30 1149 H 100.414 4.05478 -6.43033 0
M  V30 1150 N 101.989 0.842826 1.3317 0
M  V30 1151 C 103.236 0.440447 1.97652 0
M  V30 1152 C 103.564 -1.00123 1.6675 0
M  V30 1153 O 102.819 -1.7155 0.941761 0
M  V30 1154 C 103.118 0.612607 3.52111 0
M  V30 1155 C 102.784 2.02297 4.02972 0
M  V30 1156 C 101.446 2.40874 4.16573 0
M  V30 1157 C 103.798 2.94402 4.30089 0
M  V30 1158 C 101.126 3.70852 4.54627 0
M  V30 1159 C 103.478 4.23865 4.69597 0
M  V30 1160 C 102.142 4.62392 4.81404 0
M  V30 1161 H 101.412 0.161171 0.72326 0
M  V30 1162 H 104.059 1.07061 1.58777 0
M  V30 1163 H 102.364 -0.100849 3.9167 0
M  V30 1164 H 104.061 0.2815 4.00011 0
M  V30 1165 H 100.651 1.71338 3.92863 0
M  V30 1166 H 104.835 2.65835 4.19101 0
M  V30 1167 H 100.091 4.00501 4.61962 0
M  V30 1168 H 104.265 4.95306 4.89536 0
M  V30 1169 H 101.892 5.63154 5.10648 0
M  V30 1170 N 103.467 -1.45747 0.599634 0
M  V30 1171 C 104.713 -2.02592 0.0918643 0
M  V30 1172 C 105.046 -1.46806 -1.27128 0
M  V30 1173 O 104.321 -0.639658 -1.83681 0
M  V30 1174 C 104.604 -3.60073 0.0443398 0
M  V30 1175 C 104.457 -4.26208 1.43759 0
M  V30 1176 C 105.776 -4.35309 -0.647608 0
M  V30 1177 H 102.895 -0.736175 0.034857 0
M  V30 1178 H 105.537 -1.73694 0.770081 0
M  V30 1179 H 103.687 -3.84823 -0.533224 0
M  V30 1180 H 105.359 -4.12668 2.06162 0
M  V30 1181 H 103.602 -3.84916 2.00056 0
M  V30 1182 H 104.273 -5.35069 1.35665 0
M  V30 1183 H 106.749 -4.15805 -0.156776 0
M  V30 1184 H 105.625 -5.45038 -0.649942 0
M  V30 1185 H 105.886 -4.07598 -1.71219 0
M  V30 1186 N 104.945 -0.338344 -1.53925 0
M  V30 1187 C 106.192 0.259758 -2.00827 0
M  V30 1188 C 106.52 1.50973 -1.22628 0
M  V30 1189 O 105.775 1.93379 -0.300509 0
M  V30 1190 C 106.074 0.62448 -3.51902 0
M  V30 1191 C 105.74 -0.528006 -4.47798 0
M  V30 1192 C 104.402 -0.844298 -4.73735 0
M  V30 1193 C 106.754 -1.30143 -5.0469 0
M  V30 1194 C 104.082 -1.93648 -5.53821 0
M  V30 1195 C 106.434 -2.38382 -5.85967 0
M  V30 1196 C 105.098 -2.70576 -6.10201 0
M  V30 1197 H 104.368 0.0950523 -0.734878 0
M  V30 1198 H 107.015 -0.465182 -1.85764 0
M  V30 1199 H 105.32 1.43006 -3.64769 0
M  V30 1200 H 107.017 1.09905 -3.85645 0
M  V30 1201 H 103.607 -0.271421 -4.2774 0
M  V30 1202 H 107.791 -1.07033 -4.84621 0
M  V30 1203 H 103.047 -2.19021 -5.70824 0
M  V30 1204 H 107.221 -2.98746 -6.29066 0
M  V30 1205 H 104.848 -3.55333 -6.72044 0
M  V30 1206 N 106.423 1.57458 -0.0668435 0
M  V30 1207 C 107.669 1.93587 0.6043 0
M  V30 1208 C 108.002 0.946722 1.69561 0
M  V30 1209 O 107.277 -0.0248516 1.94484 0
M  V30 1210 C 107.56 3.40014 1.18585 0
M  V30 1211 C 107.413 4.49685 0.101529 0
M  V30 1212 C 108.732 3.87154 2.09284 0
M  V30 1213 H 105.851 0.703958 0.218202 0
M  V30 1214 H 108.493 1.89542 -0.131804 0
M  V30 1215 H 106.643 3.43592 1.81319 0
M  V30 1216 H 108.315 4.5823 -0.531279 0
M  V30 1217 H 106.558 4.30059 -0.568487 0
M  V30 1218 H 107.229 5.49266 0.54874 0
M  V30 1219 H 109.705 3.85551 1.56491 0
M  V30 1220 H 108.581 4.90231 2.46911 0
M  V30 1221 H 108.842 3.2481 2.99918 0
M  V30 1222 N 107.901 -0.206675 1.56239 0
M  V30 1223 C 109.147 -0.930218 1.80208 0
M  V30 1224 C 109.48 -1.83387 0.638981 0
M  V30 1225 O 108.755 -1.91119 -0.361066 0
M  V30 1226 C 109.038 -1.75641 3.1436 0
M  V30 1227 C 108.891 -0.878257 4.41142 0
M  V30 1228 C 110.21 -2.73129 3.45092 0
M  V30 1229 H 107.329 -0.336742 0.655571 0
M  V30 1230 H 109.971 -0.198222 1.88963 0
M  V30 1231 H 108.121 -2.38048 3.07027 0
M  V30 1232 H 109.793 -0.269787 4.6051 0
M  V30 1233 H 108.036 -0.184385 4.33408 0
M  V30 1234 H 108.707 -1.49106 5.3148 0
M  V30 1235 H 111.183 -2.20856 3.52649 0
M  V30 1236 H 110.059 -3.28028 4.40101 0
M  V30 1237 H 110.32 -3.51606 2.68003 0
M  V30 1238 N 109.379 -1.50304 -0.473955 0
M  V30 1239 C 110.626 -1.6115 -1.22625 0
M  V30 1240 C 110.954 -0.310517 -1.92005 0
M  V30 1241 O 110.209 0.703419 -1.82621 0
M  V30 1242 C 110.508 -2.73938 -2.29549 0
M  V30 1243 C 110.174 -4.14519 -1.7744 0
M  V30 1244 C 108.836 -4.5277 -1.62949 0
M  V30 1245 C 111.188 -5.02392 -1.3875 0
M  V30 1246 C 108.516 -5.76639 -1.08187 0
M  V30 1247 C 110.868 -6.26805 -0.854309 0
M  V30 1248 C 109.532 -6.63861 -0.696011 0
M  V30 1249 H 108.802 -0.589691 -0.448715 0
M  V30 1250 H 111.449 -1.84228 -0.522705 0
M  V30 1251 H 109.754 -2.44937 -3.05799 0
M  V30 1252 H 111.451 -2.79534 -2.87509 0
M  V30 1253 H 108.041 -3.8434 -1.89685 0
M  V30 1254 H 112.225 -4.73474 -1.4878 0
M  V30 1255 H 107.481 -6.04027 -0.946666 0
M  V30 1256 H 111.655 -6.94258 -0.545843 0
M  V30 1257 H 109.282 -7.59722 -0.26952 0
M  V30 1258 N 110.857 0.726932 -1.39834 0
M  V30 1259 C 112.268 1.30558 -1.3346 0
M  V30 1260 C 112.619 1.962 -0.00273003 0
M  V30 1261 O 111.744 1.96826 0.899371 0
M  V30 1262 C 112.339 2.37404 -2.41713 0
M  V30 1263 C 110.898 2.90921 -2.38835 0
M  V30 1264 C 110.045 1.64578 -2.2318 0
M  V30 1265 H 112.996 0.523862 -1.49804 0
M  V30 1266 H 113.017 3.17984 -2.08966 0
M  V30 1267 H 112.529 1.89599 -3.38635 0
M  V30 1268 H 110.63 3.42985 -1.45575 0
M  V30 1269 H 110.743 3.43487 -3.33997 0
M  V30 1270 H 109.107 1.89219 -1.70494 0
M  V30 1271 H 109.89 1.18814 -3.22084 0
M  V30 1272 N 112.336 1.25143 0.95797 0
M  V30 1273 C 113.299 1.05321 2.03569 0
M  V30 1274 C 114.299 0.007152 1.60798 0
M  V30 1275 O 115.489 0.24903 1.72411 0
M  V30 1276 C 112.621 0.598394 3.35607 0
M  V30 1277 H 113.814 2.00986 2.22586 0
M  V30 1278 H 111.367 1.07502 1.13459 0
M  V30 1279 H 112.102 -0.361014 3.22284 0
M  V30 1280 H 111.887 1.35351 3.67998 0
M  V30 1281 H 113.377 0.48104 4.1482 0
M  V30 1282 N 113.814 -1.1601 1.06675 0
M  V30 1283 C 115.039 -1.91068 0.806706 0
M  V30 1284 C 115.464 -1.77112 -0.633485 0
M  V30 1285 O 114.822 -1.09908 -1.44187 0
M  V30 1286 C 114.87 -3.39655 1.21106 0
M  V30 1287 O 113.974 -4.10893 0.352189 0
M  V30 1288 H 113.315 -0.595125 0.294486 0
M  V30 1289 H 115.845 -1.46955 1.42356 0
M  V30 1290 H 115.855 -3.90434 1.18428 0
M  V30 1291 H 114.53 -3.49132 2.26008 0
M  V30 1292 H 113.107 -3.70285 0.440868 0
M  V30 1293 N 115.292 -0.849877 -1.32721 0
M  V30 1294 C 116.539 -0.450923 -1.97416 0
M  V30 1295 C 116.867 0.992376 -1.67279 0
M  V30 1296 O 116.122 1.71048 -0.950845 0
M  V30 1297 C 116.421 -0.631272 -3.51781 0
M  V30 1298 C 116.087 -2.04432 -4.01894 0
M  V30 1299 C 114.749 -2.4308 -4.1529 0
M  V30 1300 C 117.101 -2.96679 -4.28522 0
M  V30 1301 C 114.429 -3.73257 -4.52654 0
M  V30 1302 C 116.781 -4.26349 -4.67343 0
M  V30 1303 C 115.445 -4.64939 -4.78945 0
M  V30 1304 H 114.715 -0.165004 -0.722395 0
M  V30 1305 H 117.362 -1.07901 -1.58207 0
M  V30 1306 H 115.667 0.0800767 -3.91718 0
M  V30 1307 H 117.364 -0.302709 -3.99856 0
M  V30 1308 H 113.954 -1.73419 -3.91949 0
M  V30 1309 H 118.138 -2.68054 -4.17685 0
M  V30 1310 H 113.394 -4.02946 -4.59831 0
M  V30 1311 H 117.568 -4.97895 -4.86902 0
M  V30 1312 H 115.195 -5.65855 -5.07654 0
M  V30 1313 N 116.77 1.45427 -0.607355 0
M  V30 1314 C 118.017 2.02241 -0.102455 0
M  V30 1315 C 118.345 1.4758 1.26691 0
M  V30 1316 O 117.6 0.640468 1.84923 0
M  V30 1317 C 117.899 3.57398 -0.0129263 0
M  V30 1318 C 117.565 4.3121 -1.31792 0
M  V30 1319 C 116.227 4.51092 -1.67539 0
M  V30 1320 C 118.579 4.73401 -2.18039 0
M  V30 1321 C 115.907 5.10422 -2.89285 0
M  V30 1322 C 118.259 5.34078 -3.39034 0
M  V30 1323 C 116.923 5.52184 -3.75033 0
M  V30 1324 H 116.193 0.740051 -0.037491 0
M  V30 1325 H 118.84 1.74494 -0.788926 0
M  V30 1326 H 117.145 3.84421 0.756806 0
M  V30 1327 H 118.842 3.99061 0.393881 0
M  V30 1328 H 115.432 4.16047 -1.02968 0
M  V30 1329 H 119.616 4.57774 -1.91721 0
M  V30 1330 H 114.872 5.22629 -3.17283 0
M  V30 1331 H 119.046 5.65724 -4.06115 0
M  V30 1332 H 116.673 5.97925 -4.69457 0
M  V30 1333 N 118.248 0.346503 1.53744 0
M  V30 1334 C 119.497 -0.250122 2.00143 0
M  V30 1335 C 119.81 -1.51418 1.23822 0
M  V30 1336 O 121.016 -2.18823 1.60713 0
M  V30 1337 C 119.472 -0.496252 3.56462 0
M  V30 1338 C 119.08 0.752077 4.41642 0
M  V30 1339 C 120.824 -1.05157 4.11269 0
M  V30 1340 C 118.731 0.476583 5.89477 0
M  V30 1341 H 117.661 -0.0972409 0.747703 0
M  V30 1342 H 120.312 0.46229 1.77581 0
M  V30 1343 H 118.694 -1.26944 3.75102 0
M  V30 1344 H 119.868 1.5266 4.34778 0
M  V30 1345 H 118.183 1.22925 3.97842 0
M  V30 1346 H 120.78 -1.27269 5.19333 0
M  V30 1347 H 121.123 -2.00799 3.64672 0
M  V30 1348 H 121.656 -0.339019 3.96353 0
M  V30 1349 H 118.395 1.4028 6.40314 0
M  V30 1350 H 117.915 -0.259794 5.99237 0
M  V30 1351 H 119.594 0.0949315 6.4693 0
M  V30 1352 N 119.726 -1.57421 0.075193 0
M  V30 1353 C 120.673 -2.12915 -0.890843 0
M  V30 1354 C 121.643 -1.04252 -1.29309 0
M  V30 1355 O 122.828 -1.31933 -1.37834 0
M  V30 1356 C 119.968 -2.69795 -2.15186 0
M  V30 1357 C 119.081 -3.92624 -1.80194 0
M  V30 1358 C 118.216 -4.37736 -3.00933 0
M  V30 1359 C 117.255 -5.53205 -2.61974 0
M  V30 1360 N 116.392 -5.9326 -3.75483 0
M  V30 1361 H 121.232 -2.95156 -0.410735 0
M  V30 1362 H 118.769 -1.45854 -0.191086 0
M  V30 1363 H 120.727 -3.00883 -2.89008 0
M  V30 1364 H 119.357 -1.90313 -2.60731 0
M  V30 1365 H 118.409 -3.67977 -0.964218 0
M  V30 1366 H 119.721 -4.76482 -1.47534 0
M  V30 1367 H 118.875 -4.70503 -3.8303 0
M  V30 1368 H 117.614 -3.52739 -3.36789 0
M  V30 1369 H 116.619 -5.20086 -1.783 0
M  V30 1370 H 117.844 -6.39936 -2.27284 0
M  V30 1371 H 115.79 -5.11212 -4.11094 0
M  V30 1372 H 115.707 -6.71865 -3.46602 0
M  V30 1373 H 116.975 -6.30651 -4.58148 0
M  V30 1374 N 121.204 0.198386 -1.56346 0
M  V30 1375 C 122.134 1.24865 -1.9731 0
M  V30 1376 C 123.115 1.47651 -0.844576 0
M  V30 1377 O 124.3 1.59444 -1.10866 0
M  V30 1378 C 121.43 2.59358 -2.30977 0
M  V30 1379 C 120.384 2.5119 -3.46537 0
M  V30 1380 C 119.71 3.89926 -3.65871 0
M  V30 1381 C 121.01 2.03977 -4.80823 0
M  V30 1382 H 122.704 0.908252 -2.85291 0
M  V30 1383 H 120.25 0.435462 -1.37258 0
M  V30 1384 H 122.203 3.33011 -2.58228 0
M  V30 1385 H 120.927 2.95132 -1.39874 0
M  V30 1386 H 119.586 1.79993 -3.19371 0
M  V30 1387 H 119.234 4.23046 -2.72105 0
M  V30 1388 H 118.934 3.85336 -4.4361 0
M  V30 1389 H 120.458 4.65205 -3.95495 0
M  V30 1390 H 121.872 2.67386 -5.07127 0
M  V30 1391 H 120.269 2.10397 -5.62008 0
M  V30 1392 H 121.339 0.992861 -4.74626 0
M  V30 1393 N 122.682 1.50554 0.465978 0
M  V30 1394 C 124.093 1.54599 1.04671 0
M  V30 1395 C 124.444 0.352488 1.93008 0
M  V30 1396 O 123.569 -0.534044 2.09707 0
M  V30 1397 C 124.164 2.80166 1.90505 0
M  V30 1398 C 122.723 2.86876 2.43678 0
M  V30 1399 C 121.87 2.48947 1.22151 0
M  V30 1400 H 124.821 1.56744 0.248384 0
M  V30 1401 H 124.842 2.62311 2.75633 0
M  V30 1402 H 124.354 3.67013 1.26186 0
M  V30 1403 H 122.455 2.04393 3.11536 0
M  V30 1404 H 122.568 3.89885 2.78436 0
M  V30 1405 H 120.932 2.01498 1.5579 0
M  V30 1406 H 121.715 3.38107 0.594866 0
M  V30 1407 N 124.16 -0.719506 1.40217 0
M  V30 1408 C 125.409 -1.47486 1.37589 0
M  V30 1409 C 125.722 -1.9559 -0.0201568 0
M  V30 1410 O 126.928 -2.70973 -0.169049 0
M  V30 1411 C 125.384 -2.66575 2.41796 0
M  V30 1412 C 124.992 -2.25358 3.87192 0
M  V30 1413 C 126.736 -3.4433 2.48269 0
M  V30 1414 C 124.643 -3.41262 4.83005 0
M  V30 1415 H 123.573 -0.553901 0.511576 0
M  V30 1416 H 126.224 -0.783427 1.65936 0
M  V30 1417 H 124.606 -3.3787 2.06543 0
M  V30 1418 H 125.78 -1.61509 4.31569 0
M  V30 1419 H 124.095 -1.60657 3.84159 0
M  V30 1420 H 126.692 -4.30569 3.17041 0
M  V30 1421 H 127.035 -3.87872 1.51198 0
M  V30 1422 H 127.568 -2.80076 2.82493 0
M  V30 1423 H 124.307 -3.02755 5.81394 0
M  V30 1424 H 123.827 -4.0404 4.43297 0
M  V30 1425 H 125.506 -4.07383 5.02641 0
M  V30 1426 N 125.638 -1.25649 -0.95132 0
M  V30 1427 C 126.887 -1.09988 -1.69073 0
M  V30 1428 C 127.2 0.358355 -1.92289 0
M  V30 1429 O 128.406 0.635466 -2.63958 0
M  V30 1430 C 126.862 -1.92012 -3.044 0
M  V30 1431 C 126.47 -3.42347 -2.88968 0
M  V30 1432 C 128.214 -1.8493 -3.82101 0
M  V30 1433 C 126.121 -4.16655 -4.19705 0
M  V30 1434 H 125.051 -0.407993 -0.63408 0
M  V30 1435 H 127.702 -1.49873 -1.05879 0
M  V30 1436 H 126.084 -1.44952 -3.68517 0
M  V30 1437 H 127.258 -3.97104 -2.33762 0
M  V30 1438 H 125.573 -3.50557 -2.24719 0
M  V30 1439 H 128.17 -2.37739 -4.78941 0
M  V30 1440 H 128.513 -0.817883 -4.08187 0
M  V30 1441 H 129.046 -2.29758 -3.2474 0
M  V30 1442 H 125.785 -5.20224 -3.98807 0
M  V30 1443 H 125.305 -3.66681 -4.74663 0
M  V30 1444 H 126.984 -4.24551 -4.88227 0
M  V30 1445 N 127.117 1.15442 -1.07289 0
M  V30 1446 C 128.047 2.22312 -0.714107 0
M  V30 1447 C 129.028 1.67467 0.298155 0
M  V30 1448 O 130.213 1.93445 0.171048 0
M  V30 1449 C 127.343 3.47124 -0.110448 0
M  V30 1450 C 126.297 4.14926 -1.04979 0
M  V30 1451 C 125.623 5.33807 -0.308924 0
M  V30 1452 C 126.923 4.64762 -2.38314 0
M  V30 1453 H 128.617 2.5258 -1.6076 0
M  V30 1454 H 126.163 1.21404 -0.77441 0
M  V30 1455 H 128.116 4.21124 0.152482 0
M  V30 1456 H 126.84 3.16187 0.81812 0
M  V30 1457 H 125.499 3.42866 -1.29764 0
M  V30 1458 H 125.147 4.99126 0.623084 0
M  V30 1459 H 124.847 5.80113 -0.935036 0
M  V30 1460 H 126.371 6.10576 -0.0537771 0
M  V30 1461 H 127.785 5.30292 -2.1786 0
M  V30 1462 H 126.182 5.21728 -2.96514 0
M  V30 1463 H 127.252 3.80434 -3.00663 0
M  V30 1464 N 128.595 0.856903 1.32268 0
M  V30 1465 C 129.558 0.308171 2.27119 0
M  V30 1466 C 130.558 -0.533421 1.51695 0
M  V30 1467 O 131.748 -0.344607 1.70757 0
M  V30 1468 C 128.88 -0.563757 3.36206 0
M  V30 1469 H 130.073 1.14535 2.77167 0
M  V30 1470 H 127.626 0.631421 1.42978 0
M  V30 1471 H 128.361 -1.42266 2.91429 0
M  V30 1472 H 128.146 0.0386749 3.92081 0
M  V30 1473 H 129.636 -0.940386 4.06874 0
M  V30 1474 N 130.073 -1.45103 0.615059 0
M  V30 1475 C 131.32 -2.02183 0.113179 0
M  V30 1476 C 131.648 -1.48249 -1.25906 0
M  V30 1477 O 130.903 -0.650265 -1.84581 0
M  V30 1478 C 131.202 -3.57386 0.0318797 0
M  V30 1479 C 130.868 -4.30505 1.34077 0
M  V30 1480 C 129.53 -4.50197 1.69929 0
M  V30 1481 C 131.882 -4.72238 2.20546 0
M  V30 1482 C 129.21 -5.08881 2.91988 0
M  V30 1483 C 131.562 -5.32272 3.41861 0
M  V30 1484 C 130.226 -5.50187 3.77956 0
M  V30 1485 H 129.496 -0.739842 0.0414151 0
M  V30 1486 H 132.143 -1.74073 0.798168 0
M  V30 1487 H 130.448 -3.84817 -0.736409 0
M  V30 1488 H 132.145 -3.99264 -0.372712 0
M  V30 1489 H 128.735 -4.15496 1.05173 0
M  V30 1490 H 132.919 -4.56751 1.94146 0
M  V30 1491 H 128.175 -5.20939 3.2005 0
M  V30 1492 H 132.349 -5.63563 4.09109 0
M  V30 1493 H 129.976 -5.95427 4.72622 0
M  V30 1494 N 131.551 -0.354651 -1.53558 0
M  V30 1495 C 132.514 0.484566 -2.24019 0
M  V30 1496 C 133.514 1.01861 -1.24422 0
M  V30 1497 O 134.704 0.906097 -1.4878 0
M  V30 1498 C 131.836 1.67615 -2.96847 0
M  V30 1499 H 133.029 -0.131843 -2.9961 0
M  V30 1500 H 130.582 -0.106165 -1.55939 0
M  V30 1501 H 131.317 2.33095 -2.25471 0
M  V30 1502 H 131.102 1.30029 -3.69912 0
M  V30 1503 H 132.592 2.27114 -3.50441 0
M  V30 1504 N 133.029 1.57378 -0.0835403 0
M  V30 1505 C 134.257 1.98263 0.59157 0
M  V30 1506 C 134.672 0.962302 1.62435 0
M  V30 1507 O 134.029 -0.049581 1.82433 0
M  V30 1508 C 134.08 3.39214 1.24965 0
M  V30 1509 O 133.801 4.37339 0.258186 0
M  V30 1510 C 135.302 3.95038 2.01147 0
M  V30 1511 H 132.522 0.651773 0.159477 0
M  V30 1512 H 135.066 2.03878 -0.159415 0
M  V30 1513 H 133.221 3.34649 1.95164 0
M  V30 1514 H 133.635 5.19371 0.731734 0
M  V30 1515 H 135.109 4.95848 2.42567 0
M  V30 1516 H 135.586 3.32222 2.87272 0
M  V30 1517 H 136.192 4.0304 1.35789 0
M  V30 1518 N 134.507 -0.190092 1.56449 0
M  V30 1519 C 135.747 -0.916414 1.82705 0
M  V30 1520 C 136.111 -1.80235 0.661763 0
M  V30 1521 O 137.312 -2.56484 0.80433 0
M  V30 1522 C 135.583 -1.70691 3.14005 0
M  V30 1523 S 137.142 -2.48457 3.61683 0
M  V30 1524 H 133.96 -0.307281 0.64117 0
M  V30 1525 H 136.562 -0.179433 1.94675 0
M  V30 1526 H 135.266 -1.04677 3.96826 0
M  V30 1527 H 134.797 -2.48562 3.04927 0
M  V30 1528 H 136.812 -3.72756 3.27517 0
M  V30 1529 N 135.985 -1.50799 -0.457987 0
M  V30 1530 C 137.232 -1.62442 -1.20908 0
M  V30 1531 C 137.56 -0.330865 -1.91665 0
M  V30 1532 O 136.815 0.68401 -1.83357 0
M  V30 1533 C 137.114 -2.76358 -2.2663 0
M  V30 1534 C 136.78 -4.16378 -1.73033 0
M  V30 1535 C 135.442 -4.54473 -1.58138 0
M  V30 1536 C 137.794 -5.03836 -1.33413 0
M  V30 1537 C 135.122 -5.77754 -1.02065 0
M  V30 1538 C 137.474 -6.27676 -0.78778 0
M  V30 1539 C 136.138 -6.64562 -0.625561 0
M  V30 1540 H 135.408 -0.594417 -0.442435 0
M  V30 1541 H 138.055 -1.84772 -0.503136 0
M  V30 1542 H 136.36 -2.48167 -3.03184 0
M  V30 1543 H 138.057 -2.82568 -2.84528 0
M  V30 1544 H 134.647 -3.86331 -1.85598 0
M  V30 1545 H 138.831 -4.75026 -1.4375 0
M  V30 1546 H 134.087 -6.04997 -0.882547 0
M  V30 1547 H 138.261 -6.94797 -0.472177 0
M  V30 1548 H 135.888 -7.59965 -0.188926 0
M  V30 1549 N 137.463 0.71206 -1.40597 0
M  V30 1550 C 138.393 1.83889 -1.43899 0
M  V30 1551 C 139.374 1.67442 -0.299504 0
M  V30 1552 O 140.559 1.87421 -0.508624 0
M  V30 1553 C 137.689 3.21877 -1.30431 0
M  V30 1554 C 136.643 3.53002 -2.42019 0
M  V30 1555 C 135.969 4.90172 -2.13626 0
M  V30 1556 C 137.269 3.53643 -3.84362 0
M  V30 1557 H 138.963 1.81383 -2.38203 0
M  V30 1558 H 136.509 0.871237 -1.14654 0
M  V30 1559 H 138.462 4.00404 -1.31357 0
M  V30 1560 H 137.186 3.24968 -0.326049 0
M  V30 1561 H 135.845 2.76818 -2.40349 0
M  V30 1562 H 135.493 4.89869 -1.14182 0
M  V30 1563 H 135.193 5.11962 -2.88389 0
M  V30 1564 H 136.717 5.71028 -2.1624 0
M  V30 1565 H 138.131 4.22203 -3.87837 0
M  V30 1566 H 136.528 3.86961 -4.58673 0
M  V30 1567 H 137.598 2.52954 -4.13693 0
M  V30 1568 N 138.941 1.26152 0.944643 0
M  V30 1569 C 140.19 1.10883 1.68487 0
M  V30 1570 C 140.503 -0.348153 1.92477 0
M  V30 1571 O 141.709 -0.621459 2.64292 0
M  V30 1572 C 140.165 1.93624 3.03377 0
M  V30 1573 C 139.773 3.43875 2.87148 0
M  V30 1574 C 141.517 1.86954 3.81115 0
M  V30 1575 C 139.424 4.18875 4.1749 0
M  V30 1576 H 138.354 0.41135 0.631907 0
M  V30 1577 H 141.005 1.50433 1.05082 0
M  V30 1578 H 139.387 1.46904 3.67743 0
M  V30 1579 H 140.561 3.98338 2.31653 0
M  V30 1580 H 138.876 3.51744 2.22856 0
M  V30 1581 H 141.473 2.40275 4.77673 0
M  V30 1582 H 141.816 0.839518 4.07747 0
M  V30 1583 H 142.349 2.31477 3.23517 0
M  V30 1584 H 139.088 5.22332 3.96043 0
M  V30 1585 H 138.608 3.69193 4.72712 0
M  V30 1586 H 140.287 4.27134 4.85968 0
M  V30 1587 N 140.419 -1.14872 1.07899 0
M  V30 1588 C 141.83 -1.67367 0.827363 0
M  V30 1589 C 142.181 -1.85236 -0.646693 0
M  V30 1590 O 141.306 -1.55974 -1.50004 0
M  V30 1591 C 141.901 -3.04016 1.49532 0
M  V30 1592 C 140.46 -3.53566 1.29106 0
M  V30 1593 C 139.607 -2.29161 1.56143 0
M  V30 1594 H 142.558 -0.990083 1.24028 0
M  V30 1595 H 142.579 -3.69219 0.919643 0
M  V30 1596 H 142.091 -2.90978 2.56814 0
M  V30 1597 H 140.192 -3.71835 0.238713 0
M  V30 1598 H 140.305 -4.34661 2.01511 0
M  V30 1599 H 138.669 -2.34978 0.982717 0
M  V30 1600 H 139.452 -2.18705 2.64619 0
M  V30 1601 N 141.898 -0.863906 -1.31812 0
M  V30 1602 C 142.828 -0.330843 -2.31144 0
M  V30 1603 C 143.809 0.575005 -1.60087 0
M  V30 1604 O 144.994 0.493304 -1.8783 0
M  V30 1605 C 142.124 0.47374 -3.44054 0
M  V30 1606 C 141.078 -0.338481 -4.26659 0
M  V30 1607 C 140.404 0.591412 -5.31419 0
M  V30 1608 C 141.704 -1.56926 -4.98168 0
M  V30 1609 H 143.398 -1.16086 -2.75979 0
M  V30 1610 H 140.944 -0.559657 -1.32679 0
M  V30 1611 H 142.897 0.857143 -4.12591 0
M  V30 1612 H 141.621 1.33721 -2.9797 0
M  V30 1613 H 140.28 -0.703754 -3.59782 0
M  V30 1614 H 139.928 1.45199 -4.81587 0
M  V30 1615 H 139.628 0.0519022 -5.87577 0
M  V30 1616 H 141.152 0.97179 -6.02817 0
M  V30 1617 H 142.566 -1.25764 -5.59336 0
M  V30 1618 H 140.963 -2.04739 -5.64094 0
M  V30 1619 H 142.033 -2.32544 -4.25501 0
M  V30 1620 N 143.376 1.44774 -0.622745 0
M  V30 1621 C 144.604 2.06487 -0.130722 0
M  V30 1622 C 145.019 1.46476 1.19123 0
M  V30 1623 O 144.376 0.584502 1.72887 0
M  V30 1624 C 144.427 3.615 -0.000807207 0
M  V30 1625 O 144.148 4.19274 -1.27048 0
M  V30 1626 C 145.649 4.40229 0.520898 0
M  V30 1627 H 142.869 0.666704 -0.0758106 0
M  V30 1628 H 145.413 1.85779 -0.854774 0
M  V30 1629 H 143.568 3.81498 0.673643 0
M  V30 1630 H 143.982 5.12622 -1.1099 0
M  V30 1631 H 145.456 5.49144 0.560838 0
M  V30 1632 H 145.933 4.1108 1.54627 0
M  V30 1633 H 146.539 4.25131 -0.120018 0
M  V30 1634 N 144.854 0.36279 1.53368 0
M  V30 1635 C 146.079 -0.231226 2.06107 0
M  V30 1636 C 146.504 -1.419 1.23474 0
M  V30 1637 O 145.862 -1.79524 0.253128 0
M  V30 1638 C 145.91 -0.605523 3.5548 0
M  V30 1639 O 145.014 -1.70312 3.7559 0
M  V30 1640 H 144.355 -0.034327 0.663112 0
M  V30 1641 H 146.885 0.522584 1.97814 0
M  V30 1642 H 146.895 -0.877314 3.98456 0
M  V30 1643 H 145.57 0.263004 4.15068 0
M  V30 1644 H 144.147 -1.4271 3.44512 0
M  V30 1645 N 146.332 -1.57332 0.0918853 0
M  V30 1646 C 147.264 -2.10869 -0.898168 0
M  V30 1647 C 148.277 -1.04521 -1.24817 0
M  V30 1648 O 149.466 -1.31977 -1.20184 0
M  V30 1649 C 146.566 -2.57083 -2.2082 0
M  V30 1650 C 145.739 -3.87229 -2.03402 0
M  V30 1651 C 144.798 -4.19324 -3.17889 0
M  V30 1652 O 143.824 -4.88598 -2.91994 0
M  V30 1653 N 145.026 -3.74471 -4.43567 0
M  V30 1654 H 147.791 -2.96439 -0.440943 0
M  V30 1655 H 145.352 -1.61631 -0.0933064 0
M  V30 1656 H 147.344 -2.75602 -2.96354 0
M  V30 1657 H 145.914 -1.76541 -2.57977 0
M  V30 1658 H 145.134 -3.7789 -1.12218 0
M  V30 1659 H 146.422 -4.72379 -1.89038 0
M  V30 1660 H 145.82 -3.18546 -4.67488 0
M  V30 1661 H 144.377 -3.98151 -5.16061 0
M  V30 1662 N 147.81 0.181792 -1.56548 0
M  V30 1663 C 149.057 0.900097 -1.81396 0
M  V30 1664 C 149.385 1.82695 -0.667281 0
M  V30 1665 O 148.64 1.92614 0.346146 0
M  V30 1666 C 148.939 1.73728 -3.12335 0
M  V30 1667 C 148.605 0.960255 -4.40556 0
M  V30 1668 C 147.267 0.745766 -4.75386 0
M  V30 1669 C 149.619 0.414477 -5.19549 0
M  V30 1670 C 146.947 -0.0257694 -5.86694 0
M  V30 1671 C 149.299 -0.343916 -6.31664 0
M  V30 1672 C 147.963 -0.569301 -6.65068 0
M  V30 1673 H 147.233 0.329369 -0.663775 0
M  V30 1674 H 149.88 0.165647 -1.90782 0
M  V30 1675 H 148.185 2.54081 -2.98245 0
M  V30 1676 H 149.882 2.29591 -3.28769 0
M  V30 1677 H 146.472 1.13746 -4.13231 0
M  V30 1678 H 150.656 0.567554 -4.93044 0
M  V30 1679 H 145.912 -0.210233 -6.11038 0
M  V30 1680 H 150.086 -0.774133 -6.92084 0
M  V30 1681 H 147.713 -1.16903 -7.51158 0
M  V30 1682 N 149.288 1.51039 0.449983 0
M  V30 1683 C 150.535 1.63081 1.20045 0
M  V30 1684 C 150.863 0.341024 1.91487 0
M  V30 1685 O 150.118 -0.674276 1.83717 0
M  V30 1686 C 150.417 2.77556 2.25161 0
M  V30 1687 C 150.083 4.17289 1.70823 0
M  V30 1688 C 148.745 4.55305 1.55725 0
M  V30 1689 C 151.097 5.04536 1.3074 0
M  V30 1690 C 148.425 5.78287 0.989999 0
M  V30 1691 C 150.777 6.28085 0.754482 0
M  V30 1692 C 149.441 6.64885 0.590308 0
M  V30 1693 H 148.711 0.596755 0.439277 0
M  V30 1694 H 151.358 1.85037 0.49333 0
M  V30 1695 H 149.663 2.49771 3.01863 0
M  V30 1696 H 151.36 2.84073 2.83026 0
M  V30 1697 H 147.95 3.8731 1.83546 0
M  V30 1698 H 152.134 4.75782 1.41229 0
M  V30 1699 H 147.39 6.05456 0.850451 0
M  V30 1700 H 151.564 6.95038 0.435324 0
M  V30 1701 H 149.191 7.60055 0.14862 0
M  V30 1702 N 150.766 -0.704594 1.40972 0
M  V30 1703 C 151.696 -1.83124 1.44872 0
M  V30 1704 C 152.677 -1.67281 0.30838 0
M  V30 1705 O 153.862 -1.87149 0.518556 0
M  V30 1706 C 150.992 -3.21181 1.32136 0
M  V30 1707 C 149.946 -3.51714 2.43888 0
M  V30 1708 C 149.272 -4.89032 2.16222 0
M  V30 1709 C 150.572 -3.516 3.86232 0
M  V30 1710 H 152.266 -1.80117 2.39161 0
M  V30 1711 H 149.812 -0.865145 1.15114 0
M  V30 1712 H 151.765 -3.99702 1.33479 0
M  V30 1713 H 150.489 -3.24791 0.343279 0
M  V30 1714 H 149.148 -2.75539 2.41813 0
M  V30 1715 H 148.796 -4.89256 1.16778 0
M  V30 1716 H 148.496 -5.10426 2.911 0
M  V30 1717 H 150.02 -5.69873 2.19265 0
M  V30 1718 H 151.434 -4.2014 3.9007 0
M  V30 1719 H 149.831 -3.84523 4.60719 0
M  V30 1720 H 150.901 -2.50757 4.15029 0
M  V30 1721 N 152.244 -1.26651 -0.937939 0
M  V30 1722 C 153.655 -1.1125 -1.49934 0
M  V30 1723 C 154.006 0.306077 -1.93798 0
M  V30 1724 O 153.131 1.19792 -1.80219 0
M  V30 1725 C 153.726 -2.01339 -2.72485 0
M  V30 1726 C 152.285 -1.90074 -3.24883 0
M  V30 1727 C 151.432 -1.94498 -1.97651 0
M  V30 1728 H 154.383 -1.39693 -0.753091 0
M  V30 1729 H 154.404 -1.56319 -3.46907 0
M  V30 1730 H 153.916 -3.04577 -2.40529 0
M  V30 1731 H 152.017 -0.897827 -3.61621 0
M  V30 1732 H 152.13 -2.75778 -3.9177 0
M  V30 1733 H 150.494 -1.38591 -2.13693 0
M  V30 1734 H 151.277 -2.99372 -1.68022 0
M  V30 1735 N 153.722 1.14298 -1.08507 0
M  V30 1736 C 154.685 2.17607 -0.719711 0
M  V30 1737 C 155.685 1.58907 0.245997 0
M  V30 1738 O 156.875 1.74181 0.0254081 0
M  V30 1739 C 154.007 3.40842 -0.0627695 0
M  V30 1740 H 155.2 2.51443 -1.63452 0
M  V30 1741 H 152.753 1.28963 -0.88307 0
M  V30 1742 H 153.488 3.12587 0.863716 0
M  V30 1743 H 153.273 3.84713 -0.757504 0
M  V30 1744 H 154.763 4.17221 0.177786 0
M  V30 1745 N 155.201 0.870884 1.31352 0
M  V30 1746 C 156.131 0.343096 2.30966 0
M  V30 1747 C 157.112 -0.566507 1.60389 0
M  V30 1748 O 158.297 -0.483336 1.88089 0
M  V30 1749 C 155.427 -0.455487 3.443 0
M  V30 1750 C 154.381 0.361103 4.26474 0
M  V30 1751 C 153.707 -0.563221 5.31725 0
M  V30 1752 C 155.007 1.59566 4.97329 0
M  V30 1753 H 156.701 1.17548 2.75359 0
M  V30 1754 H 154.247 0.566686 1.32381 0
M  V30 1755 H 156.2 -0.83525 4.13039 0
M  V30 1756 H 154.924 -1.32139 2.98675 0
M  V30 1757 H 153.583 0.722825 3.59403 0
M  V30 1758 H 153.231 -1.42643 4.82351 0
M  V30 1759 H 152.931 -0.0207409 5.87596 0
M  V30 1760 H 154.455 -0.939808 6.03324 0
M  V30 1761 H 155.869 1.28728 5.58661 0
M  V30 1762 H 154.266 2.07728 5.63 0
M  V30 1763 H 155.336 2.34798 4.24262 0
M  V30 1764 N 156.679 -1.44442 0.630414 0
M  V30 1765 C 158.09 -1.85434 0.217063 0
M  V30 1766 C 158.441 -1.52748 -1.23136 0
M  V30 1767 O 157.566 -0.965205 -1.93682 0
M  V30 1768 C 158.161 -3.36581 0.387168 0
M  V30 1769 C 156.72 -3.76389 0.0283297 0
M  V30 1770 C 155.867 -2.68296 0.700889 0
M  V30 1771 H 158.818 -1.34919 0.83562 0
M  V30 1772 H 158.839 -3.78657 -0.374086 0
M  V30 1773 H 158.351 -3.60339 1.44144 0
M  V30 1774 H 156.452 -3.58246 -1.02423 0
M  V30 1775 H 156.565 -4.77095 0.437892 0
M  V30 1776 H 154.929 -2.54335 0.136267 0
M  V30 1777 H 155.712 -2.94887 1.75774 0
M  V30 1778 N 158.157 -0.370918 -1.53173 0
M  V30 1779 C 159.403 0.217423 -2.01631 0
M  V30 1780 C 159.736 1.47983 -1.25756 0
M  V30 1781 O 159.011 1.91274 -0.352764 0
M  V30 1782 C 159.294 0.503982 -3.56556 0
M  V30 1783 C 159.147 -0.77243 -4.43118 0
M  V30 1784 C 160.466 1.30234 -4.20389 0
M  V30 1785 H 157.585 0.0775486 -0.732909 0
M  V30 1786 H 160.227 -0.496863 -1.83388 0
M  V30 1787 H 158.377 1.11248 -3.72231 0
M  V30 1788 H 160.049 -1.4098 -4.39229 0
M  V30 1789 H 158.292 -1.39167 -4.10871 0
M  V30 1790 H 158.963 -0.526815 -5.4948 0
M  V30 1791 H 161.439 0.787546 -4.08579 0
M  V30 1792 H 160.315 1.47158 -5.28806 0
M  V30 1793 H 160.576 2.31237 -3.76805 0
M  V30 1794 N 159.635 1.57281 -0.100228 0
M  V30 1795 C 160.882 1.94537 0.562268 0
M  V30 1796 C 161.21 0.982315 1.67871 0
M  V30 1797 O 160.465 0.00280936 1.957 0
M  V30 1798 C 160.764 3.38305 1.15259 0
M  V30 1799 C 160.43 4.50618 0.159409 0
M  V30 1800 C 159.092 4.81066 -0.113741 0
M  V30 1801 C 161.444 5.18615 -0.518461 0
M  V30 1802 C 158.772 5.76835 -1.07137 0
M  V30 1803 C 161.124 6.15412 -1.46459 0
M  V30 1804 C 159.788 6.44262 -1.74592 0
M  V30 1805 H 159.058 0.711863 0.205748 0
M  V30 1806 H 161.705 1.90679 -0.17715 0
M  V30 1807 H 160.01 3.38766 1.96836 0
M  V30 1808 H 161.707 3.64435 1.67297 0
M  V30 1809 H 158.297 4.2689 0.382491 0
M  V30 1810 H 162.481 4.95264 -0.320581 0
M  V30 1811 H 157.737 5.975 -1.29628 0
M  V30 1812 H 161.911 6.67194 -1.99564 0
M  V30 1813 H 159.538 7.1828 -2.48953 0
M  V30 1814 N 161.113 -0.173488 1.56642 0
M  V30 1815 C 162.341 -0.906095 1.86004 0
M  V30 1816 C 162.756 -1.75921 0.685355 0
M  V30 1817 O 162.113 -1.79198 -0.345578 0
M  V30 1818 C 162.164 -1.78462 3.14378 0
M  V30 1819 O 161.885 -0.965914 4.27319 0
M  V30 1820 C 163.386 -2.62707 3.57071 0
M  V30 1821 H 160.606 -0.263341 0.617165 0
M  V30 1822 H 163.15 -0.174236 2.03756 0
M  V30 1823 H 161.305 -2.46984 2.98459 0
M  V30 1824 H 161.719 -1.56655 5.00559 0
M  V30 1825 H 163.193 -3.19969 4.49804 0
M  V30 1826 H 163.67 -3.37472 2.81086 0
M  V30 1827 H 164.276 -1.99521 3.75595 0
M  V30 1828 N 162.591 -1.51276 -0.441967 0
M  V30 1829 C 163.837 -1.6492 -1.1905 0
M  V30 1830 C 164.192 -0.358731 -1.89026 0
M  V30 1831 O 163.485 0.645193 -1.8041 0
M  V30 1832 C 163.679 -2.78746 -2.23686 0
M  V30 1833 C 163.508 -4.18737 -1.63979 0
M  V30 1834 C 162.278 -4.84739 -1.42674 0
M  V30 1835 C 164.476 -5.01988 -1.11858 0
M  V30 1836 N 162.458 -6.08858 -0.785159 0
M  V30 1837 C 163.829 -6.17071 -0.601989 0
M  V30 1838 C 165.884 -4.87551 -1.0099 0
M  V30 1839 C 164.587 -7.19299 0.0126012 0
M  V30 1840 C 166.613 -5.89983 -0.409206 0
M  V30 1841 C 165.975 -7.04333 0.0968651 0
M  V30 1842 H 162.074 -0.657416 -0.423471 0
M  V30 1843 H 164.658 -1.8849 -0.48782 0
M  V30 1844 H 162.829 -2.56848 -2.91348 0
M  V30 1845 H 164.561 -2.81595 -2.90666 0
M  V30 1846 H 161.316 -4.42528 -1.68719 0
M  V30 1847 H 161.74 -6.75282 -0.481942 0
M  V30 1848 H 166.382 -3.99401 -1.38703 0
M  V30 1849 H 164.1 -8.071 0.401879 0
M  V30 1850 H 167.686 -5.8088 -0.327079 0
M  V30 1851 H 166.566 -7.82238 0.554373 0
M  V30 1852 N 164.069 0.697108 -1.41344 0
M  V30 1853 C 164.999 1.82353 -1.45841 0
M  V30 1854 C 165.98 1.67115 -0.317247 0
M  V30 1855 O 167.165 1.86871 -0.528474 0
M  V30 1856 C 164.295 3.20476 -1.33838 0
M  V30 1857 C 163.249 3.50415 -2.4575 0
M  V30 1858 C 162.575 4.87878 -2.18813 0
M  V30 1859 C 163.875 3.49546 -3.88091 0
M  V30 1860 H 165.569 1.78846 -2.40113 0
M  V30 1861 H 163.115 0.859028 -1.15571 0
M  V30 1862 H 165.068 3.98988 -1.35596 0
M  V30 1863 H 163.792 3.24604 -0.360498 0
M  V30 1864 H 162.451 2.74253 -2.43271 0
M  V30 1865 H 162.099 4.8863 -1.19371 0
M  V30 1866 H 161.799 5.08875 -2.93803 0
M  V30 1867 H 163.323 5.68702 -2.22284 0
M  V30 1868 H 164.737 4.18066 -3.92293 0
M  V30 1869 H 163.134 3.82075 -4.62751 0
M  V30 1870 H 164.204 2.48552 -4.16353 0
M  V30 1871 N 165.547 1.27147 0.931209 0
M  V30 1872 C 166.51 1.09615 2.01289 0
M  V30 1873 C 167.51 0.0412581 1.60747 0
M  V30 1874 O 168.7 0.285545 1.71844 0
M  V30 1875 C 165.832 0.669447 3.34262 0
M  V30 1876 H 167.025 2.05662 2.18273 0
M  V30 1877 H 164.578 1.09885 1.11153 0
M  V30 1878 H 165.313 -0.292572 3.22978 0
M  V30 1879 H 165.098 1.43127 3.65044 0
M  V30 1880 H 166.588 0.568921 4.13706 0
M  V30 1881 N 167.025 -1.13721 1.09112 0
M  V30 1882 C 167.955 -2.21148 0.749385 0
M  V30 1883 C 168.936 -1.6792 -0.271475 0
M  V30 1884 O 170.121 -1.93693 -0.140251 0
M  V30 1885 C 167.251 -3.46905 0.165659 0
M  V30 1886 C 166.205 -4.13203 1.11567 0
M  V30 1887 C 165.531 -5.33248 0.393809 0
M  V30 1888 C 166.831 -4.60912 2.45678 0
M  V30 1889 H 168.525 -2.4999 1.64758 0
M  V30 1890 H 166.071 -1.20156 0.793626 0
M  V30 1891 H 168.024 -4.21313 -0.085466 0
M  V30 1892 H 166.748 -3.17449 -0.767714 0
M  V30 1893 H 165.407 -3.40758 1.35202 0
M  V30 1894 H 165.055 -5.00054 -0.543599 0
M  V30 1895 H 164.755 -5.78552 1.02721 0
M  V30 1896 H 166.279 -6.10413 0.150908 0
M  V30 1897 H 167.693 -5.26759 2.26269 0
M  V30 1898 H 166.09 -5.16944 3.04776 0
M  V30 1899 H 167.16 -3.75603 3.06677 0
M  V30 1900 N 168.503 -0.877838 -1.30888 0
M  V30 1901 C 169.733 -0.506678 -2.00291 0
M  V30 1902 C 170.141 0.907449 -1.66018 0
M  V30 1903 O 169.484 1.60719 -0.88967 0
M  V30 1904 C 169.546 -0.59323 -3.54572 0
M  V30 1905 C 169.21 -1.97038 -4.12341 0
M  V30 1906 C 170.207 -2.93889 -4.28865 0
M  V30 1907 C 167.892 -2.27383 -4.47886 0
M  V30 1908 C 169.886 -4.19224 -4.80136 0
M  V30 1909 C 167.573 -3.52965 -4.98857 0
M  V30 1910 C 168.571 -4.48701 -5.14934 0
M  V30 1911 O 168.259 -5.72056 -5.64808 0
M  V30 1912 H 167.991 -0.1951 -0.647234 0
M  V30 1913 H 170.545 -1.18301 -1.6791 0
M  V30 1914 H 168.775 0.140057 -3.86446 0
M  V30 1915 H 170.464 -0.234372 -4.05223 0
M  V30 1916 H 171.23 -2.71756 -4.01714 0
M  V30 1917 H 167.109 -1.53639 -4.34645 0
M  V30 1918 H 170.653 -4.93956 -4.92599 0
M  V30 1919 H 166.55 -3.74939 -5.25443 0
M  V30 1920 H 167.318 -5.74337 -5.83163 0
M  V30 1921 N 169.982 1.44106 -0.638065 0
M  V30 1922 C 171.229 2.01978 -0.14533 0
M  V30 1923 C 171.557 1.50234 1.23532 0
M  V30 1924 O 170.812 0.679548 1.83523 0
M  V30 1925 C 171.111 3.5729 -0.0887327 0
M  V30 1926 C 170.777 4.28317 -1.40909 0
M  V30 1927 C 169.439 4.47437 -1.77069 0
M  V30 1928 C 171.791 4.6867 -2.28031 0
M  V30 1929 C 169.119 5.04171 -3.00047 0
M  V30 1930 C 171.471 5.26766 -3.50286 0
M  V30 1931 C 170.135 5.44104 -3.86661 0
M  V30 1932 H 169.405 0.739089 -0.0531801 0
M  V30 1933 H 172.052 1.72781 -0.825761 0
M  V30 1934 H 170.357 3.8594 0.675095 0
M  V30 1935 H 172.054 3.99807 0.309145 0
M  V30 1936 H 168.644 4.1377 -1.1177 0
M  V30 1937 H 172.828 4.53604 -2.01388 0
M  V30 1938 H 168.084 5.15782 -3.28298 0
M  V30 1939 H 172.258 5.56983 -4.18023 0
M  V30 1940 H 169.885 5.87832 -4.82034 0
M  V30 1941 N 171.46 0.379036 1.52974 0
M  V30 1942 C 172.688 -0.20679 2.05864 0
M  V30 1943 C 173.103 -1.41356 1.25155 0
M  V30 1944 O 172.46 -1.8009 0.295588 0
M  V30 1945 C 172.511 -0.587045 3.56702 0
M  V30 1946 O 172.232 0.571776 4.34353 0
M  V30 1947 C 173.733 -1.22983 4.25899 0
M  V30 1948 H 170.953 -0.0336123 0.670158 0
M  V30 1949 H 173.497 0.541298 1.97206 0
M  V30 1950 H 171.652 -1.28504 3.65466 0
M  V30 1951 H 172.066 0.261544 5.23847 0
M  V30 1952 H 173.54 -1.44635 5.32715 0
M  V30 1953 H 174.017 -2.19416 3.80465 0
M  V30 1954 H 174.623 -0.572892 4.21424 0
M  V30 1955 N 172.938 -1.57226 0.108567 0
M  V30 1956 C 174.178 -1.96717 -0.555155 0
M  V30 1957 C 174.542 -0.990003 -1.64508 0
M  V30 1958 O 175.743 -1.2739 -2.36696 0
M  V30 1959 C 174.014 -3.40575 -1.08367 0
M  V30 1960 S 175.573 -4.02072 -1.75737 0
M  V30 1961 H 172.391 -0.687638 -0.180762 0
M  V30 1962 H 174.993 -1.94563 0.191172 0
M  V30 1963 H 173.697 -4.0945 -0.279092 0
M  V30 1964 H 173.228 -3.46356 -1.86551 0
M  V30 1965 H 175.243 -3.91977 -3.04251 0
M  V30 1966 N 174.416 0.165178 -1.56732 0
M  V30 1967 C 175.379 1.18822 -1.95995 0
M  V30 1968 C 176.379 1.3685 -0.84431 0
M  V30 1969 O 177.569 1.34152 -1.11126 0
M  V30 1970 C 174.701 2.5521 -2.26011 0
M  V30 1971 H 175.894 0.851825 -2.87548 0
M  V30 1972 H 173.447 0.407857 -1.50885 0
M  V30 1973 H 174.182 2.93852 -1.37191 0
M  V30 1974 H 173.967 2.43489 -3.07336 0
M  V30 1975 H 175.457 3.28927 -2.57288 0
M  V30 1976 N 175.894 1.51508 0.433938 0
M  V30 1977 C 176.841 1.73068 1.52696 0
M  V30 1978 C 177.811 0.572441 1.55924 0
M  V30 1979 O 178.996 0.807253 1.72882 0
M  V30 1980 C 176.136 1.86474 2.90381 0
M  V30 1981 C 175.249 3.14037 2.96656 0
M  V30 1982 C 174.384 3.18019 4.25485 0
M  V30 1983 C 173.423 4.39882 4.2564 0
M  V30 1984 N 172.56 4.41394 5.45999 0
M  V30 1985 H 177.4 2.66366 1.33615 0
M  V30 1986 H 174.937 1.32008 0.649018 0
M  V30 1987 H 176.895 1.92229 3.70275 0
M  V30 1988 H 175.525 0.965809 3.08013 0
M  V30 1989 H 174.577 3.17575 2.09404 0
M  V30 1990 H 175.889 4.0394 2.92633 0
M  V30 1991 H 175.043 3.22708 5.13755 0
M  V30 1992 H 173.782 2.2601 4.3217 0
M  V30 1993 H 172.787 4.35366 3.35763 0
M  V30 1994 H 174.012 5.33159 4.20617 0
M  V30 1995 H 171.958 3.52258 5.53399 0
M  V30 1996 H 171.875 5.25111 5.4387 0
M  V30 1997 H 173.143 4.50281 6.36292 0
M  V30 1998 N 177.372 -0.689602 1.41712 0
M  V30 1999 C 178.621 -1.44534 1.40686 0
M  V30 2000 C 178.934 -1.95588 0.0213352 0
M  V30 2001 O 180.14 -2.71271 -0.111534 0
M  V30 2002 C 178.596 -2.61387 2.47396 0
M  V30 2003 C 178.204 -2.17094 3.91885 0
M  V30 2004 C 179.948 -3.38986 2.55517 0
M  V30 2005 C 177.855 -3.3094 4.90135 0
M  V30 2006 H 176.785 -0.542925 0.52321 0
M  V30 2007 H 179.436 -0.748054 1.6756 0
M  V30 2008 H 177.818 -3.33412 2.13664 0
M  V30 2009 H 178.992 -1.52318 4.34897 0
M  V30 2010 H 177.307 -1.52473 3.8748 0
M  V30 2011 H 179.904 -4.23747 3.26102 0
M  V30 2012 H 180.247 -3.84578 1.59391 0
M  V30 2013 H 180.78 -2.74021 2.8837 0
M  V30 2014 H 177.519 -2.90355 5.87685 0
M  V30 2015 H 177.039 -3.94546 4.51767 0
M  V30 2016 H 178.718 -3.9663 5.11169 0
M  V30 2017 N 178.85 -1.27639 -0.924453 0
M  V30 2018 C 180.261 -1.12834 -1.48746 0
M  V30 2019 C 180.612 0.285505 -1.94112 0
M  V30 2020 O 179.737 1.17874 -1.81479 0
M  V30 2021 C 180.332 -2.04217 -2.70334 0
M  V30 2022 C 178.891 -1.93509 -3.22848 0
M  V30 2023 C 178.038 -1.96583 -1.95577 0
M  V30 2024 H 180.989 -1.40484 -0.738233 0
M  V30 2025 H 181.01 -1.59989 -3.4523 0
M  V30 2026 H 180.522 -3.07111 -2.37285 0
M  V30 2027 H 178.623 -0.936131 -3.60649 0
M  V30 2028 H 178.736 -2.79917 -3.88823 0
M  V30 2029 H 177.1 -1.4085 -2.12211 0
M  V30 2030 H 177.883 -3.01137 -1.64837 0
M  V30 2031 N 180.328 1.1314 -1.09713 0
M  V30 2032 C 181.26 2.18343 -0.697056 0
M  V30 2033 C 182.273 1.60669 0.262551 0
M  V30 2034 O 183.462 1.78435 0.0481527 0
M  V30 2035 C 180.562 3.38899 -0.00684728 0
M  V30 2036 C 179.735 4.26078 -0.988741 0
M  V30 2037 C 178.794 5.25155 -0.331394 0
M  V30 2038 O 177.82 5.60701 -0.979926 0
M  V30 2039 N 179.022 5.73271 0.913261 0
M  V30 2040 H 181.787 2.5328 -1.60216 0
M  V30 2041 H 179.348 1.28491 -0.984971 0
M  V30 2042 H 181.34 4.02255 0.444191 0
M  V30 2043 H 179.91 3.02175 0.800551 0
M  V30 2044 H 179.13 3.59453 -1.61826 0
M  V30 2045 H 180.418 4.81178 -1.65364 0
M  V30 2046 H 179.816 5.46544 1.45966 0
M  V30 2047 H 178.373 6.3855 1.30757 0
M  V30 2048 N 181.806 0.884767 1.30421 0
M  V30 2049 C 182.716 0.355398 2.31892 0
M  V30 2050 C 183.732 -0.542261 1.65335 0
M  V30 2051 O 184.908 -0.435432 1.96637 0
M  V30 2052 C 181.973 -0.421661 3.44126 0
M  V30 2053 C 181.034 0.505727 4.26311 0
M  V30 2054 C 180.267 -0.234343 5.33185 0
M  V30 2055 O 180.49 -1.46045 5.51386 0
M  V30 2056 O 179.424 0.415443 6.00465 0
M  V30 2057 H 183.25 1.19685 2.79122 0
M  V30 2058 H 180.835 0.648596 1.34587 0
M  V30 2059 H 182.717 -0.861641 4.12497 0
M  V30 2060 H 181.392 -1.23942 2.99032 0
M  V30 2061 H 180.299 0.994513 3.60639 0
M  V30 2062 H 181.632 1.28948 4.75009 0
M  V30 2063 N 183.284 -1.43765 0.645699 0
M  V30 2064 C 184.53 -2.02731 0.164844 0
M  V30 2065 C 184.885 -1.49983 -1.2051 0
M  V30 2066 O 184.178 -0.680208 -1.79119 0
M  V30 2067 C 184.372 -3.57238 0.107679 0
M  V30 2068 C 184.201 -4.24977 1.47054 0
M  V30 2069 C 182.971 -4.61356 2.06103 0
M  V30 2070 C 185.169 -4.54476 2.40741 0
M  V30 2071 N 183.151 -5.14132 3.35473 0
M  V30 2072 C 184.522 -5.08489 3.54737 0
M  V30 2073 C 186.577 -4.36438 2.39637 0
M  V30 2074 C 185.28 -5.46364 4.67845 0
M  V30 2075 C 187.306 -4.7537 3.5182 0
M  V30 2076 C 186.668 -5.2951 4.64541 0
M  V30 2077 H 182.767 -0.774976 0.104578 0
M  V30 2078 H 185.351 -1.75051 0.852367 0
M  V30 2079 H 183.522 -3.84498 -0.549165 0
M  V30 2080 H 185.254 -4.0288 -0.383351 0
M  V30 2081 H 182.009 -4.46151 1.58892 0
M  V30 2082 H 182.433 -5.4498 4.01654 0
M  V30 2083 H 187.075 -3.93861 1.53731 0
M  V30 2084 H 184.793 -5.87888 5.54448 0
M  V30 2085 H 188.379 -4.63115 3.52159 0
M  V30 2086 H 187.259 -5.59077 5.49911 0
M  V30 2087 N 184.763 -0.387143 -1.52771 0
M  V30 2088 C 185.71 0.449048 -2.26389 0
M  V30 2089 C 186.68 1.05961 -1.27912 0
M  V30 2090 O 187.865 1.08804 -1.56737 0
M  V30 2091 C 185.005 1.57155 -3.0724 0
M  V30 2092 C 184.118 0.984066 -4.20643 0
M  V30 2093 C 183.253 2.07745 -4.88892 0
M  V30 2094 C 182.292 1.46574 -5.94292 0
M  V30 2095 N 181.429 2.49834 -6.56146 0
M  V30 2096 H 186.269 -0.185205 -2.97424 0
M  V30 2097 H 183.806 -0.103164 -1.46738 0
M  V30 2098 H 185.764 2.23309 -3.52405 0
M  V30 2099 H 184.394 2.17615 -2.38419 0
M  V30 2100 H 183.446 0.212193 -3.79808 0
M  V30 2101 H 184.758 0.497029 -4.96318 0
M  V30 2102 H 183.912 2.81673 -5.3735 0
M  V30 2103 H 182.651 2.59807 -4.12737 0
M  V30 2104 H 181.656 0.711696 -5.45174 0
M  V30 2105 H 182.881 0.953088 -6.72379 0
M  V30 2106 H 180.827 3.0107 -5.82832 0
M  V30 2107 H 180.744 2.05879 -7.27427 0
M  V30 2108 H 182.012 3.23399 -7.09249 0
M  V30 2109 N 186.241 1.57166 -0.116904 0
M  V30 2110 C 187.652 1.82169 0.408809 0
M  V30 2111 C 188.003 1.03393 1.66746 0
M  V30 2112 O 187.128 0.269886 2.1471 0
M  V30 2113 C 187.723 3.30429 0.748466 0
M  V30 2114 C 186.282 3.5612 1.21882 0
M  V30 2115 C 185.429 2.76374 0.226452 0
M  V30 2116 H 188.38 1.5497 -0.342063 0
M  V30 2117 H 188.401 3.44943 1.60607 0
M  V30 2118 H 187.913 3.87737 -0.167784 0
M  V30 2119 H 186.014 3.04168 2.15204 0
M  V30 2120 H 186.127 4.64705 1.16559 0
M  V30 2121 H 184.491 2.44515 0.713063 0
M  V30 2122 H 185.274 3.3644 -0.682859 0
M  V30 2123 N 187.719 -0.156864 1.56817 0
M  V30 2124 C 188.682 -1.17781 1.96622 0
M  V30 2125 C 189.682 -1.36401 0.851555 0
M  V30 2126 O 190.872 -1.33561 1.11836 0
M  V30 2127 C 188.004 -2.54008 2.27361 0
M  V30 2128 H 189.197 -0.836564 2.87996 0
M  V30 2129 H 186.75 -0.39985 1.51099 0
M  V30 2130 H 187.485 -2.9312 1.38748 0
M  V30 2131 H 187.27 -2.41856 3.08623 0
M  V30 2132 H 188.76 -3.27558 2.59029 0
M  V30 2133 N 189.197 -1.51736 -0.425897 0
M  V30 2134 C 190.446 -1.64201 -1.17136 0
M  V30 2135 C 190.759 -0.369705 -1.92074 0
M  V30 2136 O 191.965 -0.373898 -2.68913 0
M  V30 2137 C 190.421 -2.90035 -2.13091 0
M  V30 2138 C 190.029 -4.24312 -1.43747 0
M  V30 2139 C 191.773 -3.1186 -2.87999 0
M  V30 2140 C 189.68 -5.41285 -2.38253 0
M  V30 2141 H 188.61 -0.611624 -0.440944 0
M  V30 2142 H 191.261 -1.78212 -0.437328 0
M  V30 2143 H 189.643 -2.69684 -2.89977 0
M  V30 2144 H 190.817 -4.55086 -0.723408 0
M  V30 2145 H 189.132 -4.08456 -0.809465 0
M  V30 2146 H 191.729 -3.96427 -3.58817 0
M  V30 2147 H 192.072 -2.25403 -3.49999 0
M  V30 2148 H 192.605 -3.32605 -2.18217 0
M  V30 2149 H 189.344 -6.30037 -1.80925 0
M  V30 2150 H 188.864 -5.14872 -3.0768 0
M  V30 2151 H 190.543 -5.73694 -2.99139 0
M  V30 2152 N 190.675 0.682077 -1.42076 0
M  V30 2153 C 191.903 1.47057 -1.4554 0
M  V30 2154 C 192.318 1.8869 -0.0645779 0
M  V30 2155 O 191.675 1.57666 0.919115 0
M  V30 2156 C 191.726 2.72442 -2.37609 0
M  V30 2157 O 191.447 2.32559 -3.71279 0
M  V30 2158 C 192.948 3.66069 -2.50017 0
M  V30 2159 H 190.168 0.452737 -0.495248 0
M  V30 2160 H 192.712 0.838695 -1.8651 0
M  V30 2161 H 190.867 3.31835 -1.9991 0
M  V30 2162 H 191.281 3.13475 -4.20516 0
M  V30 2163 H 192.755 4.50792 -3.18576 0
M  V30 2164 H 193.232 4.11476 -1.53572 0
M  V30 2165 H 193.838 3.12572 -2.88407 0
M  V30 2166 N 192.153 1.28127 0.917671 0
M  V30 2167 C 193.399 1.15223 1.66888 0
M  V30 2168 C 193.732 -0.299293 1.9188 0
M  V30 2169 O 193.007 -1.21805 1.51637 0
M  V30 2170 C 193.29 1.94706 3.02922 0
M  V30 2171 C 193.143 3.47898 2.85109 0
M  V30 2172 C 194.462 1.75939 4.03402 0
M  V30 2173 H 191.581 0.419946 0.605652 0
M  V30 2174 H 194.223 1.57398 1.06423 0
M  V30 2175 H 192.373 1.58864 3.54534 0
M  V30 2176 H 194.045 3.93624 2.40537 0
M  V30 2177 H 192.288 3.7373 2.20246 0
M  V30 2178 H 192.959 3.98765 3.81694 0
M  V30 2179 H 195.435 2.07209 3.60837 0
M  V30 2180 H 194.311 2.33931 4.96556 0
M  V30 2181 H 194.572 0.709877 4.36364 0
M  V30 2182 N 193.631 -1.12557 1.10312 0
M  V30 2183 C 194.578 -2.18247 0.750781 0
M  V30 2184 C 195.548 -1.63853 -0.272293 0
M  V30 2185 O 196.733 -1.90195 -0.151862 0
M  V30 2186 C 193.873 -3.44591 0.187379 0
M  V30 2187 C 192.986 -4.13046 1.2656 0
M  V30 2188 C 192.121 -5.27034 0.663978 0
M  V30 2189 C 191.16 -5.87353 1.72287 0
M  V30 2190 N 190.297 -6.92757 1.1416 0
M  V30 2191 H 195.137 -2.47732 1.65628 0
M  V30 2192 H 192.674 -1.21629 0.827337 0
M  V30 2193 H 194.632 -4.16904 -0.157148 0
M  V30 2194 H 193.262 -3.15527 -0.681355 0
M  V30 2195 H 192.314 -3.38924 1.72727 0
M  V30 2196 H 193.626 -4.53947 2.06721 0
M  V30 2197 H 192.78 -6.06104 0.268824 0
M  V30 2198 H 191.519 -4.87407 -0.169082 0
M  V30 2199 H 190.524 -5.06971 2.12746 0
M  V30 2200 H 191.749 -6.29051 2.55875 0
M  V30 2201 H 189.695 -6.5517 0.329984 0
M  V30 2202 H 189.612 -7.3225 1.88007 0
M  V30 2203 H 190.88 -7.75658 0.772956 0
M  V30 2204 N 195.109 -0.891671 -1.2995 0
M  V30 2205 C 196.355 -0.514261 -1.96171 0
M  V30 2206 C 196.688 0.935506 -1.70182 0
M  V30 2207 O 195.963 1.66204 -1.01028 0
M  V30 2208 C 196.246 -0.797719 -3.51153 0
M  V30 2209 C 196.099 -2.2986 -3.86632 0
M  V30 2210 C 197.418 -0.278749 -4.39216 0
M  V30 2211 H 194.537 -0.188314 -0.712535 0
M  V30 2212 H 197.179 -1.11689 -1.53706 0
M  V30 2213 H 195.329 -0.284826 -3.87455 0
M  V30 2214 H 197.001 -2.88042 -3.60319 0
M  V30 2215 H 195.244 -2.76257 -3.34462 0
M  V30 2216 H 195.915 -2.44753 -4.94773 0
M  V30 2217 H 198.391 -0.717825 -4.09862 0
M  V30 2218 H 197.267 -0.506353 -5.46559 0
M  V30 2219 H 197.528 0.820266 -4.34424 0
M  V30 2220 N 196.587 1.43421 -0.653314 0
M  V30 2221 C 197.517 2.33487 0.0246656 0
M  V30 2222 C 198.498 1.49475 0.811863 0
M  V30 2223 O 199.683 1.78139 0.773322 0
M  V30 2224 C 196.813 3.32841 0.99166 0
M  V30 2225 C 195.767 4.26842 0.314568 0
M  V30 2226 C 195.093 5.16236 1.39302 0
M  V30 2227 C 196.393 5.16243 -0.793095 0
M  V30 2228 H 198.087 2.90427 -0.727481 0
M  V30 2229 H 195.633 1.39649 -0.351287 0
M  V30 2230 H 197.586 3.94747 1.47487 0
M  V30 2231 H 196.31 2.74158 1.77497 0
M  V30 2232 H 194.969 3.663 -0.148199 0
M  V30 2233 H 194.617 4.53891 2.16776 0
M  V30 2234 H 194.317 5.79948 0.945223 0
M  V30 2235 H 195.841 5.81015 1.87759 0
M  V30 2236 H 197.255 5.71958 -0.392039 0
M  V30 2237 H 195.652 5.88676 -1.16536 0
M  V30 2238 H 196.722 4.55927 -1.65103 0
M  V30 2239 N 198.065 0.39524 1.52563 0
M  V30 2240 C 199.476 -0.0774719 1.86539 0
M  V30 2241 C 199.827 -1.45641 1.31466 0
M  V30 2242 O 198.952 -2.06459 0.648367 0
M  V30 2243 C 199.547 -0.147356 3.38479 0
M  V30 2244 C 198.106 -0.564373 3.72145 0
M  V30 2245 C 197.253 0.269919 2.75983 0
M  V30 2246 H 200.204 0.612876 1.46388 0
M  V30 2247 H 200.225 -0.965343 3.68051 0
M  V30 2248 H 199.737 0.856387 3.78534 0
M  V30 2249 H 197.838 -1.57527 3.37663 0
M  V30 2250 H 197.951 -0.318402 4.78041 0
M  V30 2251 H 196.315 -0.265696 2.5331 0
M  V30 2252 H 197.098 1.27175 3.18875 0
M  V30 2253 N 199.544 -1.57102 0.125237 0
M  V30 2254 C 200.507 -2.14471 -0.80838 0
M  V30 2255 C 201.507 -1.0811 -1.19033 0
M  V30 2256 O 202.697 -1.33856 -1.11482 0
M  V30 2257 C 199.829 -2.69005 -2.09402 0
M  V30 2258 H 201.022 -2.98297 -0.309696 0
M  V30 2259 H 198.575 -1.55807 -0.124051 0
M  V30 2260 H 199.31 -1.88785 -2.63687 0
M  V30 2261 H 199.095 -3.46799 -1.82957 0
M  V30 2262 H 200.585 -3.13278 -2.76128 0
M  V30 2263 N 201.022 0.148545 -1.56898 0
M  V30 2264 C 201.955 1.21293 -1.93296 0
M  V30 2265 C 202.933 1.41637 -0.798599 0
M  V30 2266 O 204.117 1.56275 -1.05406 0
M  V30 2267 C 201.244 2.5721 -2.20365 0
M  V30 2268 C 200.29 2.53469 -3.4301 0
M  V30 2269 S 201.123 2.00315 -4.96623 0
M  V30 2270 C 202.279 3.37964 -5.26812 0
M  V30 2271 H 202.512 0.902393 -2.83274 0
M  V30 2272 H 200.045 0.354094 -1.50285 0
M  V30 2273 H 202.003 3.35427 -2.36641 0
M  V30 2274 H 200.664 2.85454 -1.31054 0
M  V30 2275 H 199.857 3.53518 -3.59223 0
M  V30 2276 H 199.459 1.83359 -3.25968 0
M  V30 2277 H 201.751 4.34066 -5.20185 0
M  V30 2278 H 202.694 3.26606 -6.28279 0
M  V30 2279 H 203.102 3.35028 -4.54331 0
M  V30 2280 N 202.5 1.5196 0.417844 0
M  V30 2281 C 203.41 1.77554 1.53336 0
M  V30 2282 C 204.426 0.660655 1.6097 0
M  V30 2283 O 205.602 0.945099 1.77848 0
M  V30 2284 C 202.667 1.91291 2.89152 0
M  V30 2285 C 201.728 3.15183 2.91475 0
M  V30 2286 C 200.961 3.28256 4.20813 0
M  V30 2287 O 201.184 2.46798 5.14244 0
M  V30 2288 O 200.118 4.21356 4.29817 0
M  V30 2289 H 203.944 2.7222 1.34647 0
M  V30 2290 H 201.529 1.36698 0.602828 0
M  V30 2291 H 203.411 2.02199 3.69721 0
M  V30 2292 H 202.086 0.998129 3.07927 0
M  V30 2293 H 200.993 3.09739 2.09791 0
M  V30 2294 H 202.326 4.06414 2.77648 0
M  V30 2295 N 203.978 -0.674533 1.42435 0
M  V30 2296 C 205.206 -1.46283 1.46317 0
M  V30 2297 C 205.621 -1.88653 0.0745836 0
M  V30 2298 O 204.978 -1.58151 -0.91074 0
M  V30 2299 C 205.029 -2.71178 2.3905 0
M  V30 2300 O 204.75 -2.30586 3.72507 0
M  V30 2301 C 206.251 -3.64738 2.51955 0
M  V30 2302 H 203.471 -0.450104 0.497642 0
M  V30 2303 H 206.015 -0.828792 1.86953 0
M  V30 2304 H 204.17 -3.3077 2.01667 0
M  V30 2305 H 204.584 -3.11241 4.22172 0
M  V30 2306 H 206.058 -4.49096 3.20962 0
M  V30 2307 H 206.535 -4.10656 1.55752 0
M  V30 2308 H 207.141 -3.11038 2.90061 0
M  V30 2309 N 205.456 -1.28612 -0.910864 0
M  V30 2310 C 206.705 -1.15311 -1.65488 0
M  V30 2311 C 207.018 0.296999 -1.93332 0
M  V30 2312 O 208.224 0.551168 -2.65847 0
M  V30 2313 C 206.68 -2.01599 -2.98137 0
M  V30 2314 C 206.288 -3.51367 -2.7793 0
M  V30 2315 C 208.032 -1.96993 -3.76024 0
M  V30 2316 C 205.939 -4.29797 -4.06237 0
M  V30 2317 H 204.869 -0.42796 -0.620779 0
M  V30 2318 H 207.52 -1.53166 -1.01057 0
M  V30 2319 H 205.902 -1.56603 -3.63719 0
M  V30 2320 H 207.076 -4.0434 -2.21011 0
M  V30 2321 H 205.391 -3.57529 -2.13452 0
M  V30 2322 H 207.988 -2.52856 -4.71135 0
M  V30 2323 H 208.331 -0.94733 -4.05378 0
M  V30 2324 H 208.864 -2.39973 -3.17266 0
M  V30 2325 H 205.603 -5.32648 -3.82055 0
M  V30 2326 H 205.123 -3.81596 -4.62757 0
M  V30 2327 H 206.802 -4.39869 -4.74473 0
M  V30 2328 N 206.934 1.1197 -1.10907 0
M  V30 2329 C 207.864 2.19928 -0.784473 0
M  V30 2330 C 208.845 1.6833 0.244726 0
M  V30 2331 O 210.03 1.93892 0.109418 0
M  V30 2332 C 207.16 3.46597 -0.220827 0
M  V30 2333 C 206.114 4.11376 -1.18127 0
M  V30 2334 C 205.44 5.32554 -0.478594 0
M  V30 2335 C 206.74 4.56945 -2.52979 0
M  V30 2336 H 208.434 2.47337 -1.68715 0
M  V30 2337 H 205.98 1.18879 -0.812642 0
M  V30 2338 H 207.933 4.21396 0.0184278 0
M  V30 2339 H 206.657 3.1863 0.717113 0
M  V30 2340 H 205.316 3.38564 -1.40606 0
M  V30 2341 H 204.964 5.00856 0.463976 0
M  V30 2342 H 204.664 5.76844 -1.11912 0
M  V30 2343 H 206.188 6.10096 -0.248 0
M  V30 2344 H 207.602 5.23093 -2.3462 0
M  V30 2345 H 205.999 5.1203 -3.12962 0
M  V30 2346 H 207.069 3.70676 -3.12614 0
M  V30 2347 N 208.412 0.89855 1.29475 0
M  V30 2348 C 209.642 0.538479 1.99459 0
M  V30 2349 C 210.05 -0.880922 1.67441 0
M  V30 2350 O 209.393 -1.59283 0.915127 0
M  V30 2351 C 209.455 0.649564 3.53583 0
M  V30 2352 C 209.119 2.03573 4.09154 0
M  V30 2353 C 210.116 3.00675 4.24135 0
M  V30 2354 C 207.801 2.3448 4.44212 0
M  V30 2355 C 209.795 4.26809 4.73405 0
M  V30 2356 C 207.482 3.60857 4.93179 0
M  V30 2357 C 208.48 4.56836 5.0773 0
M  V30 2358 O 208.168 5.80969 5.55635 0
M  V30 2359 H 207.9 0.205372 0.644048 0
M  V30 2360 H 210.454 1.20958 1.66007 0
M  V30 2361 H 208.684 -0.0785592 3.8662 0
M  V30 2362 H 210.373 0.29881 4.04799 0
M  V30 2363 H 211.139 2.78112 3.97339 0
M  V30 2364 H 207.018 1.60534 4.32145 0
M  V30 2365 H 210.562 5.0173 4.84678 0
M  V30 2366 H 206.459 3.83251 5.19412 0
M  V30 2367 H 207.227 5.83542 5.73952 0
M  V30 2368 N 209.89 -1.43072 0.660911 0
M  V30 2369 C 211.138 -2.01323 0.177094 0
M  V30 2370 C 211.459 -1.5245 -1.2159 0
M  V30 2371 O 210.729 -0.740322 -1.81373 0
M  V30 2372 H 209.309 -0.744382 0.0624804 0
M  V30 2373 H 211.971 -1.75179 0.854305 0
M  V30 2374 H 211.067 -3.11649 0.167641 0
M  V30 2375 N 211.368 -0.403325 -1.52352 0
M  V30 2376 C 212.645 0.232611 -1.94212 0
M  V30 2377 C 213.025 1.63133 -1.33981 0
M  V30 2378 O 212.373 2.22659 -0.513344 0
M  V30 2379 C 212.583 0.244811 -3.4814 0
M  V30 2380 C 213.931 0.46698 -4.22024 0
M  V30 2381 O 214.955 0.324419 -3.5472 0
M  V30 2382 O 213.814 0.74747 -5.41364 0
M  V30 2383 H 210.908 0.148223 -0.813609 0
M  V30 2384 H 213.454 -0.458848 -1.63379 0
M  V30 2385 H 212.226 -0.734378 -3.84347 0
M  V30 2386 H 211.849 0.980611 -3.85318 0
M  V30 2387 N 212.846 1.57033 -0.133567 0
M  V30 2388 C 213.794 2.17348 0.828412 0
M  V30 2389 C 214.788 1.12671 1.26498 0
M  V30 2390 O 215.994 1.30947 1.23502 0
M  V30 2391 H 212.369 0.695775 0.285309 0
M  V30 2392 H 214.34 2.96935 0.295372 0
M  V30 2393 C 213.089 2.79893 2.06289 0
M  V30 2394 H 212.412 3.60147 1.73592 0
M  V30 2395 H 213.852 3.25615 2.71572 0
M  V30 2396 C 212.311 1.77713 2.86216 0
M  V30 2397 O 212.841 1.23937 3.82103 0
M  V30 2398 N 211.047 1.47321 2.50489 0
M  V30 2399 H 210.594 1.91243 1.7258 0
M  V30 2400 H 210.552 0.79199 3.04261 0
M  V30 2401 N 214.325 -0.140222 1.56975 0
M  V30 2402 C 215.255 -1.17456 2.01808 0
M  V30 2403 C 216.236 -1.44415 0.898794 0
M  V30 2404 O 217.421 -1.5522 1.16707 0
M  V30 2405 C 214.551 -2.50607 2.40444 0
M  V30 2406 C 213.505 -2.38155 3.55621 0
M  V30 2407 C 212.831 -3.76078 3.80091 0
M  V30 2408 C 214.131 -1.85991 4.88062 0
M  V30 2409 H 215.825 -0.801743 2.88466 0
M  V30 2410 H 213.371 -0.38422 1.38779 0
M  V30 2411 H 215.324 -3.23197 2.7041 0
M  V30 2412 H 214.048 -2.89737 1.50732 0
M  V30 2413 H 212.707 -1.68016 3.25832 0
M  V30 2414 H 212.355 -4.12656 2.87618 0
M  V30 2415 H 212.055 -3.68606 4.57606 0
M  V30 2416 H 213.579 -4.50206 4.12488 0
M  V30 2417 H 214.993 -2.4838 5.16701 0
M  V30 2418 H 213.39 -1.89393 5.6943 0
M  V30 2419 H 214.46 -0.816023 4.77984 0
M  V30 2420 N 215.803 -1.52179 -0.40978 0
M  V30 2421 C 217.028 -1.70347 -1.18308 0
M  V30 2422 C 217.453 -0.411887 -1.83535 0
M  V30 2423 O 216.811 0.630587 -1.6998 0
M  V30 2424 C 216.859 -2.83977 -2.22238 0
M  V30 2425 O 215.963 -2.495 -3.28365 0
M  V30 2426 H 215.304 -0.567103 -0.345384 0
M  V30 2427 H 217.834 -1.98879 -0.480445 0
M  V30 2428 H 217.844 -3.0887 -2.66577 0
M  V30 2429 H 216.519 -3.77685 -1.74146 0
M  V30 2430 H 215.096 -2.35277 -2.89308 0
M  V30 2431 N 217.281 0.66697 -1.42791 0
M  V30 2432 C 218.229 1.80157 -1.47127 0
M  V30 2433 C 219.223 1.65825 -0.346199 0
M  V30 2434 O 220.429 1.72338 -0.519572 0
M  V30 2435 H 216.804 0.594158 -0.460956 0
M  V30 2436 H 218.775 1.73619 -2.42692 0
M  V30 2437 C 217.524 3.18351 -1.39813 0
M  V30 2438 H 216.847 3.3001 -2.25684 0
M  V30 2439 H 218.287 3.97736 -1.46908 0
M  V30 2440 C 216.746 3.36707 -0.11391 0
M  V30 2441 O 217.276 3.93027 0.830241 0
M  V30 2442 N 215.482 2.90586 -0.0285295 0
M  V30 2443 H 215.029 2.4494 -0.79764 0
M  V30 2444 H 214.987 3.03245 0.830063 0
M  V30 2445 N 218.759 1.29093 0.90403 0
M  V30 2446 C 220.005 1.16986 1.65656 0
M  V30 2447 C 220.338 -0.278925 1.92186 0
M  V30 2448 O 219.613 -1.2019 1.5292 0
M  V30 2449 C 219.896 1.97908 3.0084 0
M  V30 2450 C 219.749 3.50903 2.81403 0
M  V30 2451 C 221.068 1.80208 4.01513 0
M  V30 2452 H 218.187 0.426346 0.601164 0
M  V30 2453 H 220.829 1.58518 1.04747 0
M  V30 2454 H 218.979 1.62616 3.52829 0
M  V30 2455 H 220.651 3.96153 2.36348 0
M  V30 2456 H 218.894 3.76045 2.1627 0
M  V30 2457 H 219.565 4.02791 3.77443 0
M  V30 2458 H 222.041 2.11025 3.58619 0
M  V30 2459 H 220.917 2.39184 4.94047 0
M  V30 2460 H 221.178 0.756119 4.35586 0
M  V30 2461 N 220.237 -1.11381 1.11499 0
M  V30 2462 C 221.167 -2.19509 0.796125 0
M  V30 2463 C 222.148 -1.68458 -0.235796 0
M  V30 2464 O 223.333 -1.93947 -0.0991344 0
M  V30 2465 C 220.463 -3.46475 0.239205 0
M  V30 2466 C 219.417 -4.10744 1.20307 0
M  V30 2467 C 218.743 -5.32293 0.50683 0
M  V30 2468 C 220.043 -4.55597 2.55399 0
M  V30 2469 H 221.737 -2.46439 1.70024 0
M  V30 2470 H 219.283 -1.18446 0.818935 0
M  V30 2471 H 221.236 -4.214 0.00392006 0
M  V30 2472 H 219.96 -3.19006 -0.700206 0
M  V30 2473 H 218.619 -3.37813 1.42399 0
M  V30 2474 H 218.267 -5.01095 -0.437408 0
M  V30 2475 H 217.967 -5.76243 1.1497 0
M  V30 2476 H 219.491 -6.09956 0.280351 0
M  V30 2477 H 220.905 -5.21841 2.37391 0
M  V30 2478 H 219.302 -5.10363 3.15673 0
M  V30 2479 H 220.372 -3.69013 3.14575 0
M  V30 2480 N 221.715 -0.905404 -1.28997 0
M  V30 2481 C 222.678 -0.392253 -2.25819 0
M  V30 2482 C 223.678 0.476753 -1.5357 0
M  V30 2483 O 224.868 0.280994 -1.71919 0
M  V30 2484 C 222 0.438588 -3.38067 0
M  V30 2485 H 223.193 -1.24743 -2.72725 0
M  V30 2486 H 220.746 -0.684051 -1.40536 0
M  V30 2487 H 221.481 1.31352 -2.96508 0
M  V30 2488 H 221.266 -0.184167 -3.91667 0
M  V30 2489 H 222.756 0.78873 -4.10084 0
M  V30 2490 N 223.193 1.4272 -0.668489 0
M  V30 2491 C 224.421 2.05966 -0.196348 0
M  V30 2492 C 224.836 1.50191 1.14403 0
M  V30 2493 O 224.193 0.639208 1.7094 0
M  V30 2494 C 224.244 3.61314 -0.115815 0
M  V30 2495 O 223.965 4.1502 -1.40322 0
M  V30 2496 C 225.466 4.41663 0.380579 0
M  V30 2497 H 222.686 0.663954 -0.0969829 0
M  V30 2498 H 225.23 1.82966 -0.913446 0
M  V30 2499 H 223.385 3.83448 0.551931 0
M  V30 2500 H 223.799 5.08832 -1.27243 0
M  V30 2501 H 225.273 5.5065 0.385848 0
M  V30 2502 H 225.75 4.15792 1.41471 0
M  V30 2503 H 226.356 4.24534 -0.255209 0
M  V30 2504 N 224.671 0.411399 1.52136 0
M  V30 2505 C 225.92 -0.165009 2.01024 0
M  V30 2506 C 226.233 -1.4603 1.30133 0
M  V30 2507 O 227.439 -2.1181 1.69849 0
M  V30 2508 C 225.895 -0.344618 3.58246 0
M  V30 2509 C 225.503 0.938716 4.38055 0
M  V30 2510 C 227.247 -0.876195 4.15359 0
M  V30 2511 C 225.154 0.726172 5.86925 0
M  V30 2512 H 224.084 -0.0654407 0.751155 0
M  V30 2513 H 226.735 0.537192 1.75461 0
M  V30 2514 H 225.117 -1.10921 3.80148 0
M  V30 2515 H 226.291 1.70963 4.27912 0
M  V30 2516 H 224.606 1.39688 3.92271 0
M  V30 2517 H 227.203 -1.05128 5.24263 0
M  V30 2518 H 227.546 -1.85152 3.7286 0
M  V30 2519 H 228.079 -0.170607 3.97434 0
M  V30 2520 H 224.818 1.67312 6.33788 0
M  V30 2521 H 224.338 -0.00540283 5.998 0
M  V30 2522 H 226.017 0.369231 6.45946 0
M  V30 2523 N 226.149 -1.5696 0.141893 0
M  V30 2524 C 227.377 -2.00322 -0.517579 0
M  V30 2525 C 227.792 -1.02193 -1.58752 0
M  V30 2526 O 227.149 -0.0181619 -1.82491 0
M  V30 2527 C 227.2 -3.43618 -1.12289 0
M  V30 2528 O 226.921 -4.37995 -0.0956929 0
M  V30 2529 C 228.422 -4.02231 -1.86347 0
M  V30 2530 H 225.642 -0.657243 -0.135177 0
M  V30 2531 H 228.186 -2.03146 0.234973 0
M  V30 2532 H 226.341 -3.41662 -1.82609 0
M  V30 2533 H 226.755 -5.21729 -0.538469 0
M  V30 2534 H 228.229 -5.04509 -2.23997 0
M  V30 2535 H 228.706 -3.42655 -2.74744 0
M  V30 2536 H 229.312 -4.07802 -1.20737 0
M  V30 2537 N 227.627 0.131896 -1.57047 0
M  V30 2538 C 228.855 0.856461 -1.88341 0
M  V30 2539 C 229.27 1.74042 -0.731757 0
M  V30 2540 O 228.627 1.80051 0.297945 0
M  V30 2541 C 228.678 1.70064 -3.18999 0
M  V30 2542 O 228.399 0.852278 -4.2973 0
M  V30 2543 C 229.9 2.53148 -3.63911 0
M  V30 2544 H 227.12 0.246885 -0.62393 0
M  V30 2545 H 229.664 0.120152 -2.04147 0
M  V30 2546 H 227.819 2.38984 -3.04902 0
M  V30 2547 H 228.233 1.43329 -5.04537 0
M  V30 2548 H 229.707 3.07931 -4.58129 0
M  V30 2549 H 230.184 3.29901 -2.89935 0
M  V30 2550 H 230.79 1.89492 -3.80753 0
M  V30 2551 N 229.106 1.52395 0.401703 0
M  V30 2552 C 230.354 1.66488 1.14569 0
M  V30 2553 C 230.675 0.400897 1.90835 0
M  V30 2554 O 229.945 -0.584415 1.8698 0
M  V30 2555 H 228.525 0.613672 0.425929 0
M  V30 2556 H 231.187 1.89464 0.457093 0
M  V30 2557 H 230.283 2.50942 1.85566 0
M  V30 2558 N 230.584 -0.659388 1.43143 0
M  V30 2559 C 231.83 -1.42145 1.44647 0
M  V30 2560 C 232.163 -1.9408 0.0681907 0
M  V30 2561 O 231.438 -1.71899 -0.910007 0
M  V30 2562 C 231.721 -2.60735 2.48373 0
M  V30 2563 C 231.574 -2.14332 3.95451 0
M  V30 2564 C 232.893 -3.62951 2.48906 0
M  V30 2565 H 230.012 -0.51552 0.526696 0
M  V30 2566 H 232.654 -0.748069 1.74654 0
M  V30 2567 H 230.804 -3.18184 2.22916 0
M  V30 2568 H 232.476 -1.61932 4.31944 0
M  V30 2569 H 230.719 -1.4576 4.08578 0
M  V30 2570 H 231.39 -2.99583 4.63631 0
M  V30 2571 H 233.866 -3.1525 2.71582 0
M  V30 2572 H 232.742 -4.43487 3.23435 0
M  V30 2573 H 233.003 -4.15126 1.52061 0
M  V30 2574 N 232.062 -1.29571 -0.897171 0
M  V30 2575 C 232.992 -1.17473 -2.01798 0
M  V30 2576 C 233.973 -0.068323 -1.69963 0
M  V30 2577 O 235.158 -0.248239 -1.92607 0
M  V30 2578 C 232.288 -0.853099 -3.36659 0
M  V30 2579 C 231.242 -1.9161 -3.82713 0
M  V30 2580 C 230.568 -1.44773 -5.14728 0
M  V30 2581 C 231.868 -3.32535 -4.02763 0
M  V30 2582 H 233.562 -2.11237 -2.12177 0
M  V30 2583 H 231.108 -1.01699 -1.01948 0
M  V30 2584 H 233.061 -0.755165 -4.14578 0
M  V30 2585 H 231.785 0.120236 -3.26379 0
M  V30 2586 H 230.444 -2.00346 -3.07013 0
M  V30 2587 H 230.092 -0.462995 -5.00865 0
M  V30 2588 H 229.792 -2.15865 -5.46513 0
M  V30 2589 H 231.316 -1.36334 -5.95185 0
M  V30 2590 H 232.73 -3.26626 -4.71156 0
M  V30 2591 H 231.127 -4.01607 -4.45905 0
M  V30 2592 H 232.197 -3.75326 -3.07016 0
M  V30 2593 N 233.54 1.10788 -1.12088 0
M  V30 2594 C 234.817 1.79136 -0.785476 0
M  V30 2595 C 235.197 1.98246 0.725377 0
M  V30 2596 O 234.545 1.57258 1.65778 0
M  V30 2597 C 234.755 3.12375 -1.55636 0
M  V30 2598 C 236.103 3.8731 -1.74001 0
M  V30 2599 O 237.127 3.22085 -1.52117 0
M  V30 2600 O 235.986 5.04369 -2.10415 0
M  V30 2601 H 233.08 0.776226 -0.285311 0
M  V30 2602 H 235.626 1.1747 -1.2247 0
M  V30 2603 H 234.398 2.93863 -2.5838 0
M  V30 2604 H 234.021 3.81758 -1.11114 0
M  V30 2605 N 235.018 0.912232 1.28515 0
M  V30 2606 C 236.267 0.540504 1.94323 0
M  V30 2607 C 236.58 -0.920044 1.72611 0
M  V30 2608 O 237.786 -1.39986 2.32629 0
M  V30 2609 C 236.242 0.915803 3.48053 0
M  V30 2610 C 235.85 2.39598 3.78546 0
M  V30 2611 C 237.594 0.614588 4.20027 0
M  V30 2612 C 235.501 2.71148 5.25578 0
M  V30 2613 H 234.431 0.198418 0.727424 0
M  V30 2614 H 237.082 1.11094 1.46049 0
M  V30 2615 H 235.464 0.274168 3.9505 0
M  V30 2616 H 236.638 3.08422 3.42364 0
M  V30 2617 H 234.953 2.66749 3.1974 0
M  V30 2618 H 237.55 0.827002 5.28266 0
M  V30 2619 H 237.893 -0.447531 4.13887 0
M  V30 2620 H 238.426 1.21462 3.78803 0
M  V30 2621 H 235.165 3.76207 5.36794 0
M  V30 2622 H 234.685 2.0696 5.62963 0
M  V30 2623 H 236.364 2.58072 5.93302 0
M  V30 2624 N 236.496 -1.42363 0.676048 0
M  V30 2625 C 237.426 -2.33497 0.0124832 0
M  V30 2626 C 238.407 -1.50748 -0.787981 0
M  V30 2627 O 239.592 -1.79346 -0.744884 0
M  V30 2628 C 236.722 -3.34377 -0.938582 0
M  V30 2629 C 235.676 -4.27289 -0.246622 0
M  V30 2630 C 235.002 -5.18386 -1.31071 0
M  V30 2631 C 236.302 -5.14916 0.875125 0
M  V30 2632 H 237.996 -2.89233 0.773593 0
M  V30 2633 H 235.542 -1.39073 0.37346 0
M  V30 2634 H 237.495 -3.97044 -1.41188 0
M  V30 2635 H 236.219 -2.76947 -1.73113 0
M  V30 2636 H 234.878 -3.66018 0.206456 0
M  V30 2637 H 234.526 -4.57282 -2.09528 0
M  V30 2638 H 234.226 -5.81378 -0.852839 0
M  V30 2639 H 235.75 -5.83929 -1.78492 0
M  V30 2640 H 237.164 -5.71262 0.482983 0
M  V30 2641 H 235.561 -5.86747 1.25887 0
M  V30 2642 H 236.631 -4.53242 1.72335 0
M  V30 2643 N 237.974 -0.419461 -1.51915 0
M  V30 2644 C 238.937 0.389116 -2.25873 0
M  V30 2645 C 239.937 0.964924 -1.28631 0
M  V30 2646 O 241.127 0.842179 -1.52489 0
M  V30 2647 C 238.259 1.54874 -3.03689 0
M  V30 2648 H 239.452 -0.258799 -2.98781 0
M  V30 2649 H 237.005 -0.172209 -1.55348 0
M  V30 2650 H 237.74 2.23323 -2.35154 0
M  V30 2651 H 237.525 1.14223 -3.75094 0
M  V30 2652 H 239.015 2.12046 -3.59759 0
M  V30 2653 N 239.452 1.56882 -0.150215 0
M  V30 2654 C 240.698 1.97299 0.494427 0
M  V30 2655 C 241.053 1.0338 1.62266 0
M  V30 2656 O 240.346 0.0694497 1.91474 0
M  V30 2657 C 240.54 3.41801 1.04437 0
M  V30 2658 C 240.369 4.49691 -0.0290451 0
M  V30 2659 C 239.139 5.03095 -0.47156 0
M  V30 2660 C 241.337 5.07693 -0.821703 0
M  V30 2661 N 239.319 5.94593 -1.52749 0
M  V30 2662 C 240.69 5.95431 -1.72805 0
M  V30 2663 C 242.745 4.90256 -0.869134 0
M  V30 2664 C 241.448 6.67599 -2.67777 0
M  V30 2665 C 243.474 5.63127 -1.8067 0
M  V30 2666 C 242.836 6.50576 -2.70057 0
M  V30 2667 H 238.935 0.76755 0.149639 0
M  V30 2668 H 241.519 1.93145 -0.24556 0
M  V30 2669 H 239.69 3.46541 1.75396 0
M  V30 2670 H 241.422 3.69272 1.6559 0
M  V30 2671 H 238.177 4.73543 -0.0732101 0
M  V30 2672 H 238.601 6.45047 -2.05531 0
M  V30 2673 H 243.243 4.22363 -0.192134 0
M  V30 2674 H 240.961 7.34717 -3.36476 0
M  V30 2675 H 244.547 5.51629 -1.84924 0
M  V30 2676 H 243.427 7.05974 -3.41424 0
M  V30 2677 N 240.93 -0.123565 1.57115 0
M  V30 2678 C 241.86 -1.15309 2.03042 0
M  V30 2679 C 242.841 -1.43454 0.914061 0
M  V30 2680 O 244.026 -1.53973 1.18347 0
M  V30 2681 C 241.156 -2.48043 2.43089 0
M  V30 2682 C 240.11 -2.3437 3.58127 0
M  V30 2683 C 239.436 -3.72026 3.84059 0
M  V30 2684 C 240.736 -1.80804 4.90007 0
M  V30 2685 H 242.43 -0.771102 2.893 0
M  V30 2686 H 239.976 -0.369479 1.39179 0
M  V30 2687 H 241.929 -3.20311 2.73823 0
M  V30 2688 H 240.653 -2.88122 1.53796 0
M  V30 2689 H 239.312 -1.64551 3.27595 0
M  V30 2690 H 238.96 -4.09582 2.91979 0
M  V30 2691 H 238.66 -3.63732 4.6149 0
M  V30 2692 H 240.184 -4.45806 4.1724 0
M  V30 2693 H 241.598 -2.42886 5.19307 0
M  V30 2694 H 239.995 -1.83343 5.71407 0
M  V30 2695 H 241.065 -0.76528 4.78823 0
M  V30 2696 N 242.408 -1.52605 -0.393616 0
M  V30 2697 C 243.819 -1.59417 -0.971761 0
M  V30 2698 C 244.17 -0.444173 -1.91106 0
M  V30 2699 O 243.295 0.433382 -2.12016 0
M  V30 2700 C 243.89 -2.88936 -1.76921 0
M  V30 2701 C 242.449 -2.98175 -2.29714 0
M  V30 2702 C 241.596 -2.54491 -1.10135 0
M  V30 2703 H 244.547 -1.57751 -0.173317 0
M  V30 2704 H 244.568 -2.75163 -2.62804 0
M  V30 2705 H 244.08 -3.72616 -1.08532 0
M  V30 2706 H 242.181 -2.19024 -3.01429 0
M  V30 2707 H 242.294 -4.02726 -2.59517 0
M  V30 2708 H 240.658 -2.08702 -1.45999 0
M  V30 2709 H 241.441 -3.4056 -0.432874 0
M  V30 2710 N 243.887 0.651787 -1.4349 0
M  V30 2711 C 245.117 1.43728 -1.48411 0
M  V30 2712 C 245.525 1.8893 -0.10103 0
M  V30 2713 O 244.868 1.60182 0.899307 0
M  V30 2714 C 244.93 2.70411 -2.36893 0
M  V30 2715 C 244.594 2.4714 -3.8441 0
M  V30 2716 C 245.591 2.10271 -4.75481 0
M  V30 2717 C 243.276 2.6142 -4.28912 0
M  V30 2718 C 245.27 1.87982 -6.0905 0
M  V30 2719 C 242.957 2.38746 -5.62533 0
M  V30 2720 C 243.955 2.02083 -6.5242 0
M  V30 2721 O 243.643 1.79647 -7.8357 0
M  V30 2722 H 243.375 0.447962 -0.506267 0
M  V30 2723 H 245.929 0.80624 -1.88915 0
M  V30 2724 H 244.159 3.36079 -1.91278 0
M  V30 2725 H 245.848 3.32364 -2.33 0
M  V30 2726 H 246.614 1.98814 -4.42378 0
M  V30 2727 H 242.493 2.88931 -3.59222 0
M  V30 2728 H 246.037 1.5929 -6.7917 0
M  V30 2729 H 241.934 2.49806 -5.95203 0
M  V30 2730 H 242.702 1.9406 -7.95162 0
M  V30 2731 N 245.365 1.30045 0.890287 0
M  V30 2732 C 246.613 1.18327 1.63839 0
M  V30 2733 C 246.934 -0.263455 1.93212 0
M  V30 2734 O 246.204 -1.17856 1.56482 0
M  V30 2735 H 244.784 0.434933 0.607324 0
M  V30 2736 H 247.446 1.631 1.06698 0
M  V30 2737 H 246.542 1.74024 2.59079 0
M  V30 2738 N 246.843 -1.10192 1.12674 0
M  V30 2739 C 248.092 -1.81573 0.8783 0
M  V30 2740 C 248.405 -1.86249 -0.597557 0
M  V30 2741 O 249.611 -2.5386 -0.962681 0
M  V30 2742 C 248.067 -3.26149 1.52167 0
M  V30 2743 C 247.675 -3.29763 3.03249 0
M  V30 2744 C 249.419 -4.0234 1.3536 0
M  V30 2745 C 247.326 -4.68815 3.60508 0
M  V30 2746 H 246.256 -0.680394 0.324931 0
M  V30 2747 H 248.907 -1.23902 1.35353 0
M  V30 2748 H 247.289 -3.83832 0.974104 0
M  V30 2749 H 248.463 -2.8189 3.6452 0
M  V30 2750 H 246.778 -2.67059 3.19481 0
M  V30 2751 H 249.375 -5.05058 1.75559 0
M  V30 2752 H 249.718 -4.15235 0.297554 0
M  V30 2753 H 250.251 -3.51079 1.87052 0
M  V30 2754 H 246.99 -4.61121 4.65884 0
M  V30 2755 H 246.51 -5.17045 3.04014 0
M  V30 2756 H 248.189 -5.37785 3.59717 0
M  V30 2757 N 248.321 -0.919034 -1.28029 0
M  V30 2758 C 249.57 -0.550802 -1.94034 0
M  V30 2759 C 249.883 0.910877 -1.73096 0
M  V30 2760 O 251.089 1.3875 -2.33368 0
M  V30 2761 C 249.545 -0.934249 -3.47563 0
M  V30 2762 C 249.153 -2.41602 -3.7727 0
M  V30 2763 C 250.897 -0.636854 -4.19696 0
M  V30 2764 C 248.804 -2.73932 -5.24133 0
M  V30 2765 H 247.734 -0.202273 -0.726362 0
M  V30 2766 H 250.385 -1.11867 -1.45458 0
M  V30 2767 H 248.767 -0.295115 -3.94899 0
M  V30 2768 H 249.941 -3.10233 -3.40723 0
M  V30 2769 H 248.256 -2.68441 -3.18321 0
M  V30 2770 H 250.853 -0.855005 -5.2782 0
M  V30 2771 H 251.196 0.425575 -4.14119 0
M  V30 2772 H 251.729 -1.23469 -3.78154 0
M  V30 2773 H 248.468 -3.79049 -5.34792 0
M  V30 2774 H 247.988 -2.09942 -5.61858 0
M  V30 2775 H 249.667 -2.61215 -5.91925 0
M  V30 2776 N 249.799 1.42003 -0.683588 0
M  V30 2777 C 250.749 2.27997 0.0121992 0
M  V30 2778 C 251.733 1.4156 0.764822 0
M  V30 2779 O 252.925 1.64935 0.642287 0
M  V30 2780 C 250.054 3.29706 0.956482 0
M  V30 2781 C 249.14 4.23625 0.200739 0
M  V30 2782 N 249.531 4.99448 -0.799087 0
M  V30 2783 C 247.829 4.43845 0.437937 0
M  V30 2784 C 248.53 5.68102 -1.25041 0
M  V30 2785 N 247.506 5.40511 -0.578648 0
M  V30 2786 H 251.308 2.84048 -0.754564 0
M  V30 2787 H 248.822 1.54071 -0.513398 0
M  V30 2788 H 250.819 3.90124 1.47 0
M  V30 2789 H 249.479 2.75216 1.72297 0
M  V30 2790 H 250.49 5.04303 -1.17893 0
M  V30 2791 H 247.167 4.00382 1.18325 0
M  V30 2792 H 248.557 6.38913 -2.07942 0
M  V30 2793 N 251.277 0.427512 1.51691 0
M  V30 2794 C 252.524 -0.142229 2.02 0
M  V30 2795 C 252.852 -1.43566 1.31221 0
M  V30 2796 O 252.107 -1.91298 0.412744 0
M  V30 2797 C 252.406 -0.418249 3.54944 0
M  V30 2798 C 252.072 0.788187 4.43958 0
M  V30 2799 C 250.734 1.11906 4.68007 0
M  V30 2800 C 253.086 1.59347 4.96244 0
M  V30 2801 C 250.414 2.25608 5.41588 0
M  V30 2802 C 252.766 2.7214 5.71072 0
M  V30 2803 C 251.43 3.05692 5.93387 0
M  V30 2804 H 250.7 -0.0520451 0.73917 0
M  V30 2805 H 253.347 0.572697 1.82736 0
M  V30 2806 H 251.652 -1.21496 3.72486 0
M  V30 2807 H 253.349 -0.872339 3.91397 0
M  V30 2808 H 249.939 0.520344 4.2543 0
M  V30 2809 H 254.123 1.35106 4.77556 0
M  V30 2810 H 249.379 2.51929 5.57083 0
M  V30 2811 H 253.553 3.34914 6.10578 0
M  V30 2812 H 251.18 3.9391 6.50184 0
M  V30 2813 N 252.755 -1.56801 0.158532 0
M  V30 2814 C 253.98 -2.01295 -0.499516 0
M  V30 2815 C 254.405 -1.03799 -1.56867 0
M  V30 2816 O 253.763 -0.0155162 -1.81293 0
M  V30 2817 C 253.811 -3.44469 -1.06647 0
M  V30 2818 O 252.915 -3.50012 -2.18095 0
M  V30 2819 H 252.256 -0.652884 -0.12099 0
M  V30 2820 H 254.786 -2.02958 0.258661 0
M  V30 2821 H 254.796 -3.8351 -1.39227 0
M  V30 2822 H 253.471 -4.14932 -0.283581 0
M  V30 2823 H 252.048 -3.22822 -1.86656 0
M  V30 2824 N 254.233 0.115231 -1.57178 0
M  V30 2825 C 255.48 0.822351 -1.8505 0
M  V30 2826 C 255.808 1.79701 -0.744168 0
M  V30 2827 O 255.063 1.93909 0.26414 0
M  V30 2828 C 255.362 1.60324 -3.19423 0
M  V30 2829 C 255.028 0.772536 -4.44233 0
M  V30 2830 C 253.69 0.543468 -4.78121 0
M  V30 2831 C 256.042 0.193746 -5.2084 0
M  V30 2832 C 253.37 -0.274583 -5.86057 0
M  V30 2833 C 255.722 -0.611517 -6.29637 0
M  V30 2834 C 254.386 -0.850867 -6.62055 0
M  V30 2835 H 253.656 0.30092 -0.677147 0
M  V30 2836 H 256.303 0.0845802 -1.91313 0
M  V30 2837 H 254.608 2.41203 -3.08753 0
M  V30 2838 H 256.305 2.1544 -3.38211 0
M  V30 2839 H 252.895 0.96117 -4.17683 0
M  V30 2840 H 257.079 0.357926 -4.95008 0
M  V30 2841 H 252.335 -0.469206 -6.09597 0
M  V30 2842 H 256.509 -1.06697 -6.88178 0
M  V30 2843 H 254.136 -1.48657 -7.45523 0
M  V30 2844 N 255.711 1.52812 0.385517 0
M  V30 2845 C 257.122 1.5993 0.963293 0
M  V30 2846 C 257.473 0.454302 1.90868 0
M  V30 2847 O 256.598 -0.422132 2.12243 0
M  V30 2848 C 257.193 2.89871 1.75387 0
M  V30 2849 C 255.752 2.99389 2.28129 0
M  V30 2850 C 254.899 2.55071 1.08783 0
M  V30 2851 H 257.85 1.5784 0.164948 0
M  V30 2852 H 257.871 2.76553 2.61341 0
M  V30 2853 H 257.383 3.73186 1.06554 0
M  V30 2854 H 255.484 2.20619 3.00263 0
M  V30 2855 H 255.597 4.04096 2.57377 0
M  V30 2856 H 253.961 2.09473 1.4489 0
M  V30 2857 H 254.744 3.40785 0.414807 0
M  V30 2858 N 257.189 -0.644168 1.43834 0
M  V30 2859 C 258.436 -1.40395 1.4593 0
M  V30 2860 C 258.764 -1.94305 0.0869658 0
M  V30 2861 O 258.019 -1.73288 -0.909378 0
M  V30 2862 C 258.318 -2.59615 2.45631 0
M  V30 2863 C 257.984 -2.2407 3.91284 0
M  V30 2864 C 256.646 -2.14089 4.30952 0
M  V30 2865 C 258.998 -1.95775 4.83034 0
M  V30 2866 C 256.326 -1.73981 5.6031 0
M  V30 2867 C 258.678 -1.57163 6.12766 0
M  V30 2868 C 257.342 -1.45713 6.51402 0
M  V30 2869 H 256.612 -0.513741 0.533995 0
M  V30 2870 H 259.259 -0.731724 1.76969 0
M  V30 2871 H 257.564 -3.32011 2.08028 0
M  V30 2872 H 259.261 -3.17834 2.44504 0
M  V30 2873 H 255.851 -2.32753 3.59895 0
M  V30 2874 H 260.035 -2.02403 4.53152 0
M  V30 2875 H 255.291 -1.63709 5.89075 0
M  V30 2876 H 259.465 -1.34303 6.83327 0
M  V30 2877 H 257.092 -1.14406 7.51542 0
M  V30 2878 N 258.668 -1.30515 -0.883378 0
M  V30 2879 C 259.914 -1.19607 -1.63774 0
M  V30 2880 C 260.247 0.248314 -1.92606 0
M  V30 2881 O 259.522 1.17742 -1.54813 0
M  V30 2882 C 259.805 -2.02669 -2.97653 0
M  V30 2883 C 259.658 -3.55335 -2.75784 0
M  V30 2884 C 260.977 -1.86573 -3.98596 0
M  V30 2885 H 258.096 -0.435856 -0.594305 0
M  V30 2886 H 260.738 -1.60165 -1.02212 0
M  V30 2887 H 258.888 -1.68208 -3.50197 0
M  V30 2888 H 260.56 -3.99863 -2.30016 0
M  V30 2889 H 258.803 -3.79438 -2.1026 0
M  V30 2890 H 259.474 -4.08745 -3.70988 0
M  V30 2891 H 261.95 -2.16703 -3.55217 0
M  V30 2892 H 260.826 -2.47014 -4.90179 0
M  V30 2893 H 261.087 -0.825321 -4.34328 0
M  V30 2894 N 260.146 1.09593 -1.13257 0
M  V30 2895 C 261.076 2.18214 -0.830946 0
M  V30 2896 C 262.057 1.68812 0.208966 0
M  V30 2897 O 263.242 1.9408 0.0682666 0
M  V30 2898 C 260.372 3.46051 -0.294296 0
M  V30 2899 C 259.326 4.08778 -1.26826 0
M  V30 2900 C 258.652 5.31419 -0.591449 0
M  V30 2901 C 259.952 4.51476 -2.62615 0
M  V30 2902 H 261.646 2.43703 -1.73923 0
M  V30 2903 H 259.192 1.17128 -0.837675 0
M  V30 2904 H 261.145 4.2134 -0.0709606 0
M  V30 2905 H 259.869 3.20079 0.649366 0
M  V30 2906 H 258.528 3.35505 -1.47756 0
M  V30 2907 H 258.176 5.01727 0.357633 0
M  V30 2908 H 257.876 5.74341 -1.24123 0
M  V30 2909 H 259.4 6.09433 -0.377355 0
M  V30 2910 H 260.814 5.17999 -2.45663 0
M  V30 2911 H 259.211 5.05277 -3.23752 0
M  V30 2912 H 260.281 3.63962 -3.20406 0
M  V30 2913 N 261.624 0.925811 1.2754 0
M  V30 2914 C 262.587 0.428129 2.25166 0
M  V30 2915 C 263.587 -0.452261 1.54309 0
M  V30 2916 O 264.777 -0.253608 1.72344 0
M  V30 2917 C 261.909 -0.384749 3.38722 0
M  V30 2918 H 263.102 1.29066 2.70706 0
M  V30 2919 H 260.655 0.706323 1.3943 0
M  V30 2920 H 261.39 -1.26618 2.98561 0
M  V30 2921 H 261.175 0.246454 3.91325 0
M  V30 2922 H 262.665 -0.723389 4.11287 0
M  V30 2923 N 263.102 -1.41638 0.69111 0
M  V30 2924 C 264.065 -2.29178 0.0319786 0
M  V30 2925 C 265.065 -1.44153 -0.712496 0
M  V30 2926 O 266.255 -1.65354 -0.548053 0
M  V30 2927 C 263.387 -3.26952 -0.965161 0
M  V30 2928 H 264.58 -2.88959 0.802681 0
M  V30 2929 H 262.133 -1.4955 0.454356 0
M  V30 2930 H 262.868 -2.72142 -1.76378 0
M  V30 2931 H 262.653 -3.89685 -0.434522 0
M  V30 2932 H 264.143 -3.92561 -1.42428 0
M  V30 2933 N 264.58 -0.43555 -1.51462 0
M  V30 2934 C 265.829 0.133007 -2.01261 0
M  V30 2935 C 266.142 1.43942 -1.32439 0
M  V30 2936 O 267.348 2.09081 -1.73198 0
M  V30 2937 C 265.804 0.287581 -3.58749 0
M  V30 2938 C 265.412 -1.00829 -4.36506 0
M  V30 2939 C 267.156 0.810004 -4.167 0
M  V30 2940 C 265.063 -0.819454 -5.85695 0
M  V30 2941 H 263.993 0.0534822 -0.752101 0
M  V30 2942 H 266.644 -0.565038 -1.74584 0
M  V30 2943 H 265.026 1.04859 -3.81865 0
M  V30 2944 H 266.2 -1.77749 -4.25138 0
M  V30 2945 H 264.515 -1.45911 -3.89999 0
M  V30 2946 H 267.112 0.967743 -5.2587 0
M  V30 2947 H 267.455 1.79196 -3.75758 0
M  V30 2948 H 267.988 0.107357 -3.97655 0
M  V30 2949 H 264.727 -1.77374 -6.31046 0
M  V30 2950 H 264.247 -0.0900208 -5.99732 0
M  V30 2951 H 265.926 -0.471949 -6.45276 0
M  V30 2952 N 266.058 1.56714 -0.166846 0
M  V30 2953 C 267.307 1.95922 0.479318 0
M  V30 2954 C 267.62 1.05529 1.6469 0
M  V30 2955 O 268.826 1.34399 2.35901 0
M  V30 2956 C 267.282 3.48359 0.90412 0
M  V30 2957 C 266.89 4.47369 -0.237621 0
M  V30 2958 C 268.634 3.96394 1.51896 0
M  V30 2959 C 266.541 5.91039 0.206561 0
M  V30 2960 H 265.471 0.731495 0.18284 0
M  V30 2961 H 268.122 1.81728 -0.254363 0
M  V30 2962 H 266.504 3.57955 1.69365 0
M  V30 2963 H 267.678 4.49485 -1.01489 0
M  V30 2964 H 265.993 4.09366 -0.762128 0
M  V30 2965 H 268.59 5.01186 1.86325 0
M  V30 2966 H 268.933 3.39075 2.41524 0
M  V30 2967 H 269.466 3.89796 0.79395 0
M  V30 2968 H 266.205 6.52221 -0.654834 0
M  V30 2969 H 265.725 5.9224 0.949282 0
M  V30 2970 H 267.404 6.43707 0.651939 0
M  V30 2971 N 267.536 -0.106894 1.57237 0
M  V30 2972 C 268.783 -0.812526 1.85484 0
M  V30 2973 C 269.111 -1.79304 0.753687 0
M  V30 2974 O 268.366 -1.94047 -0.253853 0
M  V30 2975 C 268.665 -1.58628 3.20268 0
M  V30 2976 C 268.331 -0.748967 4.44636 0
M  V30 2977 C 266.993 -0.518104 4.78403 0
M  V30 2978 C 269.345 -0.166122 5.20935 0
M  V30 2979 C 266.673 0.305659 5.85903 0
M  V30 2980 C 269.025 0.644899 6.29304 0
M  V30 2981 C 267.689 0.885965 6.61594 0
M  V30 2982 H 266.959 -0.297324 0.678734 0
M  V30 2983 H 269.606 -0.0744332 1.91355 0
M  V30 2984 H 267.911 -2.39562 3.10028 0
M  V30 2985 H 269.608 -2.13643 3.39349 0
M  V30 2986 H 266.198 -0.939006 4.18187 0
M  V30 2987 H 270.382 -0.33167 4.95191 0
M  V30 2988 H 265.638 0.501528 6.0934 0
M  V30 2989 H 269.812 1.10345 6.87602 0
M  V30 2990 H 267.439 1.52609 7.44725 0
M  V30 2991 N 269.014 -1.53014 -0.377408 0
M  V30 2992 C 269.944 -1.81589 -1.46791 0
M  V30 2993 C 270.925 -0.668622 -1.56408 0
M  V30 2994 O 272.11 -0.917337 -1.71168 0
M  V30 2995 C 269.24 -1.99519 -2.8427 0
M  V30 2996 C 268.194 -3.15249 -2.89486 0
M  V30 2997 C 267.52 -3.18451 -4.29527 0
M  V30 2998 C 268.82 -4.54084 -2.58079 0
M  V30 2999 H 270.514 -2.7291 -1.23127 0
M  V30 3000 H 268.06 -1.31319 -0.590883 0
M  V30 3001 H 270.013 -2.18092 -3.60575 0
M  V30 3002 H 268.737 -1.04897 -3.09296 0
M  V30 3003 H 267.396 -2.96477 -2.15631 0
M  V30 3004 H 267.044 -2.2149 -4.5161 0
M  V30 3005 H 266.744 -3.962 -4.33934 0
M  V30 3006 H 268.268 -3.39193 -5.07721 0
M  V30 3007 H 269.682 -4.72899 -3.24098 0
M  V30 3008 H 268.079 -5.33987 -2.7382 0
M  V30 3009 H 269.149 -4.60006 -1.53372 0
M  V30 3010 N 270.492 0.636531 -1.44174 0
M  V30 3011 C 271.739 1.39619 -1.46672 0
M  V30 3012 C 272.067 1.94257 -0.0972691 0
M  V30 3013 O 271.322 1.73768 0.900175 0
M  V30 3014 C 271.621 2.58309 -2.47005 0
M  V30 3015 C 271.287 2.21992 -3.92467 0
M  V30 3016 C 269.949 2.118 -4.32081 0
M  V30 3017 C 272.301 1.9321 -4.84065 0
M  V30 3018 C 269.629 1.71007 -5.61225 0
M  V30 3019 C 271.981 1.53911 -6.13591 0
M  V30 3020 C 270.645 1.42257 -6.52165 0
M  V30 3021 H 269.915 0.510902 -0.536712 0
M  V30 3022 H 272.562 0.722328 -1.77355 0
M  V30 3023 H 270.867 3.30903 -2.09786 0
M  V30 3024 H 272.564 3.16533 -2.46186 0
M  V30 3025 H 269.154 2.30841 -3.61124 0
M  V30 3026 H 273.338 1.99997 -4.54219 0
M  V30 3027 H 268.594 1.60583 -5.89935 0
M  V30 3028 H 272.768 1.30677 -6.8403 0
M  V30 3029 H 270.395 1.10419 -7.52138 0
M  V30 3030 N 271.97 1.30982 0.876444 0
M  V30 3031 C 273.218 1.20058 1.62575 0
M  V30 3032 C 273.539 -0.242947 1.93481 0
M  V30 3033 O 272.809 -1.1619 1.57724 0
M  V30 3034 H 271.389 0.44135 0.602677 0
M  V30 3035 H 274.051 1.64222 1.04962 0
M  V30 3036 H 273.147 1.76762 2.57219 0
M  V30 3037 N 273.449 -1.08991 1.13837 0
M  V30 3038 C 274.86 -1.62746 0.914917 0
M  V30 3039 C 275.211 -1.88403 -0.547594 0
M  V30 3040 O 274.336 -1.63706 -1.41525 0
M  V30 3041 C 274.931 -2.95662 1.65437 0
M  V30 3042 C 273.49 -3.46225 1.47666 0
M  V30 3043 C 272.637 -2.20562 1.6807 0
M  V30 3044 H 275.588 -0.922946 1.29102 0
M  V30 3045 H 275.609 -3.63825 1.11407 0
M  V30 3046 H 275.121 -2.76956 2.71877 0
M  V30 3047 H 273.222 -3.70046 0.435478 0
M  V30 3048 H 273.335 -4.23368 2.24268 0
M  V30 3049 H 271.699 -2.29439 1.10589 0
M  V30 3050 H 272.482 -2.0437 2.7584 0
M  V30 3051 N 274.927 -0.932562 -1.27047 0
M  V30 3052 C 276.338 -0.619451 -1.76124 0
M  V30 3053 C 276.689 0.865397 -1.76083 0
M  V30 3054 O 275.814 1.67722 -1.36742 0
M  V30 3055 C 276.409 -1.11771 -3.19832 0
M  V30 3056 C 274.968 -0.855174 -3.66557 0
M  V30 3057 C 274.115 -1.27362 -2.46321 0
M  V30 3058 H 277.066 -1.11181 -1.13245 0
M  V30 3059 H 277.087 -0.46759 -3.77616 0
M  V30 3060 H 276.599 -2.19842 -3.1983 0
M  V30 3061 H 274.7 0.211524 -3.71999 0
M  V30 3062 H 274.813 -1.47613 -4.55793 0
M  V30 3063 H 273.177 -0.692119 -2.45116 0
M  V30 3064 H 273.96 -2.36307 -2.49025 0
M  V30 3065 N 276.405 1.4127 -0.698611 0
M  V30 3066 C 277.633 2.05503 -0.239992 0
M  V30 3067 C 278.048 1.52584 1.11191 0
M  V30 3068 O 277.405 0.675323 1.69545 0
M  V30 3069 C 277.456 3.60987 -0.192429 0
M  V30 3070 O 277.177 4.1195 -1.49094 0
M  V30 3071 C 278.678 4.42371 0.28681 0
M  V30 3072 H 275.898 0.661748 -0.111045 0
M  V30 3073 H 278.442 1.80987 -0.95205 0
M  V30 3074 H 276.597 3.84533 0.470472 0
M  V30 3075 H 277.011 5.06018 -1.38007 0
M  V30 3076 H 278.485 5.51344 0.26896 0
M  V30 3077 H 278.962 4.18699 1.32619 0
M  V30 3078 H 279.568 4.23897 -0.345201 0
M  V30 3079 N 277.883 0.443576 1.51229 0
M  V30 3080 C 278.846 -0.353132 2.26463 0
M  V30 3081 C 279.846 -0.944338 1.3015 0
M  V30 3082 O 281.036 -0.817813 1.5381 0
M  V30 3083 C 278.168 -1.50023 3.06114 0
M  V30 3084 H 279.361 0.3063 2.98332 0
M  V30 3085 H 276.914 0.196902 1.55055 0
M  V30 3086 H 277.649 -2.19553 2.38677 0
M  V30 3087 H 277.434 -1.08241 3.76864 0
M  V30 3088 H 278.924 -2.06296 3.63087 0
M  V30 3089 N 279.361 -1.56624 0.175154 0
M  V30 3090 C 280.291 -2.21155 -0.749195 0
M  V30 3091 C 281.272 -1.16836 -1.23626 0
M  V30 3092 O 282.457 -1.45277 -1.28873 0
M  V30 3093 C 279.587 -2.8553 -1.97711 0
M  V30 3094 C 278.541 -3.95921 -1.62575 0
M  V30 3095 C 277.867 -4.47365 -2.92864 0
M  V30 3096 C 279.167 -5.15323 -0.850838 0
M  V30 3097 H 280.861 -2.98653 -0.211295 0
M  V30 3098 H 278.407 -1.43651 -0.100188 0
M  V30 3099 H 280.36 -3.2935 -2.62881 0
M  V30 3100 H 279.084 -2.05406 -2.53921 0
M  V30 3101 H 277.743 -3.52762 -0.997719 0
M  V30 3102 H 277.391 -3.64027 -3.47122 0
M  V30 3103 H 277.091 -5.21839 -2.70106 0
M  V30 3104 H 278.615 -4.93873 -3.59056 0
M  V30 3105 H 280.029 -5.55812 -1.40521 0
M  V30 3106 H 278.426 -5.95739 -0.722154 0
M  V30 3107 H 279.496 -4.84661 0.152082 0
M  V30 3108 N 280.839 0.0985539 -1.57292 0
M  V30 3109 C 282.255 0.45267 -1.53046 0
M  V30 3110 C 282.455 1.80713 -0.891342 0
M  V30 3111 O 281.511 2.4785 -0.482375 0
M  V30 3112 C 282.824 0.418341 -2.97776 0
M  V30 3113 C 284.372 0.500443 -3.08973 0
M  V30 3114 C 284.847 0.496297 -4.55303 0
M  V30 3115 N 286.338 0.557151 -4.59837 0
M  V30 3116 C 287.073 0.575726 -5.70502 0
M  V30 3117 N 286.569 0.550714 -6.90608 0
M  V30 3118 N 288.362 0.620277 -5.58667 0
M  V30 3119 H 280.513 -0.788673 -1.97215 0
M  V30 3120 H 282.776 -0.293188 -0.901524 0
M  V30 3121 H 282.482 -0.509659 -3.47988 0
M  V30 3122 H 282.356 1.2386 -3.56284 0
M  V30 3123 H 284.743 1.41886 -2.58751 0
M  V30 3124 H 284.824 -0.347894 -2.53423 0
M  V30 3125 H 284.468 -0.418162 -5.06176 0
M  V30 3126 H 284.398 1.3618 -5.08687 0
M  V30 3127 H 286.889 0.581816 -3.73394 0
M  V30 3128 H 287.202 0.568075 -7.70709 0
M  V30 3129 H 285.547 0.517816 -6.93068 0
M  V30 3130 H 288.738 0.637322 -4.63741 0
M  V30 3131 H 288.911 0.631283 -6.44918 0
M  V30 3132 N 282.317 1.53212 0.369288 0
M  V30 3133 C 283.542 1.73423 1.1375 0
M  V30 3134 C 283.967 0.460404 1.82378 0
M  V30 3135 O 283.325 -0.585298 1.71592 0
M  V30 3136 C 283.373 2.89769 2.1463 0
M  V30 3137 O 282.477 2.58119 3.21634 0
M  V30 3138 H 281.818 0.576061 0.330227 0
M  V30 3139 H 284.348 2.00083 0.427547 0
M  V30 3140 H 284.358 3.15829 2.58294 0
M  V30 3141 H 283.033 3.8217 1.64071 0
M  V30 3142 H 281.61 2.42864 2.82969 0
M  V30 3143 N 283.795 -0.628877 1.44509 0
M  V30 3144 C 285.042 -1.38839 1.47411 0
M  V30 3145 C 285.37 -1.94202 0.10757 0
M  V30 3146 O 284.625 -1.74243 -0.890947 0
M  V30 3147 C 284.924 -2.56995 2.48371 0
M  V30 3148 C 284.59 -2.19908 3.93639 0
M  V30 3149 C 283.252 -2.09506 4.33198 0
M  V30 3150 C 285.604 -1.9064 4.85083 0
M  V30 3151 C 282.932 -1.68028 5.62124 0
M  V30 3152 C 285.284 -1.50655 6.14399 0
M  V30 3153 C 283.948 -1.38796 6.5291 0
M  V30 3154 H 283.218 -0.508048 0.539414 0
M  V30 3155 H 285.865 -0.712913 1.77735 0
M  V30 3156 H 284.17 -3.29786 2.11538 0
M  V30 3157 H 285.867 -3.15223 2.47861 0
M  V30 3158 H 282.457 -2.28922 3.62343 0
M  V30 3159 H 286.641 -1.97585 4.55273 0
M  V30 3160 H 281.897 -1.57452 5.90778 0
M  V30 3161 H 286.071 -1.27048 6.84713 0
M  V30 3162 H 283.698 -1.06429 7.52713 0
M  V30 3163 N 285.273 -1.31445 -0.869486 0
M  V30 3164 C 286.521 -1.20918 -1.61936 0
M  V30 3165 C 286.842 0.232683 -1.93607 0
M  V30 3166 O 286.112 1.15352 -1.58338 0
M  V30 3167 H 284.692 -0.44454 -0.600328 0
M  V30 3168 H 287.354 -1.64776 -1.0409 0
M  V30 3169 H 286.45 -1.78124 -2.56278 0
M  V30 3170 N 286.751 1.08385 -1.14413 0
M  V30 3171 C 287.998 1.80776 -0.912482 0
M  V30 3172 C 288.326 1.86236 0.560934 0
M  V30 3173 O 287.581 1.33431 1.43159 0
M  V30 3174 C 287.88 3.26273 -1.45879 0
M  V30 3175 C 287.546 3.4093 -2.95089 0
M  V30 3176 C 286.208 3.44638 -3.35824 0
M  V30 3177 C 288.56 3.44591 -3.91033 0
M  V30 3178 C 285.888 3.49597 -4.71167 0
M  V30 3179 C 288.24 3.51086 -5.26233 0
M  V30 3180 C 286.904 3.53067 -5.6648 0
M  V30 3181 H 286.174 0.661507 -0.333901 0
M  V30 3182 H 288.821 1.27613 -1.42784 0
M  V30 3183 H 287.126 3.82146 -0.864376 0
M  V30 3184 H 288.823 3.80839 -1.2555 0
M  V30 3185 H 285.413 3.38736 -2.62594 0
M  V30 3186 H 289.597 3.40957 -3.60641 0
M  V30 3187 H 284.853 3.49424 -5.0171 0
M  V30 3188 H 289.027 3.52864 -6.00383 0
M  V30 3189 H 286.654 3.56662 -6.71339 0
M  V30 3190 N 288.23 0.939286 1.26551 0
M  V30 3191 C 289.193 0.451987 2.24699 0
M  V30 3192 C 290.193 -0.435869 1.5478 0
M  V30 3193 O 291.383 -0.235314 1.72603 0
M  V30 3194 C 288.515 -0.348801 3.39111 0
M  V30 3195 H 289.708 1.3193 2.69322 0
M  V30 3196 H 287.261 0.721072 1.38673 0
M  V30 3197 H 287.996 -1.23444 2.99887 0
M  V30 3198 H 287.781 0.287945 3.91041 0
M  V30 3199 H 289.271 -0.679726 4.12031 0
M  V30 3200 N 289.708 -1.40897 0.706093 0
M  V30 3201 C 290.955 -2.01054 0.241531 0
M  V30 3202 C 291.283 -1.55956 -1.16223 0
M  V30 3203 O 290.538 -0.766336 -1.80072 0
M  V30 3204 C 290.837 -3.5646 0.259099 0
M  V30 3205 C 290.503 -4.21106 1.61184 0
M  V30 3206 C 289.165 -4.38479 1.98216 0
M  V30 3207 C 291.517 -4.57256 2.50132 0
M  V30 3208 C 288.845 -4.89282 3.2376 0
M  V30 3209 C 291.197 -5.09454 3.7502 0
M  V30 3210 C 289.861 -5.25037 4.12181 0
M  V30 3211 H 289.131 -0.73571 0.0883825 0
M  V30 3212 H 291.778 -1.68645 0.907257 0
M  V30 3213 H 290.083 -3.88721 -0.490189 0
M  V30 3214 H 291.78 -4.00826 -0.11804 0
M  V30 3215 H 288.37 -4.07966 1.31384 0
M  V30 3216 H 292.554 -4.43479 2.228 0
M  V30 3217 H 287.81 -4.99531 3.52532 0
M  V30 3218 H 291.984 -5.36404 4.44121 0
M  V30 3219 H 289.611 -5.64164 5.09532 0
M  V30 3220 N 291.186 -0.45159 -1.50991 0
M  V30 3221 C 292.434 0.109857 -2.01801 0
M  V30 3222 C 292.755 1.41958 -1.3369 0
M  V30 3223 O 292.025 1.9003 -0.475951 0
M  V30 3224 H 290.605 0.0435884 -0.745727 0
M  V30 3225 H 293.267 -0.597557 -1.85514 0
M  V30 3226 H 292.363 0.275489 -3.10882 0
M  V30 3227 N 292.664 1.56529 -0.183458 0
M  V30 3228 C 293.894 2.01331 0.463612 0
M  V30 3229 C 294.302 1.06278 1.5653 0
M  V30 3230 O 293.645 0.0577976 1.83609 0
M  V30 3231 C 293.707 3.42547 1.09096 0
M  V30 3232 C 293.371 4.56817 0.129442 0
M  V30 3233 C 294.368 5.15734 -0.656807 0
M  V30 3234 C 292.053 5.02295 0.02174 0
M  V30 3235 C 294.047 6.1857 -1.53784 0
M  V30 3236 C 291.734 6.04978 -0.862864 0
M  V30 3237 C 292.732 6.62988 -1.64123 0
M  V30 3238 O 292.42 7.63677 -2.51103 0
M  V30 3239 H 292.152 0.664917 0.121907 0
M  V30 3240 H 294.706 2.034 -0.285954 0
M  V30 3241 H 292.936 3.37428 1.88889 0
M  V30 3242 H 294.625 3.71228 1.64148 0
M  V30 3243 H 295.391 4.81473 -0.583839 0
M  V30 3244 H 291.27 4.56847 0.617392 0
M  V30 3245 H 294.814 6.63777 -2.14583 0
M  V30 3246 H 290.711 6.38663 -0.93699 0
M  V30 3247 H 291.479 7.81049 -2.44753 0
M  V30 3248 N 294.142 -0.090211 1.57342 0
M  V30 3249 C 295.075 -1.14035 1.97664 0
M  V30 3250 C 296.053 -1.38576 0.850616 0
M  V30 3251 O 297.237 -1.52255 1.11134 0
M  V30 3252 C 294.364 -2.48854 2.2976 0
M  V30 3253 C 293.41 -2.40564 3.52181 0
M  V30 3254 S 294.243 -1.81745 5.03715 0
M  V30 3255 C 295.399 -3.18178 5.38993 0
M  V30 3256 H 295.632 -0.796636 2.86428 0
M  V30 3257 H 293.165 -0.298072 1.51496 0
M  V30 3258 H 295.123 -3.26413 2.48927 0
M  V30 3259 H 293.784 -2.80393 1.41558 0
M  V30 3260 H 292.977 -3.39942 3.72096 0
M  V30 3261 H 292.579 -1.71135 3.32549 0
M  V30 3262 H 294.871 -4.14461 5.35937 0
M  V30 3263 H 295.814 -3.03062 6.39968 0
M  V30 3264 H 296.222 -3.17935 4.66452 0
M  V30 3265 N 295.62 -1.53406 -0.361157 0
M  V30 3266 C 296.568 -1.80832 -1.46296 0
M  V30 3267 C 297.562 -0.677699 -1.55253 0
M  V30 3268 O 298.768 -0.860723 -1.58087 0
M  V30 3269 H 295.143 -0.572627 -0.487445 0
M  V30 3270 H 297.114 -2.73045 -1.20371 0
M  V30 3271 C 295.863 -2.01907 -2.8307 0
M  V30 3272 H 295.186 -2.88349 -2.76938 0
M  V30 3273 H 296.626 -2.25072 -3.59331 0
M  V30 3274 C 295.085 -0.799449 -3.27277 0
M  V30 3275 O 295.615 0.00971761 -4.01699 0
M  V30 3276 N 293.821 -0.621637 -2.83873 0
M  V30 3277 H 293.368 -1.28126 -2.23476 0
M  V30 3278 H 293.326 0.19298 -3.13807 0
M  V30 3279 N 297.098 0.621204 -1.44841 0
M  V30 3280 C 298.028 1.74366 -1.55303 0
M  V30 3281 C 299.009 1.65199 -0.405385 0
M  V30 3282 O 300.194 1.83807 -0.626787 0
M  V30 3283 C 297.324 3.12931 -1.50637 0
M  V30 3284 C 296.278 3.36896 -2.63979 0
M  V30 3285 C 295.604 4.75594 -2.44366 0
M  V30 3286 C 296.904 3.28483 -4.06074 0
M  V30 3287 H 298.598 1.65867 -2.49256 0
M  V30 3288 H 296.144 0.796558 -1.19962 0
M  V30 3289 H 298.097 3.9124 -1.56555 0
M  V30 3290 H 296.821 3.22237 -0.532057 0
M  V30 3291 H 295.48 2.60972 -2.57467 0
M  V30 3292 H 295.128 4.81616 -1.45105 0
M  V30 3293 H 294.828 4.92586 -3.20364 0
M  V30 3294 H 296.352 5.5612 -2.52117 0
M  V30 3295 H 297.766 3.96684 -4.13902 0
M  V30 3296 H 296.163 3.57008 -4.82354 0
M  V30 3297 H 297.233 2.26133 -4.28943 0
M  V30 3298 N 298.576 1.31904 0.862503 0
M  V30 3299 C 299.506 1.22782 1.98612 0
M  V30 3300 C 300.487 0.113362 1.69722 0
M  V30 3301 O 301.672 0.299218 1.91881 0
M  V30 3302 C 298.802 0.942058 3.34279 0
M  V30 3303 C 297.756 2.0169 3.77499 0
M  V30 3304 C 297.082 1.58369 5.10709 0
M  V30 3305 C 298.382 3.43096 3.93805 0
M  V30 3306 H 300.076 2.16788 2.06502 0
M  V30 3307 H 297.622 1.04366 0.992154 0
M  V30 3308 H 299.575 0.864818 4.1243 0
M  V30 3309 H 298.299 -0.0336603 3.26583 0
M  V30 3310 H 296.958 2.08416 3.01593 0
M  V30 3311 H 296.606 0.595628 4.99461 0
M  V30 3312 H 296.306 2.30279 5.40597 0
M  V30 3313 H 297.83 1.52067 5.91361 0
M  V30 3314 H 299.244 3.39003 4.62331 0
M  V30 3315 H 297.641 4.13288 4.35101 0
M  V30 3316 H 298.711 3.83334 2.96957 0
M  V30 3317 N 300.054 -1.07777 1.14986 0
M  V30 3318 C 301.302 -1.79934 0.920235 0
M  V30 3319 C 301.623 -1.86955 -0.554336 0
M  V30 3320 O 300.893 -1.36731 -1.40291 0
M  V30 3321 H 299.473 -0.666424 0.337473 0
M  V30 3322 H 302.135 -1.3027 1.44968 0
M  V30 3323 H 301.231 -2.82539 1.32583 0
M  V30 3324 N 301.532 -0.945985 -1.26051 0
M  V30 3325 C 302.778 -0.597002 -1.93814 0
M  V30 3326 C 303.111 0.862484 -1.73997 0
M  V30 3327 O 302.386 1.61769 -1.07986 0
M  V30 3328 C 302.669 -0.945937 -3.47454 0
M  V30 3329 C 302.522 -2.46052 -3.76535 0
M  V30 3330 C 303.841 -0.464785 -4.37639 0
M  V30 3331 H 300.96 -0.218366 -0.703907 0
M  V30 3332 H 303.602 -1.18107 -1.48831 0
M  V30 3333 H 301.752 -0.448902 -3.85898 0
M  V30 3334 H 303.424 -3.03065 -3.47778 0
M  V30 3335 H 301.667 -2.90194 -3.22444 0
M  V30 3336 H 302.338 -2.65517 -4.83947 0
M  V30 3337 H 304.814 -0.891016 -4.06448 0
M  V30 3338 H 303.69 -0.737712 -5.4392 0
M  V30 3339 H 303.951 0.635274 -4.37512 0
M  V30 3340 N 303.011 1.40521 -0.713556 0
M  V30 3341 C 303.941 2.33381 -0.0743864 0
M  V30 3342 C 304.922 1.52784 0.747735 0
M  V30 3343 O 306.107 1.81258 0.697071 0
M  V30 3344 C 303.237 3.36748 0.849598 0
M  V30 3345 C 302.191 4.27793 0.133247 0
M  V30 3346 C 301.517 5.21679 1.17281 0
M  V30 3347 C 302.817 5.12415 -1.01134 0
M  V30 3348 H 304.511 2.87081 -0.850007 0
M  V30 3349 H 302.057 1.38034 -0.410201 0
M  V30 3350 H 304.01 4.00648 1.30612 0
M  V30 3351 H 302.734 2.81439 1.65709 0
M  V30 3352 H 301.393 3.65342 -0.303426 0
M  V30 3353 H 301.041 4.62677 1.9733 0
M  V30 3354 H 300.741 5.83435 0.698397 0
M  V30 3355 H 302.265 5.88456 1.62947 0
M  V30 3356 H 303.679 5.69781 -0.634274 0
M  V30 3357 H 302.076 5.83203 -1.41399 0
M  V30 3358 H 303.146 4.48514 -1.84292 0
M  V30 3359 N 304.489 0.459591 1.5075 0
M  V30 3360 C 305.738 -0.100971 2.01447 0
M  V30 3361 C 306.051 -1.41816 1.34713 0
M  V30 3362 O 307.257 -2.06299 1.76502 0
M  V30 3363 C 305.713 -0.23047 3.59161 0
M  V30 3364 C 305.321 1.0776 4.34847 0
M  V30 3365 C 307.065 -0.743608 4.17936 0
M  V30 3366 C 304.972 0.91253 5.84317 0
M  V30 3367 H 303.902 -0.0415102 0.752856 0
M  V30 3368 H 306.553 0.592742 1.73663 0
M  V30 3369 H 304.935 -0.987703 3.83485 0
M  V30 3370 H 306.109 1.8449 4.22256 0
M  V30 3371 H 304.424 1.52097 3.87628 0
M  V30 3372 H 307.021 -0.883959 5.27343 0
M  V30 3373 H 307.364 -1.73196 3.78562 0
M  V30 3374 H 307.897 -0.04408 3.97776 0
M  V30 3375 H 304.636 1.87391 6.28144 0
M  V30 3376 H 304.156 0.185422 5.99513 0
M  V30 3377 H 305.835 0.574547 6.44444 0
M  V30 3378 N 305.967 -1.56429 0.191757 0
M  V30 3379 C 306.899 -2.16154 -0.762245 0
M  V30 3380 C 307.912 -1.12247 -1.17917 0
M  V30 3381 O 309.101 -1.39353 -1.11548 0
M  V30 3382 C 306.201 -2.70606 -2.04024 0
M  V30 3383 C 305.374 -3.99381 -1.78364 0
M  V30 3384 C 304.433 -4.38692 -2.90578 0
M  V30 3385 O 303.459 -5.06179 -2.6033 0
M  V30 3386 N 304.661 -4.01922 -4.18854 0
M  V30 3387 H 307.426 -2.98643 -0.251526 0
M  V30 3388 H 304.987 -1.61897 0.00967373 0
M  V30 3389 H 306.979 -2.93891 -2.78227 0
M  V30 3390 H 305.549 -1.9259 -2.46227 0
M  V30 3391 H 304.769 -3.84262 -0.879581 0
M  V30 3392 H 306.057 -4.83445 -1.58614 0
M  V30 3393 H 305.455 -3.47631 -4.46283 0
M  V30 3394 H 304.012 -4.30165 -4.89695 0
M  V30 3395 N 307.445 0.0818655 -1.57387 0
M  V30 3396 C 308.378 1.12986 -1.98266 0
M  V30 3397 C 309.356 1.38123 -0.857954 0
M  V30 3398 O 310.54 1.51663 -1.1194 0
M  V30 3399 C 307.667 2.47632 -2.31076 0
M  V30 3400 C 306.713 2.38693 -3.53452 0
M  V30 3401 S 307.546 1.79071 -5.04672 0
M  V30 3402 C 308.702 3.15316 -5.40673 0
M  V30 3403 H 308.935 0.781435 -2.86846 0
M  V30 3404 H 306.468 0.290034 -1.51651 0
M  V30 3405 H 308.426 3.25089 -2.50654 0
M  V30 3406 H 307.087 2.79638 -1.43043 0
M  V30 3407 H 306.28 3.37964 -3.73893 0
M  V30 3408 H 305.882 1.69369 -3.33452 0
M  V30 3409 H 308.174 4.11613 -5.38127 0
M  V30 3410 H 309.117 2.99664 -6.41566 0
M  V30 3411 H 309.525 3.15457 -4.68132 0
M  V30 3412 N 308.923 1.53595 0.353017 0
M  V30 3413 C 309.886 1.80232 1.41594 0
M  V30 3414 C 310.886 0.673081 1.46035 0
M  V30 3415 O 312.076 0.941335 1.46576 0
M  V30 3416 C 309.208 1.93578 2.80607 0
M  V30 3417 H 310.401 2.75174 1.19244 0
M  V30 3418 H 307.954 1.44864 0.586872 0
M  V30 3419 H 308.689 1.00746 3.08254 0
M  V30 3420 H 308.474 2.75724 2.78781 0
M  V30 3421 H 309.964 2.15735 3.57558 0
M  V30 3422 N 310.401 -0.613514 1.45168 0
M  V30 3423 C 311.648 -1.37268 1.48875 0
M  V30 3424 C 311.976 -1.94077 0.128161 0
M  V30 3425 O 311.231 -1.75178 -0.872416 0
M  V30 3426 C 311.53 -2.54347 2.51083 0
M  V30 3427 C 311.196 -2.1572 3.95949 0
M  V30 3428 C 309.858 -2.04899 4.35396 0
M  V30 3429 C 312.21 -1.85485 4.87078 0
M  V30 3430 C 309.538 -1.62057 5.63875 0
M  V30 3431 C 311.89 -1.4413 6.15962 0
M  V30 3432 C 310.554 -1.31863 6.54346 0
M  V30 3433 H 309.824 -0.502299 0.544773 0
M  V30 3434 H 312.471 -0.694021 1.78481 0
M  V30 3435 H 310.776 -3.27524 2.15024 0
M  V30 3436 H 312.473 -3.12577 2.51191 0
M  V30 3437 H 309.063 -2.25066 3.64751 0
M  V30 3438 H 313.247 -1.92745 4.57343 0
M  V30 3439 H 308.503 -1.51177 5.92415 0
M  V30 3440 H 312.677 -1.19778 6.86022 0
M  V30 3441 H 310.304 -0.984392 7.538 0
M  V30 3442 N 311.879 -1.3236 -0.855495 0
M  V30 3443 C 313.29 -1.2056 -1.42556 0
M  V30 3444 C 313.641 0.182209 -1.95352 0
M  V30 3445 O 312.766 1.08088 -1.87472 0
M  V30 3446 C 313.361 -2.1826 -2.59129 0
M  V30 3447 C 311.92 -2.10351 -3.12137 0
M  V30 3448 C 311.067 -2.06674 -1.84882 0
M  V30 3449 H 314.018 -1.442 -0.662727 0
M  V30 3450 H 314.039 -1.78064 -3.36264 0
M  V30 3451 H 313.551 -3.19257 -2.20673 0
M  V30 3452 H 311.652 -1.12599 -3.55179 0
M  V30 3453 H 311.765 -3.00135 -3.73438 0
M  V30 3454 H 310.129 -1.51901 -2.04446 0
M  V30 3455 H 310.912 -3.09451 -1.48643 0
M  V30 3456 N 313.357 1.07166 -1.15556 0
M  V30 3457 C 314.32 2.12589 -0.856644 0
M  V30 3458 C 315.32 1.6015 0.14444 0
M  V30 3459 O 316.51 1.7399 -0.0854163 0
M  V30 3460 C 313.642 3.39753 -0.279405 0
M  V30 3461 H 314.835 2.40539 -1.79112 0
M  V30 3462 H 312.388 1.23086 -0.963298 0
M  V30 3463 H 313.123 3.17447 0.663174 0
M  V30 3464 H 312.908 3.79117 -1.00063 0
M  V30 3465 H 314.398 4.17507 -0.0879113 0
M  V30 3466 N 314.835 0.952656 1.25548 0
M  V30 3467 C 315.798 0.475794 2.24207 0
M  V30 3468 C 316.798 -0.419428 1.55234 0
M  V30 3469 O 317.988 -0.216994 1.72843 0
M  V30 3470 C 315.12 -0.312814 3.39462 0
M  V30 3471 H 316.313 1.34779 2.67908 0
M  V30 3472 H 313.866 0.735739 1.37901 0
M  V30 3473 H 314.601 -1.20257 3.01179 0
M  V30 3474 H 314.386 0.329404 3.90714 0
M  V30 3475 H 315.876 -0.635986 4.12729 0
M  V30 3476 N 316.313 -1.40141 0.720998 0
M  V30 3477 C 317.724 -1.83678 0.334553 0
M  V30 3478 C 318.075 -1.6027 -1.13173 0
M  V30 3479 O 317.2 -1.08643 -1.87152 0
M  V30 3480 C 317.795 -3.33437 0.600437 0
M  V30 3481 C 316.354 -3.75447 0.267642 0
M  V30 3482 C 315.501 -2.63296 0.870097 0
M  V30 3483 H 318.452 -1.29331 0.919732 0
M  V30 3484 H 318.473 -3.80269 -0.132517 0
M  V30 3485 H 317.985 -3.50442 1.66768 0
M  V30 3486 H 316.086 -3.64035 -0.794329 0
M  V30 3487 H 316.199 -4.73344 0.74042 0
M  V30 3488 H 314.563 -2.52954 0.297739 0
M  V30 3489 H 315.346 -2.83112 1.94172 0
M  V30 3490 N 317.792 -0.46758 -1.50504 0
M  V30 3491 C 319.203 -0.0116166 -1.86696 0
M  V30 3492 C 319.554 1.39202 -1.38265 0
M  V30 3493 O 318.679 2.0313 -0.746132 0
M  V30 3494 C 319.274 -0.0143044 -3.38797 0
M  V30 3495 C 317.833 0.386175 -3.74414 0
M  V30 3496 C 316.98 -0.401287 -2.74381 0
M  V30 3497 H 319.931 -0.682022 -1.43297 0
M  V30 3498 H 319.952 0.788641 -3.72237 0
M  V30 3499 H 319.464 -1.03602 -3.74016 0
M  V30 3500 H 317.565 1.41237 -3.44794 0
M  V30 3501 H 317.678 0.0899596 -4.79016 0
M  V30 3502 H 316.042 0.144536 -2.5429 0
M  V30 3503 H 316.825 -1.42244 -3.12444 0
M  V30 3504 N 319.27 1.56325 -0.20005 0
M  V30 3505 C 320.516 1.98772 0.431408 0
M  V30 3506 C 320.871 1.0849 1.58895 0
M  V30 3507 O 320.164 0.130331 1.91156 0
M  V30 3508 C 320.358 3.4495 0.935103 0
M  V30 3509 C 320.187 4.49371 -0.172096 0
M  V30 3510 C 318.957 5.0134 -0.631377 0
M  V30 3511 C 321.155 5.04822 -0.982806 0
M  V30 3512 N 319.137 5.89433 -1.71588 0
M  V30 3513 C 320.508 5.89632 -1.91661 0
M  V30 3514 C 322.563 4.87242 -1.02467 0
M  V30 3515 C 321.266 6.58741 -2.88881 0
M  V30 3516 C 323.292 5.57094 -1.98494 0
M  V30 3517 C 322.654 6.41655 -2.90617 0
M  V30 3518 H 318.753 0.771922 0.125144 0
M  V30 3519 H 321.337 1.92266 -0.306883 0
M  V30 3520 H 319.508 3.51946 1.64282 0
M  V30 3521 H 321.24 3.74354 1.53758 0
M  V30 3522 H 317.995 4.73071 -0.223827 0
M  V30 3523 H 318.419 6.38182 -2.25948 0
M  V30 3524 H 323.061 4.21538 -0.326408 0
M  V30 3525 H 320.779 7.23641 -3.5968 0
M  V30 3526 H 324.365 5.45466 -2.0238 0
M  V30 3527 H 323.245 6.94755 -3.63711 0
M  V30 3528 N 320.748 -0.0735177 1.57428 0
M  V30 3529 C 321.978 -0.78483 1.91112 0
M  V30 3530 C 322.386 -1.71729 0.7941 0
M  V30 3531 O 321.729 -1.82105 -0.241542 0
M  V30 3532 C 321.791 -1.63346 3.20247 0
M  V30 3533 C 321.455 -0.870557 4.48632 0
M  V30 3534 C 322.452 -0.19058 5.19551 0
M  V30 3535 C 320.137 -0.838242 4.95256 0
M  V30 3536 C 322.131 0.511503 6.35344 0
M  V30 3537 C 319.818 -0.132386 6.10957 0
M  V30 3538 C 320.816 0.541288 6.80852 0
M  V30 3539 O 320.504 1.23578 7.94345 0
M  V30 3540 H 320.236 -0.228408 0.636244 0
M  V30 3541 H 322.79 -0.0486039 2.05342 0
M  V30 3542 H 321.02 -2.41245 3.02222 0
M  V30 3543 H 322.709 -2.22329 3.39595 0
M  V30 3544 H 323.475 -0.206864 4.84559 0
M  V30 3545 H 319.354 -1.35206 4.40727 0
M  V30 3546 H 322.898 1.03789 6.89836 0
M  V30 3547 H 318.795 -0.114023 6.45399 0
M  V30 3548 H 319.563 1.14487 8.10454 0
M  V30 3549 N 322.226 -1.5378 -0.344866 0
M  V30 3550 C 323.173 -1.81676 -1.42346 0
M  V30 3551 C 324.143 -0.662376 -1.52321 0
M  V30 3552 O 325.328 -0.906675 -1.67881 0
M  V30 3553 C 322.468 -2.03087 -2.79015 0
M  V30 3554 C 321.581 -3.30799 -2.77842 0
M  V30 3555 C 320.716 -3.42285 -4.0622 0
M  V30 3556 C 319.755 -4.6395 -3.9927 0
M  V30 3557 N 318.892 -4.72477 -5.19336 0
M  V30 3558 H 323.732 -2.73703 -1.17858 0
M  V30 3559 H 321.269 -1.35568 -0.570949 0
M  V30 3560 H 323.227 -2.1349 -3.58438 0
M  V30 3561 H 321.857 -1.14375 -3.01858 0
M  V30 3562 H 320.909 -3.29244 -1.90533 0
M  V30 3563 H 322.221 -4.20314 -2.68584 0
M  V30 3564 H 321.375 -3.52113 -4.94066 0
M  V30 3565 H 320.114 -2.50823 -4.18258 0
M  V30 3566 H 319.119 -4.54201 -3.09809 0
M  V30 3567 H 320.344 -5.56775 -3.88817 0
M  V30 3568 H 318.29 -3.83924 -5.3192 0
M  V30 3569 H 318.207 -5.55927 -5.12329 0
M  V30 3570 H 319.475 -4.86613 -6.08957 0
M  V30 3571 N 323.704 0.605807 -1.45491 0
M  V30 3572 C 324.652 1.73754 -1.54636 0
M  V30 3573 C 325.646 1.64207 -0.416219 0
M  V30 3574 O 326.852 1.69979 -0.592199 0
M  V30 3575 H 323.227 0.574073 -0.485741 0
M  V30 3576 H 325.198 1.63169 -2.49837 0
M  V30 3577 C 323.947 3.12135 -1.53189 0
M  V30 3578 H 323.27 3.20141 -2.39478 0
M  V30 3579 H 324.71 3.91147 -1.63645 0
M  V30 3580 C 323.169 3.35921 -0.256616 0
M  V30 3581 O 323.699 3.96194 0.662798 0
M  V30 3582 N 321.905 2.90204 -0.151751 0
M  V30 3583 H 321.452 2.41336 -0.90081 0
M  V30 3584 H 321.41 3.06492 0.700699 0
M  V30 3585 N 325.182 1.32811 0.848464 0
M  V30 3586 C 326.112 1.24882 1.97299 0
M  V30 3587 C 327.093 0.131357 1.69592 0
M  V30 3588 O 328.278 0.319553 1.91553 0
M  V30 3589 C 325.408 0.97746 3.33261 0
M  V30 3590 C 324.362 2.05682 3.75338 0
M  V30 3591 C 323.688 1.63777 5.09 0
M  V30 3592 C 324.988 3.47254 3.90144 0
M  V30 3593 H 326.682 2.18966 2.04191 0
M  V30 3594 H 324.228 1.05413 0.981029 0
M  V30 3595 H 326.181 0.908513 4.1149 0
M  V30 3596 H 324.905 0.000980011 3.266 0
M  V30 3597 H 323.564 2.11603 2.99366 0
M  V30 3598 H 323.212 0.648569 4.98801 0
M  V30 3599 H 322.912 2.36 5.38124 0
M  V30 3600 H 324.436 1.5833 5.89715 0
M  V30 3601 H 325.85 3.43888 4.58709 0
M  V30 3602 H 324.247 4.1788 4.30693 0
M  V30 3603 H 325.317 3.86462 2.92874 0
M  V30 3604 N 326.66 -1.06551 1.16123 0
M  V30 3605 C 327.61 -2.12209 0.833736 0
M  V30 3606 C 328.594 -1.59825 -0.185656 0
M  V30 3607 O 329.786 -1.76994 0.0147906 0
M  V30 3608 C 326.915 -3.41674 0.333697 0
M  V30 3609 C 326.001 -4.00892 1.38372 0
M  V30 3610 N 326.392 -4.34256 2.59337 0
M  V30 3611 C 324.69 -4.28463 1.23836 0
M  V30 3612 C 325.391 -4.81291 3.26701 0
M  V30 3613 N 324.367 -4.80565 2.54083 0
M  V30 3614 H 328.169 -2.35849 1.75364 0
M  V30 3615 H 325.683 -1.24068 1.04789 0
M  V30 3616 H 327.68 -4.16822 0.0806918 0
M  V30 3617 H 326.34 -3.19475 -0.58017 0
M  V30 3618 H 327.351 -4.24687 2.96415 0
M  V30 3619 H 324.028 -4.15721 0.38504 0
M  V30 3620 H 325.418 -5.16332 4.29943 0
M  V30 3621 N 328.138 -0.959301 -1.25041 0
M  V30 3622 C 329.386 -0.615393 -1.92503 0
M  V30 3623 C 329.707 0.850969 -1.75452 0
M  V30 3624 O 328.977 1.60658 -1.12098 0
M  V30 3625 H 327.557 -0.224613 -0.712431 0
M  V30 3626 H 330.219 -1.21855 -1.5211 0
M  V30 3627 H 329.315 -0.848738 -3.00338 0
M  V30 3628 N 329.616 1.39756 -0.72842 0
M  V30 3629 C 330.546 2.33289 -0.0991354 0
M  V30 3630 C 331.527 1.53568 0.731489 0
M  V30 3631 O 332.712 1.81987 0.677807 0
M  V30 3632 C 329.842 3.3763 0.813834 0
M  V30 3633 C 328.796 4.2791 0.0878663 0
M  V30 3634 C 328.122 5.22894 1.11741 0
M  V30 3635 C 329.422 5.11314 -1.06563 0
M  V30 3636 H 331.116 2.86163 -0.880408 0
M  V30 3637 H 328.662 1.37591 -0.424819 0
M  V30 3638 H 330.615 4.0201 1.26355 0
M  V30 3639 H 329.339 2.83181 1.62715 0
M  V30 3640 H 327.998 3.65 -0.342159 0
M  V30 3641 H 327.646 4.64744 1.92412 0
M  V30 3642 H 327.346 5.84143 0.636477 0
M  V30 3643 H 328.87 5.90151 1.56697 0
M  V30 3644 H 330.284 5.69076 -0.694671 0
M  V30 3645 H 328.681 5.81671 -1.47577 0
M  V30 3646 H 329.751 4.46534 -1.89038 0
M  V30 3647 N 331.094 0.475555 1.50254 0
M  V30 3648 C 332.004 -0.321501 2.32387 0
M  V30 3649 C 333.02 -0.991755 1.42969 0
M  V30 3650 O 334.196 -0.978747 1.76018 0
M  V30 3651 C 331.261 -1.38667 3.17762 0
M  V30 3652 C 330.322 -0.732538 4.23004 0
M  V30 3653 C 329.555 -1.74695 5.04299 0
M  V30 3654 O 329.778 -2.97399 4.86734 0
M  V30 3655 O 328.712 -1.31631 5.8733 0
M  V30 3656 H 332.538 0.350071 3.01676 0
M  V30 3657 H 330.123 0.237321 1.47503 0
M  V30 3658 H 332.005 -2.00354 3.70724 0
M  V30 3659 H 330.68 -2.04163 2.51196 0
M  V30 3660 H 329.587 -0.0765902 3.74022 0
M  V30 3661 H 330.92 -0.120452 4.92053 0
M  V30 3662 N 332.573 -1.56217 0.208337 0
M  V30 3663 C 333.984 -1.84243 -0.301904 0
M  V30 3664 C 334.335 -1.12939 -1.60434 0
M  V30 3665 O 333.46 -0.39461 -2.12772 0
M  V30 3666 C 334.055 -3.34231 -0.554543 0
M  V30 3667 C 332.614 -3.62621 -1.00912 0
M  V30 3668 C 331.761 -2.77224 -0.064933 0
M  V30 3669 H 334.712 -1.52712 0.431833 0
M  V30 3670 H 334.733 -3.5372 -1.40223 0
M  V30 3671 H 334.245 -3.86099 0.393561 0
M  V30 3672 H 332.346 -3.16197 -1.97104 0
M  V30 3673 H 332.459 -4.7071 -0.892674 0
M  V30 3674 H 330.823 -2.48256 -0.56929 0
M  V30 3675 H 331.606 -3.31887 0.877851 0
M  V30 3676 N 334.051 0.0651679 -1.57465 0
M  V30 3677 C 335.014 1.06117 -2.03155 0
M  V30 3678 C 336.014 1.31204 -0.929632 0
M  V30 3679 O 337.204 1.26813 -1.19432 0
M  V30 3680 C 334.336 2.4032 -2.41783 0
M  V30 3681 H 335.529 0.667231 -2.92383 0
M  V30 3682 H 333.082 0.311075 -1.53173 0
M  V30 3683 H 333.817 2.84532 -1.55601 0
M  V30 3684 H 333.602 2.23451 -3.22199 0
M  V30 3685 H 335.092 3.11898 -2.77685 0
M  V30 3686 N 335.529 1.53961 0.336706 0
M  V30 3687 C 336.477 1.83136 1.43401 0
M  V30 3688 C 337.471 0.702313 1.54156 0
M  V30 3689 O 338.677 0.885765 1.56698 0
M  V30 3690 H 335.052 0.580309 0.478273 0
M  V30 3691 H 337.023 2.74925 1.16012 0
M  V30 3692 C 335.772 2.06385 2.79822 0
M  V30 3693 H 335.095 2.92718 2.72316 0
M  V30 3694 H 336.535 2.30761 3.55704 0
M  V30 3695 C 334.994 0.851414 3.25964 0
M  V30 3696 O 335.524 0.0541904 4.01663 0
M  V30 3697 N 333.73 0.66672 2.82848 0
M  V30 3698 H 333.277 1.31665 2.21409 0
M  V30 3699 H 333.235 -0.143032 3.14074 0
M  V30 3700 N 337.007 -0.598083 1.45811 0
M  V30 3701 C 338.237 -1.38121 1.53643 0
M  V30 3702 C 338.645 -1.88425 0.171081 0
M  V30 3703 O 337.988 -1.63409 -0.839237 0
M  V30 3704 C 338.05 -2.61432 2.46766 0
M  V30 3705 C 337.714 -2.32702 3.93318 0
M  V30 3706 C 338.711 -1.92479 4.82957 0
M  V30 3707 C 336.396 -2.45321 4.38318 0
M  V30 3708 C 338.39 -1.65248 6.15607 0
M  V30 3709 C 336.077 -2.17703 5.71007 0
M  V30 3710 C 337.075 -1.7773 6.5947 0
M  V30 3711 O 336.763 -1.50441 7.89698 0
M  V30 3712 H 336.495 -0.428863 0.522544 0
M  V30 3713 H 339.049 -0.73557 1.91777 0
M  V30 3714 H 337.279 -3.28749 2.0362 0
M  V30 3715 H 338.968 -3.23487 2.45175 0
M  V30 3716 H 339.734 -1.82258 4.49452 0
M  V30 3717 H 335.613 -2.75399 3.69697 0
M  V30 3718 H 339.157 -1.33973 6.84614 0
M  V30 3719 H 335.054 -2.27544 6.04065 0
M  V30 3720 H 335.822 -1.64415 8.01817 0
M  V30 3721 N 338.485 -1.33259 -0.841409 0
M  V30 3722 C 339.71 -1.2775 -1.63385 0
M  V30 3723 C 340.135 0.149188 -1.87507 0
M  V30 3724 O 339.493 1.10498 -1.43736 0
M  V30 3725 C 339.541 -2.05571 -2.96265 0
M  V30 3726 O 338.645 -1.41257 -3.87453 0
M  V30 3727 H 337.986 -0.439627 -0.497618 0
M  V30 3728 H 340.516 -1.75782 -1.04699 0
M  V30 3729 H 340.526 -2.16241 -3.45982 0
M  V30 3730 H 339.201 -3.09309 -2.7803 0
M  V30 3731 H 337.778 -1.39217 -3.45938 0
M  V30 3732 N 339.963 1.05934 -1.16686 0
M  V30 3733 C 340.896 2.1295 -0.820225 0
M  V30 3734 C 341.874 1.61242 0.209722 0
M  V30 3735 O 343.058 1.88271 0.0929688 0
M  V30 3736 C 340.185 3.3797 -0.22223 0
M  V30 3737 C 339.231 4.08488 -1.22637 0
M  V30 3738 S 340.064 4.58015 -2.77457 0
M  V30 3739 C 341.22 5.86292 -2.19117 0
M  V30 3740 H 341.453 2.42025 -1.72659 0
M  V30 3741 H 338.986 1.18423 -0.990722 0
M  V30 3742 H 340.944 4.10335 0.116322 0
M  V30 3743 H 339.605 3.07045 0.66196 0
M  V30 3744 H 338.798 4.98291 -0.756455 0
M  V30 3745 H 338.4 3.42154 -1.51019 0
M  V30 3746 H 340.692 6.59246 -1.56209 0
M  V30 3747 H 341.635 6.38019 -3.07144 0
M  V30 3748 H 342.043 5.40497 -1.62858 0
M  V30 3749 N 341.441 0.965919 1.2453 0
M  V30 3750 C 342.391 0.465731 2.23193 0
M  V30 3751 C 343.375 -0.451277 1.54442 0
M  V30 3752 O 344.567 -0.282489 1.74731 0
M  V30 3753 C 341.696 -0.244511 3.42428 0
M  V30 3754 C 340.782 0.691222 4.18429 0
M  V30 3755 N 341.173 1.82771 4.71623 0
M  V30 3756 C 339.471 0.501649 4.4317 0
M  V30 3757 C 340.172 2.41285 5.29298 0
M  V30 3758 N 339.148 1.69819 5.16394 0
M  V30 3759 H 342.95 1.33291 2.61937 0
M  V30 3760 H 340.464 0.824789 1.39896 0
M  V30 3761 H 342.461 -0.620056 4.12263 0
M  V30 3762 H 341.121 -1.10815 3.05205 0
M  V30 3763 H 342.132 2.20929 4.68413 0
M  V30 3764 H 338.809 -0.318177 4.16286 0
M  V30 3765 H 340.199 3.37181 5.8117 0
M  V30 3766 N 342.919 -1.39368 0.735821 0
M  V30 3767 C 344.167 -2.00101 0.283562 0
M  V30 3768 C 344.488 -1.5868 -1.13338 0
M  V30 3769 O 343.758 -0.835423 -1.77193 0
M  V30 3770 H 342.338 -0.740024 0.101851 0
M  V30 3771 H 345 -1.70404 0.945962 0
M  V30 3772 H 344.096 -3.10323 0.332604 0
M  V30 3773 N 344.397 -0.483516 -1.5 0
M  V30 3774 C 345.622 0.0667119 -2.07293 0
M  V30 3775 C 346.047 1.3164 -1.3436 0
M  V30 3776 O 345.405 1.76945 -0.394987 0
M  V30 3777 C 345.453 0.321126 -3.59167 0
M  V30 3778 O 344.557 1.39927 -3.87936 0
M  V30 3779 H 343.898 -0.0184758 -0.663743 0
M  V30 3780 H 346.428 -0.678125 -1.93035 0
M  V30 3781 H 346.438 0.557906 -4.04168 0
M  V30 3782 H 345.113 -0.592007 -4.11665 0
M  V30 3783 H 343.69 1.14882 -3.54763 0
M  V30 3784 N 345.875 1.56104 -0.216619 0
M  V30 3785 C 347.286 1.844 0.292128 0
M  V30 3786 C 347.637 1.13788 1.59833 0
M  V30 3787 O 346.762 0.405888 2.12559 0
M  V30 3788 C 347.357 3.3452 0.53681 0
M  V30 3789 C 345.916 3.63151 0.989876 0
M  V30 3790 C 345.063 2.77255 0.0502302 0
M  V30 3791 H 348.014 1.52481 -0.439926 0
M  V30 3792 H 348.035 3.54459 1.38345 0
M  V30 3793 H 347.547 3.85885 -0.414031 0
M  V30 3794 H 345.648 3.17238 1.95425 0
M  V30 3795 H 345.761 4.71177 0.867698 0
M  V30 3796 H 344.125 2.48555 0.556117 0
M  V30 3797 H 344.908 3.31416 -0.89544 0
M  V30 3798 N 347.353 -0.0568162 1.57498 0
M  V30 3799 C 348.601 -0.751617 1.87604 0
M  V30 3800 C 348.922 -1.77351 0.81066 0
M  V30 3801 O 348.192 -1.95254 -0.159018 0
M  V30 3802 H 346.772 -0.280583 0.692302 0
M  V30 3803 H 349.434 -0.0293483 1.94878 0
M  V30 3804 H 348.53 -1.25852 2.856 0
M  V30 3805 N 348.832 -1.54138 -0.328536 0
M  V30 3806 C 350.08 -1.71765 -1.06496 0
M  V30 3807 C 350.401 -0.49149 -1.88704 0
M  V30 3808 O 349.671 0.494539 -1.89555 0
M  V30 3809 H 348.251 -0.633295 -0.396164 0
M  V30 3810 H 350.913 -1.91429 -0.366176 0
M  V30 3811 H 350.009 -2.5951 -1.73381 0
M  V30 3812 N 350.31 0.590341 -1.46126 0
M  V30 3813 C 351.24 1.71032 -1.58966 0
M  V30 3814 C 352.221 1.64302 -0.440335 0
M  V30 3815 O 353.406 1.82436 -0.665634 0
M  V30 3816 C 350.536 3.09665 -1.57241 0
M  V30 3817 C 349.49 3.31221 -2.71066 0
M  V30 3818 C 348.816 4.70303 -2.54399 0
M  V30 3819 C 350.116 3.19796 -4.1295 0
M  V30 3820 H 351.81 1.60543 -2.52718 0
M  V30 3821 H 349.356 0.770933 -1.21625 0
M  V30 3822 H 351.309 3.87831 -1.64819 0
M  V30 3823 H 350.033 3.21036 -0.600289 0
M  V30 3824 H 348.692 2.55452 -2.62944 0
M  V30 3825 H 348.34 4.78429 -1.55288 0
M  V30 3826 H 348.04 4.85679 -3.30741 0
M  V30 3827 H 349.564 5.50647 -2.63857 0
M  V30 3828 H 350.978 3.87815 -4.22223 0
M  V30 3829 H 349.375 3.46696 -4.89818 0
M  V30 3830 H 350.445 2.16983 -4.33643 0
M  V30 3831 N 351.788 1.33704 0.83433 0
M  V30 3832 C 353.036 1.25169 1.58673 0
M  V30 3833 C 353.357 -0.18127 1.94156 0
M  V30 3834 O 352.627 -1.11113 1.6134 0
M  V30 3835 H 351.207 0.4603 0.58833 0
M  V30 3836 H 353.869 1.67478 0.996847 0
M  V30 3837 H 352.965 1.84856 2.51465 0
M  V30 3838 N 353.266 -1.05314 1.17247 0
M  V30 3839 C 354.682 -1.30452 0.919473 0
M  V30 3840 C 354.882 -1.9703 -0.42209 0
M  V30 3841 O 353.938 -2.24311 -1.15935 0
M  V30 3842 C 355.251 -2.17551 2.07586 0
M  V30 3843 C 356.799 -2.30937 2.11275 0
M  V30 3844 C 357.274 -3.21396 3.26296 0
M  V30 3845 N 358.765 -3.28981 3.26076 0
M  V30 3846 C 359.5 -3.99095 4.11716 0
M  V30 3847 N 358.996 -4.71648 5.07465 0
M  V30 3848 N 360.789 -3.95247 3.9967 0
M  V30 3849 H 352.94 -0.604988 2.03602 0
M  V30 3850 H 355.203 -0.329368 0.888944 0
M  V30 3851 H 354.909 -1.75921 3.0454 0
M  V30 3852 H 354.783 -3.18182 2.02584 0
M  V30 3853 H 357.17 -2.71809 1.14907 0
M  V30 3854 H 357.251 -1.2994 2.20339 0
M  V30 3855 H 356.895 -2.81238 4.22927 0
M  V30 3856 H 356.825 -4.22395 3.14467 0
M  V30 3857 H 359.316 -2.77286 2.5675 0
M  V30 3858 H 359.629 -5.22705 5.6921 0
M  V30 3859 H 357.974 -4.70594 5.11435 0
M  V30 3860 H 361.165 -3.37691 3.24164 0
M  V30 3861 H 361.338 -4.4962 4.66632 0
M  V30 3862 N 354.744 -0.972509 -1.24016 0
M  V30 3863 C 355.993 -0.632603 -1.91523 0
M  V30 3864 C 356.306 0.836641 -1.76804 0
M  V30 3865 O 357.512 1.28728 -2.39043 0
M  V30 3866 C 355.968 -1.08082 -3.43287 0
M  V30 3867 C 355.576 -2.57386 -3.66683 0
M  V30 3868 C 357.32 -0.814288 -4.16617 0
M  V30 3869 C 355.227 -2.95915 -5.12043 0
M  V30 3870 H 354.157 -0.232898 -0.717129 0
M  V30 3871 H 356.808 -1.17936 -1.40582 0
M  V30 3872 H 355.19 -0.462339 -3.93292 0
M  V30 3873 H 356.364 -3.24405 -3.27258 0
M  V30 3874 H 354.679 -2.81701 -3.06649 0
M  V30 3875 H 357.276 -1.0781 -5.23718 0
M  V30 3876 H 357.619 0.24955 -4.15551 0
M  V30 3877 H 358.152 -1.39397 -3.72577 0
M  V30 3878 H 354.891 -4.0139 -5.18234 0
M  V30 3879 H 354.411 -2.33584 -5.52448 0
M  V30 3880 H 356.09 -2.86086 -5.80314 0
M  V30 3881 N 356.222 1.38976 -0.743202 0
M  V30 3882 C 357.499 1.94351 -0.220705 0
M  V30 3883 C 357.879 1.67935 1.2791 0
M  V30 3884 O 357.227 1.01211 2.04862 0
M  V30 3885 C 357.437 3.44426 -0.563171 0
M  V30 3886 C 358.785 4.2144 -0.517046 0
M  V30 3887 O 359.809 3.52661 -0.500846 0
M  V30 3888 O 358.668 5.44032 -0.518806 0
M  V30 3889 H 355.762 0.825879 -0.043047 0
M  V30 3890 H 358.308 1.48429 -0.822618 0
M  V30 3891 H 357.08 3.5712 -1.59941 0
M  V30 3892 H 356.703 3.97543 0.0672883 0
M  V30 3893 N 357.7 0.491464 1.49741 0
M  V30 3894 C 358.647 -0.292027 2.28945 0
M  V30 3895 C 359.617 -0.968973 1.34908 0
M  V30 3896 O 360.802 -0.97748 1.6386 0
M  V30 3897 C 357.942 -1.35617 3.17336 0
M  V30 3898 C 357.055 -0.691957 4.26422 0
M  V30 3899 C 356.19 -1.73572 5.02042 0
M  V30 3900 C 355.229 -1.05286 6.02977 0
M  V30 3901 N 354.366 -2.0404 6.71798 0
M  V30 3902 H 359.206 0.389654 2.95442 0
M  V30 3903 H 356.743 0.204003 1.45679 0
M  V30 3904 H 358.701 -1.98502 3.66951 0
M  V30 3905 H 357.331 -2.00674 2.52844 0
M  V30 3906 H 356.383 0.0499523 3.80367 0
M  V30 3907 H 357.695 -0.153946 4.98562 0
M  V30 3908 H 356.849 -2.43987 5.55478 0
M  V30 3909 H 355.588 -2.30757 4.29654 0
M  V30 3910 H 354.593 -0.334446 5.48782 0
M  V30 3911 H 355.818 -0.487636 6.77347 0
M  V30 3912 H 353.764 -2.60205 6.02187 0
M  V30 3913 H 353.681 -1.55279 7.39881 0
M  V30 3914 H 354.949 -2.73772 7.29842 0
M  V30 3915 N 359.178 -1.55987 0.224894 0
M  V30 3916 C 360.108 -2.23426 -0.678457 0
M  V30 3917 C 361.089 -1.20709 -1.19847 0
M  V30 3918 O 362.274 -1.49304 -1.24186 0
M  V30 3919 C 359.404 -2.91676 -1.88527 0
M  V30 3920 C 358.358 -4.00893 -1.49896 0
M  V30 3921 C 357.684 -4.56455 -2.78483 0
M  V30 3922 C 358.984 -5.17769 -0.686461 0
M  V30 3923 H 360.678 -2.99175 -0.116173 0
M  V30 3924 H 358.224 -1.43897 -0.054436 0
M  V30 3925 H 360.177 -3.37547 -2.5227 0
M  V30 3926 H 358.901 -2.1338 -2.47258 0
M  V30 3927 H 357.56 -3.55758 -0.884985 0
M  V30 3928 H 357.208 -3.74886 -3.35365 0
M  V30 3929 H 356.908 -5.30169 -2.53368 0
M  V30 3930 H 358.432 -5.05047 -3.43162 0
M  V30 3931 H 359.846 -5.60001 -1.22767 0
M  V30 3932 H 358.243 -5.97735 -0.532259 0
M  V30 3933 H 359.313 -4.83932 0.306196 0
M  V30 3934 N 360.656 0.0484629 -1.57525 0
M  V30 3935 C 361.586 1.0549 -2.08313 0
M  V30 3936 C 362.567 1.38929 -0.981463 0
M  V30 3937 O 363.752 1.48151 -1.25558 0
M  V30 3938 C 360.882 2.36162 -2.54646 0
M  V30 3939 C 359.836 2.17016 -3.68901 0
M  V30 3940 C 359.162 3.53278 -4.01371 0
M  V30 3941 C 360.462 1.57219 -4.98076 0
M  V30 3942 H 362.156 0.632195 -2.92649 0
M  V30 3943 H 359.702 0.302654 -1.40784 0
M  V30 3944 H 361.655 3.06882 -2.88793 0
M  V30 3945 H 360.379 2.80456 -1.67368 0
M  V30 3946 H 359.038 1.48733 -3.35073 0
M  V30 3947 H 358.686 3.95185 -3.11188 0
M  V30 3948 H 358.386 3.41299 -4.78318 0
M  V30 3949 H 359.91 4.25391 -4.38035 0
M  V30 3950 H 361.324 2.17832 -5.30304 0
M  V30 3951 H 359.721 1.55871 -5.79503 0
M  V30 3952 H 360.791 0.535956 -4.81929 0
M  V30 3953 N 362.134 1.5431 0.320358 0
M  V30 3954 C 363.382 1.72327 1.05583 0
M  V30 3955 C 363.703 0.50149 1.88441 0
M  V30 3956 O 362.973 -0.48448 1.89815 0
M  V30 3957 H 361.553 0.635387 0.3928 0
M  V30 3958 H 364.215 1.91621 0.356019 0
M  V30 3959 H 363.311 2.60426 1.72003 0
M  V30 3960 N 363.613 -0.582584 1.46437 0
M  V30 3961 C 364.859 -1.34278 1.51978 0
M  V30 3962 C 365.192 -1.93446 0.170973 0
M  V30 3963 O 364.467 -1.76481 -0.817608 0
M  V30 3964 C 364.75 -2.47203 2.61845 0
M  V30 3965 C 364.603 -1.93069 4.06257 0
M  V30 3966 C 365.922 -3.49247 2.67795 0
M  V30 3967 H 363.041 -0.486876 0.553282 0
M  V30 3968 H 365.683 -0.654437 1.78374 0
M  V30 3969 H 363.833 -3.0592 2.39469 0
M  V30 3970 H 365.505 -1.38808 4.3992 0
M  V30 3971 H 363.748 -1.23898 4.1573 0
M  V30 3972 H 364.419 -2.74586 4.7886 0
M  V30 3973 H 366.895 -3.00411 2.8791 0
M  V30 3974 H 365.771 -4.25719 3.46489 0
M  V30 3975 H 366.032 -4.06482 1.73852 0
M  V30 3976 N 365.091 -1.34144 -0.827227 0
M  V30 3977 C 366.368 -1.16844 -1.56865 0
M  V30 3978 C 366.748 0.260654 -2.09485 0
M  V30 3979 O 366.096 1.26138 -1.9053 0
M  V30 3980 C 366.306 -2.21939 -2.6934 0
M  V30 3981 C 367.654 -2.56695 -3.3822 0
M  V30 3982 O 368.678 -2.20695 -2.79593 0
M  V30 3983 O 367.537 -3.18518 -4.44082 0
M  V30 3984 H 364.631 -0.452669 -0.692112 0
M  V30 3985 H 367.177 -1.45763 -0.868973 0
M  V30 3986 H 365.949 -3.17882 -2.28182 0
M  V30 3987 H 365.572 -1.94172 -3.46962 0
M  V30 3988 N 366.569 1.04691 -1.17803 0
M  V30 3989 C 367.502 2.12068 -0.842765 0
M  V30 3990 C 368.48 1.61455 0.192608 0
M  V30 3991 O 369.664 1.88359 0.072995 0
M  V30 3992 C 366.791 3.37715 -0.258063 0
M  V30 3993 C 365.837 4.07164 -1.26962 0
M  V30 3994 S 366.67 4.55047 -2.82299 0
M  V30 3995 C 367.826 5.83935 -2.25323 0
M  V30 3996 H 368.059 2.4018 -1.75217 0
M  V30 3997 H 365.592 1.17366 -1.00323 0
M  V30 3998 H 367.55 4.10435 0.0727935 0
M  V30 3999 H 366.211 3.0773 0.629357 0
M  V30 4000 H 365.404 4.9746 -0.809263 0
M  V30 4001 H 365.006 3.40533 -1.54639 0
M  V30 4002 H 367.298 6.57552 -1.63192 0
M  V30 4003 H 368.241 6.34725 -3.13894 0
M  V30 4004 H 368.649 5.3874 -1.68582 0
M  V30 4005 N 368.047 0.979072 1.23499 0
M  V30 4006 C 369.277 0.664237 1.95631 0
M  V30 4007 C 369.685 -0.772653 1.72704 0
M  V30 4008 O 369.028 -1.53141 1.01457 0
M  V30 4009 C 369.09 0.873115 3.48736 0
M  V30 4010 C 368.754 2.29182 3.95379 0
M  V30 4011 C 369.751 3.2704 4.04155 0
M  V30 4012 C 367.436 2.62256 4.28401 0
M  V30 4013 C 369.43 4.56052 4.45304 0
M  V30 4014 C 367.117 3.91491 4.69231 0
M  V30 4015 C 368.115 4.88201 4.77649 0
M  V30 4016 O 367.803 6.15129 5.17563 0
M  V30 4017 H 367.535 0.245915 0.629684 0
M  V30 4018 H 370.089 1.3127 1.57979 0
M  V30 4019 H 368.319 0.167476 3.86337 0
M  V30 4020 H 370.008 0.555642 4.02079 0
M  V30 4021 H 370.774 3.02819 3.78848 0
M  V30 4022 H 366.653 1.87692 4.21061 0
M  V30 4023 H 370.197 5.31538 4.51789 0
M  V30 4024 H 366.094 4.15508 4.93987 0
M  V30 4025 H 366.862 6.18862 5.35679 0
M  V30 4026 N 369.525 -1.3858 0.750561 0
M  V30 4027 C 370.753 -2.04471 0.316098 0
M  V30 4028 C 371.168 -1.56606 -1.05452 0
M  V30 4029 O 370.525 -0.737784 -1.66922 0
M  V30 4030 C 370.576 -3.60025 0.326275 0
M  V30 4031 O 370.297 -4.06133 1.6428 0
M  V30 4032 C 371.798 -4.43131 -0.122429 0
M  V30 4033 H 369.018 -0.65717 0.135528 0
M  V30 4034 H 371.562 -1.77329 1.01857 0
M  V30 4035 H 369.717 -3.86014 -0.327431 0
M  V30 4036 H 370.131 -5.00547 1.56693 0
M  V30 4037 H 371.605 -5.51963 -0.0641473 0
M  V30 4038 H 372.082 -4.23333 -1.16988 0
M  V30 4039 H 372.688 -4.22323 0.50229 0
M  V30 4040 N 371.003 -0.499398 -1.49478 0
M  V30 4041 C 372.231 0.0425456 -2.06856 0
M  V30 4042 C 372.646 1.30964 -1.35992 0
M  V30 4043 O 372.003 1.77172 -0.437762 0
M  V30 4044 C 372.054 0.301735 -3.60239 0
M  V30 4045 O 371.775 -0.915127 -4.28436 0
M  V30 4046 C 373.276 0.887499 -4.34325 0
M  V30 4047 H 370.496 -0.0197482 -0.670709 0
M  V30 4048 H 373.04 -0.696297 -1.92281 0
M  V30 4049 H 371.195 0.990556 -3.74522 0
M  V30 4050 H 371.609 -0.676993 -5.20113 0
M  V30 4051 H 373.083 1.01845 -5.42523 0
M  V30 4052 H 373.56 1.88488 -3.96698 0
M  V30 4053 H 374.166 0.236196 -4.24644 0
M  V30 4054 N 372.481 1.55866 -0.233164 0
M  V30 4055 C 373.729 1.9821 0.394593 0
M  V30 4056 C 374.05 1.12234 1.59463 0
M  V30 4057 O 373.32 0.201981 1.94856 0
M  V30 4058 H 371.9 0.732034 0.148778 0
M  V30 4059 H 374.562 1.92107 -0.32876 0
M  V30 4060 H 373.658 3.03845 0.713063 0
M  V30 4061 N 373.959 -0.0401083 1.57549 0
M  V30 4062 C 375.206 -0.733125 1.88763 0
M  V30 4063 C 375.534 -1.75946 0.829058 0
M  V30 4064 O 374.789 -1.94949 -0.171323 0
M  V30 4065 C 375.088 -1.44902 3.26708 0
M  V30 4066 C 374.754 -0.559707 4.47413 0
M  V30 4067 C 373.416 -0.314731 4.8017 0
M  V30 4068 C 375.768 0.0549743 5.21171 0
M  V30 4069 C 373.096 0.553886 5.8408 0
M  V30 4070 C 375.448 0.911229 6.26003 0
M  V30 4071 C 374.112 1.16577 6.57241 0
M  V30 4072 H 373.382 -0.268269 0.690733 0
M  V30 4073 H 376.029 0.00679408 1.91499 0
M  V30 4074 H 374.334 -2.26197 3.1991 0
M  V30 4075 H 376.031 -1.99058 3.48105 0
M  V30 4076 H 372.621 -0.760793 4.21794 0
M  V30 4077 H 376.805 -0.121344 4.96152 0
M  V30 4078 H 372.061 0.759518 6.06664 0
M  V30 4079 H 376.235 1.3941 6.82303 0
M  V30 4080 H 373.862 1.84058 7.37582 0
M  V30 4081 N 375.437 -1.54477 -0.31217 0
M  V30 4082 C 376.662 -1.77526 -1.07235 0
M  V30 4083 C 377.087 -0.527775 -1.80544 0
M  V30 4084 O 376.445 0.52121 -1.73646 0
M  V30 4085 C 376.493 -2.97535 -2.03728 0
M  V30 4086 O 375.597 -2.69878 -3.11833 0
M  V30 4087 H 374.938 -0.58792 -0.30862 0
M  V30 4088 H 377.468 -2.01532 -0.352993 0
M  V30 4089 H 377.478 -3.25198 -2.46395 0
M  V30 4090 H 376.153 -3.87996 -1.49774 0
M  V30 4091 H 374.73 -2.53199 -2.7376 0
M  V30 4092 N 376.915 0.57481 -1.46744 0
M  V30 4093 C 377.863 1.70435 -1.58286 0
M  V30 4094 C 378.857 1.63287 -0.450956 0
M  V30 4095 O 380.063 1.68685 -0.628121 0
M  V30 4096 H 376.438 0.56364 -0.497809 0
M  V30 4097 H 378.409 1.57833 -2.53242 0
M  V30 4098 C 377.158 3.08815 -1.59776 0
M  V30 4099 H 376.481 3.1499 -2.46214 0
M  V30 4100 H 377.921 3.87588 -1.71905 0
M  V30 4101 C 376.38 3.35301 -0.327812 0
M  V30 4102 O 376.91 3.97511 0.57861 0
M  V30 4103 N 375.116 2.89816 -0.213274 0
M  V30 4104 H 374.663 2.39371 -0.951798 0
M  V30 4105 H 374.621 3.0791 0.63553 0
M  V30 4106 N 378.394 1.34581 0.820102 0
M  V30 4107 C 379.619 1.30333 1.61332 0
M  V30 4108 C 380.044 -0.119339 1.87721 0
M  V30 4109 O 379.402 -1.08197 1.45475 0
M  V30 4110 C 379.45 2.10258 2.92957 0
M  V30 4111 O 378.554 1.47404 3.85157 0
M  V30 4112 H 377.895 0.447488 0.490561 0
M  V30 4113 H 380.425 1.77425 1.01889 0
M  V30 4114 H 380.435 2.21718 3.42498 0
M  V30 4115 H 379.11 3.13693 2.73074 0
M  V30 4116 H 377.687 1.44703 3.43679 0
M  V30 4117 N 379.872 -1.04064 1.18357 0
M  V30 4118 C 381.097 -1.81454 1.00445 0
M  V30 4119 C 381.522 -1.82823 -0.442423 0
M  V30 4120 O 380.88 -1.24555 -1.31741 0
M  V30 4121 C 380.928 -3.24925 1.56384 0
M  V30 4122 O 380.032 -4.04856 0.785209 0
M  V30 4123 H 379.373 -0.560604 0.355835 0
M  V30 4124 H 381.903 -1.31059 1.57114 0
M  V30 4125 H 381.913 -3.75702 1.59097 0
M  V30 4126 H 380.588 -3.23244 2.61699 0
M  V30 4127 H 379.165 -3.63537 0.830399 0
M  V30 4128 N 381.35 -0.985608 -1.22978 0
M  V30 4129 C 382.599 -0.652881 -1.90841 0
M  V30 4130 C 382.912 0.817842 -1.77681 0
M  V30 4131 O 384.118 1.26185 -2.40395 0
M  V30 4132 C 382.574 -1.11717 -3.42122 0
M  V30 4133 C 382.182 -2.6126 -3.63933 0
M  V30 4134 C 383.926 -0.85843 -4.1573 0
M  V30 4135 C 381.833 -3.0133 -5.08876 0
M  V30 4136 H 380.763 -0.240491 -0.714619 0
M  V30 4137 H 383.414 -1.1942 -1.39324 0
M  V30 4138 H 381.796 -0.504027 -3.92779 0
M  V30 4139 H 382.97 -3.27858 -3.23799 0
M  V30 4140 H 381.285 -2.84937 -3.03644 0
M  V30 4141 H 383.882 -1.13359 -5.22546 0
M  V30 4142 H 384.225 0.205461 -4.15793 0
M  V30 4143 H 384.758 -1.43341 -3.71077 0
M  V30 4144 H 381.497 -4.06864 -5.13947 0
M  V30 4145 H 381.017 -2.3943 -5.49939 0
M  V30 4146 H 382.696 -2.92224 -5.77247 0
M  V30 4147 N 382.828 1.3818 -0.7579 0
M  V30 4148 C 384.077 1.99261 -0.312744 0
M  V30 4149 C 384.39 1.60846 1.11301 0
M  V30 4150 O 385.596 2.14929 1.65885 0
M  V30 4151 C 384.052 3.56294 -0.50821 0
M  V30 4152 C 383.66 4.03657 -1.94333 0
M  V30 4153 C 385.404 4.24313 -0.125982 0
M  V30 4154 C 383.311 5.53347 -2.08712 0
M  V30 4155 H 382.241 0.745456 -0.113185 0
M  V30 4156 H 384.892 1.57889 -0.935056 0
M  V30 4157 H 383.274 3.95575 0.183353 0
M  V30 4158 H 384.448 3.75655 -2.66871 0
M  V30 4159 H 382.763 3.48376 -2.28086 0
M  V30 4160 H 385.36 5.34279 -0.212125 0
M  V30 4161 H 385.703 4.05962 0.921964 0
M  V30 4162 H 386.236 3.90285 -0.769563 0
M  V30 4163 H 382.975 5.76607 -3.11777 0
M  V30 4164 H 382.495 5.83078 -1.4064 0
M  V30 4165 H 384.174 6.19111 -1.87912 0
M  V30 4166 N 384.306 0.507319 1.49211 0
M  V30 4167 C 385.553 -0.0349529 2.0247 0
M  V30 4168 C 385.881 -1.36409 1.38647 0
M  V30 4169 O 385.136 -1.88841 0.513566 0
M  V30 4170 C 385.435 -0.229513 3.56662 0
M  V30 4171 C 385.101 1.02241 4.39156 0
M  V30 4172 C 383.763 1.36557 4.61417 0
M  V30 4173 C 386.115 1.85428 4.871 0
M  V30 4174 C 383.443 2.53999 5.28868 0
M  V30 4175 C 385.795 3.02028 5.55843 0
M  V30 4176 C 384.459 3.36717 5.76349 0
M  V30 4177 H 383.729 -0.0127902 0.74089 0
M  V30 4178 H 386.376 0.668756 1.79443 0
M  V30 4179 H 384.681 -1.0158 3.78403 0
M  V30 4180 H 386.378 -0.663641 3.9547 0
M  V30 4181 H 382.968 0.745124 4.22073 0
M  V30 4182 H 387.152 1.6023 4.69723 0
M  V30 4183 H 382.408 2.81105 5.42946 0
M  V30 4184 H 386.582 3.66808 5.91967 0
M  V30 4185 H 384.209 4.27821 6.28389 0
M  V30 4186 N 385.784 -1.5574 0.241426 0
M  V30 4187 C 387.032 -1.98417 -0.384075 0
M  V30 4188 C 387.353 -1.13078 -1.58866 0
M  V30 4189 O 386.623 -0.212312 -1.94746 0
M  V30 4190 H 385.203 -0.732813 -0.144894 0
M  V30 4191 H 387.865 -1.9193 0.338943 0
M  V30 4192 H 386.961 -3.04219 -0.696939 0
M  V30 4193 N 387.262 0.0317525 -1.57568 0
M  V30 4194 C 388.225 1.01783 -2.0536 0
M  V30 4195 C 389.225 1.29203 -0.957253 0
M  V30 4196 O 390.415 1.24251 -1.22095 0
M  V30 4197 C 387.547 2.35137 -2.46827 0
M  V30 4198 H 388.74 0.605062 -2.93733 0
M  V30 4199 H 386.293 0.278514 -1.53799 0
M  V30 4200 H 387.028 2.81168 -1.61602 0
M  V30 4201 H 386.813 2.16566 -3.26866 0
M  V30 4202 H 388.303 3.05938 -2.84239 0
M  V30 4203 N 388.74 1.54641 0.303973 0
M  V30 4204 C 389.987 1.7378 1.03955 0
M  V30 4205 C 390.315 0.521986 1.87365 0
M  V30 4206 O 389.57 -0.496099 1.89308 0
M  V30 4207 C 389.869 2.97753 1.97681 0
M  V30 4208 C 389.535 4.31671 1.30271 0
M  V30 4209 C 388.197 4.68075 1.11619 0
M  V30 4210 C 390.549 5.147 0.82055 0
M  V30 4211 C 387.877 5.8509 0.434304 0
M  V30 4212 C 390.229 6.32416 0.152395 0
M  V30 4213 C 388.893 6.67484 -0.0461067 0
M  V30 4214 H 388.163 0.635908 0.380398 0
M  V30 4215 H 390.81 1.88896 0.314718 0
M  V30 4216 H 389.115 2.77406 2.76682 0
M  V30 4217 H 390.812 3.09756 2.54661 0
M  V30 4218 H 387.402 4.03041 1.45795 0
M  V30 4219 H 391.586 4.87077 0.952374 0
M  V30 4220 H 386.842 6.10806 0.269495 0
M  V30 4221 H 391.016 6.96023 -0.229126 0
M  V30 4222 H 388.643 7.58011 -0.576494 0
M  V30 4223 N 390.218 -0.567019 1.47046 0
M  V30 4224 C 391.629 -1.14916 1.47143 0
M  V30 4225 C 391.98 -1.94954 0.220767 0
M  V30 4226 O 391.105 -2.05602 -0.67505 0
M  V30 4227 C 391.7 -2.09069 2.666 0
M  V30 4228 C 390.259 -2.62575 2.69687 0
M  V30 4229 C 389.406 -1.38755 2.40088 0
M  V30 4230 H 392.357 -0.354126 1.54699 0
M  V30 4231 H 392.378 -2.92789 2.43011 0
M  V30 4232 H 391.89 -1.50789 3.57609 0
M  V30 4233 H 389.991 -3.24681 1.82792 0
M  V30 4234 H 390.104 -3.04239 3.70102 0
M  V30 4235 H 388.468 -1.69098 1.90468 0
M  V30 4236 H 389.251 -0.822822 3.33293 0
M  V30 4237 N 391.696 -1.35014 -0.812953 0
M  V30 4238 C 392.921 -1.31187 -1.60639 0
M  V30 4239 C 393.346 0.109382 -1.87782 0
M  V30 4240 O 392.704 1.07424 -1.46047 0
M  V30 4241 C 392.752 -2.11809 -2.91838 0
M  V30 4242 O 391.856 -1.49444 -3.8437 0
M  V30 4243 H 391.197 -0.450084 -0.488181 0
M  V30 4244 H 393.727 -1.77963 -1.00947 0
M  V30 4245 H 393.737 -2.23531 -3.41318 0
M  V30 4246 H 392.412 -3.15137 -2.71407 0
M  V30 4247 H 390.989 -1.46524 -3.42907 0
M  V30 4248 N 393.175 1.03435 -1.18907 0
M  V30 4249 C 394.105 2.13503 -0.945448 0
M  V30 4250 C 395.086 1.69682 0.119189 0
M  V30 4251 O 396.271 1.94169 -0.034707 0
M  V30 4252 C 393.401 3.44004 -0.477316 0
M  V30 4253 C 392.355 4.0148 -1.48316 0
M  V30 4254 C 391.681 5.27537 -0.872311 0
M  V30 4255 C 392.981 4.36921 -2.86177 0
M  V30 4256 H 394.675 2.34141 -1.86597 0
M  V30 4257 H 392.221 1.12523 -0.898584 0
M  V30 4258 H 394.174 4.20372 -0.294204 0
M  V30 4259 H 392.898 3.23072 0.478786 0
M  V30 4260 H 391.557 3.27201 -1.65332 0
M  V30 4261 H 391.205 5.02917 0.0911752 0
M  V30 4262 H 390.905 5.66954 -1.54393 0
M  V30 4263 H 392.429 6.06576 -0.699871 0
M  V30 4264 H 393.843 5.04248 -2.72776 0
M  V30 4265 H 392.24 4.87405 -3.50081 0
M  V30 4266 H 393.31 3.46466 -3.39248 0
M  V30 4267 N 394.653 0.992116 1.22453 0
M  V30 4268 C 395.603 0.512969 2.22155 0
M  V30 4269 C 396.587 -0.418416 1.55364 0
M  V30 4270 O 397.779 -0.245363 1.75291 0
M  V30 4271 C 394.908 -0.171822 3.4287 0
M  V30 4272 C 393.994 0.779822 4.16869 0
M  V30 4273 N 394.385 1.92734 4.6764 0
M  V30 4274 C 392.683 0.59554 4.42006 0
M  V30 4275 C 393.384 2.52458 5.24061 0
M  V30 4276 N 392.36 1.80735 5.12675 0
M  V30 4277 H 396.162 1.38817 2.5905 0
M  V30 4278 H 393.676 0.854277 1.38115 0
M  V30 4279 H 395.673 -0.532469 4.13486 0
M  V30 4280 H 394.333 -1.04317 3.07487 0
M  V30 4281 H 395.344 2.30816 4.63621 0
M  V30 4282 H 392.021 -0.229805 4.16867 0
M  V30 4283 H 393.411 3.49433 5.73887 0
M  V30 4284 N 396.131 -1.37776 0.765217 0
M  V30 4285 C 397.356 -2.04651 0.336537 0
M  V30 4286 C 397.781 -1.57337 -1.03086 0
M  V30 4287 O 397.139 -0.730621 -1.65927 0
M  V30 4288 C 397.187 -3.58577 0.381468 0
M  V30 4289 O 396.291 -4.07706 -0.62042 0
M  V30 4290 H 395.632 -0.64756 0.146838 0
M  V30 4291 H 398.162 -1.76221 1.03959 0
M  V30 4292 H 398.172 -4.07314 0.236448 0
M  V30 4293 H 396.847 -3.9237 1.37907 0
M  V30 4294 H 395.424 -3.70306 -0.439056 0
M  V30 4295 N 397.609 -0.515225 -1.4894 0
M  V30 4296 C 398.857 0.0241671 -2.02086 0
M  V30 4297 C 399.178 1.3616 -1.3959 0
M  V30 4298 O 398.448 1.87841 -0.556121 0
M  V30 4299 H 397.028 0.0119203 -0.746905 0
M  V30 4300 H 399.69 -0.675702 -1.82812 0
M  V30 4301 H 398.786 0.143385 -3.1177 0
M  V30 4302 N 399.087 1.5561 -0.249682 0
M  V30 4303 C 400.327 2.00916 0.37579 0
M  V30 4304 C 400.691 1.13409 1.54927 0
M  V30 4305 O 401.892 1.48183 2.24266 0
M  V30 4306 C 400.163 3.48949 0.772633 0
M  V30 4307 S 401.722 4.16261 1.38824 0
M  V30 4308 H 398.54 0.70112 0.118117 0
M  V30 4309 H 401.142 1.92052 -0.365567 0
M  V30 4310 H 399.846 4.103 -0.090683 0
M  V30 4311 H 399.377 3.61745 1.5461 0
M  V30 4312 H 401.392 4.17778 2.67724 0
M  V30 4313 N 400.565 -0.0233959 1.57583 0
M  V30 4314 C 401.805 -0.71784 1.9138 0
M  V30 4315 C 402.169 -1.72216 0.848853 0
M  V30 4316 O 403.37 -2.46527 1.07134 0
M  V30 4317 C 401.641 -1.36489 3.30311 0
M  V30 4318 S 403.2 -2.0877 3.85954 0
M  V30 4319 H 400.018 -0.237676 0.670098 0
M  V30 4320 H 402.62 0.0276709 1.9548 0
M  V30 4321 H 401.324 -0.620782 4.05678 0
M  V30 4322 H 400.855 -2.14883 3.29528 0
M  V30 4323 H 402.87 -3.35988 3.65139 0
M  V30 4324 N 402.043 -1.548 -0.295768 0
M  V30 4325 C 403.292 -1.73538 -1.02798 0
M  V30 4326 C 403.605 -0.531159 -1.8825 0
M  V30 4327 O 404.811 -0.600458 -2.64777 0
M  V30 4328 C 403.267 -3.07051 -1.87744 0
M  V30 4329 C 402.875 -4.34968 -1.07269 0
M  V30 4330 C 404.619 -3.35146 -2.60533 0
M  V30 4331 C 402.526 -5.5953 -1.91521 0
M  V30 4332 H 401.456 -0.646794 -0.387522 0
M  V30 4333 H 404.107 -1.81278 -0.284718 0
M  V30 4334 H 402.489 -2.93289 -2.66078 0
M  V30 4335 H 403.663 -4.5958 -0.335117 0
M  V30 4336 H 401.978 -4.13847 -0.460384 0
M  V30 4337 H 404.575 -4.2541 -3.23929 0
M  V30 4338 H 404.918 -2.54255 -3.29636 0
M  V30 4339 H 405.451 -3.49902 -1.89244 0
M  V30 4340 H 402.19 -6.43103 -1.26878 0
M  V30 4341 H 401.71 -5.39096 -2.62937 0
M  V30 4342 H 403.389 -5.96982 -2.49442 0
M  V30 4343 N 403.521 0.559213 -1.47345 0
M  V30 4344 C 404.454 1.68201 -1.5422 0
M  V30 4345 C 405.432 1.57742 -0.394497 0
M  V30 4346 O 406.616 1.78628 -0.60201 0
M  V30 4347 C 403.743 3.0643 -1.44285 0
M  V30 4348 C 402.789 3.3534 -2.63532 0
M  V30 4349 S 403.622 3.24816 -4.25741 0
M  V30 4350 C 404.778 4.65542 -4.18355 0
M  V30 4351 H 405.011 1.62114 -2.49211 0
M  V30 4352 H 402.544 0.739871 -1.35519 0
M  V30 4353 H 404.502 3.86164 -1.3924 0
M  V30 4354 H 403.163 3.09984 -0.506816 0
M  V30 4355 H 402.356 4.36107 -2.52639 0
M  V30 4356 H 401.958 2.63221 -2.65689 0
M  V30 4357 H 404.25 5.56449 -3.86485 0
M  V30 4358 H 405.193 4.81493 -5.19202 0
M  V30 4359 H 405.601 4.43495 -3.49246 0
M  V30 4360 N 404.999 1.35443 0.805782 0
M  V30 4361 C 405.909 1.30546 1.94923 0
M  V30 4362 C 406.925 0.210233 1.72725 0
M  V30 4363 O 408.101 0.43975 1.9654 0
M  V30 4364 C 405.166 1.07782 3.29521 0
M  V30 4365 C 404.227 2.26625 3.64609 0
M  V30 4366 C 403.46 2.04938 4.92784 0
M  V30 4367 O 403.683 1.01624 5.61274 0
M  V30 4368 O 402.617 2.9232 5.26149 0
M  V30 4369 H 406.443 2.26779 2.02002 0
M  V30 4370 H 404.028 1.15823 0.943682 0
M  V30 4371 H 405.91 0.969392 4.10098 0
M  V30 4372 H 404.585 0.146003 3.23371 0
M  V30 4373 H 403.492 2.43033 2.84404 0
M  V30 4374 H 404.825 3.18257 3.75464 0
M  V30 4375 N 406.477 -1.02803 1.19454 0
M  V30 4376 C 407.723 -1.76478 0.999171 0
M  V30 4377 C 408.056 -1.88456 -0.468828 0
M  V30 4378 O 407.331 -1.40198 -1.34814 0
M  V30 4379 C 407.614 -3.19044 1.66981 0
M  V30 4380 C 407.467 -3.14932 3.21151 0
M  V30 4381 C 408.786 -4.17456 1.39349 0
M  V30 4382 H 405.905 -0.640614 0.364393 0
M  V30 4383 H 408.547 -1.20005 1.47305 0
M  V30 4384 H 406.697 -3.67263 1.2669 0
M  V30 4385 H 408.369 -2.74605 3.70661 0
M  V30 4386 H 406.612 -2.52625 3.52652 0
M  V30 4387 H 407.283 -4.1566 3.63223 0
M  V30 4388 H 409.759 -3.77842 1.74283 0
M  V30 4389 H 408.635 -5.154 1.88823 0
M  V30 4390 H 408.896 -4.40949 0.318813 0
M  V30 4391 N 407.956 -0.998596 -1.21925 0
M  V30 4392 C 408.886 -0.573688 -2.26343 0
M  V30 4393 C 409.867 0.402296 -1.65274 0
M  V30 4394 O 411.052 0.291683 -1.91997 0
M  V30 4395 C 408.182 0.106839 -3.47136 0
M  V30 4396 C 407.136 -0.788269 -4.20678 0
M  V30 4397 C 406.462 0.0254927 -5.34694 0
M  V30 4398 C 407.762 -2.08784 -4.78755 0
M  V30 4399 H 409.456 -1.44651 -2.62138 0
M  V30 4400 H 407.002 -0.696975 -1.26009 0
M  V30 4401 H 408.955 0.415531 -4.19346 0
M  V30 4402 H 407.679 1.01424 -3.10452 0
M  V30 4403 H 406.338 -1.08069 -3.50309 0
M  V30 4404 H 405.986 0.933989 -4.94253 0
M  V30 4405 H 405.686 -0.570437 -5.84825 0
M  V30 4406 H 407.21 0.328147 -6.09718 0
M  V30 4407 H 408.624 -1.84272 -5.42878 0
M  V30 4408 H 407.021 -2.63307 -5.39249 0
M  V30 4409 H 408.091 -2.76284 -3.98491 0
M  V30 4410 N 409.434 1.37368 -0.772513 0
M  V30 4411 C 410.681 1.99673 -0.337182 0
M  V30 4412 C 411.009 1.61324 1.0865 0
M  V30 4413 O 410.264 0.851377 1.7621 0
M  V30 4414 C 410.563 3.54817 -0.428876 0
M  V30 4415 C 410.229 4.12936 -1.81092 0
M  V30 4416 C 408.891 4.28523 -2.1891 0
M  V30 4417 C 411.243 4.44801 -2.71664 0
M  V30 4418 C 408.571 4.73277 -3.46735 0
M  V30 4419 C 410.923 4.90981 -3.98899 0
M  V30 4420 C 409.587 5.04773 -4.36761 0
M  V30 4421 H 408.857 0.730656 -0.123384 0
M  V30 4422 H 411.504 1.64124 -0.986686 0
M  V30 4423 H 409.809 3.90618 0.304167 0
M  V30 4424 H 411.506 4.00933 -0.0733334 0
M  V30 4425 H 408.096 4.01233 -1.50699 0
M  V30 4426 H 412.28 4.32344 -2.43706 0
M  V30 4427 H 407.536 4.82142 -3.75964 0
M  V30 4428 H 411.71 5.14603 -4.69208 0
M  V30 4429 H 409.337 5.39211 -5.35868 0
M  V30 4430 N 410.912 0.523116 1.48665 0
M  V30 4431 C 411.842 -0.23231 2.32342 0
M  V30 4432 C 412.823 -0.941637 1.41659 0
M  V30 4433 O 414.008 -0.928751 1.70552 0
M  V30 4434 C 411.138 -1.28387 3.22698 0
M  V30 4435 C 410.092 -0.693098 4.22351 0
M  V30 4436 C 409.418 -1.8468 5.01794 0
M  V30 4437 C 410.718 0.33063 5.21252 0
M  V30 4438 H 412.412 0.466192 2.95748 0
M  V30 4439 H 409.958 0.225643 1.42221 0
M  V30 4440 H 411.911 -1.82024 3.80059 0
M  V30 4441 H 410.635 -2.01186 2.57278 0
M  V30 4442 H 409.294 -0.178299 3.66166 0
M  V30 4443 H 408.942 -2.56301 4.32804 0
M  V30 4444 H 408.642 -1.45747 5.69238 0
M  V30 4445 H 410.166 -2.38709 5.62006 0
M  V30 4446 H 411.58 -0.118407 5.73178 0
M  V30 4447 H 409.977 0.636974 5.9671 0
M  V30 4448 H 411.047 1.23883 4.68808 0
M  V30 4449 N 412.39 -1.55475 0.257931 0
M  V30 4450 C 413.63 -2.01112 -0.365129 0
M  V30 4451 C 413.994 -1.1423 -1.54323 0
M  V30 4452 O 415.195 -1.49371 -2.23477 0
M  V30 4453 C 413.466 -3.49353 -0.754117 0
M  V30 4454 S 415.025 -4.16992 -1.36614 0
M  V30 4455 H 411.843 -0.701737 -0.114397 0
M  V30 4456 H 414.445 -1.91855 0.375747 0
M  V30 4457 H 413.149 -4.10246 0.112441 0
M  V30 4458 H 412.68 -3.6256 -1.52689 0
M  V30 4459 H 414.695 -4.19191 -2.65505 0
M  V30 4460 N 413.868 0.0150385 -1.57593 0
M  V30 4461 C 415.114 0.69849 -1.91031 0
M  V30 4462 C 415.469 1.72208 -0.85804 0
M  V30 4463 O 414.762 1.91147 0.131614 0
M  V30 4464 C 414.956 1.39686 -3.28972 0
M  V30 4465 C 414.785 0.442428 -4.47518 0
M  V30 4466 C 413.555 0.0583223 -5.05266 0
M  V30 4467 C 415.753 -0.285072 -5.13509 0
M  V30 4468 N 413.735 -0.895893 -6.07328 0
M  V30 4469 C 415.106 -1.09447 -6.10263 0
M  V30 4470 C 417.161 -0.350518 -4.96665 0
M  V30 4471 C 415.864 -1.96333 -6.91987 0
M  V30 4472 C 417.89 -1.20655 -5.78962 0
M  V30 4473 C 417.252 -2.00383 -6.75297 0
M  V30 4474 H 413.351 0.22926 -0.747639 0
M  V30 4475 H 415.935 -0.0417748 -1.94655 0
M  V30 4476 H 414.106 2.1075 -3.2625 0
M  V30 4477 H 415.838 2.03381 -3.49883 0
M  V30 4478 H 412.593 0.423506 -4.71703 0
M  V30 4479 H 413.017 -1.36792 -6.63036 0
M  V30 4480 H 417.659 0.251596 -4.22051 0
M  V30 4481 H 415.377 -2.57618 -7.65936 0
M  V30 4482 H 418.963 -1.2609 -5.67972 0
M  V30 4483 H 417.843 -2.65552 -7.3787 0
M  V30 4484 N 415.346 1.54954 0.287554 0
M  V30 4485 C 416.276 1.89839 1.35954 0
M  V30 4486 C 417.257 0.758675 1.52244 0
M  V30 4487 O 418.442 1.01557 1.65529 0
M  V30 4488 C 415.572 2.15753 2.72154 0
M  V30 4489 C 414.526 3.3159 2.70614 0
M  V30 4490 C 413.852 3.42952 4.10229 0
M  V30 4491 C 415.152 4.68359 2.31165 0
M  V30 4492 H 416.846 2.79625 1.07007 0
M  V30 4493 H 414.392 1.3454 0.513316 0
M  V30 4494 H 416.345 2.38743 3.47246 0
M  V30 4495 H 415.069 1.22752 3.02654 0
M  V30 4496 H 413.728 3.08545 1.97979 0
M  V30 4497 H 413.376 2.47443 4.37928 0
M  V30 4498 H 413.076 4.20826 4.10097 0
M  V30 4499 H 414.6 3.68218 4.87081 0
M  V30 4500 H 416.014 4.9099 2.95976 0
M  V30 4501 H 414.411 5.49044 2.42221 0
M  V30 4502 H 415.481 4.68165 1.26291 0
M  V30 4503 N 416.824 -0.551391 1.4764 0
M  V30 4504 C 418.071 -1.3083 1.54563 0
M  V30 4505 C 418.399 -1.93359 0.210361 0
M  V30 4506 O 417.654 -1.78721 -0.797332 0
M  V30 4507 C 417.953 -2.43469 2.61644 0
M  V30 4508 C 417.619 -1.98732 4.04742 0
M  V30 4509 C 416.281 -1.86248 4.43695 0
M  V30 4510 C 418.633 -1.64659 4.94507 0
M  V30 4511 C 415.961 -1.37995 5.70241 0
M  V30 4512 C 418.313 -1.17875 6.21521 0
M  V30 4513 C 416.977 -1.03992 6.5935 0
M  V30 4514 H 416.247 -0.478741 0.565587 0
M  V30 4515 H 418.894 -0.617697 1.81264 0
M  V30 4516 H 417.199 -3.18109 2.28722 0
M  V30 4517 H 418.896 -3.01642 2.64222 0
M  V30 4518 H 415.486 -2.09393 3.73968 0
M  V30 4519 H 419.67 -1.73174 4.65107 0
M  V30 4520 H 414.926 -1.25915 5.98294 0
M  V30 4521 H 419.1 -0.905739 6.90485 0
M  V30 4522 H 416.727 -0.663794 7.57296 0
M  V30 4523 N 418.302 -1.35869 -0.798587 0
M  V30 4524 C 419.713 -1.26498 -1.37314 0
M  V30 4525 C 420.064 0.0991899 -1.95949 0
M  V30 4526 O 419.189 1.0004 -1.91888 0
M  V30 4527 C 419.784 -2.29054 -2.49639 0
M  V30 4528 C 418.343 -2.234 -3.02935 0
M  V30 4529 C 417.49 -2.14329 -1.75949 0
M  V30 4530 H 420.441 -1.46881 -0.600971 0
M  V30 4531 H 420.462 -1.92166 -3.28409 0
M  V30 4532 H 419.974 -3.2833 -2.06933 0
M  V30 4533 H 418.075 -1.27562 -3.50084 0
M  V30 4534 H 418.188 -3.15703 -3.60372 0
M  V30 4535 H 416.552 -1.60435 -1.9782 0
M  V30 4536 H 417.335 -3.15477 -1.35384 0
M  V30 4537 N 419.78 1.02168 -1.19998 0
M  V30 4538 C 421.196 1.27969 -0.953737 0
M  V30 4539 C 421.396 1.98079 0.369703 0
M  V30 4540 O 420.452 2.27306 1.09947 0
M  V30 4541 C 421.765 2.11971 -2.13281 0
M  V30 4542 C 423.313 2.25255 -2.17323 0
M  V30 4543 C 423.788 3.12632 -3.34702 0
M  V30 4544 N 425.279 3.2022 -3.34684 0
M  V30 4545 C 426.014 3.88039 -4.22153 0
M  V30 4546 N 425.51 4.58027 -5.19791 0
M  V30 4547 N 427.303 3.84511 -4.10009 0
M  V30 4548 H 419.454 0.550794 -2.05134 0
M  V30 4549 H 421.717 0.305683 -0.897364 0
M  V30 4550 H 421.423 1.67785 -3.09097 0
M  V30 4551 H 421.297 3.12699 -2.10949 0
M  V30 4552 H 423.684 2.68667 -1.22073 0
M  V30 4553 H 423.765 1.24053 -2.23706 0
M  V30 4554 H 423.409 2.69926 -4.30235 0
M  V30 4555 H 423.339 4.13909 -3.25556 0
M  V30 4556 H 425.83 2.70382 -2.64012 0
M  V30 4557 H 426.143 5.07429 -5.82868 0
M  V30 4558 H 424.488 4.56869 -5.23733 0
M  V30 4559 H 427.679 3.28978 -3.33003 0
M  V30 4560 H 427.852 4.3709 -4.78389 0
M  V30 4561 N 421.258 1.00505 1.21394 0
M  V30 4562 C 422.505 0.687774 1.90462 0
M  V30 4563 C 422.833 -0.78147 1.7811 0
M  V30 4564 O 422.088 -1.58208 1.1519 0
M  V30 4565 C 422.387 1.0546 3.41486 0
M  V30 4566 C 422.053 2.51812 3.74034 0
M  V30 4567 C 420.715 2.91804 3.82628 0
M  V30 4568 C 423.067 3.46614 3.8924 0
M  V30 4569 C 420.395 4.2556 4.03876 0
M  V30 4570 C 422.747 4.80044 4.11995 0
M  V30 4571 C 421.411 5.19759 4.18816 0
M  V30 4572 H 420.681 0.251674 0.696951 0
M  V30 4573 H 423.328 1.26349 1.43903 0
M  V30 4574 H 421.633 0.397133 3.89782 0
M  V30 4575 H 423.33 0.786976 3.93202 0
M  V30 4576 H 419.92 2.1982 3.67936 0
M  V30 4577 H 424.104 3.16883 3.81967 0
M  V30 4578 H 419.36 4.55901 4.07387 0
M  V30 4579 H 423.534 5.53439 4.22704 0
M  V30 4580 H 421.161 6.23418 4.35033 0
M  V30 4581 N 422.737 -1.36956 0.779787 0
M  V30 4582 C 423.684 -2.30175 0.169697 0
M  V30 4583 C 424.654 -1.51501 -0.68094 0
M  V30 4584 O 425.839 -1.80042 -0.631629 0
M  V30 4585 C 422.979 -3.37985 -0.697131 0
M  V30 4586 C 422.092 -4.31661 0.170992 0
M  V30 4587 C 421.227 -5.2655 -0.701298 0
M  V30 4588 C 420.266 -6.11867 0.168869 0
M  V30 4589 N 419.403 -6.98973 -0.661855 0
M  V30 4590 H 424.243 -2.81767 0.970135 0
M  V30 4591 H 421.78 -1.38699 0.489994 0
M  V30 4592 H 423.738 -3.99128 -1.2146 0
M  V30 4593 H 422.368 -2.87739 -1.46309 0
M  V30 4594 H 421.42 -3.71756 0.80634 0
M  V30 4595 H 422.732 -4.91644 0.841875 0
M  V30 4596 H 421.886 -5.92937 -1.28494 0
M  V30 4597 H 420.625 -4.66998 -1.40584 0
M  V30 4598 H 419.63 -5.44452 0.764986 0
M  V30 4599 H 420.855 -6.73493 0.870863 0
M  V30 4600 H 418.801 -6.41941 -1.35086 0
M  V30 4601 H 418.718 -7.55984 -0.0484447 0
M  V30 4602 H 419.986 -7.6974 -1.22963 0
M  V30 4603 N 424.215 -0.530993 -1.48385 0
M  V30 4604 C 425.462 0.0027373 -2.025 0
M  V30 4605 C 425.79 1.34186 -1.40799 0
M  V30 4606 O 425.045 1.88 -0.543544 0
M  V30 4607 C 425.344 0.172742 -3.56982 0
M  V30 4608 C 425.01 -1.09215 -4.37473 0
M  V30 4609 C 423.672 -1.43881 -4.59186 0
M  V30 4610 C 426.024 -1.93153 -4.84088 0
M  V30 4611 C 423.352 -2.62381 -5.2476 0
M  V30 4612 C 425.704 -3.10833 -5.50968 0
M  V30 4613 C 424.368 -3.45843 -5.70919 0
M  V30 4614 H 423.638 0.00100165 -0.740999 0
M  V30 4615 H 426.285 -0.697219 -1.78357 0
M  V30 4616 H 424.59 0.955473 -3.79971 0
M  V30 4617 H 426.287 0.600642 -3.96476 0
M  V30 4618 H 422.877 -0.812177 -4.20834 0
M  V30 4619 H 427.061 -1.67683 -4.67115 0
M  V30 4620 H 422.317 -2.89707 -5.38405 0
M  V30 4621 H 426.491 -3.7618 -5.86056 0
M  V30 4622 H 424.118 -4.37764 -6.21503 0
M  V30 4623 N 425.693 1.55336 -0.266172 0
M  V30 4624 C 426.939 1.99692 0.353681 0
M  V30 4625 C 427.272 1.1543 1.56172 0
M  V30 4626 O 426.547 0.222218 1.93226 0
M  V30 4627 C 426.83 3.52316 0.74466 0
M  V30 4628 C 426.683 4.47337 -0.470101 0
M  V30 4629 C 428.002 4.10588 1.58447 0
M  V30 4630 H 425.121 0.725961 0.12708 0
M  V30 4631 H 427.763 1.86336 -0.371333 0
M  V30 4632 H 425.913 3.63829 1.36239 0
M  V30 4633 H 427.585 4.4778 -1.10864 0
M  V30 4634 H 425.828 4.19364 -1.10978 0
M  V30 4635 H 426.499 5.51788 -0.15291 0
M  V30 4636 H 428.975 4.02297 1.06286 0
M  V30 4637 H 427.851 5.17607 1.82686 0
M  V30 4638 H 428.112 3.60253 2.56262 0
M  V30 4639 N 427.171 -0.0066808 1.57599 0
M  V30 4640 C 428.417 -0.68835 1.91398 0
M  V30 4641 C 428.772 -1.7175 0.86716 0
M  V30 4642 O 428.065 -1.91215 -0.121475 0
M  V30 4643 C 428.259 -1.37939 3.29708 0
M  V30 4644 C 428.088 -0.418689 4.47747 0
M  V30 4645 C 426.858 -0.031526 5.0529 0
M  V30 4646 C 429.056 0.312301 5.13351 0
M  V30 4647 N 427.038 0.928088 6.06844 0
M  V30 4648 C 428.409 1.12682 6.09674 0
M  V30 4649 C 430.464 0.376853 4.96472 0
M  V30 4650 C 429.167 2 6.90936 0
M  V30 4651 C 431.193 1.23723 5.78314 0
M  V30 4652 C 430.555 2.03962 6.74225 0
M  V30 4653 H 426.654 -0.225292 0.748844 0
M  V30 4654 H 429.238 0.0520973 1.9463 0
M  V30 4655 H 427.409 -2.09017 3.27363 0
M  V30 4656 H 429.141 -2.01522 3.50957 0
M  V30 4657 H 425.896 -0.398485 4.71921 0
M  V30 4658 H 426.32 1.40307 6.62301 0
M  V30 4659 H 430.962 -0.22921 4.22178 0
M  V30 4660 H 428.68 2.61676 7.64559 0
M  V30 4661 H 432.266 1.291 5.67296 0
M  V30 4662 H 431.146 2.69461 7.36451 0
M  V30 4663 N 428.649 -1.55105 -0.279332 0
M  V30 4664 C 429.895 -1.75672 -1.01327 0
M  V30 4665 C 430.228 -0.552739 -1.86168 0
M  V30 4666 O 429.503 0.449827 -1.89227 0
M  V30 4667 C 429.786 -3.05825 -1.90114 0
M  V30 4668 C 429.639 -4.36565 -1.08309 0
M  V30 4669 C 430.958 -3.31975 -2.8893 0
M  V30 4670 H 428.077 -0.639149 -0.366957 0
M  V30 4671 H 430.719 -1.87833 -0.286154 0
M  V30 4672 H 428.869 -2.95588 -2.52111 0
M  V30 4673 H 430.541 -4.58751 -0.484314 0
M  V30 4674 H 428.784 -4.32076 -0.386362 0
M  V30 4675 H 429.455 -5.23946 -1.73737 0
M  V30 4676 H 431.931 -3.41963 -2.37067 0
M  V30 4677 H 430.807 -4.2432 -3.48201 0
M  V30 4678 H 431.068 -2.51309 -3.63725 0
M  V30 4679 N 430.127 0.543554 -1.4793 0
M  V30 4680 C 431.355 1.32516 -1.58894 0
M  V30 4681 C 431.77 1.87215 -0.244131 0
M  V30 4682 O 431.127 1.65709 0.764652 0
M  V30 4683 C 431.178 2.48554 -2.62494 0
M  V30 4684 O 430.899 1.96112 -3.91755 0
M  V30 4685 C 432.4 3.40572 -2.8377 0
M  V30 4686 H 429.62 0.403472 -0.536145 0
M  V30 4687 H 432.164 0.657106 -1.93655 0
M  V30 4688 H 430.319 3.1127 -2.30629 0
M  V30 4689 H 430.733 2.71967 -4.4848 0
M  V30 4690 H 432.207 4.18375 -3.60093 0
M  V30 4691 H 432.684 3.94965 -1.92092 0
M  V30 4692 H 433.29 2.8366 -3.16887 0
M  V30 4693 N 431.605 1.3629 0.791371 0
M  V30 4694 C 432.835 1.33368 1.57786 0
M  V30 4695 C 433.243 -0.0875188 1.88997 0
M  V30 4696 O 432.586 -1.05427 1.50435 0
M  V30 4697 C 432.648 2.08802 2.92646 0
M  V30 4698 C 432.312 3.57903 2.84174 0
M  V30 4699 C 433.309 4.52191 2.56553 0
M  V30 4700 C 430.994 4.00762 3.02812 0
M  V30 4701 C 432.988 5.87315 2.47669 0
M  V30 4702 C 430.675 5.35977 2.93551 0
M  V30 4703 C 431.673 6.29066 2.66017 0
M  V30 4704 O 431.361 7.61798 2.56746 0
M  V30 4705 H 431.093 0.459166 0.496128 0
M  V30 4706 H 433.647 1.79952 0.990269 0
M  V30 4707 H 431.877 1.56878 3.53449 0
M  V30 4708 H 433.566 1.98762 3.53904 0
M  V30 4709 H 434.332 4.20393 2.41858 0
M  V30 4710 H 430.211 3.2868 3.2325 0
M  V30 4711 H 433.755 6.59943 2.26099 0
M  V30 4712 H 429.652 5.67384 3.07808 0
M  V30 4713 H 430.42 7.71898 2.72242 0
M  V30 4714 N 433.083 -1.0153 1.20538 0
M  V30 4715 C 434.046 -2.0826 0.957098 0
M  V30 4716 C 435.046 -1.60657 -0.0678655 0
M  V30 4717 O 436.236 -1.73385 0.168332 0
M  V30 4718 C 433.368 -3.38033 0.441188 0
M  V30 4719 H 434.561 -2.31719 1.90384 0
M  V30 4720 H 432.114 -1.1835 1.02093 0
M  V30 4721 H 432.849 -3.20249 -0.510961 0
M  V30 4722 H 432.634 -3.73911 1.18038 0
M  V30 4723 H 434.124 -4.16613 0.287009 0
M  V30 4724 N 434.561 -1.01147 -1.20859 0
M  V30 4725 C 435.786 -0.716698 -1.94623 0
M  V30 4726 C 436.211 0.715415 -1.73964 0
M  V30 4727 O 435.569 1.49157 -1.03062 0
M  V30 4728 C 435.617 -1.0513 -3.44935 0
M  V30 4729 O 434.721 -0.160131 -4.12089 0
M  V30 4730 H 434.062 -0.266404 -0.608214 0
M  V30 4731 H 436.592 -1.35346 -1.53436 0
M  V30 4732 H 436.602 -1.00086 -3.95533 0
M  V30 4733 H 435.277 -2.09475 -3.59295 0
M  V30 4734 H 433.854 -0.267657 -3.71938 0
M  V30 4735 N 436.039 1.36541 -0.78704 0
M  V30 4736 C 437.285 2.00044 -0.367938 0
M  V30 4737 C 437.64 1.61345 1.04812 0
M  V30 4738 O 436.933 0.856936 1.71368 0
M  V30 4739 C 437.127 3.54343 -0.466485 0
M  V30 4740 C 436.956 4.08029 -1.89058 0
M  V30 4741 C 435.726 4.38284 -2.51466 0
M  V30 4742 C 437.924 4.27954 -2.85236 0
M  V30 4743 N 435.906 4.77778 -3.85488 0
M  V30 4744 C 437.277 4.70227 -4.04088 0
M  V30 4745 C 439.332 4.10119 -2.82324 0
M  V30 4746 C 438.035 4.96532 -5.20432 0
M  V30 4747 C 440.061 4.37569 -3.97854 0
M  V30 4748 C 439.423 4.80095 -5.15449 0
M  V30 4749 H 435.522 0.760525 -0.182004 0
M  V30 4750 H 438.106 1.65589 -1.02413 0
M  V30 4751 H 436.277 3.88072 0.159606 0
M  V30 4752 H 438.009 4.04693 -0.0238577 0
M  V30 4753 H 434.764 4.27905 -2.02965 0
M  V30 4754 H 435.188 5.01813 -4.54437 0
M  V30 4755 H 439.83 3.76399 -1.92571 0
M  V30 4756 H 437.548 5.29134 -6.10773 0
M  V30 4757 H 441.134 4.25341 -3.96958 0
M  V30 4758 H 440.014 5.00925 -6.0336 0
M  V30 4759 N 437.518 0.538854 1.48102 0
M  V30 4760 C 438.448 -0.207654 2.32575 0
M  V30 4761 C 439.429 -0.926559 1.4265 0
M  V30 4762 O 440.614 -0.91061 1.71527 0
M  V30 4763 C 437.744 -1.24957 3.24042 0
M  V30 4764 C 436.698 -0.648263 4.23062 0
M  V30 4765 C 436.024 -1.79348 5.03725 0
M  V30 4766 C 437.324 0.385897 5.20872 0
M  V30 4767 H 439.018 0.497534 2.95237 0
M  V30 4768 H 436.564 0.240715 1.41974 0
M  V30 4769 H 438.517 -1.77983 3.81969 0
M  V30 4770 H 437.241 -1.98446 2.59397 0
M  V30 4771 H 435.9 -0.139452 3.66335 0
M  V30 4772 H 435.548 -2.51696 4.35498 0
M  V30 4773 H 435.248 -1.39702 5.70751 0
M  V30 4774 H 436.772 -2.32735 5.64506 0
M  V30 4775 H 438.186 -0.057607 5.73271 0
M  V30 4776 H 436.583 0.700227 5.96001 0
M  V30 4777 H 437.653 1.28848 4.67468 0
M  V30 4778 N 438.996 -1.55193 0.274407 0
M  V30 4779 C 440.242 -2.00604 -0.33608 0
M  V30 4780 C 440.597 -1.15948 -1.53538 0
M  V30 4781 O 439.89 -0.221385 -1.90317 0
M  V30 4782 C 440.084 -3.49019 -0.769458 0
M  V30 4783 C 439.913 -4.48038 0.386301 0
M  V30 4784 C 438.683 -4.97757 0.869854 0
M  V30 4785 C 440.881 -4.99558 1.22254 0
M  V30 4786 N 438.863 -5.80575 1.99515 0
M  V30 4787 C 440.234 -5.79816 2.19575 0
M  V30 4788 C 442.289 -4.81799 1.25597 0
M  V30 4789 C 440.992 -6.44208 3.19981 0
M  V30 4790 C 443.018 -5.46989 2.24848 0
M  V30 4791 C 442.38 -6.27058 3.20901 0
M  V30 4792 H 438.479 -0.777013 -0.088172 0
M  V30 4793 H 441.063 -1.90583 0.398266 0
M  V30 4794 H 439.234 -3.59383 -1.47303 0
M  V30 4795 H 440.966 -3.81263 -1.35722 0
M  V30 4796 H 437.721 -4.71464 0.449281 0
M  V30 4797 H 438.145 -6.26675 2.5614 0
M  V30 4798 H 442.787 -4.19501 0.527158 0
M  V30 4799 H 440.505 -7.05656 3.93796 0
M  V30 4800 H 444.091 -5.35189 2.28174 0
M  V30 4801 H 442.971 -6.7661 3.96445 0
M  V30 4802 N 440.474 -0.00167713 -1.576 0
M  V30 4803 C 441.72 0.67819 -1.91761 0
M  V30 4804 C 442.075 1.71288 -0.876256 0
M  V30 4805 O 441.368 1.91276 0.111333 0
M  V30 4806 C 441.562 1.36189 -3.30435 0
M  V30 4807 C 441.391 0.394938 -4.47962 0
M  V30 4808 C 440.161 0.00472875 -5.053 0
M  V30 4809 C 442.359 -0.339521 -5.13178 0
M  V30 4810 N 440.341 -0.960257 -6.06343 0
M  V30 4811 C 441.712 -1.15914 -6.09068 0
M  V30 4812 C 443.767 -0.403177 -4.96265 0
M  V30 4813 C 442.47 -2.03661 -6.89866 0
M  V30 4814 C 444.496 -1.26788 -5.77649 0
M  V30 4815 C 443.858 -2.07535 -6.73134 0
M  V30 4816 H 439.957 0.221317 -0.750028 0
M  V30 4817 H 442.541 -0.0624182 -1.946 0
M  V30 4818 H 440.712 2.07278 -3.28467 0
M  V30 4819 H 442.444 1.99658 -3.52021 0
M  V30 4820 H 439.199 0.373452 -4.72125 0
M  V30 4821 H 439.623 -1.43817 -6.61548 0
M  V30 4822 H 444.265 0.206818 -4.22294 0
M  V30 4823 H 441.983 -2.65727 -7.63161 0
M  V30 4824 H 445.569 -1.32107 -5.66603 0
M  V30 4825 H 444.449 -2.73363 -7.35012 0
M  V30 4826 N 441.952 1.55251 0.271103 0
M  V30 4827 C 443.177 1.80306 1.02491 0
M  V30 4828 C 443.602 0.575457 1.79081 0
M  V30 4829 O 442.96 -0.474987 1.74967 0
M  V30 4830 C 443.008 3.02832 1.95768 0
M  V30 4831 O 442.112 2.78051 3.04568 0
M  V30 4832 H 441.453 0.595896 0.292923 0
M  V30 4833 H 443.983 2.02397 0.299436 0
M  V30 4834 H 443.993 3.31616 2.37686 0
M  V30 4835 H 442.668 3.9183 1.39434 0
M  V30 4836 H 441.245 2.60369 2.66951 0
M  V30 4837 N 443.43 -0.535701 1.48216 0
M  V30 4838 C 444.658 -1.31671 1.59594 0
M  V30 4839 C 445.073 -1.87083 0.254056 0
M  V30 4840 O 444.43 -1.66112 -0.755854 0
M  V30 4841 C 444.481 -2.47158 2.63809 0
M  V30 4842 O 444.202 -1.94032 3.92789 0
M  V30 4843 C 445.703 -3.39062 2.85573 0
M  V30 4844 H 442.923 -0.400623 0.538277 0
M  V30 4845 H 445.467 -0.646827 1.94001 0
M  V30 4846 H 443.622 -3.10043 2.32276 0
M  V30 4847 H 444.036 -2.69585 4.49916 0
M  V30 4848 H 445.51 -4.16459 3.62306 0
M  V30 4849 H 445.987 -3.93941 1.94184 0
M  V30 4850 H 446.593 -2.81975 3.18387 0
M  V30 4851 N 444.908 -1.36708 -0.784132 0
M  V30 4852 C 445.841 -1.25827 -1.90375 0
M  V30 4853 C 446.819 -0.141331 -1.61985 0
M  V30 4854 O 448.003 -0.313389 -1.85877 0
M  V30 4855 C 445.13 -0.942621 -3.25319 0
M  V30 4856 C 444.176 -2.07474 -3.72635 0
M  V30 4857 S 445.009 -3.69317 -3.8777 0
M  V30 4858 C 446.165 -3.39876 -5.25581 0
M  V30 4859 H 446.398 -2.20593 -1.99314 0
M  V30 4860 H 443.931 -1.22186 -0.943926 0
M  V30 4861 H 445.889 -0.767321 -4.03265 0
M  V30 4862 H 444.55 -0.0126566 -3.14097 0
M  V30 4863 H 443.743 -1.80858 -4.70432 0
M  V30 4864 H 443.345 -2.20953 -3.01754 0
M  V30 4865 H 445.637 -2.94097 -6.10339 0
M  V30 4866 H 446.58 -4.36956 -5.57203 0
M  V30 4867 H 446.988 -2.75098 -4.92931 0
M  V30 4868 N 446.386 1.0089 -1.21074 0
M  V30 4869 C 447.616 1.77933 -1.04993 0
M  V30 4870 C 448.024 1.84847 0.403495 0
M  V30 4871 O 447.367 1.30606 1.29181 0
M  V30 4872 C 447.429 3.23541 -1.56722 0
M  V30 4873 C 447.093 3.40214 -3.05129 0
M  V30 4874 C 448.09 3.2881 -4.02716 0
M  V30 4875 C 445.775 3.65781 -3.44252 0
M  V30 4876 C 447.769 3.42732 -5.37414 0
M  V30 4877 C 445.456 3.79346 -4.79103 0
M  V30 4878 C 446.454 3.67827 -5.75493 0
M  V30 4879 O 446.142 3.80965 -7.07899 0
M  V30 4880 H 445.874 0.566157 -0.369381 0
M  V30 4881 H 448.428 1.27826 -1.60779 0
M  V30 4882 H 446.658 3.74766 -0.953285 0
M  V30 4883 H 448.347 3.82245 -1.36543 0
M  V30 4884 H 449.113 3.08986 -3.73835 0
M  V30 4885 H 444.992 3.73831 -2.69762 0
M  V30 4886 H 448.536 3.33658 -6.12632 0
M  V30 4887 H 444.433 3.98672 -5.07672 0
M  V30 4888 H 445.201 3.97937 -7.15254 0
M  V30 4889 N 447.864 1.01787 1.20321 0
M  V30 4890 C 448.794 0.609625 2.25401 0
M  V30 4891 C 449.775 -0.375951 1.65893 0
M  V30 4892 O 450.96 -0.261101 1.92437 0
M  V30 4893 C 448.09 -0.0515995 3.47262 0
M  V30 4894 C 447.044 0.855095 4.19371 0
M  V30 4895 C 446.37 0.0595757 5.34667 0
M  V30 4896 C 447.67 2.16374 4.75373 0
M  V30 4897 H 449.364 1.48803 2.59804 0
M  V30 4898 H 446.91 0.716934 1.24884 0
M  V30 4899 H 448.863 -0.348764 4.19954 0
M  V30 4900 H 447.587 -0.964726 3.12027 0
M  V30 4901 H 446.246 1.13628 3.48546 0
M  V30 4902 H 445.894 -0.85524 4.95676 0
M  V30 4903 H 445.594 0.663406 5.83843 0
M  V30 4904 H 447.118 -0.231105 6.10162 0
M  V30 4905 H 448.532 1.92885 5.39878 0
M  V30 4906 H 446.929 2.71853 5.34991 0
M  V30 4907 H 447.999 2.82589 3.94045 0
M  V30 4908 N 449.342 -1.36122 0.79427 0
M  V30 4909 C 450.57 -2.03362 0.380989 0
M  V30 4910 C 450.985 -1.59881 -1.00416 0
M  V30 4911 O 450.342 -0.790515 -1.6449 0
M  V30 4912 C 450.393 -3.58804 0.440649 0
M  V30 4913 O 450.114 -4.007 1.77118 0
M  V30 4914 C 451.615 -4.43296 0.0186117 0
M  V30 4915 H 448.835 -0.652526 0.156367 0
M  V30 4916 H 451.379 -1.73998 1.07447 0
M  V30 4917 H 449.534 -3.8686 -0.204458 0
M  V30 4918 H 449.948 -4.95309 1.72538 0
M  V30 4919 H 451.422 -5.51887 0.111488 0
M  V30 4920 H 451.899 -4.2684 -1.03461 0
M  V30 4921 H 452.505 -4.20512 0.636395 0
M  V30 4922 N 450.82 -0.546701 -1.47814 0
M  V30 4923 C 451.77 0.227042 -2.26867 0
M  V30 4924 C 452.754 0.894844 -1.33721 0
M  V30 4925 O 453.946 0.794887 -1.58147 0
M  V30 4926 C 451.075 1.26299 -3.19223 0
M  V30 4927 C 450.161 0.59913 -4.19847 0
M  V30 4928 N 450.552 -0.324777 -5.04756 0
M  V30 4929 C 448.85 0.854331 -4.37741 0
M  V30 4930 C 449.551 -0.709386 -5.77358 0
M  V30 4931 N 448.527 -0.0666153 -5.43559 0
M  V30 4932 H 452.329 -0.483476 -2.89896 0
M  V30 4933 H 449.843 -0.365893 -1.58224 0
M  V30 4934 H 451.84 1.83116 -3.74532 0
M  V30 4935 H 450.5 1.97471 -2.57751 0
M  V30 4936 H 451.511 -0.698351 -5.1317 0
M  V30 4937 H 448.188 1.55536 -3.87447 0
M  V30 4938 H 449.578 -1.46796 -6.55668 0
M  V30 4939 N 452.299 1.55045 -0.282633 0
M  V30 4940 C 453.249 2.19514 0.616249 0
M  V30 4941 C 454.233 1.16216 1.11277 0
M  V30 4942 O 455.425 1.42004 1.05659 0
M  V30 4943 C 452.554 2.92548 1.7964 0
M  V30 4944 C 451.64 4.03142 1.31671 0
M  V30 4945 N 452.031 5.0276 0.553695 0
M  V30 4946 C 450.329 4.1635 1.59903 0
M  V30 4947 C 451.03 5.80923 0.30054 0
M  V30 4948 N 450.006 5.3651 0.875116 0
M  V30 4949 H 453.808 2.93889 0.0255363 0
M  V30 4950 H 451.322 1.62169 -0.0865362 0
M  V30 4951 H 453.319 3.37188 2.45173 0
M  V30 4952 H 451.979 2.19685 2.39099 0
M  V30 4953 H 452.99 5.17512 0.20032 0
M  V30 4954 H 449.667 3.54682 2.20243 0
M  V30 4955 H 451.057 6.7118 -0.311053 0
M  V30 4956 N 453.777 0.010035 1.57597 0
M  V30 4957 C 455.007 -0.682422 1.95004 0
M  V30 4958 C 455.415 -1.67278 0.884014 0
M  V30 4959 O 454.758 -1.83129 -0.144672 0
M  V30 4960 C 454.82 -1.46141 3.28456 0
M  V30 4961 C 454.484 -0.631523 4.52615 0
M  V30 4962 C 455.481 0.0850905 5.1983 0
M  V30 4963 C 453.166 -0.574539 4.99003 0
M  V30 4964 C 455.16 0.847566 6.3174 0
M  V30 4965 C 452.847 0.191655 6.10799 0
M  V30 4966 C 453.845 0.901432 6.77025 0
M  V30 4967 O 453.533 1.65511 7.86677 0
M  V30 4968 H 453.265 -0.194361 0.647456 0
M  V30 4969 H 455.819 0.060312 2.05311 0
M  V30 4970 H 454.049 -2.24885 3.14585 0
M  V30 4971 H 455.738 -2.04016 3.50902 0
M  V30 4972 H 456.504 0.0502812 4.84974 0
M  V30 4973 H 452.383 -1.11654 4.47274 0
M  V30 4974 H 455.927 1.4021 6.83364 0
M  V30 4975 H 451.824 0.228249 6.45096 0
M  V30 4976 H 452.592 1.57287 8.03245 0
M  V30 4977 N 455.255 -1.55392 -0.262866 0
M  V30 4978 C 456.502 -1.76476 -0.993109 0
M  V30 4979 C 456.83 -0.571479 -1.85915 0
M  V30 4980 O 456.085 0.445733 -1.90556 0
M  V30 4981 C 456.384 -3.02889 -1.89718 0
M  V30 4982 C 456.05 -4.34974 -1.18781 0
M  V30 4983 C 454.712 -4.7087 -0.991699 0
M  V30 4984 C 457.064 -5.16695 -0.683798 0
M  V30 4985 C 454.392 -5.86036 -0.279024 0
M  V30 4986 C 456.744 -6.32598 0.0153327 0
M  V30 4987 C 455.408 -6.67127 0.223062 0
M  V30 4988 H 454.678 -0.64577 -0.363404 0
M  V30 4989 H 457.325 -1.89664 -0.264525 0
M  V30 4990 H 455.63 -2.84644 -2.6923 0
M  V30 4991 H 457.327 -3.16399 -2.46359 0
M  V30 4992 H 453.917 -4.06765 -1.35058 0
M  V30 4993 H 458.101 -4.8943 -0.8229 0
M  V30 4994 H 453.357 -6.11306 -0.107456 0
M  V30 4995 H 457.531 -6.95171 0.413584 0
M  V30 4996 H 455.158 -7.56216 0.777265 0
M  V30 4997 N 456.733 0.527833 -1.48498 0
M  V30 4998 C 457.979 1.28545 -1.56857 0
M  V30 4999 C 458.312 1.92678 -0.242651 0
M  V30 5000 O 457.587 1.79394 0.751545 0
M  V30 5001 C 457.87 2.37314 -2.70839 0
M  V30 5002 C 457.723 1.77858 -4.13142 0
M  V30 5003 C 459.042 3.39068 -2.80573 0
M  V30 5004 H 456.161 0.466006 -0.570971 0
M  V30 5005 H 458.803 0.587784 -1.8068 0
M  V30 5006 H 456.953 2.96821 -2.50658 0
M  V30 5007 H 458.625 1.22385 -4.44769 0
M  V30 5008 H 456.868 1.08383 -4.20042 0
M  V30 5009 H 457.539 2.56624 -4.88721 0
M  V30 5010 H 460.015 2.89518 -2.98862 0
M  V30 5011 H 458.891 4.12566 -3.6205 0
M  V30 5012 H 459.152 3.9975 -1.88818 0
M  V30 5013 N 458.211 1.37122 0.776871 0
M  V30 5014 C 459.488 1.22586 1.52421 0
M  V30 5015 C 459.868 -0.182726 2.10308 0
M  V30 5016 O 459.216 -1.18979 1.9508 0
M  V30 5017 C 459.426 2.31782 2.60918 0
M  V30 5018 C 460.774 2.69071 3.2846 0
M  V30 5019 O 461.798 2.3092 2.71209 0
M  V30 5020 O 460.657 3.3478 4.31954 0
M  V30 5021 H 457.751 0.478045 0.674835 0
M  V30 5022 H 460.297 1.48888 0.814275 0
M  V30 5023 H 459.069 3.26131 2.16227 0
M  V30 5024 H 458.692 2.06916 3.39517 0
M  V30 5025 N 459.689 -1.00246 1.21608 0
M  V30 5026 C 460.619 -2.10921 1.00172 0
M  V30 5027 C 461.6 -1.69938 -0.0741587 0
M  V30 5028 O 462.785 -1.94009 0.0861753 0
M  V30 5029 C 459.915 -3.42618 0.568355 0
M  V30 5030 C 458.869 -3.97407 1.58909 0
M  V30 5031 C 458.195 -5.25038 1.01187 0
M  V30 5032 C 459.495 -4.2918 2.97661 0
M  V30 5033 H 461.189 -2.29112 1.92739 0
M  V30 5034 H 458.735 -1.10101 0.928102 0
M  V30 5035 H 460.688 -4.19444 0.405555 0
M  V30 5036 H 459.412 -3.24227 -0.392961 0
M  V30 5037 H 458.071 -3.22703 1.73949 0
M  V30 5038 H 457.719 -5.02982 0.0421965 0
M  V30 5039 H 457.419 -5.62661 1.6937 0
M  V30 5040 H 458.943 -6.04507 0.860448 0
M  V30 5041 H 460.357 -4.96839 2.86049 0
M  V30 5042 H 458.754 -4.77952 3.6288 0
M  V30 5043 H 459.824 -3.3735 3.48315 0
M  V30 5044 N 461.167 -1.02423 -1.1978 0
M  V30 5045 C 462.416 -0.713265 -1.88667 0
M  V30 5046 C 462.729 0.7609 -1.80193 0
M  V30 5047 O 463.935 1.18473 -2.44288 0
M  V30 5048 C 462.391 -1.22545 -3.38394 0
M  V30 5049 C 461.999 -2.72706 -3.55437 0
M  V30 5050 C 463.743 -0.990257 -4.12788 0
M  V30 5051 C 461.65 -3.17367 -4.99031 0
M  V30 5052 H 460.58 -0.263105 -0.706606 0
M  V30 5053 H 463.231 -1.23792 -1.35454 0
M  V30 5054 H 461.613 -0.628732 -3.90977 0
M  V30 5055 H 462.787 -3.37993 -3.13205 0
M  V30 5056 H 461.102 -2.94453 -2.94425 0
M  V30 5057 H 463.699 -1.29926 -5.18675 0
M  V30 5058 H 464.042 0.0730761 -4.16236 0
M  V30 5059 H 464.575 -1.55074 -3.66329 0
M  V30 5060 H 461.314 -4.23009 -5.00743 0
M  V30 5061 H 460.834 -2.56805 -5.42044 0
M  V30 5062 H 462.513 -3.10441 -5.67658 0
M  V30 5063 N 462.645 1.35699 -0.801477 0
M  V30 5064 C 463.893 1.9852 -0.37871 0
M  V30 5065 C 464.214 1.63907 1.05638 0
M  V30 5066 O 463.484 0.919013 1.73006 0
M  V30 5067 H 462.064 0.734322 -0.137042 0
M  V30 5068 H 464.726 1.65697 -1.02619 0
M  V30 5069 H 463.822 3.08382 -0.480284 0
M  V30 5070 N 464.123 0.554532 1.47522 0
M  V30 5071 C 465.371 0.0294208 2.02079 0
M  V30 5072 C 465.692 -1.32411 1.43151 0
M  V30 5073 O 464.962 -1.863 0.605728 0
M  V30 5074 H 463.542 0.00788672 0.746958 0
M  V30 5075 H 466.204 0.723934 1.80956 0
M  V30 5076 H 465.3 -0.0606745 3.12041 0
M  V30 5077 N 465.601 -1.54893 0.290851 0
M  V30 5078 C 466.564 -2.21824 -0.576784 0
M  V30 5079 C 467.564 -1.20104 -1.06919 0
M  V30 5080 O 468.754 -1.44906 -0.966843 0
M  V30 5081 C 465.886 -2.89662 -1.79747 0
M  V30 5082 H 467.079 -2.99899 0.00784051 0
M  V30 5083 H 464.632 -1.56245 0.0415934 0
M  V30 5084 H 465.367 -2.15639 -2.42219 0
M  V30 5085 H 465.152 -3.64219 -1.45214 0
M  V30 5086 H 466.642 -3.4075 -2.4141 0
M  V30 5087 N 467.08 -0.0183926 -1.57589 0
M  V30 5088 C 468.013 1.00148 -2.0505 0
M  V30 5089 C 468.991 1.32387 -0.944058 0
M  V30 5090 O 470.175 1.44237 -1.21358 0
M  V30 5091 C 467.302 2.32435 -2.46357 0
M  V30 5092 C 466.348 2.15731 -3.67916 0
M  V30 5093 S 467.181 1.46613 -5.15039 0
M  V30 5094 C 468.337 2.80293 -5.59631 0
M  V30 5095 H 468.57 0.597429 -2.91235 0
M  V30 5096 H 466.103 0.193002 -1.53189 0
M  V30 5097 H 468.061 3.0849 -2.70822 0
M  V30 5098 H 466.722 2.69975 -1.60537 0
M  V30 5099 H 465.915 3.13502 -3.9463 0
M  V30 5100 H 465.517 1.4782 -3.43548 0
M  V30 5101 H 467.809 3.76557 -5.63215 0
M  V30 5102 H 468.752 2.58256 -6.59325 0
M  V30 5103 H 469.16 2.85047 -4.87246 0
M  V30 5104 N 468.558 1.5553 0.254621 0
M  V30 5105 C 469.488 1.9268 1.31897 0
M  V30 5106 C 470.469 0.790797 1.506 0
M  V30 5107 O 471.654 1.05045 1.63337 0
M  V30 5108 C 468.784 2.21477 2.67517 0
M  V30 5109 C 467.738 3.37256 2.63519 0
M  V30 5110 C 467.064 3.51576 4.02862 0
M  V30 5111 C 468.364 4.73157 2.21179 0
M  V30 5112 H 470.058 2.81832 1.01051 0
M  V30 5113 H 467.604 1.35599 0.484662 0
M  V30 5114 H 469.557 2.46055 3.42104 0
M  V30 5115 H 468.281 1.29144 2.99982 0
M  V30 5116 H 466.94 3.12675 1.9139 0
M  V30 5117 H 466.588 2.56676 4.32581 0
M  V30 5118 H 466.288 4.2943 4.01078 0
M  V30 5119 H 467.812 3.78467 4.79161 0
M  V30 5120 H 469.226 4.97158 2.85494 0
M  V30 5121 H 467.623 5.54058 2.30521 0
M  V30 5122 H 468.693 4.70739 1.16332 0
M  V30 5123 N 470.036 -0.519951 1.48776 0
M  V30 5124 C 471.261 -1.30447 1.6124 0
M  V30 5125 C 471.686 -1.86055 0.276591 0
M  V30 5126 O 471.044 -1.64915 -0.753183 0
M  V30 5127 C 471.092 -2.42406 2.66967 0
M  V30 5128 O 470.196 -3.45728 2.24824 0
M  V30 5129 H 469.537 -0.385924 0.540332 0
M  V30 5130 H 472.067 -0.624572 1.94834 0
M  V30 5131 H 472.077 -2.88447 2.88552 0
M  V30 5132 H 470.752 -2.01294 3.63941 0
M  V30 5133 H 469.329 -3.05737 2.13494 0
M  V30 5134 N 471.514 -1.37532 -0.769588 0
M  V30 5135 C 472.444 -1.36172 -1.89682 0
M  V30 5136 C 473.425 -0.23001 -1.68538 0
M  V30 5137 O 474.61 -0.43069 -1.89364 0
M  V30 5138 C 471.74 -1.1701 -3.26995 0
M  V30 5139 C 470.694 -2.27216 -3.62708 0
M  V30 5140 C 470.02 -1.93174 -4.98586 0
M  V30 5141 C 471.32 -3.6941 -3.69234 0
M  V30 5142 H 473.014 -2.30499 -1.91078 0
M  V30 5143 H 470.56 -1.10953 -0.917902 0
M  V30 5144 H 472.513 -1.14688 -4.05493 0
M  V30 5145 H 471.237 -0.191395 -3.26039 0
M  V30 5146 H 469.896 -2.28697 -2.86519 0
M  V30 5147 H 469.544 -0.938281 -4.94171 0
M  V30 5148 H 469.244 -2.66973 -5.23449 0
M  V30 5149 H 470.768 -1.92443 -5.79481 0
M  V30 5150 H 472.182 -3.70047 -4.37879 0
M  V30 5151 H 470.579 -4.4228 -4.05597 0
M  V30 5152 H 471.649 -4.0288 -2.69844 0
M  V30 5153 N 472.992 0.995999 -1.22138 0
M  V30 5154 C 474.22 1.77066 -1.07029 0
M  V30 5155 C 474.635 1.8495 0.379357 0
M  V30 5156 O 473.992 1.3174 1.26297 0
M  V30 5157 C 474.043 3.20533 -1.67155 0
M  V30 5158 O 473.764 3.13082 -3.06449 0
M  V30 5159 C 475.265 4.14461 -1.5728 0
M  V30 5160 H 472.485 0.556179 -0.375374 0
M  V30 5161 H 475.029 1.25238 -1.61666 0
M  V30 5162 H 473.184 3.6944 -1.16589 0
M  V30 5163 H 473.598 4.03283 -3.35355 0
M  V30 5164 H 475.072 5.1289 -2.04078 0
M  V30 5165 H 475.549 4.36005 -0.528795 0
M  V30 5166 H 476.155 3.71449 -2.07136 0
M  V30 5167 N 474.47 1.03057 1.19235 0
M  V30 5168 C 475.716 0.729098 1.89241 0
M  V30 5169 C 476.049 -0.740573 1.79525 0
M  V30 5170 O 475.324 -1.53946 1.18874 0
M  V30 5171 C 475.607 1.18304 3.40112 0
M  V30 5172 C 475.46 2.71406 3.5869 0
M  V30 5173 C 476.779 0.765161 4.33397 0
M  V30 5174 H 473.898 0.266338 0.687192 0
M  V30 5175 H 476.54 1.28079 1.40341 0
M  V30 5176 H 474.69 0.713672 3.81889 0
M  V30 5177 H 476.362 3.26303 3.26074 0
M  V30 5178 H 474.605 3.11717 3.01687 0
M  V30 5179 H 475.276 2.98225 4.64506 0
M  V30 5180 H 477.752 1.16889 3.99345 0
M  V30 5181 H 476.628 1.11065 5.37546 0
M  V30 5182 H 476.889 -0.332372 4.40849 0
M  V30 5183 N 475.948 -1.35272 0.808662 0
M  V30 5184 C 477.195 -1.98709 0.390003 0
M  V30 5185 C 477.523 -1.64148 -1.04335 0
M  V30 5186 O 476.778 -0.897797 -1.73891 0
M  V30 5187 C 477.077 -3.53556 0.522798 0
M  V30 5188 C 476.743 -4.0799 1.91977 0
M  V30 5189 C 475.405 -4.22568 2.30195 0
M  V30 5190 C 477.757 -4.37442 2.83361 0
M  V30 5191 C 475.085 -4.63918 3.59162 0
M  V30 5192 C 477.437 -4.80232 4.11776 0
M  V30 5193 C 476.101 -4.93016 4.49991 0
M  V30 5194 H 475.371 -0.727127 0.142712 0
M  V30 5195 H 478.018 -1.6145 1.02985 0
M  V30 5196 H 476.323 -3.91287 -0.200494 0
M  V30 5197 H 478.02 -4.00598 0.179608 0
M  V30 5198 H 474.61 -3.97096 1.61284 0
M  V30 5199 H 478.794 -4.25731 2.55083 0
M  V30 5200 H 474.05 -4.72005 3.88615 0
M  V30 5201 H 478.224 -5.01982 4.82687 0
M  V30 5202 H 475.851 -5.24814 5.49976 0
M  V30 5203 N 477.426 -0.562348 -1.47226 0
M  V30 5204 C 478.336 0.185466 -2.33866 0
M  V30 5205 C 479.352 0.906713 -1.48508 0
M  V30 5206 O 480.528 0.874458 -1.81425 0
M  V30 5207 C 477.593 1.19904 -3.25306 0
M  V30 5208 C 476.654 0.484669 -4.26555 0
M  V30 5209 C 475.887 1.44996 -5.13626 0
M  V30 5210 O 476.11 2.68515 -5.03245 0
M  V30 5211 O 475.044 0.971642 -5.94006 0
M  V30 5212 H 478.87 -0.525361 -2.99121 0
M  V30 5213 H 476.455 -0.322916 -1.45868 0
M  V30 5214 H 478.337 1.78399 -3.81774 0
M  V30 5215 H 477.012 1.8917 -2.62672 0
M  V30 5216 H 475.919 -0.141605 -3.73832 0
M  V30 5217 H 477.252 -0.166634 -4.91918 0
M  V30 5218 N 478.904 1.54736 -0.299062 0
M  V30 5219 C 480.151 2.00101 0.310784 0
M  V30 5220 C 480.479 1.18746 1.54045 0
M  V30 5221 O 479.734 0.251198 1.94081 0
M  V30 5222 C 480.033 3.50199 0.713835 0
M  V30 5223 C 479.699 4.48997 -0.413873 0
M  V30 5224 C 478.361 4.7573 -0.723462 0
M  V30 5225 C 480.713 5.07839 -1.17257 0
M  V30 5226 C 478.041 5.5857 -1.79491 0
M  V30 5227 C 480.393 5.91844 -2.23392 0
M  V30 5228 C 479.057 6.16889 -2.54959 0
M  V30 5229 H 478.327 0.732221 0.113724 0
M  V30 5230 H 480.974 1.86888 -0.417756 0
M  V30 5231 H 479.279 3.61012 1.52243 0
M  V30 5232 H 480.976 3.82723 1.19684 0
M  V30 5233 H 477.566 4.28292 -0.162476 0
M  V30 5234 H 481.75 4.87188 -0.946651 0
M  V30 5235 H 477.006 5.76213 -2.04423 0
M  V30 5236 H 481.18 6.36465 -2.8264 0
M  V30 5237 H 478.807 6.80869 -3.38114 0
M  V30 5238 N 480.382 0.0267497 1.57577 0
M  V30 5239 C 481.61 -0.662661 1.96001 0
M  V30 5240 C 482.025 -1.65799 0.903117 0
M  V30 5241 O 481.382 -1.82135 -0.115317 0
M  V30 5242 C 481.433 -1.37112 3.34488 0
M  V30 5243 O 481.154 -0.415683 4.36123 0
M  V30 5244 C 482.655 -2.15257 3.8753 0
M  V30 5245 H 479.875 -0.18287 0.6456 0
M  V30 5246 H 482.419 0.0858116 2.0432 0
M  V30 5247 H 480.574 -2.07101 3.27395 0
M  V30 5248 H 480.988 -0.918496 5.16395 0
M  V30 5249 H 482.462 -2.60285 4.86781 0
M  V30 5250 H 482.939 -2.99063 3.21649 0
M  V30 5251 H 483.545 -1.50231 3.97883 0
M  V30 5252 N 481.861 -1.55662 -0.24637 0
M  V30 5253 C 482.808 -1.90361 -1.30504 0
M  V30 5254 C 483.778 -0.757905 -1.47801 0
M  V30 5255 O 484.963 -1.01161 -1.61775 0
M  V30 5256 C 482.103 -2.2042 -2.65535 0
M  V30 5257 C 481.216 -3.47799 -2.56242 0
M  V30 5258 C 480.351 -3.67426 -3.8363 0
M  V30 5259 C 479.39 -4.88403 -3.68956 0
M  V30 5260 N 478.527 -5.04548 -4.88237 0
M  V30 5261 H 483.367 -2.80645 -1.00213 0
M  V30 5262 H 480.904 -1.38924 -0.483577 0
M  V30 5263 H 482.862 -2.35853 -3.44135 0
M  V30 5264 H 481.492 -1.3334 -2.93973 0
M  V30 5265 H 480.544 -3.40694 -1.69208 0
M  V30 5266 H 481.856 -4.36544 -2.4131 0
M  V30 5267 H 481.01 -3.82821 -4.70673 0
M  V30 5268 H 479.749 -2.76914 -4.01459 0
M  V30 5269 H 478.754 -4.72984 -2.80296 0
M  V30 5270 H 479.979 -5.80375 -3.52621 0
M  V30 5271 H 477.925 -4.16974 -5.06427 0
M  V30 5272 H 477.842 -5.87384 -4.75937 0
M  V30 5273 H 479.11 -5.24355 -5.76777 0
M  V30 5274 N 483.339 0.512053 -1.4905 0
M  V30 5275 C 484.569 1.28928 -1.61434 0
M  V30 5276 C 484.977 1.87107 -0.280647 0
M  V30 5277 O 484.32 1.68024 0.742537 0
M  V30 5278 C 484.382 2.466 -2.61588 0
M  V30 5279 C 484.046 2.09375 -4.06216 0
M  V30 5280 C 485.043 1.63994 -4.93358 0
M  V30 5281 C 482.728 2.19348 -4.51876 0
M  V30 5282 C 484.722 1.29076 -6.24194 0
M  V30 5283 C 482.409 1.84041 -5.82728 0
M  V30 5284 C 483.407 1.38978 -6.68711 0
M  V30 5285 O 483.095 1.04144 -7.97126 0
M  V30 5286 H 482.827 0.397668 -0.546659 0
M  V30 5287 H 485.381 0.622507 -1.9574 0
M  V30 5288 H 483.611 3.16318 -2.22441 0
M  V30 5289 H 485.3 3.08642 -2.63619 0
M  V30 5290 H 486.066 1.55744 -4.59313 0
M  V30 5291 H 481.945 2.53376 -3.85125 0
M  V30 5292 H 485.489 0.938303 -6.91261 0
M  V30 5293 H 481.386 1.91938 -6.16304 0
M  V30 5294 H 482.154 1.17387 -8.10039 0
M  V30 5295 N 484.817 1.37938 0.762283 0
M  V30 5296 C 485.764 1.34467 1.87583 0
M  V30 5297 C 486.734 0.208633 1.64785 0
M  V30 5298 O 487.919 0.399494 1.86571 0
M  V30 5299 C 485.059 1.16692 3.24772 0
M  V30 5300 C 484.172 2.39608 3.59461 0
M  V30 5301 C 483.307 2.14631 4.85908 0
M  V30 5302 C 482.346 3.33364 5.13357 0
M  V30 5303 N 481.483 3.07877 6.30996 0
M  V30 5304 H 486.323 2.29669 1.89885 0
M  V30 5305 H 483.86 1.14116 0.928219 0
M  V30 5306 H 485.818 1.04405 4.03925 0
M  V30 5307 H 484.448 0.251333 3.2182 0
M  V30 5308 H 483.5 2.626 2.75219 0
M  V30 5309 H 484.812 3.28128 3.75678 0
M  V30 5310 H 483.966 1.99429 5.72986 0
M  V30 5311 H 482.705 1.23463 4.71814 0
M  V30 5312 H 481.71 3.49094 4.24751 0
M  V30 5313 H 482.935 4.25395 5.29354 0
M  V30 5314 H 480.881 2.19348 6.18241 0
M  V30 5315 H 480.798 3.89944 6.47673 0
M  V30 5316 H 482.066 2.96313 7.20985 0
M  V30 5317 N 486.295 -0.989507 1.22664 0
M  V30 5318 C 487.525 -1.7624 1.0781 0
M  V30 5319 C 487.933 -1.85466 -0.374036 0
M  V30 5320 O 487.276 -1.32645 -1.27087 0
M  V30 5321 C 487.338 -3.21007 1.61849 0
M  V30 5322 C 487.002 -3.35316 3.10503 0
M  V30 5323 C 487.999 -3.22362 4.07896 0
M  V30 5324 C 485.684 -3.60258 3.50028 0
M  V30 5325 C 487.678 -3.34139 5.42798 0
M  V30 5326 C 485.365 -3.71676 4.85078 0
M  V30 5327 C 486.363 -3.58625 5.81272 0
M  V30 5328 O 486.051 -3.69655 7.1387 0
M  V30 5329 H 485.783 -0.560209 0.378341 0
M  V30 5330 H 488.337 -1.25252 1.62792 0
M  V30 5331 H 486.567 -3.73202 1.01279 0
M  V30 5332 H 488.256 -3.80024 1.42606 0
M  V30 5333 H 489.022 -3.03 3.78703 0
M  V30 5334 H 484.901 -3.69492 2.75675 0
M  V30 5335 H 488.445 -3.23869 6.17863 0
M  V30 5336 H 484.342 -3.90545 5.1395 0
M  V30 5337 H 485.11 -3.86507 7.21495 0
M  V30 5338 N 487.773 -1.03688 -1.18687 0
M  V30 5339 C 488.703 -0.645407 -2.24403 0
M  V30 5340 C 489.684 0.349511 -1.66471 0
M  V30 5341 O 490.869 0.230453 -1.92828 0
M  V30 5342 C 487.999 -0.00365337 -3.473 0
M  V30 5343 C 486.953 -0.921705 -4.17958 0
M  V30 5344 C 486.279 -0.144629 -5.34504 0
M  V30 5345 C 487.579 -2.23909 -4.71871 0
M  V30 5346 H 489.273 -1.52917 -2.57404 0
M  V30 5347 H 486.819 -0.736711 -1.23728 0
M  V30 5348 H 488.772 0.281908 -4.20456 0
M  V30 5349 H 487.496 0.914963 -3.13522 0
M  V30 5350 H 486.155 -1.19159 -3.46694 0
M  V30 5351 H 485.803 0.776274 -4.96974 0
M  V30 5352 H 485.503 -0.756206 -5.82714 0
M  V30 5353 H 487.027 0.134004 -6.10453 0
M  V30 5354 H 488.441 -2.0145 -5.36741 0
M  V30 5355 H 486.838 -2.8033 -5.30599 0
M  V30 5356 H 487.908 -2.88822 -3.895 0
M  V30 5357 N 489.251 1.34841 -0.815825 0
M  V30 5358 C 490.662 1.80937 -0.46029 0
M  V30 5359 C 491.013 1.67685 1.01863 0
M  V30 5360 O 490.138 1.21277 1.79223 0
M  V30 5361 C 490.733 3.28509 -0.828708 0
M  V30 5362 C 489.292 3.72712 -0.525644 0
M  V30 5363 C 488.439 2.56676 -1.04941 0
M  V30 5364 H 491.39 1.22688 -1.00664 0
M  V30 5365 H 491.411 3.80279 -0.129757 0
M  V30 5366 H 490.923 3.38122 -1.90513 0
M  V30 5367 H 489.024 3.68642 0.541666 0
M  V30 5368 H 489.137 4.67119 -1.06474 0
M  V30 5369 H 487.501 2.50302 -0.471286 0
M  V30 5370 H 488.284 2.69063 -2.13214 0
M  V30 5371 N 490.729 0.570148 1.46925 0
M  V30 5372 C 491.676 -0.170257 2.30171 0
M  V30 5373 C 492.646 -0.896099 1.39855 0
M  V30 5374 O 493.831 -0.889248 1.68811 0
M  V30 5375 C 490.971 -1.18605 3.24079 0
M  V30 5376 C 490.084 -0.464947 4.29491 0
M  V30 5377 C 489.219 -1.46716 5.10537 0
M  V30 5378 C 488.258 -0.731758 6.0771 0
M  V30 5379 N 487.395 -1.68142 6.81669 0
M  V30 5380 H 492.235 0.545713 2.92961 0
M  V30 5381 H 489.772 0.280938 1.44392 0
M  V30 5382 H 491.73 -1.78771 3.76957 0
M  V30 5383 H 490.36 -1.86989 2.63125 0
M  V30 5384 H 489.412 0.251506 3.79568 0
M  V30 5385 H 490.724 0.110548 4.98677 0
M  V30 5386 H 489.878 -2.14199 5.6763 0
M  V30 5387 H 488.617 -2.07658 4.41282 0
M  V30 5388 H 487.622 -0.0430787 5.49783 0
M  V30 5389 H 488.847 -0.127904 6.7898 0
M  V30 5390 H 486.793 -2.27918 6.15134 0
M  V30 5391 H 486.71 -1.15841 7.47072 0
M  V30 5392 H 487.978 -2.347 7.43328 0
M  V30 5393 N 492.207 -1.54576 0.307264 0
M  V30 5394 C 493.155 -2.25208 -0.581723 0
M  V30 5395 C 494.149 -1.26031 -1.13192 0
M  V30 5396 O 495.355 -1.43862 -1.08184 0
M  V30 5397 H 491.73 -0.723173 -0.206214 0
M  V30 5398 H 493.701 -2.98378 0.0364663 0
M  V30 5399 C 492.45 -3.01086 -1.73904 0
M  V30 5400 H 491.773 -3.77208 -1.32491 0
M  V30 5401 H 493.213 -3.5378 -2.33701 0
M  V30 5402 C 491.672 -2.08422 -2.64692 0
M  V30 5403 O 492.202 -1.65636 -3.65961 0
M  V30 5404 N 490.408 -1.74247 -2.32564 0
M  V30 5405 H 489.955 -2.09238 -1.50257 0
M  V30 5406 H 489.913 -1.12524 -2.93574 0
M  V30 5407 N 493.685 -0.035106 -1.57561 0
M  V30 5408 C 494.632 0.94474 -2.10578 0
M  V30 5409 C 495.602 1.3192 -1.00927 0
M  V30 5410 O 496.787 1.41147 -1.28382 0
M  V30 5411 C 493.927 2.21982 -2.64231 0
M  V30 5412 C 493.04 1.90128 -3.87911 0
M  V30 5413 C 492.175 3.11975 -4.29936 0
M  V30 5414 C 491.214 2.75968 -5.46359 0
M  V30 5415 N 490.351 3.90459 -5.83512 0
M  V30 5416 H 495.191 0.485717 -2.94015 0
M  V30 5417 H 492.728 0.228143 -1.4532 0
M  V30 5418 H 494.686 2.96572 -2.9343 0
M  V30 5419 H 493.316 2.6549 -1.83616 0
M  V30 5420 H 492.368 1.05755 -3.65404 0
M  V30 5421 H 493.68 1.59613 -4.72573 0
M  V30 5422 H 492.834 3.9488 -4.60603 0
M  V30 5423 H 491.573 3.45657 -3.44053 0
M  V30 5424 H 490.578 1.91478 -5.1538 0
M  V30 5425 H 491.803 2.43497 -6.33945 0
M  V30 5426 H 489.749 4.23971 -5.00584 0
M  V30 5427 H 489.666 3.63588 -6.62827 0
M  V30 5428 H 490.934 4.7405 -6.18787 0
M  V30 5429 N 495.163 1.55791 0.238111 0
M  V30 5430 C 496.073 1.94196 1.31625 0
M  V30 5431 C 497.089 0.843545 1.52185 0
M  V30 5432 O 498.265 1.1457 1.65637 0
M  V30 5433 C 495.33 2.2365 2.64918 0
M  V30 5434 C 494.391 3.46971 2.52804 0
M  V30 5435 C 493.624 3.7501 3.79741 0
M  V30 5436 O 493.847 3.04982 4.82019 0
M  V30 5437 O 492.781 4.68525 3.77846 0
M  V30 5438 H 496.607 2.86044 1.02043 0
M  V30 5439 H 494.192 1.42786 0.439603 0
M  V30 5440 H 496.074 2.43863 3.4367 0
M  V30 5441 H 494.749 1.34979 2.94215 0
M  V30 5442 H 493.656 3.32055 1.72309 0
M  V30 5443 H 494.989 4.35971 2.28451 0
M  V30 5444 N 496.642 -0.504142 1.49319 0
M  V30 5445 C 497.89 -1.25598 1.58334 0
M  V30 5446 C 498.211 -1.93114 0.270538 0
M  V30 5447 O 497.481 -1.82585 -0.709891 0
M  V30 5448 H 496.061 -0.466571 0.58337 0
M  V30 5449 H 498.723 -0.584547 1.85928 0
M  V30 5450 H 497.819 -2.02159 2.37778 0
M  V30 5451 N 498.12 -1.38341 -0.754957 0
M  V30 5452 C 499.05 -1.38176 -1.88227 0
M  V30 5453 C 500.031 -0.247873 -1.68284 0
M  V30 5454 O 501.216 -0.45075 -1.88896 0
M  V30 5455 C 498.346 -1.20471 -3.25736 0
M  V30 5456 C 497.3 -2.3105 -3.60278 0
M  V30 5457 C 496.626 -1.98452 -4.96509 0
M  V30 5458 C 497.926 -3.73305 -3.65295 0
M  V30 5459 H 499.62 -2.32512 -1.88622 0
M  V30 5460 H 497.166 -1.1192 -0.906082 0
M  V30 5461 H 499.119 -1.18982 -4.04254 0
M  V30 5462 H 497.843 -0.225965 -3.25817 0
M  V30 5463 H 496.502 -2.31723 -2.84078 0
M  V30 5464 H 496.15 -0.990641 -4.93148 0
M  V30 5465 H 495.85 -2.7251 -5.20588 0
M  V30 5466 H 497.374 -1.98578 -5.77407 0
M  V30 5467 H 498.788 -3.7467 -4.3393 0
M  V30 5468 H 497.185 -4.46557 -4.00883 0
M  V30 5469 H 498.255 -4.05719 -2.65556 0
M  V30 5470 N 499.598 0.982988 -1.23187 0
M  V30 5471 C 500.845 1.72392 -1.06241 0
M  V30 5472 C 501.173 1.9032 0.40108 0
M  V30 5473 O 500.428 1.45084 1.31336 0
M  V30 5474 C 500.727 3.12736 -1.73006 0
M  V30 5475 C 500.393 3.14695 -3.22921 0
M  V30 5476 C 499.055 3.14937 -3.63824 0
M  V30 5477 C 501.407 3.10211 -4.1883 0
M  V30 5478 C 498.735 3.08408 -4.99101 0
M  V30 5479 C 501.087 3.05224 -5.54095 0
M  V30 5480 C 499.751 3.03787 -5.94365 0
M  V30 5481 H 499.021 0.630829 -0.388762 0
M  V30 5482 H 501.668 1.15053 -1.53085 0
M  V30 5483 H 499.973 3.73446 -1.18514 0
M  V30 5484 H 501.67 3.68828 -1.57374 0
M  V30 5485 H 498.26 3.15262 -2.90358 0
M  V30 5486 H 502.444 3.09166 -3.8824 0
M  V30 5487 H 497.7 3.05646 -5.29519 0
M  V30 5488 H 501.874 3.00712 -6.28128 0
M  V30 5489 H 499.501 2.98483 -6.99151 0
M  V30 5490 N 501.076 1.04316 1.18135 0
M  V30 5491 C 502.316 0.756937 1.89868 0
M  V30 5492 C 502.68 -0.702609 1.78682 0
M  V30 5493 O 503.881 -1.10255 2.45148 0
M  V30 5494 C 502.152 1.21327 3.36176 0
M  V30 5495 S 503.711 1.05307 4.25976 0
M  V30 5496 H 500.529 0.275143 0.655604 0
M  V30 5497 H 503.131 1.33597 1.42731 0
M  V30 5498 H 501.835 2.27086 3.41848 0
M  V30 5499 H 501.366 0.628137 3.88353 0
M  V30 5500 H 503.381 -0.0280093 4.96192 0
M  V30 5501 N 502.554 -1.34406 0.822964 0
M  V30 5502 C 503.97 -1.51275 0.508727 0
M  V30 5503 C 504.17 -1.76776 -0.967083 0
M  V30 5504 O 503.226 -1.81871 -1.75155 0
M  V30 5505 C 504.539 -2.67765 1.36829 0
M  V30 5506 C 506.087 -2.81647 1.36542 0
M  V30 5507 C 506.562 -4.01181 2.20947 0
M  V30 5508 N 508.053 -4.08388 2.18571 0
M  V30 5509 C 508.788 -5.00036 2.80627 0
M  V30 5510 N 508.284 -5.96906 3.51674 0
M  V30 5511 N 510.077 -4.92908 2.70181 0
M  V30 5512 H 502.228 -1.16113 1.77852 0
M  V30 5513 H 504.491 -0.56947 0.757897 0
M  V30 5514 H 504.197 -2.55551 2.41633 0
M  V30 5515 H 504.071 -3.62779 1.03303 0
M  V30 5516 H 506.458 -2.93303 0.325163 0
M  V30 5517 H 506.539 -1.87443 1.74066 0
M  V30 5518 H 506.183 -3.90286 3.25022 0
M  V30 5519 H 506.113 -4.94599 1.80774 0
M  V30 5520 H 508.604 -3.39051 1.66891 0
M  V30 5521 H 508.917 -6.63468 3.96271 0
M  V30 5522 H 507.262 -5.9703 3.5578 0
M  V30 5523 H 510.453 -4.1619 2.14251 0
M  V30 5524 H 510.626 -5.64137 3.18831 0
M  V30 5525 N 504.032 -0.577932 -1.46621 0
M  V30 5526 C 505.278 -0.0700937 -2.03279 0
M  V30 5527 C 505.633 1.27376 -1.44198 0
M  V30 5528 O 504.926 1.82097 -0.595911 0
M  V30 5529 C 505.12 0.0590832 -3.57351 0
M  V30 5530 C 504.949 -1.2707 -4.31374 0
M  V30 5531 C 503.719 -1.84357 -4.70469 0
M  V30 5532 C 505.917 -2.19278 -4.65211 0
M  V30 5533 N 503.899 -3.11124 -5.29221 0
M  V30 5534 C 505.27 -3.30631 -5.24484 0
M  V30 5535 C 507.325 -2.19018 -4.47142 0
M  V30 5536 C 506.028 -4.41849 -5.67593 0
M  V30 5537 C 508.054 -3.29262 -4.91264 0
M  V30 5538 C 507.416 -4.39335 -5.50604 0
M  V30 5539 H 503.515 -0.0683127 -0.779011 0
M  V30 5540 H 506.099 -0.76978 -1.78836 0
M  V30 5541 H 504.27 0.727929 -3.81518 0
M  V30 5542 H 506.002 0.57087 -4.00653 0
M  V30 5543 H 502.757 -1.37906 -4.53077 0
M  V30 5544 H 503.181 -3.75794 -5.63123 0
M  V30 5545 H 507.823 -1.35191 -4.00604 0
M  V30 5546 H 505.541 -5.26421 -6.13112 0
M  V30 5547 H 509.127 -3.30172 -4.79038 0
M  V30 5548 H 508.007 -5.23233 -5.84121 0
M  V30 5549 N 505.51 1.54411 -0.315457 0
M  V30 5550 C 506.735 2.05299 0.294496 0
M  V30 5551 C 507.16 1.19052 1.4563 0
M  V30 5552 O 506.518 0.197804 1.80218 0
M  V30 5553 C 506.566 3.5345 0.714549 0
M  V30 5554 O 505.67 3.70175 1.81781 0
M  V30 5555 H 505.011 0.661743 0.0547019 0
M  V30 5556 H 507.541 1.99327 -0.461508 0
M  V30 5557 H 507.551 3.9557 0.999426 0
M  V30 5558 H 506.226 4.1568 -0.135244 0
M  V30 5559 H 504.803 3.3996 1.53236 0
M  V30 5560 N 506.988 0.0434614 1.5754 0
M  V30 5561 C 508.218 -0.640905 1.96408 0
M  V30 5562 C 508.626 -1.65365 0.919297 0
M  V30 5563 O 507.969 -1.83395 -0.105795 0
M  V30 5564 C 508.031 -1.39141 3.31482 0
M  V30 5565 C 507.695 -0.535375 4.53853 0
M  V30 5566 C 508.692 0.195335 5.19533 0
M  V30 5567 C 506.377 -0.468564 5.0011 0
M  V30 5568 C 508.371 0.981377 6.298 0
M  V30 5569 C 506.058 0.321171 6.10255 0
M  V30 5570 C 507.056 1.04484 6.74961 0
M  V30 5571 O 506.744 1.8216 7.8299 0
M  V30 5572 H 506.476 -0.180584 0.651433 0
M  V30 5573 H 509.03 0.103848 2.05137 0
M  V30 5574 H 507.26 -2.18162 3.19284 0
M  V30 5575 H 508.949 -1.96526 3.55151 0
M  V30 5576 H 509.715 0.15314 4.84758 0
M  V30 5577 H 505.594 -1.02142 4.49542 0
M  V30 5578 H 509.138 1.54674 6.80237 0
M  V30 5579 H 505.035 0.365032 6.44467 0
M  V30 5580 H 505.803 1.74289 7.99728 0
M  V30 5581 N 508.466 -1.55915 -0.229846 0
M  V30 5582 C 509.694 -1.82617 -0.972562 0
M  V30 5583 C 510.109 -0.621488 -1.78278 0
M  V30 5584 O 509.466 0.409956 -1.77836 0
M  V30 5585 C 509.517 -3.0774 -1.89679 0
M  V30 5586 O 509.238 -4.23559 -1.11934 0
M  V30 5587 C 510.739 -3.47368 -2.75409 0
M  V30 5588 H 507.959 -0.60727 -0.285419 0
M  V30 5589 H 510.503 -2.02996 -0.247579 0
M  V30 5590 H 508.658 -2.89361 -2.57583 0
M  V30 5591 H 509.072 -4.94586 -1.74599 0
M  V30 5592 H 510.546 -4.37977 -3.35977 0
M  V30 5593 H 511.023 -2.68737 -3.47386 0
M  V30 5594 H 511.629 -3.68158 -2.12931 0
M  V30 5595 N 509.944 0.496216 -1.49584 0
M  V30 5596 C 510.854 1.62352 -1.69349 0
M  V30 5597 C 511.87 1.64184 -0.576147 0
M  V30 5598 O 513.046 1.82517 -0.85144 0
M  V30 5599 C 510.111 2.98698 -1.76013 0
M  V30 5600 C 509.172 3.07454 -2.99617 0
M  V30 5601 C 508.405 4.37296 -3.05953 0
M  V30 5602 O 508.628 5.2637 -2.19752 0
M  V30 5603 O 507.562 4.51124 -3.9846 0
M  V30 5604 H 511.388 1.48606 -2.64859 0
M  V30 5605 H 508.973 0.673022 -1.33382 0
M  V30 5606 H 510.855 3.79725 -1.82721 0
M  V30 5607 H 509.53 3.12696 -0.836828 0
M  V30 5608 H 508.437 2.25597 -2.98424 0
M  V30 5609 H 509.77 2.98385 -3.91443 0
M  V30 5610 N 511.423 1.38739 0.74761 0
M  V30 5611 C 512.672 1.3459 1.50228 0
M  V30 5612 C 512.985 -0.0595592 1.95509 0
M  V30 5613 O 514.191 -0.22361 2.70578 0
M  V30 5614 C 512.647 2.36377 2.71393 0
M  V30 5615 C 512.255 3.82573 2.33113 0
M  V30 5616 C 513.999 2.41281 3.49262 0
M  V30 5617 C 511.906 4.76032 3.50924 0
M  V30 5618 H 510.836 0.500312 0.564096 0
M  V30 5619 H 513.487 1.64324 0.8167 0
M  V30 5620 H 511.869 1.99694 3.41962 0
M  V30 5621 H 513.043 4.28227 1.70171 0
M  V30 5622 H 511.358 3.80844 1.68365 0
M  V30 5623 H 513.955 3.08301 4.36869 0
M  V30 5624 H 514.298 1.43353 3.9084 0
M  V30 5625 H 514.831 2.76793 2.85711 0
M  V30 5626 H 511.57 5.75177 3.14408 0
M  V30 5627 H 511.09 4.35066 4.12889 0
M  V30 5628 H 512.769 4.94331 4.17427 0
M  V30 5629 N 512.901 -0.976442 1.23707 0
M  V30 5630 C 513.811 -2.10359 1.03856 0
M  V30 5631 C 514.827 -1.73991 -0.0180919 0
M  V30 5632 O 516.003 -2.0061 0.178211 0
M  V30 5633 C 513.068 -3.40809 0.636387 0
M  V30 5634 C 512.129 -3.91179 1.76854 0
M  V30 5635 C 511.362 -5.15404 1.38546 0
M  V30 5636 O 511.585 -5.69754 0.27142 0
M  V30 5637 O 510.519 -5.5994 2.20797 0
M  V30 5638 H 514.345 -2.29997 1.98331 0
M  V30 5639 H 511.93 -1.08742 1.02448 0
M  V30 5640 H 513.812 -4.19269 0.423223 0
M  V30 5641 H 512.487 -3.22493 -0.279322 0
M  V30 5642 H 511.394 -3.13819 2.03638 0
M  V30 5643 H 512.727 -4.13958 2.6627 0
M  V30 5644 N 514.379 -1.04941 -1.1758 0
M  V30 5645 C 515.326 -0.648155 -2.21512 0
M  V30 5646 C 516.296 0.348431 -1.62404 0
M  V30 5647 O 517.481 0.240419 -1.89279 0
M  V30 5648 C 514.621 -0.0264291 -3.4509 0
M  V30 5649 C 513.734 -1.07154 -4.185 0
M  V30 5650 C 512.869 -0.417403 -5.29558 0
M  V30 5651 C 511.908 -1.447 -5.94751 0
M  V30 5652 N 511.045 -0.817203 -6.97328 0
M  V30 5653 H 515.885 -1.53891 -2.55189 0
M  V30 5654 H 513.422 -0.769699 -1.25356 0
M  V30 5655 H 515.38 0.351456 -4.15717 0
M  V30 5656 H 514.01 0.827802 -3.12005 0
M  V30 5657 H 513.062 -1.56728 -3.46613 0
M  V30 5658 H 514.374 -1.8532 -4.63096 0
M  V30 5659 H 513.528 0.0142061 -6.06698 0
M  V30 5660 H 512.267 0.396265 -4.86087 0
M  V30 5661 H 511.272 -1.88865 -5.16343 0
M  V30 5662 H 512.497 -2.26252 -6.40302 0
M  V30 5663 H 510.443 -0.0239995 -6.55996 0
M  V30 5664 H 510.36 -1.53644 -7.40223 0
M  V30 5665 H 511.628 -0.410283 -7.7842 0
M  V30 5666 N 515.857 1.33968 -0.830081 0
M  V30 5667 C 517.106 1.97323 -0.417928 0
M  V30 5668 C 517.419 1.6652 1.02618 0
M  V30 5669 O 518.625 2.2342 1.54259 0
M  V30 5670 C 517.081 3.53099 -0.696359 0
M  V30 5671 C 516.689 3.92788 -2.15457 0
M  V30 5672 C 518.433 4.23049 -0.350724 0
M  V30 5673 C 516.34 5.41506 -2.37751 0
M  V30 5674 H 515.27 0.738409 -0.152541 0
M  V30 5675 H 517.921 1.52711 -1.01744 0
M  V30 5676 H 516.303 3.95991 -0.0265904 0
M  V30 5677 H 517.477 3.6098 -2.86408 0
M  V30 5678 H 515.792 3.35795 -2.46232 0
M  V30 5679 H 518.389 5.32403 -0.495036 0
M  V30 5680 H 518.732 4.10279 0.705476 0
M  V30 5681 H 519.265 3.85657 -0.975362 0
M  V30 5682 H 516.004 5.5927 -3.41903 0
M  V30 5683 H 515.524 5.74804 -1.7135 0
M  V30 5684 H 517.203 6.0828 -2.20465 0
M  V30 5685 N 517.335 0.585699 1.46312 0
M  V30 5686 C 518.612 0.00542031 1.95599 0
M  V30 5687 C 518.992 -1.45619 1.52834 0
M  V30 5688 O 518.34 -2.14759 0.780446 0
M  V30 5689 C 518.55 0.180601 3.48532 0
M  V30 5690 C 519.898 0.049979 4.24571 0
M  V30 5691 O 520.922 0.109589 3.56031 0
M  V30 5692 O 519.781 -0.0832226 5.46437 0
M  V30 5693 H 516.875 -0.0481281 0.825598 0
M  V30 5694 H 519.421 0.654227 1.56582 0
M  V30 5695 H 518.193 1.19657 3.72556 0
M  V30 5696 H 517.816 -0.504498 3.94386 0
M  V30 5697 N 518.813 -1.54241 0.323641 0
M  V30 5698 C 520.062 -1.9975 -0.279806 0
M  V30 5699 C 520.375 -1.2156 -1.5324 0
M  V30 5700 O 521.581 -1.57447 -2.21185 0
M  V30 5701 C 520.037 -3.55686 -0.549115 0
M  V30 5702 C 519.645 -4.4271 0.686432 0
M  V30 5703 C 521.389 -4.09663 -1.11251 0
M  V30 5704 C 519.296 -5.90119 0.389022 0
M  V30 5705 H 518.226 -0.746177 -0.10833 0
M  V30 5706 H 520.877 -1.78248 0.435877 0
M  V30 5707 H 519.259 -3.73176 -1.32499 0
M  V30 5708 H 520.433 -4.36996 1.46188 0
M  V30 5709 H 518.748 -3.99623 1.17005 0
M  V30 5710 H 521.345 -5.17386 -1.34965 0
M  V30 5711 H 521.688 -3.61651 -2.06191 0
M  V30 5712 H 522.221 -3.95806 -0.39782 0
M  V30 5713 H 518.96 -6.42326 1.30759 0
M  V30 5714 H 518.48 -5.98785 -0.348722 0
M  V30 5715 H 520.159 -6.47 -0.0011164 0
M  V30 5716 N 520.291 -0.0518155 -1.57515 0
M  V30 5717 C 521.223 0.951542 -2.08515 0
M  V30 5718 C 522.236 1.27436 -1.01311 0
M  V30 5719 O 523.425 1.23504 -1.28876 0
M  V30 5720 C 520.525 2.27291 -2.5138 0
M  V30 5721 C 519.698 2.13191 -3.81927 0
M  V30 5722 C 518.757 3.28458 -4.11098 0
M  V30 5723 O 517.783 3.04334 -4.81009 0
M  V30 5724 N 518.985 4.52954 -3.63061 0
M  V30 5725 H 521.75 0.516242 -2.9522 0
M  V30 5726 H 519.311 0.13441 -1.61341 0
M  V30 5727 H 521.303 3.03272 -2.67971 0
M  V30 5728 H 519.873 2.62386 -1.69919 0
M  V30 5729 H 519.093 1.21798 -3.74912 0
M  V30 5730 H 520.381 2.00999 -4.67415 0
M  V30 5731 H 519.779 4.75444 -3.06545 0
M  V30 5732 H 518.336 5.26026 -3.84889 0
M  V30 5733 N 521.769 1.56035 0.221574 0
M  V30 5734 C 522.679 1.95581 1.29558 0
M  V30 5735 C 523.695 0.859639 1.51282 0
M  V30 5736 O 524.871 1.16321 1.64413 0
M  V30 5737 C 521.936 2.26447 2.62531 0
M  V30 5738 C 520.997 3.49632 2.4911 0
M  V30 5739 C 520.23 3.79017 3.75742 0
M  V30 5740 O 520.453 3.10077 4.78757 0
M  V30 5741 O 519.387 4.72507 3.72855 0
M  V30 5742 H 523.213 2.8711 0.990035 0
M  V30 5743 H 520.798 1.43244 0.424434 0
M  V30 5744 H 522.68 2.47494 3.41064 0
M  V30 5745 H 521.355 1.38092 2.92766 0
M  V30 5746 H 520.262 3.33864 1.68777 0
M  V30 5747 H 521.595 4.3837 2.23814 0
M  V30 5748 N 523.247 -0.488276 1.49845 0
M  V30 5749 C 524.496 -1.23826 1.59217 0
M  V30 5750 C 524.809 -1.93439 0.289966 0
M  V30 5751 O 526.015 -2.70229 0.262382 0
M  V30 5752 C 524.471 -2.24902 2.80976 0
M  V30 5753 C 524.079 -1.6117 4.18005 0
M  V30 5754 C 525.823 -3.00648 2.99685 0
M  V30 5755 C 523.73 -2.60431 5.3097 0
M  V30 5756 H 522.66 -0.465858 0.592868 0
M  V30 5757 H 525.311 -0.510645 1.76252 0
M  V30 5758 H 523.693 -3.0088 2.57463 0
M  V30 5759 H 524.867 -0.910968 4.51706 0
M  V30 5760 H 523.182 -0.97767 4.0476 0
M  V30 5761 H 525.779 -3.74903 3.81251 0
M  V30 5762 H 526.122 -3.5902 2.10738 0
M  V30 5763 H 526.655 -2.31784 3.23297 0
M  V30 5764 H 523.394 -2.06823 6.22017 0
M  V30 5765 H 522.914 -3.28707 5.01709 0
M  V30 5766 H 524.593 -3.22606 5.60834 0
M  V30 5767 N 524.725 -1.39134 -0.740242 0
M  V30 5768 C 526.002 -1.26584 -1.49117 0
M  V30 5769 C 526.382 0.126902 -2.10718 0
M  V30 5770 O 525.73 1.13765 -1.98166 0
M  V30 5771 C 525.94 -2.38619 -2.54681 0
M  V30 5772 C 527.288 -2.77685 -3.21211 0
M  V30 5773 O 528.312 -2.38029 -2.64991 0
M  V30 5774 O 527.171 -3.46115 -4.22926 0
M  V30 5775 H 524.265 -0.495769 -0.661923 0
M  V30 5776 H 526.811 -1.50995 -0.774514 0
M  V30 5777 H 525.583 -3.3175 -2.07504 0
M  V30 5778 H 525.206 -2.15845 -3.33911 0
M  V30 5779 N 526.204 0.969867 -1.24223 0
M  V30 5780 C 527.615 1.52717 -1.07399 0
M  V30 5781 C 527.966 1.92956 0.355298 0
M  V30 5782 O 527.091 1.77112 1.2434 0
M  V30 5783 C 527.686 2.77521 -1.94339 0
M  V30 5784 C 526.245 3.29615 -1.81744 0
M  V30 5785 C 525.392 2.02537 -1.89405 0
M  V30 5786 H 528.343 0.788399 -1.37732 0
M  V30 5787 H 528.364 3.50773 -1.47439 0
M  V30 5788 H 527.876 2.48203 -2.98357 0
M  V30 5789 H 525.977 3.63789 -0.805505 0
M  V30 5790 H 526.09 3.98661 -2.65718 0
M  V30 5791 H 524.454 2.17151 -1.33108 0
M  V30 5792 H 525.237 1.75587 -2.94999 0
M  V30 5793 N 527.682 1.05563 1.17022 0
M  V30 5794 C 528.612 0.681026 2.23348 0
M  V30 5795 C 529.593 -0.322983 1.67005 0
M  V30 5796 O 530.778 -0.199746 1.9317 0
M  V30 5797 C 527.908 0.0589053 3.4725 0
M  V30 5798 C 526.862 0.988082 4.16438 0
M  V30 5799 C 526.188 0.229646 5.34207 0
M  V30 5800 C 527.488 2.31388 4.68249 0
M  V30 5801 H 529.182 1.56993 2.54938 0
M  V30 5802 H 526.728 0.756302 1.2254 0
M  V30 5803 H 528.681 -0.214982 4.20851 0
M  V30 5804 H 527.405 -0.864968 3.14938 0
M  V30 5805 H 526.064 1.24659 3.44754 0
M  V30 5806 H 525.712 -0.697111 4.98146 0
M  V30 5807 H 525.412 0.848815 5.81437 0
M  V30 5808 H 526.936 -0.0368694 6.10589 0
M  V30 5809 H 528.35 2.09964 5.33468 0
M  V30 5810 H 526.747 2.88736 5.26072 0
M  V30 5811 H 527.817 2.94982 3.84855 0
M  V30 5812 N 529.16 -1.33526 0.837174 0
M  V30 5813 C 530.385 -2.0258 0.444545 0
M  V30 5814 C 530.81 -1.6258 -0.946006 0
M  V30 5815 O 530.168 -0.817548 -1.6182 0
M  V30 5816 C 530.216 -3.5605 0.571006 0
M  V30 5817 O 529.32 -4.10422 -0.403431 0
M  V30 5818 H 528.661 -0.638866 0.180958 0
M  V30 5819 H 531.191 -1.70462 1.13154 0
M  V30 5820 H 531.201 -4.05488 0.452024 0
M  V30 5821 H 529.876 -3.84509 1.58512 0
M  V30 5822 H 528.453 -3.72113 -0.242147 0
M  V30 5823 N 530.638 -0.59345 -1.46 0
M  V30 5824 C 531.868 -0.0889642 -2.06408 0
M  V30 5825 C 532.276 1.22597 -1.44106 0
M  V30 5826 O 531.619 1.75448 -0.544398 0
M  V30 5827 C 531.681 0.139902 -3.59228 0
M  V30 5828 C 531.345 -1.09107 -4.43784 0
M  V30 5829 C 532.342 -2.00577 -4.79651 0
M  V30 5830 C 530.027 -1.31593 -4.84756 0
M  V30 5831 C 532.021 -3.12873 -5.55328 0
M  V30 5832 C 529.708 -2.44192 -5.60191 0
M  V30 5833 C 530.706 -3.34661 -5.95392 0
M  V30 5834 O 530.394 -4.45302 -6.69299 0
M  V30 5835 H 530.126 -0.0594613 -0.67338 0
M  V30 5836 H 532.68 -0.817 -1.88452 0
M  V30 5837 H 530.91 0.922672 -3.75531 0
M  V30 5838 H 532.599 0.594228 -4.01527 0
M  V30 5839 H 533.365 -1.84425 -4.48567 0
M  V30 5840 H 529.244 -0.620801 -4.56801 0
M  V30 5841 H 532.788 -3.83511 -5.82722 0
M  V30 5842 H 528.685 -2.60303 -5.90688 0
M  V30 5843 H 529.453 -4.43805 -6.87735 0
M  V30 5844 N 532.116 1.54067 -0.331816 0
M  V30 5845 C 533.064 2.26105 0.54582 0
M  V30 5846 C 534.058 1.27816 1.11173 0
M  V30 5847 O 535.264 1.45565 1.05882 0
M  V30 5848 H 531.639 0.726363 0.194683 0
M  V30 5849 H 533.61 2.98282 -0.083931 0
M  V30 5850 C 532.359 3.03814 1.69092 0
M  V30 5851 H 531.682 3.79269 1.26473 0
M  V30 5852 H 533.122 3.57453 2.28043 0
M  V30 5853 C 531.581 2.12606 2.61343 0
M  V30 5854 O 532.111 1.71437 3.6328 0
M  V30 5855 N 530.317 1.77925 2.29763 0
M  V30 5856 H 529.864 2.11602 1.46909 0
M  V30 5857 H 529.822 1.1718 2.91747 0
M  V30 5858 N 533.594 0.0601682 1.57485 0
M  V30 5859 C 534.824 -0.620037 1.97076 0
M  V30 5860 C 535.232 -1.64381 0.936784 0
M  V30 5861 O 534.575 -1.83497 -0.0863377 0
M  V30 5862 C 534.637 -1.35617 3.32939 0
M  V30 5863 C 534.301 -0.487208 4.54396 0
M  V30 5864 C 535.298 0.250428 5.19297 0
M  V30 5865 C 532.983 -0.415494 5.00579 0
M  V30 5866 C 534.977 1.04812 6.28723 0
M  V30 5867 C 532.664 0.385879 6.0988 0
M  V30 5868 C 533.662 1.11637 6.73815 0
M  V30 5869 O 533.35 1.90454 7.81014 0
M  V30 5870 H 533.082 -0.173664 0.653312 0
M  V30 5871 H 535.636 0.1256 2.05016 0
M  V30 5872 H 533.866 -2.14763 3.2158 0
M  V30 5873 H 535.555 -1.92749 3.57215 0
M  V30 5874 H 536.321 0.204546 4.84568 0
M  V30 5875 H 532.2 -0.973679 4.506 0
M  V30 5876 H 535.744 1.6188 6.78558 0
M  V30 5877 H 531.641 0.433366 6.44044 0
M  V30 5878 H 532.409 1.82762 7.97835 0
M  V30 5879 N 535.072 -1.5615 -0.213296 0
M  V30 5880 C 536.321 -1.78743 -0.93455 0
M  V30 5881 C 536.634 -0.630199 -1.8517 0
M  V30 5882 O 537.84 -0.739966 -2.61222 0
M  V30 5883 C 536.296 -3.16571 -1.71203 0
M  V30 5884 C 535.904 -4.40043 -0.840617 0
M  V30 5885 C 537.648 -3.48485 -2.42401 0
M  V30 5886 C 535.555 -5.68895 -1.61592 0
M  V30 5887 H 534.485 -0.666426 -0.352692 0
M  V30 5888 H 537.136 -1.82532 -0.188227 0
M  V30 5889 H 535.518 -3.06981 -2.50157 0
M  V30 5890 H 536.692 -4.6071 -0.0910326 0
M  V30 5891 H 535.007 -4.15706 -0.240365 0
M  V30 5892 H 537.604 -4.41983 -3.00924 0
M  V30 5893 H 537.947 -2.71371 -3.15695 0
M  V30 5894 H 538.48 -3.59442 -1.7043 0
M  V30 5895 H 535.219 -6.48925 -0.926106 0
M  V30 5896 H 534.739 -5.52275 -2.33991 0
M  V30 5897 H 536.418 -6.09365 -2.17447 0
M  V30 5898 N 536.55 0.480323 -1.50102 0
M  V30 5899 C 537.961 1.06142 -1.53593 0
M  V30 5900 C 538.312 1.93335 -0.334055 0
M  V30 5901 O 537.437 2.09188 0.55403 0
M  V30 5902 C 538.032 1.9317 -2.78336 0
M  V30 5903 C 536.591 2.46405 -2.84538 0
M  V30 5904 C 535.738 1.24521 -2.4777 0
M  V30 5905 H 538.689 0.26333 -1.565 0
M  V30 5906 H 538.71 2.78123 -2.59669 0
M  V30 5907 H 538.222 1.29683 -3.65792 0
M  V30 5908 H 536.323 3.13472 -2.01411 0
M  V30 5909 H 536.436 2.82143 -3.87211 0
M  V30 5910 H 534.8 1.57706 -2.00003 0
M  V30 5911 H 535.583 0.627102 -3.37524 0
M  V30 5912 N 538.028 1.39524 0.732853 0
M  V30 5913 C 539.277 1.36175 1.48792 0
M  V30 5914 C 539.59 -0.0388195 1.95561 0
M  V30 5915 O 540.796 -0.194899 2.708 0
M  V30 5916 C 539.252 2.39242 2.68871 0
M  V30 5917 C 538.86 3.85024 2.29042 0
M  V30 5918 C 540.604 2.44972 3.46683 0
M  V30 5919 C 538.511 4.79727 3.45856 0
M  V30 5920 H 537.441 0.506267 0.558757 0
M  V30 5921 H 540.092 1.65181 0.799226 0
M  V30 5922 H 538.474 2.0331 3.39825 0
M  V30 5923 H 539.648 4.30008 1.6562 0
M  V30 5924 H 537.963 3.82609 1.64316 0
M  V30 5925 H 540.56 3.12918 4.33574 0
M  V30 5926 H 540.903 1.4749 3.89297 0
M  V30 5927 H 541.436 2.79808 2.82759 0
M  V30 5928 H 538.175 5.78479 3.08289 0
M  V30 5929 H 537.695 4.39421 4.08251 0
M  V30 5930 H 539.374 4.98731 4.12161 0
M  V30 5931 N 539.506 -0.963266 1.24736 0
M  V30 5932 C 540.454 -2.07985 1.04139 0
M  V30 5933 C 541.448 -1.69381 -0.0250556 0
M  V30 5934 O 542.654 -1.79531 0.129863 0
M  V30 5935 H 539.029 -0.680627 0.319768 0
M  V30 5936 H 541 -2.22517 1.98818 0
M  V30 5937 C 539.749 -3.4123 0.667615 0
M  V30 5938 H 539.072 -3.71397 1.48 0
M  V30 5939 H 540.512 -4.20244 0.563136 0
M  V30 5940 C 538.971 -3.3104 -0.625647 0
M  V30 5941 O 539.501 -3.65334 -1.67016 0
M  V30 5942 N 537.707 -2.84168 -0.608033 0
M  V30 5943 H 537.254 -2.56458 0.242323 0
M  V30 5944 H 537.212 -2.77732 -1.47352 0
M  V30 5945 N 540.985 -1.06182 -1.16461 0
M  V30 5946 C 542.21 -0.798599 -1.91408 0
M  V30 5947 C 542.635 0.640987 -1.76842 0
M  V30 5948 O 541.993 1.44652 -1.09296 0
M  V30 5949 C 542.041 -1.19665 -3.40165 0
M  V30 5950 O 541.145 -0.334768 -4.11039 0
M  V30 5951 H 540.486 -0.291961 -0.596368 0
M  V30 5952 H 543.016 -1.41732 -1.47557 0
M  V30 5953 H 543.026 -1.16772 -3.90933 0
M  V30 5954 H 541.701 -2.24526 -3.50087 0
M  V30 5955 H 540.278 -0.425168 -3.70468 0
M  V30 5956 N 542.463 1.3308 -0.844243 0
M  V30 5957 C 543.411 2.31028 -0.269954 0
M  V30 5958 C 544.405 1.58381 0.600997 0
M  V30 5959 O 545.611 1.73203 0.48996 0
M  V30 5960 H 541.986 0.748866 -0.0685782 0
M  V30 5961 H 543.957 2.76967 -1.11049 0
M  V30 5962 C 542.706 3.43549 0.535676 0
M  V30 5963 H 542.029 3.99604 -0.125202 0
M  V30 5964 H 543.469 4.14267 0.903262 0
M  V30 5965 C 541.928 2.8988 1.71672 0
M  V30 5966 O 542.458 2.86511 2.81557 0
M  V30 5967 N 540.664 2.46416 1.54037 0
M  V30 5968 H 540.211 2.49356 0.64649 0
M  V30 5969 H 540.169 2.1086 2.33207 0
M  V30 5970 N 543.941 0.601185 1.45683 0
M  V30 5971 C 545.218 0.0261659 1.95582 0
M  V30 5972 C 545.598 -1.4399 1.5437 0
M  V30 5973 O 544.946 -2.13919 0.80318 0
M  V30 5974 C 545.156 0.217557 3.48321 0
M  V30 5975 C 546.504 0.0950076 4.24494 0
M  V30 5976 O 547.528 0.147345 3.55895 0
M  V30 5977 O 546.387 -0.025261 5.46494 0
M  V30 5978 H 543.481 -0.0393688 0.826062 0
M  V30 5979 H 546.027 0.670798 1.55879 0
M  V30 5980 H 544.799 1.23601 3.71266 0
M  V30 5981 H 544.422 -0.46264 3.94899 0
M  V30 5982 N 545.419 -1.53889 0.339982 0
M  V30 5983 C 546.367 -2.26391 -0.533822 0
M  V30 5984 C 547.361 -1.28404 -1.10493 0
M  V30 5985 O 548.567 -1.46124 -1.05108 0
M  V30 5986 H 544.942 -0.727385 -0.190828 0
M  V30 5987 H 546.913 -2.98233 0.0997484 0
M  V30 5988 C 545.662 -3.04707 -1.67479 0
M  V30 5989 H 544.985 -3.79934 -1.2446 0
M  V30 5990 H 546.425 -3.58657 -2.26144 0
M  V30 5991 C 544.884 -2.13989 -2.60212 0
M  V30 5992 O 545.414 -1.73361 -3.62366 0
M  V30 5993 N 543.62 -1.79141 -2.28816 0
M  V30 5994 H 543.167 -2.12378 -1.45785 0
M  V30 5995 H 543.125 -1.18725 -2.91121 0
M  V30 5996 N 546.897 -0.0685191 -1.57451 0
M  V30 5997 C 547.807 0.914677 -2.16034 0
M  V30 5998 C 548.823 1.32938 -1.12265 0
M  V30 5999 O 549.999 1.40275 -1.44516 0
M  V30 6000 C 547.064 2.16519 -2.70777 0
M  V30 6001 C 546.125 1.80721 -3.89408 0
M  V30 6002 C 545.358 2.9981 -4.41531 0
M  V30 6003 O 545.581 4.13727 -3.92666 0
M  V30 6004 O 544.515 2.79817 -5.32903 0
M  V30 6005 H 548.341 0.446364 -3.00402 0
M  V30 6006 H 545.926 0.154367 -1.486 0
M  V30 6007 H 547.808 2.89856 -3.05878 0
M  V30 6008 H 546.483 2.62454 -1.89471 0
M  V30 6009 H 545.39 1.04646 -3.59166 0
M  V30 6010 H 546.723 1.39571 -4.71997 0
M  V30 6011 N 548.375 1.56261 0.205012 0
M  V30 6012 C 549.6 1.84491 0.947512 0
M  V30 6013 C 550.025 0.650894 1.76479 0
M  V30 6014 O 549.383 -0.40035 1.76824 0
M  V30 6015 C 549.431 3.10863 1.82747 0
M  V30 6016 O 548.535 2.90719 2.925 0
M  V30 6017 H 547.876 0.607783 0.267386 0
M  V30 6018 H 550.406 2.03485 0.213323 0
M  V30 6019 H 550.416 3.41399 2.23407 0
M  V30 6020 H 549.091 3.97392 1.2269 0
M  V30 6021 H 547.668 2.71457 2.55667 0
M  V30 6022 N 549.853 -0.472356 1.50355 0
M  V30 6023 C 551.269 -0.806001 1.37753 0
M  V30 6024 C 551.469 -1.968 0.432649 0
M  V30 6025 O 550.525 -2.52189 -0.12519 0
M  V30 6026 C 551.838 -1.11926 2.79093 0
M  V30 6027 C 553.386 -1.22579 2.87999 0
M  V30 6028 C 553.861 -1.57218 4.3017 0
M  V30 6029 N 555.352 -1.64212 4.33115 0
M  V30 6030 C 556.087 -1.92517 5.40116 0
M  V30 6031 N 555.583 -2.1885 6.57325 0
M  V30 6032 N 557.376 -1.94008 5.27558 0
M  V30 6033 H 549.527 0.293451 2.10363 0
M  V30 6034 H 551.79 0.0687672 0.945503 0
M  V30 6035 H 551.496 -0.338504 3.50067 0
M  V30 6036 H 551.37 -2.05577 3.16256 0
M  V30 6037 H 553.757 -1.99722 2.17245 0
M  V30 6038 H 553.838 -0.269107 2.54381 0
M  V30 6039 H 553.482 -0.806154 5.01461 0
M  V30 6040 H 553.412 -2.54034 4.61275 0
M  V30 6041 H 555.903 -1.45906 3.48597 0
M  V30 6042 H 556.216 -2.39718 7.3468 0
M  V30 6043 H 554.561 -2.16245 6.60502 0
M  V30 6044 H 557.752 -1.72931 4.34986 0
M  V30 6045 H 557.925 -2.15731 6.11035 0
M  V30 6046 N 551.331 -1.39911 -0.725443 0
M  V30 6047 C 552.261 -1.42138 -1.85254 0
M  V30 6048 C 553.242 -0.283513 -1.67721 0
M  V30 6049 O 554.427 -0.490717 -1.87898 0
M  V30 6050 C 551.557 -1.27354 -3.23107 0
M  V30 6051 C 550.511 -2.3864 -3.55296 0
M  V30 6052 C 549.837 -2.08939 -4.92188 0
M  V30 6053 C 551.137 -3.8097 -3.57295 0
M  V30 6054 H 552.831 -2.36461 -1.83648 0
M  V30 6055 H 550.377 -1.13817 -0.882138 0
M  V30 6056 H 552.33 -1.2753 -4.01639 0
M  V30 6057 H 551.054 -0.295025 -3.25265 0
M  V30 6058 H 549.713 -2.37696 -2.79099 0
M  V30 6059 H 549.361 -1.09502 -4.90936 0
M  V30 6060 H 549.061 -2.83491 -5.14691 0
M  V30 6061 H 550.585 -2.10781 -5.73065 0
M  V30 6062 H 551.999 -3.8379 -4.25885 0
M  V30 6063 H 550.396 -4.5496 -3.9132 0
M  V30 6064 H 551.466 -4.11261 -2.5689 0
M  V30 6065 N 552.809 0.956637 -1.25245 0
M  V30 6066 C 554.039 1.7332 -1.12445 0
M  V30 6067 C 554.447 1.86392 0.324732 0
M  V30 6068 O 553.79 1.35967 1.23526 0
M  V30 6069 C 553.852 3.16603 -1.70303 0
M  V30 6070 C 553.516 3.26966 -3.19284 0
M  V30 6071 C 554.513 3.11434 -4.16299 0
M  V30 6072 C 552.198 3.50851 -3.59456 0
M  V30 6073 C 554.192 3.1963 -5.51467 0
M  V30 6074 C 551.879 3.58684 -4.94761 0
M  V30 6075 C 552.877 3.43087 -5.90576 0
M  V30 6076 O 552.565 3.50598 -7.2342 0
M  V30 6077 H 552.297 0.549981 -0.393061 0
M  V30 6078 H 554.851 1.20892 -1.66055 0
M  V30 6079 H 553.081 3.70385 -1.11138 0
M  V30 6080 H 554.77 3.76109 -1.52632 0
M  V30 6081 H 555.536 2.92853 -3.86604 0
M  V30 6082 H 551.415 3.62053 -2.85375 0
M  V30 6083 H 554.959 3.07373 -6.26233 0
M  V30 6084 H 550.856 3.76782 -5.24124 0
M  V30 6085 H 551.624 3.67242 -7.31489 0
M  V30 6086 N 554.287 1.06798 1.15896 0
M  V30 6087 C 555.515 0.808694 1.90441 0
M  V30 6088 C 555.93 -0.637506 1.77711 0
M  V30 6089 O 555.287 -1.43684 1.12522 0
M  V30 6090 C 555.338 1.20068 3.40978 0
M  V30 6091 O 555.059 2.59013 3.53333 0
M  V30 6092 C 556.56 0.96987 4.3256 0
M  V30 6093 H 553.78 0.292809 0.603742 0
M  V30 6094 H 556.324 1.42296 1.46874 0
M  V30 6095 H 554.479 0.630842 3.82229 0
M  V30 6096 H 554.893 2.7485 4.46719 0
M  V30 6097 H 556.367 1.29371 5.36626 0
M  V30 6098 H 556.844 -0.0941209 4.39099 0
M  V30 6099 H 557.45 1.52433 3.97044 0
M  V30 6100 N 555.766 -1.3263 0.851289 0
M  V30 6101 C 557.182 -1.50162 0.5407 0
M  V30 6102 C 557.382 -1.78788 -0.929369 0
M  V30 6103 O 556.438 -1.85545 -1.71258 0
M  V30 6104 C 557.751 -2.64803 1.42478 0
M  V30 6105 C 559.299 -2.78688 1.42485 0
M  V30 6106 C 559.774 -3.96405 2.29407 0
M  V30 6107 N 561.265 -4.0366 2.27184 0
M  V30 6108 C 562 -4.93971 2.9117 0
M  V30 6109 N 561.496 -5.89313 3.64256 0
M  V30 6110 N 563.289 -4.87066 2.80576 0
M  V30 6111 H 555.44 -1.12315 1.80275 0
M  V30 6112 H 557.703 -0.553266 0.769806 0
M  V30 6113 H 557.409 -2.50368 2.46999 0
M  V30 6114 H 557.283 -3.60506 1.10974 0
M  V30 6115 H 559.67 -2.92547 0.387304 0
M  V30 6116 H 559.751 -1.83708 1.78002 0
M  V30 6117 H 559.395 -3.83304 3.33228 0
M  V30 6118 H 559.325 -4.90654 1.91224 0
M  V30 6119 H 561.816 -3.35435 1.74045 0
M  V30 6120 H 562.129 -6.54913 4.10255 0
M  V30 6121 H 560.474 -5.8935 3.68364 0
M  V30 6122 H 563.665 -4.11552 2.23031 0
M  V30 6123 H 563.838 -5.57248 3.30725 0
M  V30 6124 N 557.244 -0.608902 -1.45362 0
M  V30 6125 C 558.49 -0.104762 -2.02529 0
M  V30 6126 C 558.823 1.26191 -1.47613 0
M  V30 6127 O 558.098 1.8327 -0.65134 0
M  V30 6128 C 558.381 -0.0672661 -3.60037 0
M  V30 6129 C 558.234 -1.4647 -4.25284 0
M  V30 6130 C 559.553 0.619877 -4.35713 0
M  V30 6131 H 556.672 -0.0395438 -0.735938 0
M  V30 6132 H 559.314 -0.781126 -1.73201 0
M  V30 6133 H 557.464 0.50871 -3.85155 0
M  V30 6134 H 559.136 -2.08785 -4.11347 0
M  V30 6135 H 557.379 -2.02502 -3.83634 0
M  V30 6136 H 558.05 -1.39069 -5.34195 0
M  V30 6137 H 560.526 0.130297 -4.15896 0
M  V30 6138 H 559.402 0.615224 -5.45441 0
M  V30 6139 H 559.663 1.68621 -4.0868 0
M  V30 6140 N 558.722 1.53707 -0.348139 0
M  V30 6141 C 559.952 2.05108 0.247864 0
M  V30 6142 C 560.36 1.22252 1.44399 0
M  V30 6143 O 559.703 0.251853 1.81965 0
M  V30 6144 C 559.765 3.52171 0.722187 0
M  V30 6145 C 559.429 4.5562 -0.354902 0
M  V30 6146 C 560.426 5.05883 -1.19911 0
M  V30 6147 C 558.111 4.99703 -0.510145 0
M  V30 6148 C 560.105 5.98814 -2.18406 0
M  V30 6149 C 557.792 5.92443 -1.49848 0
M  V30 6150 C 558.79 6.41887 -2.33389 0
M  V30 6151 O 558.478 7.32802 -3.3054 0
M  V30 6152 H 558.21 0.674086 0.0508296 0
M  V30 6153 H 560.764 1.99229 -0.49968 0
M  V30 6154 H 558.994 3.55529 1.52105 0
M  V30 6155 H 560.683 3.8652 1.23925 0
M  V30 6156 H 561.449 4.72586 -1.09028 0
M  V30 6157 H 557.328 4.60816 0.130274 0
M  V30 6158 H 560.872 6.3733 -2.83649 0
M  V30 6159 H 556.769 6.25155 -1.60786 0
M  V30 6160 H 557.537 7.50749 -3.26064 0
M  V30 6161 N 560.2 0.0768682 1.57412 0
M  V30 6162 C 561.132 -0.918248 2.10002 0
M  V30 6163 C 562.145 -1.25808 1.03325 0
M  V30 6164 O 563.334 -1.21438 1.30824 0
M  V30 6165 C 560.434 -2.23263 2.54964 0
M  V30 6166 C 559.607 -2.07088 3.8527 0
M  V30 6167 C 558.666 -3.21876 4.16272 0
M  V30 6168 O 557.692 -2.96643 4.8579 0
M  V30 6169 N 558.894 -4.4712 3.70221 0
M  V30 6170 H 561.659 -0.469209 2.96004 0
M  V30 6171 H 559.22 -0.108725 1.61535 0
M  V30 6172 H 561.212 -2.9897 2.72762 0
M  V30 6173 H 559.782 -2.59649 1.74072 0
M  V30 6174 H 559.002 -1.15818 3.76802 0
M  V30 6175 H 560.29 -1.93537 4.70554 0
M  V30 6176 H 559.688 -4.70506 3.1407 0
M  V30 6177 H 558.245 -5.19837 3.93209 0
M  V30 6178 N 561.678 -1.56367 -0.196722 0
M  V30 6179 C 562.588 -1.97617 -1.2643 0
M  V30 6180 C 563.604 -0.883598 -1.49895 0
M  V30 6181 O 564.78 -1.18921 -1.62541 0
M  V30 6182 C 561.845 -2.30595 -2.58895 0
M  V30 6183 C 560.906 -3.53551 -2.43516 0
M  V30 6184 C 560.139 -3.84946 -3.69665 0
M  V30 6185 O 560.362 -3.17655 -4.73763 0
M  V30 6186 O 559.296 -4.78379 -3.65291 0
M  V30 6187 H 563.122 -2.88648 -0.944233 0
M  V30 6188 H 560.707 -1.43901 -0.401592 0
M  V30 6189 H 562.589 -2.52889 -3.37083 0
M  V30 6190 H 561.264 -1.42732 -2.90533 0
M  V30 6191 H 560.171 -3.36507 -1.63445 0
M  V30 6192 H 561.504 -4.41875 -2.16812 0
M  V30 6193 N 563.156 0.464375 -1.50603 0
M  V30 6194 C 564.381 1.24372 -1.65971 0
M  V30 6195 C 564.806 1.84901 -0.345453 0
M  V30 6196 O 564.164 1.67596 0.691457 0
M  V30 6197 C 564.212 2.32331 -2.7578 0
M  V30 6198 O 563.316 3.37146 -2.375 0
M  V30 6199 H 562.657 0.365604 -0.554283 0
M  V30 6200 H 565.187 0.55183 -1.97018 0
M  V30 6201 H 565.197 2.77539 -2.99059 0
M  V30 6202 H 563.872 1.87648 -3.71162 0
M  V30 6203 H 562.449 2.97602 -2.24694 0
M  V30 6204 N 564.634 1.40294 0.718013 0
M  V30 6205 C 565.566 1.36281 1.84283 0
M  V30 6206 C 566.579 0.268621 1.60569 0
M  V30 6207 O 567.768 0.528798 1.70487 0
M  V30 6208 C 564.868 1.09741 3.2064 0
M  V30 6209 C 564.041 2.30767 3.71571 0
M  V30 6210 C 563.1 2.00424 4.86535 0
M  V30 6211 O 562.126 2.73268 4.99313 0
M  V30 6212 N 563.328 0.980724 5.72156 0
M  V30 6213 H 566.093 2.3322 1.88225 0
M  V30 6214 H 563.654 1.34616 0.899453 0
M  V30 6215 H 565.646 0.874322 3.95143 0
M  V30 6216 H 564.216 0.214771 3.11861 0
M  V30 6217 H 563.436 2.68921 2.88228 0
M  V30 6218 H 564.724 3.11455 4.02335 0
M  V30 6219 H 564.122 0.377375 5.6444 0
M  V30 6220 H 562.679 0.817538 6.46653 0
M  V30 6221 N 566.112 -0.949982 1.2575 0
M  V30 6222 C 567.358 -1.69766 1.10938 0
M  V30 6223 C 567.691 -1.91056 -0.348028 0
M  V30 6224 O 566.966 -1.48488 -1.25625 0
M  V30 6225 C 567.249 -3.07779 1.86933 0
M  V30 6226 C 567.102 -2.9387 3.4053 0
M  V30 6227 C 568.421 -4.07749 1.65616 0
M  V30 6228 H 565.54 -0.616144 0.404396 0
M  V30 6229 H 568.182 -1.10394 1.54639 0
M  V30 6230 H 566.332 -3.58462 1.4979 0
M  V30 6231 H 568.004 -2.50476 3.87375 0
M  V30 6232 H 566.247 -2.29686 3.68004 0
M  V30 6233 H 566.918 -3.91719 3.88922 0
M  V30 6234 H 569.394 -3.65994 1.97959 0
M  V30 6235 H 568.27 -5.02348 2.21218 0
M  V30 6236 H 568.531 -4.38029 0.598595 0
M  V30 6237 N 567.59 -1.07411 -1.15328 0
M  V30 6238 C 568.815 -0.818856 -1.90551 0
M  V30 6239 C 569.24 0.622194 -1.77512 0
M  V30 6240 O 568.598 1.43484 -1.10824 0
M  V30 6241 C 568.646 -1.23267 -3.38877 0
M  V30 6242 O 567.75 -0.378345 -4.10661 0
M  V30 6243 H 567.091 -0.29827 -0.593238 0
M  V30 6244 H 569.621 -1.43289 -1.46046 0
M  V30 6245 H 569.631 -1.20912 -3.89672 0
M  V30 6246 H 568.306 -2.28226 -3.47686 0
M  V30 6247 H 566.883 -0.464437 -3.69996 0
M  V30 6248 N 569.068 1.32177 -0.85831 0
M  V30 6249 C 570.479 1.79381 -0.517621 0
M  V30 6250 C 570.83 1.70841 0.964769 0
M  V30 6251 O 569.955 1.26917 1.75274 0
M  V30 6252 C 570.55 3.25706 -0.932801 0
M  V30 6253 C 569.109 3.70851 -0.643953 0
M  V30 6254 C 568.256 2.53208 -1.13054 0
M  V30 6255 H 571.207 1.19424 -1.04516 0
M  V30 6256 H 571.228 3.79673 -0.250674 0
M  V30 6257 H 570.74 3.31889 -2.01174 0
M  V30 6258 H 568.841 3.70178 0.424112 0
M  V30 6259 H 568.954 4.63495 -1.21281 0
M  V30 6260 H 567.318 2.48676 -0.550679 0
M  V30 6261 H 568.101 2.62143 -2.21666 0
M  V30 6262 N 570.547 0.616602 1.45037 0
M  V30 6263 C 571.958 0.199359 1.85633 0
M  V30 6264 C 572.309 -1.24588 1.51566 0
M  V30 6265 O 571.434 -1.94594 0.94668 0
M  V30 6266 C 572.029 0.355033 3.36935 0
M  V30 6267 C 570.588 -0.00758748 3.76399 0
M  V30 6268 C 569.735 0.675256 2.68953 0
M  V30 6269 H 572.686 0.822708 1.3571 0
M  V30 6270 H 572.707 -0.410201 3.78282 0
M  V30 6271 H 572.219 1.40699 3.61698 0
M  V30 6272 H 570.32 -1.05837 3.57252 0
M  V30 6273 H 570.433 0.392346 4.77491 0
M  V30 6274 H 568.797 0.111992 2.54454 0
M  V30 6275 H 569.58 1.72952 2.96551 0
M  V30 6276 N 572.025 -1.5352 0.356285 0
M  V30 6277 C 573.25 -2.06007 -0.239961 0
M  V30 6278 C 573.675 -1.22872 -1.42422 0
M  V30 6279 O 573.033 -0.245516 -1.7963 0
M  V30 6280 C 573.081 -3.5522 -0.620587 0
M  V30 6281 O 572.185 -3.74864 -1.71902 0
M  V30 6282 H 571.526 -0.662961 -0.0371377 0
M  V30 6283 H 574.056 -1.98033 0.514194 0
M  V30 6284 H 574.066 -3.98081 -0.894197 0
M  V30 6285 H 572.741 -4.15175 0.245407 0
M  V30 6286 H 571.318 -3.43904 -1.44169 0
M  V30 6287 N 573.503 -0.0852151 -1.57369 0
M  V30 6288 C 574.919 0.271436 -1.57275 0
M  V30 6289 C 575.119 1.69109 -1.09565 0
M  V30 6290 O 574.175 2.40549 -0.767611 0
M  V30 6291 C 575.488 0.0688638 -3.00621 0
M  V30 6292 C 577.036 0.137373 -3.12698 0
M  V30 6293 C 577.511 -0.0370832 -4.57985 0
M  V30 6294 N 579.002 0.0180794 -4.63196 0
M  V30 6295 C 579.737 -0.0922953 -5.73326 0
M  V30 6296 N 579.233 -0.256948 -6.92323 0
M  V30 6297 N 581.026 -0.0342702 -5.6209 0
M  V30 6298 H 573.177 -1.01288 -1.86693 0
M  V30 6299 H 575.44 -0.396138 -0.861266 0
M  V30 6300 H 575.146 -0.911277 -3.39689 0
M  V30 6301 H 575.02 0.815442 -3.6828 0
M  V30 6302 H 577.407 1.10801 -2.73509 0
M  V30 6303 H 577.488 -0.640532 -2.47651 0
M  V30 6304 H 577.132 -1.00455 -4.97867 0
M  V30 6305 H 577.062 0.760392 -5.21081 0
M  V30 6306 H 579.553 0.143202 -3.77629 0
M  V30 6307 H 579.866 -0.332949 -7.72082 0
M  V30 6308 H 578.211 -0.292487 -6.94384 0
M  V30 6309 H 581.402 0.0931605 -4.68007 0
M  V30 6310 H 581.575 -0.12374 -6.47882 0
M  V30 6311 N 574.981 1.5647 0.188427 0
M  V30 6312 C 575.944 1.9421 1.21718 0
M  V30 6313 C 576.944 0.823901 1.38089 0
M  V30 6314 O 578.134 1.09122 1.35787 0
M  V30 6315 C 575.266 2.22197 2.58537 0
M  V30 6316 H 576.459 2.86252 0.894418 0
M  V30 6317 H 574.012 1.50263 0.430211 0
M  V30 6318 H 574.747 1.32814 2.95856 0
M  V30 6319 H 574.532 3.03688 2.48025 0
M  V30 6320 H 576.022 2.52376 3.3271 0
M  V30 6321 N 576.459 -0.456382 1.50847 0
M  V30 6322 C 577.369 -1.57805 1.73594 0
M  V30 6323 C 578.385 -1.62599 0.619476 0
M  V30 6324 O 579.561 -1.80195 0.899532 0
M  V30 6325 C 576.626 -2.93926 1.8387 0
M  V30 6326 C 575.687 -2.99402 3.07663 0
M  V30 6327 C 574.92 -4.29031 3.1744 0
M  V30 6328 O 575.143 -5.20358 2.33631 0
M  V30 6329 O 574.077 -4.40401 4.10281 0
M  V30 6330 H 577.903 -1.41531 2.68705 0
M  V30 6331 H 575.488 -0.637422 1.3512 0
M  V30 6332 H 577.37 -3.74747 1.92725 0
M  V30 6333 H 576.045 -3.10368 0.91944 0
M  V30 6334 H 574.952 -2.17606 3.043 0
M  V30 6335 H 576.285 -2.87901 3.99216 0
M  V30 6336 N 577.937 -1.40673 -0.710563 0
M  V30 6337 C 579.165 -1.42547 -1.4996 0
M  V30 6338 C 579.58 -0.0265485 -1.88781 0
M  V30 6339 O 578.937 0.950694 -1.55782 0
M  V30 6340 C 578.988 -2.32071 -2.77173 0
M  V30 6341 O 578.709 -3.66518 -2.39992 0
M  V30 6342 C 580.21 -2.42591 -3.71032 0
M  V30 6343 H 577.43 -0.486025 -0.462623 0
M  V30 6344 H 579.974 -1.84783 -0.876102 0
M  V30 6345 H 578.129 -1.93184 -3.35795 0
M  V30 6346 H 578.543 -4.14115 -3.21884 0
M  V30 6347 H 580.017 -3.09429 -4.57119 0
M  V30 6348 H 580.494 -1.4525 -4.14486 0
M  V30 6349 H 581.1 -2.82051 -3.18319 0
M  V30 6350 N 579.415 0.9433 -1.26252 0
M  V30 6351 C 580.826 1.50404 -1.10614 0
M  V30 6352 C 581.177 1.93666 0.31429 0
M  V30 6353 O 580.302 1.79709 1.20555 0
M  V30 6354 C 580.897 2.73336 -2.00182 0
M  V30 6355 C 579.456 3.25686 -1.88695 0
M  V30 6356 C 578.603 1.98474 -1.93658 0
M  V30 6357 H 581.554 0.759006 -1.39373 0
M  V30 6358 H 581.575 3.47567 -1.54847 0
M  V30 6359 H 581.087 2.41818 -3.03555 0
M  V30 6360 H 579.188 3.61998 -0.882489 0
M  V30 6361 H 579.301 3.92935 -2.74115 0
M  V30 6362 H 577.665 2.14278 -1.37684 0
M  V30 6363 H 578.448 1.6929 -2.98657 0
M  V30 6364 N 580.893 1.08022 1.14757 0
M  V30 6365 C 581.803 0.718292 2.23333 0
M  V30 6366 C 582.819 -0.273477 1.71837 0
M  V30 6367 O 583.995 -0.118406 2.01052 0
M  V30 6368 C 581.06 0.128855 3.4646 0
M  V30 6369 C 580.121 1.17473 4.12915 0
M  V30 6370 C 579.354 0.61333 5.30164 0
M  V30 6371 O 579.577 -0.568458 5.6756 0
M  V30 6372 O 578.511 1.3615 5.86299 0
M  V30 6373 H 582.337 1.62394 2.56636 0
M  V30 6374 H 579.922 0.853628 1.22611 0
M  V30 6375 H 581.804 -0.197249 4.20938 0
M  V30 6376 H 580.479 -0.750014 3.14891 0
M  V30 6377 H 579.386 1.5533 3.40328 0
M  V30 6378 H 580.719 2.02574 4.48581 0
M  V30 6379 N 582.371 -1.3172 0.865308 0
M  V30 6380 C 583.334 -2.26918 0.322627 0
M  V30 6381 C 584.334 -1.52031 -0.523751 0
M  V30 6382 O 585.524 -1.70973 -0.333727 0
M  V30 6383 C 582.656 -3.36558 -0.542338 0
M  V30 6384 H 583.849 -2.76432 1.16298 0
M  V30 6385 H 581.402 -1.42573 0.640512 0
M  V30 6386 H 582.137 -2.92329 -1.40407 0
M  V30 6387 H 581.922 -3.92048 0.0636395 0
M  V30 6388 H 583.412 -4.07465 -0.91446 0
M  V30 6389 N 583.85 -0.624285 -1.44708 0
M  V30 6390 C 585.096 -0.126051 -2.02107 0
M  V30 6391 C 585.425 1.2496 -1.49048 0
M  V30 6392 O 584.68 1.84163 -0.662005 0
M  V30 6393 C 584.979 -0.0546353 -3.57358 0
M  V30 6394 C 584.644 -1.36815 -4.29642 0
M  V30 6395 C 583.307 -1.72792 -4.49106 0
M  V30 6396 C 585.659 -2.23549 -4.70824 0
M  V30 6397 C 582.986 -2.95222 -5.07012 0
M  V30 6398 C 585.339 -3.45243 -5.30085 0
M  V30 6399 C 584.003 -3.81452 -5.47769 0
M  V30 6400 H 583.273 -0.0461252 -0.739563 0
M  V30 6401 H 585.92 -0.809236 -1.73562 0
M  V30 6402 H 584.225 0.711891 -3.85278 0
M  V30 6403 H 585.922 0.347282 -3.99493 0
M  V30 6404 H 582.512 -1.07817 -4.14817 0
M  V30 6405 H 586.696 -1.9705 -4.55505 0
M  V30 6406 H 581.952 -3.23361 -5.18891 0
M  V30 6407 H 586.125 -4.12689 -5.60946 0
M  V30 6408 H 583.753 -4.76403 -5.92405 0
M  V30 6409 N 585.328 1.53329 -0.364422 0
M  V30 6410 C 586.238 2.29414 0.490552 0
M  V30 6411 C 587.254 1.35335 1.09363 0
M  V30 6412 O 588.43 1.68391 1.10483 0
M  V30 6413 C 585.495 3.06772 1.61529 0
M  V30 6414 C 584.556 4.16516 1.03986 0
M  V30 6415 C 583.789 4.90176 2.111 0
M  V30 6416 O 584.012 4.63687 3.32191 0
M  V30 6417 O 582.946 5.76134 1.74222 0
M  V30 6418 H 586.772 3.03428 -0.12856 0
M  V30 6419 H 584.357 1.48843 -0.128837 0
M  V30 6420 H 586.239 3.55082 2.26924 0
M  V30 6421 H 584.914 2.35596 2.21983 0
M  V30 6422 H 583.821 3.7246 0.349856 0
M  V30 6423 H 585.154 4.89855 0.4799 0
M  V30 6424 N 586.806 0.0935595 1.57322 0
M  V30 6425 C 587.739 -0.902505 2.09595 0
M  V30 6426 C 588.717 -1.27732 1.00615 0
M  V30 6427 O 589.901 -1.38283 1.28102 0
M  V30 6428 C 587.028 -2.20416 2.57166 0
M  V30 6429 C 586.074 -1.97932 3.7779 0
M  V30 6430 S 586.907 -1.21873 5.21447 0
M  V30 6431 C 588.063 -2.53273 5.72367 0
M  V30 6432 H 588.296 -0.457797 2.93754 0
M  V30 6433 H 585.829 -0.119694 1.53935 0
M  V30 6434 H 587.787 -2.95217 2.85232 0
M  V30 6435 H 586.448 -2.62008 1.73235 0
M  V30 6436 H 585.641 -2.94316 4.09138 0
M  V30 6437 H 585.243 -1.3126 3.5021 0
M  V30 6438 H 587.535 -3.49256 5.8054 0
M  V30 6439 H 588.478 -2.26505 6.70896 0
M  V30 6440 H 588.886 -2.61475 5.00291 0
M  V30 6441 N 588.284 -1.56567 -0.180126 0
M  V30 6442 C 589.509 -1.85975 -0.918041 0
M  V30 6443 C 589.934 -0.678888 -1.75422 0
M  V30 6444 O 589.292 0.372168 -1.77439 0
M  V30 6445 C 589.34 -3.13731 -1.77779 0
M  V30 6446 O 588.444 -2.95335 -2.87838 0
M  V30 6447 H 587.785 -0.61196 -0.257683 0
M  V30 6448 H 590.315 -2.03798 -0.180923 0
M  V30 6449 H 590.325 -3.4491 -2.17948 0
M  V30 6450 H 589 -3.99293 -1.16352 0
M  V30 6451 H 587.577 -2.7549 -2.51316 0
M  V30 6452 N 589.762 0.448376 -1.51087 0
M  V30 6453 C 590.71 1.56407 -1.72161 0
M  V30 6454 C 591.704 1.58878 -0.587721 0
M  V30 6455 O 592.91 1.62755 -0.768822 0
M  V30 6456 H 589.285 0.519423 -0.543786 0
M  V30 6457 H 591.256 1.35803 -2.65707 0
M  V30 6458 C 590.005 2.94163 -1.85373 0
M  V30 6459 H 589.328 2.9299 -2.72024 0
M  V30 6460 H 590.768 3.71625 -2.04135 0
M  V30 6461 C 589.227 3.31317 -0.610803 0
M  V30 6462 O 589.757 4.00985 0.239636 0
M  V30 6463 N 587.963 2.86966 -0.458127 0
M  V30 6464 H 587.51 2.30443 -1.15124 0
M  V30 6465 H 587.468 3.12188 0.372289 0
M  V30 6466 N 591.24 1.41047 0.703093 0
M  V30 6467 C 592.487 1.4 1.46309 0
M  V30 6468 C 592.815 0.00654574 1.94499 0
M  V30 6469 O 592.07 -0.980255 1.6938 0
M  V30 6470 C 592.369 2.34686 2.6955 0
M  V30 6471 C 592.035 3.81684 2.40058 0
M  V30 6472 C 590.697 4.21731 2.31725 0
M  V30 6473 C 593.049 4.74525 2.15581 0
M  V30 6474 C 590.377 5.52637 1.97001 0
M  V30 6475 C 592.729 6.05744 1.82366 0
M  V30 6476 C 591.393 6.44819 1.72524 0
M  V30 6477 H 590.663 0.512295 0.535382 0
M  V30 6478 H 593.31 1.73792 0.804275 0
M  V30 6479 H 591.615 1.94122 3.40329 0
M  V30 6480 H 593.312 2.31152 3.27673 0
M  V30 6481 H 589.902 3.49963 2.47435 0
M  V30 6482 H 594.086 4.44395 2.20968 0
M  V30 6483 H 589.342 5.81802 1.87928 0
M  V30 6484 H 593.516 6.77189 1.62444 0
M  V30 6485 H 591.143 7.46168 1.45385 0
M  V30 6486 N 592.718 -0.936591 1.26751 0
M  V30 6487 C 593.943 -1.72288 1.15462 0
M  V30 6488 C 594.368 -1.85915 -0.285887 0
M  V30 6489 O 593.726 -1.35272 -1.20711 0
M  V30 6490 C 593.774 -3.10503 1.83359 0
M  V30 6491 O 592.878 -3.96745 1.1255 0
M  V30 6492 H 592.219 -0.52843 0.402067 0
M  V30 6493 H 594.749 -1.17271 1.67656 0
M  V30 6494 H 594.759 -3.60867 1.90365 0
M  V30 6495 H 593.434 -2.99901 2.88153 0
M  V30 6496 H 592.011 -3.55191 1.13551 0
M  V30 6497 N 594.196 -1.08629 -1.14182 0
M  V30 6498 C 595.612 -0.814363 -1.3726 0
M  V30 6499 C 595.812 0.575271 -1.93114 0
M  V30 6500 O 594.868 1.33165 -2.1453 0
M  V30 6501 C 596.181 -1.8989 -2.33157 0
M  V30 6502 C 597.729 -1.92518 -2.46791 0
M  V30 6503 C 598.204 -3.00092 -3.45989 0
M  V30 6504 N 599.695 -2.99279 -3.53534 0
M  V30 6505 C 600.43 -3.79158 -4.30147 0
M  V30 6506 N 599.926 -4.68923 -5.09983 0
M  V30 6507 N 601.719 -3.67451 -4.25366 0
M  V30 6508 H 593.87 -1.98232 -0.762758 0
M  V30 6509 H 596.133 -0.860383 -0.398051 0
M  V30 6510 H 595.839 -2.89809 -1.99257 0
M  V30 6511 H 595.713 -1.77013 -3.33086 0
M  V30 6512 H 598.1 -0.932425 -2.79982 0
M  V30 6513 H 598.181 -2.09473 -1.46816 0
M  V30 6514 H 597.825 -3.99575 -3.13532 0
M  V30 6515 H 597.755 -2.80382 -4.45751 0
M  V30 6516 H 600.246 -2.3422 -2.96563 0
M  V30 6517 H 600.559 -5.26475 -5.65724 0
M  V30 6518 H 598.904 -4.72964 -5.09244 0
M  V30 6519 H 602.095 -2.9669 -3.62067 0
M  V30 6520 H 602.268 -4.29944 -4.84822 0
M  V30 6521 N 595.674 1.31259 -0.872281 0
M  V30 6522 C 596.899 2.0133 -0.498099 0
M  V30 6523 C 597.324 1.65031 0.902568 0
M  V30 6524 O 596.682 0.860164 1.59596 0
M  V30 6525 C 596.73 3.54411 -0.665205 0
M  V30 6526 O 595.834 4.11347 0.294473 0
M  V30 6527 H 595.175 0.633844 -0.197832 0
M  V30 6528 H 597.705 1.67402 -1.17633 0
M  V30 6529 H 597.715 4.04147 -0.559373 0
M  V30 6530 H 596.39 3.80171 -1.68651 0
M  V30 6531 H 594.967 3.72624 0.143403 0
M  V30 6532 N 597.152 0.631951 1.44375 0
M  V30 6533 C 598.568 0.297642 1.568 0
M  V30 6534 C 598.768 -1.19916 1.61934 0
M  V30 6535 O 597.824 -1.98324 1.56281 0
M  V30 6536 C 599.137 0.990286 2.83926 0
M  V30 6537 C 600.685 0.968507 2.97639 0
M  V30 6538 C 601.16 1.64163 4.27568 0
M  V30 6539 N 602.651 1.60826 4.34384 0
M  V30 6540 C 603.386 2.09802 5.33639 0
M  V30 6541 N 602.882 2.66973 6.39294 0
M  V30 6542 N 604.675 2.00426 5.25153 0
M  V30 6543 H 596.826 1.60353 1.39286 0
M  V30 6544 H 599.089 0.673142 0.667521 0
M  V30 6545 H 598.795 2.04519 2.8612 0
M  V30 6546 H 598.669 0.528563 3.73478 0
M  V30 6547 H 601.056 -0.0779247 2.94997 0
M  V30 6548 H 601.137 1.46873 2.09433 0
M  V30 6549 H 600.781 2.68752 4.3097 0
M  V30 6550 H 600.711 1.11624 5.14634 0
M  V30 6551 H 603.202 1.19087 3.58646 0
M  V30 6552 H 603.515 3.02074 7.11316 0
M  V30 6553 H 601.86 2.71024 6.39977 0
M  V30 6554 H 605.051 1.55483 4.41523 0
M  V30 6555 H 605.224 2.38906 6.02352 0
M  V30 6556 N 598.631 -1.53133 0.372548 0
M  V30 6557 C 599.563 -2.23557 -0.505444 0
M  V30 6558 C 600.576 -1.25211 -1.04049 0
M  V30 6559 O 601.765 -1.51391 -0.945675 0
M  V30 6560 C 598.865 -2.92516 -1.71136 0
M  V30 6561 C 598.038 -4.17428 -1.30661 0
M  V30 6562 C 597.097 -4.69535 -2.37536 0
M  V30 6563 O 596.123 -5.33042 -1.99637 0
M  V30 6564 N 597.325 -4.47947 -3.6922 0
M  V30 6565 H 600.09 -2.9954 0.0978259 0
M  V30 6566 H 597.651 -1.60684 0.198068 0
M  V30 6567 H 599.643 -3.24281 -2.42124 0
M  V30 6568 H 598.213 -2.19944 -2.22134 0
M  V30 6569 H 597.433 -3.91888 -0.426292 0
M  V30 6570 H 598.721 -4.98622 -1.01259 0
M  V30 6571 H 598.119 -3.97219 -4.02783 0
M  V30 6572 H 596.676 -4.84245 -4.36292 0
M  V30 6573 N 600.109 -0.101901 -1.5727 0
M  V30 6574 C 601.334 0.571759 -1.99363 0
M  V30 6575 C 601.759 1.60507 -0.980768 0
M  V30 6576 O 601.117 1.81231 0.0498517 0
M  V30 6577 C 601.165 1.18996 -3.404 0
M  V30 6578 O 600.269 2.30572 -3.41922 0
M  V30 6579 H 599.61 0.144449 -0.648098 0
M  V30 6580 H 602.14 -0.185325 -2.03759 0
M  V30 6581 H 602.15 1.52962 -3.78241 0
M  V30 6582 H 600.825 0.432984 -4.1364 0
M  V30 6583 H 599.402 1.98173 -3.15883 0
M  V30 6584 N 601.587 1.56661 0.17182 0
M  V30 6585 C 602.812 1.86459 0.908165 0
M  V30 6586 C 603.237 0.688181 1.75059 0
M  V30 6587 O 602.595 -0.362753 1.77634 0
M  V30 6588 C 602.643 3.14669 1.76112 0
M  V30 6589 O 601.747 2.96858 2.86268 0
M  V30 6590 H 601.088 0.613318 0.254434 0
M  V30 6591 H 603.618 2.03892 0.170113 0
M  V30 6592 H 603.628 3.46061 2.16115 0
M  V30 6593 H 602.303 3.99905 1.14233 0
M  V30 6594 H 600.88 2.76819 2.49852 0
M  V30 6595 N 603.065 -0.440357 1.51323 0
M  V30 6596 C 604.012 -1.53429 1.72419 0
M  V30 6597 C 604.982 -1.56165 0.565826 0
M  V30 6598 O 606.167 -1.73222 0.799917 0
M  V30 6599 C 603.307 -2.91169 1.85242 0
M  V30 6600 C 602.42 -2.97985 3.12777 0
M  V30 6601 C 601.555 -4.26829 3.16212 0
M  V30 6602 C 600.594 -4.27501 4.38074 0
M  V30 6603 N 599.731 -5.47866 4.39076 0
M  V30 6604 H 604.571 -1.34743 2.65797 0
M  V30 6605 H 602.108 -0.654608 1.31732 0
M  V30 6606 H 604.066 -3.71087 1.90658 0
M  V30 6607 H 602.696 -3.0842 0.952744 0
M  V30 6608 H 601.748 -2.10749 3.16685 0
M  V30 6609 H 603.06 -2.94342 4.02696 0
M  V30 6610 H 602.214 -5.15118 3.20527 0
M  V30 6611 H 600.953 -4.33124 2.24176 0
M  V30 6612 H 599.958 -3.37606 4.33938 0
M  V30 6613 H 601.183 -4.22873 5.31371 0
M  V30 6614 H 599.129 -5.54887 3.49909 0
M  V30 6615 H 599.046 -5.46091 5.22801 0
M  V30 6616 H 600.314 -6.38195 4.4758 0
M  V30 6617 N 604.543 -1.41418 -0.695603 0
M  V30 6618 C 605.771 -1.4413 -1.48439 0
M  V30 6619 C 606.186 -0.0465698 -1.88743 0
M  V30 6620 O 605.543 0.934117 -1.56782 0
M  V30 6621 C 605.594 -2.34998 -2.74696 0
M  V30 6622 O 605.315 -3.69043 -2.36091 0
M  V30 6623 C 606.816 -2.46513 -3.68438 0
M  V30 6624 H 604.036 -0.490905 -0.457442 0
M  V30 6625 H 606.58 -1.85702 -0.856454 0
M  V30 6626 H 604.735 -1.96735 -3.33728 0
M  V30 6627 H 605.149 -4.17505 -3.17474 0
M  V30 6628 H 606.623 -3.1426 -4.53811 0
M  V30 6629 H 607.1 -1.49638 -4.12922 0
M  V30 6630 H 607.706 -2.85412 -3.1531 0
M  V30 6631 N 606.021 0.929856 -1.27246 0
M  V30 6632 C 606.953 2.03434 -1.0558 0
M  V30 6633 C 607.966 1.62795 -0.0125762 0
M  V30 6634 O 609.155 1.76685 -0.2539 0
M  V30 6635 C 606.255 3.33915 -0.57912 0
M  V30 6636 C 605.428 4.03259 -1.69415 0
M  V30 6637 C 604.487 5.12014 -1.21357 0
M  V30 6638 O 603.513 5.36097 -1.91282 0
M  V30 6639 N 604.715 5.8046 -0.0680622 0
M  V30 6640 H 607.48 2.22583 -2.00691 0
M  V30 6641 H 605.041 1.1001 -1.18783 0
M  V30 6642 H 607.033 4.03978 -0.241563 0
M  V30 6643 H 605.603 3.11355 0.278703 0
M  V30 6644 H 604.823 3.26958 -2.20209 0
M  V30 6645 H 606.111 4.46337 -2.44255 0
M  V30 6646 H 605.509 5.63345 0.515626 0
M  V30 6647 H 604.066 6.51461 0.210332 0
M  V30 6648 N 607.499 1.09233 1.13605 0
M  V30 6649 C 608.745 0.828385 1.8511 0
M  V30 6650 C 609.078 -0.64437 1.83198 0
M  V30 6651 O 608.353 -1.47428 1.26867 0
M  V30 6652 C 608.636 1.36167 3.33363 0
M  V30 6653 C 608.489 2.90038 3.438 0
M  V30 6654 C 609.808 0.993819 4.28732 0
M  V30 6655 H 606.927 0.30239 0.672108 0
M  V30 6656 H 609.569 1.35339 1.33355 0
M  V30 6657 H 607.719 0.9151 3.77569 0
M  V30 6658 H 609.391 3.43128 3.08319 0
M  V30 6659 H 607.634 3.27271 2.84739 0
M  V30 6660 H 608.305 3.22428 4.48045 0
M  V30 6661 H 610.781 1.37893 3.92587 0
M  V30 6662 H 609.657 1.39403 5.30903 0
M  V30 6663 H 609.918 -0.0982206 4.41991 0
M  V30 6664 N 608.977 -1.30795 0.87923 0
M  V30 6665 C 610.388 -1.78535 0.546093 0
M  V30 6666 C 610.739 -1.72354 -0.937467 0
M  V30 6667 O 609.864 -1.2969 -1.73233 0
M  V30 6668 C 610.459 -3.24181 0.9845 0
M  V30 6669 C 609.018 -3.69779 0.702871 0
M  V30 6670 C 608.165 -2.51377 1.17068 0
M  V30 6671 H 611.116 -1.17746 1.06403 0
M  V30 6672 H 611.137 -3.79227 0.311045 0
M  V30 6673 H 610.649 -3.28647 2.06429 0
M  V30 6674 H 608.75 -3.70806 -0.365166 0
M  V30 6675 H 608.863 -4.61507 1.28639 0
M  V30 6676 H 607.227 -2.47768 0.590172 0
M  V30 6677 H 608.01 -2.58584 2.25808 0
M  V30 6678 N 610.455 -0.639598 -1.44038 0
M  V30 6679 C 611.385 0.0469443 -2.33453 0
M  V30 6680 C 612.366 0.82609 -1.48694 0
M  V30 6681 O 613.551 0.790285 -1.77393 0
M  V30 6682 C 610.681 1.02338 -3.3188 0
M  V30 6683 C 609.635 0.355284 -4.26523 0
M  V30 6684 C 608.961 1.44221 -5.14883 0
M  V30 6685 C 610.261 -0.743798 -5.16977 0
M  V30 6686 H 611.955 -0.699735 -2.91108 0
M  V30 6687 H 609.501 -0.337946 -1.39978 0
M  V30 6688 H 611.454 1.51247 -3.93322 0
M  V30 6689 H 610.178 1.80105 -2.72451 0
M  V30 6690 H 608.837 -0.113239 -3.66425 0
M  V30 6691 H 608.485 2.21097 -4.51802 0
M  V30 6692 H 608.185 1.00052 -5.79019 0
M  V30 6693 H 609.709 1.93295 -5.79197 0
M  V30 6694 H 611.123 -0.337444 -5.72306 0
M  V30 6695 H 609.52 -1.10914 -5.89761 0
M  V30 6696 H 610.59 -1.60745 -4.57481 0
M  V30 6697 N 611.933 1.52934 -0.380664 0
M  V30 6698 C 613.158 2.06363 0.207157 0
M  V30 6699 C 613.583 1.25122 1.4045 0
M  V30 6700 O 612.941 0.274062 1.79217 0
M  V30 6701 C 612.989 3.56162 0.563996 0
M  V30 6702 O 612.093 3.77552 1.65917 0
M  V30 6703 H 611.434 0.663468 0.0265859 0
M  V30 6704 H 613.964 1.9719 -0.545635 0
M  V30 6705 H 613.974 3.99453 0.830752 0
M  V30 6706 H 612.649 4.14732 -0.311427 0
M  V30 6707 H 611.226 3.46154 1.3868 0
M  V30 6708 N 613.412 0.11024 1.57214 0
M  V30 6709 C 614.36 -0.860586 2.16094 0
M  V30 6710 C 615.354 -1.28156 1.1078 0
M  V30 6711 O 616.56 -1.25433 1.29099 0
M  V30 6712 H 612.935 -0.295606 0.691463 0
M  V30 6713 H 614.906 -0.33942 2.96463 0
M  V30 6714 C 613.655 -2.10421 2.768 0
M  V30 6715 H 612.978 -1.7892 3.5753 0
M  V30 6716 H 614.418 -2.76375 3.21547 0
M  V30 6717 C 612.877 -2.88823 1.73444 0
M  V30 6718 O 613.407 -3.839 1.18251 0
M  V30 6719 N 611.613 -2.52649 1.43586 0
M  V30 6720 H 611.16 -1.754 1.8866 0
M  V30 6721 H 611.118 -3.05403 0.746735 0
M  V30 6722 N 614.89 -1.56749 -0.16351 0
M  V30 6723 C 615.82 -2.00042 -1.20438 0
M  V30 6724 C 616.801 -0.877256 -1.45733 0
M  V30 6725 O 617.986 -1.1439 -1.56935 0
M  V30 6726 C 615.116 -2.36697 -2.54149 0
M  V30 6727 C 614.07 -3.52046 -2.43408 0
M  V30 6728 C 613.396 -3.74466 -3.81679 0
M  V30 6729 C 614.696 -4.85247 -1.93216 0
M  V30 6730 H 616.39 -2.87244 -0.844477 0
M  V30 6731 H 613.936 -1.38194 -0.40478 0
M  V30 6732 H 615.889 -2.65582 -3.27176 0
M  V30 6733 H 614.613 -1.46414 -2.91943 0
M  V30 6734 H 613.272 -3.23301 -1.72834 0
M  V30 6735 H 612.92 -2.81461 -4.1688 0
M  V30 6736 H 612.62 -4.52084 -3.75359 0
M  V30 6737 H 614.144 -4.0576 -4.5628 0
M  V30 6738 H 615.558 -5.12957 -2.56023 0
M  V30 6739 H 613.955 -5.66556 -1.97825 0
M  V30 6740 H 615.025 -4.7672 -0.88689 0
M  V30 6741 N 616.368 0.432326 -1.51554 0
M  V30 6742 C 617.596 1.20364 -1.68286 0
M  V30 6743 C 618.011 1.84888 -0.38233 0
M  V30 6744 O 617.368 1.70924 0.639627 0
M  V30 6745 C 617.419 2.28398 -2.80208 0
M  V30 6746 O 617.14 1.66512 -4.05223 0
M  V30 6747 C 618.641 3.18584 -3.08251 0
M  V30 6748 H 615.861 0.36259 -0.564596 0
M  V30 6749 H 618.405 0.511647 -1.97996 0
M  V30 6750 H 616.56 2.93305 -2.53083 0
M  V30 6751 H 616.974 2.37951 -4.67418 0
M  V30 6752 H 618.448 3.90511 -3.90135 0
M  V30 6753 H 618.925 3.79628 -2.2086 0
M  V30 6754 H 619.531 2.59372 -3.37055 0
M  V30 6755 N 617.846 1.41785 0.688094 0
M  V30 6756 C 618.794 1.44436 1.82321 0
M  V30 6757 C 619.788 0.321544 1.6632 0
M  V30 6758 O 620.994 0.493931 1.73091 0
M  V30 6759 H 617.369 0.452084 0.600936 0
M  V30 6760 H 619.34 2.40087 1.77202 0
M  V30 6761 C 618.089 1.35071 3.20392 0
M  V30 6762 H 617.412 2.2076 3.33324 0
M  V30 6763 H 618.852 1.40988 3.99873 0
M  V30 6764 C 617.311 0.0639127 3.36839 0
M  V30 6765 O 617.841 -0.888495 3.91751 0
M  V30 6766 N 616.047 -0.0146114 2.90596 0
M  V30 6767 H 615.594 0.761191 2.46097 0
M  V30 6768 H 615.552 -0.874988 3.01979 0
M  V30 6769 N 619.324 -0.923095 1.27737 0
M  V30 6770 C 620.272 -2.04567 1.10703 0
M  V30 6771 C 621.266 -1.69375 0.0288445 0
M  V30 6772 O 622.472 -1.79027 0.186913 0
M  V30 6773 H 618.847 -0.670109 0.34126 0
M  V30 6774 H 620.818 -2.1608 2.05796 0
M  V30 6775 C 619.567 -3.38934 0.775837 0
M  V30 6776 H 618.89 -3.66501 1.59741 0
M  V30 6777 H 620.33 -4.18239 0.696548 0
M  V30 6778 C 618.789 -3.32863 -0.520012 0
M  V30 6779 O 619.319 -3.70462 -1.55308 0
M  V30 6780 N 617.525 -2.85958 -0.51732 0
M  V30 6781 H 617.072 -2.55557 0.32379 0
M  V30 6782 H 617.03 -2.82279 -1.38441 0
M  V30 6783 N 620.802 -1.09834 -1.13024 0
M  V30 6784 C 622.079 -0.749225 -1.80682 0
M  V30 6785 C 622.459 0.765171 -1.96744 0
M  V30 6786 O 621.807 1.68912 -1.53886 0
M  V30 6787 C 622.017 -1.49311 -3.15448 0
M  V30 6788 C 623.365 -1.66162 -3.90737 0
M  V30 6789 O 624.389 -1.45597 -3.25085 0
M  V30 6790 O 623.248 -2.00211 -5.08505 0
M  V30 6791 H 620.342 -0.269614 -0.781817 0
M  V30 6792 H 622.888 -1.20078 -1.19914 0
M  V30 6793 H 621.66 -2.52407 -2.99009 0
M  V30 6794 H 621.283 -1.034 -3.8392 0
M  V30 6795 N 622.28 1.30327 -0.886154 0
M  V30 6796 C 623.212 2.27079 -0.311072 0
M  V30 6797 C 624.225 1.53758 0.53502 0
M  V30 6798 O 625.414 1.74947 0.354378 0
M  V30 6799 C 622.514 3.33965 0.576228 0
M  V30 6800 C 621.687 4.36735 -0.241064 0
M  V30 6801 C 620.746 5.23028 0.576916 0
M  V30 6802 O 619.772 5.692 -0.000802231 0
M  V30 6803 N 620.974 5.49016 1.88579 0
M  V30 6804 H 623.739 2.77065 -1.14259 0
M  V30 6805 H 621.3 1.43519 -0.749258 0
M  V30 6806 H 623.292 3.88618 1.12953 0
M  V30 6807 H 621.862 2.839 1.30842 0
M  V30 6808 H 621.082 3.81932 -0.975805 0
M  V30 6809 H 622.37 5.02451 -0.801272 0
M  V30 6810 H 621.768 5.13288 2.37806 0
M  V30 6811 H 620.325 6.06539 2.38651 0
M  V30 6812 N 623.758 0.647228 1.43697 0
M  V30 6813 C 625.004 0.158422 2.0218 0
M  V30 6814 C 625.337 -1.22233 1.50907 0
M  V30 6815 O 624.612 -1.81478 0.699702 0
M  V30 6816 C 624.895 0.1627 3.59732 0
M  V30 6817 C 624.748 1.57694 4.21251 0
M  V30 6818 C 626.067 -0.504138 4.37203 0
M  V30 6819 H 623.186 0.059042 0.734631 0
M  V30 6820 H 625.828 0.826772 1.71069 0
M  V30 6821 H 623.978 -0.406414 3.86368 0
M  V30 6822 H 625.65 2.19618 4.05667 0
M  V30 6823 H 623.893 2.12603 3.7813 0
M  V30 6824 H 624.564 1.53183 5.3032 0
M  V30 6825 H 627.04 -0.0199841 4.16095 0
M  V30 6826 H 625.916 -0.470394 5.46881 0
M  V30 6827 H 626.177 -1.57726 4.13007 0
M  V30 6828 N 625.236 -1.5273 0.388769 0
M  V30 6829 C 626.647 -1.86505 -0.0853788 0
M  V30 6830 C 626.998 -1.30847 -1.46197 0
M  V30 6831 O 626.123 -0.639609 -2.06732 0
M  V30 6832 C 626.718 -3.38414 -0.161703 0
M  V30 6833 C 625.277 -3.71902 -0.580144 0
M  V30 6834 C 624.424 -2.76095 0.258218 0
M  V30 6835 H 627.375 -1.46647 0.606665 0
M  V30 6836 H 627.396 -3.67638 -0.980936 0
M  V30 6837 H 626.908 -3.78893 0.840333 0
M  V30 6838 H 625.009 -3.36992 -1.58957 0
M  V30 6839 H 625.122 -4.77902 -0.338663 0
M  V30 6840 H 623.486 -2.53195 -0.276432 0
M  V30 6841 H 624.269 -3.19411 1.25822 0
M  V30 6842 N 626.714 -0.118576 -1.57153 0
M  V30 6843 C 627.962 0.538461 -1.94795 0
M  V30 6844 C 628.283 1.67243 -1.00274 0
M  V30 6845 O 627.553 1.95811 -0.0589692 0
M  V30 6846 H 626.133 0.201904 -0.719197 0
M  V30 6847 H 628.795 -0.187418 -1.93997 0
M  V30 6848 H 627.891 0.933315 -2.97818 0
M  V30 6849 N 628.193 1.56834 0.155195 0
M  V30 6850 C 629.442 1.82088 0.867567 0
M  V30 6851 C 629.755 0.69849 1.82703 0
M  V30 6852 O 630.961 0.836407 2.58295 0
M  V30 6853 C 629.417 3.22707 1.59336 0
M  V30 6854 C 629.025 4.42859 0.676719 0
M  V30 6855 C 630.769 3.57242 2.293 0
M  V30 6856 C 628.676 5.74501 1.40367 0
M  V30 6857 H 627.606 0.679057 0.327715 0
M  V30 6858 H 630.257 1.83105 0.120351 0
M  V30 6859 H 628.639 3.16054 2.38591 0
M  V30 6860 H 629.813 4.60731 -0.0800196 0
M  V30 6861 H 628.128 4.16311 0.0859129 0
M  V30 6862 H 630.725 4.52847 2.84312 0
M  V30 6863 H 631.068 2.82901 3.05406 0
M  V30 6864 H 631.601 3.6552 1.56972 0
M  V30 6865 H 628.34 6.51915 0.684623 0
M  V30 6866 H 627.86 5.60579 2.13332 0
M  V30 6867 H 629.539 6.17016 1.94681 0
M  V30 6868 N 629.671 -0.424282 1.51781 0
M  V30 6869 C 630.619 -1.53649 1.74628 0
M  V30 6870 C 631.613 -1.57923 0.612922 0
M  V30 6871 O 632.819 -1.61511 0.794618 0
M  V30 6872 H 629.194 -0.510706 0.551981 0
M  V30 6873 H 631.165 -1.31558 2.67834 0
M  V30 6874 C 629.914 -2.91177 1.9003 0
M  V30 6875 H 629.237 -2.88625 2.76651 0
M  V30 6876 H 630.677 -3.6833 2.10021 0
M  V30 6877 C 629.136 -3.30303 0.663435 0
M  V30 6878 O 629.666 -4.01315 -0.175812 0
M  V30 6879 N 627.872 -2.86201 0.503723 0
M  V30 6880 H 627.419 -2.28583 1.18776 0
M  V30 6881 H 627.377 -3.12741 -0.322575 0
M  V30 6882 N 631.149 -1.42148 -0.680565 0
M  V30 6883 C 632.059 -1.47565 -1.82378 0
M  V30 6884 C 633.075 -0.36489 -1.70131 0
M  V30 6885 O 634.251 -0.614916 -1.91783 0
M  V30 6886 C 631.316 -1.37013 -3.18478 0
M  V30 6887 C 630.377 -2.58532 -3.42724 0
M  V30 6888 C 629.61 -2.48473 -4.72331 0
M  V30 6889 O 629.833 -1.51745 -5.49845 0
M  V30 6890 O 628.767 -3.38503 -4.97694 0
M  V30 6891 H 632.593 -2.44045 -1.80764 0
M  V30 6892 H 630.178 -1.23849 -0.835569 0
M  V30 6893 H 632.06 -1.33468 -3.99705 0
M  V30 6894 H 630.735 -0.436552 -3.20743 0
M  V30 6895 H 629.642 -2.67652 -2.61368 0
M  V30 6896 H 630.975 -3.50769 -3.45286 0
M  V30 6897 N 632.627 0.916307 -1.28225 0
M  V30 6898 C 633.537 2.05165 -1.13775 0
M  V30 6899 C 634.553 1.73879 -0.0649418 0
M  V30 6900 O 635.729 1.99531 -0.273722 0
M  V30 6901 C 632.794 3.37385 -0.798267 0
M  V30 6902 C 631.855 3.82296 -1.95316 0
M  V30 6903 C 631.088 5.08206 -1.62978 0
M  V30 6904 O 631.311 5.6781 -0.542948 0
M  V30 6905 O 630.245 5.48768 -2.47261 0
M  V30 6906 H 634.071 2.20273 -2.09078 0
M  V30 6907 H 631.656 1.0373 -1.07519 0
M  V30 6908 H 633.538 4.16773 -0.62278 0
M  V30 6909 H 632.213 3.23458 0.125139 0
M  V30 6910 H 631.12 3.03746 -2.18378 0
M  V30 6911 H 632.453 4.00782 -2.85718 0
M  V30 6912 N 634.105 1.10431 1.1244 0
M  V30 6913 C 635.382 0.758797 1.80282 0
M  V30 6914 C 635.762 -0.754727 1.97147 0
M  V30 6915 O 635.11 -1.68094 1.54779 0
M  V30 6916 C 635.32 1.50982 3.14651 0
M  V30 6917 C 636.668 1.68232 3.8985 0
M  V30 6918 O 637.692 1.47319 3.24308 0
M  V30 6919 O 636.551 2.02905 5.07437 0
M  V30 6920 H 633.645 0.273756 0.780376 0
M  V30 6921 H 636.191 1.20713 1.19275 0
M  V30 6922 H 634.963 2.53989 2.97666 0
M  V30 6923 H 634.586 1.05435 3.83366 0
M  V30 6924 N 635.583 -1.29855 0.893053 0
M  V30 6925 C 636.493 -2.31661 0.370157 0
M  V30 6926 C 637.509 -1.65677 -0.531723 0
M  V30 6927 O 638.685 -1.9691 -0.422902 0
M  V30 6928 C 635.75 -3.44388 -0.399741 0
M  V30 6929 C 634.811 -4.2598 0.532861 0
M  V30 6930 C 634.044 -5.33324 -0.200388 0
M  V30 6931 O 634.267 -5.52305 -1.42531 0
M  V30 6932 O 633.201 -6.00188 0.453668 0
M  V30 6933 H 637.027 -2.78354 1.2146 0
M  V30 6934 H 634.612 -1.34171 0.657153 0
M  V30 6935 H 636.494 -4.13037 -0.835358 0
M  V30 6936 H 635.169 -2.99815 -1.22035 0
M  V30 6937 H 634.076 -3.59998 1.01746 0
M  V30 6938 H 635.409 -4.74178 1.3197 0
M  V30 6939 N 637.061 -0.65484 -1.43351 0
M  V30 6940 C 637.971 0.0363603 -2.34572 0
M  V30 6941 C 638.987 0.810432 -1.53974 0
M  V30 6942 O 640.163 0.757308 -1.86619 0
M  V30 6943 C 637.228 0.989733 -3.32273 0
M  V30 6944 C 636.289 0.212414 -4.28774 0
M  V30 6945 C 635.522 1.12038 -5.21808 0
M  V30 6946 O 635.745 2.35967 -5.19303 0
M  V30 6947 O 634.679 0.59191 -5.98982 0
M  V30 6948 H 638.505 -0.714527 -2.95175 0
M  V30 6949 H 636.09 -0.415029 -1.4352 0
M  V30 6950 H 637.972 1.53759 -3.92347 0
M  V30 6951 H 636.647 1.72082 -2.74171 0
M  V30 6952 H 635.554 -0.379062 -3.72175 0
M  V30 6953 H 636.887 -0.479138 -4.89862 0
M  V30 6954 N 638.539 1.52521 -0.396863 0
M  V30 6955 C 639.449 2.30403 0.44178 0
M  V30 6956 C 640.465 1.37625 1.06468 0
M  V30 6957 O 641.641 1.70697 1.06886 0
M  V30 6958 C 638.706 3.1013 1.54986 0
M  V30 6959 C 637.767 4.18628 0.951279 0
M  V30 6960 C 637 4.94543 2.00655 0
M  V30 6961 O 637.223 4.70629 3.22281 0
M  V30 6962 O 636.157 5.797 1.61962 0
M  V30 6963 H 639.983 3.03087 -0.192892 0
M  V30 6964 H 637.568 1.48537 -0.16038 0
M  V30 6965 H 639.45 3.59816 2.19341 0
M  V30 6966 H 638.125 2.40251 2.16935 0
M  V30 6967 H 637.032 3.73119 0.270773 0
M  V30 6968 H 638.365 4.90763 0.375887 0
M  V30 6969 N 640.017 0.126909 1.57088 0
M  V30 6970 C 640.927 -0.833867 2.1928 0
M  V30 6971 C 641.943 -1.2868 1.17122 0
M  V30 6972 O 643.119 -1.34815 1.49622 0
M  V30 6973 C 640.184 -2.0632 2.78627 0
M  V30 6974 C 639.245 -1.66143 3.95847 0
M  V30 6975 C 638.478 -2.83217 4.52354 0
M  V30 6976 O 638.701 -3.98868 4.0775 0
M  V30 6977 O 637.635 -2.59846 5.42922 0
M  V30 6978 H 641.461 -0.334564 3.01852 0
M  V30 6979 H 639.046 -0.0991091 1.49071 0
M  V30 6980 H 640.928 -2.78304 3.16425 0
M  V30 6981 H 639.603 -2.55242 1.99082 0
M  V30 6982 H 638.51 -0.912435 3.62802 0
M  V30 6983 H 639.843 -1.21957 4.76852 0
M  V30 6984 N 641.495 -1.56914 -0.146875 0
M  V30 6985 C 642.743 -1.82994 -0.85777 0
M  V30 6986 C 643.064 -0.707814 -1.817 0
M  V30 6987 O 642.334 0.270521 -1.94023 0
M  V30 6988 H 640.914 -0.675106 -0.319751 0
M  V30 6989 H 643.576 -1.9439 -0.140849 0
M  V30 6990 H 642.672 -2.77928 -1.41994 0
M  V30 6991 N 642.974 0.416227 -1.52004 0
M  V30 6992 C 644.251 1.17637 -1.56272 0
M  V30 6993 C 644.631 2.08352 -0.339493 0
M  V30 6994 O 643.979 2.1833 0.674124 0
M  V30 6995 C 644.189 1.95986 -2.88774 0
M  V30 6996 C 645.537 2.52299 -3.41512 0
M  V30 6997 O 646.561 2.06174 -2.90467 0
M  V30 6998 O 645.42 3.3648 -4.30631 0
M  V30 6999 H 642.514 0.536726 -0.629169 0
M  V30 7000 H 645.06 0.423583 -1.64329 0
M  V30 7001 H 643.832 1.29487 -3.69254 0
M  V30 7002 H 643.455 2.78285 -2.83978 0
M  V30 7003 N 644.452 1.42507 0.673017 0
M  V30 7004 C 645.362 1.4853 1.81593 0
M  V30 7005 C 646.378 0.373907 1.69935 0
M  V30 7006 O 647.554 0.625078 1.91454 0
M  V30 7007 C 644.619 1.387 3.17747 0
M  V30 7008 C 643.68 2.60346 3.41348 0
M  V30 7009 C 642.913 2.50975 4.71007 0
M  V30 7010 O 643.136 1.54659 5.49033 0
M  V30 7011 O 642.07 3.41138 4.95892 0
M  V30 7012 H 645.896 2.45001 1.79467 0
M  V30 7013 H 643.481 1.2429 0.82899 0
M  V30 7014 H 645.363 1.35586 3.98992 0
M  V30 7015 H 644.038 0.453555 3.20507 0
M  V30 7016 H 642.945 2.69034 2.59945 0
M  V30 7017 H 644.278 3.52595 3.43421 0
M  V30 7018 N 645.93 -0.909495 1.28709 0
M  V30 7019 C 647.179 -1.65365 1.15487 0
M  V30 7020 C 647.492 -1.93364 -0.294941 0
M  V30 7021 O 648.698 -2.65905 -0.548338 0
M  V30 7022 C 647.154 -2.97923 2.01916 0
M  V30 7023 C 646.762 -2.77556 3.51663 0
M  V30 7024 C 648.506 -3.75814 1.97393 0
M  V30 7025 C 646.413 -4.0578 4.30229 0
M  V30 7026 H 645.343 -0.620323 0.42862 0
M  V30 7027 H 647.994 -1.00894 1.53273 0
M  V30 7028 H 646.376 -3.63552 1.5699 0
M  V30 7029 H 647.55 -2.2058 4.04575 0
M  V30 7030 H 645.865 -2.13072 3.57756 0
M  V30 7031 H 648.462 -4.70866 2.53357 0
M  V30 7032 H 648.805 -4.05277 0.951643 0
M  V30 7033 H 649.338 -3.1701 2.40311 0
M  V30 7034 H 646.077 -3.81488 5.33055 0
M  V30 7035 H 645.597 -4.62351 3.82089 0
M  V30 7036 H 647.276 -4.74004 4.40374 0
M  V30 7037 N 647.408 -1.11026 -1.11852 0
M  V30 7038 C 648.633 -0.879064 -1.87849 0
M  V30 7039 C 649.058 0.565406 -1.79401 0
M  V30 7040 O 648.416 1.39886 -1.15333 0
M  V30 7041 C 648.464 -1.33985 -3.34784 0
M  V30 7042 O 647.568 -0.508803 -4.09249 0
M  V30 7043 H 646.909 -0.316992 -0.583448 0
M  V30 7044 H 649.439 -1.47863 -1.41413 0
M  V30 7045 H 649.449 -1.33248 -3.85628 0
M  V30 7046 H 648.124 -2.39172 -3.40249 0
M  V30 7047 H 646.701 -0.581913 -3.68332 0
M  V30 7048 N 648.886 1.2938 -0.899927 0
M  V30 7049 C 650.111 2.00228 -0.540692 0
M  V30 7050 C 650.536 1.66909 0.867359 0
M  V30 7051 O 649.894 0.893824 1.57735 0
M  V30 7052 C 649.942 3.52921 -0.740232 0
M  V30 7053 O 649.046 4.11879 0.207154 0
M  V30 7054 H 648.387 0.629505 -0.211233 0
M  V30 7055 H 650.917 1.6487 -1.21158 0
M  V30 7056 H 650.927 4.0287 -0.644973 0
M  V30 7057 H 649.602 3.76508 -1.76677 0
M  V30 7058 H 648.179 3.72845 0.0643315 0
M  V30 7059 N 650.364 0.662433 1.43002 0
M  V30 7060 C 651.589 0.186003 2.06564 0
M  V30 7061 C 652.014 -1.14314 1.49379 0
M  V30 7062 O 651.372 -1.70824 0.607346 0
M  V30 7063 C 651.42 0.118269 3.60406 0
M  V30 7064 O 650.524 -0.916859 4.02079 0
M  V30 7065 H 649.865 0.0990981 0.656563 0
M  V30 7066 H 652.395 0.907958 1.8335 0
M  V30 7067 H 652.405 -0.0619981 4.07953 0
M  V30 7068 H 651.08 1.08849 4.01403 0
M  V30 7069 H 649.657 -0.708635 3.66105 0
M  V30 7070 N 651.842 -1.52309 0.404946 0
M  V30 7071 C 653.07 -2.06185 -0.171818 0
M  V30 7072 C 653.485 -1.27536 -1.39212 0
M  V30 7073 O 652.842 -0.326112 -1.79563 0
M  V30 7074 C 652.893 -3.57647 -0.526417 0
M  V30 7075 O 652.614 -4.3332 0.645417 0
M  V30 7076 C 654.115 -4.27925 -1.15736 0
M  V30 7077 H 651.335 -0.670632 -0.0222328 0
M  V30 7078 H 653.879 -1.96259 0.574692 0
M  V30 7079 H 652.034 -3.67595 -1.22282 0
M  V30 7080 H 652.448 -5.23328 0.35042 0
M  V30 7081 H 653.922 -5.35093 -1.35572 0
M  V30 7082 H 654.399 -3.84134 -2.12926 0
M  V30 7083 H 655.005 -4.22335 -0.501281 0
M  V30 7084 N 653.32 -0.135238 -1.57019 0
M  V30 7085 C 654.731 0.387521 -1.82634 0
M  V30 7086 C 655.082 1.65528 -1.05332 0
M  V30 7087 O 654.207 2.14381 -0.294926 0
M  V30 7088 C 654.802 0.709852 -3.3128 0
M  V30 7089 C 653.361 1.17718 -3.57518 0
M  V30 7090 C 652.508 0.194183 -2.76619 0
M  V30 7091 H 655.459 -0.360126 -1.5456 0
M  V30 7092 H 655.48 1.5657 -3.46794 0
M  V30 7093 H 654.992 -0.213024 -3.87515 0
M  V30 7094 H 653.093 2.1164 -3.06658 0
M  V30 7095 H 653.206 1.11128 -4.66034 0
M  V30 7096 H 651.57 0.684478 -2.4533 0
M  V30 7097 H 652.353 -0.722076 -3.3562 0
M  V30 7098 N 654.798 1.5699 0.138552 0
M  V30 7099 C 656.023 1.88344 0.86841 0
M  V30 7100 C 656.448 0.725159 1.7356 0
M  V30 7101 O 655.806 -0.324992 1.78363 0
M  V30 7102 C 655.854 3.18334 1.69398 0
M  V30 7103 O 654.958 3.02863 2.79907 0
M  V30 7104 H 654.299 0.618577 0.241367 0
M  V30 7105 H 656.829 2.04207 0.126826 0
M  V30 7106 H 656.839 3.50567 2.08726 0
M  V30 7107 H 655.514 4.02238 1.05725 0
M  V30 7108 H 654.091 2.82056 2.43924 0
M  V30 7109 N 656.276 -0.40816 1.52223 0
M  V30 7110 C 657.522 -1.15673 1.66576 0
M  V30 7111 C 657.855 -1.90141 0.394996 0
M  V30 7112 O 657.13 -1.84798 -0.606613 0
M  V30 7113 C 657.413 -2.15042 2.88841 0
M  V30 7114 C 657.266 -1.44465 4.25969 0
M  V30 7115 C 658.585 -3.15699 3.0663 0
M  V30 7116 H 655.704 -0.41916 0.606196 0
M  V30 7117 H 658.346 -0.442348 1.84779 0
M  V30 7118 H 656.496 -2.75964 2.73452 0
M  V30 7119 H 658.168 -0.866544 4.53088 0
M  V30 7120 H 656.411 -0.746612 4.27327 0
M  V30 7121 H 657.082 -2.16976 5.07568 0
M  V30 7122 H 659.558 -2.64854 3.20923 0
M  V30 7123 H 658.434 -3.82491 3.9369 0
M  V30 7124 H 658.695 -3.83481 2.19987 0
M  V30 7125 N 657.755 -1.42862 -0.66545 0
M  V30 7126 C 659.002 -1.4383 -1.42546 0
M  V30 7127 C 659.33 -0.0581114 -1.94413 0
M  V30 7128 O 658.585 0.935002 -1.71919 0
M  V30 7129 C 658.884 -2.4175 -2.63233 0
M  V30 7130 C 658.55 -3.87915 -2.29854 0
M  V30 7131 C 657.212 -4.27726 -2.20463 0
M  V30 7132 C 659.564 -4.80074 -2.02924 0
M  V30 7133 C 656.892 -5.57666 -1.82279 0
M  V30 7134 C 659.244 -6.10366 -1.66242 0
M  V30 7135 C 657.908 -6.49167 -1.55367 0
M  V30 7136 H 657.178 -0.52631 -0.521612 0
M  V30 7137 H 659.825 -1.75863 -0.757914 0
M  V30 7138 H 658.13 -2.03077 -3.35063 0
M  V30 7139 H 659.827 -2.39759 -3.21429 0
M  V30 7140 H 656.417 -3.564 -2.3807 0
M  V30 7141 H 660.601 -4.50097 -2.09108 0
M  V30 7142 H 655.857 -5.8658 -1.72436 0
M  V30 7143 H 660.031 -6.81258 -1.44432 0
M  V30 7144 H 657.658 -7.49761 -1.2555 0
M  V30 7145 N 659.233 0.902656 -1.29189 0
M  V30 7146 C 660.143 2.03946 -1.15944 0
M  V30 7147 C 661.159 1.738 -0.0833803 0
M  V30 7148 O 662.335 1.9923 -0.29487 0
M  V30 7149 C 659.4 3.36519 -0.834006 0
M  V30 7150 C 658.461 3.80203 -1.9936 0
M  V30 7151 C 657.694 5.06449 -1.68359 0
M  V30 7152 O 657.917 5.67202 -0.603141 0
M  V30 7153 O 656.851 5.46114 -2.53067 0
M  V30 7154 H 660.677 2.18043 -2.11403 0
M  V30 7155 H 658.262 1.02584 -1.08613 0
M  V30 7156 H 660.144 4.16089 -0.666949 0
M  V30 7157 H 658.819 3.23573 0.0908245 0
M  V30 7158 H 657.726 3.01413 -2.21588 0
M  V30 7159 H 659.059 3.97729 -2.89952 0
M  V30 7160 N 660.711 1.11618 1.11262 0
M  V30 7161 C 661.988 0.777876 1.79467 0
M  V30 7162 C 662.368 -0.733774 1.97937 0
M  V30 7163 O 661.716 -1.66443 1.56554 0
M  V30 7164 C 661.926 1.5431 3.13032 0
M  V30 7165 C 663.274 1.72357 3.88044 0
M  V30 7166 O 664.298 1.5075 3.22727 0
M  V30 7167 O 663.157 2.08276 5.05256 0
M  V30 7168 H 660.251 0.282018 0.777428 0
M  V30 7169 H 662.797 1.21971 1.17988 0
M  V30 7170 H 661.569 2.57132 2.94956 0
M  V30 7171 H 661.192 1.09495 3.82226 0
M  V30 7172 N 662.189 -1.289 0.906776 0
M  V30 7173 C 663.099 -2.31256 0.394707 0
M  V30 7174 C 664.115 -1.66231 -0.514121 0
M  V30 7175 O 665.291 -1.97347 -0.401994 0
M  V30 7176 C 662.356 -3.44792 -0.363191 0
M  V30 7177 C 661.417 -4.25391 0.578012 0
M  V30 7178 C 660.65 -5.33506 -0.143811 0
M  V30 7179 O 660.873 -5.53786 -1.36665 0
M  V30 7180 O 659.807 -5.99673 0.5173 0
M  V30 7181 H 663.633 -2.77051 1.24405 0
M  V30 7182 H 661.218 -1.33466 0.671346 0
M  V30 7183 H 663.1 -4.139 -0.791503 0
M  V30 7184 H 661.775 -3.01093 -1.18848 0
M  V30 7185 H 660.682 -3.58899 1.05558 0
M  V30 7186 H 662.015 -4.72752 1.36992 0
M  V30 7187 N 663.667 -0.670007 -1.42649 0
M  V30 7188 C 665.078 -0.268118 -1.84765 0
M  V30 7189 C 665.429 1.18877 -1.56086 0
M  V30 7190 O 664.554 1.90947 -1.01825 0
M  V30 7191 C 665.149 -0.47984 -3.35385 0
M  V30 7192 C 663.708 -0.132116 -3.76168 0
M  V30 7193 C 662.855 -0.774611 -2.66261 0
M  V30 7194 H 665.806 -0.872509 -1.32563 0
M  V30 7195 H 665.827 0.269522 -3.79544 0
M  V30 7196 H 665.339 -1.54026 -3.56227 0
M  V30 7197 H 663.44 0.92505 -3.60934 0
M  V30 7198 H 663.553 -0.569294 -4.75706 0
M  V30 7199 H 661.917 -0.206353 -2.53863 0
M  V30 7200 H 662.7 -1.83839 -2.89928 0
M  V30 7201 N 665.145 1.52092 -0.413018 0
M  V30 7202 C 666.077 2.24819 0.445994 0
M  V30 7203 C 667.09 1.27925 1.00692 0
M  V30 7204 O 668.279 1.53845 0.905204 0
M  V30 7205 C 665.379 2.96951 1.6332 0
M  V30 7206 C 664.552 4.20746 1.19548 0
M  V30 7207 C 663.611 4.75668 2.25003 0
M  V30 7208 O 662.637 5.38148 1.85434 0
M  V30 7209 N 663.839 4.57579 3.57214 0
M  V30 7210 H 666.604 2.99176 -0.177209 0
M  V30 7211 H 664.165 1.60102 -0.240601 0
M  V30 7212 H 666.157 3.30586 2.33441 0
M  V30 7213 H 664.727 2.25756 2.16225 0
M  V30 7214 H 663.947 3.92881 0.32224 0
M  V30 7215 H 665.235 5.01132 0.880033 0
M  V30 7216 H 664.633 4.07758 3.92109 0
M  V30 7217 H 663.19 4.95642 4.23299 0
M  V30 7218 N 666.623 0.143563 1.56945 0
M  V30 7219 C 667.871 -0.507402 1.95627 0
M  V30 7220 C 668.192 -1.65626 1.02922 0
M  V30 7221 O 667.462 -1.95693 0.0901136 0
M  V30 7222 H 666.042 -0.190436 0.722318 0
M  V30 7223 H 668.704 0.218257 1.93674 0
M  V30 7224 H 667.8 -0.885816 2.99265 0
M  V30 7225 N 668.101 -1.57061 -0.130224 0
M  V30 7226 C 669.326 -1.88802 -0.858409 0
M  V30 7227 C 669.751 -0.734353 -1.73173 0
M  V30 7228 O 669.109 0.315529 -1.78533 0
M  V30 7229 C 669.157 -3.19228 -1.67708 0
M  V30 7230 O 668.261 -3.04343 -2.78297 0
M  V30 7231 H 667.602 -0.619849 -0.238083 0
M  V30 7232 H 670.132 -2.04271 -0.115995 0
M  V30 7233 H 670.142 -3.51669 -2.06864 0
M  V30 7234 H 668.817 -4.02793 -1.0359 0
M  V30 7235 H 667.394 -2.83346 -2.42425 0
M  V30 7236 N 669.579 0.400081 -1.52437 0
M  V30 7237 C 670.807 1.16768 -1.70801 0
M  V30 7238 C 671.222 1.84036 -0.421462 0
M  V30 7239 O 670.579 1.72242 0.603228 0
M  V30 7240 C 670.63 2.22403 -2.8499 0
M  V30 7241 O 670.351 1.57879 -4.08663 0
M  V30 7242 C 671.852 3.11974 -3.1494 0
M  V30 7243 H 669.072 0.350533 -0.57216 0
M  V30 7244 H 671.616 0.469534 -1.99037 0
M  V30 7245 H 669.771 2.87871 -2.59247 0
M  V30 7246 H 670.185 2.27982 -4.7236 0
M  V30 7247 H 671.659 3.82148 -3.9833 0
M  V30 7248 H 672.136 3.74858 -2.28863 0
M  V30 7249 H 672.742 2.52165 -3.42481 0
M  V30 7250 N 671.057 1.43213 0.657864 0
M  V30 7251 C 672.287 1.478 1.44356 0
M  V30 7252 C 672.695 0.0930206 1.88971 0
M  V30 7253 O 672.038 -0.906089 1.59799 0
M  V30 7254 C 672.1 2.35745 2.71412 0
M  V30 7255 C 671.764 3.83359 2.48767 0
M  V30 7256 C 672.761 4.74585 2.12285 0
M  V30 7257 C 670.446 4.27799 2.63235 0
M  V30 7258 C 672.44 6.08247 1.90562 0
M  V30 7259 C 670.127 5.61516 2.41128 0
M  V30 7260 C 671.125 6.51557 2.04847 0
M  V30 7261 O 670.813 7.82802 1.82967 0
M  V30 7262 H 670.545 0.504363 0.450104 0
M  V30 7263 H 673.099 1.88572 0.814241 0
M  V30 7264 H 671.329 1.89852 3.36887 0
M  V30 7265 H 673.018 2.31589 3.33348 0
M  V30 7266 H 673.784 4.41531 2.00687 0
M  V30 7267 H 669.663 3.57993 2.90451 0
M  V30 7268 H 673.207 6.78489 1.62168 0
M  V30 7269 H 669.104 5.94139 2.52327 0
M  V30 7270 H 669.872 7.94332 1.97429 0
M  V30 7271 N 672.536 -0.895792 1.29666 0
M  V30 7272 C 673.499 -1.98189 1.15124 0
M  V30 7273 C 674.499 -1.60572 0.0855717 0
M  V30 7274 O 675.689 -1.70991 0.332826 0
M  V30 7275 C 672.821 -3.32289 0.761372 0
M  V30 7276 H 674.014 -2.12518 2.11603 0
M  V30 7277 H 671.567 -1.0808 1.12908 0
M  V30 7278 H 672.302 -3.23662 -0.203393 0
M  V30 7279 H 672.087 -3.60958 1.53139 0
M  V30 7280 H 673.577 -4.1198 0.682792 0
M  V30 7281 N 674.014 -1.12206 -1.10668 0
M  V30 7282 C 674.977 -0.790867 -2.15123 0
M  V30 7283 C 675.977 0.193618 -1.5963 0
M  V30 7284 O 677.167 -0.0318728 -1.74171 0
M  V30 7285 C 674.299 -0.174797 -3.40452 0
M  V30 7286 H 675.492 -1.7163 -2.45933 0
M  V30 7287 H 673.045 -0.924993 -1.2599 0
M  V30 7288 H 673.78 0.760478 -3.15257 0
M  V30 7289 H 673.565 -0.88358 -3.82015 0
M  V30 7290 H 675.055 0.0405162 -4.1758 0
M  V30 7291 N 675.492 1.28418 -0.913599 0
M  V30 7292 C 676.717 1.99643 -0.561899 0
M  V30 7293 C 677.142 1.67819 0.849608 0
M  V30 7294 O 676.5 0.910503 1.56779 0
M  V30 7295 C 676.548 3.52116 -0.777622 0
M  V30 7296 O 675.652 4.12076 0.163457 0
M  V30 7297 H 674.993 0.627229 -0.217898 0
M  V30 7298 H 677.523 1.63575 -1.229 0
M  V30 7299 H 677.533 4.02163 -0.687666 0
M  V30 7300 H 676.208 3.74613 -1.8066 0
M  V30 7301 H 674.785 3.72892 0.0247827 0
M  V30 7302 N 676.97 0.677563 1.42291 0
M  V30 7303 C 678.195 0.207901 2.06355 0
M  V30 7304 C 678.62 -1.12723 1.50583 0
M  V30 7305 O 677.978 -1.70171 0.62543 0
M  V30 7306 C 678.026 0.156489 3.6026 0
M  V30 7307 O 677.13 -0.874162 4.03029 0
M  V30 7308 H 676.471 0.106056 0.655475 0
M  V30 7309 H 679.001 0.927354 1.82377 0
M  V30 7310 H 679.011 -0.0187258 4.07996 0
M  V30 7311 H 677.686 1.13101 4.00226 0
M  V30 7312 H 676.263 -0.669764 3.66836 0
M  V30 7313 N 678.448 -1.51871 0.421078 0
M  V30 7314 C 679.411 -2.25914 -0.386712 0
M  V30 7315 C 680.411 -1.28733 -0.963555 0
M  V30 7316 O 681.601 -1.52579 -0.840556 0
M  V30 7317 C 678.733 -3.03853 -1.54551 0
M  V30 7318 H 679.926 -2.98754 0.261978 0
M  V30 7319 H 677.479 -1.5533 0.173862 0
M  V30 7320 H 678.214 -2.35392 -2.23072 0
M  V30 7321 H 677.999 -3.75215 -1.13824 0
M  V30 7322 H 679.489 -3.59984 -2.11663 0
M  V30 7323 N 679.926 -0.151884 -1.56866 0
M  V30 7324 C 681.154 0.504813 -2.00647 0
M  V30 7325 C 681.569 1.58098 -1.03201 0
M  V30 7326 O 680.926 1.82476 -0.0297814 0
M  V30 7327 C 680.977 1.10099 -3.44326 0
M  V30 7328 O 680.698 0.0678021 -4.38048 0
M  V30 7329 C 682.199 1.83782 -4.03409 0
M  V30 7330 H 679.419 0.130989 -0.65809 0
M  V30 7331 H 681.963 -0.247903 -2.02992 0
M  V30 7332 H 680.118 1.8043 -3.42817 0
M  V30 7333 H 680.532 0.505237 -5.22061 0
M  V30 7334 H 682.006 2.2078 -5.05925 0
M  V30 7335 H 682.483 2.72557 -3.44397 0
M  V30 7336 H 683.089 1.18138 -4.08563 0
M  V30 7337 N 681.404 1.57128 0.121893 0
M  V30 7338 C 682.629 1.89254 0.848385 0
M  V30 7339 C 683.054 0.743527 1.72781 0
M  V30 7340 O 682.412 -0.306056 1.78698 0
M  V30 7341 C 682.46 3.20113 1.66012 0
M  V30 7342 O 681.564 3.05815 2.76679 0
M  V30 7343 H 680.905 0.621103 0.234793 0
M  V30 7344 H 683.435 2.0433 0.10516 0
M  V30 7345 H 683.445 3.52761 2.04996 0
M  V30 7346 H 682.12 4.03336 1.01452 0
M  V30 7347 H 680.697 2.84627 2.40918 0
M  V30 7348 N 682.882 -0.391992 1.52647 0
M  V30 7349 C 684.128 -1.139 1.67793 0
M  V30 7350 C 684.461 -1.89711 0.41514 0
M  V30 7351 O 683.736 -1.85431 -0.586979 0
M  V30 7352 C 684.019 -2.11966 2.91105 0
M  V30 7353 C 683.872 -1.39939 4.27478 0
M  V30 7354 C 685.191 -3.1243 3.09961 0
M  V30 7355 H 682.31 -0.412707 0.610608 0
M  V30 7356 H 684.952 -0.422725 1.85238 0
M  V30 7357 H 683.102 -2.73048 2.76364 0
M  V30 7358 H 684.774 -0.818439 4.53982 0
M  V30 7359 H 683.017 -0.701246 4.28095 0
M  V30 7360 H 683.688 -2.1158 5.09841 0
M  V30 7361 H 686.164 -2.61435 3.23714 0
M  V30 7362 H 685.04 -3.78294 3.97725 0
M  V30 7363 H 685.301 -3.81127 2.24042 0
M  V30 7364 N 684.36 -1.4356 -0.65026 0
M  V30 7365 C 685.637 -1.35811 -1.40765 0
M  V30 7366 C 686.017 -0.00736379 -2.11099 0
M  V30 7367 O 685.365 1.00932 -2.05 0
M  V30 7368 C 685.575 -2.54332 -2.3899 0
M  V30 7369 C 686.923 -2.97551 -3.02901 0
M  V30 7370 O 687.947 -2.544 -2.49317 0
M  V30 7371 O 686.806 -3.72311 -4.00059 0
M  V30 7372 H 683.9 -0.536861 -0.629054 0
M  V30 7373 H 686.446 -1.55615 -0.676919 0
M  V30 7374 H 685.218 -3.44274 -1.85986 0
M  V30 7375 H 684.841 -2.36643 -3.19509 0
M  V30 7376 N 685.838 0.888903 -1.30139 0
M  V30 7377 C 687.115 1.62145 -1.094 0
M  V30 7378 C 687.495 2.08041 0.358091 0
M  V30 7379 O 686.843 1.84438 1.34888 0
M  V30 7380 C 687.053 2.794 -2.09133 0
M  V30 7381 C 688.401 3.49826 -2.40638 0
M  V30 7382 O 689.425 2.89583 -2.07412 0
M  V30 7383 O 688.284 4.58457 -2.97455 0
M  V30 7384 H 685.378 0.712475 -0.41989 0
M  V30 7385 H 687.924 0.936023 -1.41551 0
M  V30 7386 H 686.696 2.42762 -3.06891 0
M  V30 7387 H 686.319 3.55643 -1.77776 0
M  V30 7388 N 687.317 1.12792 1.10072 0
M  V30 7389 C 688.247 0.821688 2.18565 0
M  V30 7390 C 689.228 -0.21612 1.68721 0
M  V30 7391 O 690.413 -0.0764932 1.94049 0
M  V30 7392 C 687.543 0.279624 3.46172 0
M  V30 7393 C 686.497 1.25092 4.09312 0
M  V30 7394 C 685.823 0.568916 5.31665 0
M  V30 7395 C 687.123 2.60699 4.52585 0
M  V30 7396 H 688.817 1.72888 2.44438 0
M  V30 7397 H 686.363 0.832702 1.17482 0
M  V30 7398 H 688.316 0.053099 4.21367 0
M  V30 7399 H 687.04 -0.662929 3.19801 0
M  V30 7400 H 685.699 1.46332 3.36129 0
M  V30 7401 H 685.347 -0.378898 5.01571 0
M  V30 7402 H 685.047 1.21687 5.74862 0
M  V30 7403 H 686.571 0.351517 6.09587 0
M  V30 7404 H 687.985 2.43465 5.19035 0
M  V30 7405 H 686.382 3.21608 5.06644 0
M  V30 7406 H 687.452 3.1886 3.65317 0
M  V30 7407 N 688.795 -1.27931 0.920396 0
M  V30 7408 C 690.072 -1.89728 0.475687 0
M  V30 7409 C 690.452 -1.8337 -1.04588 0
M  V30 7410 O 689.8 -1.27404 -1.89685 0
M  V30 7411 C 690.01 -3.33959 1.01354 0
M  V30 7412 C 691.358 -4.10907 1.06963 0
M  V30 7413 O 692.382 -3.42945 0.962646 0
M  V30 7414 O 691.241 -5.32399 1.23343 0
M  V30 7415 H 688.335 -0.81294 0.151845 0
M  V30 7416 H 690.881 -1.36252 1.01161 0
M  V30 7417 H 689.653 -3.32843 2.05746 0
M  V30 7418 H 689.276 -3.94944 0.458829 0
M  V30 7419 N 690.273 -0.685099 -1.4193 0
M  V30 7420 C 691.498 -0.218842 -2.06242 0
M  V30 7421 C 691.923 1.11923 -1.51178 0
M  V30 7422 O 691.281 1.69837 -0.634446 0
M  V30 7423 C 691.329 -0.175592 -3.60172 0
M  V30 7424 O 690.433 0.852776 -4.03487 0
M  V30 7425 H 689.774 -0.109531 -0.654904 0
M  V30 7426 H 692.304 -0.937013 -1.81882 0
M  V30 7427 H 692.314 -0.00291151 -4.08 0
M  V30 7428 H 690.989 -1.15222 -3.99621 0
M  V30 7429 H 689.566 0.650301 -3.67186 0
M  V30 7430 N 691.751 1.51645 -0.429126 0
M  V30 7431 C 692.698 2.27542 0.386446 0
M  V30 7432 C 693.668 1.30786 1.02393 0
M  V30 7433 O 694.853 1.59678 1.0444 0
M  V30 7434 C 691.993 3.11457 1.48623 0
M  V30 7435 C 691.106 4.23196 0.867691 0
M  V30 7436 C 690.241 4.94435 1.94183 0
M  V30 7437 C 689.28 5.98108 1.30129 0
M  V30 7438 N 688.417 6.62786 2.31644 0
M  V30 7439 H 693.257 2.968 -0.267155 0
M  V30 7440 H 690.794 1.46397 -0.143591 0
M  V30 7441 H 692.752 3.58429 2.13506 0
M  V30 7442 H 691.382 2.44329 2.10957 0
M  V30 7443 H 690.434 3.80248 0.107373 0
M  V30 7444 H 691.746 4.97499 0.35997 0
M  V30 7445 H 690.9 5.44914 2.66747 0
M  V30 7446 H 689.639 4.19744 2.48326 0
M  V30 7447 H 688.644 5.4693 0.561082 0
M  V30 7448 H 689.869 6.74751 0.767303 0
M  V30 7449 H 687.815 5.90913 2.84883 0
M  V30 7450 H 687.732 7.32828 1.85741 0
M  V30 7451 H 689 7.17897 3.03717 0
M  V30 7452 N 693.229 0.160201 1.56784 0
M  V30 7453 C 694.645 -0.196089 1.58391 0
M  V30 7454 C 694.845 -1.63689 1.17508 0
M  V30 7455 O 693.901 -2.36613 0.881506 0
M  V30 7456 C 695.214 0.0746449 3.00607 0
M  V30 7457 C 696.762 0.0119762 3.12998 0
M  V30 7458 C 697.237 0.255551 4.57286 0
M  V30 7459 N 698.728 0.202938 4.62755 0
M  V30 7460 C 699.463 0.365731 5.72232 0
M  V30 7461 N 698.959 0.586972 6.90309 0
M  V30 7462 N 700.752 0.302411 5.61286 0
M  V30 7463 H 692.903 1.1008 1.81648 0
M  V30 7464 H 695.166 0.436779 0.841384 0
M  V30 7465 H 694.872 1.07231 3.34954 0
M  V30 7466 H 694.746 -0.638802 3.71751 0
M  V30 7467 H 697.133 -0.976254 2.78484 0
M  V30 7468 H 697.214 0.75796 2.44313 0
M  V30 7469 H 696.858 1.24094 4.92507 0
M  V30 7470 H 696.788 -0.510912 5.24116 0
M  V30 7471 H 699.279 0.0371328 3.77882 0
M  V30 7472 H 699.592 0.700941 7.69615 0
M  V30 7473 H 697.937 0.623453 6.92198 0
M  V30 7474 H 701.128 0.130238 4.67919 0
M  V30 7475 H 701.301 0.432712 6.46554 0
M  V30 7476 N 694.707 -1.5719 -0.113559 0
M  V30 7477 C 695.655 -2.01725 -1.158 0
M  V30 7478 C 696.649 -0.915105 -1.42556 0
M  V30 7479 O 697.855 -1.10031 -1.42454 0
M  V30 7480 H 694.23 -0.64262 -0.390569 0
M  V30 7481 H 696.201 -2.88666 -0.755926 0
M  V30 7482 C 694.95 -2.44203 -2.47507 0
M  V30 7483 H 694.273 -3.28582 -2.27758 0
M  V30 7484 H 695.713 -2.79158 -3.19135 0
M  V30 7485 C 694.172 -1.30785 -3.10478 0
M  V30 7486 O 694.702 -0.626807 -3.9678 0
M  V30 7487 N 692.908 -1.06352 -2.7044 0
M  V30 7488 H 692.455 -1.61913 -2.00355 0
M  V30 7489 H 692.413 -0.306614 -3.12901 0
M  V30 7490 O 696.224 0.257811 -1.59429 0
M  V30 7491 H 696.915 0.901882 -1.71423 0
M  V30 END ATOM
M  V30 BEGIN BOND
M  V30 END BOND
M  V30 END CTAB
M  END
$$$$
