drugbank_target|O14561 Acyl carrier protein, mitochondrial (DB00157)
 OpenBabel12092119343D

  0  0  0     0  0            999 V3000
M  V30 BEGIN CTAB
M  V30 COUNTS 2467 2488 0 0 0
M  V30 BEGIN ATOM
M  V30 1 H -0.908 1.98254 -0.117106 0
M  V30 2 N 0 1.576 0 0
M  V30 3 C 0.933 2.03868 1.02534 0
M  V30 4 C 1.911 0.928543 1.3348 0
M  V30 5 O 3.095 1.19667 1.45644 0
M  V30 6 C 0.222 2.43627 2.35294 0
M  V30 7 C -0.732 3.65373 2.2001 0
M  V30 8 S 0.101 5.13292 1.52614 0
M  V30 9 C 1.257 5.56322 2.86805 0
M  V30 10 H 1.49 2.90518 0.631377 0
M  V30 11 H -0.977 1.52953 0.210867 0
M  V30 12 H 0.981 2.67203 3.11629 0
M  V30 13 H -0.358 1.57376 2.7183 0
M  V30 14 H -1.165 3.90944 3.18086 0
M  V30 15 H -1.563 3.418 1.51819 0
M  V30 16 H 0.729 5.58782 3.83104 0
M  V30 17 H 1.672 6.56266 2.65933 0
M  V30 18 H 2.08 4.83886 2.90714 0
M  V30 19 N 1.4781 -0.272755 1.55222 0
M  V30 20 C 2.4411 -1.32041 1.87344 0
M  V30 21 C 3.4411 -1.42342 0.74803 0
M  V30 22 O 4.6311 -1.41488 1.0162 0
M  V30 23 C 1.7631 -2.70173 2.07893 0
M  V30 24 H 2.9561 -1.04789 2.80997 0
M  V30 25 H 0.5091 -0.51083 1.47717 0
M  V30 26 H 1.2441 -3.02605 1.16622 0
M  V30 27 H 1.0291 -2.64082 2.89833 0
M  V30 28 H 2.5191 -3.45869 2.34017 0
M  V30 29 N 2.9562 -1.48159 -0.537278 0
M  V30 30 C 4.1812 -1.59707 -1.32319 0
M  V30 31 C 4.6062 -0.254859 -1.86365 0
M  V30 32 O 3.9642 0.772378 -1.64024 0
M  V30 33 C 4.0122 -2.6412 -2.45505 0
M  V30 34 O 3.1162 -2.20774 -3.48328 0
M  V30 35 H 2.4572 -0.535791 -0.392204 0
M  V30 36 H 4.9872 -1.94092 -0.647268 0
M  V30 37 H 4.9972 -2.85166 -2.91795 0
M  V30 38 H 3.6722 -3.61567 -2.05528 0
M  V30 39 H 2.2492 -2.09911 -3.08207 0
M  V30 40 N 4.4343 0.785586 -1.36625 0
M  V30 41 C 5.8503 1.08419 -1.17122 0
M  V30 42 C 6.0503 2.015 0.00208491 0
M  V30 43 O 5.1063 2.43551 0.666278 0
M  V30 44 C 6.4193 1.69498 -2.48377 0
M  V30 45 C 7.9673 1.81821 -2.54775 0
M  V30 46 C 8.4423 2.46315 -3.86126 0
M  V30 47 N 9.9333 2.53779 -3.87492 0
M  V30 48 C 10.6683 3.045 -4.85868 0
M  V30 49 N 10.1643 3.55499 -5.94637 0
M  V30 50 N 11.9573 3.03247 -4.73284 0
M  V30 51 H 4.1083 0.167264 -2.1174 0
M  V30 52 H 6.3713 0.13682 -0.938075 0
M  V30 53 H 6.0773 1.08571 -3.34522 0
M  V30 54 H 5.9513 2.6896 -2.64462 0
M  V30 55 H 8.3383 2.41884 -1.69045 0
M  V30 56 H 8.4193 0.811532 -2.42586 0
M  V30 57 H 8.0633 1.86895 -4.72263 0
M  V30 58 H 7.9933 3.47561 -3.95612 0
M  V30 59 H 10.4843 2.17672 -3.08913 0
M  V30 60 H 10.7973 3.92562 -6.65669 0
M  V30 61 H 9.1423 3.5364 -5.98301 0
M  V30 62 H 12.3333 2.62696 -3.87438 0
M  V30 63 H 12.5063 3.42467 -5.50109 0
M  V30 64 N 5.9124 1.20967 1.01018 0
M  V30 65 C 7.1584 1.02526 1.74975 0
M  V30 66 C 7.4914 -0.4408 1.89131 0
M  V30 67 O 6.7664 -1.32718 1.42184 0
M  V30 68 C 7.0494 1.71699 3.1653 0
M  V30 69 C 6.9024 3.25791 3.10129 0
M  V30 70 C 8.2214 1.45531 4.15342 0
M  V30 71 H 5.3404 0.373863 0.635134 0
M  V30 72 H 7.9824 1.49071 1.17805 0
M  V30 73 H 6.1324 1.32128 3.65341 0
M  V30 74 H 7.8044 3.74697 2.69072 0
M  V30 75 H 6.0474 3.56363 2.47362 0
M  V30 76 H 6.7184 3.69353 4.10222 0
M  V30 77 H 9.1944 1.79872 3.75213 0
M  V30 78 H 8.0704 1.96453 5.1254 0
M  V30 79 H 8.3314 0.384237 4.40427 0
M  V30 80 N 7.3905 -1.2043 1.01659 0
M  V30 81 C 8.3205 -2.25466 0.607226 0
M  V30 82 C 9.3015 -1.65853 -0.377716 0
M  V30 83 O 10.4865 -1.92409 -0.263149 0
M  V30 84 C 7.6165 -3.47256 -0.0552949 0
M  V30 85 C 6.5705 -4.19462 0.850632 0
M  V30 86 C 5.8965 -5.34673 0.0538859 0
M  V30 87 C 7.1965 -4.75603 2.15868 0
M  V30 88 H 8.8905 -2.59962 1.48526 0
M  V30 89 H 6.4365 -1.2496 0.715605 0
M  V30 90 H 8.3895 -4.19917 -0.353233 0
M  V30 91 H 7.1135 -3.11924 -0.968045 0
M  V30 92 H 5.7725 -3.48667 1.13257 0
M  V30 93 H 5.4205 -4.95585 -0.860514 0
M  V30 94 H 5.1205 -5.83913 0.657192 0
M  V30 95 H 6.6445 -6.10138 -0.237598 0
M  V30 96 H 8.0585 -5.40083 1.92311 0
M  V30 97 H 6.4555 -5.3528 2.71284 0
M  V30 98 H 7.5255 -3.94346 2.82169 0
M  V30 99 N 8.8686 -0.792821 -1.36206 0
M  V30 100 C 10.0936 -0.377701 -2.03932 0
M  V30 101 C 10.5186 0.998947 -1.59382 0
M  V30 102 O 9.8766 1.64421 -0.763903 0
M  V30 103 C 9.9246 -0.453635 -3.57735 0
M  V30 104 O 9.0286 0.538151 -4.08874 0
M  V30 105 H 8.3696 -0.159855 -0.644471 0
M  V30 106 H 10.8996 -1.07488 -1.7409 0
M  V30 107 H 10.9096 -0.318464 -4.06755 0
M  V30 108 H 9.5846 -1.45784 -3.89512 0
M  V30 109 H 8.1616 0.364359 -3.71116 0
M  V30 110 N 10.3467 1.47872 -0.545128 0
M  V30 111 C 11.3097 2.28337 0.198717 0
M  V30 112 C 12.3097 1.36255 0.853888 0
M  V30 113 O 13.4997 1.59003 0.711606 0
M  V30 114 C 10.6317 3.15585 1.28915 0
M  V30 115 H 11.8247 2.95567 -0.507941 0
M  V30 116 H 9.3777 1.53362 -0.301616 0
M  V30 117 H 10.1127 2.53019 2.02859 0
M  V30 118 H 9.8977 3.83337 0.824309 0
M  V30 119 H 11.3877 3.76243 1.81194 0
M  V30 120 N 11.8248 0.280983 1.55075 0
M  V30 121 C 13.0548 -0.336804 2.03836 0
M  V30 122 C 13.4628 -1.49577 1.15859 0
M  V30 123 O 12.8058 -1.82888 0.172503 0
M  V30 124 C 12.8678 -0.874616 3.48699 0
M  V30 125 C 12.5318 0.156478 4.56732 0
M  V30 126 C 13.5288 0.978032 5.10618 0
M  V30 127 C 11.2138 0.292409 5.01448 0
M  V30 128 C 13.2078 1.92165 6.07743 0
M  V30 129 C 10.8948 1.23949 5.98398 0
M  V30 130 C 11.8928 2.05261 6.51427 0
M  V30 131 O 11.5808 2.98367 7.4648 0
M  V30 132 H 11.3128 -0.0800885 0.671239 0
M  V30 133 H 13.8668 0.412589 2.01213 0
M  V30 134 H 12.0968 -1.67418 3.4858 0
M  V30 135 H 13.7858 -1.40612 3.80766 0
M  V30 136 H 14.5518 0.883782 4.7688 0
M  V30 137 H 10.4308 -0.330498 4.59814 0
M  V30 138 H 13.9748 2.55672 6.49059 0
M  V30 139 H 9.8718 1.33454 6.31554 0
M  V30 140 H 10.6398 2.93116 7.64215 0
M  V30 141 N 13.3029 -1.57598 0.00835791 0
M  V30 142 C 14.5489 -1.91211 -0.675732 0
M  V30 143 C 14.8819 -0.883139 -1.72958 0
M  V30 144 O 14.1569 0.097016 -1.94258 0
M  V30 145 C 14.4399 -3.35379 -1.31123 0
M  V30 146 C 14.2929 -4.48999 -0.268356 0
M  V30 147 C 15.6119 -3.7912 -2.23508 0
M  V30 148 H 12.7309 -0.695374 -0.244179 0
M  V30 149 H 15.3729 -1.89901 0.0613655 0
M  V30 150 H 13.5229 -3.36626 -1.93946 0
M  V30 151 H 15.1949 -4.59887 0.360844 0
M  V30 152 H 13.4379 -4.31873 0.408482 0
M  V30 153 H 14.1089 -5.46851 -0.752218 0
M  V30 154 H 16.5849 -3.79477 -1.70693 0
M  V30 155 H 15.4609 -4.80729 -2.64936 0
M  V30 156 H 15.7219 -3.13455 -3.11766 0
M  V30 157 N 14.781 0.264519 -1.55364 0
M  V30 158 C 16.006 1.01726 -1.80739 0
M  V30 159 C 16.431 1.78836 -0.583044 0
M  V30 160 O 15.789 1.75167 0.467566 0
M  V30 161 C 15.837 1.94482 -3.03659 0
M  V30 162 O 14.941 3.03386 -2.7934 0
M  V30 163 H 14.282 0.290395 -0.597132 0
M  V30 164 H 16.812 0.290854 -2.02522 0
M  V30 165 H 16.822 2.36278 -3.32621 0
M  V30 166 H 15.497 1.37772 -3.92418 0
M  V30 167 H 14.074 2.65844 -2.61498 0
M  V30 168 N 16.2591 1.48442 0.529413 0
M  V30 169 C 17.6751 1.34575 0.858004 0
M  V30 170 C 17.8751 0.3572 1.98309 0
M  V30 171 O 16.9311 -0.221379 2.51528 0
M  V30 172 C 18.2441 2.74617 1.22499 0
M  V30 173 C 19.7921 2.83109 1.33484 0
M  V30 174 C 20.2671 4.23854 1.73526 0
M  V30 175 N 21.7581 4.2653 1.80628 0
M  V30 176 C 22.4931 5.32372 2.12997 0
M  V30 177 N 21.9891 6.48491 2.43786 0
M  V30 178 N 23.7821 5.19766 2.14008 0
M  V30 179 H 15.9331 2.1133 -0.212925 0
M  V30 180 H 18.1961 0.947439 -0.0326199 0
M  V30 181 H 17.9021 3.4852 0.471905 0
M  V30 182 H 17.7761 3.08177 2.17501 0
M  V30 183 H 20.1631 2.09462 2.0787 0
M  V30 184 H 20.2441 2.53168 0.366027 0
M  V30 185 H 19.8881 4.98018 0.997013 0
M  V30 186 H 19.8181 4.5124 2.71459 0
M  V30 187 H 22.3091 3.42772 1.59108 0
M  V30 188 H 22.6221 7.24993 2.67592 0
M  V30 189 H 20.9671 6.51765 2.41304 0
M  V30 190 H 24.1581 4.28066 1.89412 0
M  V30 191 H 24.3311 6.02354 2.38902 0
M  V30 192 N 17.7372 -0.778329 1.37039 0
M  V30 193 C 18.6672 -1.90546 1.34962 0
M  V30 194 C 19.6482 -1.68681 0.219274 0
M  V30 195 O 20.8332 -1.89634 0.418624 0
M  V30 196 C 17.9632 -3.27734 1.14925 0
M  V30 197 C 16.9172 -3.64147 2.24902 0
M  V30 198 C 16.2432 -4.99806 1.89996 0
M  V30 199 C 17.5432 -3.71579 3.67051 0
M  V30 200 H 19.2372 -1.92541 2.29277 0
M  V30 201 H 16.7832 -0.924948 1.10366 0
M  V30 202 H 18.7362 -4.06215 1.12104 0
M  V30 203 H 17.4602 -3.26154 0.170631 0
M  V30 204 H 16.1192 -2.8797 2.26868 0
M  V30 205 H 15.7672 -4.94759 0.906796 0
M  V30 206 H 15.4672 -5.25139 2.63634 0
M  V30 207 H 16.9912 -5.80694 1.88749 0
M  V30 208 H 18.4052 -4.40227 3.67251 0
M  V30 209 H 16.8022 -4.08405 4.39688 0
M  V30 210 H 17.8722 -2.72404 4.01154 0
M  V30 211 N 19.2153 -1.21501 -1.00376 0
M  V30 212 C 20.6263 -1.03146 -1.55621 0
M  V30 213 C 20.9773 0.408375 -1.91903 0
M  V30 214 O 20.1023 1.29177 -1.73616 0
M  V30 215 C 20.6973 -1.86612 -2.82775 0
M  V30 216 C 19.2563 -1.72586 -3.34501 0
M  V30 217 C 18.4033 -1.83747 -2.07683 0
M  V30 218 H 21.3543 -1.35505 -0.826081 0
M  V30 219 H 21.3753 -1.3771 -3.54706 0
M  V30 220 H 20.8873 -2.91399 -2.56336 0
M  V30 221 H 18.9883 -0.704877 -3.65872 0
M  V30 222 H 19.1013 -2.54623 -4.05837 0
M  V30 223 H 17.4653 -1.27069 -2.20739 0
M  V30 224 H 18.2483 -2.90044 -1.83655 0
M  V30 225 N 20.6934 1.19889 -1.02296 0
M  V30 226 C 21.6564 2.21116 -0.603351 0
M  V30 227 C 22.6564 1.5738 0.329884 0
M  V30 228 O 23.8464 1.73802 0.117702 0
M  V30 229 C 20.9784 3.40696 0.117992 0
M  V30 230 H 22.1714 2.59754 -1.49893 0
M  V30 231 H 19.7244 1.33463 -0.813468 0
M  V30 232 H 20.4594 3.07569 1.0282 0
M  V30 233 H 20.2444 3.88188 -0.552511 0
M  V30 234 H 21.7344 4.15692 0.398696 0
M  V30 235 N 22.1715 0.800033 1.35784 0
M  V30 236 C 23.1345 0.211565 2.28221 0
M  V30 237 C 24.1345 -0.59728 1.49296 0
M  V30 238 O 25.3245 -0.416721 1.69142 0
M  V30 239 C 22.4565 -0.705846 3.33513 0
M  V30 240 H 23.6495 1.02677 2.81776 0
M  V30 241 H 21.2025 0.570211 1.45528 0
M  V30 242 H 21.9375 -1.54498 2.85133 0
M  V30 243 H 21.7225 -0.127655 3.91892 0
M  V30 244 H 23.2125 -1.11211 4.02519 0
M  V30 245 N 23.6496 -1.47581 0.552962 0
M  V30 246 C 24.8966 -2.02482 0.0273243 0
M  V30 247 C 25.2246 -1.42776 -1.32081 0
M  V30 248 O 24.4796 -0.571393 -1.87173 0
M  V30 249 C 24.7786 -3.57199 -0.119728 0
M  V30 250 C 24.4446 -4.35804 1.15697 0
M  V30 251 C 23.1066 -4.57 1.50681 0
M  V30 252 C 25.4586 -4.81167 2.00319 0
M  V30 253 C 22.7866 -5.20807 2.70142 0
M  V30 254 C 25.1386 -5.46293 3.18978 0
M  V30 255 C 23.8026 -5.65722 3.54281 0
M  V30 256 H 23.0726 -0.740933 0.00999866 0
M  V30 257 H 25.7196 -1.77302 0.72362 0
M  V30 258 H 24.0246 -3.81348 -0.89896 0
M  V30 259 H 25.7216 -3.97324 -0.541718 0
M  V30 260 H 22.3116 -4.19582 0.874561 0
M  V30 261 H 26.4956 -4.64574 1.74599 0
M  V30 262 H 21.7516 -5.34045 2.97668 0
M  V30 263 H 25.9256 -5.80407 3.84838 0
M  V30 264 H 23.5526 -6.14936 4.46942 0
M  V30 265 N 25.1277 -0.289203 -1.54924 0
M  V30 266 C 26.0907 0.579144 -2.21762 0
M  V30 267 C 27.0907 1.07047 -1.1999 0
M  V30 268 O 28.2807 0.968384 -1.44803 0
M  V30 269 C 25.4127 1.80055 -2.8947 0
M  V30 270 H 26.6057 -0.00464908 -2.999 0
M  V30 271 H 24.1587 -0.0399306 -1.56249 0
M  V30 272 H 24.8937 2.42449 -2.15381 0
M  V30 273 H 24.6787 1.45602 -3.64064 0
M  V30 274 H 26.1687 2.41773 -3.40493 0
M  V30 275 N 26.6058 1.57591 -0.0167156 0
M  V30 276 C 28.0168 1.79201 0.523834 0
M  V30 277 C 28.3678 0.925796 1.72984 0
M  V30 278 O 27.4928 0.132792 2.15992 0
M  V30 279 C 28.0878 3.25 0.957091 0
M  V30 280 C 26.6468 3.47648 1.44283 0
M  V30 281 C 25.7938 2.74374 0.401757 0
M  V30 282 H 28.7448 1.56831 -0.242816 0
M  V30 283 H 28.7658 3.34031 1.82219 0
M  V30 284 H 28.2778 3.88019 0.0791415 0
M  V30 285 H 26.3788 2.89866 2.34113 0
M  V30 286 H 26.4918 4.56352 1.45877 0
M  V30 287 H 24.8558 2.39485 0.867121 0
M  V30 288 H 25.6388 3.40102 -0.467513 0
M  V30 289 N 28.0839 -0.256276 1.55502 0
M  V30 290 C 29.0139 -1.32102 1.92539 0
M  V30 291 C 29.9949 -1.50684 0.789194 0
M  V30 292 O 31.1799 -1.63449 1.04872 0
M  V30 293 C 28.3099 -2.67752 2.21192 0
M  V30 294 C 27.2639 -2.63878 3.36975 0
M  V30 295 C 26.5899 -4.03236 3.51147 0
M  V30 296 C 27.8899 -2.21682 4.72921 0
M  V30 297 H 29.5839 -1.01351 2.81724 0
M  V30 298 H 27.1299 -0.486105 1.35547 0
M  V30 299 H 29.0829 -3.42365 2.45691 0
M  V30 300 H 27.8069 -3.0012 1.28824 0
M  V30 301 H 26.4659 -1.91722 3.12471 0
M  V30 302 H 26.1139 -4.32854 2.56216 0
M  V30 303 H 25.8139 -4.01535 4.29003 0
M  V30 304 H 27.3379 -4.79563 3.77957 0
M  V30 305 H 28.7519 -2.86023 4.96854 0
M  V30 306 H 27.1489 -2.3111 5.53812 0
M  V30 307 H 28.2189 -1.16833 4.70615 0
M  V30 308 N 29.562 -1.4872 -0.521534 0
M  V30 309 C 30.973 -1.50607 -1.10337 0
M  V30 310 C 31.324 -0.280612 -1.94183 0
M  V30 311 O 30.449 0.611507 -2.0758 0
M  V30 312 C 31.044 -2.72903 -2.00772 0
M  V30 313 C 29.603 -2.77634 -2.54158 0
M  V30 314 C 28.75 -2.44241 -1.31307 0
M  V30 315 H 31.701 -1.55714 -0.306388 0
M  V30 316 H 31.722 -2.519 -2.85178 0
M  V30 317 H 31.234 -3.62077 -1.39721 0
M  V30 318 H 29.335 -1.92689 -3.18907 0
M  V30 319 H 29.448 -3.79283 -2.92714 0
M  V30 320 H 27.812 -1.95577 -1.63161 0
M  V30 321 H 28.595 -3.35666 -0.719943 0
M  V30 322 N 31.0401 0.771051 -1.3745 0
M  V30 323 C 32.4561 1.07171 -1.18265 0
M  V30 324 C 32.6561 2.01491 -0.019287 0
M  V30 325 O 31.7121 2.44244 0.640408 0
M  V30 326 C 33.0251 1.66854 -2.50161 0
M  V30 327 C 34.5731 1.79109 -2.56689 0
M  V30 328 C 35.0481 2.42205 -3.88717 0
M  V30 329 N 36.5391 2.49655 -3.90162 0
M  V30 330 C 37.2741 2.9933 -4.8907 0
M  V30 331 N 36.7701 3.49172 -5.98374 0
M  V30 332 N 38.5631 2.9821 -4.76474 0
M  V30 333 H 30.7141 0.144796 -2.11906 0
M  V30 334 H 32.9771 0.126863 -0.939473 0
M  V30 335 H 32.6831 1.05017 -3.35655 0
M  V30 336 H 32.5571 2.6614 -2.673 0
M  V30 337 H 34.9441 2.40077 -1.71601 0
M  V30 338 H 35.0251 0.785757 -2.43433 0
M  V30 339 H 34.6691 1.81875 -4.74219 0
M  V30 340 H 34.5991 3.43345 -3.99276 0
M  V30 341 H 37.0901 2.14383 -3.11205 0
M  V30 342 H 37.4031 3.8548 -6.69795 0
M  V30 343 H 35.7481 3.47275 -6.02018 0
M  V30 344 H 38.9391 2.58572 -3.90203 0
M  V30 345 H 39.1121 3.36613 -5.53711 0
M  V30 346 N 32.5182 1.22032 0.997298 0
M  V30 347 C 33.7642 1.04376 1.73878 0
M  V30 348 C 34.0972 -0.420716 1.89588 0
M  V30 349 O 33.3722 -1.31202 1.43583 0
M  V30 350 C 33.6552 1.75047 3.14691 0
M  V30 351 C 33.5082 3.29062 3.06656 0
M  V30 352 C 34.8272 1.49928 4.13775 0
M  V30 353 H 31.9462 0.380578 0.631133 0
M  V30 354 H 34.5882 1.50312 1.16217 0
M  V30 355 H 32.7382 1.35996 3.63919 0
M  V30 356 H 34.4102 3.7753 2.65083 0
M  V30 357 H 32.6532 3.58967 2.43568 0
M  V30 358 H 33.3242 3.73683 4.06282 0
M  V30 359 H 35.8002 1.83842 3.73285 0
M  V30 360 H 34.6762 2.01878 5.10428 0
M  V30 361 H 34.9372 0.430929 4.39995 0
M  V30 362 N 33.9963 -1.19345 1.0293 0
M  V30 363 C 35.4123 -1.41069 0.746446 0
M  V30 364 C 35.6123 -1.90078 -0.668776 0
M  V30 365 O 34.6683 -2.0778 -1.4347 0
M  V30 366 C 35.9813 -2.42141 1.78292 0
M  V30 367 C 37.5293 -2.55887 1.80252 0
M  V30 368 C 38.0043 -3.60214 2.8286 0
M  V30 369 N 39.4953 -3.67711 2.81679 0
M  V30 370 C 40.2303 -4.48128 3.57727 0
M  V30 371 N 39.7263 -5.32248 4.43491 0
M  V30 372 N 41.5193 -4.42782 3.46267 0
M  V30 373 H 33.6703 -0.858536 1.94275 0
M  V30 374 H 35.9333 -0.439541 0.839945 0
M  V30 375 H 35.6393 -2.13155 2.79746 0
M  V30 376 H 35.5133 -3.41323 1.60557 0
M  V30 377 H 37.9003 -2.84196 0.794757 0
M  V30 378 H 37.9813 -1.56858 2.02062 0
M  V30 379 H 37.6253 -3.32647 3.83807 0
M  V30 380 H 37.5553 -4.58895 2.58307 0
M  V30 381 H 40.0463 -3.07634 2.19476 0
M  V30 382 H 40.3593 -5.90729 4.98256 0
M  V30 383 H 38.7043 -5.31707 4.47564 0
M  V30 384 H 41.8953 -3.76107 2.78677 0
M  V30 385 H 42.0683 -5.05215 4.05785 0
M  V30 386 N 35.4744 -0.807222 -1.35358 0
M  V30 387 C 36.4074 -0.163572 -2.27613 0
M  V30 388 C 37.3854 0.670817 -1.48118 0
M  V30 389 O 38.5694 0.63796 -1.77376 0
M  V30 390 C 35.6964 0.773015 -3.29761 0
M  V30 391 C 34.7424 0.0181653 -4.26496 0
M  V30 392 S 35.5754 -1.31831 -5.19019 0
M  V30 393 C 36.7314 -0.38619 -6.24707 0
M  V30 394 H 36.9644 -0.945757 -2.81856 0
M  V30 395 H 34.4974 -0.602315 -1.42167 0
M  V30 396 H 36.4554 1.30788 -3.89108 0
M  V30 397 H 35.1164 1.52859 -2.74396 0
M  V30 398 H 34.3094 0.729534 -4.98692 0
M  V30 399 H 33.9114 -0.446761 -3.71322 0
M  V30 400 H 36.2034 0.428295 -6.76145 0
M  V30 401 H 37.1464 -1.07736 -6.99856 0
M  V30 402 H 37.5544 0.018398 -5.64497 0
M  V30 403 N 36.9525 1.47285 -0.560781 0
M  V30 404 C 37.8825 2.32857 0.173105 0
M  V30 405 C 38.8635 1.44009 0.905281 0
M  V30 406 O 40.0485 1.7286 0.885046 0
M  V30 407 C 37.1785 3.25861 1.20133 0
M  V30 408 C 36.1325 4.23978 0.585388 0
M  V30 409 C 35.4585 5.06332 1.7185 0
M  V30 410 C 36.7585 5.20242 -0.463178 0
M  V30 411 H 38.4525 2.94466 -0.541307 0
M  V30 412 H 35.9985 1.41601 -0.261764 0
M  V30 413 H 37.9515 3.84569 1.72293 0
M  V30 414 H 36.6755 2.62315 1.94573 0
M  V30 415 H 35.3345 3.66501 0.085054 0
M  V30 416 H 34.9825 4.39186 2.45203 0
M  V30 417 H 34.6825 5.72762 1.31213 0
M  V30 418 H 36.2065 5.67899 2.24329 0
M  V30 419 H 37.6205 5.73293 -0.027502 0
M  V30 420 H 36.0175 5.94896 -0.788627 0
M  V30 421 H 37.0875 4.65504 -1.35773 0
M  V30 422 N 38.4306 0.297415 1.54768 0
M  V30 423 C 39.3936 -0.567375 2.22066 0
M  V30 424 C 40.3936 -1.06409 1.20556 0
M  V30 425 O 41.5836 -0.960691 1.45315 0
M  V30 426 C 38.7156 -1.78517 2.90421 0
M  V30 427 H 39.9086 0.0205534 2.99893 0
M  V30 428 H 37.4616 0.0482163 1.56226 0
M  V30 429 H 38.1966 -2.41303 2.16664 0
M  V30 430 H 37.9816 -1.43669 3.64831 0
M  V30 431 H 39.4716 -2.39964 3.41771 0
M  V30 432 N 39.9087 -1.5758 0.0250728 0
M  V30 433 C 41.1547 -1.91917 -0.655413 0
M  V30 434 C 41.4877 -0.901433 -1.72011 0
M  V30 435 O 40.7627 0.0764069 -1.9435 0
M  V30 436 C 41.0457 -3.36751 -1.27558 0
M  V30 437 C 40.8987 -4.49258 -0.220719 0
M  V30 438 C 42.2177 -3.81469 -2.19475 0
M  V30 439 H 39.3367 -0.697925 -0.23679 0
M  V30 440 H 41.9787 -1.89825 0.0815036 0
M  V30 441 H 40.1287 -3.38664 -1.90365 0
M  V30 442 H 41.8007 -4.59478 0.409601 0
M  V30 443 H 40.0437 -4.31415 0.454264 0
M  V30 444 H 40.7147 -5.47618 -0.694175 0
M  V30 445 H 43.1907 -3.81266 -1.66659 0
M  V30 446 H 42.0667 -4.83512 -2.59822 0
M  V30 447 H 42.3277 -3.16744 -3.08424 0
M  V30 448 N 41.3868 0.248026 -1.55636 0
M  V30 449 C 42.3498 1.29044 -1.89421 0
M  V30 450 C 43.3498 1.41134 -0.770581 0
M  V30 451 O 44.5398 1.39854 -1.03858 0
M  V30 452 C 41.6718 2.66831 -2.12165 0
M  V30 453 H 42.8648 1.00305 -2.82629 0
M  V30 454 H 40.4178 0.487265 -1.48511 0
M  V30 455 H 41.1528 3.00711 -1.21422 0
M  V30 456 H 40.9378 2.59438 -2.93997 0
M  V30 457 H 42.4278 3.42103 -2.3949 0
M  V30 458 N 42.8649 1.48995 0.513639 0
M  V30 459 C 44.2809 1.35478 0.843682 0
M  V30 460 C 44.4809 0.378213 1.97919 0
M  V30 461 O 43.5369 -0.194689 2.51748 0
M  V30 462 C 44.8499 2.75901 1.1958 0
M  V30 463 C 46.3979 2.84509 1.30474 0
M  V30 464 C 46.8729 4.25671 1.69021 0
M  V30 465 N 48.3639 4.28422 1.76094 0
M  V30 466 C 49.0989 5.34601 2.07338 0
M  V30 467 N 48.5949 6.5104 2.36894 0
M  V30 468 N 50.3879 5.22007 2.08483 0
M  V30 469 H 42.5389 2.11092 -0.235328 0
M  V30 470 H 44.8019 0.947039 -0.0426669 0
M  V30 471 H 44.5079 3.49001 0.434913 0
M  V30 472 H 44.3819 3.10467 2.1422 0
M  V30 473 H 46.7689 2.11655 2.05637 0
M  V30 474 H 46.8499 2.53542 0.339155 0
M  V30 475 H 46.4939 4.99048 0.944135 0
M  V30 476 H 46.4239 4.54094 2.66658 0
M  V30 477 H 48.9149 3.44441 1.55464 0
M  V30 478 H 49.2279 7.2779 2.59887 0
M  V30 479 H 47.5729 6.54287 2.34378 0
M  V30 480 H 50.7639 4.30051 1.84861 0
M  V30 481 H 50.9369 6.04854 2.325 0
M  V30 482 N 44.343 -0.763751 1.37857 0
M  V30 483 C 45.754 -1.3405 1.29952 0
M  V30 484 C 46.105 -1.96138 -0.0492898 0
M  V30 485 O 45.23 -1.94372 -0.951239 0
M  V30 486 C 45.825 -2.43729 2.35333 0
M  V30 487 C 44.384 -2.97151 2.31037 0
M  V30 488 C 43.531 -1.70438 2.18738 0
M  V30 489 H 46.482 -0.563396 1.48363 0
M  V30 490 H 46.503 -3.23412 2.00462 0
M  V30 491 H 46.015 -1.9851 3.33489 0
M  V30 492 H 44.116 -3.46724 1.3643 0
M  V30 493 H 44.229 -3.52221 3.24772 0
M  V30 494 H 42.593 -1.93673 1.65418 0
M  V30 495 H 43.376 -1.27312 3.18821 0
M  V30 496 N 45.8211 -1.22559 -0.990812 0
M  V30 497 C 46.7511 -1.0218 -2.09956 0
M  V30 498 C 47.7321 0.0579394 -1.70001 0
M  V30 499 O 48.9171 -0.104684 -1.93918 0
M  V30 500 C 46.0471 -0.601023 -3.4206 0
M  V30 501 C 45.0011 -1.62694 -3.95872 0
M  V30 502 C 44.3271 -1.06193 -5.24049 0
M  V30 503 C 45.6271 -3.01743 -4.2632 0
M  V30 504 H 47.3211 -1.94916 -2.27262 0
M  V30 505 H 44.8671 -0.938566 -1.09211 0
M  V30 506 H 46.8201 -0.445561 -4.19038 0
M  V30 507 H 45.5441 0.362005 -3.24588 0
M  V30 508 H 44.2031 -1.77021 -3.21028 0
M  V30 509 H 43.8511 -0.0901903 -5.02919 0
M  V30 510 H 43.5511 -1.74732 -5.61019 0
M  V30 511 H 45.0751 -0.918092 -6.03658 0
M  V30 512 H 46.4891 -2.90777 -4.94087 0
M  V30 513 H 44.8861 -3.67425 -4.74467 0
M  V30 514 H 45.9561 -3.51518 -3.34011 0
M  V30 515 N 47.2992 1.18797 -1.03562 0
M  V30 516 C 48.5242 1.9314 -0.755764 0
M  V30 517 C 48.9492 1.7537 0.68022 0
M  V30 518 O 48.3072 1.06046 1.47051 0
M  V30 519 C 48.3552 3.42747 -1.12058 0
M  V30 520 O 47.4592 4.11683 -0.243124 0
M  V30 521 H 46.8002 0.602724 -0.278604 0
M  V30 522 H 49.3302 1.50678 -1.3841 0
M  V30 523 H 49.3402 3.93437 -1.08035 0
M  V30 524 H 48.0152 3.55002 -2.16672 0
M  V30 525 H 46.5922 3.71323 -0.342539 0
M  V30 526 N 48.7773 0.814389 1.34928 0
M  V30 527 C 50.0053 0.411136 2.02774 0
M  V30 528 C 50.4203 -0.980316 1.61354 0
M  V30 529 O 49.7773 -1.63299 0.814847 0
M  V30 530 C 49.8283 0.493865 3.58111 0
M  V30 531 O 49.5493 1.83047 3.98027 0
M  V30 532 C 51.0503 0.0844174 4.4322 0
M  V30 533 H 48.2703 0.166037 0.650133 0
M  V30 534 H 50.8143 1.10018 1.72384 0
M  V30 535 H 48.9693 -0.147006 3.87121 0
M  V30 536 H 49.3833 1.79872 4.92693 0
M  V30 537 H 50.8573 0.193404 5.51661 0
M  V30 538 H 51.3343 -0.97113 4.28329 0
M  V30 539 H 51.9403 0.69875 4.19521 0
M  V30 540 N 50.2554 -1.46986 0.568584 0
M  V30 541 C 51.2184 -2.28624 -0.162366 0
M  V30 542 C 52.2184 -1.37596 -0.832103 0
M  V30 543 O 53.4084 -1.60115 -0.68622 0
M  V30 544 C 50.5404 -3.17596 -1.23878 0
M  V30 545 H 51.7334 -2.94722 0.554899 0
M  V30 546 H 49.2864 -1.52863 0.325976 0
M  V30 547 H 50.0214 -2.56214 -1.98808 0
M  V30 548 H 49.8064 -3.846 -0.763219 0
M  V30 549 H 51.2964 -3.79078 -1.75185 0
M  V30 550 N 51.7335 -0.305618 -1.54608 0
M  V30 551 C 52.6635 0.561482 -2.26649 0
M  V30 552 C 53.6445 1.13415 -1.26772 0
M  V30 553 O 54.8295 1.16262 -1.55553 0
M  V30 554 C 51.9595 1.73122 -3.01075 0
M  V30 555 C 50.9135 1.2887 -4.08138 0
M  V30 556 C 50.2395 2.54396 -4.70305 0
M  V30 557 C 51.5395 0.416578 -5.20636 0
M  V30 558 H 53.2335 -0.0393902 -2.99374 0
M  V30 559 H 50.7795 -0.020385 -1.43986 0
M  V30 560 H 52.7325 2.34396 -3.50195 0
M  V30 561 H 51.4565 2.3584 -2.25936 0
M  V30 562 H 50.1155 0.698991 -3.59875 0
M  V30 563 H 49.7635 3.15439 -3.918 0
M  V30 564 H 49.4635 2.25486 -5.42614 0
M  V30 565 H 50.9875 3.16464 -5.2219 0
M  V30 566 H 52.4015 0.935116 -5.65622 0
M  V30 567 H 50.7985 0.221046 -5.99693 0
M  V30 568 H 51.8685 -0.557162 -4.81688 0
M  V30 569 N 53.2116 1.57565 -0.0334293 0
M  V30 570 C 54.4516 1.93844 0.648379 0
M  V30 571 C 54.8156 0.910387 1.69044 0
M  V30 572 O 56.0166 1.15952 2.42505 0
M  V30 573 C 54.2876 3.35017 1.24492 0
M  V30 574 S 55.8466 3.93229 1.94721 0
M  V30 575 H 52.6646 0.678231 0.213364 0
M  V30 576 H 55.2666 1.95254 -0.0981253 0
M  V30 577 H 53.9706 4.07652 0.474128 0
M  V30 578 H 53.5016 3.37061 2.02864 0
M  V30 579 H 55.5166 3.77014 3.22606 0
M  V30 580 N 54.6897 -0.239769 1.55765 0
M  V30 581 C 55.9147 -0.988373 1.82335 0
M  V30 582 C 56.3397 -1.77886 0.611421 0
M  V30 583 O 55.6977 -1.75889 -0.439639 0
M  V30 584 C 55.7457 -1.89627 3.06715 0
M  V30 585 O 54.8497 -2.98904 2.84131 0
M  V30 586 H 54.1907 -0.280858 0.601677 0
M  V30 587 H 56.7207 -0.258597 2.02959 0
M  V30 588 H 56.7307 -2.30957 3.36338 0
M  V30 589 H 55.4057 -1.31511 3.9456 0
M  V30 590 H 53.9827 -2.61651 2.65694 0
M  V30 591 N 56.1678 -1.49265 -0.50573 0
M  V30 592 C 57.1308 -1.65075 -1.59006 0
M  V30 593 C 58.1308 -0.522768 -1.52065 0
M  V30 594 O 59.3208 -0.789117 -1.55302 0
M  V30 595 C 56.4528 -1.64369 -2.98656 0
M  V30 596 H 57.6458 -2.61784 -1.46319 0
M  V30 597 H 55.1988 -1.38226 -0.729616 0
M  V30 598 H 55.9338 -0.692272 -3.16825 0
M  V30 599 H 55.7188 -2.46282 -3.05103 0
M  V30 600 H 57.2088 -1.78674 -3.77446 0
M  V30 601 N 57.6459 0.756429 -1.3826 0
M  V30 602 C 58.8939 1.51248 -1.34047 0
M  V30 603 C 59.2149 1.94875 0.0698372 0
M  V30 604 O 58.4849 1.67436 1.01696 0
M  V30 605 H 57.0649 0.561018 -0.493222 0
M  V30 606 H 59.7269 0.899347 -1.7291 0
M  V30 607 H 58.8229 2.40472 -1.98947 0
M  V30 608 N 59.124 1.23083 0.984299 0
M  V30 609 C 60.352 1.08714 1.76037 0
M  V30 610 C 60.767 -0.361691 1.85303 0
M  V30 611 O 60.124 -1.25034 1.32939 0
M  V30 612 C 60.175 1.70206 3.18923 0
M  V30 613 O 59.896 3.09423 3.10144 0
M  V30 614 C 61.397 1.61227 4.12941 0
M  V30 615 H 58.617 0.380664 0.552572 0
M  V30 616 H 61.161 1.62853 1.23689 0
M  V30 617 H 59.316 1.20109 3.6831 0
M  V30 618 H 59.73 3.39188 4.00065 0
M  V30 619 H 61.204 2.08962 5.10919 0
M  V30 620 H 61.681 0.570375 4.35481 0
M  V30 621 H 62.287 2.10671 3.69456 0
M  V30 622 N 60.6021 -1.18246 1.0419 0
M  V30 623 C 61.5341 -2.2142 0.592088 0
M  V30 624 C 62.5471 -1.59233 -0.338909 0
M  V30 625 O 63.7361 -1.78002 -0.133231 0
M  V30 626 C 60.8361 -3.38546 -0.154854 0
M  V30 627 C 60.0091 -4.3031 0.784328 0
M  V30 628 C 59.0681 -5.26138 0.0804583 0
M  V30 629 O 58.0941 -5.64738 0.711292 0
M  V30 630 N 59.2961 -5.68261 -1.18574 0
M  V30 631 H 62.0611 -2.60636 1.47949 0
M  V30 632 H 59.6221 -1.33044 0.922544 0
M  V30 633 H 61.6141 -3.99678 -0.635606 0
M  V30 634 H 60.1841 -2.98012 -0.943811 0
M  V30 635 H 59.4041 -3.66764 1.44491 0
M  V30 636 H 60.6921 -4.8852 1.42218 0
M  V30 637 H 60.0901 -5.38957 -1.71876 0
M  V30 638 H 58.6471 -6.31584 -1.61074 0
M  V30 639 N 62.0802 -0.821533 -1.34494 0
M  V30 640 C 63.3082 -0.421884 -2.02553 0
M  V30 641 C 63.7232 0.971745 -1.61872 0
M  V30 642 O 63.0802 1.62864 -0.823496 0
M  V30 643 C 63.1312 -0.51285 -3.57844 0
M  V30 644 O 62.8522 -1.85155 -3.97051 0
M  V30 645 C 64.3532 -0.107921 -4.43169 0
M  V30 646 H 61.5732 -0.169482 -0.649243 0
M  V30 647 H 64.1172 -1.1093 -1.71798 0
M  V30 648 H 62.2722 0.126474 -3.87193 0
M  V30 649 H 62.6862 -1.82482 -4.91732 0
M  V30 650 H 64.1602 -0.222657 -5.51551 0
M  V30 651 H 64.6372 0.948401 -4.28838 0
M  V30 652 H 65.2432 -0.720989 -4.19144 0
M  V30 653 N 63.5583 1.46682 -0.576371 0
M  V30 654 C 64.9743 1.57822 -0.237562 0
M  V30 655 C 65.1743 1.57237 1.26011 0
M  V30 656 O 64.2303 1.48596 2.04146 0
M  V30 657 C 65.5433 2.87499 -0.881168 0
M  V30 658 C 67.0913 3.01119 -0.85417 0
M  V30 659 C 67.5663 4.33524 -1.4772 0
M  V30 660 N 69.0573 4.40207 -1.44125 0
M  V30 661 C 69.7923 5.4126 -1.89276 0
M  V30 662 N 69.2883 6.49021 -2.42371 0
M  V30 663 N 71.0813 5.32422 -1.80231 0
M  V30 664 H 63.2323 1.45306 -1.54919 0
M  V30 665 H 65.4953 0.692733 -0.647167 0
M  V30 666 H 65.2013 2.9372 -1.93447 0
M  V30 667 H 65.0753 3.75224 -0.385592 0
M  V30 668 H 67.4623 2.94485 0.190491 0
M  V30 669 H 67.5433 2.14887 -1.3877 0
M  V30 670 H 67.1873 4.40916 -2.52103 0
M  V30 671 H 67.1173 5.1852 -0.918947 0
M  V30 672 H 69.6083 3.62931 -1.05307 0
M  V30 673 H 69.9213 7.2233 -2.74698 0
M  V30 674 H 68.2663 6.49858 -2.46393 0
M  V30 675 H 71.4573 4.47137 -1.38514 0
M  V30 676 H 71.6303 6.11034 -2.15735 0
M  V30 677 N 65.0364 0.313813 1.54444 0
M  V30 678 C 65.9664 -0.549454 2.26943 0
M  V30 679 C 66.9474 -1.12741 1.27372 0
M  V30 680 O 68.1324 -1.15436 1.56167 0
M  V30 681 C 65.2624 -1.71523 3.01989 0
M  V30 682 C 64.2164 -1.26703 4.08816 0
M  V30 683 C 63.5424 -2.51898 4.71647 0
M  V30 684 C 64.8424 -0.388962 5.2085 0
M  V30 685 H 66.5364 0.0552661 2.99349 0
M  V30 686 H 64.0824 0.0280207 1.43973 0
M  V30 687 H 66.0354 -2.32535 3.51433 0
M  V30 688 H 64.7594 -2.34639 2.27183 0
M  V30 689 H 63.4184 -0.679896 3.6024 0
M  V30 690 H 63.0664 -3.13356 3.93468 0
M  V30 691 H 62.7664 -2.22605 5.43802 0
M  V30 692 H 64.2904 -3.1369 5.23861 0
M  V30 693 H 65.7044 -0.905107 5.6611 0
M  V30 694 H 64.1014 -0.18924 5.99802 0
M  V30 695 H 65.1714 0.582699 4.81386 0
M  V30 696 N 66.5145 -1.57545 0.0417849 0
M  V30 697 C 67.7625 -1.91937 -0.632829 0
M  V30 698 C 68.0835 -0.919978 -1.71934 0
M  V30 699 O 67.3535 0.0366064 -1.95866 0
M  V30 700 H 65.9335 -0.708493 -0.236742 0
M  V30 701 H 68.5955 -1.9468 0.0925745 0
M  V30 702 H 67.6915 -2.92912 -1.07746 0
M  V30 703 N 67.9926 0.231505 -1.5589 0
M  V30 704 C 69.2206 0.974505 -1.82513 0
M  V30 705 C 69.6356 1.78344 -0.619591 0
M  V30 706 O 68.9926 1.77792 0.411848 0
M  V30 707 C 69.0436 1.90007 -3.07538 0
M  V30 708 O 68.7646 1.12385 -4.2344 0
M  V30 709 C 70.2656 2.75779 -3.47075 0
M  V30 710 H 67.4856 0.286065 -0.606966 0
M  V30 711 H 70.0296 0.249739 -2.02969 0
M  V30 712 H 68.1846 2.57891 -2.89086 0
M  V30 713 H 68.5986 1.75125 -4.944 0
M  V30 714 H 70.0726 3.36443 -4.37619 0
M  V30 715 H 70.5496 3.47672 -2.68367 0
M  V30 716 H 71.1556 2.13323 -3.67931 0
M  V30 717 N 69.4707 1.49531 0.497807 0
M  V30 718 C 70.4007 1.6935 1.60757 0
M  V30 719 C 71.3817 0.542218 1.61227 0
M  V30 720 O 72.5667 0.778417 1.77917 0
M  V30 721 C 69.6967 1.76298 2.99226 0
M  V30 722 C 68.6507 2.91248 3.13622 0
M  V30 723 C 67.9767 2.83312 4.53474 0
M  V30 724 C 69.2767 4.3214 2.93346 0
M  V30 725 H 70.9707 2.62263 1.44425 0
M  V30 726 H 68.5167 1.26208 0.693367 0
M  V30 727 H 70.4697 1.88749 3.76765 0
M  V30 728 H 69.1937 0.799871 3.16654 0
M  V30 729 H 67.8527 2.78404 2.38509 0
M  V30 730 H 67.5007 1.84902 4.67782 0
M  V30 731 H 67.2007 3.60465 4.64046 0
M  V30 732 H 68.7247 2.97775 5.33069 0
M  V30 733 H 70.1387 4.45649 3.60652 0
M  V30 734 H 68.5357 5.1054 3.15387 0
M  V30 735 H 69.6057 4.46363 1.89441 0
M  V30 736 N 70.9488 -0.749086 1.3866 0
M  V30 737 C 71.8808 -1.87273 1.32142 0
M  V30 738 C 72.8938 -1.61127 0.232787 0
M  V30 739 O 74.0828 -1.71623 0.49069 0
M  V30 740 C 71.1828 -3.23005 1.02571 0
M  V30 741 C 70.3558 -3.7662 2.22433 0
M  V30 742 C 69.4148 -4.90879 1.89537 0
M  V30 743 O 68.4408 -5.05276 2.62078 0
M  V30 744 N 69.6428 -5.74198 0.853031 0
M  V30 745 H 72.4078 -1.93373 2.28969 0
M  V30 746 H 69.9688 -0.929216 1.32579 0
M  V30 747 H 71.9608 -3.96992 0.786085 0
M  V30 748 H 70.5308 -3.12262 0.145249 0
M  V30 749 H 69.7508 -2.94147 2.62434 0
M  V30 750 H 71.0388 -4.09173 3.02415 0
M  V30 751 H 70.4368 -5.6514 0.25155 0
M  V30 752 H 68.9938 -6.48313 0.67329 0
M  V30 753 N 72.4269 -1.23603 -0.977757 0
M  V30 754 C 73.8379 -1.06424 -1.53398 0
M  V30 755 C 74.1889 0.367578 -1.92726 0
M  V30 756 O 73.3139 1.25465 -1.76316 0
M  V30 757 C 73.9089 -1.92568 -2.78753 0
M  V30 758 C 72.4679 -1.79642 -3.30765 0
M  V30 759 C 71.6149 -1.88111 -2.03739 0
M  V30 760 H 74.5659 -1.37227 -0.797152 0
M  V30 761 H 74.5869 -1.45203 -3.51705 0
M  V30 762 H 74.0989 -2.96771 -2.50098 0
M  V30 763 H 72.1999 -0.782325 -3.64294 0
M  V30 764 H 72.3129 -2.63174 -4.00345 0
M  V30 765 H 70.6769 -1.31723 -2.17994 0
M  V30 766 H 71.4599 -2.93875 -1.77461 0
M  V30 767 N 73.905 1.17692 -1.04816 0
M  V30 768 C 74.868 2.19787 -0.650117 0
M  V30 769 C 75.868 1.58044 0.296427 0
M  V30 770 O 77.058 1.74012 0.0808097 0
M  V30 771 C 74.19 3.40869 0.0456987 0
M  V30 772 H 75.383 2.56516 -1.5537 0
M  V30 773 H 72.936 1.31708 -0.841594 0
M  V30 774 H 73.671 3.09681 0.962726 0
M  V30 775 H 73.456 3.86928 -0.634727 0
M  V30 776 H 74.946 4.16445 0.310432 0
M  V30 777 N 75.3831 0.828654 1.34056 0
M  V30 778 C 76.3131 0.269443 2.3194 0
M  V30 779 C 77.2941 -0.617247 1.58506 0
M  V30 780 O 78.4791 -0.542931 1.86456 0
M  V30 781 C 75.6091 -0.564793 3.42677 0
M  V30 782 C 74.5631 0.225241 4.27407 0
M  V30 783 C 73.8891 -0.7321 5.29664 0
M  V30 784 C 75.1891 1.43663 5.02154 0
M  V30 785 H 76.8831 1.08728 2.7896 0
M  V30 786 H 74.4291 0.524283 1.34117 0
M  V30 787 H 76.3821 -0.966233 4.10173 0
M  V30 788 H 75.1061 -1.41574 2.9432 0
M  V30 789 H 73.7651 0.608117 3.61521 0
M  V30 790 H 73.4131 -1.57916 4.77568 0
M  V30 791 H 73.1131 -0.20767 5.87233 0
M  V30 792 H 74.6371 -1.13128 6.00029 0
M  V30 793 H 76.0511 1.1089 5.62473 0
M  V30 794 H 74.4481 1.89711 5.69324 0
M  V30 795 H 75.5181 2.21181 4.31517 0
M  V30 796 N 76.8612 -1.46375 0.584142 0
M  V30 797 C 78.1072 -2.02678 0.0703716 0
M  V30 798 C 78.4402 -1.4545 -1.28678 0
M  V30 799 O 77.7152 -0.62014 -1.84349 0
M  V30 800 C 77.9982 -3.60099 0.00614674 0
M  V30 801 C 77.8512 -4.27709 1.3923 0
M  V30 802 C 79.1702 -4.34598 -0.693742 0
M  V30 803 H 76.2892 -0.736504 0.027047 0
M  V30 804 H 78.9312 -1.74501 0.751615 0
M  V30 805 H 77.0812 -3.84236 -0.574009 0
M  V30 806 H 78.7532 -4.14832 2.01773 0
M  V30 807 H 76.9962 -3.87016 1.95962 0
M  V30 808 H 77.6672 -5.36478 1.29982 0
M  V30 809 H 80.1432 -4.15615 -0.200869 0
M  V30 810 H 79.0192 -5.44318 -0.707714 0
M  V30 811 H 79.2802 -4.05759 -1.75533 0
M  V30 812 N 78.3393 -0.321999 -1.54275 0
M  V30 813 C 79.2693 0.537411 -2.27231 0
M  V30 814 C 80.2503 1.12064 -1.27968 0
M  V30 815 O 81.4353 1.14606 -1.56777 0
M  V30 816 C 78.5653 1.69919 -3.02894 0
M  V30 817 C 77.5193 1.24534 -4.09482 0
M  V30 818 C 76.8453 2.49394 -4.72977 0
M  V30 819 C 78.1453 0.361335 -5.21049 0
M  V30 820 H 79.8393 -0.0711406 -2.99315 0
M  V30 821 H 77.3853 -0.0356555 -1.43956 0
M  V30 822 H 79.3383 2.30668 -3.52662 0
M  V30 823 H 78.0623 2.33431 -2.28424 0
M  V30 824 H 76.7213 0.660782 -3.60596 0
M  V30 825 H 76.3693 3.11265 -3.95124 0
M  V30 826 H 76.0693 2.19718 -5.44975 0
M  V30 827 H 77.5933 3.10908 -5.25517 0
M  V30 828 H 79.0073 0.875072 -5.66582 0
M  V30 829 H 77.4043 0.157428 -5.99893 0
M  V30 830 H 78.4743 -0.60822 -4.8107 0
M  V30 831 N 79.8174 1.5752 -0.0501392 0
M  V30 832 C 80.7804 2.1037 0.909786 0
M  V30 833 C 81.7804 1.02308 1.24056 0
M  V30 834 O 82.9704 1.28385 1.17741 0
M  V30 835 C 80.1024 2.58708 2.21998 0
M  V30 836 H 81.2954 2.96479 0.451665 0
M  V30 837 H 78.8484 1.55038 0.198248 0
M  V30 838 H 79.5834 1.75989 2.72394 0
M  V30 839 H 79.3684 3.37675 1.99295 0
M  V30 840 H 80.8584 2.99747 2.9076 0
M  V30 841 N 81.2955 -0.223234 1.56011 0
M  V30 842 C 82.2275 -1.30006 1.88762 0
M  V30 843 C 83.2405 -1.43129 0.775746 0
M  V30 844 O 84.4295 -1.44057 1.05403 0
M  V30 845 C 81.5295 -2.67589 2.07965 0
M  V30 846 C 80.7025 -2.76434 3.38973 0
M  V30 847 C 79.7615 -3.95019 3.47629 0
M  V30 848 O 78.7875 -3.83436 4.20672 0
M  V30 849 N 79.9895 -5.09249 2.78649 0
M  V30 850 H 82.7545 -1.02238 2.81722 0
M  V30 851 H 80.3155 -0.413278 1.56536 0
M  V30 852 H 82.3075 -3.45297 2.11073 0
M  V30 853 H 80.8775 -2.87964 1.21638 0
M  V30 854 H 80.0975 -1.85216 3.47978 0
M  V30 855 H 81.3855 -2.79313 4.25278 0
M  V30 856 H 80.7835 -5.21556 2.19081 0
M  V30 857 H 79.3405 -5.85007 2.8742 0
M  V30 858 N 82.7736 -1.49793 -0.48987 0
M  V30 859 C 84.0196 -1.60078 -1.24511 0
M  V30 860 C 84.3526 -0.291608 -1.91998 0
M  V30 861 O 83.6276 0.705647 -1.81248 0
M  V30 862 C 83.9106 -2.76791 -2.30345 0
M  V30 863 C 83.7636 -4.17535 -1.67286 0
M  V30 864 C 85.0826 -2.89111 -3.31817 0
M  V30 865 H 82.2016 -0.582645 -0.451324 0
M  V30 866 H 84.8436 -1.82117 -0.541612 0
M  V30 867 H 82.9936 -2.5813 -2.90346 0
M  V30 868 H 84.6656 -4.4774 -1.11026 0
M  V30 869 H 82.9086 -4.22665 -0.976577 0
M  V30 870 H 83.5796 -4.95094 -2.44103 0
M  V30 871 H 86.0556 -3.06133 -2.81819 0
M  V30 872 H 84.9316 -3.72433 -4.03219 0
M  V30 873 H 85.1926 -1.9893 -3.94815 0
M  V30 874 N 84.2517 0.741722 -1.39055 0
M  V30 875 C 85.6627 1.31966 -1.32068 0
M  V30 876 C 86.0137 1.96192 0.0180797 0
M  V30 877 O 85.1387 1.95861 0.920196 0
M  V30 878 C 85.7337 2.39954 -2.39181 0
M  V30 879 C 84.2927 2.93438 -2.35735 0
M  V30 880 C 83.4397 1.66936 -2.21422 0
M  V30 881 H 86.3907 0.539721 -1.4924 0
M  V30 882 H 86.4117 3.20182 -2.05581 0
M  V30 883 H 85.9237 1.9318 -3.36605 0
M  V30 884 H 84.0247 3.4451 -1.41929 0
M  V30 885 H 84.1377 3.4701 -3.30335 0
M  V30 886 H 82.5017 1.91016 -1.68478 0
M  V30 887 H 83.2847 1.22224 -3.20806 0
M  V30 888 N 85.7298 1.2412 0.971189 0
M  V30 889 C 86.9778 1.07668 1.71032 0
M  V30 890 C 87.2988 -0.385797 1.91146 0
M  V30 891 O 86.5688 -1.27569 1.4867 0
M  V30 892 H 85.1488 0.395429 0.633755 0
M  V30 893 H 87.8108 1.55984 1.16855 0
M  V30 894 H 86.9068 1.57195 2.69622 0
M  V30 895 N 87.2079 -1.17134 1.05439 0
M  V30 896 C 88.6239 -1.39454 0.776201 0
M  V30 897 C 88.8239 -1.91454 -0.628307 0
M  V30 898 O 87.8799 -2.10777 -1.39031 0
M  V30 899 C 89.1929 -2.38305 1.83388 0
M  V30 900 C 90.7409 -2.52006 1.85639 0
M  V30 901 C 91.2159 -3.54133 2.90437 0
M  V30 902 N 92.7069 -3.61653 2.89415 0
M  V30 903 C 93.4419 -4.4044 3.67152 0
M  V30 904 N 92.9379 -5.22721 4.54681 0
M  V30 905 N 94.7309 -4.35337 3.55581 0
M  V30 906 H 86.8819 -0.817134 1.96053 0
M  V30 907 H 89.1449 -0.421626 0.849079 0
M  V30 908 H 88.8509 -2.07173 2.84204 0
M  V30 909 H 88.7249 -3.37841 1.67761 0
M  V30 910 H 91.1119 -2.82447 0.85486 0
M  V30 911 H 91.1929 -1.52537 2.05344 0
M  V30 912 H 90.8369 -3.24431 3.90777 0
M  V30 913 H 90.7669 -4.53313 2.67983 0
M  V30 914 H 93.2579 -3.02909 2.25952 0
M  V30 915 H 93.5709 -5.80027 5.10674 0
M  V30 916 H 91.9159 -5.22093 4.58741 0
M  V30 917 H 95.1069 -3.70112 2.86592 0
M  V30 918 H 95.2799 -4.96494 4.1641 0
M  V30 919 N 88.686 -0.835752 -1.33615 0
M  V30 920 C 89.932 -0.430596 -1.98176 0
M  V30 921 C 90.265 1.00684 -1.66061 0
M  V30 922 O 89.54 1.70339 -0.938877 0
M  V30 923 C 89.823 -0.648065 -3.5422 0
M  V30 924 C 89.676 -2.13255 -3.96033 0
M  V30 925 C 90.995 -0.0922113 -4.40003 0
M  V30 926 H 88.114 -0.157924 -0.719881 0
M  V30 927 H 90.756 -1.05069 -1.58305 0
M  V30 928 H 88.906 -0.120237 -3.88314 0
M  V30 929 H 90.578 -2.725 -3.72211 0
M  V30 930 H 88.821 -2.61823 -3.45878 0
M  V30 931 H 89.492 -2.23547 -5.04708 0
M  V30 932 H 91.968 -0.543343 -4.12537 0
M  V30 933 H 90.844 -0.274083 -5.48215 0
M  V30 934 H 91.105 1.00378 -4.30554 0
M  V30 935 N 90.1641 1.46063 -0.591896 0
M  V30 936 C 91.3921 2.06717 -0.0868936 0
M  V30 937 C 91.8071 1.43916 1.22203 0
M  V30 938 O 91.1641 0.547698 1.74088 0
M  V30 939 C 91.2151 3.6142 0.0758725 0
M  V30 940 O 90.9361 4.21874 -1.18126 0
M  V30 941 C 92.4371 4.39025 0.61416 0
M  V30 942 H 89.6571 0.668162 -0.0616518 0
M  V30 943 H 92.2011 1.8755 -0.815175 0
M  V30 944 H 90.3561 3.79983 0.754413 0
M  V30 945 H 90.7701 5.14861 -1.00092 0
M  V30 946 H 92.2441 5.4783 0.677193 0
M  V30 947 H 92.7211 4.07708 1.63312 0
M  V30 948 H 93.3271 4.2529 -0.0298142 0
M  V30 949 N 91.6422 0.330177 1.54103 0
M  V30 950 C 92.5742 -0.566902 2.22079 0
M  V30 951 C 93.5872 -1.07462 1.22294 0
M  V30 952 O 94.7762 -0.987065 1.48726 0
M  V30 953 C 91.8762 -1.79138 2.87685 0
M  V30 954 C 91.0492 -1.42123 4.13666 0
M  V30 955 C 90.1082 -2.50394 4.62806 0
M  V30 956 O 89.1342 -2.14261 5.27334 0
M  V30 957 N 90.3362 -3.81433 4.37595 0
M  V30 958 H 93.1012 0.0151844 2.99696 0
M  V30 959 H 90.6622 0.153681 1.61169 0
M  V30 960 H 92.6542 -2.50975 3.1748 0
M  V30 961 H 91.2242 -2.28115 2.13734 0
M  V30 962 H 90.4442 -0.534201 3.90564 0
M  V30 963 H 91.7322 -1.14971 4.9564 0
M  V30 964 H 91.1302 -4.13584 3.8596 0
M  V30 965 H 89.6872 -4.4948 4.72029 0
M  V30 966 N 93.1203 -1.57491 0.0584922 0
M  V30 967 C 94.0503 -2.14988 -0.911178 0
M  V30 968 C 95.0313 -1.07343 -1.31952 0
M  V30 969 O 96.2163 -1.35318 -1.39294 0
M  V30 970 C 93.3463 -2.70078 -2.18347 0
M  V30 971 C 92.3003 -3.82771 -1.91495 0
M  V30 972 C 91.6263 -4.24408 -3.25241 0
M  V30 973 C 92.9263 -5.07592 -1.23075 0
M  V30 974 H 94.6203 -2.96263 -0.432246 0
M  V30 975 H 92.1663 -1.42512 -0.206469 0
M  V30 976 H 94.1193 -3.08943 -2.86587 0
M  V30 977 H 92.8433 -1.86005 -2.68458 0
M  V30 978 H 91.5023 -3.44389 -1.25664 0
M  V30 979 H 91.1503 -3.37275 -3.73168 0
M  V30 980 H 90.8503 -5.00366 -3.08071 0
M  V30 981 H 92.3743 -4.65879 -3.94701 0
M  V30 982 H 93.7883 -5.43857 -1.81362 0
M  V30 983 H 92.1853 -5.88741 -1.16207 0
M  V30 984 H 93.2553 -4.84454 -0.207847 0
M  V30 985 N 94.5984 0.214957 -1.56127 0
M  V30 986 C 95.8384 0.945364 -1.81224 0
M  V30 987 C 96.2024 1.81265 -0.633005 0
M  V30 988 O 97.4034 2.57731 -0.763423 0
M  V30 989 C 95.6744 1.75665 -3.1125 0
M  V30 990 S 97.2334 2.54179 -3.57685 0
M  V30 991 H 94.0514 0.317443 -0.6362 0
M  V30 992 H 96.6534 0.210381 -1.94365 0
M  V30 993 H 95.3574 1.10977 -3.9511 0
M  V30 994 H 94.8884 2.53381 -3.00934 0
M  V30 995 H 96.9034 3.7792 -3.21545 0
M  V30 996 N 96.0765 1.50051 0.48192 0
M  V30 997 C 97.4925 1.37237 0.814756 0
M  V30 998 C 97.6925 0.420109 1.97072 0
M  V30 999 O 96.7485 -0.141246 2.52105 0
M  V30 1000 C 98.0615 2.78375 1.13701 0
M  V30 1001 C 99.6095 2.87213 1.2441 0
M  V30 1002 C 100.084 4.29161 1.59954 0
M  V30 1003 N 101.575 4.32061 1.66967 0
M  V30 1004 C 102.31 5.38879 1.95952 0
M  V30 1005 N 101.806 6.55918 2.23031 0
M  V30 1006 N 103.599 5.26312 1.97363 0
M  V30 1007 H 95.7505 2.10546 -0.28005 0
M  V30 1008 H 98.0135 0.945921 -0.0627454 0
M  V30 1009 H 97.7195 3.49845 0.360787 0
M  V30 1010 H 97.5935 3.14941 2.07586 0
M  V30 1011 H 99.9805 2.15969 2.01101 0
M  V30 1012 H 100.061 2.54204 0.285299 0
M  V30 1013 H 99.7055 5.00938 0.838067 0
M  V30 1014 H 99.6355 4.59648 2.56966 0
M  V30 1015 H 102.126 3.47661 1.48123 0
M  V30 1016 H 102.439 7.33139 2.44391 0
M  V30 1017 H 100.784 6.59112 2.20447 0
M  V30 1018 H 103.975 4.33876 1.75697 0
M  V30 1019 H 104.148 6.09649 2.19618 0
M  V30 1020 N 97.5546 -0.734337 1.39446 0
M  V30 1021 C 98.4866 -1.85861 1.34121 0
M  V30 1022 C 99.4996 -1.60871 0.249864 0
M  V30 1023 O 100.689 -1.71093 0.508865 0
M  V30 1024 C 97.7886 -3.21899 1.05991 0
M  V30 1025 C 96.9616 -3.74239 2.26415 0
M  V30 1026 C 96.0206 -4.88841 1.94733 0
M  V30 1027 O 95.0466 -5.02468 2.67422 0
M  V30 1028 N 96.2486 -5.73261 0.913884 0
M  V30 1029 H 99.0136 -1.90934 2.31007 0
M  V30 1030 H 96.5746 -0.915102 1.33557 0
M  V30 1031 H 98.5666 -3.96136 0.828147 0
M  V30 1032 H 97.1366 -3.12091 0.178361 0
M  V30 1033 H 96.3566 -2.91347 2.65539 0
M  V30 1034 H 97.6446 -4.05942 3.06738 0
M  V30 1035 H 97.0426 -5.64842 0.311476 0
M  V30 1036 H 95.5996 -6.47563 0.742015 0
M  V30 1037 N 99.0327 -1.24633 -0.964593 0
M  V30 1038 C 100.263 -1.11339 -1.74032 0
M  V30 1039 C 100.671 0.336593 -1.86182 0
M  V30 1040 O 100.014 1.24389 -1.35178 0
M  V30 1041 C 100.076 -1.68284 -3.1768 0
M  V30 1042 C 99.7397 -3.17196 -3.28992 0
M  V30 1043 C 100.737 -4.14308 -3.14078 0
M  V30 1044 C 98.4217 -3.57215 -3.53133 0
M  V30 1045 C 100.416 -5.4942 -3.23135 0
M  V30 1046 C 98.1027 -4.92468 -3.61827 0
M  V30 1047 C 99.1007 -5.8838 -3.46841 0
M  V30 1048 O 98.7887 -7.21173 -3.55197 0
M  V30 1049 H 98.5207 -0.389551 -0.552472 0
M  V30 1050 H 101.075 -1.65282 -1.21946 0
M  V30 1051 H 99.3047 -1.08777 -3.71085 0
M  V30 1052 H 100.994 -1.50234 -3.77074 0
M  V30 1053 H 101.76 -3.84731 -2.95308 0
M  V30 1054 H 97.6387 -2.83063 -3.63863 0
M  V30 1055 H 101.183 -6.24263 -3.11355 0
M  V30 1056 H 97.0797 -5.21714 -3.80111 0
M  V30 1057 H 97.8477 -7.29135 -3.71892 0
M  V30 1058 N 100.511 1.16574 -1.06058 0
M  V30 1059 C 101.736 1.91493 -0.796562 0
M  V30 1060 C 102.161 1.76773 0.642868 0
M  V30 1061 O 101.519 1.09142 1.44768 0
M  V30 1062 C 101.567 3.40293 -1.19303 0
M  V30 1063 O 100.671 4.11074 -0.330394 0
M  V30 1064 H 100.012 0.596678 -0.291326 0
M  V30 1065 H 102.542 1.47708 -1.41575 0
M  V30 1066 H 102.552 3.91057 -1.16356 0
M  V30 1067 H 101.227 3.50326 -2.24153 0
M  V30 1068 H 99.8038 3.70513 -0.421225 0
M  V30 1069 N 101.989 0.842826 1.3317 0
M  V30 1070 C 103.266 0.362216 1.92217 0
M  V30 1071 C 103.646 -1.15289 1.76838 0
M  V30 1072 O 102.994 -1.96914 1.15919 0
M  V30 1073 C 103.204 0.813495 3.39387 0
M  V30 1074 C 104.552 0.823804 4.16532 0
M  V30 1075 O 105.576 0.757358 3.48055 0
M  V30 1076 O 104.435 0.915193 5.38782 0
M  V30 1077 H 101.529 0.103317 0.820521 0
M  V30 1078 H 104.075 0.928942 1.42017 0
M  V30 1079 H 102.847 1.85624 3.4447 0
M  V30 1080 H 102.47 0.223561 3.96971 0
M  V30 1081 N 103.467 -1.45747 0.599634 0
M  V30 1082 C 104.4 -2.27547 -0.172552 0
M  V30 1083 C 105.378 -1.36657 -0.881116 0
M  V30 1084 O 106.562 -1.66081 -0.891595 0
M  V30 1085 C 103.689 -3.14829 -1.24903 0
M  V30 1086 C 102.735 -4.21603 -0.644465 0
M  V30 1087 S 103.568 -5.32754 0.541606 0
M  V30 1088 C 104.724 -6.23604 -0.535656 0
M  V30 1089 H 104.957 -2.92691 0.521468 0
M  V30 1090 H 102.49 -1.49473 0.386947 0
M  V30 1091 H 104.448 -3.65675 -1.86527 0
M  V30 1092 H 103.109 -2.48965 -1.91508 0
M  V30 1093 H 102.302 -4.82566 -1.45417 0
M  V30 1094 H 101.904 -3.73857 -0.103534 0
M  V30 1095 H 104.196 -6.62519 -1.41686 0
M  V30 1096 H 105.139 -7.0809 0.0376246 0
M  V30 1097 H 105.547 -5.58103 -0.84741 0
M  V30 1098 N 104.945 -0.338344 -1.53925 0
M  V30 1099 C 106.356 0.146651 -1.86123 0
M  V30 1100 C 106.707 1.5042 -1.2597 0
M  V30 1101 O 105.832 2.08723 -0.571294 0
M  V30 1102 C 106.427 0.272879 -3.37699 0
M  V30 1103 C 104.986 0.702103 -3.69794 0
M  V30 1104 C 104.133 -0.167304 -2.76795 0
M  V30 1105 H 107.084 -0.558123 -1.48562 0
M  V30 1106 H 107.105 1.10128 -3.64214 0
M  V30 1107 H 106.617 -0.715307 -3.81451 0
M  V30 1108 H 104.718 1.6995 -3.31584 0
M  V30 1109 H 104.831 0.495604 -4.7653 0
M  V30 1110 H 103.195 0.359527 -2.5215 0
M  V30 1111 H 103.978 -1.15253 -3.23375 0
M  V30 1112 N 106.423 1.57458 -0.0668435 0
M  V30 1113 C 107.834 1.80776 0.466558 0
M  V30 1114 C 108.185 0.980361 1.69951 0
M  V30 1115 O 107.31 0.201441 2.1546 0
M  V30 1116 C 107.905 3.27881 0.85321 0
M  V30 1117 C 106.464 3.52062 1.3315 0
M  V30 1118 C 105.611 2.75513 0.314264 0
M  V30 1119 H 108.562 1.5598 -0.292588 0
M  V30 1120 H 108.583 3.39659 1.715 0
M  V30 1121 H 108.095 3.88075 -0.0443439 0
M  V30 1122 H 106.196 2.97167 2.24772 0
M  V30 1123 H 106.309 4.60762 1.31285 0
M  V30 1124 H 104.673 2.42123 0.790492 0
M  V30 1125 H 105.456 3.38442 -0.575477 0
M  V30 1126 N 107.901 -0.206675 1.56239 0
M  V30 1127 C 108.831 -1.25909 1.96645 0
M  V30 1128 C 109.812 -1.48097 0.836734 0
M  V30 1129 O 110.997 -1.6003 1.10019 0
M  V30 1130 C 108.127 -2.6058 2.29599 0
M  V30 1131 C 107.081 -2.53024 3.452 0
M  V30 1132 C 106.407 -3.91861 3.63798 0
M  V30 1133 C 107.707 -2.06524 4.79734 0
M  V30 1134 H 109.401 -0.923369 2.84806 0
M  V30 1135 H 106.947 -0.442735 1.37025 0
M  V30 1136 H 108.9 -3.34375 2.56459 0
M  V30 1137 H 107.624 -2.95869 1.38307 0
M  V30 1138 H 106.283 -1.81684 3.18412 0
M  V30 1139 H 105.931 -4.24483 2.69857 0
M  V30 1140 H 105.631 -3.87683 4.4156 0
M  V30 1141 H 107.155 -4.67296 3.93022 0
M  V30 1142 H 108.569 -2.70072 5.05702 0
M  V30 1143 H 106.966 -2.13374 5.60885 0
M  V30 1144 H 108.036 -1.01802 4.74093 0
M  V30 1145 N 109.379 -1.50304 -0.473955 0
M  V30 1146 C 110.607 -1.64902 -1.24959 0
M  V30 1147 C 111.022 -0.331198 -1.85872 0
M  V30 1148 O 110.379 0.68652 -1.69095 0
M  V30 1149 C 110.43 -2.73803 -2.36038 0
M  V30 1150 O 110.151 -4.00477 -1.77624 0
M  V30 1151 C 111.652 -2.99349 -3.26964 0
M  V30 1152 H 108.872 -0.554383 -0.378022 0
M  V30 1153 H 111.416 -1.9651 -0.566054 0
M  V30 1154 H 109.571 -2.44898 -3.00173 0
M  V30 1155 H 109.985 -4.60678 -2.5075 0
M  V30 1156 H 111.459 -3.79217 -4.01121 0
M  V30 1157 H 111.936 -2.10307 -3.85574 0
M  V30 1158 H 112.542 -3.29774 -2.68569 0
M  V30 1159 N 110.857 0.726932 -1.39834 0
M  V30 1160 C 111.787 1.85405 -1.41941 0
M  V30 1161 C 112.768 1.67751 -0.281728 0
M  V30 1162 O 113.953 1.8795 -0.488717 0
M  V30 1163 C 111.083 3.23243 -1.2701 0
M  V30 1164 C 110.037 3.55549 -2.38262 0
M  V30 1165 C 109.363 4.9241 -2.08415 0
M  V30 1166 C 110.663 3.577 -3.80589 0
M  V30 1167 H 112.357 1.83899 -2.36266 0
M  V30 1168 H 109.903 0.883349 -1.13723 0
M  V30 1169 H 111.856 4.01775 -1.27103 0
M  V30 1170 H 110.58 3.25296 -0.291564 0
M  V30 1171 H 109.239 2.79351 -2.37399 0
M  V30 1172 H 108.887 4.91052 -1.0898 0
M  V30 1173 H 108.587 5.14992 -2.82943 0
M  V30 1174 H 110.111 5.73289 -2.10171 0
M  V30 1175 H 111.525 4.26293 -3.83337 0
M  V30 1176 H 109.922 3.91804 -4.54543 0
M  V30 1177 H 110.992 2.57328 -4.10987 0
M  V30 1178 N 112.336 1.25143 0.95797 0
M  V30 1179 C 113.246 1.06968 2.08794 0
M  V30 1180 C 114.262 0.00773911 1.73998 0
M  V30 1181 O 115.438 0.207972 2.00323 0
M  V30 1182 C 112.503 0.68691 3.39827 0
M  V30 1183 C 111.564 1.82641 3.88511 0
M  V30 1184 C 110.797 1.46181 5.1329 0
M  V30 1185 O 111.02 0.355971 5.69288 0
M  V30 1186 O 109.954 2.29085 5.566 0
M  V30 1187 H 113.78 2.01723 2.27027 0
M  V30 1188 H 111.365 1.04051 1.07209 0
M  V30 1189 H 113.247 0.485417 4.18595 0
M  V30 1190 H 111.922 -0.231417 3.22872 0
M  V30 1191 H 110.829 2.08274 3.10762 0
M  V30 1192 H 112.162 2.72386 4.09959 0
M  V30 1193 N 113.814 -1.1601 1.06675 0
M  V30 1194 C 115.062 -1.86264 0.784229 0
M  V30 1195 C 115.383 -1.82328 -0.691488 0
M  V30 1196 O 114.653 -1.25947 -1.50047 0
M  V30 1197 H 113.233 -0.689621 0.28711 0
M  V30 1198 H 115.895 -1.40664 1.34906 0
M  V30 1199 H 114.991 -2.91595 1.11259 0
M  V30 1200 N 115.292 -0.849877 -1.32721 0
M  V30 1201 C 116.541 -0.447175 -1.96681 0
M  V30 1202 C 116.854 1.00135 -1.68025 0
M  V30 1203 O 118.06 1.50926 -2.25685 0
M  V30 1204 C 116.516 -0.7487 -3.52026 0
M  V30 1205 C 116.124 -2.21264 -3.89546 0
M  V30 1206 C 117.868 -0.413487 -4.22481 0
M  V30 1207 C 115.775 -2.45763 -5.37917 0
M  V30 1208 H 114.705 -0.163486 -0.736063 0
M  V30 1209 H 117.356 -1.03999 -1.51183 0
M  V30 1210 H 115.738 -0.0853727 -3.95908 0
M  V30 1211 H 116.912 -2.91736 -3.56689 0
M  V30 1212 H 115.227 -2.5119 -3.32103 0
M  V30 1213 H 117.824 -0.574017 -5.3161 0
M  V30 1214 H 118.167 0.644492 -4.11281 0
M  V30 1215 H 118.7 -1.03251 -3.84167 0
M  V30 1216 H 115.439 -3.50168 -5.54132 0
M  V30 1217 H 114.959 -1.79864 -5.72197 0
M  V30 1218 H 116.638 -2.29471 -6.0494 0
M  V30 1219 N 116.77 1.45427 -0.607355 0
M  V30 1220 C 117.702 2.2871 0.149752 0
M  V30 1221 C 118.715 1.39937 0.831958 0
M  V30 1222 O 119.904 1.64313 0.697385 0
M  V30 1223 C 117.004 3.15673 1.23304 0
M  V30 1224 C 116.177 4.32722 0.637996 0
M  V30 1225 C 115.236 5.00895 1.61215 0
M  V30 1226 O 114.262 5.57697 1.13854 0
M  V30 1227 N 115.464 5.00159 2.94655 0
M  V30 1228 H 118.229 2.94328 -0.564882 0
M  V30 1229 H 115.79 1.55612 -0.446823 0
M  V30 1230 H 117.782 3.58144 1.88454 0
M  V30 1231 H 116.352 2.51965 1.8502 0
M  V30 1232 H 115.572 3.93734 -0.191572 0
M  V30 1233 H 116.86 5.08321 0.220665 0
M  V30 1234 H 116.258 4.553 3.35735 0
M  V30 1235 H 114.815 5.46495 3.55228 0
M  V30 1236 N 118.248 0.346503 1.53744 0
M  V30 1237 C 119.525 -0.304532 1.93215 0
M  V30 1238 C 119.905 -1.67993 1.27834 0
M  V30 1239 O 119.253 -2.24411 0.430352 0
M  V30 1240 C 119.463 -0.373852 3.46992 0
M  V30 1241 C 120.811 -0.62329 4.2 0
M  V30 1242 O 121.835 -0.455847 3.53271 0
M  V30 1243 O 120.694 -0.947879 5.38217 0
M  V30 1244 H 117.788 -0.178318 0.807547 0
M  V30 1245 H 120.334 0.397895 1.64969 0
M  V30 1246 H 119.106 0.591224 3.86808 0
M  V30 1247 H 118.729 -1.12294 3.81413 0
M  V30 1248 N 119.726 -1.57421 0.075193 0
M  V30 1249 C 121.142 -1.57099 -0.281444 0
M  V30 1250 C 121.342 -1.08486 -1.69803 0
M  V30 1251 O 120.398 -0.752279 -2.41033 0
M  V30 1252 C 121.711 -3.00571 -0.0880041 0
M  V30 1253 C 123.259 -3.12605 -0.157281 0
M  V30 1254 C 123.734 -4.57999 0.0079207 0
M  V30 1255 N 125.225 -4.63176 -0.0475725 0
M  V30 1256 C 125.96 -5.73373 0.0557876 0
M  V30 1257 N 125.456 -6.92473 0.21286 0
M  V30 1258 N 127.249 -5.621 -0.00152098 0
M  V30 1259 H 119.4 -1.87335 1.00098 0
M  V30 1260 H 121.663 -0.86377 0.390646 0
M  V30 1261 H 121.369 -3.40262 0.889629 0
M  V30 1262 H 121.243 -3.67754 -0.838875 0
M  V30 1263 H 123.63 -2.72798 -1.1254 0
M  V30 1264 H 123.711 -2.48053 0.62475 0
M  V30 1265 H 123.355 -4.98496 0.972824 0
M  V30 1266 H 123.285 -5.20586 -0.793556 0
M  V30 1267 H 125.776 -3.7753 -0.167244 0
M  V30 1268 H 126.089 -7.72279 0.283781 0
M  V30 1269 H 124.434 -6.94556 0.248267 0
M  V30 1270 H 127.625 -4.67938 -0.122958 0
M  V30 1271 H 127.798 -6.47948 0.0824844 0
M  V30 1272 N 121.204 0.198386 -1.56346 0
M  V30 1273 C 122.45 0.920648 -1.80698 0
M  V30 1274 C 122.783 1.83045 -0.648697 0
M  V30 1275 O 122.058 1.91308 0.350925 0
M  V30 1276 C 122.341 1.73971 -3.15287 0
M  V30 1277 C 122.194 0.85485 -4.41602 0
M  V30 1278 C 123.513 2.71296 -3.46535 0
M  V30 1279 H 120.632 0.333261 -0.657348 0
M  V30 1280 H 123.274 0.188198 -1.89066 0
M  V30 1281 H 121.424 2.36416 -3.08285 0
M  V30 1282 H 123.096 0.245362 -4.60647 0
M  V30 1283 H 121.339 0.161398 -4.335 0
M  V30 1284 H 122.01 1.46286 -5.32264 0
M  V30 1285 H 124.486 2.18983 -3.53816 0
M  V30 1286 H 123.362 3.2569 -4.41834 0
M  V30 1287 H 123.623 3.5018 -2.69864 0
M  V30 1288 N 122.682 1.50554 0.465978 0
M  V30 1289 C 123.612 1.72722 1.57128 0
M  V30 1290 C 124.593 0.576294 1.6004 0
M  V30 1291 O 125.778 0.81598 1.76225 0
M  V30 1292 C 122.908 1.82605 2.95419 0
M  V30 1293 C 121.862 2.97835 3.07373 0
M  V30 1294 C 121.188 2.92867 4.47363 0
M  V30 1295 C 122.488 4.38265 2.84114 0
M  V30 1296 H 124.182 2.65267 1.38829 0
M  V30 1297 H 121.728 1.2765 0.666441 0
M  V30 1298 H 123.681 1.96698 3.72677 0
M  V30 1299 H 122.405 0.866858 3.14886 0
M  V30 1300 H 121.064 2.83401 2.3255 0
M  V30 1301 H 120.712 1.94783 4.63755 0
M  V30 1302 H 120.412 3.70227 4.56296 0
M  V30 1303 H 121.936 3.09015 5.26633 0
M  V30 1304 H 123.35 4.53198 3.51118 0
M  V30 1305 H 121.747 5.17115 3.04487 0
M  V30 1306 H 122.817 4.50281 1.7993 0
M  V30 1307 N 124.16 -0.719506 1.40217 0
M  V30 1308 C 125.39 -1.50646 1.41384 0
M  V30 1309 C 125.798 -1.89197 0.0107743 0
M  V30 1310 O 125.141 -1.55709 -0.974708 0
M  V30 1311 C 125.203 -2.81405 2.23722 0
M  V30 1312 C 124.867 -2.65199 3.72181 0
M  V30 1313 C 125.864 -2.32717 4.64907 0
M  V30 1314 C 123.549 -2.81586 4.1595 0
M  V30 1315 C 125.543 -2.16827 5.99387 0
M  V30 1316 C 123.23 -2.65313 5.50502 0
M  V30 1317 C 124.228 -2.32981 6.42035 0
M  V30 1318 O 123.916 -2.16827 7.74107 0
M  V30 1319 H 123.648 -0.471606 0.484318 0
M  V30 1320 H 126.202 -0.895456 1.84853 0
M  V30 1321 H 124.432 -3.44823 1.75026 0
M  V30 1322 H 126.121 -3.43102 2.16878 0
M  V30 1323 H 126.887 -2.19694 4.32388 0
M  V30 1324 H 122.766 -3.0574 3.45027 0
M  V30 1325 H 126.31 -1.91513 6.70797 0
M  V30 1326 H 122.207 -2.7792 5.82607 0
M  V30 1327 H 122.975 -2.31778 7.84998 0
M  V30 1328 N 125.638 -1.25649 -0.95132 0
M  V30 1329 C 126.884 -1.10757 -1.69884 0
M  V30 1330 C 127.217 0.350061 -1.91019 0
M  V30 1331 O 126.492 1.25783 -1.48354 0
M  V30 1332 C 126.775 -1.86606 -3.07978 0
M  V30 1333 C 126.628 -3.40217 -2.94232 0
M  V30 1334 C 127.947 -1.65182 -4.07925 0
M  V30 1335 H 125.066 -0.40374 -0.616574 0
M  V30 1336 H 127.708 -1.54521 -1.10558 0
M  V30 1337 H 125.858 -1.49409 -3.58621 0
M  V30 1338 H 127.53 -3.87108 -2.50889 0
M  V30 1339 H 125.773 -3.67759 -2.30078 0
M  V30 1340 H 126.444 -3.88505 -3.92133 0
M  V30 1341 H 128.92 -1.9757 -3.66204 0
M  V30 1342 H 127.796 -2.20683 -5.02583 0
M  V30 1343 H 128.057 -0.593933 -4.38092 0
M  V30 1344 N 127.117 1.15442 -1.07289 0
M  V30 1345 C 128.047 2.22312 -0.714107 0
M  V30 1346 C 129.028 1.67467 0.298155 0
M  V30 1347 O 130.213 1.93445 0.171048 0
M  V30 1348 C 127.343 3.47124 -0.110448 0
M  V30 1349 C 126.297 4.14926 -1.04979 0
M  V30 1350 C 125.623 5.33807 -0.308924 0
M  V30 1351 C 126.923 4.64762 -2.38314 0
M  V30 1352 H 128.617 2.5258 -1.6076 0
M  V30 1353 H 126.163 1.21404 -0.77441 0
M  V30 1354 H 128.116 4.21124 0.152482 0
M  V30 1355 H 126.84 3.16187 0.81812 0
M  V30 1356 H 125.499 3.42866 -1.29764 0
M  V30 1357 H 125.147 4.99126 0.623084 0
M  V30 1358 H 124.847 5.80113 -0.935036 0
M  V30 1359 H 126.371 6.10576 -0.0537771 0
M  V30 1360 H 127.785 5.30292 -2.1786 0
M  V30 1361 H 126.182 5.21728 -2.96514 0
M  V30 1362 H 127.252 3.80434 -3.00663 0
M  V30 1363 N 128.595 0.856903 1.32268 0
M  V30 1364 C 129.542 0.301172 2.28827 0
M  V30 1365 C 130.512 -0.593104 1.5515 0
M  V30 1366 O 131.697 -0.527537 1.83362 0
M  V30 1367 C 128.837 -0.502523 3.41422 0
M  V30 1368 C 127.95 0.417797 4.29975 0
M  V30 1369 C 127.085 -0.398749 5.29701 0
M  V30 1370 C 126.124 0.518827 6.09897 0
M  V30 1371 N 125.261 -0.260674 7.01616 0
M  V30 1372 H 130.101 1.12983 2.75751 0
M  V30 1373 H 127.638 0.568582 1.35667 0
M  V30 1374 H 129.596 -0.984141 4.05426 0
M  V30 1375 H 128.226 -1.29599 2.95642 0
M  V30 1376 H 127.278 1.01781 3.66531 0
M  V30 1377 H 128.59 1.12191 4.86019 0
M  V30 1378 H 127.744 -0.943435 5.9932 0
M  V30 1379 H 126.483 -1.13622 4.7428 0
M  V30 1380 H 125.488 1.07538 5.39181 0
M  V30 1381 H 126.713 1.25495 6.67404 0
M  V30 1382 H 124.659 -0.981198 6.4862 0
M  V30 1383 H 124.576 0.384364 7.55022 0
M  V30 1384 H 125.844 -0.787014 7.75517 0
M  V30 1385 N 130.073 -1.45103 0.615059 0
M  V30 1386 C 131.003 -2.33339 -0.0865619 0
M  V30 1387 C 131.984 -1.4727 -0.851209 0
M  V30 1388 O 133.169 -1.76026 -0.820281 0
M  V30 1389 C 130.299 -3.30095 -1.07956 0
M  V30 1390 C 129.253 -4.25858 -0.427628 0
M  V30 1391 C 128.579 -5.12361 -1.5294 0
M  V30 1392 C 129.879 -5.18165 0.655944 0
M  V30 1393 H 131.573 -2.92254 0.650224 0
M  V30 1394 H 129.119 -1.40532 0.314138 0
M  V30 1395 H 131.072 -3.90698 -1.57901 0
M  V30 1396 H 129.796 -2.69355 -1.84703 0
M  V30 1397 H 128.455 -3.66564 0.0510292 0
M  V30 1398 H 128.103 -4.47984 -2.28734 0
M  V30 1399 H 127.803 -5.77238 -1.09865 0
M  V30 1400 H 129.327 -5.75833 -2.03098 0
M  V30 1401 H 130.741 -5.72796 0.240257 0
M  V30 1402 H 129.138 -5.91559 1.00888 0
M  V30 1403 H 130.208 -4.60144 1.52957 0
M  V30 1404 N 131.551 -0.354651 -1.53558 0
M  V30 1405 C 132.781 0.239167 -2.05211 0
M  V30 1406 C 133.189 1.43879 -1.22863 0
M  V30 1407 O 132.532 1.81857 -0.259565 0
M  V30 1408 C 132.594 0.707251 -3.52474 0
M  V30 1409 C 132.258 -0.374212 -4.55465 0
M  V30 1410 C 133.255 -1.22054 -5.0537 0
M  V30 1411 C 130.94 -0.531323 -4.99482 0
M  V30 1412 C 132.934 -2.20942 -5.97882 0
M  V30 1413 C 130.621 -1.52358 -5.91802 0
M  V30 1414 C 131.619 -2.36108 -6.40892 0
M  V30 1415 O 131.307 -3.33643 -7.31394 0
M  V30 1416 H 131.039 0.0479716 -0.674296 0
M  V30 1417 H 133.593 -0.508121 -1.99016 0
M  V30 1418 H 131.823 1.50596 -3.56171 0
M  V30 1419 H 133.512 1.22285 -3.87042 0
M  V30 1420 H 134.278 -1.1103 -4.7212 0
M  V30 1421 H 130.157 0.110738 -4.60867 0
M  V30 1422 H 133.701 -2.86348 -6.36121 0
M  V30 1423 H 129.598 -1.63434 -6.24467 0
M  V30 1424 H 130.366 -3.29244 -7.4936 0
M  V30 1425 N 133.029 1.57378 -0.0835403 0
M  V30 1426 C 134.306 1.85363 0.624507 0
M  V30 1427 C 134.686 0.978239 1.87066 0
M  V30 1428 O 134.034 0.0475908 2.2845 0
M  V30 1429 C 134.244 3.35795 0.950947 0
M  V30 1430 C 135.592 4.03581 1.31939 0
M  V30 1431 O 136.616 3.40609 1.04232 0
M  V30 1432 O 135.475 5.14672 1.83779 0
M  V30 1433 H 132.569 0.766162 0.311329 0
M  V30 1434 H 135.115 1.69307 -0.115362 0
M  V30 1435 H 133.887 3.91244 0.0663899 0
M  V30 1436 H 133.51 3.57154 1.74719 0
M  V30 1437 N 134.507 -0.190092 1.56449 0
M  V30 1438 C 135.454 -1.23557 1.94942 0
M  V30 1439 C 136.424 -1.44972 0.810696 0
M  V30 1440 O 137.609 -1.58023 1.06927 0
M  V30 1441 C 134.749 -2.57416 2.2985 0
M  V30 1442 C 133.862 -2.43537 3.5681 0
M  V30 1443 C 132.997 -3.70134 3.81017 0
M  V30 1444 C 132.036 -3.51109 5.01387 0
M  V30 1445 N 131.173 -4.6973 5.21822 0
M  V30 1446 H 136.013 -0.900304 2.84075 0
M  V30 1447 H 133.55 -0.43318 1.40577 0
M  V30 1448 H 135.508 -3.35409 2.48106 0
M  V30 1449 H 134.138 -2.88975 1.43852 0
M  V30 1450 H 133.19 -1.56816 3.46573 0
M  V30 1451 H 134.502 -2.25415 4.4496 0
M  V30 1452 H 133.656 -4.56566 3.9954 0
M  V30 1453 H 132.395 -3.91215 2.91207 0
M  V30 1454 H 131.4 -2.63063 4.82782 0
M  V30 1455 H 132.625 -3.31468 5.9271 0
M  V30 1456 H 130.571 -4.91065 4.34961 0
M  V30 1457 H 130.488 -4.54452 6.0416 0
M  V30 1458 H 131.756 -5.57499 5.44808 0
M  V30 1459 N 135.985 -1.50799 -0.457987 0
M  V30 1460 C 137.234 -1.6168 -1.20593 0
M  V30 1461 C 137.547 -0.32888 -1.92815 0
M  V30 1462 O 138.753 -0.316773 -2.69646 0
M  V30 1463 C 137.209 -2.8545 -2.19195 0
M  V30 1464 C 136.817 -4.21168 -1.52715 0
M  V30 1465 C 138.561 -3.05681 -2.94549 0
M  V30 1466 C 136.468 -5.3611 -2.4968 0
M  V30 1467 H 135.398 -0.602134 -0.453818 0
M  V30 1468 H 138.049 -1.77245 -0.475031 0
M  V30 1469 H 136.431 -2.63472 -2.95632 0
M  V30 1470 H 137.605 -4.53449 -0.819775 0
M  V30 1471 H 135.92 -4.06648 -0.895922 0
M  V30 1472 H 138.517 -3.88727 -3.67145 0
M  V30 1473 H 138.86 -2.17929 -3.54701 0
M  V30 1474 H 139.393 -3.27901 -2.25223 0
M  V30 1475 H 136.132 -6.26057 -1.94249 0
M  V30 1476 H 135.652 -5.0823 -3.18532 0
M  V30 1477 H 137.331 -5.6722 -3.11241 0
M  V30 1478 N 137.463 0.71206 -1.40597 0
M  V30 1479 C 138.74 1.46536 -1.29563 0
M  V30 1480 C 139.12 2.10931 0.0844217 0
M  V30 1481 O 138.468 2.00418 1.0975 0
M  V30 1482 C 138.678 2.49821 -2.43701 0
M  V30 1483 C 140.026 3.15551 -2.841 0
M  V30 1484 O 141.05 2.60142 -2.4332 0
M  V30 1485 O 139.909 4.15867 -3.54566 0
M  V30 1486 H 137.003 0.651801 -0.509004 0
M  V30 1487 H 139.549 0.743935 -1.52524 0
M  V30 1488 H 138.321 2.00778 -3.35863 0
M  V30 1489 H 137.944 3.29495 -2.22528 0
M  V30 1490 N 138.941 1.26152 0.944643 0
M  V30 1491 C 140.352 1.10454 1.50522 0
M  V30 1492 C 140.703 -0.31635 1.93633 0
M  V30 1493 O 139.828 -1.20746 1.79581 0
M  V30 1494 C 140.423 1.99891 2.73549 0
M  V30 1495 C 138.982 1.88348 3.25886 0
M  V30 1496 C 138.129 1.93447 1.9868 0
M  V30 1497 H 141.08 1.39292 0.760489 0
M  V30 1498 H 141.101 1.54477 3.47732 0
M  V30 1499 H 140.613 3.03297 2.42141 0
M  V30 1500 H 138.714 0.878636 3.62092 0
M  V30 1501 H 138.827 2.73696 3.93227 0
M  V30 1502 H 137.191 1.37456 2.14425 0
M  V30 1503 H 137.974 2.98476 1.69607 0
M  V30 1504 N 140.419 -1.14872 1.07899 0
M  V30 1505 C 141.329 -2.2341 0.715915 0
M  V30 1506 C 142.345 -1.71808 -0.275306 0
M  V30 1507 O 143.521 -2.01039 -0.120545 0
M  V30 1508 C 140.586 -3.46474 0.125168 0
M  V30 1509 C 139.647 -4.13039 1.17034 0
M  V30 1510 C 138.88 -5.30229 0.607688 0
M  V30 1511 O 139.103 -5.675 -0.574497 0
M  V30 1512 O 138.037 -5.86444 1.35526 0
M  V30 1513 H 141.863 -2.56808 1.62121 0
M  V30 1514 H 139.448 -1.22702 0.852322 0
M  V30 1515 H 141.33 -4.20917 -0.201729 0
M  V30 1516 H 140.005 -3.14811 -0.753364 0
M  V30 1517 H 138.912 -3.40493 1.54968 0
M  V30 1518 H 140.245 -4.48796 2.02097 0
M  V30 1519 N 141.898 -0.863906 -1.31812 0
M  V30 1520 C 142.845 -0.313303 -2.28664 0
M  V30 1521 C 143.815 0.584868 -1.55462 0
M  V30 1522 O 145 0.517805 -1.83639 0
M  V30 1523 C 142.14 0.48441 -3.41683 0
M  V30 1524 C 141.253 -0.440594 -4.29747 0
M  V30 1525 C 140.388 0.370652 -5.29905 0
M  V30 1526 C 139.427 -0.551164 -6.09613 0
M  V30 1527 N 138.564 0.223462 -7.01744 0
M  V30 1528 H 143.404 -1.14444 -2.75148 0
M  V30 1529 H 140.941 -0.575769 -1.35364 0
M  V30 1530 H 142.899 0.962627 -4.05943 0
M  V30 1531 H 141.529 1.28029 -2.96325 0
M  V30 1532 H 140.581 -1.03724 -3.65986 0
M  V30 1533 H 141.893 -1.14767 -4.85417 0
M  V30 1534 H 141.047 0.911638 -5.99812 0
M  V30 1535 H 139.786 1.11105 -4.74876 0
M  V30 1536 H 138.791 -1.10396 -5.38603 0
M  V30 1537 H 140.016 -1.29032 -6.66729 0
M  V30 1538 H 137.962 0.946787 -6.49132 0
M  V30 1539 H 137.879 -0.424399 -7.54808 0
M  V30 1540 H 139.147 0.745876 -7.75923 0
M  V30 1541 N 143.376 1.44774 -0.622745 0
M  V30 1542 C 144.306 2.33382 0.0741861 0
M  V30 1543 C 145.287 1.47719 0.843387 0
M  V30 1544 O 146.472 1.76458 0.810934 0
M  V30 1545 C 143.602 3.30663 1.06204 0
M  V30 1546 C 142.556 4.26079 0.405037 0
M  V30 1547 C 141.882 5.13165 1.5022 0
M  V30 1548 C 143.182 5.1781 -0.683414 0
M  V30 1549 H 144.876 2.91905 -0.665713 0
M  V30 1550 H 142.422 1.40363 -0.321587 0
M  V30 1551 H 144.375 3.9153 1.55827 0
M  V30 1552 H 143.099 2.70331 1.83272 0
M  V30 1553 H 141.758 3.66532 -0.0704683 0
M  V30 1554 H 141.406 4.49191 2.26355 0
M  V30 1555 H 141.106 5.77812 1.06803 0
M  V30 1556 H 142.63 5.76902 2.00041 0
M  V30 1557 H 144.044 5.72661 -0.270631 0
M  V30 1558 H 142.441 5.91015 -1.04023 0
M  V30 1559 H 143.511 4.59326 -1.55395 0
M  V30 1560 N 144.854 0.36279 1.53368 0
M  V30 1561 C 146.079 -0.231226 2.06107 0
M  V30 1562 C 146.504 -1.419 1.23474 0
M  V30 1563 O 145.862 -1.79524 0.253128 0
M  V30 1564 C 145.91 -0.605523 3.5548 0
M  V30 1565 O 145.014 -1.70312 3.7559 0
M  V30 1566 H 144.355 -0.034327 0.663112 0
M  V30 1567 H 146.885 0.522584 1.97814 0
M  V30 1568 H 146.895 -0.877314 3.98456 0
M  V30 1569 H 145.57 0.263004 4.15068 0
M  V30 1570 H 144.147 -1.4271 3.44512 0
M  V30 1571 N 146.332 -1.57332 0.0918853 0
M  V30 1572 C 147.578 -1.94524 -0.573425 0
M  V30 1573 C 147.911 -0.973578 -1.68033 0
M  V30 1574 O 147.186 -0.00609226 -1.94499 0
M  V30 1575 C 147.469 -3.41858 -1.13161 0
M  V30 1576 C 147.322 -4.4979 -0.0299747 0
M  V30 1577 C 148.641 -3.90435 -2.03098 0
M  V30 1578 H 145.76 -0.70734 -0.206975 0
M  V30 1579 H 148.402 -1.89309 0.161942 0
M  V30 1580 H 146.552 -3.46433 -1.7583 0
M  V30 1581 H 148.224 -4.57327 0.604112 0
M  V30 1582 H 146.467 -4.291 0.636833 0
M  V30 1583 H 147.138 -5.50069 -0.461287 0
M  V30 1584 H 149.614 -3.87992 -1.50338 0
M  V30 1585 H 148.49 -4.94097 -2.39081 0
M  V30 1586 H 148.751 -3.29541 -2.94712 0
M  V30 1587 N 147.81 0.181792 -1.56548 0
M  V30 1588 C 148.758 1.24461 -1.965 0
M  V30 1589 C 149.752 1.464 -0.852261 0
M  V30 1590 O 150.958 1.47103 -1.03733 0
M  V30 1591 H 147.333 0.418138 -0.625031 0
M  V30 1592 H 149.304 0.880714 -2.85107 0
M  V30 1593 C 148.053 2.57891 -2.33212 0
M  V30 1594 H 147.376 2.41829 -3.18369 0
M  V30 1595 H 148.816 3.3097 -2.65019 0
M  V30 1596 C 147.275 3.15871 -1.17163 0
M  V30 1597 O 147.805 3.9913 -0.453708 0
M  V30 1598 N 146.011 2.74808 -0.944936 0
M  V30 1599 H 145.558 2.07205 -1.53049 0
M  V30 1600 H 145.516 3.13939 -0.170286 0
M  V30 1601 N 149.288 1.51039 0.449983 0
M  V30 1602 C 150.513 1.6715 1.22783 0
M  V30 1603 C 150.938 0.363081 1.84563 0
M  V30 1604 O 150.296 -0.675433 1.68249 0
M  V30 1605 C 150.344 2.77985 2.29689 0
M  V30 1606 O 149.448 2.40707 3.34864 0
M  V30 1607 H 148.789 0.557746 0.360299 0
M  V30 1608 H 151.319 1.97535 0.533005 0
M  V30 1609 H 151.329 3.01693 2.74673 0
M  V30 1610 H 150.004 3.72935 1.84098 0
M  V30 1611 H 148.581 2.27523 2.95445 0
M  V30 1612 N 150.766 -0.704594 1.40972 0
M  V30 1613 C 151.716 -1.81051 1.38581 0
M  V30 1614 C 152.7 -1.58759 0.261585 0
M  V30 1615 O 153.892 -1.69745 0.501556 0
M  V30 1616 C 151.021 -3.19279 1.26157 0
M  V30 1617 C 150.107 -3.47296 2.43405 0
M  V30 1618 N 150.498 -3.46064 3.68881 0
M  V30 1619 C 148.796 -3.77804 2.37023 0
M  V30 1620 C 149.497 -3.72733 4.46592 0
M  V30 1621 N 148.473 -3.9203 3.76581 0
M  V30 1622 H 152.275 -1.78448 2.33525 0
M  V30 1623 H 149.789 -0.904198 1.349 0
M  V30 1624 H 151.786 -3.98488 1.22526 0
M  V30 1625 H 150.446 -3.231 0.321902 0
M  V30 1626 H 151.457 -3.26656 4.01891 0
M  V30 1627 H 148.134 -3.8905 1.51481 0
M  V30 1628 H 149.524 -3.77993 5.55492 0
M  V30 1629 N 152.244 -1.26651 -0.937939 0
M  V30 1630 C 153.491 -1.12387 -1.6845 0
M  V30 1631 C 153.819 0.332208 -1.91642 0
M  V30 1632 O 153.074 1.2602 -1.49725 0
M  V30 1633 C 153.373 -1.84168 -3.06295 0
M  V30 1634 C 153.039 -3.34056 -3.02849 0
M  V30 1635 C 151.701 -3.74942 -3.01616 0
M  V30 1636 C 154.053 -4.29741 -2.9491 0
M  V30 1637 C 151.381 -5.09894 -2.90215 0
M  V30 1638 C 153.733 -5.64738 -2.8505 0
M  V30 1639 C 152.397 -6.0493 -2.82162 0
M  V30 1640 H 151.667 -0.411252 -0.616403 0
M  V30 1641 H 154.314 -1.57134 -1.09459 0
M  V30 1642 H 152.619 -1.319 -3.6893 0
M  V30 1643 H 154.316 -1.70569 -3.62915 0
M  V30 1644 H 150.906 -3.01534 -3.0459 0
M  V30 1645 H 155.09 -3.99133 -2.94969 0
M  V30 1646 H 150.346 -5.40194 -2.86358 0
M  V30 1647 H 154.52 -6.38561 -2.77872 0
M  V30 1648 H 152.147 -7.09457 -2.73084 0
M  V30 1649 N 153.722 1.14298 -1.08507 0
M  V30 1650 C 154.655 2.18447 -0.660004 0
M  V30 1651 C 155.633 1.59242 0.328749 0
M  V30 1652 O 156.817 1.87062 0.232367 0
M  V30 1653 C 153.944 3.38688 0.0290807 0
M  V30 1654 C 152.99 4.1646 -0.919982 0
M  V30 1655 S 153.823 4.77334 -2.42718 0
M  V30 1656 C 154.979 6.00931 -1.75024 0
M  V30 1657 H 155.212 2.54166 -1.54231 0
M  V30 1658 H 152.745 1.25446 -0.900149 0
M  V30 1659 H 154.703 4.08342 0.420378 0
M  V30 1660 H 153.364 3.01289 0.887895 0
M  V30 1661 H 152.557 5.02529 -0.384751 0
M  V30 1662 H 152.159 3.52414 -1.25223 0
M  V30 1663 H 154.451 6.69017 -1.06877 0
M  V30 1664 H 155.394 6.59044 -2.58971 0
M  V30 1665 H 155.802 5.51089 -1.22317 0
M  V30 1666 N 155.201 0.870884 1.31352 0
M  V30 1667 C 156.148 0.325425 2.28494 0
M  V30 1668 C 157.118 -0.576615 1.5577 0
M  V30 1669 O 158.303 -0.508059 1.83911 0
M  V30 1670 C 155.443 -0.466283 3.41935 0
M  V30 1671 C 154.556 0.463378 4.29508 0
M  V30 1672 C 153.691 -0.342544 5.30094 0
M  V30 1673 C 152.73 0.583486 6.09313 0
M  V30 1674 N 151.867 -0.186244 7.01853 0
M  V30 1675 H 156.707 1.15901 2.74538 0
M  V30 1676 H 154.244 0.58294 1.35056 0
M  V30 1677 H 156.202 -0.941085 4.06447 0
M  V30 1678 H 154.832 -1.26456 2.97 0
M  V30 1679 H 153.884 1.05663 3.65431 0
M  V30 1680 H 155.196 1.1734 4.84802 0
M  V30 1681 H 154.35 -0.879816 6.00287 0
M  V30 1682 H 153.089 -1.08585 4.75458 0
M  V30 1683 H 152.094 1.13251 5.3801 0
M  V30 1684 H 153.319 1.32566 6.66035 0
M  V30 1685 H 151.265 -0.912348 6.49625 0
M  V30 1686 H 151.182 0.464422 7.54572 0
M  V30 1687 H 152.45 -0.704716 7.76308 0
M  V30 1688 N 156.679 -1.44442 0.630414 0
M  V30 1689 C 157.956 -1.9549 0.0655657 0
M  V30 1690 C 158.336 -1.5724 -1.40851 0
M  V30 1691 O 157.684 -0.846116 -2.12257 0
M  V30 1692 C 157.894 -3.47812 0.287691 0
M  V30 1693 C 159.242 -4.24216 0.180513 0
M  V30 1694 O 160.266 -3.55526 0.219019 0
M  V30 1695 O 159.125 -5.46434 0.0848493 0
M  V30 1696 H 156.219 -0.826688 -0.0227177 0
M  V30 1697 H 158.765 -1.54496 0.702068 0
M  V30 1698 H 157.537 -3.687 1.31056 0
M  V30 1699 H 157.16 -3.95751 -0.382984 0
M  V30 1700 N 158.157 -0.370918 -1.53173 0
M  V30 1701 C 159.087 0.464847 -2.28826 0
M  V30 1702 C 160.068 1.07936 -1.31468 0
M  V30 1703 O 161.253 1.0956 -1.60344 0
M  V30 1704 C 158.383 1.60196 -3.08147 0
M  V30 1705 C 157.337 1.11443 -4.13237 0
M  V30 1706 C 156.663 2.3422 -4.80672 0
M  V30 1707 C 157.963 0.195384 -5.21934 0
M  V30 1708 H 159.657 -0.166329 -2.98938 0
M  V30 1709 H 157.203 -0.0814359 -1.4377 0
M  V30 1710 H 159.156 2.19332 -3.59822 0
M  V30 1711 H 157.88 2.26045 -2.35735 0
M  V30 1712 H 156.539 0.545727 -3.62515 0
M  V30 1713 H 156.187 2.98537 -4.04827 0
M  V30 1714 H 155.887 2.02269 -5.51689 0
M  V30 1715 H 157.411 2.94032 -5.35143 0
M  V30 1716 H 158.825 0.694375 -5.69079 0
M  V30 1717 H 157.222 -0.0335027 -6.00091 0
M  V30 1718 H 158.292 -0.760961 -4.78892 0
M  V30 1719 N 159.635 1.57281 -0.100228 0
M  V30 1720 C 160.883 1.94153 0.561157 0
M  V30 1721 C 161.204 0.983157 1.68401 0
M  V30 1722 O 160.474 0.0361132 1.95867 0
M  V30 1723 H 159.054 0.716791 0.210283 0
M  V30 1724 H 161.716 1.94202 -0.164765 0
M  V30 1725 H 160.812 2.96709 0.968008 0
M  V30 1726 N 161.113 -0.173488 1.56642 0
M  V30 1727 C 162.043 -1.2171 1.99271 0
M  V30 1728 C 163.024 -1.46289 0.867959 0
M  V30 1729 O 164.209 -1.5766 1.13388 0
M  V30 1730 C 161.339 -2.55651 2.35074 0
M  V30 1731 C 160.293 -2.45645 3.50489 0
M  V30 1732 C 159.619 -3.84056 3.72028 0
M  V30 1733 C 160.919 -1.96302 4.84007 0
M  V30 1734 H 162.613 -0.86275 2.867 0
M  V30 1735 H 160.159 -0.413571 1.37933 0
M  V30 1736 H 162.112 -3.2886 2.63494 0
M  V30 1737 H 160.836 -2.92869 1.44552 0
M  V30 1738 H 159.495 -1.7489 3.22194 0
M  V30 1739 H 159.143 -4.18664 2.788 0
M  V30 1740 H 158.843 -3.7823 4.49684 0
M  V30 1741 H 160.367 -4.58854 4.02846 0
M  V30 1742 H 161.781 -2.59284 5.11317 0
M  V30 1743 H 160.178 -2.01429 5.65284 0
M  V30 1744 H 161.248 -0.917226 4.76146 0
M  V30 1745 N 162.591 -1.51276 -0.441967 0
M  V30 1746 C 163.868 -1.54252 -1.20273 0
M  V30 1747 C 164.248 -0.30408 -2.08898 0
M  V30 1748 O 163.596 0.711084 -2.17154 0
M  V30 1749 C 163.806 -2.85406 -2.00859 0
M  V30 1750 C 165.154 -3.37181 -2.58059 0
M  V30 1751 O 166.178 -2.86925 -2.11074 0
M  V30 1752 O 165.037 -4.24858 -3.43741 0
M  V30 1753 H 162.131 -0.619969 -0.547328 0
M  V30 1754 H 164.677 -1.63586 -0.451413 0
M  V30 1755 H 163.449 -3.67003 -1.35736 0
M  V30 1756 H 163.072 -2.79213 -2.83065 0
M  V30 1757 N 164.069 0.697108 -1.41344 0
M  V30 1758 C 165.294 1.49096 -1.44171 0
M  V30 1759 C 165.719 1.88038 -0.0481568 0
M  V30 1760 O 165.077 1.54525 0.948243 0
M  V30 1761 C 165.125 2.73088 -2.3549 0
M  V30 1762 O 164.229 3.70514 -1.81088 0
M  V30 1763 H 163.57 0.448801 -0.489361 0
M  V30 1764 H 166.1 0.856992 -1.85787 0
M  V30 1765 H 166.11 3.21413 -2.51312 0
M  V30 1766 H 164.785 2.44081 -3.36745 0
M  V30 1767 H 163.362 3.29441 -1.74708 0
M  V30 1768 N 165.547 1.27147 0.931209 0
M  V30 1769 C 166.477 1.12081 2.04842 0
M  V30 1770 C 167.458 0.0232364 1.70084 0
M  V30 1771 O 168.643 0.197085 1.93197 0
M  V30 1772 C 165.773 0.76354 3.38803 0
M  V30 1773 C 164.727 1.81396 3.87659 0
M  V30 1774 C 164.053 1.31075 5.18385 0
M  V30 1775 C 165.353 3.21739 4.11438 0
M  V30 1776 H 167.047 2.05537 2.17703 0
M  V30 1777 H 164.593 0.989603 1.04608 0
M  V30 1778 H 166.546 0.644982 4.16435 0
M  V30 1779 H 165.27 -0.206727 3.25945 0
M  V30 1780 H 163.929 1.92136 3.12217 0
M  V30 1781 H 163.577 0.330037 5.01916 0
M  V30 1782 H 163.277 2.013 5.52044 0
M  V30 1783 H 164.801 1.20506 5.98591 0
M  V30 1784 H 166.215 3.14019 4.79651 0
M  V30 1785 H 164.612 3.89644 4.56397 0
M  V30 1786 H 165.682 3.67054 3.16859 0
M  V30 1787 N 167.025 -1.13721 1.09112 0
M  V30 1788 C 168.302 -1.81155 0.737706 0
M  V30 1789 C 168.682 -1.96253 -0.777683 0
M  V30 1790 O 168.03 -1.52807 -1.69889 0
M  V30 1791 C 168.24 -3.16392 1.47299 0
M  V30 1792 C 169.588 -3.91787 1.63671 0
M  V30 1793 O 170.612 -3.26005 1.43524 0
M  V30 1794 O 169.471 -5.0977 1.96969 0
M  V30 1795 H 166.565 -0.783518 0.26463 0
M  V30 1796 H 169.111 -1.20676 1.19312 0
M  V30 1797 H 167.883 -3.0061 2.50498 0
M  V30 1798 H 167.506 -3.8457 1.00953 0
M  V30 1799 N 168.503 -0.877838 -1.30888 0
M  V30 1800 C 169.435 -0.296607 -2.27273 0
M  V30 1801 C 170.448 0.544799 -1.53414 0
M  V30 1802 O 171.637 0.365511 -1.74718 0
M  V30 1803 C 168.737 0.597481 -3.33592 0
M  V30 1804 C 167.91 -0.213251 -4.3688 0
M  V30 1805 C 166.969 0.610208 -5.2265 0
M  V30 1806 O 165.995 0.035441 -5.69189 0
M  V30 1807 N 167.197 1.92071 -5.47804 0
M  V30 1808 H 169.962 -1.12492 -2.77787 0
M  V30 1809 H 167.523 -0.740105 -1.43993 0
M  V30 1810 H 169.515 1.15425 -3.87891 0
M  V30 1811 H 168.085 1.32647 -2.83061 0
M  V30 1812 H 167.305 -0.951466 -3.82545 0
M  V30 1813 H 168.593 -0.769262 -5.02951 0
M  V30 1814 H 167.991 2.4107 -5.11763 0
M  V30 1815 H 166.548 2.42508 -6.05007 0
M  V30 1816 N 169.982 1.44106 -0.638065 0
M  V30 1817 C 171.228 2.02277 -0.145546 0
M  V30 1818 C 171.561 1.50125 1.23191 0
M  V30 1819 O 170.836 0.688133 1.8192 0
M  V30 1820 C 171.119 3.59829 -0.139791 0
M  V30 1821 C 170.972 4.22247 -1.55008 0
M  V30 1822 C 172.291 4.36873 0.531966 0
M  V30 1823 H 169.41 0.734992 -0.0543632 0
M  V30 1824 H 172.052 1.71592 -0.815863 0
M  V30 1825 H 170.202 3.86102 0.431007 0
M  V30 1826 H 171.874 4.07057 -2.1703 0
M  V30 1827 H 170.117 3.79476 -2.10191 0
M  V30 1828 H 170.788 5.31284 -1.49804 0
M  V30 1829 H 173.264 4.16074 0.0464781 0
M  V30 1830 H 172.14 5.4657 0.505206 0
M  V30 1831 H 172.401 4.11995 1.60352 0
M  V30 1832 N 171.46 0.379036 1.52974 0
M  V30 1833 C 172.37 -0.468639 2.29872 0
M  V30 1834 C 173.386 -1.08067 1.36373 0
M  V30 1835 O 174.562 -1.08871 1.69438 0
M  V30 1836 C 171.627 -1.58594 3.083 0
M  V30 1837 C 170.688 -1.00007 4.17489 0
M  V30 1838 C 169.921 -2.06413 4.92168 0
M  V30 1839 O 170.144 -3.27751 4.66835 0
M  V30 1840 O 169.078 -1.68717 5.7777 0
M  V30 1841 H 172.904 0.157508 3.03291 0
M  V30 1842 H 170.489 0.143035 1.48714 0
M  V30 1843 H 172.371 -2.23525 3.57232 0
M  V30 1844 H 171.046 -2.19724 2.37703 0
M  V30 1845 H 169.953 -0.314299 3.72777 0
M  V30 1846 H 171.286 -0.433135 4.90291 0
M  V30 1847 N 172.938 -1.57226 0.108567 0
M  V30 1848 C 174.187 -1.94008 -0.551703 0
M  V30 1849 C 174.5 -0.993442 -1.68494 0
M  V30 1850 O 175.706 -1.25551 -2.40726 0
M  V30 1851 C 174.162 -3.44763 -1.03279 0
M  V30 1852 C 173.77 -4.47943 0.0714193 0
M  V30 1853 C 175.514 -3.90483 -1.66503 0
M  V30 1854 C 173.421 -5.89865 -0.425779 0
M  V30 1855 H 172.351 -0.724206 -0.209863 0
M  V30 1856 H 175.002 -1.82547 0.186741 0
M  V30 1857 H 173.384 -3.51422 -1.82533 0
M  V30 1858 H 174.558 -4.52942 0.847365 0
M  V30 1859 H 172.873 -4.11913 0.609669 0
M  V30 1860 H 175.47 -4.93925 -2.04798 0
M  V30 1861 H 175.813 -3.29877 -2.53942 0
M  V30 1862 H 176.346 -3.86581 -0.938074 0
M  V30 1863 H 173.085 -6.54202 0.412316 0
M  V30 1864 H 172.605 -5.88309 -1.16843 0
M  V30 1865 H 174.284 -6.40844 -0.890397 0
M  V30 1866 N 174.416 0.165178 -1.56732 0
M  V30 1867 C 175.665 0.879143 -1.81532 0
M  V30 1868 C 175.978 1.83144 -0.686842 0
M  V30 1869 O 177.184 2.58823 -0.819944 0
M  V30 1870 C 175.64 1.61388 -3.21686 0
M  V30 1871 C 175.248 0.704904 -4.4242 0
M  V30 1872 C 176.992 2.3157 -3.55774 0
M  V30 1873 C 174.899 1.44022 -5.73595 0
M  V30 1874 H 173.829 0.332033 -0.676957 0
M  V30 1875 H 176.48 0.132008 -1.83025 0
M  V30 1876 H 174.862 2.40599 -3.14529 0
M  V30 1877 H 176.036 -0.0506815 -4.60772 0
M  V30 1878 H 174.351 0.112419 -4.16248 0
M  V30 1879 H 176.948 2.8719 -4.51028 0
M  V30 1880 H 177.291 3.07201 -2.8095 0
M  V30 1881 H 177.824 1.59297 -3.64513 0
M  V30 1882 H 174.563 0.72612 -6.51466 0
M  V30 1883 H 174.083 2.16898 -5.5921 0
M  V30 1884 H 175.762 1.98606 -6.15764 0
M  V30 1885 N 175.894 1.51508 0.433938 0
M  V30 1886 C 176.827 1.67756 1.54704 0
M  V30 1887 C 177.805 0.525127 1.53887 0
M  V30 1888 O 178.989 0.749393 1.72963 0
M  V30 1889 C 176.116 1.69424 2.9328 0
M  V30 1890 C 175.162 2.90673 3.12108 0
M  V30 1891 S 175.995 4.51431 2.88046 0
M  V30 1892 C 177.151 4.55849 4.28897 0
M  V30 1893 H 177.384 2.61904 1.40689 0
M  V30 1894 H 174.917 1.41235 0.62386 0
M  V30 1895 H 176.875 1.7107 3.73156 0
M  V30 1896 H 175.536 0.764464 3.04655 0
M  V30 1897 H 174.729 2.88251 4.13434 0
M  V30 1898 H 174.331 2.86786 2.40062 0
M  V30 1899 H 176.623 4.31699 5.22152 0
M  V30 1900 H 177.566 5.57676 4.36351 0
M  V30 1901 H 177.974 3.85137 4.12711 0
M  V30 1902 N 177.372 -0.689602 1.41712 0
M  V30 1903 C 178.335 -1.78521 1.43746 0
M  V30 1904 C 179.335 -1.57436 0.327191 0
M  V30 1905 O 180.525 -1.64 0.587348 0
M  V30 1906 C 177.657 -3.16971 1.25467 0
M  V30 1907 H 178.85 -1.78108 2.41283 0
M  V30 1908 H 176.403 -0.89781 1.27942 0
M  V30 1909 H 177.138 -3.23019 0.287948 0
M  V30 1910 H 176.923 -3.33678 2.05917 0
M  V30 1911 H 178.413 -3.96935 1.2974 0
M  V30 1912 N 178.85 -1.27639 -0.924453 0
M  V30 1913 C 179.783 -1.04966 -2.02626 0
M  V30 1914 C 180.761 0.0309505 -1.62571 0
M  V30 1915 O 181.945 -0.114846 -1.8815 0
M  V30 1916 C 179.072 -0.59292 -3.3347 0
M  V30 1917 C 178.118 -1.66858 -3.92506 0
M  V30 1918 S 178.951 -3.2619 -4.24689 0
M  V30 1919 C 180.107 -2.82325 -5.58609 0
M  V30 1920 H 180.34 -1.98252 -2.21547 0
M  V30 1921 H 177.873 -1.11506 -1.06798 0
M  V30 1922 H 179.831 -0.336086 -4.09122 0
M  V30 1923 H 178.492 0.319939 -3.12466 0
M  V30 1924 H 177.685 -1.30038 -4.86935 0
M  V30 1925 H 177.287 -1.87766 -3.2345 0
M  V30 1926 H 179.579 -2.2783 -6.38044 0
M  V30 1927 H 180.522 -3.75511 -6.00331 0
M  V30 1928 H 180.93 -2.21367 -5.19285 0
M  V30 1929 N 180.328 1.1314 -1.09713 0
M  V30 1930 C 181.238 2.22242 -0.751367 0
M  V30 1931 C 182.254 1.72224 0.247938 0
M  V30 1932 O 183.43 2.01205 0.0885463 0
M  V30 1933 C 180.495 3.46231 -0.180274 0
M  V30 1934 C 179.556 4.11125 -1.2359 0
M  V30 1935 C 178.789 5.29195 -0.691966 0
M  V30 1936 O 179.012 5.68342 0.48414 0
M  V30 1937 O 177.946 5.84214 -1.44838 0
M  V30 1938 H 181.772 2.54197 -1.66186 0
M  V30 1939 H 179.357 1.21331 -0.871735 0
M  V30 1940 H 181.239 4.21185 0.134739 0
M  V30 1941 H 179.914 3.1597 0.703185 0
M  V30 1942 H 178.821 3.37985 -1.60366 0
M  V30 1943 H 180.154 4.45524 -2.09211 0
M  V30 1944 N 181.806 0.884767 1.30421 0
M  V30 1945 C 183.083 0.423185 1.90967 0
M  V30 1946 C 183.463 -1.09605 1.80416 0
M  V30 1947 O 182.811 -1.93126 1.22125 0
M  V30 1948 C 183.021 0.921056 3.36627 0
M  V30 1949 C 184.369 0.955903 4.137 0
M  V30 1950 O 185.393 0.867706 3.4547 0
M  V30 1951 O 184.252 1.08614 5.35598 0
M  V30 1952 H 181.346 0.129369 0.816819 0
M  V30 1953 H 183.892 0.973653 1.3899 0
M  V30 1954 H 182.664 1.96489 3.3839 0
M  V30 1955 H 182.287 0.349741 3.96059 0
M  V30 1956 N 183.284 -1.43765 0.645699 0
M  V30 1957 C 184.194 -2.34544 -0.0512957 0
M  V30 1958 C 185.21 -1.53455 -0.82022 0
M  V30 1959 O 186.386 -1.86133 -0.769176 0
M  V30 1960 C 183.451 -3.31636 -1.01087 0
M  V30 1961 C 182.512 -4.2863 -0.239712 0
M  V30 1962 C 181.745 -5.21084 -1.15358 0
M  V30 1963 O 181.968 -5.1779 -2.39269 0
M  V30 1964 O 180.902 -5.98593 -0.630038 0
M  V30 1965 H 184.728 -2.95624 0.695718 0
M  V30 1966 H 182.313 -1.43781 0.405882 0
M  V30 1967 H 184.195 -3.9136 -1.56254 0
M  V30 1968 H 182.87 -2.73069 -1.73824 0
M  V30 1969 H 181.777 -3.72408 0.355356 0
M  V30 1970 H 183.11 -4.90157 0.447936 0
M  V30 1971 N 184.763 -0.387143 -1.52771 0
M  V30 1972 C 186.01 0.195735 -2.01552 0
M  V30 1973 C 186.338 1.46995 -1.27369 0
M  V30 1974 O 185.593 1.92325 -0.361879 0
M  V30 1975 C 185.892 0.512209 -3.53711 0
M  V30 1976 C 185.558 -0.670202 -4.45891 0
M  V30 1977 C 184.22 -0.994586 -4.70809 0
M  V30 1978 C 186.572 -1.46134 -5.00294 0
M  V30 1979 C 183.9 -2.11169 -5.4738 0
M  V30 1980 C 186.252 -2.56903 -5.78086 0
M  V30 1981 C 184.916 -2.89852 -6.01284 0
M  V30 1982 H 184.186 0.0716246 -0.73753 0
M  V30 1983 H 186.833 -0.524046 -1.8419 0
M  V30 1984 H 185.138 1.31329 -3.69134 0
M  V30 1985 H 186.835 0.975804 -3.88946 0
M  V30 1986 H 183.425 -0.407366 -4.2666 0
M  V30 1987 H 187.609 -1.22397 -4.80971 0
M  V30 1988 H 182.865 -2.3707 -5.63567 0
M  V30 1989 H 187.039 -3.18608 -6.19243 0
M  V30 1990 H 184.666 -3.76533 -6.60399 0
M  V30 1991 N 186.241 1.57166 -0.116904 0
M  V30 1992 C 187.489 1.94737 0.540533 0
M  V30 1993 C 187.81 1.00096 1.67349 0
M  V30 1994 O 187.08 0.0568854 1.95817 0
M  V30 1995 H 185.66 0.718981 0.202669 0
M  V30 1996 H 188.322 1.94017 -0.185353 0
M  V30 1997 H 187.418 2.97719 0.936483 0
M  V30 1998 N 187.719 -0.156864 1.56817 0
M  V30 1999 C 188.966 -0.871125 1.82805 0
M  V30 2000 C 189.294 -1.81611 0.696262 0
M  V30 2001 O 188.549 -1.93141 -0.315459 0
M  V30 2002 C 188.848 -1.68737 3.1506 0
M  V30 2003 C 188.514 -0.890045 4.42028 0
M  V30 2004 C 187.176 -0.670042 4.76512 0
M  V30 2005 C 189.528 -0.331769 5.20143 0
M  V30 2006 C 186.856 0.119104 5.86579 0
M  V30 2007 C 189.208 0.444365 6.31037 0
M  V30 2008 C 187.872 0.675035 6.64078 0
M  V30 2009 H 187.142 -0.318767 0.668931 0
M  V30 2010 H 189.789 -0.135274 1.91022 0
M  V30 2011 H 188.094 -2.49304 3.0225 0
M  V30 2012 H 189.791 -2.24331 3.3238 0
M  V30 2013 H 186.381 -1.07157 4.14988 0
M  V30 2014 H 190.565 -0.489043 4.93885 0
M  V30 2015 H 185.821 0.307417 6.10627 0
M  V30 2016 H 189.995 0.884139 6.90765 0
M  V30 2017 H 187.622 1.28839 7.49203 0
M  V30 2018 N 189.197 -1.51736 -0.425897 0
M  V30 2019 C 190.107 -1.76738 -1.54275 0
M  V30 2020 C 191.123 -0.65211 -1.61318 0
M  V30 2021 O 192.299 -0.935654 -1.78346 0
M  V30 2022 C 189.364 -1.89755 -2.90162 0
M  V30 2023 C 188.425 -3.13633 -2.93143 0
M  V30 2024 C 187.658 -3.2602 -4.22548 0
M  V30 2025 O 187.881 -2.44067 -5.15546 0
M  V30 2026 O 186.815 -4.19071 -4.32046 0
M  V30 2027 H 190.641 -2.71502 -1.36089 0
M  V30 2028 H 188.226 -1.36376 -0.610069 0
M  V30 2029 H 190.108 -2.00236 -3.70788 0
M  V30 2030 H 188.783 -0.981785 -3.08452 0
M  V30 2031 H 187.69 -3.08622 -2.11431 0
M  V30 2032 H 189.023 -4.04936 -2.798 0
M  V30 2033 N 190.675 0.682077 -1.42076 0
M  V30 2034 C 191.924 1.43786 -1.41451 0
M  V30 2035 C 192.237 1.95574 -0.0317074 0
M  V30 2036 O 193.443 2.71326 0.0971462 0
M  V30 2037 C 191.899 2.60071 -2.48779 0
M  V30 2038 C 191.507 2.15013 -3.93031 0
M  V30 2039 C 193.251 3.37626 -2.57311 0
M  V30 2040 C 191.158 3.28336 -4.91883 0
M  V30 2041 H 190.088 0.540143 -0.526082 0
M  V30 2042 H 192.739 0.739157 -1.67955 0
M  V30 2043 H 191.121 3.32275 -2.15429 0
M  V30 2044 H 192.295 1.5001 -4.35699 0
M  V30 2045 H 190.61 1.50416 -3.88284 0
M  V30 2046 H 193.207 4.22012 -3.28345 0
M  V30 2047 H 193.55 3.83727 -1.61429 0
M  V30 2048 H 194.083 2.72488 -2.89819 0
M  V30 2049 H 190.822 2.87234 -5.89217 0
M  V30 2050 H 190.342 3.92145 -4.53853 0
M  V30 2051 H 192.021 3.93913 -5.13265 0
M  V30 2052 N 192.153 1.28127 0.917671 0
M  V30 2053 C 193.564 1.13622 1.48145 0
M  V30 2054 C 193.915 -0.275207 1.9426 0
M  V30 2055 O 193.04 -1.1691 1.82102 0
M  V30 2056 C 193.635 2.05648 2.69248 0
M  V30 2057 C 192.194 1.95219 3.21818 0
M  V30 2058 C 191.341 1.97618 1.94532 0
M  V30 2059 H 194.292 1.40874 0.730772 0
M  V30 2060 H 194.313 1.61818 3.44377 0
M  V30 2061 H 193.825 3.08365 2.35653 0
M  V30 2062 H 191.926 0.955244 3.60147 0
M  V30 2063 H 192.039 2.81976 3.87333 0
M  V30 2064 H 190.403 1.41973 2.11461 0
M  V30 2065 H 191.186 3.02007 1.63238 0
M  V30 2066 N 193.631 -1.12557 1.10312 0
M  V30 2067 C 194.908 -1.80363 0.756878 0
M  V30 2068 C 195.288 -1.97067 -0.756824 0
M  V30 2069 O 194.636 -1.54601 -1.68259 0
M  V30 2070 C 194.846 -3.14812 1.50647 0
M  V30 2071 C 196.194 -3.90029 1.67817 0
M  V30 2072 O 197.218 -3.24464 1.46974 0
M  V30 2073 O 196.077 -5.07652 2.02365 0
M  V30 2074 H 193.171 -0.780667 0.272926 0
M  V30 2075 H 195.717 -1.19404 1.20586 0
M  V30 2076 H 194.489 -2.97936 2.53672 0
M  V30 2077 H 194.112 -3.83478 1.05026 0
M  V30 2078 N 195.109 -0.891671 -1.2995 0
M  V30 2079 C 196.358 -0.509521 -1.95158 0
M  V30 2080 C 196.671 0.947388 -1.71125 0
M  V30 2081 O 197.877 1.43669 -2.30372 0
M  V30 2082 C 196.333 -0.860315 -3.49466 0
M  V30 2083 C 195.941 -2.33545 -3.8231 0
M  V30 2084 C 197.685 -0.547687 -4.20952 0
M  V30 2085 C 195.592 -2.62752 -5.29826 0
M  V30 2086 H 194.522 -0.18682 -0.730489 0
M  V30 2087 H 197.173 -1.08756 -1.47798 0
M  V30 2088 H 195.555 -0.211285 -3.95436 0
M  V30 2089 H 196.729 -3.02936 -3.47227 0
M  V30 2090 H 195.044 -2.61629 -3.23944 0
M  V30 2091 H 197.641 -0.742854 -5.29515 0
M  V30 2092 H 197.984 0.51332 -4.13123 0
M  V30 2093 H 198.517 -1.1542 -3.80688 0
M  V30 2094 H 195.256 -3.6762 -5.42712 0
M  V30 2095 H 194.776 -1.97977 -5.66185 0
M  V30 2096 H 196.455 -2.48601 -5.97333 0
M  V30 2097 N 196.587 1.43421 -0.653314 0
M  V30 2098 C 197.864 1.95361 -0.0966581 0
M  V30 2099 C 198.244 1.59461 1.38331 0
M  V30 2100 O 197.592 0.879777 2.10884 0
M  V30 2101 C 197.802 3.47311 -0.342988 0
M  V30 2102 C 199.15 4.23875 -0.24798 0
M  V30 2103 O 200.174 3.55133 -0.275553 0
M  V30 2104 O 199.033 5.4623 -0.171771 0
M  V30 2105 H 196.127 0.826945 0.00956291 0
M  V30 2106 H 198.673 1.5336 -0.726558 0
M  V30 2107 H 197.445 3.66569 -1.36906 0
M  V30 2108 H 197.068 3.9631 0.319975 0
M  V30 2109 N 198.065 0.39524 1.52563 0
M  V30 2110 C 199.028 -0.425001 2.25225 0
M  V30 2111 C 200.028 -0.985266 1.27079 0
M  V30 2112 O 201.218 -0.866332 1.5113 0
M  V30 2113 C 198.35 -1.59686 3.01186 0
M  V30 2114 H 199.543 0.211233 2.99155 0
M  V30 2115 H 197.096 0.147472 1.55603 0
M  V30 2116 H 197.831 -2.27035 2.31572 0
M  V30 2117 H 197.616 -1.20176 3.73229 0
M  V30 2118 H 199.106 -2.17743 3.5634 0
M  V30 2119 N 199.544 -1.57102 0.125237 0
M  V30 2120 C 200.454 -2.19191 -0.8362 0
M  V30 2121 C 201.47 -1.16985 -1.28805 0
M  V30 2122 O 202.646 -1.49479 -1.34974 0
M  V30 2123 C 199.711 -2.78407 -2.06617 0
M  V30 2124 C 198.772 -3.9567 -1.66565 0
M  V30 2125 C 198.005 -4.52052 -2.83698 0
M  V30 2126 O 198.228 -4.07326 -3.99302 0
M  V30 2127 O 197.162 -5.42645 -2.60423 0
M  V30 2128 H 200.988 -3.01816 -0.337776 0
M  V30 2129 H 198.573 -1.4906 -0.100695 0
M  V30 2130 H 200.455 -3.16129 -2.7864 0
M  V30 2131 H 199.13 -1.9881 -2.55453 0
M  V30 2132 H 198.037 -3.62705 -0.916296 0
M  V30 2133 H 199.37 -4.76722 -1.22464 0
M  V30 2134 N 201.022 0.148545 -1.56898 0
M  V30 2135 C 201.969 1.18345 -1.98149 0
M  V30 2136 C 202.939 1.42772 -0.848848 0
M  V30 2137 O 204.124 1.55132 -1.11079 0
M  V30 2138 C 201.264 2.51231 -2.36594 0
M  V30 2139 C 200.377 2.33991 -3.63142 0
M  V30 2140 C 199.512 3.59902 -3.90697 0
M  V30 2141 C 198.551 3.37692 -5.1052 0
M  V30 2142 N 197.688 4.5573 -5.34092 0
M  V30 2143 H 202.528 0.82467 -2.86362 0
M  V30 2144 H 200.065 0.395756 -1.41676 0
M  V30 2145 H 202.023 3.28713 -2.56912 0
M  V30 2146 H 200.653 2.85059 -1.51463 0
M  V30 2147 H 199.705 1.47572 -3.50609 0
M  V30 2148 H 201.017 2.13539 -4.5078 0
M  V30 2149 H 200.171 4.45813 -4.11505 0
M  V30 2150 H 198.91 3.83357 -3.01477 0
M  V30 2151 H 197.915 2.5017 -4.89587 0
M  V30 2152 H 199.14 3.15637 -6.0129 0
M  V30 2153 H 197.086 4.79361 -4.47827 0
M  V30 2154 H 197.003 4.38274 -6.15996 0
M  V30 2155 H 198.271 5.42858 -5.59397 0
M  V30 2156 N 202.5 1.5196 0.417844 0
M  V30 2157 C 203.43 1.77634 1.51554 0
M  V30 2158 C 204.411 0.626918 1.58126 0
M  V30 2159 O 205.596 0.871632 1.7354 0
M  V30 2160 C 202.726 1.91911 2.8946 0
M  V30 2161 C 201.68 3.07463 2.97743 0
M  V30 2162 C 201.006 3.06951 4.37819 0
M  V30 2163 C 202.306 4.47082 2.70027 0
M  V30 2164 H 204 2.6955 1.3032 0
M  V30 2165 H 201.546 1.29706 0.625492 0
M  V30 2166 H 203.499 2.08455 3.6623 0
M  V30 2167 H 202.223 0.966598 3.11969 0
M  V30 2168 H 200.882 2.90656 2.23416 0
M  V30 2169 H 200.53 2.09438 4.57323 0
M  V30 2170 H 200.23 3.84556 4.44286 0
M  V30 2171 H 201.754 3.25613 5.16535 0
M  V30 2172 H 203.168 4.6414 3.36522 0
M  V30 2173 H 201.565 5.2654 2.87881 0
M  V30 2174 H 202.635 4.55777 1.65514 0
M  V30 2175 N 203.978 -0.674533 1.42435 0
M  V30 2176 C 204.911 -1.79924 1.40366 0
M  V30 2177 C 205.889 -1.60378 0.267899 0
M  V30 2178 O 207.073 -1.82847 0.458159 0
M  V30 2179 C 204.2 -3.16927 1.19478 0
M  V30 2180 C 203.246 -3.55221 2.36051 0
M  V30 2181 S 204.079 -3.5762 3.98583 0
M  V30 2182 C 205.235 -4.97315 3.80038 0
M  V30 2183 H 205.468 -1.81405 2.35541 0
M  V30 2184 H 203.001 -0.845221 1.29211 0
M  V30 2185 H 204.959 -3.96007 1.08114 0
M  V30 2186 H 203.62 -3.13031 0.258883 0
M  V30 2187 H 202.813 -4.54804 2.17185 0
M  V30 2188 H 202.415 -2.83502 2.43932 0
M  V30 2189 H 204.707 -5.85401 3.41045 0
M  V30 2190 H 205.65 -5.21228 4.79298 0
M  V30 2191 H 206.058 -4.69845 3.12899 0
M  V30 2192 N 205.456 -1.28612 -0.910864 0
M  V30 2193 C 206.696 -1.1719 -1.67469 0
M  V30 2194 C 207.06 0.274441 -1.90028 0
M  V30 2195 O 208.261 0.511425 -2.6389 0
M  V30 2196 C 206.532 -1.95137 -2.99427 0
M  V30 2197 S 208.091 -2.00122 -3.90508 0
M  V30 2198 H 204.909 -0.41806 -0.575106 0
M  V30 2199 H 207.511 -1.6275 -1.08317 0
M  V30 2200 H 206.215 -2.99381 -2.80712 0
M  V30 2201 H 205.746 -1.50137 -3.63624 0
M  V30 2202 H 207.761 -1.10981 -4.8363 0
M  V30 2203 N 206.934 1.1197 -1.10907 0
M  V30 2204 C 208.345 1.65114 -0.871446 0
M  V30 2205 C 208.696 1.86885 0.597353 0
M  V30 2206 O 207.821 1.59896 1.45816 0
M  V30 2207 C 208.416 2.99944 -1.5754 0
M  V30 2208 C 206.975 3.50018 -1.38435 0
M  V30 2209 C 206.122 2.24941 -1.62164 0
M  V30 2210 H 209.073 0.956851 -1.2661 0
M  V30 2211 H 209.094 3.66651 -1.01721 0
M  V30 2212 H 208.606 2.84067 -2.64438 0
M  V30 2213 H 206.707 3.71071 -0.337214 0
M  V30 2214 H 206.82 4.29165 -2.12965 0
M  V30 2215 H 205.184 2.3229 -1.04467 0
M  V30 2216 H 205.967 2.11612 -2.70324 0
M  V30 2217 N 208.412 0.89855 1.29475 0
M  V30 2218 C 209.344 0.332726 2.26772 0
M  V30 2219 C 210.357 -0.520323 1.54261 0
M  V30 2220 O 211.546 -0.337668 1.75277 0
M  V30 2221 C 208.646 -0.544334 3.345 0
M  V30 2222 C 207.819 0.282728 4.36485 0
M  V30 2223 C 206.878 -0.526982 5.23555 0
M  V30 2224 O 205.904 0.0551165 5.69173 0
M  V30 2225 N 207.106 -1.83331 5.5079 0
M  V30 2226 H 209.871 1.16897 2.75962 0
M  V30 2227 H 207.432 0.762919 1.42798 0
M  V30 2228 H 209.424 -1.09239 3.89678 0
M  V30 2229 H 207.994 -1.28127 2.85136 0
M  V30 2230 H 207.214 1.01221 3.80983 0
M  V30 2231 H 208.502 0.84918 5.01664 0
M  V30 2232 H 207.9 -2.32898 5.15534 0
M  V30 2233 H 206.457 -2.32852 6.08788 0
M  V30 2234 N 209.89 -1.43072 0.660911 0
M  V30 2235 C 210.8 -2.34585 -0.0264163 0
M  V30 2236 C 211.816 -1.54316 -0.803898 0
M  V30 2237 O 212.992 -1.86939 -0.749391 0
M  V30 2238 C 210.057 -3.32689 -0.975639 0
M  V30 2239 C 209.118 -4.2886 -0.194236 0
M  V30 2240 C 208.351 -5.22278 -1.09825 0
M  V30 2241 O 208.574 -5.20299 -2.33763 0
M  V30 2242 O 207.508 -5.99228 -0.566513 0
M  V30 2243 H 211.334 -2.94869 0.727034 0
M  V30 2244 H 208.919 -1.43342 0.42111 0
M  V30 2245 H 210.801 -3.92995 -1.52094 0
M  V30 2246 H 209.476 -2.74898 -1.70918 0
M  V30 2247 H 208.383 -3.72011 0.394835 0
M  V30 2248 H 209.716 -4.89655 0.499899 0
M  V30 2249 N 211.368 -0.403325 -1.52352 0
M  V30 2250 C 212.617 0.175668 -2.00934 0
M  V30 2251 C 212.93 1.46718 -1.29356 0
M  V30 2252 O 214.136 2.12708 -1.68724 0
M  V30 2253 C 212.592 0.363612 -3.58058 0
M  V30 2254 C 212.2 -0.915472 -4.38547 0
M  V30 2255 C 213.944 0.89821 -4.14888 0
M  V30 2256 C 211.851 -0.695035 -5.87302 0
M  V30 2257 H 210.781 0.0694234 -0.750797 0
M  V30 2258 H 213.432 -0.527879 -1.75743 0
M  V30 2259 H 211.814 1.12935 -3.79555 0
M  V30 2260 H 212.988 -1.68691 -4.28812 0
M  V30 2261 H 211.303 -1.37606 -3.93006 0
M  V30 2262 H 213.9 1.07907 -5.23699 0
M  V30 2263 H 214.243 1.87126 -3.71873 0
M  V30 2264 H 214.776 0.191681 -3.97338 0
M  V30 2265 H 211.515 -1.63948 -6.34666 0
M  V30 2266 H 211.035 0.0372116 -5.99788 0
M  V30 2267 H 212.714 -0.33497 -6.46132 0
M  V30 2268 N 212.846 1.57033 -0.133567 0
M  V30 2269 C 214.092 1.95976 0.521649 0
M  V30 2270 C 214.425 1.01779 1.65393 0
M  V30 2271 O 213.7 0.0576581 1.94415 0
M  V30 2272 C 213.983 3.44738 1.04057 0
M  V30 2273 C 213.836 4.49711 -0.0892897 0
M  V30 2274 C 215.155 3.95682 1.92675 0
M  V30 2275 H 212.274 0.712579 0.188149 0
M  V30 2276 H 214.916 1.88813 -0.212076 0
M  V30 2277 H 213.066 3.50973 1.66583 0
M  V30 2278 H 214.738 4.55565 -0.725152 0
M  V30 2279 H 212.981 4.27261 -0.750378 0
M  V30 2280 H 213.652 5.51099 0.315284 0
M  V30 2281 H 216.128 3.91841 1.39998 0
M  V30 2282 H 215.004 5.00262 2.25897 0
M  V30 2283 H 215.265 3.37239 2.85872 0
M  V30 2284 N 214.325 -0.140222 1.56975 0
M  V30 2285 C 215.602 -0.880769 1.74648 0
M  V30 2286 C 215.982 -1.99036 0.703404 0
M  V30 2287 O 215.33 -2.26821 -0.27648 0
M  V30 2288 C 215.54 -1.417 3.18939 0
M  V30 2289 C 216.888 -1.87774 3.80823 0
M  V30 2290 O 217.912 -1.51427 3.2241 0
M  V30 2291 O 216.771 -2.54827 4.83452 0
M  V30 2292 H 213.865 -0.416713 0.714338 0
M  V30 2293 H 216.411 -0.125618 1.69234 0
M  V30 2294 H 215.183 -0.619902 3.86359 0
M  V30 2295 H 214.806 -2.23546 3.28805 0
M  V30 2296 N 215.803 -1.52179 -0.40978 0
M  V30 2297 C 217.033 -1.69807 -1.17682 0
M  V30 2298 C 217.441 -0.406908 -1.84773 0
M  V30 2299 O 216.784 0.626863 -1.72673 0
M  V30 2300 C 216.846 -2.77712 -2.2829 0
M  V30 2301 C 216.51 -4.19481 -1.81341 0
M  V30 2302 C 217.507 -5.03345 -1.30154 0
M  V30 2303 C 215.192 -4.65713 -1.88194 0
M  V30 2304 C 217.186 -6.31511 -0.864416 0
M  V30 2305 C 214.873 -5.93869 -1.44093 0
M  V30 2306 C 215.871 -6.76597 -0.933023 0
M  V30 2307 O 215.559 -8.02354 -0.49838 0
M  V30 2308 H 215.291 -0.572372 -0.359675 0
M  V30 2309 H 217.845 -1.99511 -0.488311 0
M  V30 2310 H 216.075 -2.43383 -3.00502 0
M  V30 2311 H 217.764 -2.83946 -2.90051 0
M  V30 2312 H 218.53 -4.68819 -1.24232 0
M  V30 2313 H 214.409 -4.01424 -2.26671 0
M  V30 2314 H 217.953 -6.96033 -0.467286 0
M  V30 2315 H 213.85 -6.27903 -1.49694 0
M  V30 2316 H 214.618 -8.16135 -0.621747 0
M  V30 2317 N 217.281 0.66697 -1.42791 0
M  V30 2318 C 218.53 1.42278 -1.42968 0
M  V30 2319 C 218.843 1.9553 -0.0524489 0
M  V30 2320 O 220.049 2.71414 0.068363 0
M  V30 2321 C 218.505 2.57418 -2.51524 0
M  V30 2322 C 218.113 2.10832 -3.9529 0
M  V30 2323 C 219.857 3.34878 -2.60877 0
M  V30 2324 C 217.764 3.23101 -4.95338 0
M  V30 2325 H 216.694 0.534533 -0.531781 0
M  V30 2326 H 219.345 0.721302 -1.68729 0
M  V30 2327 H 217.727 3.29971 -2.18941 0
M  V30 2328 H 218.901 1.4538 -4.37266 0
M  V30 2329 H 217.216 1.46289 -3.89857 0
M  V30 2330 H 219.813 4.18505 -3.32802 0
M  V30 2331 H 220.156 3.81993 -1.6549 0
M  V30 2332 H 220.689 2.69398 -2.92693 0
M  V30 2333 H 217.428 2.80969 -5.9223 0
M  V30 2334 H 216.948 3.87309 -4.57987 0
M  V30 2335 H 218.627 3.88447 -5.17415 0
M  V30 2336 N 218.759 1.29093 0.90403 0
M  V30 2337 C 219.722 1.1386 1.98919 0
M  V30 2338 C 220.722 0.0753457 1.60623 0
M  V30 2339 O 221.912 0.321931 1.71199 0
M  V30 2340 C 219.044 0.740198 3.32767 0
M  V30 2341 H 220.237 2.10246 2.13861 0
M  V30 2342 H 217.79 1.12218 1.08797 0
M  V30 2343 H 218.525 -0.223997 3.23525 0
M  V30 2344 H 218.31 1.50838 3.61926 0
M  V30 2345 H 219.8 0.656546 4.12407 0
M  V30 2346 N 220.237 -1.11381 1.11499 0
M  V30 2347 C 221.514 -1.7955 0.775965 0
M  V30 2348 C 221.894 -1.97859 -0.73588 0
M  V30 2349 O 221.242 -1.56376 -1.66609 0
M  V30 2350 C 221.452 -3.13196 1.53977 0
M  V30 2351 C 222.8 -3.88227 1.71944 0
M  V30 2352 O 223.824 -3.22887 1.50407 0
M  V30 2353 O 222.683 -5.05477 2.07738 0
M  V30 2354 H 219.777 -0.777728 0.28119 0
M  V30 2355 H 222.323 -1.18118 1.21845 0
M  V30 2356 H 221.095 -2.95229 2.56818 0
M  V30 2357 H 220.718 -3.82342 1.09088 0
M  V30 2358 N 221.715 -0.905404 -1.28997 0
M  V30 2359 C 222.662 -0.385892 -2.27551 0
M  V30 2360 C 223.632 0.535113 -1.57244 0
M  V30 2361 O 224.817 0.459119 -1.85194 0
M  V30 2362 C 221.957 0.375461 -3.43051 0
M  V30 2363 C 221.07 -0.577092 -4.28128 0
M  V30 2364 C 220.205 0.201879 -5.30816 0
M  V30 2365 C 219.244 -0.744829 -6.07551 0
M  V30 2366 N 218.381 9.42587e-05 -7.021 0
M  V30 2367 H 223.221 -1.23139 -2.71368 0
M  V30 2368 H 220.758 -0.618542 -1.33463 0
M  V30 2369 H 222.716 0.832992 -4.088 0
M  V30 2370 H 221.346 1.18537 -3.00248 0
M  V30 2371 H 220.398 -1.15315 -3.62501 0
M  V30 2372 H 221.71 -1.30152 -4.8152 0
M  V30 2373 H 220.864 0.720351 -6.02408 0
M  V30 2374 H 219.603 0.959413 -4.7817 0
M  V30 2375 H 218.608 -1.27475 -5.34818 0
M  V30 2376 H 219.833 -1.50178 -6.62286 0
M  V30 2377 H 217.779 0.739791 -6.51815 0
M  V30 2378 H 217.696 -0.664321 -7.53076 0
M  V30 2379 H 218.964 0.498644 -7.77903 0
M  V30 2380 N 223.193 1.4272 -0.668489 0
M  V30 2381 C 224.14 2.30796 0.0137489 0
M  V30 2382 C 225.11 1.4561 0.799177 0
M  V30 2383 O 226.295 1.74453 0.772702 0
M  V30 2384 C 223.435 3.31377 0.963507 0
M  V30 2385 C 222.548 4.31655 0.172569 0
M  V30 2386 C 221.683 5.19312 1.1175 0
M  V30 2387 C 220.722 6.11274 0.317886 0
M  V30 2388 N 219.859 6.91504 1.2152 0
M  V30 2389 H 224.699 2.88585 -0.743161 0
M  V30 2390 H 222.236 1.42154 -0.378226 0
M  V30 2391 H 224.194 3.88214 1.52792 0
M  V30 2392 H 222.824 2.75202 1.68712 0
M  V30 2393 H 221.876 3.76988 -0.508374 0
M  V30 2394 H 223.188 4.96779 -0.448527 0
M  V30 2395 H 222.342 5.80851 1.75206 0
M  V30 2396 H 221.081 4.5435 1.77249 0
M  V30 2397 H 220.086 5.48809 -0.329918 0
M  V30 2398 H 221.311 6.78283 -0.332917 0
M  V30 2399 H 219.257 6.29176 1.85671 0
M  V30 2400 H 219.174 7.53209 0.649036 0
M  V30 2401 H 220.442 7.57535 1.83742 0
M  V30 2402 N 224.671 0.411399 1.52136 0
M  V30 2403 C 225.948 -0.222308 1.94333 0
M  V30 2404 C 226.328 -1.6242 1.34844 0
M  V30 2405 O 225.676 -2.22384 0.525145 0
M  V30 2406 C 225.886 -0.226345 3.48265 0
M  V30 2407 C 227.234 -0.444592 4.22266 0
M  V30 2408 O 228.258 -0.305602 3.54887 0
M  V30 2409 O 227.117 -0.718749 5.41753 0
M  V30 2410 H 224.211 -0.143907 0.814383 0
M  V30 2411 H 226.757 0.467506 1.63133 0
M  V30 2412 H 225.529 0.75475 3.83952 0
M  V30 2413 H 225.152 -0.960163 3.85832 0
M  V30 2414 N 226.149 -1.5696 0.141893 0
M  V30 2415 C 227.395 -1.9625 -0.511248 0
M  V30 2416 C 227.728 -1.02654 -1.64851 0
M  V30 2417 O 227.003 -0.0679676 -1.94381 0
M  V30 2418 C 227.286 -3.45285 -1.02227 0
M  V30 2419 C 227.139 -4.49658 0.113138 0
M  V30 2420 C 228.458 -3.96698 -1.90574 0
M  V30 2421 H 225.577 -0.713567 -0.184367 0
M  V30 2422 H 228.219 -1.88698 0.222087 0
M  V30 2423 H 226.369 -3.51852 -1.64719 0
M  V30 2424 H 228.041 -4.55174 0.749302 0
M  V30 2425 H 226.284 -4.26857 0.773026 0
M  V30 2426 H 226.955 -5.51258 -0.286053 0
M  V30 2427 H 229.431 -3.92578 -1.37918 0
M  V30 2428 H 228.307 -5.01453 -2.2324 0
M  V30 2429 H 228.568 -3.3875 -2.84079 0
M  V30 2430 N 227.627 0.131896 -1.57047 0
M  V30 2431 C 228.857 0.855219 -1.88068 0
M  V30 2432 C 229.265 1.74557 -0.729817 0
M  V30 2433 O 228.608 1.81083 0.308962 0
M  V30 2434 C 228.67 1.75119 -3.13964 0
M  V30 2435 C 228.334 1.03646 -4.45091 0
M  V30 2436 C 229.331 0.383276 -5.18485 0
M  V30 2437 C 227.016 1.02148 -4.91804 0
M  V30 2438 C 229.01 -0.275347 -6.36805 0
M  V30 2439 C 226.697 0.359047 -6.10044 0
M  V30 2440 C 227.695 -0.288222 -6.82392 0
M  V30 2441 O 227.383 -0.94011 -7.98384 0
M  V30 2442 H 227.115 0.251864 -0.627328 0
M  V30 2443 H 229.669 0.124782 -2.05021 0
M  V30 2444 H 227.899 2.52295 -2.9306 0
M  V30 2445 H 229.588 2.3478 -3.31109 0
M  V30 2446 H 230.354 0.386562 -4.83457 0
M  V30 2447 H 226.233 1.5147 -4.35405 0
M  V30 2448 H 229.777 -0.781148 -6.93213 0
M  V30 2449 H 225.674 0.35348 -6.44531 0
M  V30 2450 H 226.442 -0.84329 -8.14144 0
M  V30 2451 N 229.106 1.52395 0.401703 0
M  V30 2452 C 230.016 1.7917 1.51444 0
M  V30 2453 C 231.032 0.677691 1.6026 0
M  V30 2454 O 232.208 0.963909 1.76835 0
M  V30 2455 C 229.273 1.94347 2.87107 0
M  V30 2456 C 228.334 3.18257 2.88116 0
M  V30 2457 C 227.567 3.32701 4.17308 0
M  V30 2458 O 227.79 2.52238 5.11598 0
M  V30 2459 O 226.724 4.25891 4.25324 0
M  V30 2460 H 230.55 2.73633 1.31752 0
M  V30 2461 H 228.135 1.3733 0.588296 0
M  V30 2462 H 230.017 2.06109 3.67555 0
M  V30 2463 H 228.692 1.03073 3.06851 0
M  V30 2464 H 227.599 3.11947 2.06494 0
M  V30 2465 H 228.932 4.09336 2.73322 0
M  V30 2466 O 230.623 -0.547609 1.51933 0
M  V30 2467 H 231.314 -1.20275 1.51834 0
M  V30 END ATOM
M  V30 BEGIN BOND
M  V30 END BOND
M  V30 END CTAB
M  END
$$$$
