drugbank_target|O14521 Succinate dehydrogenase [ubiquinone] cytochrome b small subunit, mitochondrial (DB00756; DB04141; DB08689)
 OpenBabel12092120083D

  0  0  0     0  0            999 V3000
M  V30 BEGIN CTAB
M  V30 COUNTS 2422 2456 0 0 0
M  V30 BEGIN ATOM
M  V30 1 H -0.908 1.98254 -0.117106 0
M  V30 2 N 0 1.576 0 0
M  V30 3 C 0.933 2.03868 1.02534 0
M  V30 4 C 1.911 0.928543 1.3348 0
M  V30 5 O 3.095 1.19667 1.45644 0
M  V30 6 C 0.222 2.43627 2.35294 0
M  V30 7 C -0.732 3.65373 2.2001 0
M  V30 8 S 0.101 5.13292 1.52614 0
M  V30 9 C 1.257 5.56322 2.86805 0
M  V30 10 H 1.49 2.90518 0.631377 0
M  V30 11 H -0.977 1.52953 0.210867 0
M  V30 12 H 0.981 2.67203 3.11629 0
M  V30 13 H -0.358 1.57376 2.7183 0
M  V30 14 H -1.165 3.90944 3.18086 0
M  V30 15 H -1.563 3.418 1.51819 0
M  V30 16 H 0.729 5.58782 3.83104 0
M  V30 17 H 1.672 6.56266 2.65933 0
M  V30 18 H 2.08 4.83886 2.90714 0
M  V30 19 N 1.4781 -0.272755 1.55222 0
M  V30 20 C 2.4411 -1.32041 1.87344 0
M  V30 21 C 3.4411 -1.42342 0.74803 0
M  V30 22 O 4.6311 -1.41488 1.0162 0
M  V30 23 C 1.7631 -2.70173 2.07893 0
M  V30 24 H 2.9561 -1.04789 2.80997 0
M  V30 25 H 0.5091 -0.51083 1.47717 0
M  V30 26 H 1.2441 -3.02605 1.16622 0
M  V30 27 H 1.0291 -2.64082 2.89833 0
M  V30 28 H 2.5191 -3.45869 2.34017 0
M  V30 29 N 2.9562 -1.48159 -0.537278 0
M  V30 30 C 4.2022 -1.56035 -1.29541 0
M  V30 31 C 4.5352 -0.230377 -1.92829 0
M  V30 32 O 3.8102 0.762952 -1.78911 0
M  V30 33 C 4.0932 -2.69323 -2.39034 0
M  V30 34 C 3.9462 -4.12002 -1.80485 0
M  V30 35 C 5.2652 -2.78408 -3.40847 0
M  V30 36 H 2.3842 -0.567992 -0.469632 0
M  V30 37 H 5.0262 -1.80302 -0.599277 0
M  V30 38 H 3.1762 -2.48763 -2.98412 0
M  V30 39 H 4.8482 -4.43981 -1.25215 0
M  V30 40 H 3.0912 -4.19344 -1.11055 0
M  V30 41 H 3.7622 -4.87077 -2.59731 0
M  V30 42 H 6.2382 -2.97012 -2.91416 0
M  V30 43 H 5.1142 -3.59416 -4.14863 0
M  V30 44 H 5.3752 -1.86269 -4.00944 0
M  V30 45 N 4.4343 0.785586 -1.36625 0
M  V30 46 C 5.3643 1.91259 -1.33949 0
M  V30 47 C 6.3453 1.68795 -0.210325 0
M  V30 48 O 7.5303 1.89854 -0.408561 0
M  V30 49 C 4.6603 3.28339 -1.13186 0
M  V30 50 C 3.6143 3.65335 -2.22967 0
M  V30 51 C 2.9403 5.00806 -1.87342 0
M  V30 52 C 4.2403 3.7352 -3.65075 0
M  V30 53 H 5.9343 1.93755 -2.28253 0
M  V30 54 H 3.4803 0.930788 -1.09874 0
M  V30 55 H 5.4333 4.06804 -1.09948 0
M  V30 56 H 4.1573 3.2624 -0.153332 0
M  V30 57 H 2.8163 2.89169 -2.25337 0
M  V30 58 H 2.4643 4.95233 -0.880545 0
M  V30 59 H 2.1643 5.26529 -2.60846 0
M  V30 60 H 3.6883 5.81687 -1.85667 0
M  V30 61 H 5.1023 4.42168 -3.64911 0
M  V30 62 H 3.4993 4.10731 -4.37516 0
M  V30 63 H 4.5693 2.74527 -3.99703 0
M  V30 64 N 5.9124 1.20967 1.01018 0
M  V30 65 C 7.1584 1.0353 1.7508 0
M  V30 66 C 7.5134 -0.42734 1.87594 0
M  V30 67 O 6.8064 -1.31298 1.3954 0
M  V30 68 C 7.0004 1.65997 3.16512 0
M  V30 69 C 6.8294 3.18184 3.17788 0
M  V30 70 C 5.5994 3.87198 3.24662 0
M  V30 71 C 7.7974 4.15334 3.03319 0
M  V30 72 N 5.7794 5.26618 3.15509 0
M  V30 73 C 7.1504 5.41472 3.02007 0
M  V30 74 C 9.2054 4.06449 2.87583 0
M  V30 75 C 7.9084 6.5975 2.86571 0
M  V30 76 C 9.9344 5.24357 2.73503 0
M  V30 77 C 9.2964 6.49404 2.72862 0
M  V30 78 H 5.3954 0.433137 0.651089 0
M  V30 79 H 7.9794 1.5324 1.20107 0
M  V30 80 H 6.1504 1.18863 3.69765 0
M  V30 81 H 7.8824 1.41816 3.79039 0
M  V30 82 H 4.6374 3.38093 3.31648 0
M  V30 83 H 5.0614 5.99626 3.14289 0
M  V30 84 H 9.7034 3.10573 2.86887 0
M  V30 85 H 7.4214 7.55792 2.86015 0
M  V30 86 H 11.0074 5.19299 2.62334 0
M  V30 87 H 9.8874 7.39105 2.62093 0
M  V30 88 N 7.3905 -1.2043 1.01659 0
M  V30 89 C 8.8065 -1.41852 0.731442 0
M  V30 90 C 9.0065 -1.89358 -0.688898 0
M  V30 91 O 8.0625 -2.06247 -1.45666 0
M  V30 92 C 9.3755 -2.44019 1.75714 0
M  V30 93 C 10.9235 -2.57785 1.77527 0
M  V30 94 C 11.3985 -3.63194 2.79023 0
M  V30 95 N 12.8895 -3.70678 2.77763 0
M  V30 96 C 13.6245 -4.51897 3.52954 0
M  V30 97 N 13.1205 -5.36921 4.37821 0
M  V30 98 N 14.9135 -4.4643 3.41551 0
M  V30 99 H 7.0645 -0.879093 1.93354 0
M  V30 100 H 9.3275 -0.448425 0.835236 0
M  V30 101 H 9.0335 -2.1611 2.77469 0
M  V30 102 H 8.9075 -3.43007 1.56927 0
M  V30 103 H 11.2945 -2.85023 0.764569 0
M  V30 104 H 11.3755 -1.58992 2.00387 0
M  V30 105 H 11.0195 -3.36699 3.80258 0
M  V30 106 H 10.9495 -4.61609 2.53425 0
M  V30 107 H 13.4405 -3.09944 2.16201 0
M  V30 108 H 13.7535 -5.95981 4.91962 0
M  V30 109 H 12.0985 -5.36424 4.41899 0
M  V30 110 H 15.2895 -3.79042 2.74672 0
M  V30 111 H 15.4625 -5.09491 4.00404 0
M  V30 112 N 8.8686 -0.792821 -1.36206 0
M  V30 113 C 9.7986 -0.207853 -2.32573 0
M  V30 114 C 10.7796 0.659055 -1.56813 0
M  V30 115 O 11.9646 0.592176 -1.84951 0
M  V30 116 C 9.0946 0.655449 -3.41059 0
M  V30 117 C 8.0486 -0.111842 -4.27854 0
M  V30 118 C 7.3746 0.872274 -5.27537 0
M  V30 119 C 8.6746 -1.30299 -5.05786 0
M  V30 120 H 10.3686 -1.01294 -2.81744 0
M  V30 121 H 7.9146 -0.48854 -1.3546 0
M  V30 122 H 9.8676 1.07464 -4.07467 0
M  V30 123 H 8.5916 1.49328 -2.90463 0
M  V30 124 H 7.2506 -0.512053 -3.63006 0
M  V30 125 H 6.8986 1.70523 -4.73214 0
M  V30 126 H 6.5986 0.363291 -5.86476 0
M  V30 127 H 8.1226 1.28996 -5.96818 0
M  V30 128 H 9.5366 -0.959379 -5.65216 0
M  V30 129 H 7.9336 -1.7455 -5.74154 0
M  V30 130 H 9.0036 -2.09663 -4.37229 0
M  V30 131 N 10.3467 1.47872 -0.545128 0
M  V30 132 C 11.5717 2.07391 -0.0190611 0
M  V30 133 C 11.9967 1.39688 1.25971 0
M  V30 134 O 11.3547 0.467816 1.7516 0
M  V30 135 C 11.4027 3.60188 0.172335 0
M  V30 136 O 10.5067 3.9339 1.23766 0
M  V30 137 H 9.8477 0.662411 -0.0459059 0
M  V30 138 H 12.3777 1.90066 -0.757365 0
M  V30 139 H 12.3877 4.06129 0.390305 0
M  V30 140 H 11.0627 4.08865 -0.761725 0
M  V30 141 H 9.6397 3.5921 1.00114 0
M  V30 142 N 11.8248 0.280983 1.55075 0
M  V30 143 C 12.7878 -0.590896 2.21452 0
M  V30 144 C 13.7878 -1.07682 1.19421 0
M  V30 145 O 14.9778 -0.97605 1.44288 0
M  V30 146 C 12.1098 -1.81587 2.88511 0
M  V30 147 H 13.3028 -0.0112554 2.99898 0
M  V30 148 H 10.8558 0.0316438 1.56268 0
M  V30 149 H 11.5908 -2.43587 2.14093 0
M  V30 150 H 11.3758 -1.4753 3.63287 0
M  V30 151 H 12.8658 -2.43575 3.39206 0
M  V30 152 N 13.3029 -1.57598 0.00835791 0
M  V30 153 C 14.5489 -1.91211 -0.675732 0
M  V30 154 C 14.8819 -0.883139 -1.72958 0
M  V30 155 O 14.1569 0.097016 -1.94258 0
M  V30 156 C 14.4399 -3.35379 -1.31123 0
M  V30 157 C 14.2929 -4.48999 -0.268356 0
M  V30 158 C 15.6119 -3.7912 -2.23508 0
M  V30 159 H 12.7309 -0.695374 -0.244179 0
M  V30 160 H 15.3729 -1.89901 0.0613655 0
M  V30 161 H 13.5229 -3.36626 -1.93946 0
M  V30 162 H 15.1949 -4.59887 0.360844 0
M  V30 163 H 13.4379 -4.31873 0.408482 0
M  V30 164 H 14.1089 -5.46851 -0.752218 0
M  V30 165 H 16.5849 -3.79477 -1.70693 0
M  V30 166 H 15.4609 -4.80729 -2.64936 0
M  V30 167 H 15.7219 -3.13455 -3.11766 0
M  V30 168 N 14.781 0.264519 -1.55364 0
M  V30 169 C 16.021 1.00254 -1.78125 0
M  V30 170 C 16.385 1.83187 -0.575017 0
M  V30 171 O 17.586 2.60029 -0.681042 0
M  V30 172 C 15.857 1.85478 -3.05504 0
M  V30 173 S 17.416 2.6543 -3.49417 0
M  V30 174 H 14.234 0.337522 -0.625779 0
M  V30 175 H 16.836 0.272111 -1.93597 0
M  V30 176 H 15.54 1.23491 -3.9138 0
M  V30 177 H 15.071 2.62827 -2.92721 0
M  V30 178 H 17.086 3.87958 -3.09359 0
M  V30 179 N 16.2591 1.48442 0.529413 0
M  V30 180 C 17.5071 1.56179 1.28267 0
M  V30 181 C 17.8281 0.237721 1.93546 0
M  V30 182 O 17.0981 -0.740779 1.81354 0
M  V30 183 H 15.6781 0.575367 0.476405 0
M  V30 184 H 18.3401 1.84909 0.61602 0
M  V30 185 H 17.4361 2.34312 2.06165 0
M  V30 186 N 17.7372 -0.778329 1.37039 0
M  V30 187 C 18.7002 -1.87301 1.32102 0
M  V30 188 C 19.7002 -1.59198 0.226405 0
M  V30 189 O 20.8902 -1.67403 0.481861 0
M  V30 190 C 18.0222 -3.24309 1.05055 0
M  V30 191 H 19.2152 -1.93093 2.29467 0
M  V30 192 H 16.7682 -0.977358 1.21973 0
M  V30 193 H 17.5032 -3.24196 0.0819373 0
M  V30 194 H 17.2882 -3.46098 1.84279 0
M  V30 195 H 18.7782 -4.04382 1.04234 0
M  V30 196 N 19.2153 -1.21501 -1.00376 0
M  V30 197 C 20.1453 -0.999478 -2.11028 0
M  V30 198 C 21.1263 0.0759671 -1.6993 0
M  V30 199 O 22.3113 -0.0841106 -1.94018 0
M  V30 200 C 19.4413 -0.564709 -3.42678 0
M  V30 201 C 18.3953 -1.58486 -3.97576 0
M  V30 202 C 17.7213 -1.00628 -5.25146 0
M  V30 203 C 19.0213 -2.97204 -4.29496 0
M  V30 204 H 20.7153 -1.92495 -2.29317 0
M  V30 205 H 18.2613 -0.92693 -1.102 0
M  V30 206 H 20.2143 -0.401091 -4.19487 0
M  V30 207 H 18.9383 0.396411 -3.24185 0
M  V30 208 H 17.5973 -1.73606 -3.22888 0
M  V30 209 H 17.2453 -0.0368439 -5.02987 0
M  V30 210 H 16.9453 -1.68771 -5.62841 0
M  V30 211 H 18.4693 -0.854015 -6.04598 0
M  V30 212 H 19.8833 -2.8552 -4.97143 0
M  V30 213 H 18.2803 -3.62372 -4.78338 0
M  V30 214 H 19.3503 -3.47956 -3.3772 0
M  V30 215 N 20.6934 1.19889 -1.02296 0
M  V30 216 C 21.9414 1.89046 -0.714558 0
M  V30 217 C 22.2624 1.79636 0.758681 0
M  V30 218 O 21.5324 1.20292 1.54618 0
M  V30 219 H 20.1124 0.699802 -0.261317 0
M  V30 220 H 22.7744 1.45574 -1.29592 0
M  V30 221 H 21.8704 2.95524 -1.0036 0
M  V30 222 N 22.1715 0.800033 1.35784 0
M  V30 223 C 23.4195 0.376597 1.9856 0
M  V30 224 C 23.7405 -1.05812 1.63795 0
M  V30 225 O 23.0105 -1.73103 0.917171 0
M  V30 226 H 21.5905 0.136261 0.734467 0
M  V30 227 H 24.2525 1.02442 1.65806 0
M  V30 228 H 23.3485 0.477002 3.08433 0
M  V30 229 N 23.6496 -1.47581 0.552962 0
M  V30 230 C 25.0656 -1.5818 0.212424 0
M  V30 231 C 25.2656 -1.55213 -1.28496 0
M  V30 232 O 24.3216 -1.45329 -2.06484 0
M  V30 233 C 25.6346 -2.88865 0.835318 0
M  V30 234 C 27.1826 -3.0244 0.806156 0
M  V30 235 C 27.6576 -4.35819 1.40804 0
M  V30 236 N 29.1486 -4.42444 1.37103 0
M  V30 237 C 29.8836 -5.44202 1.80641 0
M  V30 238 N 29.3796 -6.52795 2.32015 0
M  V30 239 N 31.1726 -5.35222 1.71738 0
M  V30 240 H 23.3236 -1.47753 1.52587 0
M  V30 241 H 25.5866 -0.702941 0.636064 0
M  V30 242 H 25.2926 -2.9676 1.88749 0
M  V30 243 H 25.1666 -3.7579 0.325848 0
M  V30 244 H 27.5536 -2.94144 -0.237317 0
M  V30 245 H 27.6346 -2.17068 1.35334 0
M  V30 246 H 27.2786 -4.44871 2.45056 0
M  V30 247 H 27.2086 -5.19916 0.836338 0
M  V30 248 H 29.6996 -3.6456 0.995202 0
M  V30 249 H 30.0126 -7.26609 2.63171 0
M  V30 250 H 28.3576 -6.53696 2.36023 0
M  V30 251 H 31.5486 -4.49284 1.31382 0
M  V30 252 H 31.7216 -6.14389 2.05987 0
M  V30 253 N 25.1277 -0.289203 -1.54924 0
M  V30 254 C 26.0907 0.579144 -2.21762 0
M  V30 255 C 27.0907 1.07047 -1.1999 0
M  V30 256 O 28.2807 0.968384 -1.44803 0
M  V30 257 C 25.4127 1.80055 -2.8947 0
M  V30 258 H 26.6057 -0.00464908 -2.999 0
M  V30 259 H 24.1587 -0.0399306 -1.56249 0
M  V30 260 H 24.8937 2.42449 -2.15381 0
M  V30 261 H 24.6787 1.45602 -3.64064 0
M  V30 262 H 26.1687 2.41773 -3.40493 0
M  V30 263 N 26.6058 1.57591 -0.0167156 0
M  V30 264 C 27.5358 2.12496 0.967858 0
M  V30 265 C 28.5168 1.03807 1.34752 0
M  V30 266 O 29.7018 1.31577 1.42833 0
M  V30 267 C 26.8318 2.64194 2.25431 0
M  V30 268 C 25.7858 3.77559 2.01576 0
M  V30 269 C 25.1118 4.15636 3.36379 0
M  V30 270 C 26.4118 5.04151 1.36489 0
M  V30 271 H 28.1058 2.95013 0.510643 0
M  V30 272 H 25.6518 1.41915 0.244181 0
M  V30 273 H 27.6048 3.01236 2.94678 0
M  V30 274 H 26.3288 1.78821 2.73296 0
M  V30 275 H 24.9878 3.40937 1.34751 0
M  V30 276 H 24.6358 3.27263 3.81979 0
M  V30 277 H 24.3358 4.92022 3.21229 0
M  V30 278 H 25.8598 4.5525 4.06915 0
M  V30 279 H 27.2738 5.38857 1.95718 0
M  V30 280 H 25.6708 5.85453 1.31776 0
M  V30 281 H 26.7408 4.83733 0.336219 0
M  V30 282 N 28.0839 -0.256276 1.55502 0
M  V30 283 C 29.0139 -1.32102 1.92539 0
M  V30 284 C 29.9949 -1.50684 0.789194 0
M  V30 285 O 31.1799 -1.63449 1.04872 0
M  V30 286 C 28.3099 -2.67752 2.21192 0
M  V30 287 C 27.2639 -2.63878 3.36975 0
M  V30 288 C 26.5899 -4.03236 3.51147 0
M  V30 289 C 27.8899 -2.21682 4.72921 0
M  V30 290 H 29.5839 -1.01351 2.81724 0
M  V30 291 H 27.1299 -0.486105 1.35547 0
M  V30 292 H 29.0829 -3.42365 2.45691 0
M  V30 293 H 27.8069 -3.0012 1.28824 0
M  V30 294 H 26.4659 -1.91722 3.12471 0
M  V30 295 H 26.1139 -4.32854 2.56216 0
M  V30 296 H 25.8139 -4.01535 4.29003 0
M  V30 297 H 27.3379 -4.79563 3.77957 0
M  V30 298 H 28.7519 -2.86023 4.96854 0
M  V30 299 H 27.1489 -2.3111 5.53812 0
M  V30 300 H 28.2189 -1.16833 4.70615 0
M  V30 301 N 29.562 -1.4872 -0.521534 0
M  V30 302 C 30.492 -1.66771 -1.63431 0
M  V30 303 C 31.473 -0.516499 -1.62069 0
M  V30 304 O 32.658 -0.750013 -1.79132 0
M  V30 305 C 29.788 -1.71515 -3.01993 0
M  V30 306 C 28.742 -2.86222 -3.18216 0
M  V30 307 C 28.068 -2.76061 -4.57924 0
M  V30 308 C 29.368 -4.27419 -3.00184 0
M  V30 309 H 31.062 -2.59932 -1.48579 0
M  V30 310 H 28.608 -1.25089 -0.713358 0
M  V30 311 H 30.561 -1.82731 -3.7972 0
M  V30 312 H 29.285 -0.749393 -3.17886 0
M  V30 313 H 27.944 -2.74575 -2.42908 0
M  V30 314 H 27.592 -1.77437 -4.70665 0
M  V30 315 H 27.292 -3.53037 -4.69722 0
M  V30 316 H 28.816 -2.89256 -5.37739 0
M  V30 317 H 30.23 -4.39855 -3.67697 0
M  V30 318 H 28.627 -5.05458 -3.2347 0
M  V30 319 H 29.697 -4.43293 -1.96518 0
M  V30 320 N 31.0401 0.771051 -1.3745 0
M  V30 321 C 32.4561 1.07171 -1.18265 0
M  V30 322 C 32.6561 2.01491 -0.019287 0
M  V30 323 O 31.7121 2.44244 0.640408 0
M  V30 324 C 33.0251 1.66854 -2.50161 0
M  V30 325 C 34.5731 1.79109 -2.56689 0
M  V30 326 C 35.0481 2.42205 -3.88717 0
M  V30 327 N 36.5391 2.49655 -3.90162 0
M  V30 328 C 37.2741 2.9933 -4.8907 0
M  V30 329 N 36.7701 3.49172 -5.98374 0
M  V30 330 N 38.5631 2.9821 -4.76474 0
M  V30 331 H 30.7141 0.144796 -2.11906 0
M  V30 332 H 32.9771 0.126863 -0.939473 0
M  V30 333 H 32.6831 1.05017 -3.35655 0
M  V30 334 H 32.5571 2.6614 -2.673 0
M  V30 335 H 34.9441 2.40077 -1.71601 0
M  V30 336 H 35.0251 0.785757 -2.43433 0
M  V30 337 H 34.6691 1.81875 -4.74219 0
M  V30 338 H 34.5991 3.43345 -3.99276 0
M  V30 339 H 37.0901 2.14383 -3.11205 0
M  V30 340 H 37.4031 3.8548 -6.69795 0
M  V30 341 H 35.7481 3.47275 -6.02018 0
M  V30 342 H 38.9391 2.58572 -3.90203 0
M  V30 343 H 39.1121 3.36613 -5.53711 0
M  V30 344 N 32.5182 1.22032 0.997298 0
M  V30 345 C 33.7462 1.06841 1.7718 0
M  V30 346 C 34.1612 -0.381325 1.84909 0
M  V30 347 O 33.5182 -1.26437 1.31605 0
M  V30 348 C 33.5692 1.66814 3.20711 0
M  V30 349 O 33.2902 3.06116 3.13408 0
M  V30 350 C 34.7912 1.56838 4.14628 0
M  V30 351 H 32.0112 0.374782 0.556578 0
M  V30 352 H 34.5552 1.61532 1.2541 0
M  V30 353 H 32.7102 1.16196 3.69564 0
M  V30 354 H 33.1242 3.34926 4.0364 0
M  V30 355 H 34.5982 2.03532 5.13107 0
M  V30 356 H 35.0752 0.524155 4.36061 0
M  V30 357 H 35.6812 2.06741 3.7167 0
M  V30 358 N 33.9963 -1.19345 1.0293 0
M  V30 359 C 35.4073 -1.70725 0.755633 0
M  V30 360 C 35.7583 -1.82326 -0.724676 0
M  V30 361 O 34.8833 -1.49471 -1.56484 0
M  V30 362 C 35.4783 -3.10084 1.36503 0
M  V30 363 C 34.0373 -3.58723 1.13994 0
M  V30 364 C 33.1843 -2.35577 1.46283 0
M  V30 365 H 36.1353 -1.0418 1.19718 0
M  V30 366 H 36.1563 -3.72787 0.762217 0
M  V30 367 H 35.6683 -3.01609 2.44241 0
M  V30 368 H 33.7693 -3.72512 0.0807901 0
M  V30 369 H 33.8823 -4.42816 1.82894 0
M  V30 370 H 32.2463 -2.38935 0.88217 0
M  V30 371 H 33.0293 -2.29731 2.55105 0
M  V30 372 N 35.4744 -0.807222 -1.35358 0
M  V30 373 C 36.7204 -0.388463 -1.99045 0
M  V30 374 C 37.0534 1.04184 -1.63888 0
M  V30 375 O 36.3284 1.72292 -0.902535 0
M  V30 376 C 36.6114 -0.572783 -3.55515 0
M  V30 377 C 36.4644 -2.04807 -4.00468 0
M  V30 378 C 37.7834 0.00114064 -4.401 0
M  V30 379 H 34.9024 -0.142619 -0.723069 0
M  V30 380 H 37.5444 -1.01687 -1.60498 0
M  V30 381 H 35.6944 -0.0378425 -3.88482 0
M  V30 382 H 37.3664 -2.64544 -3.77908 0
M  V30 383 H 35.6094 -2.54427 -3.51353 0
M  V30 384 H 36.2804 -2.12792 -5.09337 0
M  V30 385 H 38.7564 -0.455716 -4.13597 0
M  V30 386 H 37.6324 -0.157737 -5.48673 0
M  V30 387 H 37.8934 1.09488 -4.28328 0
M  V30 388 N 36.9525 1.47285 -0.560781 0
M  V30 389 C 38.1985 2.02764 -0.0381184 0
M  V30 390 C 38.5315 1.43384 1.30976 0
M  V30 391 O 37.8065 0.590733 1.85312 0
M  V30 392 C 38.0895 3.60064 0.0511427 0
M  V30 393 C 37.9425 4.2987 -1.32408 0
M  V30 394 C 39.2615 4.33439 0.762795 0
M  V30 395 H 36.3805 0.736841 -0.0153264 0
M  V30 396 H 39.0225 1.75675 -0.723759 0
M  V30 397 H 37.1725 3.83274 0.635065 0
M  V30 398 H 38.8445 4.17989 -1.95148 0
M  V30 399 H 37.0875 3.90085 -1.8978 0
M  V30 400 H 37.7585 5.38478 -1.21431 0
M  V30 401 H 40.2345 4.15243 0.266965 0
M  V30 402 H 39.1105 5.43124 0.794221 0
M  V30 403 H 39.3715 4.02915 1.81966 0
M  V30 404 N 38.4306 0.297415 1.54768 0
M  V30 405 C 39.8466 -0.0560823 1.59501 0
M  V30 406 C 40.0466 -1.52725 1.31444 0
M  V30 407 O 39.1026 -2.27947 1.08611 0
M  V30 408 C 40.4156 0.338631 2.98787 0
M  V30 409 C 41.9636 0.287097 3.11681 0
M  V30 410 C 42.4386 0.656579 4.53269 0
M  V30 411 N 43.9296 0.608977 4.59179 0
M  V30 412 C 44.6646 0.867385 5.66802 0
M  V30 413 N 44.1606 1.19157 6.82476 0
M  V30 414 N 45.9536 0.794687 5.56454 0
M  V30 415 H 38.1046 1.25624 1.71267 0
M  V30 416 H 40.3676 0.509057 0.799728 0
M  V30 417 H 40.0736 1.36263 3.2423 0
M  V30 418 H 39.9476 -0.309508 3.75928 0
M  V30 419 H 42.3346 -0.727649 2.85988 0
M  V30 420 H 42.4156 0.969809 2.36703 0
M  V30 421 H 42.0596 1.66912 4.7969 0
M  V30 422 H 41.9896 -0.0481649 5.26578 0
M  V30 423 H 44.4806 0.369198 3.76092 0
M  V30 424 H 44.7936 1.37482 7.60473 0
M  V30 425 H 43.1386 1.22958 6.84037 0
M  V30 426 H 46.3296 0.541098 4.64962 0
M  V30 427 H 46.5026 0.999445 6.40246 0
M  V30 428 N 39.9087 -1.5758 0.0250728 0
M  V30 429 C 41.3197 -1.79476 -0.514323 0
M  V30 430 C 41.6707 -0.934956 -1.72491 0
M  V30 431 O 40.7957 -0.144245 -2.15919 0
M  V30 432 C 41.3907 -3.25503 -0.939842 0
M  V30 433 C 39.9497 -3.48408 -1.42438 0
M  V30 434 C 39.0967 -2.74583 -0.387201 0
M  V30 435 H 42.0477 -1.567 0.25113 0
M  V30 436 H 42.0687 -3.34992 -1.80445 0
M  V30 437 H 41.5807 -3.88056 -0.0585628 0
M  V30 438 H 39.6817 -2.91103 -2.32572 0
M  V30 439 H 39.7947 -4.57119 -1.43455 0
M  V30 440 H 38.1587 -2.39942 -0.854409 0
M  V30 441 H 38.9417 -3.39849 0.485543 0
M  V30 442 N 41.3868 0.248026 -1.55636 0
M  V30 443 C 42.3498 1.29044 -1.89421 0
M  V30 444 C 43.3498 1.41134 -0.770581 0
M  V30 445 O 44.5398 1.39854 -1.03858 0
M  V30 446 C 41.6718 2.66831 -2.12165 0
M  V30 447 H 42.8648 1.00305 -2.82629 0
M  V30 448 H 40.4178 0.487265 -1.48511 0
M  V30 449 H 41.1528 3.00711 -1.21422 0
M  V30 450 H 40.9378 2.59438 -2.93997 0
M  V30 451 H 42.4278 3.42103 -2.3949 0
M  V30 452 N 42.8649 1.48995 0.513639 0
M  V30 453 C 43.8149 1.61127 1.61314 0
M  V30 454 C 44.7989 0.467521 1.53958 0
M  V30 455 O 45.9909 0.719826 1.61702 0
M  V30 456 C 43.1199 1.66937 2.99978 0
M  V30 457 C 42.2059 2.86847 3.12377 0
M  V30 458 N 42.5969 4.11078 2.94701 0
M  V30 459 C 40.8949 2.84521 3.43459 0
M  V30 460 C 41.5959 4.91615 3.10949 0
M  V30 461 N 40.5719 4.24739 3.3926 0
M  V30 462 H 44.3739 2.54909 1.46282 0
M  V30 463 H 41.8879 1.45593 0.719483 0
M  V30 464 H 43.8849 1.73725 3.78979 0
M  V30 465 H 42.5449 0.742831 3.16089 0
M  V30 466 H 43.5559 4.41258 2.71131 0
M  V30 467 H 40.2329 2.01192 3.65825 0
M  V30 468 H 41.6229 6.00264 3.01882 0
M  V30 469 N 44.343 -0.763751 1.37857 0
M  V30 470 C 45.592 -1.51789 1.32827 0
M  V30 471 C 45.905 -1.95426 -0.0823719 0
M  V30 472 O 47.111 -2.70298 -0.255172 0
M  V30 473 C 45.567 -2.74133 2.33193 0
M  V30 474 C 45.175 -2.37562 3.79827 0
M  V30 475 C 46.919 -3.52054 2.37188 0
M  V30 476 C 44.826 -3.56456 4.71904 0
M  V30 477 H 43.756 -0.569896 0.493695 0
M  V30 478 H 46.407 -0.835822 1.63359 0
M  V30 479 H 44.789 -3.4427 1.9569 0
M  V30 480 H 45.963 -1.75157 4.26212 0
M  V30 481 H 44.278 -1.72798 3.78853 0
M  V30 482 H 46.875 -4.40437 3.03182 0
M  V30 483 H 47.218 -3.92486 1.38782 0
M  V30 484 H 47.751 -2.88921 2.7344 0
M  V30 485 H 44.49 -3.21099 5.71468 0
M  V30 486 H 44.01 -4.17938 4.30218 0
M  V30 487 H 45.689 -4.23168 4.89426 0
M  V30 488 N 45.8211 -1.22559 -0.990812 0
M  V30 489 C 47.0461 -1.07862 -1.77145 0
M  V30 490 C 47.4711 0.366447 -1.84496 0
M  V30 491 O 46.8291 1.26478 -1.29896 0
M  V30 492 C 46.8771 -1.69686 -3.18181 0
M  V30 493 O 45.9811 -0.951946 -4.01263 0
M  V30 494 H 45.3221 -0.378712 -0.545411 0
M  V30 495 H 47.8521 -1.62399 -1.2445 0
M  V30 496 H 47.8621 -1.74496 -3.68802 0
M  V30 497 H 46.5371 -2.74841 -3.12146 0
M  V30 498 H 45.1141 -0.980011 -3.59792 0
M  V30 499 N 47.2992 1.18797 -1.03562 0
M  V30 500 C 48.2622 2.20464 -0.626769 0
M  V30 501 C 49.2622 1.57721 0.313173 0
M  V30 502 O 50.4522 1.73917 0.0992615 0
M  V30 503 C 47.5842 3.40802 0.0818498 0
M  V30 504 H 48.7772 2.58149 -1.5264 0
M  V30 505 H 46.3302 1.32593 -0.827578 0
M  V30 506 H 47.0652 3.08642 0.995518 0
M  V30 507 H 46.8502 3.8758 -0.593652 0
M  V30 508 H 48.3402 4.16092 0.354584 0
M  V30 509 N 48.7773 0.814389 1.34928 0
M  V30 510 C 50.0243 0.398423 1.98542 0
M  V30 511 C 50.3523 -1.03638 1.64589 0
M  V30 512 O 49.6073 -1.73509 0.90516 0
M  V30 513 C 49.9063 0.537781 3.53331 0
M  V30 514 C 49.5723 1.93704 4.07172 0
M  V30 515 C 48.2343 2.31984 4.21589 0
M  V30 516 C 50.5863 2.85213 4.36237 0
M  V30 517 C 47.9143 3.61125 4.62391 0
M  V30 518 C 50.2663 4.13809 4.78482 0
M  V30 519 C 48.9303 4.52077 4.91104 0
M  V30 520 H 48.2003 0.145793 0.726516 0
M  V30 521 H 50.8473 1.03669 1.61012 0
M  V30 522 H 49.1523 -0.183906 3.91368 0
M  V30 523 H 50.8493 0.196588 4.00518 0
M  V30 524 H 47.4393 1.62966 3.96409 0
M  V30 525 H 51.6233 2.56885 4.24645 0
M  V30 526 H 46.8793 3.90612 4.70353 0
M  V30 527 H 51.0533 4.84811 4.99932 0
M  V30 528 H 48.6803 5.52196 5.22478 0
M  V30 529 N 50.2554 -1.46986 0.568584 0
M  V30 530 C 51.1854 -2.32946 -0.160753 0
M  V30 531 C 52.1664 -1.44487 -0.897631 0
M  V30 532 O 53.3514 -1.73327 -0.875867 0
M  V30 533 C 50.4814 -3.26494 -1.18403 0
M  V30 534 C 49.4354 -4.24282 -0.562895 0
M  V30 535 C 48.7614 -5.07236 -1.69163 0
M  V30 536 C 50.0614 -5.19989 0.490761 0
M  V30 537 H 51.7554 -2.94175 0.556916 0
M  V30 538 H 49.3014 -1.4146 0.26927 0
M  V30 539 H 51.2544 -3.85477 -1.70251 0
M  V30 540 H 49.9784 -2.63343 -1.93179 0
M  V30 541 H 48.6374 -3.66541 -0.0656164 0
M  V30 542 H 48.2854 -4.4048 -2.42871 0
M  V30 543 H 47.9854 -5.7345 -1.28174 0
M  V30 544 H 49.5094 -5.6908 -2.21314 0
M  V30 545 H 50.9234 -5.73271 0.0579047 0
M  V30 546 H 49.3204 -5.94469 0.820165 0
M  V30 547 H 50.3904 -4.64777 1.3824 0
M  V30 548 N 51.7335 -0.305618 -1.54608 0
M  V30 549 C 52.6655 0.602161 -2.21149 0
M  V30 550 C 53.6785 1.09394 -1.20569 0
M  V30 551 O 54.8675 1.0106 -1.47136 0
M  V30 552 C 51.9675 1.83692 -2.84799 0
M  V30 553 C 51.1405 1.48686 -4.11353 0
M  V30 554 C 50.1995 2.57725 -4.58764 0
M  V30 555 O 49.2255 2.22623 -5.23858 0
M  V30 556 N 50.4275 3.88346 -4.31471 0
M  V30 557 H 53.1925 0.0324966 -2.99682 0
M  V30 558 H 50.7535 -0.128021 -1.61393 0
M  V30 559 H 52.7455 2.55994 -3.13448 0
M  V30 560 H 51.3155 2.31486 -2.10078 0
M  V30 561 H 50.5355 0.596269 -3.89664 0
M  V30 562 H 51.8235 1.22842 -4.93748 0
M  V30 563 H 51.2215 4.19671 -3.79331 0
M  V30 564 H 49.7785 4.56932 -4.64818 0
M  V30 565 N 53.2116 1.57565 -0.0334293 0
M  V30 566 C 54.4886 1.83282 0.683163 0
M  V30 567 C 54.8686 0.91823 1.90084 0
M  V30 568 O 54.2166 -0.025113 2.28486 0
M  V30 569 C 54.4266 3.32599 1.0573 0
M  V30 570 C 55.7746 3.99179 1.44711 0
M  V30 571 O 56.7986 3.3712 1.15015 0
M  V30 572 O 55.6576 5.08565 2.0006 0
M  V30 573 H 52.7516 0.755869 0.335546 0
M  V30 574 H 55.2976 1.69589 -0.0614402 0
M  V30 575 H 54.0696 3.90834 0.190828 0
M  V30 576 H 53.6926 3.51415 1.85993 0
M  V30 577 N 54.6897 -0.239769 1.55765 0
M  V30 578 C 56.1057 -0.588624 1.48349 0
M  V30 579 C 56.3057 -1.88005 0.72502 0
M  V30 580 O 55.3617 -2.51186 0.257269 0
M  V30 581 C 56.6747 -0.68474 2.928 0
M  V30 582 C 58.2227 -0.77659 3.03213 0
M  V30 583 C 58.6977 -0.904207 4.48986 0
M  V30 584 N 60.1887 -0.968896 4.52953 0
M  V30 585 C 60.9237 -1.08703 5.63002 0
M  V30 586 N 60.4197 -1.17026 6.82845 0
M  V30 587 N 62.2127 -1.12074 5.50814 0
M  V30 588 H 54.3637 0.607911 2.03515 0
M  V30 589 H 56.6267 0.21083 0.924259 0
M  V30 590 H 56.3327 0.194284 3.51163 0
M  V30 591 H 56.2067 -1.55435 3.43686 0
M  V30 592 H 58.5937 -1.64606 2.44926 0
M  V30 593 H 58.6747 0.118315 2.55526 0
M  V30 594 H 58.3187 -0.0392633 5.07885 0
M  V30 595 H 58.2487 -1.81426 4.9436 0
M  V30 596 H 60.7397 -0.915633 3.6664 0
M  V30 597 H 61.0527 -1.25966 7.62465 0
M  V30 598 H 59.3977 -1.13971 6.85591 0
M  V30 599 H 62.5887 -1.05226 4.5612 0
M  V30 600 H 62.7617 -1.20936 6.36615 0
M  V30 601 N 56.1678 -1.49265 -0.50573 0
M  V30 602 C 57.5788 -1.51769 -1.08734 0
M  V30 603 C 57.9298 -0.301192 -1.93874 0
M  V30 604 O 57.0548 0.589456 -2.08217 0
M  V30 605 C 57.6498 -2.75017 -1.97867 0
M  V30 606 C 56.2088 -2.80314 -2.51199 0
M  V30 607 C 55.3558 -2.4562 -1.28709 0
M  V30 608 H 58.3068 -1.56031 -0.289855 0
M  V30 609 H 58.3278 -2.5491 -2.82491 0
M  V30 610 H 57.8398 -3.63539 -1.35873 0
M  V30 611 H 55.9408 -1.96061 -3.16845 0
M  V30 612 H 56.0538 -3.82366 -2.88675 0
M  V30 613 H 54.4178 -1.97297 -1.61078 0
M  V30 614 H 55.2008 -3.36411 -0.6843 0
M  V30 615 N 57.6459 0.756429 -1.3826 0
M  V30 616 C 58.8949 1.51082 -1.3363 0
M  V30 617 C 59.2079 1.95467 0.0720068 0
M  V30 618 O 60.4139 2.7043 0.240834 0
M  V30 619 C 58.8699 2.72893 -2.34644 0
M  V30 620 C 58.4779 2.35544 -3.81081 0
M  V30 621 C 60.2219 3.50791 -2.39052 0
M  V30 622 C 58.1289 3.53948 -4.73787 0
M  V30 623 H 57.0589 0.56727 -0.49671 0
M  V30 624 H 59.7099 0.827147 -1.638 0
M  V30 625 H 58.0919 3.43227 -1.97513 0
M  V30 626 H 59.2659 1.72894 -4.27135 0
M  V30 627 H 57.5809 1.70786 -3.79764 0
M  V30 628 H 60.1779 4.38823 -3.05513 0
M  V30 629 H 60.5209 3.91745 -1.40861 0
M  V30 630 H 61.0539 2.87467 -2.74968 0
M  V30 631 H 57.7929 3.18064 -5.73163 0
M  V30 632 H 57.3129 4.15651 -4.32428 0
M  V30 633 H 58.9919 4.20566 -4.91663 0
M  V30 634 N 59.124 1.23083 0.984299 0
M  V30 635 C 60.535 1.05609 1.5396 0
M  V30 636 C 60.886 -0.377793 1.92528 0
M  V30 637 O 60.011 -1.26398 1.75649 0
M  V30 638 C 60.606 1.91087 2.7977 0
M  V30 639 C 59.165 1.77885 3.31713 0
M  V30 640 C 58.312 1.87028 2.04733 0
M  V30 641 H 61.263 1.36802 0.804419 0
M  V30 642 H 61.284 1.43336 3.5247 0
M  V30 643 H 60.796 2.9544 2.51668 0
M  V30 644 H 58.897 0.762995 3.64704 0
M  V30 645 H 59.01 2.61047 4.01735 0
M  V30 646 H 57.374 1.30565 2.18689 0
M  V30 647 H 58.157 2.92929 1.79017 0
M  V30 648 N 60.6021 -1.18246 1.0419 0
M  V30 649 C 61.5121 -2.25574 0.644476 0
M  V30 650 C 62.5281 -1.70845 -0.329826 0
M  V30 651 O 63.7041 -2.00554 -0.184443 0
M  V30 652 C 60.7691 -3.46697 0.014877 0
M  V30 653 C 59.8301 -4.16554 1.03834 0
M  V30 654 C 59.0631 -5.31894 0.438692 0
M  V30 655 O 59.2861 -5.65385 -0.754752 0
M  V30 656 O 58.2201 -5.90459 1.168 0
M  V30 657 H 62.0461 -2.61836 1.53869 0
M  V30 658 H 59.6311 -1.25352 0.812854 0
M  V30 659 H 61.5131 -4.20062 -0.335538 0
M  V30 660 H 60.1881 -3.12255 -0.853138 0
M  V30 661 H 59.0951 -3.45251 1.44057 0
M  V30 662 H 60.4281 -4.54998 1.87716 0
M  V30 663 N 62.0802 -0.821533 -1.34494 0
M  V30 664 C 63.3262 -0.418729 -1.99043 0
M  V30 665 C 63.6812 1.00672 -1.6396 0
M  V30 666 O 62.9742 1.69132 -0.900271 0
M  V30 667 C 63.1682 -0.556512 -3.53041 0
M  V30 668 C 62.9972 -1.9938 -4.03085 0
M  V30 669 C 61.7672 -2.62539 -4.31742 0
M  V30 670 C 63.9652 -2.96035 -4.20556 0
M  V30 671 N 61.9472 -3.97523 -4.67813 0
M  V30 672 C 63.3182 -4.15924 -4.59791 0
M  V30 673 C 65.3732 -2.9267 -4.02801 0
M  V30 674 C 64.0762 -5.32899 -4.83126 0
M  V30 675 C 66.1022 -4.08861 -4.27302 0
M  V30 676 C 65.4642 -5.275 -4.66822 0
M  V30 677 H 61.5632 -0.201299 -0.755647 0
M  V30 678 H 64.1472 -1.06594 -1.62929 0
M  V30 679 H 62.3182 0.0607924 -3.88352 0
M  V30 680 H 64.0502 -0.126842 -4.04501 0
M  V30 681 H 60.8052 -2.13789 -4.22601 0
M  V30 682 H 61.2292 -4.67061 -4.90085 0
M  V30 683 H 65.8712 -2.02088 -3.71376 0
M  V30 684 H 63.5892 -6.24041 -5.13418 0
M  V30 685 H 67.1752 -4.07654 -4.15101 0
M  V30 686 H 66.0552 -6.15913 -4.85408 0
M  V30 687 N 63.5583 1.46682 -0.576371 0
M  V30 688 C 64.7983 2.04306 -0.0621356 0
M  V30 689 C 65.1623 1.4389 1.2712 0
M  V30 690 O 66.3633 1.92675 1.87429 0
M  V30 691 C 64.6343 3.57399 0.00927922 0
M  V30 692 S 66.1933 4.36309 0.466859 0
M  V30 693 H 63.0113 0.710167 -0.0344016 0
M  V30 694 H 65.6133 1.79807 -0.767437 0
M  V30 695 H 64.3173 3.98889 -0.965178 0
M  V30 696 H 63.8483 3.86424 0.737547 0
M  V30 697 H 65.8633 4.6533 1.72287 0
M  V30 698 N 65.0364 0.313813 1.54444 0
M  V30 699 C 66.2844 -0.291099 1.99993 0
M  V30 700 C 66.6054 -1.53418 1.20366 0
M  V30 701 O 65.8754 -1.93544 0.302927 0
M  V30 702 H 64.4554 -0.110552 0.738774 0
M  V30 703 H 67.1174 0.428106 1.9014 0
M  V30 704 H 66.2134 -0.554268 3.07139 0
M  V30 705 N 66.5145 -1.57545 0.0417849 0
M  V30 706 C 67.7605 -1.92601 -0.635021 0
M  V30 707 C 68.0935 -0.919627 -1.71045 0
M  V30 708 O 67.3685 0.0557892 -1.9442 0
M  V30 709 C 67.6515 -3.38085 -1.23979 0
M  V30 710 C 67.5045 -4.49467 -0.173057 0
M  V30 711 C 68.8235 -3.83776 -2.15416 0
M  V30 712 H 65.9425 -0.700397 -0.229374 0
M  V30 713 H 68.5845 -1.89728 0.101633 0
M  V30 714 H 66.7345 -3.40664 -1.86762 0
M  V30 715 H 68.4065 -4.59018 0.458312 0
M  V30 716 H 66.6495 -4.30909 0.499996 0
M  V30 717 H 67.3205 -5.48323 -0.636054 0
M  V30 718 H 69.7965 -3.83013 -1.62605 0
M  V30 719 H 68.6725 -4.8624 -2.54679 0
M  V30 720 H 68.9335 -3.19998 -3.05047 0
M  V30 721 N 67.9926 0.231505 -1.5589 0
M  V30 722 C 68.9246 1.31006 -1.8807 0
M  V30 723 C 69.9376 1.43539 -0.768145 0
M  V30 724 O 71.1266 1.44614 -1.04638 0
M  V30 725 C 68.2266 2.68688 -2.06543 0
M  V30 726 C 67.3996 2.78228 -3.37502 0
M  V30 727 C 66.4586 3.96857 -3.4553 0
M  V30 728 O 65.4846 3.85662 -4.18633 0
M  V30 729 N 66.6866 5.1072 -2.75944 0
M  V30 730 H 69.4516 1.03731 -2.81176 0
M  V30 731 H 67.0126 0.421573 -1.56315 0
M  V30 732 H 69.0046 3.46412 -2.09239 0
M  V30 733 H 67.5746 2.88605 -1.20109 0
M  V30 734 H 66.7946 1.87059 -3.46991 0
M  V30 735 H 68.0826 2.81564 -4.23791 0
M  V30 736 H 67.4806 5.2271 -2.16311 0
M  V30 737 H 66.0376 5.86523 -2.84314 0
M  V30 738 N 69.4707 1.49531 0.497807 0
M  V30 739 C 70.4207 1.62829 1.59596 0
M  V30 740 C 71.4047 0.483824 1.53453 0
M  V30 741 O 72.5967 0.736937 1.60929 0
M  V30 742 C 69.7257 1.7011 2.98191 0
M  V30 743 C 68.8117 2.90144 3.09317 0
M  V30 744 N 69.2027 4.1418 2.90324 0
M  V30 745 C 67.5007 2.88148 3.40422 0
M  V30 746 C 68.2017 4.94886 3.05717 0
M  V30 747 N 67.1777 4.28314 3.34736 0
M  V30 748 H 70.9797 2.56446 1.4357 0
M  V30 749 H 68.4937 1.46347 0.704001 0
M  V30 750 H 70.4907 1.77735 3.77115 0
M  V30 751 H 69.1507 0.776315 3.15283 0
M  V30 752 H 70.1617 4.44109 2.66436 0
M  V30 753 H 66.8387 2.05061 3.63671 0
M  V30 754 H 68.2287 6.03432 2.95499 0
M  V30 755 N 70.9488 -0.749086 1.3866 0
M  V30 756 C 72.1978 -1.50371 1.3443 0
M  V30 757 C 72.5108 -1.95503 -0.0616397 0
M  V30 758 O 73.7168 -2.70554 -0.226489 0
M  V30 759 C 72.1728 -2.71644 2.36088 0
M  V30 760 C 71.7808 -2.3352 3.82325 0
M  V30 761 C 73.5248 -3.49518 2.40909 0
M  V30 762 C 71.4318 -3.51431 4.75658 0
M  V30 763 H 70.3618 -0.564628 0.499712 0
M  V30 764 H 73.0128 -0.818449 1.64237 0
M  V30 765 H 71.3948 -3.42175 1.9933 0
M  V30 766 H 72.5688 -1.70627 4.28046 0
M  V30 767 H 70.8838 -1.6877 3.80665 0
M  V30 768 H 73.4808 -4.37197 3.07836 0
M  V30 769 H 73.8238 -3.90992 1.42937 0
M  V30 770 H 74.3568 -2.86005 2.76489 0
M  V30 771 H 71.0958 -3.15019 5.74842 0
M  V30 772 H 70.6158 -4.13352 4.34627 0
M  V30 773 H 72.2948 -4.17953 4.93887 0
M  V30 774 N 72.4269 -1.23603 -0.977757 0
M  V30 775 C 73.3769 -0.986664 -2.05545 0
M  V30 776 C 74.3609 0.0683009 -1.60755 0
M  V30 777 O 75.5529 -0.144162 -1.76412 0
M  V30 778 C 72.6819 -0.582623 -3.3832 0
M  V30 779 C 71.7679 -1.67313 -3.89701 0
M  V30 780 N 72.1589 -2.90394 -4.14132 0
M  V30 781 C 70.4569 -1.54832 -4.18262 0
M  V30 782 C 71.1579 -3.61017 -4.56116 0
M  V30 783 N 70.1339 -2.8854 -4.60701 0
M  V30 784 H 73.9359 -1.92139 -2.22396 0
M  V30 785 H 71.4499 -1.1358 -1.16074 0
M  V30 786 H 73.4469 -0.38524 -4.15116 0
M  V30 787 H 72.1069 0.34503 -3.22862 0
M  V30 788 H 73.1179 -3.26673 -4.01877 0
M  V30 789 H 69.7949 -0.687969 -4.11793 0
M  V30 790 H 71.1849 -4.66544 -4.83514 0
M  V30 791 N 73.905 1.17692 -1.04816 0
M  V30 792 C 74.835 2.23777 -0.666791 0
M  V30 793 C 75.816 1.66796 0.33361 0
M  V30 794 O 77.001 1.93039 0.212042 0
M  V30 795 C 74.131 3.47281 -0.0367933 0
M  V30 796 C 73.085 4.17059 -0.961546 0
M  V30 797 C 72.411 5.34342 -0.195626 0
M  V30 798 C 73.711 4.69713 -2.28402 0
M  V30 799 H 75.405 2.55933 -1.55367 0
M  V30 800 H 72.951 1.23019 -0.748484 0
M  V30 801 H 74.904 4.20706 0.241775 0
M  V30 802 H 73.628 3.14381 0.885004 0
M  V30 803 H 72.287 3.45541 -1.22462 0
M  V30 804 H 71.935 4.97692 0.728816 0
M  V30 805 H 71.635 5.81966 -0.811775 0
M  V30 806 H 73.159 6.10553 0.0757473 0
M  V30 807 H 74.573 5.34794 -2.06563 0
M  V30 808 H 72.97 5.279 -2.8538 0
M  V30 809 H 74.04 3.86726 -2.92525 0
M  V30 810 N 75.3831 0.828654 1.34056 0
M  V30 811 C 76.6081 0.431637 2.02859 0
M  V30 812 C 77.0331 -0.956339 1.61975 0
M  V30 813 O 76.3911 -1.62338 0.807228 0
M  V30 814 C 76.4391 0.548323 3.56407 0
M  V30 815 O 75.5431 -0.429556 4.10157 0
M  V30 816 H 74.8841 0.176886 0.640006 0
M  V30 817 H 77.4141 1.12066 1.71179 0
M  V30 818 H 77.4241 0.426196 4.05768 0
M  V30 819 H 76.0991 1.5606 3.8551 0
M  V30 820 H 74.6761 -0.265836 3.71951 0
M  V30 821 N 76.8612 -1.46375 0.584142 0
M  V30 822 C 78.2722 -1.86031 0.157959 0
M  V30 823 C 78.6232 -1.48753 -1.27933 0
M  V30 824 O 77.7482 -0.903098 -1.96655 0
M  V30 825 C 78.3432 -3.37642 0.279892 0
M  V30 826 C 76.9022 -3.76289 -0.09143 0
M  V30 827 C 76.0492 -2.7039 0.615178 0
M  V30 828 H 79.0002 -1.37509 0.792274 0
M  V30 829 H 79.0212 -3.77275 -0.494364 0
M  V30 830 H 78.5332 -3.64742 1.32607 0
M  V30 831 H 76.6342 -3.54806 -1.13769 0
M  V30 832 H 76.7472 -4.78246 0.285886 0
M  V30 833 H 75.1112 -2.5464 0.0552833 0
M  V30 834 H 75.8942 -3.0033 1.66303 0
M  V30 835 N 78.3393 -0.321999 -1.54275 0
M  V30 836 C 79.5643 0.285791 -2.05422 0
M  V30 837 C 79.9893 1.45124 -1.19669 0
M  V30 838 O 79.3473 1.80132 -0.205441 0
M  V30 839 C 79.3953 0.69956 -3.53749 0
M  V30 840 O 78.4993 1.8021 -3.70942 0
M  V30 841 H 77.8403 0.0518962 -0.661969 0
M  V30 842 H 80.3703 -0.469954 -1.9913 0
M  V30 843 H 80.3803 0.982649 -3.9599 0
M  V30 844 H 79.0553 -0.152864 -4.15619 0
M  V30 845 H 77.6323 1.51794 -3.40607 0
M  V30 846 N 79.8174 1.5752 -0.0501392 0
M  V30 847 C 80.7674 2.07981 0.934231 0
M  V30 848 C 81.7514 0.984745 1.27246 0
M  V30 849 O 82.9434 1.24809 1.25506 0
M  V30 850 C 80.0724 2.62751 2.20945 0
M  V30 851 C 79.1584 3.79225 1.89865 0
M  V30 852 N 79.5494 4.89036 1.29142 0
M  V30 853 C 77.8474 3.88111 2.19741 0
M  V30 854 C 78.5484 5.70084 1.15669 0
M  V30 855 N 77.5244 5.17659 1.65923 0
M  V30 856 H 81.3264 2.90277 0.460053 0
M  V30 857 H 78.8404 1.61665 0.15434 0
M  V30 858 H 80.8374 2.97205 2.9236 0
M  V30 859 H 79.4974 1.81894 2.6897 0
M  V30 860 H 80.5084 5.08854 0.963756 0
M  V30 861 H 77.1854 3.18194 2.70293 0
M  V30 862 H 78.5754 6.68395 0.685356 0
M  V30 863 N 81.2955 -0.223234 1.56011 0
M  V30 864 C 82.2455 -1.28008 1.88674 0
M  V30 865 C 83.2295 -1.42369 0.749663 0
M  V30 866 O 84.4215 -1.45212 1.01205 0
M  V30 867 C 81.5505 -2.63084 2.20548 0
M  V30 868 C 80.6365 -2.52632 3.40643 0
M  V30 869 N 81.0275 -2.11829 4.59306 0
M  V30 870 C 79.3255 -2.83594 3.44224 0
M  V30 871 C 80.0265 -2.12587 5.41463 0
M  V30 872 N 79.0025 -2.5301 4.81131 0
M  V30 873 H 82.8045 -0.955487 2.77935 0
M  V30 874 H 80.3185 -0.431801 1.56554 0
M  V30 875 H 82.3155 -3.39385 2.42122 0
M  V30 876 H 80.9755 -2.96391 1.32599 0
M  V30 877 H 81.9865 -1.82988 4.84496 0
M  V30 878 H 78.6635 -3.21284 2.66614 0
M  V30 879 H 80.0535 -1.83179 6.46448 0
M  V30 880 N 82.7736 -1.49793 -0.48987 0
M  V30 881 C 83.9986 -1.63836 -1.27172 0
M  V30 882 C 84.4236 -0.31402 -1.8546 0
M  V30 883 O 83.7816 0.719803 -1.66399 0
M  V30 884 C 83.8296 -2.71797 -2.36978 0
M  V30 885 O 82.9336 -2.31744 -3.41128 0
M  V30 886 H 82.2746 -0.547997 -0.37496 0
M  V30 887 H 84.8046 -1.96053 -0.585191 0
M  V30 888 H 84.8146 -2.94305 -2.82575 0
M  V30 889 H 83.4896 -3.67923 -1.93921 0
M  V30 890 H 82.0666 -2.1961 -3.01373 0
M  V30 891 N 84.2517 0.741722 -1.39055 0
M  V30 892 C 85.4997 1.49818 -1.35643 0
M  V30 893 C 85.8207 1.94938 0.0491642 0
M  V30 894 O 85.0907 1.68505 0.999141 0
M  V30 895 H 83.6707 0.555755 -0.499144 0
M  V30 896 H 86.3327 0.880957 -1.73854 0
M  V30 897 H 85.4287 2.38348 -2.01486 0
M  V30 898 N 85.7298 1.2412 0.971189 0
M  V30 899 C 86.9548 1.10667 1.75407 0
M  V30 900 C 87.3798 -0.337048 1.85056 0
M  V30 901 O 86.7378 -1.24396 1.31892 0
M  V30 902 C 86.7858 1.74726 3.15441 0
M  V30 903 O 85.8898 1.01566 3.99697 0
M  V30 904 H 85.2308 0.387341 0.539317 0
M  V30 905 H 87.7608 1.64358 1.2185 0
M  V30 906 H 87.7708 1.80341 3.6598 0
M  V30 907 H 86.4458 2.79773 3.07734 0
M  V30 908 H 85.0228 1.03713 3.58187 0
M  V30 909 N 87.2079 -1.17134 1.05439 0
M  V30 910 C 88.1549 -2.21235 0.657539 0
M  V30 911 C 89.1249 -1.62551 -0.341543 0
M  V30 912 O 90.3099 -1.89379 -0.232393 0
M  V30 913 C 87.4499 -3.45076 0.0410575 0
M  V30 914 C 86.5629 -4.18042 1.08927 0
M  V30 915 C 85.6979 -5.29376 0.439848 0
M  V30 916 C 84.7369 -5.94132 1.4722 0
M  V30 917 N 83.8739 -6.96975 0.846756 0
M  V30 918 H 88.7139 -2.54534 1.54972 0
M  V30 919 H 86.2509 -1.25028 0.775006 0
M  V30 920 H 88.2089 -4.15862 -0.33383 0
M  V30 921 H 86.8389 -3.12353 -0.814568 0
M  V30 922 H 85.8909 -3.45945 1.58196 0
M  V30 923 H 87.2029 -4.62306 1.87282 0
M  V30 924 H 86.3569 -6.06699 0.0115125 0
M  V30 925 H 85.0959 -4.86251 -0.375656 0
M  V30 926 H 84.1009 -5.15538 1.91052 0
M  V30 927 H 85.3259 -6.39337 2.28965 0
M  V30 928 H 83.2719 -6.5598 0.0518075 0
M  V30 929 H 83.1889 -7.39565 1.5678 0
M  V30 930 H 84.4569 -7.78239 0.443277 0
M  V30 931 N 88.686 -0.835752 -1.33615 0
M  V30 932 C 89.649 -0.272 -2.2758 0
M  V30 933 C 90.649 0.557487 -1.50827 0
M  V30 934 O 91.839 0.37173 -1.70188 0
M  V30 935 C 88.971 0.617173 -3.35267 0
M  V30 936 H 90.164 -1.10111 -2.78954 0
M  V30 937 H 87.717 -0.608594 -1.43965 0
M  V30 938 H 88.452 1.46884 -2.89129 0
M  V30 939 H 88.237 0.0237066 -3.92093 0
M  V30 940 H 89.727 1.005 -4.05326 0
M  V30 941 N 90.1641 1.46063 -0.591896 0
M  V30 942 C 91.1271 2.28854 0.125973 0
M  V30 943 C 92.1271 1.38903 0.810107 0
M  V30 944 O 93.3171 1.61186 0.66066 0
M  V30 945 C 90.4491 3.19526 1.1881 0
M  V30 946 H 91.6421 2.93802 -0.601717 0
M  V30 947 H 89.1951 1.52325 -0.350254 0
M  V30 948 H 89.9301 2.59345 1.94707 0
M  V30 949 H 89.7151 3.85766 0.701936 0
M  V30 950 H 91.2051 3.81817 1.69132 0
M  V30 951 N 91.6422 0.330177 1.54103 0
M  V30 952 C 92.8672 -0.274893 2.0557 0
M  V30 953 C 93.2922 -1.44487 1.20437 0
M  V30 954 O 92.6502 -1.80021 0.214991 0
M  V30 955 C 92.6982 -0.68079 3.54115 0
M  V30 956 O 91.8022 -1.7824 3.71893 0
M  V30 957 H 91.1432 -0.0483849 0.662235 0
M  V30 958 H 93.6732 0.480508 1.98878 0
M  V30 959 H 93.6832 -0.961635 3.96505 0
M  V30 960 H 92.3582 0.174903 4.15532 0
M  V30 961 H 90.9352 -1.49985 3.41407 0
M  V30 962 N 93.1203 -1.57491 0.0584922 0
M  V30 963 C 94.0503 -2.14988 -0.911178 0
M  V30 964 C 95.0313 -1.07343 -1.31952 0
M  V30 965 O 96.2163 -1.35318 -1.39294 0
M  V30 966 C 93.3463 -2.70078 -2.18347 0
M  V30 967 C 92.3003 -3.82771 -1.91495 0
M  V30 968 C 91.6263 -4.24408 -3.25241 0
M  V30 969 C 92.9263 -5.07592 -1.23075 0
M  V30 970 H 94.6203 -2.96263 -0.432246 0
M  V30 971 H 92.1663 -1.42512 -0.206469 0
M  V30 972 H 94.1193 -3.08943 -2.86587 0
M  V30 973 H 92.8433 -1.86005 -2.68458 0
M  V30 974 H 91.5023 -3.44389 -1.25664 0
M  V30 975 H 91.1503 -3.37275 -3.73168 0
M  V30 976 H 90.8503 -5.00366 -3.08071 0
M  V30 977 H 92.3743 -4.65879 -3.94701 0
M  V30 978 H 93.7883 -5.43857 -1.81362 0
M  V30 979 H 92.1853 -5.88741 -1.16207 0
M  V30 980 H 93.2553 -4.84454 -0.207847 0
M  V30 981 N 94.5984 0.214957 -1.56127 0
M  V30 982 C 95.5484 1.27006 -1.8935 0
M  V30 983 C 96.5324 1.41969 -0.757202 0
M  V30 984 O 97.7244 1.44673 -1.01973 0
M  V30 985 C 94.8534 2.61911 -2.2194 0
M  V30 986 C 93.9394 2.50822 -3.41978 0
M  V30 987 N 94.3304 2.09391 -4.60423 0
M  V30 988 C 92.6284 2.81765 -3.45723 0
M  V30 989 C 93.3294 2.09712 -5.42582 0
M  V30 990 N 92.3054 2.50454 -4.82466 0
M  V30 991 H 96.1074 0.940734 -2.78437 0
M  V30 992 H 93.6214 0.423492 -1.56781 0
M  V30 993 H 95.6184 3.38096 -2.43919 0
M  V30 994 H 94.2784 2.95684 -1.34169 0
M  V30 995 H 95.2894 1.80416 -4.85459 0
M  V30 996 H 91.9664 3.19865 -2.68314 0
M  V30 997 H 93.3564 1.79748 -6.4741 0
M  V30 998 N 96.0765 1.50051 0.48192 0
M  V30 999 C 97.3225 1.61706 1.2338 0
M  V30 1000 C 97.6775 0.308488 1.89911 0
M  V30 1001 O 96.9705 -0.692798 1.78636 0
M  V30 1002 C 97.1645 2.72717 2.30998 0
M  V30 1003 C 96.9935 4.14242 1.75024 0
M  V30 1004 C 95.7635 4.80786 1.55476 0
M  V30 1005 C 97.9615 4.98846 1.25128 0
M  V30 1006 N 95.9435 6.06563 0.946311 0
M  V30 1007 C 97.3145 6.15258 0.765382 0
M  V30 1008 C 99.3695 4.84702 1.13881 0
M  V30 1009 C 98.0725 7.19079 0.178113 0
M  V30 1010 C 100.098 5.8869 0.565486 0
M  V30 1011 C 99.4605 7.04343 0.0899105 0
M  V30 1012 H 95.5595 0.645958 0.440753 0
M  V30 1013 H 98.1435 1.8713 0.537624 0
M  V30 1014 H 96.3145 2.49033 2.98055 0
M  V30 1015 H 98.0465 2.73789 2.9803 0
M  V30 1016 H 94.8015 4.37899 1.80392 0
M  V30 1017 H 95.2255 6.73767 0.660812 0
M  V30 1018 H 99.8675 3.95583 1.49244 0
M  V30 1019 H 97.5855 8.07882 -0.187749 0
M  V30 1020 H 101.171 5.79808 0.480974 0
M  V30 1021 H 100.051 7.83433 -0.346782 0
M  V30 1022 N 97.5546 -0.734337 1.39446 0
M  V30 1023 C 98.7826 -1.52358 1.39981 0
M  V30 1024 C 99.1976 -1.88799 -0.0054975 0
M  V30 1025 O 98.5546 -1.54146 -0.976998 0
M  V30 1026 C 98.6056 -2.81072 2.27333 0
M  V30 1027 O 98.3266 -2.46178 3.62392 0
M  V30 1028 C 99.8276 -3.75096 2.36259 0
M  V30 1029 H 97.0476 -0.470806 0.478103 0
M  V30 1030 H 99.5916 -0.907339 1.83269 0
M  V30 1031 H 97.7466 -3.39026 1.87457 0
M  V30 1032 H 98.1606 -3.28866 4.08592 0
M  V30 1033 H 99.6346 -4.62305 3.01626 0
M  V30 1034 H 100.112 -4.16892 1.38194 0
M  V30 1035 H 100.718 -3.23061 2.76608 0
M  V30 1036 N 99.0327 -1.24633 -0.964593 0
M  V30 1037 C 100.258 -1.11596 -1.74818 0
M  V30 1038 C 100.683 0.32723 -1.85232 0
M  V30 1039 O 100.041 1.23695 -1.32549 0
M  V30 1040 C 100.089 -1.76397 -3.1451 0
M  V30 1041 O 99.1927 -1.03685 -3.99153 0
M  V30 1042 H 98.5337 -0.390196 -0.537255 0
M  V30 1043 H 101.064 -1.65002 -1.20977 0
M  V30 1044 H 101.074 -1.8228 -3.65018 0
M  V30 1045 H 99.7487 -2.81401 -3.06246 0
M  V30 1046 H 98.3257 -1.05611 -3.57632 0
M  V30 1047 N 100.511 1.16574 -1.06058 0
M  V30 1048 C 101.421 2.2452 -0.680282 0
M  V30 1049 C 102.437 1.71348 0.302604 0
M  V30 1050 O 103.613 2.00822 0.152513 0
M  V30 1051 C 100.678 3.46629 -0.0700315 0
M  V30 1052 C 99.7388 4.14849 -1.10448 0
M  V30 1053 C 98.9718 5.31129 -0.523256 0
M  V30 1054 O 99.1948 5.66514 0.664709 0
M  V30 1055 O 98.1288 5.88526 -1.26179 0
M  V30 1056 H 101.955 2.59355 -1.58015 0
M  V30 1057 H 99.5398 1.24043 -0.832694 0
M  V30 1058 H 101.422 4.20543 0.268667 0
M  V30 1059 H 100.097 3.13573 0.803353 0
M  V30 1060 H 99.0038 3.42916 -1.49532 0
M  V30 1061 H 100.337 4.51954 -1.94931 0
M  V30 1062 N 101.989 0.842826 1.3317 0
M  V30 1063 C 103.405 0.531128 1.50503 0
M  V30 1064 C 103.605 -0.940734 1.78192 0
M  V30 1065 O 102.661 -1.72436 1.84451 0
M  V30 1066 C 103.974 1.40789 2.65705 0
M  V30 1067 C 105.522 1.40708 2.79589 0
M  V30 1068 C 105.997 2.26878 3.97857 0
M  V30 1069 N 107.488 2.24609 4.05099 0
M  V30 1070 C 108.223 2.88019 4.95815 0
M  V30 1071 N 107.719 3.60496 5.9162 0
M  V30 1072 N 109.512 2.77469 4.88843 0
M  V30 1073 H 101.663 1.79557 1.1346 0
M  V30 1074 H 103.926 0.766267 0.558156 0
M  V30 1075 H 103.632 2.454 2.51936 0
M  V30 1076 H 103.506 1.08677 3.61205 0
M  V30 1077 H 105.893 0.368668 2.92788 0
M  V30 1078 H 105.974 1.76829 1.84838 0
M  V30 1079 H 105.618 3.3078 3.85418 0
M  V30 1080 H 105.548 1.88096 4.91861 0
M  V30 1081 H 108.039 1.71906 3.36536 0
M  V30 1082 H 108.352 4.06076 6.57512 0
M  V30 1083 H 106.697 3.64604 5.91683 0
M  V30 1084 H 109.888 2.20406 4.12963 0
M  V30 1085 H 110.061 3.2717 5.59342 0
M  V30 1086 N 103.467 -1.45747 0.599634 0
M  V30 1087 C 104.713 -2.02592 0.0918643 0
M  V30 1088 C 105.046 -1.46806 -1.27128 0
M  V30 1089 O 104.321 -0.639658 -1.83681 0
M  V30 1090 C 104.604 -3.60073 0.0443398 0
M  V30 1091 C 104.457 -4.26208 1.43759 0
M  V30 1092 C 105.776 -4.35309 -0.647608 0
M  V30 1093 H 102.895 -0.736175 0.034857 0
M  V30 1094 H 105.537 -1.73694 0.770081 0
M  V30 1095 H 103.687 -3.84823 -0.533224 0
M  V30 1096 H 105.359 -4.12668 2.06162 0
M  V30 1097 H 103.602 -3.84916 2.00056 0
M  V30 1098 H 104.273 -5.35069 1.35665 0
M  V30 1099 H 106.749 -4.15805 -0.156776 0
M  V30 1100 H 105.625 -5.45038 -0.649942 0
M  V30 1101 H 105.886 -4.07598 -1.71219 0
M  V30 1102 N 104.945 -0.338344 -1.53925 0
M  V30 1103 C 106.191 0.260143 -2.01125 0
M  V30 1104 C 106.524 1.50617 -1.22589 0
M  V30 1105 O 105.799 1.91979 -0.312113 0
M  V30 1106 C 106.082 0.579499 -3.55407 0
M  V30 1107 C 105.935 -0.678264 -4.44657 0
M  V30 1108 C 107.254 1.39122 -4.17532 0
M  V30 1109 H 104.373 0.0930772 -0.731099 0
M  V30 1110 H 107.015 -0.457852 -1.84401 0
M  V30 1111 H 105.165 1.19118 -3.69788 0
M  V30 1112 H 106.837 -1.31631 -4.42121 0
M  V30 1113 H 105.08 -1.3042 -4.13731 0
M  V30 1114 H 105.751 -0.410143 -5.50474 0
M  V30 1115 H 108.227 0.874035 -4.06817 0
M  V30 1116 H 107.103 1.58342 -5.25565 0
M  V30 1117 H 107.364 2.39178 -3.71815 0
M  V30 1118 N 106.423 1.57458 -0.0668435 0
M  V30 1119 C 107.648 1.9804 0.616027 0
M  V30 1120 C 108.073 0.944771 1.62652 0
M  V30 1121 O 107.431 -0.0902094 1.81075 0
M  V30 1122 C 107.479 3.37665 1.26549 0
M  V30 1123 O 106.583 3.36701 2.38131 0
M  V30 1124 H 105.924 0.644719 0.158849 0
M  V30 1125 H 108.454 2.04121 -0.139891 0
M  V30 1126 H 108.464 3.7474 1.6135 0
M  V30 1127 H 107.139 4.12573 0.525016 0
M  V30 1128 H 105.716 3.1139 2.0516 0
M  V30 1129 N 107.901 -0.206675 1.56239 0
M  V30 1130 C 109.147 -0.930218 1.80208 0
M  V30 1131 C 109.48 -1.83387 0.638981 0
M  V30 1132 O 108.755 -1.91119 -0.361066 0
M  V30 1133 C 109.038 -1.75641 3.1436 0
M  V30 1134 C 108.891 -0.878257 4.41142 0
M  V30 1135 C 110.21 -2.73129 3.45092 0
M  V30 1136 H 107.329 -0.336742 0.655571 0
M  V30 1137 H 109.971 -0.198222 1.88963 0
M  V30 1138 H 108.121 -2.38048 3.07027 0
M  V30 1139 H 109.793 -0.269787 4.6051 0
M  V30 1140 H 108.036 -0.184385 4.33408 0
M  V30 1141 H 108.707 -1.49106 5.3148 0
M  V30 1142 H 111.183 -2.20856 3.52649 0
M  V30 1143 H 110.059 -3.28028 4.40101 0
M  V30 1144 H 110.32 -3.51606 2.68003 0
M  V30 1145 N 109.379 -1.50304 -0.473955 0
M  V30 1146 C 110.309 -1.71886 -1.58042 0
M  V30 1147 C 111.29 -0.567799 -1.60344 0
M  V30 1148 O 112.475 -0.806623 -1.76656 0
M  V30 1149 C 109.605 -1.81036 -2.96384 0
M  V30 1150 C 108.559 -2.962 -3.08949 0
M  V30 1151 C 107.885 -2.9049 -4.48909 0
M  V30 1152 C 109.185 -4.36752 -2.86434 0
M  V30 1153 H 110.879 -2.64527 -1.40234 0
M  V30 1154 H 108.425 -1.27295 -0.673201 0
M  V30 1155 H 110.378 -1.94719 -3.73714 0
M  V30 1156 H 109.102 -0.850147 -3.15341 0
M  V30 1157 H 107.761 -2.82164 -2.3405 0
M  V30 1158 H 107.409 -1.92321 -4.64781 0
M  V30 1159 H 107.109 -3.67802 -4.58253 0
M  V30 1160 H 108.633 -3.06218 -5.28264 0
M  V30 1161 H 110.047 -4.5133 -3.53517 0
M  V30 1162 H 108.444 -5.15493 -3.07225 0
M  V30 1163 H 109.514 -4.49321 -1.82316 0
M  V30 1164 N 110.857 0.726932 -1.39834 0
M  V30 1165 C 111.787 1.85405 -1.41941 0
M  V30 1166 C 112.768 1.67751 -0.281728 0
M  V30 1167 O 113.953 1.8795 -0.488717 0
M  V30 1168 C 111.083 3.23243 -1.2701 0
M  V30 1169 C 110.037 3.55549 -2.38262 0
M  V30 1170 C 109.363 4.9241 -2.08415 0
M  V30 1171 C 110.663 3.577 -3.80589 0
M  V30 1172 H 112.357 1.83899 -2.36266 0
M  V30 1173 H 109.903 0.883349 -1.13723 0
M  V30 1174 H 111.856 4.01775 -1.27103 0
M  V30 1175 H 110.58 3.25296 -0.291564 0
M  V30 1176 H 109.239 2.79351 -2.37399 0
M  V30 1177 H 108.887 4.91052 -1.0898 0
M  V30 1178 H 108.587 5.14992 -2.82943 0
M  V30 1179 H 110.111 5.73289 -2.10171 0
M  V30 1180 H 111.525 4.26293 -3.83337 0
M  V30 1181 H 109.922 3.91804 -4.54543 0
M  V30 1182 H 110.992 2.57328 -4.10987 0
M  V30 1183 N 112.336 1.25143 0.95797 0
M  V30 1184 C 113.266 1.07711 2.07173 0
M  V30 1185 C 114.247 -0.0128462 1.70095 0
M  V30 1186 O 115.432 0.156061 1.93572 0
M  V30 1187 C 112.562 0.691503 3.40346 0
M  V30 1188 C 111.516 1.73132 3.9142 0
M  V30 1189 C 110.842 1.20049 5.21049 0
M  V30 1190 C 112.142 3.1294 4.1817 0
M  V30 1191 H 113.836 2.00873 2.22014 0
M  V30 1192 H 111.382 0.967191 1.06684 0
M  V30 1193 H 113.335 0.556505 4.17709 0
M  V30 1194 H 112.059 -0.275819 3.25433 0
M  V30 1195 H 110.718 1.8547 3.16222 0
M  V30 1196 H 110.366 0.223499 5.02503 0
M  V30 1197 H 110.066 1.89545 5.56189 0
M  V30 1198 H 111.59 1.07782 6.01012 0
M  V30 1199 H 113.004 3.03775 4.86203 0
M  V30 1200 H 111.401 3.79875 4.64559 0
M  V30 1201 H 112.471 3.6025 3.24573 0
M  V30 1202 N 113.814 -1.1601 1.06675 0
M  V30 1203 C 115.062 -1.86264 0.784229 0
M  V30 1204 C 115.383 -1.82328 -0.691488 0
M  V30 1205 O 114.653 -1.25947 -1.50047 0
M  V30 1206 H 113.233 -0.689621 0.28711 0
M  V30 1207 H 115.895 -1.40664 1.34906 0
M  V30 1208 H 114.991 -2.91595 1.11259 0
M  V30 1209 N 115.292 -0.849877 -1.32721 0
M  V30 1210 C 116.222 -0.306308 -2.31482 0
M  V30 1211 C 117.203 0.591952 -1.59468 0
M  V30 1212 O 118.388 0.513199 -1.87296 0
M  V30 1213 C 115.518 0.510204 -3.43532 0
M  V30 1214 C 114.472 -0.293209 -4.26994 0
M  V30 1215 C 113.798 0.647743 -5.30762 0
M  V30 1216 C 115.098 -1.51634 -4.99804 0
M  V30 1217 H 116.792 -1.13153 -2.77195 0
M  V30 1218 H 114.338 -0.545553 -1.33266 0
M  V30 1219 H 116.291 0.900856 -4.11658 0
M  V30 1220 H 115.015 1.36874 -2.96535 0
M  V30 1221 H 113.674 -0.665555 -3.60508 0
M  V30 1222 H 113.322 1.50299 -4.8002 0
M  V30 1223 H 113.022 0.11422 -5.87489 0
M  V30 1224 H 114.546 1.03567 -6.01753 0
M  V30 1225 H 115.96 -1.19824 -5.60638 0
M  V30 1226 H 114.357 -1.98745 -5.66234 0
M  V30 1227 H 115.427 -2.28018 -4.27943 0
M  V30 1228 N 116.77 1.45427 -0.607355 0
M  V30 1229 C 117.7 2.3329 0.0989352 0
M  V30 1230 C 118.681 1.46816 0.859007 0
M  V30 1231 O 119.866 1.75588 0.829604 0
M  V30 1232 C 116.996 3.29518 1.09705 0
M  V30 1233 C 115.95 4.25626 0.450206 0
M  V30 1234 C 115.276 5.11542 1.55655 0
M  V30 1235 C 116.576 5.18505 -0.628455 0
M  V30 1236 H 118.27 2.92595 -0.634716 0
M  V30 1237 H 115.816 1.40696 -0.306681 0
M  V30 1238 H 117.769 3.89855 1.59971 0
M  V30 1239 H 116.493 2.68372 1.86129 0
M  V30 1240 H 115.152 3.66586 -0.0315886 0
M  V30 1241 H 114.8 4.46765 2.31107 0
M  V30 1242 H 114.5 5.76647 1.12925 0
M  V30 1243 H 116.024 5.74748 2.06148 0
M  V30 1244 H 117.438 5.72916 -0.209877 0
M  V30 1245 H 115.835 5.92085 -0.977489 0
M  V30 1246 H 116.905 4.60948 -1.50514 0
M  V30 1247 N 118.248 0.346503 1.53744 0
M  V30 1248 C 119.659 -0.136779 1.86198 0
M  V30 1249 C 120.01 -1.49749 1.26766 0
M  V30 1250 O 119.135 -2.08417 0.582355 0
M  V30 1251 C 119.73 -0.254966 3.37839 0
M  V30 1252 C 118.289 -0.682482 3.70161 0
M  V30 1253 C 117.436 0.181981 2.76702 0
M  V30 1254 H 120.387 0.565994 1.48264 0
M  V30 1255 H 120.408 -1.08195 3.64793 0
M  V30 1256 H 119.92 0.735526 3.81066 0
M  V30 1257 H 118.021 -1.68189 3.3248 0
M  V30 1258 H 118.134 -0.470326 4.76786 0
M  V30 1259 H 116.498 -0.34615 2.52337 0
M  V30 1260 H 117.281 1.16966 3.2276 0
M  V30 1261 N 119.726 -1.57421 0.075193 0
M  V30 1262 C 120.689 -2.11791 -0.876203 0
M  V30 1263 C 121.689 -1.04268 -1.22412 0
M  V30 1264 O 122.879 -1.30242 -1.15684 0
M  V30 1265 C 120.011 -2.62207 -2.17854 0
M  V30 1266 H 121.204 -2.9716 -0.40444 0
M  V30 1267 H 118.757 -1.55333 -0.173557 0
M  V30 1268 H 119.492 -1.803 -2.6956 0
M  V30 1269 H 119.277 -3.40802 -1.93897 0
M  V30 1270 H 120.767 -3.04335 -2.85955 0
M  V30 1271 N 121.204 0.198386 -1.56346 0
M  V30 1272 C 122.167 1.22952 -1.93431 0
M  V30 1273 C 123.167 1.38611 -0.815092 0
M  V30 1274 O 124.357 1.36479 -1.08255 0
M  V30 1275 C 121.489 2.59946 -2.20546 0
M  V30 1276 H 122.682 0.912626 -2.85677 0
M  V30 1277 H 120.235 0.43977 -1.49986 0
M  V30 1278 H 120.97 2.96696 -1.30927 0
M  V30 1279 H 120.755 2.49953 -3.02102 0
M  V30 1280 H 122.245 3.3431 -2.50253 0
M  V30 1281 N 122.682 1.50554 0.465978 0
M  V30 1282 C 123.912 1.65323 1.23903 0
M  V30 1283 C 124.32 0.338051 1.86155 0
M  V30 1284 O 123.663 -0.690518 1.70228 0
M  V30 1285 C 123.725 2.69048 2.3844 0
M  V30 1286 C 123.389 4.12462 1.96784 0
M  V30 1287 C 124.386 4.98168 1.48745 0
M  V30 1288 C 122.071 4.58407 2.05349 0
M  V30 1289 C 124.065 6.27868 1.0982 0
M  V30 1290 C 121.752 5.88112 1.66035 0
M  V30 1291 C 122.75 6.72668 1.18349 0
M  V30 1292 O 122.438 7.99951 0.795825 0
M  V30 1293 H 122.17 0.558629 0.38067 0
M  V30 1294 H 124.724 1.97561 0.562022 0
M  V30 1295 H 122.954 2.32062 3.09328 0
M  V30 1296 H 124.643 2.72985 3.0039 0
M  V30 1297 H 125.409 4.63885 1.41546 0
M  V30 1298 H 121.288 3.92735 2.41414 0
M  V30 1299 H 124.832 6.93819 0.725293 0
M  V30 1300 H 120.729 6.21914 1.72895 0
M  V30 1301 H 121.497 8.13265 0.924222 0
M  V30 1302 N 124.16 -0.719506 1.40217 0
M  V30 1303 C 125.09 -1.8465 1.42922 0
M  V30 1304 C 126.071 -1.67599 0.29062 0
M  V30 1305 O 127.256 -1.87688 0.498677 0
M  V30 1306 C 124.386 -3.22565 1.28722 0
M  V30 1307 C 123.34 -3.54281 2.40144 0
M  V30 1308 C 122.666 -4.91298 2.11023 0
M  V30 1309 C 123.966 -3.55676 3.82481 0
M  V30 1310 H 125.66 -1.82644 2.37237 0
M  V30 1311 H 123.206 -0.877305 1.1419 0
M  V30 1312 H 125.159 -4.01095 1.29232 0
M  V30 1313 H 123.883 -3.25137 0.308811 0
M  V30 1314 H 122.542 -2.78088 2.38877 0
M  V30 1315 H 122.19 -4.90468 1.11582 0
M  V30 1316 H 121.89 -5.13485 2.8567 0
M  V30 1317 H 123.414 -5.72166 2.13209 0
M  V30 1318 H 124.828 -4.24254 3.85592 0
M  V30 1319 H 123.225 -3.89388 4.56614 0
M  V30 1320 H 124.295 -2.55144 4.12346 0
M  V30 1321 N 125.638 -1.25649 -0.95132 0
M  V30 1322 C 126.586 -1.06118 -2.06982 0
M  V30 1323 C 127.58 0.00889169 -1.69398 0
M  V30 1324 O 128.786 -0.146988 -1.79399 0
M  V30 1325 H 125.161 -0.326248 -0.677544 0
M  V30 1326 H 127.132 -2.00932 -2.2061 0
M  V30 1327 C 125.881 -0.700145 -3.40578 0
M  V30 1328 H 125.204 -1.51537 -3.69968 0
M  V30 1329 H 126.644 -0.603211 -4.19687 0
M  V30 1330 C 125.103 0.59403 -3.31622 0
M  V30 1331 O 125.633 1.63522 -3.66911 0
M  V30 1332 N 123.839 0.58089 -2.84735 0
M  V30 1333 H 123.386 -0.266783 -2.56215 0
M  V30 1334 H 123.344 1.44695 -2.79125 0
M  V30 1335 N 127.117 1.15442 -1.07289 0
M  V30 1336 C 128.528 1.67803 -0.818475 0
M  V30 1337 C 128.879 1.8489 0.656507 0
M  V30 1338 O 128.004 1.55176 1.50829 0
M  V30 1339 C 128.599 3.04805 -1.47917 0
M  V30 1340 C 127.158 3.54245 -1.27229 0
M  V30 1341 C 126.305 2.29986 -1.54925 0
M  V30 1342 H 129.256 0.996646 -1.23502 0
M  V30 1343 H 129.277 3.69702 -0.90005 0
M  V30 1344 H 128.789 2.92336 -2.55267 0
M  V30 1345 H 126.89 3.71956 -0.21899 0
M  V30 1346 H 127.003 4.35723 -1.99203 0
M  V30 1347 H 125.367 2.35496 -0.970242 0
M  V30 1348 H 126.15 2.20105 -2.63455 0
M  V30 1349 N 128.595 0.856903 1.32268 0
M  V30 1350 C 129.835 0.467705 1.98977 0
M  V30 1351 C 130.199 -0.959231 1.66321 0
M  V30 1352 O 131.4 -1.4531 2.26138 0
M  V30 1353 C 129.671 0.70256 3.50427 0
M  V30 1354 S 131.23 0.411269 4.36868 0
M  V30 1355 H 128.048 0.175121 0.689096 0
M  V30 1356 H 130.65 1.1101 1.60925 0
M  V30 1357 H 129.354 1.74012 3.71683 0
M  V30 1358 H 128.885 0.0466707 3.93372 0
M  V30 1359 H 130.9 -0.761799 4.90317 0
M  V30 1360 N 130.073 -1.45103 0.615059 0
M  V30 1361 C 131.298 -2.07064 0.117988 0
M  V30 1362 C 131.723 -1.4554 -1.19163 0
M  V30 1363 O 131.081 -0.550855 -1.72729 0
M  V30 1364 C 131.129 -3.606 -0.000288387 0
M  V30 1365 O 130.233 -3.98847 -1.04856 0
M  V30 1366 H 129.574 -0.659467 0.0774581 0
M  V30 1367 H 132.104 -1.86236 0.847186 0
M  V30 1368 H 132.114 -4.07529 -0.196091 0
M  V30 1369 H 130.789 -4.04765 0.955932 0
M  V30 1370 H 129.366 -3.63577 -0.828619 0
M  V30 1371 N 131.551 -0.354651 -1.53558 0
M  V30 1372 C 132.514 0.484566 -2.24019 0
M  V30 1373 C 133.514 1.01861 -1.24422 0
M  V30 1374 O 134.704 0.906097 -1.4878 0
M  V30 1375 C 131.836 1.67615 -2.96847 0
M  V30 1376 H 133.029 -0.131843 -2.9961 0
M  V30 1377 H 130.582 -0.106165 -1.55939 0
M  V30 1378 H 131.317 2.33095 -2.25471 0
M  V30 1379 H 131.102 1.30029 -3.69912 0
M  V30 1380 H 132.592 2.27114 -3.50441 0
M  V30 1381 N 133.029 1.57378 -0.0835403 0
M  V30 1382 C 133.962 2.09016 0.915833 0
M  V30 1383 C 134.94 0.997993 1.2837 0
M  V30 1384 O 136.124 1.27219 1.39096 0
M  V30 1385 C 133.251 2.55757 2.22049 0
M  V30 1386 C 132.297 3.76522 2.00333 0
M  V30 1387 S 133.13 5.20661 1.25191 0
M  V30 1388 C 134.286 5.70743 2.56912 0
M  V30 1389 H 134.519 2.93457 0.476492 0
M  V30 1390 H 132.052 1.53856 0.129493 0
M  V30 1391 H 134.01 2.83346 2.97027 0
M  V30 1392 H 132.671 1.71564 2.63106 0
M  V30 1393 H 131.864 4.07256 2.96916 0
M  V30 1394 H 131.466 3.49367 1.33488 0
M  V30 1395 H 133.758 5.78304 3.52946 0
M  V30 1396 H 134.701 6.6944 2.30772 0
M  V30 1397 H 135.109 4.98616 2.64655 0
M  V30 1398 N 134.507 -0.190092 1.56449 0
M  V30 1399 C 135.784 -0.935886 1.71757 0
M  V30 1400 C 136.164 -2.01173 0.639726 0
M  V30 1401 O 135.512 -2.25827 -0.348502 0
M  V30 1402 C 135.722 -1.51775 3.1427 0
M  V30 1403 C 137.07 -1.99794 3.74656 0
M  V30 1404 O 138.094 -1.61607 3.1743 0
M  V30 1405 O 136.953 -2.70079 4.751 0
M  V30 1406 H 134.047 -0.439229 0.700719 0
M  V30 1407 H 136.593 -0.179395 1.68749 0
M  V30 1408 H 135.365 -0.742505 3.84191 0
M  V30 1409 H 134.988 -2.33894 3.21527 0
M  V30 1410 N 135.985 -1.50799 -0.457987 0
M  V30 1411 C 137.215 -1.65977 -1.23025 0
M  V30 1412 C 137.623 -0.347918 -1.85974 0
M  V30 1413 O 136.966 0.68148 -1.70592 0
M  V30 1414 C 137.028 -2.70309 -2.3701 0
M  V30 1415 C 136.692 -4.135 -1.94594 0
M  V30 1416 C 137.689 -4.98949 -1.46101 0
M  V30 1417 C 135.374 -4.5949 -2.02915 0
M  V30 1418 C 137.368 -6.28442 -1.06489 0
M  V30 1419 C 135.055 -5.88984 -1.62914 0
M  V30 1420 C 136.053 -6.73286 -1.1478 0
M  V30 1421 O 135.741 -8.00362 -0.75339 0
M  V30 1422 H 135.473 -0.56064 -0.377702 0
M  V30 1423 H 138.027 -1.97857 -0.551537 0
M  V30 1424 H 136.257 -2.337 -3.08093 0
M  V30 1425 H 137.946 -2.74574 -2.98938 0
M  V30 1426 H 138.712 -4.6463 -1.39084 0
M  V30 1427 H 134.591 -3.94009 -2.39328 0
M  V30 1428 H 138.135 -6.94194 -0.688488 0
M  V30 1429 H 134.032 -6.22822 -1.69595 0
M  V30 1430 H 134.8 -8.13744 -0.88108 0
M  V30 1431 N 137.463 0.71206 -1.40597 0
M  V30 1432 C 138.688 1.50617 -1.42581 0
M  V30 1433 C 139.113 1.88079 -0.0282102 0
M  V30 1434 O 138.471 1.53511 0.964579 0
M  V30 1435 C 138.519 2.7557 -2.3258 0
M  V30 1436 O 137.623 3.72414 -1.77148 0
M  V30 1437 H 136.964 0.453966 -0.484573 0
M  V30 1438 H 139.494 0.876649 -1.84868 0
M  V30 1439 H 139.504 3.2406 -2.47889 0
M  V30 1440 H 138.179 2.47639 -3.34138 0
M  V30 1441 H 136.756 3.31276 -1.71204 0
M  V30 1442 N 138.941 1.26152 0.944643 0
M  V30 1443 C 139.871 1.09902 2.06019 0
M  V30 1444 C 140.852 0.00519538 1.70099 0
M  V30 1445 O 142.037 0.176583 1.93396 0
M  V30 1446 C 139.167 0.727562 3.39594 0
M  V30 1447 C 138.121 1.77274 3.89561 0
M  V30 1448 C 137.447 1.25569 5.19747 0
M  V30 1449 C 138.747 3.17357 4.14827 0
M  V30 1450 H 140.441 2.03217 2.19871 0
M  V30 1451 H 137.987 0.978452 1.05652 0
M  V30 1452 H 139.94 0.600777 4.17095 0
M  V30 1453 H 138.664 -0.241287 3.25707 0
M  V30 1454 H 137.323 1.88814 3.14237 0
M  V30 1455 H 136.971 0.276783 5.02238 0
M  V30 1456 H 136.671 1.95433 5.54148 0
M  V30 1457 H 138.195 1.1415 5.99835 0
M  V30 1458 H 139.609 3.08914 4.82954 0
M  V30 1459 H 138.006 3.84781 4.60504 0
M  V30 1460 H 139.076 3.63673 3.20734 0
M  V30 1461 N 140.419 -1.14872 1.07899 0
M  V30 1462 C 141.382 -2.17986 0.708161 0
M  V30 1463 C 142.382 -1.58775 -0.25442 0
M  V30 1464 O 143.572 -1.74166 -0.034645 0
M  V30 1465 C 140.704 -3.40871 0.0446929 0
M  V30 1466 H 141.897 -2.52306 1.62116 0
M  V30 1467 H 139.45 -1.2943 0.876218 0
M  V30 1468 H 140.185 -3.12124 -0.880281 0
M  V30 1469 H 139.97 -3.8511 0.737091 0
M  V30 1470 H 141.46 -4.17121 -0.19991 0
M  V30 1471 N 141.898 -0.863906 -1.31812 0
M  V30 1472 C 142.861 -0.320212 -2.26952 0
M  V30 1473 C 143.861 0.525369 -1.51975 0
M  V30 1474 O 145.051 0.335547 -1.70938 0
M  V30 1475 C 142.183 0.545919 -3.365 0
M  V30 1476 H 143.376 -1.16004 -2.76556 0
M  V30 1477 H 140.929 -0.638995 -1.42641 0
M  V30 1478 H 141.664 1.40718 -2.92179 0
M  V30 1479 H 141.449 -0.0594674 -3.92055 0
M  V30 1480 H 142.939 0.918796 -4.07367 0
M  V30 1481 N 143.376 1.44774 -0.622745 0
M  V30 1482 C 144.339 2.29069 0.0774015 0
M  V30 1483 C 145.339 1.4059 0.780461 0
M  V30 1484 O 146.529 1.62551 0.626322 0
M  V30 1485 C 143.661 3.21974 1.12006 0
M  V30 1486 H 144.854 2.92459 -0.663901 0
M  V30 1487 H 142.407 1.51548 -0.382486 0
M  V30 1488 H 143.142 2.63417 1.89162 0
M  V30 1489 H 142.927 3.87168 0.619951 0
M  V30 1490 H 144.417 3.85318 1.60995 0
M  V30 1491 N 144.854 0.36279 1.53368 0
M  V30 1492 C 145.784 -0.476976 2.28576 0
M  V30 1493 C 146.765 -1.08631 1.30894 0
M  V30 1494 O 147.95 -1.10409 1.59761 0
M  V30 1495 C 145.08 -1.61828 3.07293 0
M  V30 1496 C 144.034 -1.13633 4.1264 0
M  V30 1497 C 143.36 -2.36766 4.79423 0
M  V30 1498 C 144.66 -0.223061 5.21823 0
M  V30 1499 H 146.354 0.150474 2.99022 0
M  V30 1500 H 143.9 0.0738103 1.43811 0
M  V30 1501 H 145.853 -2.21237 3.58653 0
M  V30 1502 H 144.577 -2.27292 2.34533 0
M  V30 1503 H 143.236 -0.564945 3.62221 0
M  V30 1504 H 142.884 -3.0068 4.03238 0
M  V30 1505 H 142.584 -2.05192 5.50609 0
M  V30 1506 H 144.108 -2.96865 5.33576 0
M  V30 1507 H 145.522 -0.724545 5.68703 0
M  V30 1508 H 143.919 0.001678 6.001 0
M  V30 1509 H 144.989 0.735553 4.79289 0
M  V30 1510 N 146.332 -1.57332 0.0918853 0
M  V30 1511 C 147.56 -1.98574 -0.581048 0
M  V30 1512 C 147.975 -0.970903 -1.61923 0
M  V30 1513 O 147.332 0.0399054 -1.82456 0
M  V30 1514 C 147.383 -3.39872 -1.23164 0
M  V30 1515 O 147.104 -4.37469 -0.234989 0
M  V30 1516 C 148.605 -3.96099 -1.99049 0
M  V30 1517 H 145.825 -0.65261 -0.156018 0
M  V30 1518 H 148.369 -2.0379 0.170225 0
M  V30 1519 H 146.524 -3.35679 -1.93386 0
M  V30 1520 H 146.938 -5.19751 -0.70418 0
M  V30 1521 H 148.412 -4.97127 -2.39934 0
M  V30 1522 H 148.889 -3.3374 -2.85507 0
M  V30 1523 H 149.495 -4.03755 -1.3365 0
M  V30 1524 N 147.81 0.181792 -1.56548 0
M  V30 1525 C 148.74 1.22765 -1.98623 0
M  V30 1526 C 149.721 1.46747 -0.860189 0
M  V30 1527 O 150.906 1.58259 -1.12551 0
M  V30 1528 C 148.036 2.56894 -2.33715 0
M  V30 1529 C 146.99 2.475 -3.49182 0
M  V30 1530 C 146.316 3.86023 -3.69986 0
M  V30 1531 C 147.616 1.98866 -4.82959 0
M  V30 1532 H 149.31 0.877942 -2.86239 0
M  V30 1533 H 146.856 0.42088 -1.37712 0
M  V30 1534 H 148.809 3.30253 -2.61746 0
M  V30 1535 H 147.533 2.93632 -1.42997 0
M  V30 1536 H 146.192 1.76596 -3.21262 0
M  V30 1537 H 145.84 4.20136 -2.76576 0
M  V30 1538 H 145.54 3.80609 -4.47672 0
M  V30 1539 H 147.064 4.60984 -4.00407 0
M  V30 1540 H 148.478 2.61992 -5.09934 0
M  V30 1541 H 146.875 2.04424 -5.64208 0
M  V30 1542 H 147.945 0.942465 -4.75653 0
M  V30 1543 N 149.288 1.51039 0.449983 0
M  V30 1544 C 150.238 1.67824 1.54335 0
M  V30 1545 C 151.222 0.5324 1.51836 0
M  V30 1546 O 152.414 0.787762 1.58503 0
M  V30 1547 C 149.543 1.7951 2.92628 0
M  V30 1548 C 148.629 2.99838 2.9993 0
M  V30 1549 N 149.02 4.23207 2.77001 0
M  V30 1550 C 147.318 2.98832 3.31082 0
M  V30 1551 C 148.019 5.04361 2.89818 0
M  V30 1552 N 146.995 4.38746 3.2094 0
M  V30 1553 H 150.797 2.60884 1.35339 0
M  V30 1554 H 148.311 1.48513 0.657085 0
M  V30 1555 H 150.308 1.89642 3.7127 0
M  V30 1556 H 148.968 0.876227 3.12654 0
M  V30 1557 H 149.979 4.5236 2.52172 0
M  V30 1558 H 146.656 2.16527 3.56963 0
M  V30 1559 H 148.046 6.12528 2.76151 0
M  V30 1560 N 150.766 -0.704594 1.40972 0
M  V30 1561 C 152.014 -1.46169 1.39568 0
M  V30 1562 C 152.335 -1.95 0.00253745 0
M  V30 1563 O 151.605 -1.71095 -0.954114 0
M  V30 1564 H 150.185 -0.542326 0.513704 0
M  V30 1565 H 152.847 -0.834553 1.76128 0
M  V30 1566 H 151.943 -2.32922 2.07735 0
M  V30 1567 N 152.244 -1.26651 -0.937939 0
M  V30 1568 C 153.194 -1.05156 -2.02302 0
M  V30 1569 C 154.178 0.0171233 -1.60891 0
M  V30 1570 O 155.37 -0.200213 -1.75864 0
M  V30 1571 C 152.499 -0.689962 -3.36295 0
M  V30 1572 C 151.585 -1.79626 -3.84181 0
M  V30 1573 N 151.976 -3.03422 -4.04684 0
M  V30 1574 C 150.274 -1.6806 -4.13124 0
M  V30 1575 C 150.975 -3.75345 -4.444 0
M  V30 1576 N 149.951 -3.03051 -4.51288 0
M  V30 1577 H 153.753 -1.99117 -2.1617 0
M  V30 1578 H 151.267 -1.17216 -1.12402 0
M  V30 1579 H 153.264 -0.517112 -4.13681 0
M  V30 1580 H 151.924 0.242139 -3.23796 0
M  V30 1581 H 152.935 -3.39293 -3.91281 0
M  V30 1582 H 149.612 -0.818629 -4.09396 0
M  V30 1583 H 151.002 -4.81691 -4.68427 0
M  V30 1584 N 153.722 1.14298 -1.08507 0
M  V30 1585 C 154.968 1.85854 -0.826438 0
M  V30 1586 C 155.323 1.81413 0.640878 0
M  V30 1587 O 154.616 1.23463 1.46518 0
M  V30 1588 C 154.81 3.33547 -1.28379 0
M  V30 1589 C 154.639 3.52369 -2.79403 0
M  V30 1590 C 153.409 3.67159 -3.47164 0
M  V30 1591 C 155.607 3.49203 -3.77573 0
M  V30 1592 N 153.589 3.74149 -4.86709 0
M  V30 1593 C 154.96 3.6245 -5.03021 0
M  V30 1594 C 157.015 3.32547 -3.70563 0
M  V30 1595 C 155.718 3.60761 -6.2229 0
M  V30 1596 C 157.744 3.32162 -4.89308 0
M  V30 1597 C 157.106 3.45949 -6.13595 0
M  V30 1598 H 153.205 0.696705 -0.355143 0
M  V30 1599 H 155.789 1.36981 -1.38362 0
M  V30 1600 H 153.96 3.81008 -0.754166 0
M  V30 1601 H 155.692 3.92867 -0.971469 0
M  V30 1602 H 152.447 3.68433 -2.9758 0
M  V30 1603 H 152.871 3.81359 -5.5937 0
M  V30 1604 H 157.513 3.20797 -2.75407 0
M  V30 1605 H 155.231 3.71286 -7.17755 0
M  V30 1606 H 158.817 3.20485 -4.85573 0
M  V30 1607 H 157.697 3.456 -7.03939 0
M  V30 1608 N 155.201 0.870884 1.31352 0
M  V30 1609 C 156.449 0.48132 1.96285 0
M  V30 1610 C 156.77 -0.969813 1.69173 0
M  V30 1611 O 156.04 -1.67998 1.00764 0
M  V30 1612 H 154.62 0.175002 0.726212 0
M  V30 1613 H 157.282 1.11087 1.60143 0
M  V30 1614 H 156.378 0.639825 3.05471 0
M  V30 1615 N 156.679 -1.44442 0.630414 0
M  V30 1616 C 157.609 -2.33418 -0.0618083 0
M  V30 1617 C 158.59 -1.48165 -0.835541 0
M  V30 1618 O 159.775 -1.76886 -0.801564 0
M  V30 1619 C 156.905 -3.31222 -1.04449 0
M  V30 1620 C 155.859 -4.26288 -0.382436 0
M  V30 1621 C 155.185 -5.13954 -1.47497 0
M  V30 1622 C 156.485 -5.1744 0.710865 0
M  V30 1623 H 158.179 -2.91548 0.681184 0
M  V30 1624 H 155.725 -1.40191 0.329026 0
M  V30 1625 H 157.678 -3.92351 -1.53748 0
M  V30 1626 H 156.402 -2.71299 -1.81836 0
M  V30 1627 H 155.061 -3.6649 0.0899054 0
M  V30 1628 H 154.709 -4.50385 -2.2397 0
M  V30 1629 H 154.409 -5.7837 -1.03737 0
M  V30 1630 H 155.933 -5.77955 -1.96979 0
M  V30 1631 H 157.347 -5.72509 0.300996 0
M  V30 1632 H 155.744 -5.90455 1.07156 0
M  V30 1633 H 156.814 -4.58496 1.57829 0
M  V30 1634 N 158.157 -0.370918 -1.53173 0
M  V30 1635 C 159.405 0.216673 -2.00935 0
M  V30 1636 C 159.726 1.48845 -1.25977 0
M  V30 1637 O 158.996 1.92286 -0.374551 0
M  V30 1638 H 157.576 0.0830565 -0.742368 0
M  V30 1639 H 160.238 -0.49838 -1.8842 0
M  V30 1640 H 159.334 0.439893 -3.08984 0
M  V30 1641 N 159.635 1.57281 -0.100228 0
M  V30 1642 C 160.567 2.11342 0.886972 0
M  V30 1643 C 161.58 1.05182 1.24261 0
M  V30 1644 O 162.769 1.32613 1.19483 0
M  V30 1645 C 159.869 2.5825 2.19454 0
M  V30 1646 C 159.042 3.88302 2.01346 0
M  V30 1647 C 158.101 4.21004 3.15661 0
M  V30 1648 O 157.127 4.9014 2.89398 0
M  V30 1649 N 158.329 3.76818 4.41575 0
M  V30 1650 H 161.094 2.96668 0.425216 0
M  V30 1651 H 158.655 1.61678 0.0847334 0
M  V30 1652 H 160.647 2.7717 2.94888 0
M  V30 1653 H 159.217 1.77907 2.57037 0
M  V30 1654 H 158.437 3.7848 1.10212 0
M  V30 1655 H 159.725 4.73375 1.8653 0
M  V30 1656 H 159.123 3.2102 4.65792 0
M  V30 1657 H 157.68 4.00882 5.13942 0
M  V30 1658 N 161.113 -0.173488 1.56642 0
M  V30 1659 C 162.359 -0.891784 1.8214 0
M  V30 1660 C 162.692 -1.8199 0.677736 0
M  V30 1661 O 161.967 -1.91842 -0.320446 0
M  V30 1662 C 162.25 -1.68933 3.18015 0
M  V30 1663 C 162.103 -0.784487 4.42906 0
M  V30 1664 C 163.422 -2.65748 3.50808 0
M  V30 1665 H 160.541 -0.322761 0.662567 0
M  V30 1666 H 163.183 -0.158095 1.89341 0
M  V30 1667 H 161.333 -2.31482 3.12007 0
M  V30 1668 H 163.005 -0.172046 4.60979 0
M  V30 1669 H 161.248 -0.0924117 4.33702 0
M  V30 1670 H 161.919 -1.37799 5.34524 0
M  V30 1671 H 164.395 -2.13327 3.57255 0
M  V30 1672 H 163.271 -3.18619 4.4696 0
M  V30 1673 H 163.532 -3.45842 2.75401 0
M  V30 1674 N 162.591 -1.51276 -0.441967 0
M  V30 1675 C 163.837 -1.63958 -1.19355 0
M  V30 1676 C 164.17 -0.352543 -1.90973 0
M  V30 1677 O 163.445 0.647627 -1.83401 0
M  V30 1678 C 163.728 -2.83979 -2.21422 0
M  V30 1679 C 163.581 -4.22646 -1.53918 0
M  V30 1680 C 164.9 -2.99521 -3.22451 0
M  V30 1681 H 162.019 -0.596709 -0.432559 0
M  V30 1682 H 164.661 -1.83748 -0.483398 0
M  V30 1683 H 162.811 -2.67237 -2.81987 0
M  V30 1684 H 164.483 -4.51045 -0.967256 0
M  V30 1685 H 162.726 -4.25558 -0.841615 0
M  V30 1686 H 163.397 -5.02609 -2.28229 0
M  V30 1687 H 165.873 -3.14944 -2.71937 0
M  V30 1688 H 164.749 -3.85072 -3.91166 0
M  V30 1689 H 165.01 -2.11391 -3.88287 0
M  V30 1690 N 164.069 0.697108 -1.41344 0
M  V30 1691 C 165.297 1.48593 -1.43972 0
M  V30 1692 C 165.712 1.88747 -0.0445612 0
M  V30 1693 O 165.069 1.56682 0.935785 0
M  V30 1694 C 165.12 2.74946 -2.34706 0
M  V30 1695 O 164.841 2.36484 -3.68791 0
M  V30 1696 C 166.342 3.687 -2.46121 0
M  V30 1697 H 163.562 0.457964 -0.490418 0
M  V30 1698 H 166.106 0.858429 -1.8561 0
M  V30 1699 H 164.261 3.33937 -1.9638 0
M  V30 1700 H 164.675 3.17918 -4.17167 0
M  V30 1701 H 166.149 4.54145 -3.13777 0
M  V30 1702 H 166.626 4.13081 -1.49199 0
M  V30 1703 H 167.232 3.15613 -2.85076 0
M  V30 1704 N 165.547 1.27147 0.931209 0
M  V30 1705 C 166.824 1.0401 1.65654 0
M  V30 1706 C 167.204 -0.426297 2.06751 0
M  V30 1707 O 166.552 -1.40879 1.79904 0
M  V30 1708 C 166.762 1.99834 2.86125 0
M  V30 1709 C 168.11 2.29007 3.57549 0
M  V30 1710 O 169.134 1.97779 2.96246 0
M  V30 1711 O 167.993 2.82222 4.67989 0
M  V30 1712 H 165.087 0.396239 0.725895 0
M  V30 1713 H 167.633 1.38397 0.982056 0
M  V30 1714 H 166.405 2.98744 2.52721 0
M  V30 1715 H 166.028 1.65987 3.61295 0
M  V30 1716 N 167.025 -1.13721 1.09112 0
M  V30 1717 C 168.255 -1.88499 0.845671 0
M  V30 1718 C 168.663 -1.79218 -0.606432 0
M  V30 1719 O 168.006 -1.1544 -1.42896 0
M  V30 1720 C 168.068 -3.38954 1.19793 0
M  V30 1721 C 167.732 -3.72018 2.65428 0
M  V30 1722 C 168.729 -3.7153 3.63677 0
M  V30 1723 C 166.414 -4.01775 3.01467 0
M  V30 1724 C 168.408 -4.00336 4.95994 0
M  V30 1725 C 166.095 -4.30243 4.33975 0
M  V30 1726 C 167.093 -4.29508 5.31048 0
M  V30 1727 O 166.781 -4.5728 6.61173 0
M  V30 1728 H 166.513 -0.603702 0.304171 0
M  V30 1729 H 169.067 -1.44903 1.45576 0
M  V30 1730 H 167.297 -3.83039 0.530871 0
M  V30 1731 H 168.986 -3.95052 0.932146 0
M  V30 1732 H 169.752 -3.4862 3.37179 0
M  V30 1733 H 165.631 -4.01496 2.26544 0
M  V30 1734 H 169.175 -3.99678 5.71755 0
M  V30 1735 H 165.072 -4.52625 4.60219 0
M  V30 1736 H 165.84 -4.74964 6.66597 0
M  V30 1737 N 168.503 -0.877838 -1.30888 0
M  V30 1738 C 169.749 -0.493426 -1.96706 0
M  V30 1739 C 170.082 0.953504 -1.6918 0
M  V30 1740 O 169.357 1.67266 -0.992594 0
M  V30 1741 C 169.64 -0.760429 -3.51979 0
M  V30 1742 C 169.493 -2.25747 -3.89048 0
M  V30 1743 C 170.812 -0.232148 -4.39487 0
M  V30 1744 H 167.931 -0.180746 -0.714493 0
M  V30 1745 H 170.573 -1.10052 -1.54882 0
M  V30 1746 H 168.723 -0.243715 -3.87735 0
M  V30 1747 H 170.395 -2.84204 -3.63354 0
M  V30 1748 H 168.638 -2.72694 -3.37373 0
M  V30 1749 H 169.309 -2.39491 -4.97341 0
M  V30 1750 H 171.785 -0.674314 -4.106 0
M  V30 1751 H 170.661 -0.448355 -5.47066 0
M  V30 1752 H 170.922 0.866297 -4.33529 0
M  V30 1753 N 169.982 1.44106 -0.638065 0
M  V30 1754 C 170.932 2.27843 0.0847285 0
M  V30 1755 C 171.916 1.39055 0.809471 0
M  V30 1756 O 173.108 1.62808 0.694435 0
M  V30 1757 C 170.237 3.26497 1.06089 0
M  V30 1758 C 169.323 4.22772 0.33541 0
M  V30 1759 N 169.714 5.01737 -0.639787 0
M  V30 1760 C 168.012 4.42227 0.578921 0
M  V30 1761 C 168.713 5.71792 -1.06904 0
M  V30 1762 N 167.689 5.42079 -0.406395 0
M  V30 1763 H 171.491 2.86305 -0.663814 0
M  V30 1764 H 169.005 1.55627 -0.464122 0
M  V30 1765 H 171.002 3.8525 1.59337 0
M  V30 1766 H 169.662 2.69595 1.80966 0
M  V30 1767 H 170.673 5.07799 -1.01789 0
M  V30 1768 H 167.35 3.96415 1.31003 0
M  V30 1769 H 168.74 6.45205 -1.8751 0
M  V30 1770 N 171.46 0.379036 1.52974 0
M  V30 1771 C 172.708 -0.206014 2.01047 0
M  V30 1772 C 173.029 -1.48175 1.26765 0
M  V30 1773 O 172.299 -1.92085 0.384743 0
M  V30 1774 H 170.879 -0.0791184 0.742798 0
M  V30 1775 H 173.541 0.508366 1.88153 0
M  V30 1776 H 172.637 -0.423501 3.09213 0
M  V30 1777 N 172.938 -1.57226 0.108567 0
M  V30 1778 C 174.215 -1.86333 -0.594939 0
M  V30 1779 C 174.595 -1.00788 -1.85486 0
M  V30 1780 O 173.943 -0.0839293 -2.28346 0
M  V30 1781 C 174.153 -3.37265 -0.897405 0
M  V30 1782 C 175.501 -4.05629 -1.25501 0
M  V30 1783 O 176.525 -3.42224 -0.987998 0
M  V30 1784 O 175.384 -5.17531 -1.75567 0
M  V30 1785 H 172.478 -0.771018 -0.2991 0
M  V30 1786 H 175.024 -1.69102 0.142283 0
M  V30 1787 H 173.796 -3.913 -0.00413806 0
M  V30 1788 H 173.419 -3.59889 -1.69014 0
M  V30 1789 N 174.416 0.165178 -1.56732 0
M  V30 1790 C 175.379 1.18822 -1.95995 0
M  V30 1791 C 176.379 1.3685 -0.84431 0
M  V30 1792 O 177.569 1.34152 -1.11126 0
M  V30 1793 C 174.701 2.5521 -2.26011 0
M  V30 1794 H 175.894 0.851825 -2.87548 0
M  V30 1795 H 173.447 0.407857 -1.50885 0
M  V30 1796 H 174.182 2.93852 -1.37191 0
M  V30 1797 H 173.967 2.43489 -3.07336 0
M  V30 1798 H 175.457 3.28927 -2.57288 0
M  V30 1799 N 175.894 1.51508 0.433938 0
M  V30 1800 C 176.824 1.76016 1.53429 0
M  V30 1801 C 177.805 0.610112 1.58782 0
M  V30 1802 O 178.99 0.853177 1.74455 0
M  V30 1803 C 176.12 1.88831 2.9148 0
M  V30 1804 C 175.074 3.04288 3.00987 0
M  V30 1805 C 174.4 3.0229 4.4105 0
M  V30 1806 C 175.7 4.44193 2.74754 0
M  V30 1807 H 177.394 2.68152 1.33171 0
M  V30 1808 H 174.94 1.29035 0.639214 0
M  V30 1809 H 176.893 2.04559 3.6842 0
M  V30 1810 H 175.617 0.933455 3.12976 0
M  V30 1811 H 174.276 2.8827 2.26486 0
M  V30 1812 H 173.924 2.04576 4.59519 0
M  V30 1813 H 173.624 3.79822 4.4834 0
M  V30 1814 H 175.148 3.20116 5.1996 0
M  V30 1815 H 176.562 4.60544 3.41426 0
M  V30 1816 H 174.959 5.23457 2.9345 0
M  V30 1817 H 176.029 4.53996 1.70339 0
M  V30 1818 N 177.372 -0.689602 1.41712 0
M  V30 1819 C 178.304 -1.815 1.39966 0
M  V30 1820 C 179.317 -1.59995 0.300917 0
M  V30 1821 O 180.506 -1.69387 0.563039 0
M  V30 1822 C 177.606 -3.18364 1.16179 0
M  V30 1823 C 176.779 -3.66847 2.38206 0
M  V30 1824 C 175.838 -4.82398 2.10186 0
M  V30 1825 O 174.864 -4.93706 2.83272 0
M  V30 1826 N 176.066 -5.70064 1.0958 0
M  V30 1827 H 178.831 -1.83488 2.36965 0
M  V30 1828 H 176.392 -0.872149 1.36401 0
M  V30 1829 H 178.384 -3.93301 0.953756 0
M  V30 1830 H 176.954 -3.11365 0.27756 0
M  V30 1831 H 176.174 -2.82751 2.74673 0
M  V30 1832 H 177.462 -3.95978 3.19498 0
M  V30 1833 H 176.86 -5.63565 0.491019 0
M  V30 1834 H 175.417 -6.44874 0.947656 0
M  V30 1835 N 178.85 -1.27639 -0.924453 0
M  V30 1836 C 179.797 -1.10644 -2.0255 0
M  V30 1837 C 180.767 -0.00658438 -1.66099 0
M  V30 1838 O 181.952 -0.16952 -1.90045 0
M  V30 1839 C 179.092 -0.76309 -3.36557 0
M  V30 1840 C 178.205 -1.94091 -3.85944 0
M  V30 1841 C 177.34 -1.53914 -5.08413 0
M  V30 1842 C 176.379 -2.68425 -5.50104 0
M  V30 1843 N 175.516 -2.28815 -6.63768 0
M  V30 1844 H 180.356 -2.04858 -2.16419 0
M  V30 1845 H 177.893 -1.01974 -1.06017 0
M  V30 1846 H 179.851 -0.544822 -4.13627 0
M  V30 1847 H 178.481 0.142102 -3.22487 0
M  V30 1848 H 177.533 -2.27162 -3.05125 0
M  V30 1849 H 178.845 -2.7998 -4.12811 0
M  V30 1850 H 177.999 -1.28231 -5.92994 0
M  V30 1851 H 176.738 -0.651391 -4.8333 0
M  V30 1852 H 175.743 -2.94819 -4.64071 0
M  V30 1853 H 176.968 -3.57826 -5.7718 0
M  V30 1854 H 174.914 -1.42495 -6.40337 0
M  V30 1855 H 174.831 -3.08242 -6.90306 0
M  V30 1856 H 176.099 -2.06387 -7.51681 0
M  V30 1857 N 180.328 1.1314 -1.09713 0
M  V30 1858 C 181.291 2.16831 -0.742751 0
M  V30 1859 C 182.291 1.59159 0.229129 0
M  V30 1860 O 183.481 1.74199 0.00693237 0
M  V30 1861 C 180.613 3.40756 -0.0989168 0
M  V30 1862 H 181.806 2.49695 -1.66109 0
M  V30 1863 H 179.359 1.2802 -0.896699 0
M  V30 1864 H 180.094 3.13485 0.830514 0
M  V30 1865 H 179.879 3.83888 -0.798265 0
M  V30 1866 H 181.369 4.17386 0.133524 0
M  V30 1867 N 181.806 0.884767 1.30421 0
M  V30 1868 C 182.769 0.356277 2.26414 0
M  V30 1869 C 183.769 -0.501124 1.52792 0
M  V30 1870 O 184.959 -0.30831 1.7145 0
M  V30 1871 C 182.091 -0.492316 3.37326 0
M  V30 1872 H 183.284 1.20389 2.74675 0
M  V30 1873 H 180.837 0.661607 1.41607 0
M  V30 1874 H 181.572 -1.36052 2.94381 0
M  V30 1875 H 181.357 0.121832 3.91911 0
M  V30 1876 H 182.847 -0.853871 4.08777 0
M  V30 1877 N 183.284 -1.43765 0.645699 0
M  V30 1878 C 184.231 -2.30745 -0.0504648 0
M  V30 1879 C 185.201 -1.4432 -0.822241 0
M  V30 1880 O 186.386 -1.73202 -0.800358 0
M  V30 1881 C 183.526 -3.29802 -1.0161 0
M  V30 1882 C 182.639 -4.31326 -0.241219 0
M  V30 1883 C 181.774 -5.17469 -1.19998 0
M  V30 1884 C 180.813 -6.10691 -0.415094 0
M  V30 1885 N 179.95 -6.89483 -1.32506 0
M  V30 1886 H 184.79 -2.8973 0.697155 0
M  V30 1887 H 182.327 -1.42738 0.355563 0
M  V30 1888 H 184.285 -3.85734 -1.58949 0
M  V30 1889 H 182.915 -2.72483 -1.73069 0
M  V30 1890 H 181.967 -3.77749 0.448334 0
M  V30 1891 H 183.279 -4.9743 0.369437 0
M  V30 1892 H 182.433 -5.7799 -1.84424 0
M  V30 1893 H 181.172 -4.51473 -1.84455 0
M  V30 1894 H 180.177 -5.49265 0.242565 0
M  V30 1895 H 181.402 -6.78727 0.224966 0
M  V30 1896 H 179.348 -6.26142 -1.95657 0
M  V30 1897 H 179.265 -7.52081 -0.768783 0
M  V30 1898 H 180.533 -7.54516 -1.9577 0
M  V30 1899 N 184.763 -0.387143 -1.52771 0
M  V30 1900 C 185.726 0.436939 -2.24997 0
M  V30 1901 C 186.726 0.991991 -1.26555 0
M  V30 1902 O 187.916 0.874335 -1.50669 0
M  V30 1903 C 185.048 1.61281 -3.00335 0
M  V30 1904 H 186.241 -0.195365 -2.99263 0
M  V30 1905 H 183.794 -0.139218 -1.55679 0
M  V30 1906 H 184.529 2.2826 -2.30364 0
M  V30 1907 H 184.314 1.22154 -3.72587 0
M  V30 1908 H 185.804 2.19629 -3.5518 0
M  V30 1909 N 186.241 1.57166 -0.116904 0
M  V30 1910 C 187.489 1.94737 0.540533 0
M  V30 1911 C 187.81 1.00096 1.67349 0
M  V30 1912 O 187.08 0.0568854 1.95817 0
M  V30 1913 H 185.66 0.718981 0.202669 0
M  V30 1914 H 188.322 1.94017 -0.185353 0
M  V30 1915 H 187.418 2.97719 0.936483 0
M  V30 1916 N 187.719 -0.156864 1.56817 0
M  V30 1917 C 188.649 -1.19589 2.00551 0
M  V30 1918 C 189.63 -1.4536 0.883426 0
M  V30 1919 O 190.815 -1.56449 1.15054 0
M  V30 1920 C 187.945 -2.53143 2.37773 0
M  V30 1921 C 186.899 -2.41913 3.53075 0
M  V30 1922 C 186.225 -3.80088 3.76081 0
M  V30 1923 C 187.525 -1.91157 4.86062 0
M  V30 1924 H 189.219 -0.832293 2.87599 0
M  V30 1925 H 186.765 -0.398918 1.38364 0
M  V30 1926 H 188.718 -3.26047 2.66967 0
M  V30 1927 H 187.442 -2.91319 1.4765 0
M  V30 1928 H 186.101 -1.71462 3.24031 0
M  V30 1929 H 185.749 -4.15683 2.83225 0
M  V30 1930 H 185.449 -3.73439 4.53671 0
M  V30 1931 H 186.973 -4.54556 4.0769 0
M  V30 1932 H 188.387 -2.53846 5.14038 0
M  V30 1933 H 186.784 -1.95422 5.67389 0
M  V30 1934 H 187.854 -0.866673 4.77092 0
M  V30 1935 N 189.197 -1.51736 -0.425897 0
M  V30 1936 C 190.127 -1.76827 -1.52494 0
M  V30 1937 C 191.108 -0.618524 -1.58456 0
M  V30 1938 O 192.293 -0.862416 -1.74 0
M  V30 1939 C 189.423 -1.90374 -2.90474 0
M  V30 1940 C 188.377 -3.0588 -2.99369 0
M  V30 1941 C 187.703 -3.04625 -4.3944 0
M  V30 1942 C 189.003 -4.45644 -2.72394 0
M  V30 1943 H 190.697 -2.68855 -1.31748 0
M  V30 1944 H 188.243 -1.29372 -0.632362 0
M  V30 1945 H 190.196 -2.0651 -3.6733 0
M  V30 1946 H 188.92 -0.95004 -3.12477 0
M  V30 1947 H 187.579 -2.89467 -2.24954 0
M  V30 1948 H 187.227 -2.0701 -4.58428 0
M  V30 1949 H 186.927 -3.82195 -4.46319 0
M  V30 1950 H 188.451 -3.22869 -5.18255 0
M  V30 1951 H 189.865 -4.62348 -3.38979 0
M  V30 1952 H 188.262 -5.25006 -2.9067 0
M  V30 1953 H 189.332 -4.54893 -1.67929 0
M  V30 1954 N 190.675 0.682077 -1.42076 0
M  V30 1955 C 191.638 1.77756 -1.44691 0
M  V30 1956 C 192.638 1.5726 -0.335535 0
M  V30 1957 O 193.828 1.63686 -0.596037 0
M  V30 1958 C 190.96 3.16301 -1.27146 0
M  V30 1959 H 192.153 1.76826 -2.42224 0
M  V30 1960 H 189.706 0.891012 -1.28416 0
M  V30 1961 H 190.441 3.22862 -0.305075 0
M  V30 1962 H 190.226 3.32581 -2.07683 0
M  V30 1963 H 191.716 3.96241 -1.31843 0
M  V30 1964 N 192.153 1.28127 0.917671 0
M  V30 1965 C 193.083 1.14248 2.03641 0
M  V30 1966 C 194.064 0.0412748 1.7005 0
M  V30 1967 O 195.249 0.217566 1.92977 0
M  V30 1968 C 192.379 0.799431 3.37974 0
M  V30 1969 C 191.333 1.85497 3.85713 0
M  V30 1970 C 190.659 1.36565 5.16966 0
M  V30 1971 C 191.959 3.26085 4.08002 0
M  V30 1972 H 193.653 2.07835 2.15511 0
M  V30 1973 H 191.199 1.00064 1.03553 0
M  V30 1974 H 193.152 0.689114 4.15727 0
M  V30 1975 H 191.876 -0.172145 3.26146 0
M  V30 1976 H 190.535 1.95437 3.10161 0
M  V30 1977 H 190.183 0.383253 5.01538 0
M  V30 1978 H 189.883 2.07143 5.49878 0
M  V30 1979 H 191.407 1.26848 5.97279 0
M  V30 1980 H 192.821 3.19089 4.76293 0
M  V30 1981 H 191.218 3.94462 4.52238 0
M  V30 1982 H 192.288 3.70394 3.12948 0
M  V30 1983 N 193.631 -1.12557 1.10312 0
M  V30 1984 C 194.856 -1.88405 0.867085 0
M  V30 1985 C 195.281 -1.79038 -0.576817 0
M  V30 1986 O 194.639 -1.14439 -1.40618 0
M  V30 1987 C 194.687 -3.3563 1.31851 0
M  V30 1988 O 193.791 -4.09565 0.482734 0
M  V30 1989 H 193.132 -0.585455 0.313271 0
M  V30 1990 H 195.662 -1.42352 1.4696 0
M  V30 1991 H 195.672 -3.86469 1.3079 0
M  V30 1992 H 194.347 -3.41765 2.37001 0
M  V30 1993 H 192.924 -3.68695 0.558448 0
M  V30 1994 N 195.109 -0.891671 -1.2995 0
M  V30 1995 C 196.072 -0.36828 -2.26222 0
M  V30 1996 C 197.072 0.493014 -1.53056 0
M  V30 1997 O 198.262 0.299213 -1.71611 0
M  V30 1998 C 195.394 0.47442 -3.37583 0
M  V30 1999 H 196.587 -1.21844 -2.74033 0
M  V30 2000 H 194.14 -0.669107 -1.41254 0
M  V30 2001 H 194.875 1.34489 -2.95099 0
M  V30 2002 H 194.66 -0.142615 -3.91841 0
M  V30 2003 H 196.15 0.83218 -4.09224 0
M  V30 2004 N 196.587 1.43421 -0.653314 0
M  V30 2005 C 197.517 2.33487 0.0246656 0
M  V30 2006 C 198.498 1.49475 0.811863 0
M  V30 2007 O 199.683 1.78139 0.773322 0
M  V30 2008 C 196.813 3.32841 0.99166 0
M  V30 2009 C 195.767 4.26842 0.314568 0
M  V30 2010 C 195.093 5.16236 1.39302 0
M  V30 2011 C 196.393 5.16243 -0.793095 0
M  V30 2012 H 198.087 2.90427 -0.727481 0
M  V30 2013 H 195.633 1.39649 -0.351287 0
M  V30 2014 H 197.586 3.94747 1.47487 0
M  V30 2015 H 196.31 2.74158 1.77497 0
M  V30 2016 H 194.969 3.663 -0.148199 0
M  V30 2017 H 194.617 4.53891 2.16776 0
M  V30 2018 H 194.317 5.79948 0.945223 0
M  V30 2019 H 195.841 5.81015 1.87759 0
M  V30 2020 H 197.255 5.71958 -0.392039 0
M  V30 2021 H 195.652 5.88676 -1.16536 0
M  V30 2022 H 196.722 4.55927 -1.65103 0
M  V30 2023 N 198.065 0.39524 1.52563 0
M  V30 2024 C 199.293 -0.184943 2.06072 0
M  V30 2025 C 199.708 -1.40021 1.26647 0
M  V30 2026 O 199.065 -1.79767 0.314672 0
M  V30 2027 C 199.116 -0.549179 3.57304 0
M  V30 2028 O 198.837 0.617813 4.33722 0
M  V30 2029 C 200.338 -1.18459 4.2718 0
M  V30 2030 H 197.558 -0.0265025 0.670476 0
M  V30 2031 H 200.102 0.562184 1.96621 0
M  V30 2032 H 198.257 -1.2462 3.66809 0
M  V30 2033 H 198.671 0.317091 5.23541 0
M  V30 2034 H 200.145 -1.38976 5.34219 0
M  V30 2035 H 200.622 -2.15368 3.82771 0
M  V30 2036 H 201.228 -0.528163 4.22008 0
M  V30 2037 N 199.544 -1.57102 0.125237 0
M  V30 2038 C 200.791 -1.95407 -0.531248 0
M  V30 2039 C 201.119 -1.0089 -1.66287 0
M  V30 2040 O 200.374 -0.0339431 -1.95671 0
M  V30 2041 C 200.673 -3.40096 -1.09862 0
M  V30 2042 C 200.339 -4.50815 -0.0876989 0
M  V30 2043 C 199.001 -4.80824 0.19026 0
M  V30 2044 C 201.353 -5.17724 0.600902 0
M  V30 2045 C 198.681 -5.75058 1.163 0
M  V30 2046 C 201.033 -6.13005 1.56231 0
M  V30 2047 C 199.697 -6.41403 1.8482 0
M  V30 2048 H 198.967 -0.715046 -0.194397 0
M  V30 2049 H 201.614 -1.90373 0.207463 0
M  V30 2050 H 199.919 -3.41855 -1.91422 0
M  V30 2051 H 201.616 -3.6705 -1.61478 0
M  V30 2052 H 198.206 -4.27444 -0.314528 0
M  V30 2053 H 202.39 -4.94691 0.399333 0
M  V30 2054 H 197.646 -5.95362 1.39117 0
M  V30 2055 H 201.82 -6.63934 2.10153 0
M  V30 2056 H 199.447 -7.14229 2.60349 0
M  V30 2057 N 201.022 0.148545 -1.56898 0
M  V30 2058 C 201.985 1.16736 -1.97244 0
M  V30 2059 C 202.985 1.35947 -0.858777 0
M  V30 2060 O 204.175 1.32966 -1.12542 0
M  V30 2061 C 201.307 2.52798 -2.28705 0
M  V30 2062 H 202.5 0.821279 -2.88435 0
M  V30 2063 H 200.053 0.391831 -1.51309 0
M  V30 2064 H 200.788 2.92381 -1.403 0
M  V30 2065 H 200.573 2.40216 -3.09901 0
M  V30 2066 H 202.063 3.26179 -2.60762 0
M  V30 2067 N 202.5 1.5196 0.417844 0
M  V30 2068 C 203.748 1.65263 1.16329 0
M  V30 2069 C 204.069 0.380634 1.91249 0
M  V30 2070 O 203.339 -0.604214 1.86349 0
M  V30 2071 H 201.919 0.60912 0.432414 0
M  V30 2072 H 204.581 1.88969 0.477162 0
M  V30 2073 H 203.677 2.4896 1.88217 0
M  V30 2074 N 203.978 -0.674533 1.42435 0
M  V30 2075 C 204.908 -1.80009 1.48724 0
M  V30 2076 C 205.889 -1.6659 0.343793 0
M  V30 2077 O 207.074 -1.86007 0.558137 0
M  V30 2078 C 204.204 -3.18306 1.38919 0
M  V30 2079 C 203.158 -3.46461 2.51294 0
M  V30 2080 C 202.484 -4.84335 2.26547 0
M  V30 2081 C 203.784 -3.43328 3.93603 0
M  V30 2082 H 205.478 -1.75004 2.42928 0
M  V30 2083 H 203.024 -0.840533 1.16923 0
M  V30 2084 H 204.977 -3.9678 1.41927 0
M  V30 2085 H 203.701 -3.2399 0.412094 0
M  V30 2086 H 202.36 -2.70348 2.47604 0
M  V30 2087 H 202.008 -4.86669 1.2713 0
M  V30 2088 H 201.708 -5.04136 3.01861 0
M  V30 2089 H 203.232 -5.65094 2.31304 0
M  V30 2090 H 204.646 -4.11772 3.98894 0
M  V30 2091 H 203.043 -3.74664 4.68771 0
M  V30 2092 H 204.113 -2.41897 4.20255 0
M  V30 2093 N 205.456 -1.28612 -0.910864 0
M  V30 2094 C 206.696 -1.1719 -1.67469 0
M  V30 2095 C 207.06 0.274441 -1.90028 0
M  V30 2096 O 208.261 0.511425 -2.6389 0
M  V30 2097 C 206.532 -1.95137 -2.99427 0
M  V30 2098 S 208.091 -2.00122 -3.90508 0
M  V30 2099 H 204.909 -0.41806 -0.575106 0
M  V30 2100 H 207.511 -1.6275 -1.08317 0
M  V30 2101 H 206.215 -2.99381 -2.80712 0
M  V30 2102 H 205.746 -1.50137 -3.63624 0
M  V30 2103 H 207.761 -1.10981 -4.8363 0
M  V30 2104 N 206.934 1.1197 -1.10907 0
M  V30 2105 C 208.164 1.8713 -0.875553 0
M  V30 2106 C 208.572 1.8016 0.577843 0
M  V30 2107 O 207.915 1.17699 1.41042 0
M  V30 2108 C 207.977 3.37005 -1.2517 0
M  V30 2109 C 207.641 3.67748 -2.71313 0
M  V30 2110 C 208.638 3.65698 -3.69542 0
M  V30 2111 C 206.323 3.96928 -3.07821 0
M  V30 2112 C 208.317 3.92395 -5.023 0
M  V30 2113 C 206.004 4.23284 -4.40765 0
M  V30 2114 C 207.002 4.21005 -5.37814 0
M  V30 2115 O 206.69 4.46704 -6.68364 0
M  V30 2116 H 206.422 0.598786 -0.313737 0
M  V30 2117 H 208.976 1.42568 -1.47863 0
M  V30 2118 H 207.206 3.82146 -0.591741 0
M  V30 2119 H 208.895 3.93519 -0.994877 0
M  V30 2120 H 209.661 3.43211 -3.42682 0
M  V30 2121 H 205.54 3.97841 -2.32902 0
M  V30 2122 H 209.084 3.90531 -5.78041 0
M  V30 2123 H 204.981 4.45246 -4.67361 0
M  V30 2124 H 205.749 4.64299 -6.74069 0
M  V30 2125 N 208.412 0.89855 1.29475 0
M  V30 2126 C 209.659 0.523882 1.95606 0
M  V30 2127 C 209.987 -0.929608 1.70847 0
M  V30 2128 O 209.242 -1.67401 1.01367 0
M  V30 2129 C 209.541 0.761398 3.49195 0
M  V30 2130 C 209.207 2.19207 3.94029 0
M  V30 2131 C 207.869 2.58326 4.05982 0
M  V30 2132 C 210.221 3.12379 4.17216 0
M  V30 2133 C 207.549 3.898 4.38489 0
M  V30 2134 C 209.901 4.43401 4.51197 0
M  V30 2135 C 208.565 4.82394 4.61359 0
M  V30 2136 H 207.835 0.191702 0.715773 0
M  V30 2137 H 210.482 1.13699 1.54094 0
M  V30 2138 H 208.787 0.0653622 3.91745 0
M  V30 2139 H 210.484 0.450904 3.98457 0
M  V30 2140 H 207.074 1.87846 3.85242 0
M  V30 2141 H 211.258 2.83371 4.07449 0
M  V30 2142 H 206.514 4.19734 4.44559 0
M  V30 2143 H 210.688 5.15623 4.68087 0
M  V30 2144 H 208.315 5.84306 4.86303 0
M  V30 2145 N 209.89 -1.43072 0.660911 0
M  V30 2146 C 210.838 -2.32569 -0.0378199 0
M  V30 2147 C 211.832 -1.49046 -0.805092 0
M  V30 2148 O 213.038 -1.65206 -0.714624 0
M  V30 2149 H 209.413 -0.75136 -0.031019 0
M  V30 2150 H 211.384 -2.89216 0.734609 0
M  V30 2151 C 210.133 -3.33453 -0.985124 0
M  V30 2152 H 209.456 -3.97752 -0.404147 0
M  V30 2153 H 210.896 -3.98691 -1.44297 0
M  V30 2154 C 209.355 -2.64642 -2.08486 0
M  V30 2155 O 209.885 -2.46776 -3.16961 0
M  V30 2156 N 208.091 -2.23891 -1.8526 0
M  V30 2157 H 207.638 -2.38621 -0.970449 0
M  V30 2158 H 207.596 -1.78181 -2.59034 0
M  V30 2159 N 211.368 -0.403325 -1.52352 0
M  V30 2160 C 212.598 0.17376 -2.05868 0
M  V30 2161 C 213.006 1.39898 -1.27378 0
M  V30 2162 O 212.349 1.80939 -0.31729 0
M  V30 2163 C 212.411 0.594756 -3.54546 0
M  V30 2164 C 212.075 -0.518926 -4.54044 0
M  V30 2165 C 213.072 -1.3807 -5.01231 0
M  V30 2166 C 210.757 -0.689961 -4.97539 0
M  V30 2167 C 212.751 -2.39852 -5.90551 0
M  V30 2168 C 210.438 -1.71109 -5.86656 0
M  V30 2169 C 211.436 -2.56378 -6.33056 0
M  V30 2170 O 211.124 -3.56743 -7.20409 0
M  V30 2171 H 210.856 0.0264951 -0.675481 0
M  V30 2172 H 213.41 -0.571179 -1.97299 0
M  V30 2173 H 211.64 1.39189 -3.60782 0
M  V30 2174 H 213.329 1.0991 -3.90736 0
M  V30 2175 H 214.095 -1.25994 -4.68349 0
M  V30 2176 H 209.974 -0.035939 -4.60986 0
M  V30 2177 H 213.518 -3.06441 -6.26689 0
M  V30 2178 H 209.415 -1.83218 -6.18952 0
M  V30 2179 H 210.183 -3.52918 -7.38506 0
M  V30 2180 N 212.846 1.57033 -0.133567 0
M  V30 2181 C 213.796 2.12641 0.822671 0
M  V30 2182 C 214.78 1.05081 1.21847 0
M  V30 2183 O 215.972 1.31287 1.18713 0
M  V30 2184 C 213.101 2.74094 2.06706 0
M  V30 2185 C 212.187 3.88757 1.69497 0
M  V30 2186 N 212.578 4.95194 1.03037 0
M  V30 2187 C 210.876 3.99213 1.98859 0
M  V30 2188 C 211.577 5.75414 0.852873 0
M  V30 2189 N 210.553 5.25726 1.3825 0
M  V30 2190 H 214.355 2.92308 0.305537 0
M  V30 2191 H 211.869 1.62256 0.0684276 0
M  V30 2192 H 213.866 3.12285 2.76195 0
M  V30 2193 H 212.526 1.95896 2.5895 0
M  V30 2194 H 213.537 5.13247 0.692669 0
M  V30 2195 H 210.214 3.32075 2.53047 0
M  V30 2196 H 211.604 6.71089 0.330091 0
M  V30 2197 N 214.325 -0.140222 1.56975 0
M  V30 2198 C 215.602 -0.880769 1.74648 0
M  V30 2199 C 215.982 -1.99036 0.703404 0
M  V30 2200 O 215.33 -2.26821 -0.27648 0
M  V30 2201 C 215.54 -1.417 3.18939 0
M  V30 2202 C 216.888 -1.87774 3.80823 0
M  V30 2203 O 217.912 -1.51427 3.2241 0
M  V30 2204 O 216.771 -2.54827 4.83452 0
M  V30 2205 H 213.865 -0.416713 0.714338 0
M  V30 2206 H 216.411 -0.125618 1.69234 0
M  V30 2207 H 215.183 -0.619902 3.86359 0
M  V30 2208 H 214.806 -2.23546 3.28805 0
M  V30 2209 N 215.803 -1.52179 -0.40978 0
M  V30 2210 C 217.049 -1.66453 -1.15851 0
M  V30 2211 C 217.382 -0.392972 -1.90182 0
M  V30 2212 O 216.657 0.608579 -1.84734 0
M  V30 2213 C 216.94 -2.88612 -2.15349 0
M  V30 2214 C 216.793 -4.25815 -1.44918 0
M  V30 2215 C 218.112 -3.06294 -3.16026 0
M  V30 2216 H 215.231 -0.60575 -0.419805 0
M  V30 2217 H 217.873 -1.84732 -0.444314 0
M  V30 2218 H 216.023 -2.73158 -2.76255 0
M  V30 2219 H 217.695 -4.52995 -0.871365 0
M  V30 2220 H 215.938 -4.27247 -0.751159 0
M  V30 2221 H 216.609 -5.07337 -2.17516 0
M  V30 2222 H 219.085 -3.20641 -2.65195 0
M  V30 2223 H 217.961 -3.93283 -3.8291 0
M  V30 2224 H 218.222 -2.19579 -3.83715 0
M  V30 2225 N 217.281 0.66697 -1.42791 0
M  V30 2226 C 218.529 1.42417 -1.43394 0
M  V30 2227 C 218.85 1.94925 -0.0542373 0
M  V30 2228 O 218.12 1.73564 0.908415 0
M  V30 2229 H 216.7 0.528515 -0.527902 0
M  V30 2230 H 219.362 0.787562 -1.78279 0
M  V30 2231 H 218.458 2.27333 -2.13837 0
M  V30 2232 N 218.759 1.29093 0.90403 0
M  V30 2233 C 220.008 1.16187 1.64874 0
M  V30 2234 C 220.321 -0.286742 1.93487 0
M  V30 2235 O 221.527 -0.537062 2.66135 0
M  V30 2236 C 219.983 2.03177 2.97064 0
M  V30 2237 C 219.591 3.52836 2.76062 0
M  V30 2238 C 221.335 1.98984 3.74974 0
M  V30 2239 C 219.242 4.31945 4.03952 0
M  V30 2240 H 218.172 0.431246 0.618501 0
M  V30 2241 H 220.823 1.53699 1.00243 0
M  V30 2242 H 219.205 1.5853 3.62883 0
M  V30 2243 H 220.379 4.05507 2.18863 0
M  V30 2244 H 218.694 3.58656 2.11553 0
M  V30 2245 H 221.291 2.55351 4.69787 0
M  V30 2246 H 221.634 0.968815 4.0487 0
M  V30 2247 H 222.167 2.41652 3.15989 0
M  V30 2248 H 218.906 5.34667 3.79225 0
M  V30 2249 H 218.426 3.84045 4.60727 0
M  V30 2250 H 220.105 4.42379 4.72133 0
M  V30 2251 N 220.237 -1.11381 1.11499 0
M  V30 2252 C 221.477 -1.84763 0.874188 0
M  V30 2253 C 221.841 -1.82726 -0.589496 0
M  V30 2254 O 223.042 -2.51562 -0.947089 0
M  V30 2255 C 221.313 -3.27931 1.42112 0
M  V30 2256 S 222.872 -4.18557 1.31739 0
M  V30 2257 H 219.69 -0.637115 0.315603 0
M  V30 2258 H 222.292 -1.34097 1.42261 0
M  V30 2259 H 220.996 -3.26978 2.48019 0
M  V30 2260 H 220.527 -3.83665 0.869761 0
M  V30 2261 H 222.542 -4.95396 0.282335 0
M  V30 2262 N 221.715 -0.905404 -1.28997 0
M  V30 2263 C 222.662 -0.385892 -2.27551 0
M  V30 2264 C 223.632 0.535113 -1.57244 0
M  V30 2265 O 224.817 0.459119 -1.85194 0
M  V30 2266 C 221.957 0.375461 -3.43051 0
M  V30 2267 C 221.07 -0.577092 -4.28128 0
M  V30 2268 C 220.205 0.201879 -5.30816 0
M  V30 2269 C 219.244 -0.744829 -6.07551 0
M  V30 2270 N 218.381 9.42587e-05 -7.021 0
M  V30 2271 H 223.221 -1.23139 -2.71368 0
M  V30 2272 H 220.758 -0.618542 -1.33463 0
M  V30 2273 H 222.716 0.832992 -4.088 0
M  V30 2274 H 221.346 1.18537 -3.00248 0
M  V30 2275 H 220.398 -1.15315 -3.62501 0
M  V30 2276 H 221.71 -1.30152 -4.8152 0
M  V30 2277 H 220.864 0.720351 -6.02408 0
M  V30 2278 H 219.603 0.959413 -4.7817 0
M  V30 2279 H 218.608 -1.27475 -5.34818 0
M  V30 2280 H 219.833 -1.50178 -6.62286 0
M  V30 2281 H 217.779 0.739791 -6.51815 0
M  V30 2282 H 217.696 -0.664321 -7.53076 0
M  V30 2283 H 218.964 0.498644 -7.77903 0
M  V30 2284 N 223.193 1.4272 -0.668489 0
M  V30 2285 C 224.156 2.292 0.00448567 0
M  V30 2286 C 225.156 1.43001 0.735339 0
M  V30 2287 O 226.346 1.64461 0.57429 0
M  V30 2288 C 223.478 3.25375 1.01705 0
M  V30 2289 H 224.671 2.90199 -0.756608 0
M  V30 2290 H 222.224 1.50254 -0.430506 0
M  V30 2291 H 222.959 2.69301 1.80686 0
M  V30 2292 H 222.744 3.88944 0.496463 0
M  V30 2293 H 224.234 3.90245 1.48655 0
M  V30 2294 N 224.671 0.411399 1.52136 0
M  V30 2295 C 225.917 -0.163888 2.02137 0
M  V30 2296 C 226.25 -1.44597 1.29636 0
M  V30 2297 O 225.525 -1.90272 0.403353 0
M  V30 2298 C 225.808 -0.40927 3.57767 0
M  V30 2299 C 225.661 0.889643 4.40914 0
M  V30 2300 C 226.98 -1.19042 4.23694 0
M  V30 2301 H 224.099 -0.0580896 0.734707 0
M  V30 2302 H 226.741 0.54531 1.82007 0
M  V30 2303 H 224.891 -1.0134 3.7505 0
M  V30 2304 H 226.563 1.52575 4.35337 0
M  V30 2305 H 224.806 1.50011 4.07037 0
M  V30 2306 H 225.477 0.672314 5.4789 0
M  V30 2307 H 227.953 -0.678942 4.10524 0
M  V30 2308 H 226.829 -1.33086 5.32522 0
M  V30 2309 H 227.09 -2.21166 3.82803 0
M  V30 2310 N 226.149 -1.5696 0.141893 0
M  V30 2311 C 227.112 -2.15316 -0.785587 0
M  V30 2312 C 228.112 -1.09366 -1.1788 0
M  V30 2313 O 229.302 -1.35031 -1.10056 0
M  V30 2314 C 226.434 -2.71211 -2.06537 0
M  V30 2315 H 227.627 -2.98608 -0.278041 0
M  V30 2316 H 225.18 -1.5593 -0.107519 0
M  V30 2317 H 225.915 -1.91571 -2.6167 0
M  V30 2318 H 225.7 -3.4872 -1.79268 0
M  V30 2319 H 227.19 -3.16189 -2.72789 0
M  V30 2320 N 227.627 0.131896 -1.57047 0
M  V30 2321 C 228.56 1.19236 -1.94571 0
M  V30 2322 C 229.538 1.40782 -0.813576 0
M  V30 2323 O 230.722 1.55148 -1.07058 0
M  V30 2324 C 227.849 2.54858 -2.23081 0
M  V30 2325 C 226.895 2.49817 -3.45679 0
M  V30 2326 S 227.728 1.95036 -4.98719 0
M  V30 2327 C 228.884 3.32357 -5.30367 0
M  V30 2328 H 229.117 0.872297 -2.84215 0
M  V30 2329 H 226.65 0.338134 -1.50652 0
M  V30 2330 H 228.608 3.32898 -2.40185 0
M  V30 2331 H 227.269 2.84047 -1.34074 0
M  V30 2332 H 226.462 3.49688 -3.62952 0
M  V30 2333 H 226.064 1.79892 -3.27895 0
M  V30 2334 H 228.356 4.28525 -5.2476 0
M  V30 2335 H 229.299 3.19923 -6.31708 0
M  V30 2336 H 229.707 3.3019 -4.57859 0
M  V30 2337 N 229.106 1.52395 0.401703 0
M  V30 2338 C 230.036 1.79231 1.49661 0
M  V30 2339 C 231.017 0.643654 1.57452 0
M  V30 2340 O 232.202 0.889989 1.72606 0
M  V30 2341 C 229.332 1.94971 2.87409 0
M  V30 2342 C 228.286 3.10604 2.94465 0
M  V30 2343 C 227.612 3.11577 4.34538 0
M  V30 2344 C 228.912 4.49921 2.6527 0
M  V30 2345 H 230.606 2.70917 1.27454 0
M  V30 2346 H 228.152 1.30362 0.6117 0
M  V30 2347 H 230.105 2.12328 3.63999 0
M  V30 2348 H 228.829 0.999632 3.10926 0
M  V30 2349 H 227.488 2.93009 2.20321 0
M  V30 2350 H 227.136 2.14277 4.55076 0
M  V30 2351 H 226.836 3.89247 4.40183 0
M  V30 2352 H 228.36 3.31073 5.13053 0
M  V30 2353 H 229.774 4.67683 3.31581 0
M  V30 2354 H 228.171 5.29564 2.82281 0
M  V30 2355 H 229.241 4.57507 1.60671 0
M  V30 2356 N 230.584 -0.659388 1.43143 0
M  V30 2357 C 231.83 -1.41984 1.45644 0
M  V30 2358 C 232.185 -1.92245 0.0771718 0
M  V30 2359 O 231.478 -1.68976 -0.903205 0
M  V30 2360 C 231.672 -2.62206 2.42864 0
M  V30 2361 C 231.501 -2.23711 3.90107 0
M  V30 2362 C 230.271 -2.12332 4.58523 0
M  V30 2363 C 232.469 -1.84384 4.80112 0
M  V30 2364 N 230.451 -1.67102 5.9072 0
M  V30 2365 C 231.822 -1.5019 6.01534 0
M  V30 2366 C 233.877 -1.71512 4.67427 0
M  V30 2367 C 232.58 -1.04414 7.11681 0
M  V30 2368 C 234.606 -1.27142 5.77572 0
M  V30 2369 C 233.968 -0.938808 6.98116 0
M  V30 2370 H 230.067 -0.515448 0.588079 0
M  V30 2371 H 232.651 -0.759409 1.79279 0
M  V30 2372 H 230.822 -3.25917 2.11265 0
M  V30 2373 H 232.554 -3.28877 2.35843 0
M  V30 2374 H 229.309 -2.31893 4.12944 0
M  V30 2375 H 229.733 -1.46866 6.60878 0
M  V30 2376 H 234.375 -1.95868 3.74694 0
M  V30 2377 H 232.093 -0.788061 8.04248 0
M  V30 2378 H 235.679 -1.17681 5.69774 0
M  V30 2379 H 234.559 -0.6007 7.81896 0
M  V30 2380 N 232.062 -1.29571 -0.897171 0
M  V30 2381 C 233.009 -1.14916 -2.00158 0
M  V30 2382 C 233.979 -0.0418149 -1.66047 0
M  V30 2383 O 235.164 -0.209793 -1.89643 0
M  V30 2384 C 232.304 -0.834307 -3.34863 0
M  V30 2385 C 231.417 -2.02234 -3.8174 0
M  V30 2386 C 230.552 -1.64664 -5.05034 0
M  V30 2387 C 229.591 -2.80033 -5.44286 0
M  V30 2388 N 228.728 -2.42843 -6.58765 0
M  V30 2389 H 233.568 -2.09403 -2.12025 0
M  V30 2390 H 231.105 -1.042 -1.0383 0
M  V30 2391 H 233.063 -0.632436 -4.12379 0
M  V30 2392 H 231.693 0.0736656 -3.22716 0
M  V30 2393 H 230.745 -2.33583 -3.00238 0
M  V30 2394 H 232.057 -2.88673 -4.06779 0
M  V30 2395 H 231.211 -1.4078 -5.9014 0
M  V30 2396 H 229.95 -0.753766 -4.8184 0
M  V30 2397 H 228.955 -3.04596 -4.57713 0
M  V30 2398 H 230.18 -3.69989 -5.6946 0
M  V30 2399 H 228.126 -1.56046 -6.3717 0
M  V30 2400 H 228.043 -3.22815 -6.83613 0
M  V30 2401 H 229.311 -2.22285 -7.47134 0
M  V30 2402 N 233.54 1.10788 -1.12088 0
M  V30 2403 C 234.47 2.19083 -0.807755 0
M  V30 2404 C 235.451 1.6858 0.226859 0
M  V30 2405 O 236.636 1.93997 0.0888475 0
M  V30 2406 C 233.766 3.46344 -0.257576 0
M  V30 2407 C 232.72 4.101 -1.22483 0
M  V30 2408 C 232.046 5.32016 -0.535052 0
M  V30 2409 C 233.346 4.54236 -2.57811 0
M  V30 2410 H 235.04 2.45534 -1.71328 0
M  V30 2411 H 232.586 1.1801 -0.825205 0
M  V30 2412 H 234.539 4.21392 -0.0262679 0
M  V30 2413 H 233.263 3.19373 0.683278 0
M  V30 2414 H 231.922 3.37054 -1.44189 0
M  V30 2415 H 231.57 5.01319 0.410827 0
M  V30 2416 H 231.27 5.75625 -1.18024 0
M  V30 2417 H 232.794 6.09799 -0.312695 0
M  V30 2418 H 234.208 5.20575 -2.40155 0
M  V30 2419 H 232.605 5.08682 -3.18375 0
M  V30 2420 H 233.675 3.6734 -3.16528 0
M  V30 2421 O 235.057 1.04415 1.23206 0
M  V30 2422 H 235.748 0.716727 1.79952 0
M  V30 END ATOM
M  V30 BEGIN BOND
M  V30 END BOND
M  V30 END CTAB
M  END
$$$$
