drugbank_target|O14618 Copper chaperone for superoxide dismutase (DB01593; DB14487; DB14533; DB14548)
 OpenBabel12092121033D

  0  0  0     0  0            999 V3000
M  V30 BEGIN CTAB
M  V30 COUNTS 4016 4046 0 0 0
M  V30 BEGIN ATOM
M  V30 1 H -0.908 1.98254 -0.117106 0
M  V30 2 N 0 1.576 0 0
M  V30 3 C 0.933 2.03868 1.02534 0
M  V30 4 C 1.911 0.928543 1.3348 0
M  V30 5 O 3.095 1.19667 1.45644 0
M  V30 6 C 0.222 2.43627 2.35294 0
M  V30 7 C -0.732 3.65373 2.2001 0
M  V30 8 S 0.101 5.13292 1.52614 0
M  V30 9 C 1.257 5.56322 2.86805 0
M  V30 10 H 1.49 2.90518 0.631377 0
M  V30 11 H -0.977 1.52953 0.210867 0
M  V30 12 H 0.981 2.67203 3.11629 0
M  V30 13 H -0.358 1.57376 2.7183 0
M  V30 14 H -1.165 3.90944 3.18086 0
M  V30 15 H -1.563 3.418 1.51819 0
M  V30 16 H 0.729 5.58782 3.83104 0
M  V30 17 H 1.672 6.56266 2.65933 0
M  V30 18 H 2.08 4.83886 2.90714 0
M  V30 19 N 1.4781 -0.272755 1.55222 0
M  V30 20 C 2.4411 -1.32041 1.87344 0
M  V30 21 C 3.4411 -1.42342 0.74803 0
M  V30 22 O 4.6311 -1.41488 1.0162 0
M  V30 23 C 1.7631 -2.70173 2.07893 0
M  V30 24 H 2.9561 -1.04789 2.80997 0
M  V30 25 H 0.5091 -0.51083 1.47717 0
M  V30 26 H 1.2441 -3.02605 1.16622 0
M  V30 27 H 1.0291 -2.64082 2.89833 0
M  V30 28 H 2.5191 -3.45869 2.34017 0
M  V30 29 N 2.9562 -1.48159 -0.537278 0
M  V30 30 C 4.1812 -1.59707 -1.32319 0
M  V30 31 C 4.6062 -0.254859 -1.86365 0
M  V30 32 O 3.9642 0.772378 -1.64024 0
M  V30 33 C 4.0122 -2.6412 -2.45505 0
M  V30 34 O 3.1162 -2.20774 -3.48328 0
M  V30 35 H 2.4572 -0.535791 -0.392204 0
M  V30 36 H 4.9872 -1.94092 -0.647268 0
M  V30 37 H 4.9972 -2.85166 -2.91795 0
M  V30 38 H 3.6722 -3.61567 -2.05528 0
M  V30 39 H 2.2492 -2.09911 -3.08207 0
M  V30 40 N 4.4343 0.785586 -1.36625 0
M  V30 41 C 5.7113 1.53198 -1.21613 0
M  V30 42 C 6.0913 2.10187 0.196113 0
M  V30 43 O 5.4393 1.94318 1.20219 0
M  V30 44 C 5.6493 2.62388 -2.30116 0
M  V30 45 C 6.9973 3.30167 -2.66974 0
M  V30 46 O 8.0213 2.72674 -2.29188 0
M  V30 47 O 6.8803 4.34077 -3.32023 0
M  V30 48 H 3.9743 0.677865 -0.473738 0
M  V30 49 H 6.5203 0.823739 -1.48367 0
M  V30 50 H 5.2923 2.18299 -3.24748 0
M  V30 51 H 4.9153 3.40827 -2.0475 0
M  V30 52 N 5.9124 1.20967 1.01018 0
M  V30 53 C 7.1374 1.0503 1.78839 0
M  V30 54 C 7.5624 -0.395752 1.8389 0
M  V30 55 O 6.9204 -1.28529 1.27867 0
M  V30 56 C 6.9684 1.64602 3.2084 0
M  V30 57 O 6.0724 0.887988 4.02726 0
M  V30 58 H 5.4134 0.369987 0.551367 0
M  V30 59 H 7.9434 1.60399 1.27018 0
M  V30 60 H 7.9534 1.68607 3.71532 0
M  V30 61 H 6.6284 2.69841 3.16479 0
M  V30 62 H 5.2054 0.922648 3.61305 0
M  V30 63 N 7.3905 -1.2043 1.01659 0
M  V30 64 C 8.6385 -1.89423 0.704522 0
M  V30 65 C 8.9595 -1.79231 -0.768197 0
M  V30 66 O 8.2295 -1.1947 -1.55254 0
M  V30 67 H 6.8095 -0.701178 0.257602 0
M  V30 68 H 9.4715 -1.4626 1.28818 0
M  V30 69 H 8.5675 -2.96052 0.987916 0
M  V30 70 N 8.8686 -0.792821 -1.36206 0
M  V30 71 C 9.8166 -0.181555 -2.3189 0
M  V30 72 C 10.8106 0.661025 -1.55971 0
M  V30 73 O 12.0166 0.555728 -1.71206 0
M  V30 74 H 8.3916 -0.0399382 -0.750939 0
M  V30 75 H 10.3626 -1.00394 -2.81005 0
M  V30 76 C 9.1116 0.666444 -3.41253 0
M  V30 77 H 8.4346 0.0274489 -3.99791 0
M  V30 78 H 9.8746 1.06076 -4.10517 0
M  V30 79 C 8.3336 1.82614 -2.83114 0
M  V30 80 O 8.8636 2.9229 -2.75553 0
M  V30 81 N 7.0696 1.63333 -2.40356 0
M  V30 82 H 6.6166 0.741217 -2.46706 0
M  V30 83 H 6.5746 2.41087 -2.01803 0
M  V30 84 N 10.3467 1.47872 -0.545128 0
M  V30 85 C 11.2787 2.27869 0.246621 0
M  V30 86 C 12.2917 1.36282 0.890561 0
M  V30 87 O 13.4807 1.61207 0.766449 0
M  V30 88 C 10.5807 3.10159 1.36582 0
M  V30 89 C 9.7537 4.29627 0.820954 0
M  V30 90 C 8.8127 4.93607 1.82314 0
M  V30 91 O 7.8387 5.52366 1.37406 0
M  V30 92 N 9.0407 4.87211 3.15603 0
M  V30 93 H 11.8057 2.96459 -0.439539 0
M  V30 94 H 9.3667 1.57367 -0.380421 0
M  V30 95 H 11.3587 3.49829 2.03474 0
M  V30 96 H 9.9287 2.43891 1.9554 0
M  V30 97 H 9.1487 3.94192 -0.0244032 0
M  V30 98 H 10.4367 5.06928 0.436063 0
M  V30 99 H 9.8347 4.40651 3.54744 0
M  V30 100 H 8.3917 5.30937 3.78087 0
M  V30 101 N 11.8248 0.280983 1.55075 0
M  V30 102 C 13.0728 -0.333455 1.9933 0
M  V30 103 C 13.3938 -1.55937 1.17085 0
M  V30 104 O 12.6638 -1.94143 0.261805 0
M  V30 105 H 11.2438 -0.126197 0.736263 0
M  V30 106 H 13.9058 0.387678 1.91005 0
M  V30 107 H 13.0018 -0.619292 3.05894 0
M  V30 108 N 13.3029 -1.57598 0.00835791 0
M  V30 109 C 14.5309 -1.95214 -0.68549 0
M  V30 110 C 14.9459 -0.883706 -1.66841 0
M  V30 111 O 14.3029 0.136565 -1.81988 0
M  V30 112 C 14.3539 -3.32865 -1.41007 0
M  V30 113 O 14.0749 -4.35609 -0.466552 0
M  V30 114 C 15.5759 -3.84991 -2.19765 0
M  V30 115 H 12.7959 -0.643422 -0.190392 0
M  V30 116 H 15.3399 -2.04406 0.0619607 0
M  V30 117 H 13.4949 -3.24956 -2.10908 0
M  V30 118 H 13.9089 -5.15288 -0.978699 0
M  V30 119 H 15.3829 -4.8371 -2.65948 0
M  V30 120 H 15.8599 -3.18137 -3.02796 0
M  V30 121 H 16.4659 -3.96103 -1.54864 0
M  V30 122 N 14.781 0.264519 -1.55364 0
M  V30 123 C 15.711 1.33121 -1.91836 0
M  V30 124 C 16.692 1.51101 -0.781192 0
M  V30 125 O 17.877 1.64003 -1.04003 0
M  V30 126 C 15.007 2.68921 -2.19769 0
M  V30 127 C 13.961 2.65661 -3.35571 0
M  V30 128 C 13.287 4.05093 -3.49004 0
M  V30 129 C 14.587 2.24187 -4.71739 0
M  V30 130 H 16.281 1.02844 -2.81182 0
M  V30 131 H 13.827 0.493286 -1.35287 0
M  V30 132 H 15.78 3.43663 -2.43872 0
M  V30 133 H 14.504 3.00799 -1.27231 0
M  V30 134 H 13.163 1.93377 -3.1145 0
M  V30 135 H 12.811 4.34206 -2.53917 0
M  V30 136 H 12.511 4.03804 -4.26868 0
M  V30 137 H 14.035 4.81561 -3.75408 0
M  V30 138 H 15.449 2.88654 -4.9533 0
M  V30 139 H 13.846 2.34044 -5.52579 0
M  V30 140 H 14.916 1.19327 -4.69988 0
M  V30 141 N 16.2591 1.48442 0.529413 0
M  V30 142 C 17.4991 1.58086 1.29569 0
M  V30 143 C 17.8631 0.249302 1.90375 0
M  V30 144 O 19.0641 0.220738 2.67892 0
M  V30 145 C 17.3351 2.68793 2.35552 0
M  V30 146 S 18.8941 2.98207 3.21898 0
M  V30 147 H 15.7121 0.557922 0.440732 0
M  V30 148 H 18.3141 1.85966 0.603059 0
M  V30 149 H 17.0181 3.64102 1.89363 0
M  V30 150 H 16.5491 2.42817 3.09522 0
M  V30 151 H 18.5641 2.37548 4.35644 0
M  V30 152 N 17.7372 -0.778329 1.37039 0
M  V30 153 C 18.9652 -1.56734 1.35063 0
M  V30 154 C 19.3802 -1.88686 -0.0655597 0
M  V30 155 O 18.7372 -1.5096 -1.02554 0
M  V30 156 C 18.7882 -2.88163 2.18276 0
M  V30 157 O 18.5092 -2.57583 3.54376 0
M  V30 158 C 20.0102 -3.82422 2.24206 0
M  V30 159 H 17.2302 -0.485778 0.462883 0
M  V30 160 H 19.7742 -0.965185 1.8029 0
M  V30 161 H 17.9292 -3.44818 1.76576 0
M  V30 162 H 18.3432 -3.41699 3.97922 0
M  V30 163 H 19.8172 -4.71667 2.86765 0
M  V30 164 H 20.2942 -4.21078 1.24861 0
M  V30 165 H 20.9002 -3.31697 2.6619 0
M  V30 166 N 19.2153 -1.21501 -1.00376 0
M  V30 167 C 20.1453 -0.999478 -2.11028 0
M  V30 168 C 21.1263 0.0759671 -1.6993 0
M  V30 169 O 22.3113 -0.0841106 -1.94018 0
M  V30 170 C 19.4413 -0.564709 -3.42678 0
M  V30 171 C 18.3953 -1.58486 -3.97576 0
M  V30 172 C 17.7213 -1.00628 -5.25146 0
M  V30 173 C 19.0213 -2.97204 -4.29496 0
M  V30 174 H 20.7153 -1.92495 -2.29317 0
M  V30 175 H 18.2613 -0.92693 -1.102 0
M  V30 176 H 20.2143 -0.401091 -4.19487 0
M  V30 177 H 18.9383 0.396411 -3.24185 0
M  V30 178 H 17.5973 -1.73606 -3.22888 0
M  V30 179 H 17.2453 -0.0368439 -5.02987 0
M  V30 180 H 16.9453 -1.68771 -5.62841 0
M  V30 181 H 18.4693 -0.854015 -6.04598 0
M  V30 182 H 19.8833 -2.8552 -4.97143 0
M  V30 183 H 18.2803 -3.62372 -4.78338 0
M  V30 184 H 19.3503 -3.47956 -3.3772 0
M  V30 185 N 20.6934 1.19889 -1.02296 0
M  V30 186 C 21.6034 2.26571 -0.608508 0
M  V30 187 C 22.6194 1.70299 0.356964 0
M  V30 188 O 23.7954 2.00235 0.216326 0
M  V30 189 C 20.8604 3.46677 0.0402814 0
M  V30 190 C 19.9214 4.18153 -0.97194 0
M  V30 191 C 19.1544 5.32525 -0.354016 0
M  V30 192 O 19.3774 5.64112 0.844604 0
M  V30 193 O 18.3114 5.92242 -1.07391 0
M  V30 194 H 22.1374 2.64251 -1.49684 0
M  V30 195 H 19.7224 1.26629 -0.792809 0
M  V30 196 H 21.6044 4.19475 0.402324 0
M  V30 197 H 20.2794 3.10858 0.902707 0
M  V30 198 H 19.1864 3.47499 -1.38546 0
M  V30 199 H 20.5194 4.57927 -1.80454 0
M  V30 200 N 22.1715 0.800033 1.35784 0
M  V30 201 C 23.4185 0.377342 1.98953 0
M  V30 202 C 23.7465 -1.05378 1.6348 0
M  V30 203 O 23.0015 -1.74459 0.886707 0
M  V30 204 C 23.3005 0.500276 3.53881 0
M  V30 205 C 22.9665 1.89375 4.09204 0
M  V30 206 C 21.6285 2.27499 4.24025 0
M  V30 207 C 23.9805 2.8057 4.39238 0
M  V30 208 C 21.3085 3.562 4.66195 0
M  V30 209 C 23.6605 4.0871 4.82844 0
M  V30 210 C 22.3245 4.46843 4.95871 0
M  V30 211 H 21.5945 0.138079 0.728021 0
M  V30 212 H 24.2415 1.01955 1.62103 0
M  V30 213 H 22.5465 -0.225405 3.91151 0
M  V30 214 H 24.2435 0.154097 4.00704 0
M  V30 215 H 20.8335 1.58753 3.98115 0
M  V30 216 H 25.0175 2.52367 4.27346 0
M  V30 217 H 20.2735 3.85602 4.74469 0
M  V30 218 H 24.4475 4.79481 5.05046 0
M  V30 219 H 22.0745 5.46623 5.28306 0
M  V30 220 N 23.6496 -1.47581 0.552962 0
M  V30 221 C 24.6126 -2.28439 -0.186605 0
M  V30 222 C 25.6126 -1.36706 -0.84665 0
M  V30 223 O 26.8026 -1.59378 -0.703164 0
M  V30 224 C 23.9346 -3.16264 -1.2724 0
M  V30 225 H 25.1276 -2.95294 0.523609 0
M  V30 226 H 22.6806 -1.532 0.309745 0
M  V30 227 H 23.4156 -2.54091 -2.01514 0
M  V30 228 H 23.2006 -3.83769 -0.803968 0
M  V30 229 H 24.6906 -3.77198 -1.79196 0
M  V30 230 N 25.1277 -0.289203 -1.54924 0
M  V30 231 C 26.3737 0.323998 -2.00195 0
M  V30 232 C 26.7067 1.54441 -1.17735 0
M  V30 233 O 25.9817 1.92875 -0.250878 0
M  V30 234 C 26.2647 0.692276 -3.53383 0
M  V30 235 C 26.1177 -0.536457 -4.46589 0
M  V30 236 C 27.4367 1.52335 -4.12895 0
M  V30 237 H 24.5557 0.116289 -0.727768 0
M  V30 238 H 27.1977 -0.398954 -1.85764 0
M  V30 239 H 25.3477 1.30822 -3.65811 0
M  V30 240 H 27.0197 -1.17499 -4.46085 0
M  V30 241 H 25.2627 -1.17192 -4.1767 0
M  V30 242 H 25.9337 -0.234806 -5.515 0
M  V30 243 H 28.4097 1.00302 -4.0383 0
M  V30 244 H 27.2857 1.74982 -5.20262 0
M  V30 245 H 27.5467 2.50886 -3.64018 0
M  V30 246 N 26.6058 1.57591 -0.0167156 0
M  V30 247 C 27.5378 2.06343 0.997753 0
M  V30 248 C 28.5508 0.984469 1.29661 0
M  V30 249 O 29.7398 1.26093 1.26344 0
M  V30 250 C 26.8398 2.46255 2.32834 0
M  V30 251 C 26.0128 3.77083 2.21646 0
M  V30 252 C 25.0718 4.0368 3.37534 0
M  V30 253 O 24.0978 4.7411 3.14973 0
M  V30 254 N 25.2998 3.52881 4.60929 0
M  V30 255 H 28.0648 2.93997 0.581875 0
M  V30 256 H 25.6258 1.61002 0.170316 0
M  V30 257 H 27.6178 2.61149 3.09166 0
M  V30 258 H 26.1878 1.64032 2.66106 0
M  V30 259 H 25.4078 3.72106 1.30119 0
M  V30 260 H 26.6958 4.62822 2.11361 0
M  V30 261 H 26.0938 2.95878 4.82154 0
M  V30 262 H 24.6508 3.73076 5.34469 0
M  V30 263 N 28.0839 -0.256276 1.55502 0
M  V30 264 C 29.0169 -1.34321 1.84481 0
M  V30 265 C 29.9949 -1.46802 0.699131 0
M  V30 266 O 31.1789 -1.63165 0.943904 0
M  V30 267 C 28.3059 -2.71779 2.02123 0
M  V30 268 C 27.3519 -2.76496 3.24734 0
M  V30 269 S 28.1849 -2.3405 4.81644 0
M  V30 270 C 29.3409 -3.73452 5.02279 0
M  V30 271 H 29.5739 -1.09539 2.76385 0
M  V30 272 H 27.1069 -0.45678 1.47489 0
M  V30 273 H 29.0649 -3.50932 2.12972 0
M  V30 274 H 27.7259 -2.93803 1.11078 0
M  V30 275 H 26.9189 -3.77424 3.34016 0
M  V30 276 H 26.5209 -2.05379 3.12563 0
M  V30 277 H 28.8129 -4.6887 4.89047 0
M  V30 278 H 29.7559 -3.6911 6.04287 0
M  V30 279 H 30.1639 -3.6553 4.30172 0
M  V30 280 N 29.562 -1.4872 -0.521534 0
M  V30 281 C 30.79 -1.60843 -1.30142 0
M  V30 282 C 31.205 -0.271897 -1.86832 0
M  V30 283 O 30.562 0.739969 -1.66825 0
M  V30 284 C 30.613 -2.66155 -2.4463 0
M  V30 285 O 30.334 -3.94623 -1.90275 0
M  V30 286 C 31.835 -2.88795 -3.36322 0
M  V30 287 H 29.055 -0.542075 -0.395468 0
M  V30 288 H 31.599 -1.94609 -0.628285 0
M  V30 289 H 29.754 -2.35224 -3.07812 0
M  V30 290 H 30.168 -4.52468 -2.65279 0
M  V30 291 H 31.642 -3.66264 -4.12983 0
M  V30 292 H 32.119 -1.97934 -3.9207 0
M  V30 293 H 32.725 -3.21063 -2.78924 0
M  V30 294 N 31.0401 0.771051 -1.3745 0
M  V30 295 C 32.2801 1.54264 -1.34096 0
M  V30 296 C 32.6441 1.91858 0.0737639 0
M  V30 297 O 33.8451 2.67797 0.23203 0
M  V30 298 C 32.1161 2.77326 -2.25445 0
M  V30 299 S 33.6751 3.67383 -2.39948 0
M  V30 300 H 30.4931 0.528122 -0.476034 0
M  V30 301 H 33.0951 0.906633 -1.73206 0
M  V30 302 H 31.7991 2.47788 -3.27153 0
M  V30 303 H 31.3301 3.45886 -1.87421 0
M  V30 304 H 33.3451 4.69334 -1.61059 0
M  V30 305 N 32.5182 1.22032 0.997298 0
M  V30 306 C 33.4502 0.944263 2.08845 0
M  V30 307 C 34.4632 -0.0754663 1.62625 0
M  V30 308 O 35.6522 0.157994 1.77799 0
M  V30 309 C 32.7522 0.397723 3.36558 0
M  V30 310 C 31.9252 1.47362 4.11829 0
M  V30 311 C 30.9842 0.934951 5.17827 0
M  V30 312 O 30.0102 1.62016 5.45655 0
M  V30 313 N 31.2122 -0.245895 5.79979 0
M  V30 314 H 33.9772 1.88363 2.33109 0
M  V30 315 H 31.5382 1.12661 1.16272 0
M  V30 316 H 33.5302 0.0227771 4.04694 0
M  V30 317 H 32.1002 -0.446646 3.09393 0
M  V30 318 H 31.3202 2.02208 3.38386 0
M  V30 319 H 32.6082 2.19764 4.58891 0
M  V30 320 H 32.0062 -0.819475 5.59733 0
M  V30 321 H 30.5632 -0.562272 6.4937 0
M  V30 322 N 33.9963 -1.19345 1.0293 0
M  V30 323 C 35.2213 -1.93538 0.745511 0
M  V30 324 C 35.6463 -1.75007 -0.689511 0
M  V30 325 O 35.0043 -1.05265 -1.47611 0
M  V30 326 C 35.0523 -3.43336 1.10239 0
M  V30 327 O 34.1563 -4.11806 0.221289 0
M  V30 328 H 33.4973 -0.604193 0.275404 0
M  V30 329 H 36.0273 -1.5141 1.37609 0
M  V30 330 H 36.0373 -3.94004 1.05947 0
M  V30 331 H 34.7123 -3.56146 2.14786 0
M  V30 332 H 33.2893 -3.715 0.322842 0
M  V30 333 N 35.4744 -0.807222 -1.35358 0
M  V30 334 C 36.7144 -0.393534 -2.00576 0
M  V30 335 C 37.0784 1.0203 -1.62647 0
M  V30 336 O 38.2794 1.53603 -2.20589 0
M  V30 337 C 36.5504 -0.572017 -3.52793 0
M  V30 338 S 38.1094 -0.248845 -4.38094 0
M  V30 339 H 34.9274 -0.149425 -0.695121 0
M  V30 340 H 37.5294 -1.04961 -1.64935 0
M  V30 341 H 36.2334 -1.60097 -3.77885 0
M  V30 342 H 35.7644 0.099359 -3.93275 0
M  V30 343 H 37.7794 0.943253 -4.87152 0
M  V30 344 N 36.9525 1.47285 -0.560781 0
M  V30 345 C 38.1985 2.02764 -0.0381184 0
M  V30 346 C 38.5315 1.43384 1.30976 0
M  V30 347 O 37.8065 0.590733 1.85312 0
M  V30 348 C 38.0895 3.60064 0.0511427 0
M  V30 349 C 37.9425 4.2987 -1.32408 0
M  V30 350 C 39.2615 4.33439 0.762795 0
M  V30 351 H 36.3805 0.736841 -0.0153264 0
M  V30 352 H 39.0225 1.75675 -0.723759 0
M  V30 353 H 37.1725 3.83274 0.635065 0
M  V30 354 H 38.8445 4.17989 -1.95148 0
M  V30 355 H 37.0875 3.90085 -1.8978 0
M  V30 356 H 37.7585 5.38478 -1.21431 0
M  V30 357 H 40.2345 4.15243 0.266965 0
M  V30 358 H 39.1105 5.43124 0.794221 0
M  V30 359 H 39.3715 4.02915 1.81966 0
M  V30 360 N 38.4306 0.297415 1.54768 0
M  V30 361 C 39.7076 -0.365847 1.92148 0
M  V30 362 C 40.0876 -1.71975 1.22424 0
M  V30 363 O 39.4356 -2.25666 0.358739 0
M  V30 364 C 39.6456 -0.484056 3.45627 0
M  V30 365 C 40.9936 -0.756594 4.17805 0
M  V30 366 O 42.0176 -0.568007 3.51642 0
M  V30 367 O 40.8766 -1.11863 5.34929 0
M  V30 368 H 37.9706 -0.203919 0.801465 0
M  V30 369 H 40.5166 0.34521 1.66152 0
M  V30 370 H 39.2886 0.467865 3.88493 0
M  V30 371 H 38.9116 -1.24372 3.77647 0
M  V30 372 N 39.9087 -1.5758 0.0250728 0
M  V30 373 C 40.8717 -2.08896 -0.943139 0
M  V30 374 C 41.8717 -1.00321 -1.25668 0
M  V30 375 O 43.0617 -1.26495 -1.19769 0
M  V30 376 C 40.1937 -2.55143 -2.26086 0
M  V30 377 H 41.3867 -2.95723 -0.498775 0
M  V30 378 H 38.9397 -1.54703 -0.222888 0
M  V30 379 H 39.6747 -1.71633 -2.75159 0
M  V30 380 H 39.4597 -3.34461 -2.04641 0
M  V30 381 H 40.9497 -2.95083 -2.95492 0
M  V30 382 N 41.3868 0.248026 -1.55636 0
M  V30 383 C 42.6328 0.97767 -1.77678 0
M  V30 384 C 42.9658 1.85016 -0.590135 0
M  V30 385 O 42.2408 1.90095 0.411611 0
M  V30 386 C 42.5238 1.83914 -3.09593 0
M  V30 387 C 42.3768 0.99491 -4.38659 0
M  V30 388 C 43.6958 2.82183 -3.37729 0
M  V30 389 H 40.8148 0.354005 -0.646413 0
M  V30 390 H 43.4568 0.248253 -1.88371 0
M  V30 391 H 41.6068 2.46104 -3.00608 0
M  V30 392 H 43.2788 0.391789 -4.59633 0
M  V30 393 H 41.5218 0.299231 -4.32767 0
M  V30 394 H 42.1928 1.63145 -5.2734 0
M  V30 395 H 44.6688 2.30129 -3.4667 0
M  V30 396 H 43.5448 3.39582 -4.31249 0
M  V30 397 H 43.8058 3.58588 -2.58586 0
M  V30 398 N 42.8649 1.48995 0.513639 0
M  V30 399 C 44.2809 1.35478 0.843682 0
M  V30 400 C 44.4809 0.378213 1.97919 0
M  V30 401 O 43.5369 -0.194689 2.51748 0
M  V30 402 C 44.8499 2.75901 1.1958 0
M  V30 403 C 46.3979 2.84509 1.30474 0
M  V30 404 C 46.8729 4.25671 1.69021 0
M  V30 405 N 48.3639 4.28422 1.76094 0
M  V30 406 C 49.0989 5.34601 2.07338 0
M  V30 407 N 48.5949 6.5104 2.36894 0
M  V30 408 N 50.3879 5.22007 2.08483 0
M  V30 409 H 42.5389 2.11092 -0.235328 0
M  V30 410 H 44.8019 0.947039 -0.0426669 0
M  V30 411 H 44.5079 3.49001 0.434913 0
M  V30 412 H 44.3819 3.10467 2.1422 0
M  V30 413 H 46.7689 2.11655 2.05637 0
M  V30 414 H 46.8499 2.53542 0.339155 0
M  V30 415 H 46.4939 4.99048 0.944135 0
M  V30 416 H 46.4239 4.54094 2.66658 0
M  V30 417 H 48.9149 3.44441 1.55464 0
M  V30 418 H 49.2279 7.2779 2.59887 0
M  V30 419 H 47.5729 6.54287 2.34378 0
M  V30 420 H 50.7639 4.30051 1.84861 0
M  V30 421 H 50.9369 6.04854 2.325 0
M  V30 422 N 44.343 -0.763751 1.37857 0
M  V30 423 C 45.29 -1.87726 1.34267 0
M  V30 424 C 46.26 -1.64807 0.206879 0
M  V30 425 O 47.445 -1.86613 0.397508 0
M  V30 426 C 44.585 -3.24896 1.16346 0
M  V30 427 C 43.698 -3.59716 2.39225 0
M  V30 428 C 42.833 -4.86137 2.14114 0
M  V30 429 C 41.872 -5.13711 3.32817 0
M  V30 430 N 41.009 -6.31323 3.07206 0
M  V30 431 H 45.849 -1.90129 2.29466 0
M  V30 432 H 43.386 -0.929433 1.14017 0
M  V30 433 H 45.344 -4.04036 1.03975 0
M  V30 434 H 43.974 -3.21847 0.247909 0
M  V30 435 H 43.026 -2.75498 2.62307 0
M  V30 436 H 44.338 -3.76027 3.27728 0
M  V30 437 H 43.492 -5.73198 1.9882 0
M  V30 438 H 42.231 -4.71945 1.22961 0
M  V30 439 H 41.236 -4.25123 3.48641 0
M  V30 440 H 42.461 -5.29807 4.24832 0
M  V30 441 H 40.407 -6.18474 2.1869 0
M  V30 442 H 40.324 -6.48087 3.89254 0
M  V30 443 H 41.592 -7.213 2.95546 0
M  V30 444 N 45.8211 -1.22559 -0.990812 0
M  V30 445 C 47.0461 -1.07862 -1.77145 0
M  V30 446 C 47.4711 0.366447 -1.84496 0
M  V30 447 O 46.8291 1.26478 -1.29896 0
M  V30 448 C 46.8771 -1.69686 -3.18181 0
M  V30 449 O 45.9811 -0.951946 -4.01263 0
M  V30 450 H 45.3221 -0.378712 -0.545411 0
M  V30 451 H 47.8521 -1.62399 -1.2445 0
M  V30 452 H 47.8621 -1.74496 -3.68802 0
M  V30 453 H 46.5371 -2.74841 -3.12146 0
M  V30 454 H 45.1141 -0.980011 -3.59792 0
M  V30 455 N 47.2992 1.18797 -1.03562 0
M  V30 456 C 48.2292 2.24472 -0.643019 0
M  V30 457 C 49.2102 1.66433 0.351283 0
M  V30 458 O 50.3952 1.92803 0.232505 0
M  V30 459 C 47.5252 3.473 4.24935e-05 0
M  V30 460 C 46.4792 4.18055 -0.917257 0
M  V30 461 C 45.8052 5.34519 -0.138941 0
M  V30 462 C 47.1052 4.72109 -2.23407 0
M  V30 463 H 48.7992 2.57566 -1.52643 0
M  V30 464 H 46.3452 1.23806 -0.735394 0
M  V30 465 H 48.2982 4.20426 0.286383 0
M  V30 466 H 47.0222 3.13424 0.918299 0
M  V30 467 H 45.6812 3.46821 -1.1879 0
M  V30 468 H 45.3292 4.96891 0.781562 0
M  V30 469 H 45.0292 5.82794 -0.750005 0
M  V30 470 H 46.5532 6.10438 0.1405 0
M  V30 471 H 47.9672 5.36955 -2.00879 0
M  V30 472 H 46.3642 5.30897 -2.79765 0
M  V30 473 H 47.4342 3.89807 -2.88407 0
M  V30 474 N 48.7773 0.814389 1.34928 0
M  V30 475 C 49.7093 0.187834 2.28429 0
M  V30 476 C 50.7223 -0.617374 1.5064 0
M  V30 477 O 51.9113 -0.448454 1.72775 0
M  V30 478 C 49.0113 -0.755962 3.30361 0
M  V30 479 C 48.1843 0.00456686 4.374 0
M  V30 480 C 47.2433 -0.858876 5.19143 0
M  V30 481 O 46.2693 -0.306968 5.68372 0
M  V30 482 N 47.4713 -2.17988 5.38016 0
M  V30 483 H 50.2363 0.991105 2.82838 0
M  V30 484 H 47.7973 0.670561 1.4736 0
M  V30 485 H 49.7893 -1.338 3.81942 0
M  V30 486 H 48.3593 -1.46001 2.7641 0
M  V30 487 H 47.5793 0.767865 3.86649 0
M  V30 488 H 48.8673 0.528422 5.06049 0
M  V30 489 H 48.2653 -2.65212 4.99679 0
M  V30 490 H 46.8223 -2.71098 5.92747 0
M  V30 491 N 50.2554 -1.46986 0.568584 0
M  V30 492 C 51.5034 -2.02041 0.0487022 0
M  V30 493 C 51.8244 -1.44408 -1.31039 0
M  V30 494 O 51.0944 -0.623477 -1.85714 0
M  V30 495 H 49.6744 -0.746849 0.015014 0
M  V30 496 H 52.3364 -1.80257 0.741168 0
M  V30 497 H 51.4324 -3.12085 -0.0308961 0
M  V30 498 N 51.7335 -0.305618 -1.54608 0
M  V30 499 C 52.9795 0.302746 -2.00528 0
M  V30 500 C 53.3125 1.53184 -1.19367 0
M  V30 501 O 52.5875 1.92598 -0.271321 0
M  V30 502 C 52.8705 0.654756 -3.54097 0
M  V30 503 C 52.7235 -0.583793 -4.45995 0
M  V30 504 C 54.0425 1.47947 -4.14487 0
M  V30 505 H 51.1615 0.108564 -0.72896 0
M  V30 506 H 53.8035 -0.418634 -1.85331 0
M  V30 507 H 51.9535 1.26935 -3.67178 0
M  V30 508 H 53.6255 -1.22224 -4.44814 0
M  V30 509 H 51.8685 -1.21615 -4.16404 0
M  V30 510 H 52.5395 -0.293287 -5.5122 0
M  V30 511 H 55.0155 0.96013 -4.04871 0
M  V30 512 H 53.8915 1.69454 -5.22088 0
M  V30 513 H 54.1525 2.47011 -3.66658 0
M  V30 514 N 53.2116 1.57565 -0.0334293 0
M  V30 515 C 54.1746 2.09393 0.932048 0
M  V30 516 C 55.1746 1.00986 1.25134 0
M  V30 517 O 56.3646 1.27129 1.19096 0
M  V30 518 C 53.4966 2.56338 2.2473 0
M  V30 519 H 54.6896 2.95984 0.483085 0
M  V30 520 H 52.2426 1.54819 0.21468 0
M  V30 521 H 52.9776 1.7309 2.74245 0
M  V30 522 H 52.7626 3.35542 2.02865 0
M  V30 523 H 54.2526 2.96646 2.93923 0
M  V30 524 N 54.6897 -0.239769 1.55765 0
M  V30 525 C 55.9377 -0.964892 1.77579 0
M  V30 526 C 56.2587 -1.85582 0.598699 0
M  V30 527 O 55.5287 -1.92075 -0.385226 0
M  V30 528 H 54.1087 -0.359265 0.654933 0
M  V30 529 H 56.7707 -0.256001 1.93211 0
M  V30 530 H 55.8667 -1.58243 2.69009 0
M  V30 531 N 56.1678 -1.49265 -0.50573 0
M  V30 532 C 57.4138 -1.58748 -1.26202 0
M  V30 533 C 57.7468 -0.271227 -1.92297 0
M  V30 534 O 57.0218 0.724831 -1.80489 0
M  V30 535 C 57.3048 -2.74332 -2.33268 0
M  V30 536 C 57.1578 -4.15737 -1.71705 0
M  V30 537 C 58.4768 -2.85576 -3.34865 0
M  V30 538 H 55.5958 -0.577826 -0.457478 0
M  V30 539 H 58.2378 -1.81532 -0.560897 0
M  V30 540 H 56.3878 -2.55036 -2.93068 0
M  V30 541 H 58.0598 -4.46537 -1.15769 0
M  V30 542 H 56.3028 -4.21605 -1.02135 0
M  V30 543 H 56.9738 -4.92477 -2.49341 0
M  V30 544 H 59.4498 -3.03127 -2.8505 0
M  V30 545 H 58.3258 -3.68135 -4.07146 0
M  V30 546 H 58.5868 -1.94732 -3.96903 0
M  V30 547 N 57.6459 0.756429 -1.3826 0
M  V30 548 C 58.5779 1.87971 -1.31147 0
M  V30 549 C 59.5909 1.61248 -0.224239 0
M  V30 550 O 60.7799 1.71881 -0.481581 0
M  V30 551 C 57.8799 3.23545 -1.00857 0
M  V30 552 C 57.0529 3.77794 -2.20432 0
M  V30 553 C 56.1119 4.91877 -1.86931 0
M  V30 554 O 55.1379 5.06659 -2.59395 0
M  V30 555 N 56.3399 5.74643 -0.822568 0
M  V30 556 H 59.1049 1.94585 -2.2794 0
M  V30 557 H 56.6659 0.936234 -1.32084 0
M  V30 558 H 58.6579 3.97403 -0.765021 0
M  V30 559 H 57.2279 3.12335 -0.128687 0
M  V30 560 H 56.4479 2.95534 -2.6087 0
M  V30 561 H 57.7359 4.10771 -3.00241 0
M  V30 562 H 57.1339 5.65266 -0.221575 0
M  V30 563 H 55.6909 6.48661 -0.638899 0
M  V30 564 N 59.124 1.23083 0.984299 0
M  V30 565 C 60.401 0.9689 1.69917 0
M  V30 566 C 60.781 -0.513604 2.04757 0
M  V30 567 O 60.129 -1.48383 1.73767 0
M  V30 568 C 60.339 1.87518 2.94343 0
M  V30 569 C 61.687 2.13636 3.6694 0
M  V30 570 O 62.711 1.85036 3.04368 0
M  V30 571 O 61.57 2.62119 4.79537 0
M  V30 572 H 58.664 0.365095 0.742048 0
M  V30 573 H 61.21 1.34107 1.03987 0
M  V30 574 H 59.982 2.87756 2.65164 0
M  V30 575 H 59.605 1.50514 3.6801 0
M  V30 576 N 60.6021 -1.18246 1.0419 0
M  V30 577 C 61.8481 -1.88536 0.747122 0
M  V30 578 C 62.1811 -1.80223 -0.723409 0
M  V30 579 O 61.4561 -1.20337 -1.52804 0
M  V30 580 C 61.7391 -3.38968 1.21544 0
M  V30 581 C 61.5921 -3.56084 2.74816 0
M  V30 582 C 62.9111 -4.32648 0.806482 0
M  V30 583 H 60.0301 -0.684619 0.272883 0
M  V30 584 H 62.6721 -1.39113 1.29413 0
M  V30 585 H 60.8221 -3.8119 0.750081 0
M  V30 586 H 62.4941 -3.22946 3.29399 0
M  V30 587 H 60.7371 -2.98699 3.14582 0
M  V30 588 H 61.4081 -4.61639 3.02644 0
M  V30 589 H 63.8841 -3.98211 1.20695 0
M  V30 590 H 62.7601 -5.36462 1.1619 0
M  V30 591 H 63.0211 -4.41146 -0.29029 0
M  V30 592 N 62.0802 -0.821533 -1.34494 0
M  V30 593 C 62.9902 -0.244355 -2.33324 0
M  V30 594 C 64.0062 0.620527 -1.62559 0
M  V30 595 O 65.1822 0.528754 -1.94335 0
M  V30 596 C 62.2472 0.585368 -3.41723 0
M  V30 597 C 61.3082 -0.301752 -4.28238 0
M  V30 598 C 60.5412 0.488466 -5.3146 0
M  V30 599 O 60.7642 1.72186 -5.4379 0
M  V30 600 O 59.6982 -0.12848 -6.01763 0
M  V30 601 H 63.5242 -1.06231 -2.84515 0
M  V30 602 H 61.1092 -0.583645 -1.37528 0
M  V30 603 H 62.9912 1.05747 -4.07916 0
M  V30 604 H 61.6662 1.38068 -2.92778 0
M  V30 605 H 60.5732 -0.821315 -3.64973 0
M  V30 606 H 61.9062 -1.06138 -4.8062 0
M  V30 607 N 63.5583 1.46682 -0.576371 0
M  V30 608 C 64.8043 2.02712 -0.0596221 0
M  V30 609 C 65.1373 1.44765 1.29448 0
M  V30 610 O 64.4123 0.610355 1.84675 0
M  V30 611 C 64.6953 3.60098 0.0129503 0
M  V30 612 C 64.5483 4.28441 -1.3696 0
M  V30 613 C 65.8673 4.34224 0.71678 0
M  V30 614 H 62.9863 0.736637 -0.0231407 0
M  V30 615 H 65.6283 1.74898 -0.742351 0
M  V30 616 H 63.7783 3.83926 0.594378 0
M  V30 617 H 65.4503 4.15896 -1.9957 0
M  V30 618 H 63.6933 3.8805 -1.93907 0
M  V30 619 H 64.3643 5.3716 -1.27135 0
M  V30 620 H 66.8403 4.15503 0.222908 0
M  V30 621 H 65.7163 5.43936 0.73657 0
M  V30 622 H 65.9773 4.04823 1.77682 0
M  V30 623 N 65.0364 0.313813 1.54444 0
M  V30 624 C 65.9864 -0.571898 2.20711 0
M  V30 625 C 66.9704 -1.08913 1.18435 0
M  V30 626 O 68.1624 -1.02777 1.44104 0
M  V30 627 C 65.2914 -1.7371 2.96108 0
M  V30 628 C 64.3774 -1.23522 4.05713 0
M  V30 629 N 64.7684 -0.452288 5.03774 0
M  V30 630 C 63.0664 -1.51482 4.19487 0
M  V30 631 C 63.7674 -0.183438 5.81411 0
M  V30 632 N 62.7434 -0.766845 5.38164 0
M  V30 633 H 66.5454 0.0336802 2.93881 0
M  V30 634 H 64.0594 0.119192 1.61962 0
M  V30 635 H 66.0564 -2.38329 3.4206 0
M  V30 636 H 64.7164 -2.34625 2.24458 0
M  V30 637 H 65.7274 -0.0960131 5.17811 0
M  V30 638 H 62.4044 -2.13053 3.59047 0
M  V30 639 H 63.7944 0.446216 6.70417 0
M  V30 640 N 66.5145 -1.57545 0.0417849 0
M  V30 641 C 67.4445 -2.14009 -0.933929 0
M  V30 642 C 68.4255 -1.05938 -1.33083 0
M  V30 643 O 69.6105 -1.33833 -1.40721 0
M  V30 644 C 66.7405 -2.67747 -2.21199 0
M  V30 645 C 65.6945 -3.80718 -1.95544 0
M  V30 646 C 65.0205 -4.20935 -3.29724 0
M  V30 647 C 66.3205 -5.06258 -1.28452 0
M  V30 648 H 68.0145 -2.95788 -0.463645 0
M  V30 649 H 65.5605 -1.42285 -0.221573 0
M  V30 650 H 67.5135 -3.05886 -2.89848 0
M  V30 651 H 66.2375 -1.83147 -2.70416 0
M  V30 652 H 64.8965 -3.43037 -1.2931 0
M  V30 653 H 64.5445 -3.33298 -3.76724 0
M  V30 654 H 64.2445 -4.9707 -3.13361 0
M  V30 655 H 65.7685 -4.61666 -3.9962 0
M  V30 656 H 67.1825 -5.41903 -1.8712 0
M  V30 657 H 65.5795 -5.87475 -1.22445 0
M  V30 658 H 66.6495 -4.84207 -0.259219 0
M  V30 659 N 67.9926 0.231505 -1.5589 0
M  V30 660 C 68.9026 1.308 -1.94752 0
M  V30 661 C 69.9186 1.51826 -0.849989 0
M  V30 662 O 71.0946 1.6515 -1.15271 0
M  V30 663 C 68.1596 2.63968 -2.24771 0
M  V30 664 C 67.2206 2.51331 -3.48039 0
M  V30 665 C 66.4536 3.78148 -3.76616 0
M  V30 666 O 66.6766 4.80722 -3.07022 0
M  V30 667 O 65.6106 3.75857 -4.70123 0
M  V30 668 H 69.4366 1.0083 -2.86474 0
M  V30 669 H 67.0216 0.433547 -1.42971 0
M  V30 670 H 68.9036 3.42633 -2.45318 0
M  V30 671 H 67.5786 2.9364 -1.36225 0
M  V30 672 H 66.4856 1.709 -3.32782 0
M  V30 673 H 67.8186 2.26601 -4.36936 0
M  V30 674 N 69.4707 1.49531 0.497807 0
M  V30 675 C 70.7477 1.49682 1.25915 0
M  V30 676 C 71.1277 0.226339 2.09883 0
M  V30 677 O 70.4757 -0.791189 2.14365 0
M  V30 678 C 70.6857 2.77755 2.11313 0
M  V30 679 C 72.0337 3.27371 2.70395 0
M  V30 680 O 73.0577 2.78894 2.21578 0
M  V30 681 O 71.9167 4.11808 3.59272 0
M  V30 682 H 69.0107 0.599228 0.56996 0
M  V30 683 H 71.5567 1.61798 0.511816 0
M  V30 684 H 70.3287 3.61713 1.49264 0
M  V30 685 H 69.9517 2.68515 2.93233 0
M  V30 686 N 70.9488 -0.749086 1.3866 0
M  V30 687 C 71.8808 -1.87273 1.32142 0
M  V30 688 C 72.8938 -1.61127 0.232787 0
M  V30 689 O 74.0828 -1.71623 0.49069 0
M  V30 690 C 71.1828 -3.23005 1.02571 0
M  V30 691 C 70.3558 -3.7662 2.22433 0
M  V30 692 C 69.4148 -4.90879 1.89537 0
M  V30 693 O 68.4408 -5.05276 2.62078 0
M  V30 694 N 69.6428 -5.74198 0.853031 0
M  V30 695 H 72.4078 -1.93373 2.28969 0
M  V30 696 H 69.9688 -0.929216 1.32579 0
M  V30 697 H 71.9608 -3.96992 0.786085 0
M  V30 698 H 70.5308 -3.12262 0.145249 0
M  V30 699 H 69.7508 -2.94147 2.62434 0
M  V30 700 H 71.0388 -4.09173 3.02415 0
M  V30 701 H 70.4368 -5.6514 0.25155 0
M  V30 702 H 68.9938 -6.48313 0.67329 0
M  V30 703 N 72.4269 -1.23603 -0.977757 0
M  V30 704 C 73.3599 -0.962772 -2.06896 0
M  V30 705 C 74.3379 0.0998743 -1.62293 0
M  V30 706 O 75.5219 -0.0349421 -1.88468 0
M  V30 707 C 72.6489 -0.45095 -3.35685 0
M  V30 708 C 71.6949 -1.50061 -3.99229 0
M  V30 709 S 72.5279 -3.07884 -4.38142 0
M  V30 710 C 73.6839 -2.58378 -5.7008 0
M  V30 711 H 73.9169 -1.88677 -2.29757 0
M  V30 712 H 71.4499 -1.06876 -1.11431 0
M  V30 713 H 73.4079 -0.162261 -4.10179 0
M  V30 714 H 72.0689 0.452179 -3.10828 0
M  V30 715 H 71.2619 -1.09269 -4.92013 0
M  V30 716 H 70.8639 -1.73878 -3.31123 0
M  V30 717 H 73.1559 -2.00563 -6.47133 0
M  V30 718 H 74.0989 -3.49711 -6.15717 0
M  V30 719 H 74.5069 -1.99143 -5.28207 0
M  V30 720 N 73.905 1.17692 -1.04816 0
M  V30 721 C 75.151 1.88137 -0.75711 0
M  V30 722 C 75.484 1.80604 0.713841 0
M  V30 723 O 74.759 1.21146 1.52164 0
M  V30 724 C 75.042 3.38318 -1.2334 0
M  V30 725 C 74.895 3.54622 -2.76701 0
M  V30 726 C 76.214 4.32214 -0.829415 0
M  V30 727 H 73.333 0.683163 -0.27651 0
M  V30 728 H 75.975 1.38424 -1.30149 0
M  V30 729 H 74.125 3.80787 -0.770286 0
M  V30 730 H 75.797 3.21194 -3.31107 0
M  V30 731 H 74.04 2.97026 -3.16161 0
M  V30 732 H 74.711 4.60028 -3.05088 0
M  V30 733 H 77.187 3.97565 -1.22805 0
M  V30 734 H 76.063 5.35838 -1.19033 0
M  V30 735 H 76.324 4.41294 0.266891 0
M  V30 736 N 75.3831 0.828654 1.34056 0
M  V30 737 C 76.3131 0.269443 2.3194 0
M  V30 738 C 77.2941 -0.617247 1.58506 0
M  V30 739 O 78.4791 -0.542931 1.86456 0
M  V30 740 C 75.6091 -0.564793 3.42677 0
M  V30 741 C 74.5631 0.225241 4.27407 0
M  V30 742 C 73.8891 -0.7321 5.29664 0
M  V30 743 C 75.1891 1.43663 5.02154 0
M  V30 744 H 76.8831 1.08728 2.7896 0
M  V30 745 H 74.4291 0.524283 1.34117 0
M  V30 746 H 76.3821 -0.966233 4.10173 0
M  V30 747 H 75.1061 -1.41574 2.9432 0
M  V30 748 H 73.7651 0.608117 3.61521 0
M  V30 749 H 73.4131 -1.57916 4.77568 0
M  V30 750 H 73.1131 -0.20767 5.87233 0
M  V30 751 H 74.6371 -1.13128 6.00029 0
M  V30 752 H 76.0511 1.1089 5.62473 0
M  V30 753 H 74.4481 1.89711 5.69324 0
M  V30 754 H 75.5181 2.21181 4.31517 0
M  V30 755 N 76.8612 -1.46375 0.584142 0
M  V30 756 C 78.1072 -2.02678 0.0703716 0
M  V30 757 C 78.4402 -1.4545 -1.28678 0
M  V30 758 O 77.7152 -0.62014 -1.84349 0
M  V30 759 C 77.9982 -3.60099 0.00614674 0
M  V30 760 C 77.8512 -4.27709 1.3923 0
M  V30 761 C 79.1702 -4.34598 -0.693742 0
M  V30 762 H 76.2892 -0.736504 0.027047 0
M  V30 763 H 78.9312 -1.74501 0.751615 0
M  V30 764 H 77.0812 -3.84236 -0.574009 0
M  V30 765 H 78.7532 -4.14832 2.01773 0
M  V30 766 H 76.9962 -3.87016 1.95962 0
M  V30 767 H 77.6672 -5.36478 1.29982 0
M  V30 768 H 80.1432 -4.15615 -0.200869 0
M  V30 769 H 79.0192 -5.44318 -0.707714 0
M  V30 770 H 79.2802 -4.05759 -1.75533 0
M  V30 771 N 78.3393 -0.321999 -1.54275 0
M  V30 772 C 79.2893 0.560185 -2.21011 0
M  V30 773 C 80.2733 1.08283 -1.19011 0
M  V30 774 O 81.4653 1.02011 -1.44647 0
M  V30 775 C 78.5943 1.72137 -2.97025 0
M  V30 776 C 77.6803 1.21369 -4.06363 0
M  V30 777 N 78.0713 0.425566 -5.04007 0
M  V30 778 C 76.3693 1.49255 -4.20284 0
M  V30 779 C 77.0703 0.152601 -5.815 0
M  V30 780 N 76.0463 0.738294 -5.38563 0
M  V30 781 H 79.8483 -0.049265 -2.93859 0
M  V30 782 H 77.3623 -0.127779 -1.61897 0
M  V30 783 H 79.3593 2.36512 -3.43319 0
M  V30 784 H 78.0193 2.33431 -2.25699 0
M  V30 785 H 79.0303 0.068551 -5.17855 0
M  V30 786 H 75.7073 2.11145 -3.60172 0
M  V30 787 H 77.0973 -0.481764 -6.70171 0
M  V30 788 N 79.8174 1.5752 -0.0501392 0
M  V30 789 C 81.0454 1.96963 0.633492 0
M  V30 790 C 81.4604 0.927631 1.6444 0
M  V30 791 O 80.8174 -0.0882665 1.82286 0
M  V30 792 C 80.8684 3.36487 1.32132 0
M  V30 793 O 80.5894 4.36693 0.350894 0
M  V30 794 C 82.0904 3.90682 2.09481 0
M  V30 795 H 79.3104 0.648244 0.173266 0
M  V30 796 H 81.8544 2.0417 -0.116134 0
M  V30 797 H 80.0094 3.30434 2.02218 0
M  V30 798 H 80.4234 5.17702 0.841735 0
M  V30 799 H 81.8974 4.90591 2.5303 0
M  V30 800 H 82.3744 3.26053 2.94255 0
M  V30 801 H 82.9804 4.00069 1.44307 0
M  V30 802 N 81.2955 -0.223234 1.56011 0
M  V30 803 C 82.5235 -0.964812 1.83027 0
M  V30 804 C 82.9385 -1.78013 0.62904 0
M  V30 805 O 82.2955 -1.78008 -0.402414 0
M  V30 806 C 82.3465 -1.88373 3.08542 0
M  V30 807 O 82.0675 -1.10137 4.2403 0
M  V30 808 C 83.5685 -2.73934 3.48533 0
M  V30 809 H 80.7885 -0.282842 0.608475 0
M  V30 810 H 83.3325 -0.238971 2.03099 0
M  V30 811 H 81.4875 -2.56354 2.9045 0
M  V30 812 H 81.9015 -1.72501 4.95322 0
M  V30 813 H 83.3755 -3.34117 4.39397 0
M  V30 814 H 83.8525 -3.46244 2.70207 0
M  V30 815 H 84.4585 -2.11369 3.69057 0
M  V30 816 N 82.7736 -1.49793 -0.48987 0
M  V30 817 C 83.7036 -1.70201 -1.59856 0
M  V30 818 C 84.6846 -0.55076 -1.60937 0
M  V30 819 O 85.8696 -0.787841 -1.77501 0
M  V30 820 C 82.9996 -1.77882 -2.98287 0
M  V30 821 C 81.9536 -2.92907 -3.12073 0
M  V30 822 C 81.2796 -2.85712 -4.51965 0
M  V30 823 C 82.5796 -4.3369 -2.91051 0
M  V30 824 H 84.2736 -2.63025 -1.43032 0
M  V30 825 H 81.8196 -1.26574 -0.686664 0
M  V30 826 H 83.7726 -1.90744 -3.75759 0
M  V30 827 H 82.4966 -0.816653 -3.16225 0
M  V30 828 H 81.1556 -2.79665 -2.37029 0
M  V30 829 H 80.8036 -1.8738 -4.66795 0
M  V30 830 H 80.5036 -3.62921 -4.62128 0
M  V30 831 H 82.0276 -3.00598 -5.31482 0
M  V30 832 H 83.4416 -4.47555 -3.58284 0
M  V30 833 H 81.8386 -5.12205 -3.12675 0
M  V30 834 H 82.9086 -4.47362 -1.87071 0
M  V30 835 N 84.2517 0.741722 -1.39055 0
M  V30 836 C 85.6627 1.31966 -1.32068 0
M  V30 837 C 86.0137 1.96192 0.0180797 0
M  V30 838 O 85.1387 1.95861 0.920196 0
M  V30 839 C 85.7337 2.39954 -2.39181 0
M  V30 840 C 84.2927 2.93438 -2.35735 0
M  V30 841 C 83.4397 1.66936 -2.21422 0
M  V30 842 H 86.3907 0.539721 -1.4924 0
M  V30 843 H 86.4117 3.20182 -2.05581 0
M  V30 844 H 85.9237 1.9318 -3.36605 0
M  V30 845 H 84.0247 3.4451 -1.41929 0
M  V30 846 H 84.1377 3.4701 -3.30335 0
M  V30 847 H 82.5017 1.91016 -1.68478 0
M  V30 848 H 83.2847 1.22224 -3.20806 0
M  V30 849 N 85.7298 1.2412 0.971189 0
M  V30 850 C 86.9548 1.10667 1.75407 0
M  V30 851 C 87.3798 -0.337048 1.85056 0
M  V30 852 O 86.7378 -1.24396 1.31892 0
M  V30 853 C 86.7858 1.74726 3.15441 0
M  V30 854 O 85.8898 1.01566 3.99697 0
M  V30 855 H 85.2308 0.387341 0.539317 0
M  V30 856 H 87.7608 1.64358 1.2185 0
M  V30 857 H 87.7708 1.80341 3.6598 0
M  V30 858 H 86.4458 2.79773 3.07734 0
M  V30 859 H 85.0228 1.03713 3.58187 0
M  V30 860 N 87.2079 -1.17134 1.05439 0
M  V30 861 C 88.1399 -2.2078 0.615539 0
M  V30 862 C 89.1529 -1.59584 -0.322001 0
M  V30 863 O 90.3419 -1.78133 -0.114344 0
M  V30 864 C 87.4419 -3.38691 -0.118938 0
M  V30 865 C 86.6149 -4.29454 0.829924 0
M  V30 866 C 85.6739 -5.26024 0.136258 0
M  V30 867 O 84.6999 -5.63952 0.77115 0
M  V30 868 N 85.9019 -5.69487 -1.1254 0
M  V30 869 H 88.6669 -2.59052 1.50705 0
M  V30 870 H 86.2279 -1.32058 0.936603 0
M  V30 871 H 88.2199 -4.00329 -0.593179 0
M  V30 872 H 86.7899 -2.98996 -0.91215 0
M  V30 873 H 86.0099 -3.65211 1.48373 0
M  V30 874 H 87.2979 -4.86984 1.47392 0
M  V30 875 H 86.6959 -5.4075 -1.6615 0
M  V30 876 H 85.2529 -6.33257 -1.54366 0
M  V30 877 N 88.686 -0.835752 -1.33615 0
M  V30 878 C 89.596 -0.269088 -2.33052 0
M  V30 879 C 90.612 0.603251 -1.63208 0
M  V30 880 O 91.788 0.508112 -1.94885 0
M  V30 881 C 88.853 0.549091 -3.42324 0
M  V30 882 C 87.914 -0.347156 -4.27894 0
M  V30 883 C 87.147 0.43207 -5.31948 0
M  V30 884 O 87.37 1.66409 -5.45586 0
M  V30 885 O 86.304 -0.192298 -6.01593 0
M  V30 886 H 90.13 -1.09243 -2.83372 0
M  V30 887 H 87.715 -0.598198 -1.36901 0
M  V30 888 H 89.597 1.01414 -4.09015 0
M  V30 889 H 88.272 1.34955 -2.94226 0
M  V30 890 H 87.179 -0.859979 -3.64081 0
M  V30 891 H 88.512 -1.1123 -4.79467 0
M  V30 892 N 90.1641 1.46063 -0.591896 0
M  V30 893 C 91.4101 2.02638 -0.0811191 0
M  V30 894 C 91.7431 1.4613 1.27905 0
M  V30 895 O 91.0181 0.629908 1.84017 0
M  V30 896 C 91.3011 3.60091 -0.0252436 0
M  V30 897 C 91.1541 4.26965 -1.41496 0
M  V30 898 C 92.4731 4.3496 0.670685 0
M  V30 899 H 89.5921 0.73635 -0.0309524 0
M  V30 900 H 92.2341 1.741 -0.760859 0
M  V30 901 H 90.3841 3.84535 0.553624 0
M  V30 902 H 92.0561 4.13756 -2.0397 0
M  V30 903 H 90.2991 3.85971 -1.98011 0
M  V30 904 H 90.9701 5.35781 -1.32825 0
M  V30 905 H 93.4461 4.15716 0.178825 0
M  V30 906 H 92.3221 5.44686 0.678837 0
M  V30 907 H 92.5831 4.06685 1.73379 0
M  V30 908 N 91.6422 0.330177 1.54103 0
M  V30 909 C 92.5742 -0.566902 2.22079 0
M  V30 910 C 93.5872 -1.07462 1.22294 0
M  V30 911 O 94.7762 -0.987065 1.48726 0
M  V30 912 C 91.8762 -1.79138 2.87685 0
M  V30 913 C 91.0492 -1.42123 4.13666 0
M  V30 914 C 90.1082 -2.50394 4.62806 0
M  V30 915 O 89.1342 -2.14261 5.27334 0
M  V30 916 N 90.3362 -3.81433 4.37595 0
M  V30 917 H 93.1012 0.0151844 2.99696 0
M  V30 918 H 90.6622 0.153681 1.61169 0
M  V30 919 H 92.6542 -2.50975 3.1748 0
M  V30 920 H 91.2242 -2.28115 2.13734 0
M  V30 921 H 90.4442 -0.534201 3.90564 0
M  V30 922 H 91.7322 -1.14971 4.9564 0
M  V30 923 H 91.1302 -4.13584 3.8596 0
M  V30 924 H 89.6872 -4.4948 4.72029 0
M  V30 925 N 93.1203 -1.57491 0.0584922 0
M  V30 926 C 94.0833 -2.1085 -0.898617 0
M  V30 927 C 95.0833 -1.02964 -1.23511 0
M  V30 928 O 96.2733 -1.29007 -1.17059 0
M  V30 929 C 93.4053 -2.59881 -2.20623 0
M  V30 930 H 94.5983 -2.96715 -0.435936 0
M  V30 931 H 92.1513 -1.55141 -0.190023 0
M  V30 932 H 92.8863 -1.77431 -2.71457 0
M  V30 933 H 92.6713 -3.38727 -1.97501 0
M  V30 934 H 94.1613 -3.01285 -2.89166 0
M  V30 935 N 94.5984 0.214957 -1.56127 0
M  V30 936 C 95.5284 1.2695 -1.95974 0
M  V30 937 C 96.5094 1.48539 -0.828868 0
M  V30 938 O 97.6944 1.60611 -1.09168 0
M  V30 939 C 94.8244 2.61794 -2.28214 0
M  V30 940 C 93.7784 2.54851 -3.43853 0
M  V30 941 C 93.1044 3.93785 -3.61715 0
M  V30 942 C 94.4044 2.09065 -4.78632 0
M  V30 943 H 96.0984 0.93846 -2.84312 0
M  V30 944 H 93.6444 0.449996 -1.36788 0
M  V30 945 H 95.5974 3.35731 -2.54682 0
M  V30 946 H 94.3214 2.96599 -1.36736 0
M  V30 947 H 92.9804 1.8337 -3.17444 0
M  V30 948 H 92.6284 4.25908 -2.67602 0
M  V30 949 H 92.3284 3.90019 -4.39498 0
M  V30 950 H 93.8524 4.69374 -3.90539 0
M  V30 951 H 95.2664 2.7275 -5.04262 0
M  V30 952 H 93.6634 2.16346 -5.59745 0
M  V30 953 H 94.7334 1.04315 -4.73547 0
M  V30 954 N 96.0765 1.50051 0.48192 0
M  V30 955 C 97.0065 1.71046 1.58951 0
M  V30 956 C 97.9875 0.559288 1.60642 0
M  V30 957 O 99.1725 0.797243 1.77081 0
M  V30 958 C 96.3025 1.79462 2.97339 0
M  V30 959 C 95.2565 2.94558 3.10515 0
M  V30 960 C 94.5825 2.88105 4.50444 0
M  V30 961 C 95.8825 4.35227 2.88747 0
M  V30 962 H 97.5765 2.6378 1.41635 0
M  V30 963 H 95.1225 1.26936 0.679942 0
M  V30 964 H 97.0755 1.92734 3.74742 0
M  V30 965 H 95.7995 0.833412 3.15788 0
M  V30 966 H 94.4585 2.80918 2.35543 0
M  V30 967 H 94.1065 1.89853 4.65795 0
M  V30 968 H 93.8065 3.65366 4.60197 0
M  V30 969 H 95.3305 3.03412 5.29881 0
M  V30 970 H 96.7445 4.49449 3.55905 0
M  V30 971 H 95.1415 5.13856 3.09955 0
M  V30 972 H 96.2115 4.48347 1.84696 0
M  V30 973 N 97.5546 -0.734337 1.39446 0
M  V30 974 C 98.4646 -1.87879 1.40495 0
M  V30 975 C 99.4806 -1.714 0.299672 0
M  V30 976 O 100.657 -1.93991 0.541249 0
M  V30 977 C 97.7216 -3.23477 1.24754 0
M  V30 978 C 96.7826 -3.52344 2.45259 0
M  V30 979 C 96.0156 -4.81473 2.30259 0
M  V30 980 O 96.2386 -5.55237 1.30643 0
M  V30 981 O 95.1726 -5.10254 3.19256 0
M  V30 982 H 98.9986 -1.89949 2.36966 0
M  V30 983 H 96.5836 -0.882243 1.20569 0
M  V30 984 H 98.4656 -4.04509 1.18111 0
M  V30 985 H 97.1406 -3.22176 0.313781 0
M  V30 986 H 96.0476 -2.71396 2.57478 0
M  V30 987 H 97.3806 -3.58426 3.37331 0
M  V30 988 N 99.0327 -1.24633 -0.964593 0
M  V30 989 C 100.281 -1.08573 -1.70459 0
M  V30 990 C 100.602 0.375655 -1.91347 0
M  V30 991 O 99.8717 1.26779 -1.49345 0
M  V30 992 H 98.4517 -0.398784 -0.631649 0
M  V30 993 H 101.114 -1.56601 -1.16026 0
M  V30 994 H 100.21 -1.58623 -2.68785 0
M  V30 995 N 100.511 1.16574 -1.06058 0
M  V30 996 C 101.739 1.90952 -0.796552 0
M  V30 997 C 102.154 1.77302 0.648808 0
M  V30 998 O 101.511 1.11605 1.44397 0
M  V30 999 C 101.562 3.41736 -1.17894 0
M  V30 1000 O 101.283 3.54975 -2.56758 0
M  V30 1001 C 102.784 4.33169 -0.942308 0
M  V30 1002 H 100.004 0.605594 -0.288959 0
M  V30 1003 H 102.548 1.47777 -1.41358 0
M  V30 1004 H 100.703 3.82623 -0.606491 0
M  V30 1005 H 101.117 4.4846 -2.72 0
M  V30 1006 H 102.591 5.37439 -1.25952 0
M  V30 1007 H 103.068 4.3903 0.122078 0
M  V30 1008 H 103.674 3.98007 -1.49902 0
M  V30 1009 N 101.989 0.842826 1.3317 0
M  V30 1010 C 103.237 0.439577 1.97262 0
M  V30 1011 C 103.558 -1.00548 1.67078 0
M  V30 1012 O 102.828 -1.70098 0.971779 0
M  V30 1013 H 101.408 0.159558 0.72976 0
M  V30 1014 H 104.07 1.07665 1.62463 0
M  V30 1015 H 103.166 0.574886 3.0676 0
M  V30 1016 N 103.467 -1.45747 0.599634 0
M  V30 1017 C 104.883 -1.57424 0.26264 0
M  V30 1018 C 105.083 -1.59222 -1.23493 0
M  V30 1019 O 104.139 -1.51825 -2.01756 0
M  V30 1020 C 105.452 -2.86061 0.926795 0
M  V30 1021 C 107 -2.99722 0.901967 0
M  V30 1022 C 107.475 -4.31119 1.54598 0
M  V30 1023 N 108.966 -4.37858 1.5111 0
M  V30 1024 C 109.701 -5.3818 1.97863 0
M  V30 1025 N 109.197 -6.45083 2.52666 0
M  V30 1026 N 110.99 -5.29487 1.88679 0
M  V30 1027 H 103.141 -1.42823 1.57211 0
M  V30 1028 H 105.404 -0.68235 0.658105 0
M  V30 1029 H 105.11 -2.90605 1.98095 0
M  V30 1030 H 104.984 -3.74563 0.445238 0
M  V30 1031 H 107.371 -2.9475 -0.143617 0
M  V30 1032 H 107.452 -2.12652 1.42171 0
M  V30 1033 H 107.096 -4.36849 2.59085 0
M  V30 1034 H 107.026 -5.16992 1.00132 0
M  V30 1035 H 109.517 -3.61209 1.11068 0
M  V30 1036 H 109.83 -7.17869 2.86155 0
M  V30 1037 H 108.175 -6.45856 2.56701 0
M  V30 1038 H 111.366 -4.44877 1.4561 0
M  V30 1039 H 111.539 -6.07524 2.25429 0
M  V30 1040 N 104.945 -0.338344 -1.53925 0
M  V30 1041 C 105.877 0.555117 -2.22376 0
M  V30 1042 C 106.89 1.06812 -1.22862 0
M  V30 1043 O 108.079 0.979163 -1.49247 0
M  V30 1044 C 105.179 1.77609 -2.88631 0
M  V30 1045 C 104.352 1.39927 -4.14414 0
M  V30 1046 C 103.411 2.47936 -4.64127 0
M  V30 1047 O 102.437 2.11461 -5.28463 0
M  V30 1048 N 103.639 3.79107 -4.39612 0
M  V30 1049 H 106.404 -0.0310778 -2.99684 0
M  V30 1050 H 103.965 -0.162226 -1.61085 0
M  V30 1051 H 105.957 2.49287 -3.18807 0
M  V30 1052 H 104.527 2.26978 -2.14941 0
M  V30 1053 H 103.747 0.513481 -3.90841 0
M  V30 1054 H 105.035 1.12341 -4.96243 0
M  V30 1055 H 104.433 4.11531 -3.88148 0
M  V30 1056 H 102.99 4.4697 -4.74406 0
M  V30 1057 N 106.423 1.57458 -0.0668435 0
M  V30 1058 C 107.386 2.11323 0.887422 0
M  V30 1059 C 108.386 1.03618 1.22964 0
M  V30 1060 O 109.576 1.29626 1.16373 0
M  V30 1061 C 106.708 2.61048 2.19242 0
M  V30 1062 H 107.901 2.96942 0.420194 0
M  V30 1063 H 105.454 1.55239 0.181793 0
M  V30 1064 H 106.189 1.78868 2.70512 0
M  V30 1065 H 105.974 3.39769 1.95702 0
M  V30 1066 H 107.464 3.02814 2.87565 0
M  V30 1067 N 107.901 -0.206675 1.56239 0
M  V30 1068 C 109.147 -0.930218 1.80208 0
M  V30 1069 C 109.48 -1.83387 0.638981 0
M  V30 1070 O 108.755 -1.91119 -0.361066 0
M  V30 1071 C 109.038 -1.75641 3.1436 0
M  V30 1072 C 108.891 -0.878257 4.41142 0
M  V30 1073 C 110.21 -2.73129 3.45092 0
M  V30 1074 H 107.329 -0.336742 0.655571 0
M  V30 1075 H 109.971 -0.198222 1.88963 0
M  V30 1076 H 108.121 -2.38048 3.07027 0
M  V30 1077 H 109.793 -0.269787 4.6051 0
M  V30 1078 H 108.036 -0.184385 4.33408 0
M  V30 1079 H 108.707 -1.49106 5.3148 0
M  V30 1080 H 111.183 -2.20856 3.52649 0
M  V30 1081 H 110.059 -3.28028 4.40101 0
M  V30 1082 H 110.32 -3.51606 2.68003 0
M  V30 1083 N 109.379 -1.50304 -0.473955 0
M  V30 1084 C 110.309 -1.71886 -1.58042 0
M  V30 1085 C 111.29 -0.567799 -1.60344 0
M  V30 1086 O 112.475 -0.806623 -1.76656 0
M  V30 1087 C 109.605 -1.81036 -2.96384 0
M  V30 1088 C 108.559 -2.962 -3.08949 0
M  V30 1089 C 107.885 -2.9049 -4.48909 0
M  V30 1090 C 109.185 -4.36752 -2.86434 0
M  V30 1091 H 110.879 -2.64527 -1.40234 0
M  V30 1092 H 108.425 -1.27295 -0.673201 0
M  V30 1093 H 110.378 -1.94719 -3.73714 0
M  V30 1094 H 109.102 -0.850147 -3.15341 0
M  V30 1095 H 107.761 -2.82164 -2.3405 0
M  V30 1096 H 107.409 -1.92321 -4.64781 0
M  V30 1097 H 107.109 -3.67802 -4.58253 0
M  V30 1098 H 108.633 -3.06218 -5.28264 0
M  V30 1099 H 110.047 -4.5133 -3.53517 0
M  V30 1100 H 108.444 -5.15493 -3.07225 0
M  V30 1101 H 109.514 -4.49321 -1.82316 0
M  V30 1102 N 110.857 0.726932 -1.39834 0
M  V30 1103 C 111.804 1.841 -1.39197 0
M  V30 1104 C 112.774 1.642 -0.250502 0
M  V30 1105 O 113.959 1.85494 -0.446846 0
M  V30 1106 C 111.099 3.21697 -1.24919 0
M  V30 1107 C 110.212 3.53247 -2.48678 0
M  V30 1108 C 109.347 4.80289 -2.26928 0
M  V30 1109 C 108.386 5.04707 -3.4632 0
M  V30 1110 N 107.523 6.22956 -3.23836 0
M  V30 1111 H 112.363 1.83979 -2.34427 0
M  V30 1112 H 109.9 0.898876 -1.16442 0
M  V30 1113 H 111.858 4.01137 -1.1465 0
M  V30 1114 H 110.488 3.21076 -0.333153 0
M  V30 1115 H 109.54 2.68447 -2.69519 0
M  V30 1116 H 110.852 3.67205 -3.37582 0
M  V30 1117 H 110.006 5.67725 -2.13947 0
M  V30 1118 H 108.745 4.68519 -1.35431 0
M  V30 1119 H 107.75 4.1573 -3.5979 0
M  V30 1120 H 108.975 5.18357 -4.38729 0
M  V30 1121 H 106.921 6.12459 -2.35011 0
M  V30 1122 H 106.838 6.37539 -4.063 0
M  V30 1123 H 108.106 7.1321 -3.14566 0
M  V30 1124 N 112.336 1.25143 0.95797 0
M  V30 1125 C 113.584 1.09476 1.69881 0
M  V30 1126 C 113.905 -0.365502 1.91544 0
M  V30 1127 O 113.175 -1.25985 1.50015 0
M  V30 1128 H 111.755 0.402128 0.629525 0
M  V30 1129 H 114.417 1.57214 1.15194 0
M  V30 1130 H 113.513 1.60046 2.6794 0
M  V30 1131 N 113.814 -1.1601 1.06675 0
M  V30 1132 C 114.747 -2.1947 0.625168 0
M  V30 1133 C 115.725 -1.58699 -0.354041 0
M  V30 1134 O 116.909 -1.86669 -0.262098 0
M  V30 1135 C 114.036 -3.38598 -0.0829593 0
M  V30 1136 C 113.082 -4.1787 0.853611 0
M  V30 1137 S 113.915 -4.81135 2.35094 0
M  V30 1138 C 115.071 -6.03639 1.65441 0
M  V30 1139 H 115.304 -2.56587 1.50168 0
M  V30 1140 H 112.837 -1.26862 0.880078 0
M  V30 1141 H 114.795 -4.07621 -0.485288 0
M  V30 1142 H 113.456 -2.99839 -0.935716 0
M  V30 1143 H 112.649 -5.03078 0.304755 0
M  V30 1144 H 112.251 -3.54361 1.196 0
M  V30 1145 H 114.543 -6.70632 0.962201 0
M  V30 1146 H 115.486 -6.63081 2.48454 0
M  V30 1147 H 115.894 -5.52965 1.13534 0
M  V30 1148 N 115.292 -0.849877 -1.32721 0
M  V30 1149 C 116.54 -0.450032 -1.97026 0
M  V30 1150 C 116.861 0.996604 -1.67609 0
M  V30 1151 O 116.131 1.6958 -0.980786 0
M  V30 1152 H 114.711 -0.163426 -0.728904 0
M  V30 1153 H 117.373 -1.08526 -1.6189 0
M  V30 1154 H 116.469 -0.591146 -3.0645 0
M  V30 1155 N 116.77 1.45427 -0.607355 0
M  V30 1156 C 117.995 2.07124 -0.107006 0
M  V30 1157 C 118.42 1.44906 1.19933 0
M  V30 1158 O 117.778 0.541687 1.73019 0
M  V30 1159 C 117.826 3.60595 0.0194119 0
M  V30 1160 O 116.93 3.98285 1.0697 0
M  V30 1161 H 116.271 0.659868 -0.0739597 0
M  V30 1162 H 118.801 1.86683 -0.837297 0
M  V30 1163 H 118.811 4.07419 0.2177 0
M  V30 1164 H 117.486 4.05266 -0.934453 0
M  V30 1165 H 116.063 3.63133 0.847889 0
M  V30 1166 N 118.248 0.346503 1.53744 0
M  V30 1167 C 119.496 -0.248612 2.00565 0
M  V30 1168 C 119.817 -1.5083 1.23593 0
M  V30 1169 O 119.087 -1.92858 0.343912 0
M  V30 1170 H 117.667 -0.0948564 0.740953 0
M  V30 1171 H 120.329 0.468341 1.89189 0
M  V30 1172 H 119.425 -0.488994 3.08245 0
M  V30 1173 N 119.726 -1.57421 0.075193 0
M  V30 1174 C 120.658 -2.09904 -0.920483 0
M  V30 1175 C 121.671 -1.03191 -1.25918 0
M  V30 1176 O 122.86 -1.30695 -1.21577 0
M  V30 1177 C 119.96 -2.54726 -2.23534 0
M  V30 1178 C 119.133 -3.8505 -2.07498 0
M  V30 1179 C 118.192 -4.15929 -3.22319 0
M  V30 1180 O 117.218 -4.85474 -2.9716 0
M  V30 1181 N 118.42 -3.69745 -4.47514 0
M  V30 1182 H 121.185 -2.95954 -0.472359 0
M  V30 1183 H 118.746 -1.61523 -0.110444 0
M  V30 1184 H 120.738 -2.72443 -2.9926 0
M  V30 1185 H 119.308 -1.73795 -2.59835 0
M  V30 1186 H 118.528 -3.76679 -1.16219 0
M  V30 1187 H 119.816 -4.70348 -1.94038 0
M  V30 1188 H 119.214 -3.13569 -4.7084 0
M  V30 1189 H 117.771 -3.92655 -5.20255 0
M  V30 1190 N 121.204 0.198386 -1.56346 0
M  V30 1191 C 122.134 1.24865 -1.9731 0
M  V30 1192 C 123.115 1.47651 -0.844576 0
M  V30 1193 O 124.3 1.59444 -1.10866 0
M  V30 1194 C 121.43 2.59358 -2.30977 0
M  V30 1195 C 120.384 2.5119 -3.46537 0
M  V30 1196 C 119.71 3.89926 -3.65871 0
M  V30 1197 C 121.01 2.03977 -4.80823 0
M  V30 1198 H 122.704 0.908252 -2.85291 0
M  V30 1199 H 120.25 0.435462 -1.37258 0
M  V30 1200 H 122.203 3.33011 -2.58228 0
M  V30 1201 H 120.927 2.95132 -1.39874 0
M  V30 1202 H 119.586 1.79993 -3.19371 0
M  V30 1203 H 119.234 4.23046 -2.72105 0
M  V30 1204 H 118.934 3.85336 -4.4361 0
M  V30 1205 H 120.458 4.65205 -3.95495 0
M  V30 1206 H 121.872 2.67386 -5.07127 0
M  V30 1207 H 120.269 2.10397 -5.62008 0
M  V30 1208 H 121.339 0.992861 -4.74626 0
M  V30 1209 N 122.682 1.50554 0.465978 0
M  V30 1210 C 123.614 1.65949 1.58093 0
M  V30 1211 C 124.627 0.540827 1.53554 0
M  V30 1212 O 125.816 0.814187 1.5885 0
M  V30 1213 C 122.916 1.63261 2.96983 0
M  V30 1214 C 122.089 2.91245 3.26336 0
M  V30 1215 C 121.148 2.8113 4.44806 0
M  V30 1216 O 120.174 3.55086 4.44862 0
M  V30 1217 N 121.376 1.95032 5.46756 0
M  V30 1218 H 124.141 2.62122 1.45301 0
M  V30 1219 H 121.702 1.48082 0.65448 0
M  V30 1220 H 123.694 1.54101 3.74212 0
M  V30 1221 H 122.264 0.748032 3.03518 0
M  V30 1222 H 121.484 3.14493 2.37672 0
M  V30 1223 H 122.772 3.76022 3.42761 0
M  V30 1224 H 122.17 1.3427 5.49534 0
M  V30 1225 H 120.727 1.91772 6.2295 0
M  V30 1226 N 124.16 -0.719506 1.40217 0
M  V30 1227 C 125.108 -1.85493 1.40339 0
M  V30 1228 C 126.102 -1.66995 0.284415 0
M  V30 1229 O 127.308 -1.74148 0.455252 0
M  V30 1230 H 123.683 -0.610857 0.438586 0
M  V30 1231 H 125.654 -1.82506 2.36081 0
M  V30 1232 C 124.403 -3.23321 1.27901 0
M  V30 1233 H 123.726 -3.38159 2.1328 0
M  V30 1234 H 125.166 -4.02914 1.32045 0
M  V30 1235 C 123.625 -3.36898 -0.0111355 0
M  V30 1236 O 124.155 -3.89674 -0.975538 0
M  V30 1237 N 122.361 -2.90492 -0.0793393 0
M  V30 1238 H 121.908 -2.47731 0.706183 0
M  V30 1239 H 121.866 -2.99955 -0.942038 0
M  V30 1240 N 125.638 -1.25649 -0.95132 0
M  V30 1241 C 126.568 -1.08808 -2.06599 0
M  V30 1242 C 127.549 0.00382547 -1.701 0
M  V30 1243 O 128.734 -0.166325 -1.93486 0
M  V30 1244 C 125.864 -0.709542 -3.39975 0
M  V30 1245 C 124.818 -1.75206 -3.90496 0
M  V30 1246 C 124.144 -1.22811 -5.20405 0
M  V30 1247 C 125.444 -3.15153 -4.16504 0
M  V30 1248 H 127.138 -2.02048 -2.20946 0
M  V30 1249 H 124.684 -0.972835 -1.06169 0
M  V30 1250 H 126.637 -0.578649 -4.17408 0
M  V30 1251 H 125.361 0.258556 -3.25575 0
M  V30 1252 H 124.02 -1.87145 -3.15234 0
M  V30 1253 H 123.668 -0.250145 -5.02378 0
M  V30 1254 H 123.368 -1.92492 -5.55176 0
M  V30 1255 H 124.892 -1.10968 -6.00432 0
M  V30 1256 H 126.306 -3.06349 -4.84586 0
M  V30 1257 H 124.703 -3.82333 -4.62538 0
M  V30 1258 H 125.773 -3.61966 -3.22658 0
M  V30 1259 N 127.117 1.15442 -1.07289 0
M  V30 1260 C 128.365 1.85845 -0.794096 0
M  V30 1261 C 128.686 1.82692 0.681809 0
M  V30 1262 O 127.956 1.26741 1.49377 0
M  V30 1263 H 126.536 0.688089 -0.290763 0
M  V30 1264 H 129.198 1.39947 -1.3565 0
M  V30 1265 H 128.294 2.91001 -1.12804 0
M  V30 1266 N 128.595 0.856903 1.32268 0
M  V30 1267 C 129.558 0.308171 2.27119 0
M  V30 1268 C 130.558 -0.533421 1.51695 0
M  V30 1269 O 131.748 -0.344607 1.70757 0
M  V30 1270 C 128.88 -0.563757 3.36206 0
M  V30 1271 H 130.073 1.14535 2.77167 0
M  V30 1272 H 127.626 0.631421 1.42978 0
M  V30 1273 H 128.361 -1.42266 2.91429 0
M  V30 1274 H 128.146 0.0386749 3.92081 0
M  V30 1275 H 129.636 -0.940386 4.06874 0
M  V30 1276 N 130.073 -1.45103 0.615059 0
M  V30 1277 C 131.036 -2.29025 -0.0895485 0
M  V30 1278 C 132.036 -1.40174 -0.787906 0
M  V30 1279 O 133.226 -1.62217 -0.634933 0
M  V30 1280 C 130.358 -3.21376 -1.13711 0
M  V30 1281 H 131.551 -2.92807 0.648382 0
M  V30 1282 H 129.104 -1.51749 0.374444 0
M  V30 1283 H 129.839 -2.6241 -1.90556 0
M  V30 1284 H 129.624 -3.86834 -0.640475 0
M  V30 1285 H 131.114 -3.84459 -1.63036 0
M  V30 1286 N 131.551 -0.354651 -1.53558 0
M  V30 1287 C 132.797 0.238797 -2.01389 0
M  V30 1288 C 133.13 1.49309 -1.2418 0
M  V30 1289 O 132.405 1.91638 -0.332457 0
M  V30 1290 C 132.688 0.541771 -3.56001 0
M  V30 1291 C 132.541 -0.725388 -4.43912 0
M  V30 1292 C 133.86 1.34685 -4.18984 0
M  V30 1293 H 130.979 0.0853177 -0.732045 0
M  V30 1294 H 133.621 -0.477384 -1.83905 0
M  V30 1295 H 131.771 1.15189 -3.71031 0
M  V30 1296 H 133.443 -1.36313 -4.407 0
M  V30 1297 H 131.686 -1.34801 -4.12324 0
M  V30 1298 H 132.357 -0.468505 -5.50008 0
M  V30 1299 H 134.833 0.830837 -4.07721 0
M  V30 1300 H 133.709 1.52759 -5.27215 0
M  V30 1301 H 133.97 2.35221 -3.74331 0
M  V30 1302 N 133.029 1.57378 -0.0835403 0
M  V30 1303 C 133.992 2.12252 0.864959 0
M  V30 1304 C 134.992 1.04916 1.21858 0
M  V30 1305 O 136.182 1.30853 1.14991 0
M  V30 1306 C 133.314 2.63358 2.16461 0
M  V30 1307 H 134.507 2.97371 0.388676 0
M  V30 1308 H 132.06 1.55423 0.165317 0
M  V30 1309 H 132.795 1.81727 2.686 0
M  V30 1310 H 132.58 3.41826 1.92087 0
M  V30 1311 H 134.07 3.05847 2.84337 0
M  V30 1312 N 134.507 -0.190092 1.56449 0
M  V30 1313 C 135.756 -0.907912 1.80111 0
M  V30 1314 C 136.069 -1.84214 0.657619 0
M  V30 1315 O 137.275 -2.60094 0.778663 0
M  V30 1316 C 135.731 -1.66485 3.19078 0
M  V30 1317 C 135.339 -0.7752 4.41242 0
M  V30 1318 C 137.083 -2.37201 3.52045 0
M  V30 1319 C 134.99 -1.53129 5.71231 0
M  V30 1320 H 133.92 -0.34276 0.671589 0
M  V30 1321 H 136.571 -0.161109 1.82791 0
M  V30 1322 H 134.953 -2.45572 3.10661 0
M  V30 1323 H 136.127 -0.0226298 4.60794 0
M  V30 1324 H 134.442 -0.178627 4.16017 0
M  V30 1325 H 137.039 -2.94329 4.46402 0
M  V30 1326 H 137.382 -3.11632 2.76028 0
M  V30 1327 H 137.915 -1.65075 3.61932 0
M  V30 1328 H 134.654 -0.82967 6.50228 0
M  V30 1329 H 134.174 -2.25767 5.55688 0
M  V30 1330 H 135.853 -2.08377 6.12526 0
M  V30 1331 N 135.985 -1.50799 -0.457987 0
M  V30 1332 C 136.915 -1.73553 -1.5621 0
M  V30 1333 C 137.896 -0.584774 -1.59732 0
M  V30 1334 O 139.081 -0.825314 -1.7579 0
M  V30 1335 C 136.211 -1.84169 -2.94447 0
M  V30 1336 C 135.165 -2.99461 -3.0579 0
M  V30 1337 C 134.491 -2.95235 -4.45803 0
M  V30 1338 C 135.791 -4.39766 -2.81786 0
M  V30 1339 H 137.485 -2.66 -1.37421 0
M  V30 1340 H 135.031 -1.28002 -0.659662 0
M  V30 1341 H 136.984 -1.98672 -3.71628 0
M  V30 1342 H 135.708 -0.883545 -3.14422 0
M  V30 1343 H 134.367 -2.8463 -2.31044 0
M  V30 1344 H 134.015 -1.97239 -4.62715 0
M  V30 1345 H 133.715 -3.72642 -4.54326 0
M  V30 1346 H 135.239 -3.11803 -5.24987 0
M  V30 1347 H 136.653 -4.55054 -3.4871 0
M  V30 1348 H 135.05 -5.18722 -3.0174 0
M  V30 1349 H 136.12 -4.51229 -1.7754 0
M  V30 1350 N 137.463 0.71206 -1.40597 0
M  V30 1351 C 138.711 1.46907 -1.38791 0
M  V30 1352 C 139.032 1.94998 0.00780391 0
M  V30 1353 O 138.302 1.70587 0.963174 0
M  V30 1354 H 136.882 0.545043 -0.51082 0
M  V30 1355 H 139.544 0.843882 -1.75683 0
M  V30 1356 H 138.64 2.34021 -2.06496 0
M  V30 1357 N 138.941 1.26152 0.944643 0
M  V30 1358 C 140.189 1.11271 1.6871 0
M  V30 1359 C 140.51 -0.345166 1.91921 0
M  V30 1360 O 139.78 -1.24387 1.51343 0
M  V30 1361 H 138.36 0.408783 0.625224 0
M  V30 1362 H 141.022 1.58427 1.1352 0
M  V30 1363 H 140.118 1.62879 2.66227 0
M  V30 1364 N 140.419 -1.14872 1.07899 0
M  V30 1365 C 141.83 -1.67367 0.827363 0
M  V30 1366 C 142.181 -1.85236 -0.646693 0
M  V30 1367 O 141.306 -1.55974 -1.50004 0
M  V30 1368 C 141.901 -3.04016 1.49532 0
M  V30 1369 C 140.46 -3.53566 1.29106 0
M  V30 1370 C 139.607 -2.29161 1.56143 0
M  V30 1371 H 142.558 -0.990083 1.24028 0
M  V30 1372 H 142.579 -3.69219 0.919643 0
M  V30 1373 H 142.091 -2.90978 2.56814 0
M  V30 1374 H 140.192 -3.71835 0.238713 0
M  V30 1375 H 140.305 -4.34661 2.01511 0
M  V30 1376 H 138.669 -2.34978 0.982717 0
M  V30 1377 H 139.452 -2.18705 2.64619 0
M  V30 1378 N 141.898 -0.863906 -1.31812 0
M  V30 1379 C 143.146 -0.470904 -1.96537 0
M  V30 1380 C 143.467 0.978771 -1.68657 0
M  V30 1381 O 142.737 1.6853 -0.998717 0
M  V30 1382 H 141.317 -0.171148 -0.72713 0
M  V30 1383 H 143.979 -1.10236 -1.60729 0
M  V30 1384 H 143.075 -0.623616 -3.05806 0
M  V30 1385 N 143.376 1.44774 -0.622745 0
M  V30 1386 C 144.604 2.06487 -0.130722 0
M  V30 1387 C 145.019 1.46476 1.19123 0
M  V30 1388 O 144.376 0.584502 1.72887 0
M  V30 1389 C 144.427 3.615 -0.000807207 0
M  V30 1390 O 144.148 4.19274 -1.27048 0
M  V30 1391 C 145.649 4.40229 0.520898 0
M  V30 1392 H 142.869 0.666704 -0.0758106 0
M  V30 1393 H 145.413 1.85779 -0.854774 0
M  V30 1394 H 143.568 3.81498 0.673643 0
M  V30 1395 H 143.982 5.12622 -1.1099 0
M  V30 1396 H 145.456 5.49144 0.560838 0
M  V30 1397 H 145.933 4.1108 1.54627 0
M  V30 1398 H 146.539 4.25131 -0.120018 0
M  V30 1399 N 144.854 0.36279 1.53368 0
M  V30 1400 C 146.1 -0.228113 2.01513 0
M  V30 1401 C 146.433 -1.48648 1.2497 0
M  V30 1402 O 145.708 -1.91459 0.342616 0
M  V30 1403 C 145.991 -0.522884 3.56284 0
M  V30 1404 C 145.844 0.74892 4.43521 0
M  V30 1405 C 147.163 -1.32461 4.19693 0
M  V30 1406 H 144.282 -0.0814343 0.732487 0
M  V30 1407 H 146.924 0.48713 1.83649 0
M  V30 1408 H 145.074 -1.1322 3.71636 0
M  V30 1409 H 146.746 1.38648 4.39971 0
M  V30 1410 H 144.989 1.36986 4.11603 0
M  V30 1411 H 145.66 0.497667 5.49752 0
M  V30 1412 H 148.136 -0.809203 4.08156 0
M  V30 1413 H 147.012 -1.49961 5.28018 0
M  V30 1414 H 147.273 -2.33232 3.75573 0
M  V30 1415 N 146.332 -1.57332 0.0918853 0
M  V30 1416 C 147.264 -2.10869 -0.898168 0
M  V30 1417 C 148.277 -1.04521 -1.24817 0
M  V30 1418 O 149.466 -1.31977 -1.20184 0
M  V30 1419 C 146.566 -2.57083 -2.2082 0
M  V30 1420 C 145.739 -3.87229 -2.03402 0
M  V30 1421 C 144.798 -4.19324 -3.17889 0
M  V30 1422 O 143.824 -4.88598 -2.91994 0
M  V30 1423 N 145.026 -3.74471 -4.43567 0
M  V30 1424 H 147.791 -2.96439 -0.440943 0
M  V30 1425 H 145.352 -1.61631 -0.0933064 0
M  V30 1426 H 147.344 -2.75602 -2.96354 0
M  V30 1427 H 145.914 -1.76541 -2.57977 0
M  V30 1428 H 145.134 -3.7789 -1.12218 0
M  V30 1429 H 146.422 -4.72379 -1.89038 0
M  V30 1430 H 145.82 -3.18546 -4.67488 0
M  V30 1431 H 144.377 -3.98151 -5.16061 0
M  V30 1432 N 147.81 0.181792 -1.56548 0
M  V30 1433 C 149.058 0.89832 -1.81038 0
M  V30 1434 C 149.379 1.83232 -0.667164 0
M  V30 1435 O 148.649 1.93372 0.313673 0
M  V30 1436 H 147.229 0.33471 -0.667816 0
M  V30 1437 H 149.891 0.184116 -1.94028 0
M  V30 1438 H 148.987 1.4815 -2.74696 0
M  V30 1439 N 149.288 1.51039 0.449983 0
M  V30 1440 C 150.534 1.63322 1.20223 0
M  V30 1441 C 150.867 0.34241 1.91158 0
M  V30 1442 O 150.142 -0.657344 1.83055 0
M  V30 1443 C 150.425 2.82801 2.22925 0
M  V30 1444 C 150.278 4.21823 1.56157 0
M  V30 1445 C 151.597 2.97807 3.24035 0
M  V30 1446 H 148.716 0.594407 0.435718 0
M  V30 1447 H 151.358 1.83489 0.493136 0
M  V30 1448 H 149.508 2.65738 2.834 0
M  V30 1449 H 151.18 4.50526 0.991162 0
M  V30 1450 H 149.423 4.25105 0.864172 0
M  V30 1451 H 150.094 5.01391 2.30891 0
M  V30 1452 H 152.57 3.13497 2.73603 0
M  V30 1453 H 151.446 3.82992 3.93202 0
M  V30 1454 H 151.707 2.09328 3.89402 0
M  V30 1455 N 150.766 -0.704594 1.40972 0
M  V30 1456 C 152.012 -1.46675 1.40051 0
M  V30 1457 C 152.345 -1.94199 0.00641102 0
M  V30 1458 O 151.62 -1.68916 -0.964235 0
M  V30 1459 C 151.903 -2.68505 2.39952 0
M  V30 1460 C 151.756 -2.26805 3.88432 0
M  V30 1461 C 153.075 -3.70686 2.37233 0
M  V30 1462 H 150.194 -0.532015 0.510028 0
M  V30 1463 H 152.836 -0.803255 1.72185 0
M  V30 1464 H 150.986 -3.25114 2.1268 0
M  V30 1465 H 152.658 -1.75592 4.26574 0
M  V30 1466 H 150.901 -1.58685 4.03734 0
M  V30 1467 H 151.572 -3.14181 4.53866 0
M  V30 1468 H 154.048 -3.23731 2.61415 0
M  V30 1469 H 152.924 -4.53553 3.09162 0
M  V30 1470 H 153.185 -4.19754 1.38777 0
M  V30 1471 N 152.244 -1.26651 -0.937939 0
M  V30 1472 C 153.66 -1.03834 -1.21205 0
M  V30 1473 C 153.86 0.234502 -2.00131 0
M  V30 1474 O 152.916 0.942767 -2.3424 0
M  V30 1475 C 154.229 -2.27167 -1.97017 0
M  V30 1476 C 155.777 -2.32101 -2.09996 0
M  V30 1477 C 156.252 -3.55136 -2.8921 0
M  V30 1478 N 157.743 -3.55632 -2.96783 0
M  V30 1479 C 158.478 -4.475 -3.58512 0
M  V30 1480 N 157.974 -5.4966 -4.21717 0
M  V30 1481 N 159.767 -4.35145 -3.55816 0
M  V30 1482 H 151.918 -2.08398 -0.410391 0
M  V30 1483 H 154.181 -0.916031 -0.244114 0
M  V30 1484 H 153.887 -3.19765 -1.46434 0
M  V30 1485 H 153.761 -2.31672 -2.97671 0
M  V30 1486 H 156.148 -1.40015 -2.59769 0
M  V30 1487 H 156.229 -2.31605 -1.08594 0
M  V30 1488 H 155.873 -4.47553 -2.40123 0
M  V30 1489 H 155.803 -3.5288 -3.90875 0
M  V30 1490 H 158.294 -2.81743 -2.51852 0
M  V30 1491 H 158.607 -6.15943 -4.66727 0
M  V30 1492 H 156.952 -5.53514 -4.20294 0
M  V30 1493 H 160.143 -3.5455 -3.05634 0
M  V30 1494 H 160.316 -5.06934 -4.03636 0
M  V30 1495 N 153.722 1.14298 -1.08507 0
M  V30 1496 C 154.969 1.85359 -0.815373 0
M  V30 1497 C 155.297 1.83001 0.658865 0
M  V30 1498 O 154.552 1.25655 1.50031 0
M  V30 1499 C 154.851 3.33547 -1.28379 0
M  V30 1500 C 154.517 3.56093 -2.76602 0
M  V30 1501 C 153.179 3.61955 -3.17084 0
M  V30 1502 C 155.531 3.64834 -3.72217 0
M  V30 1503 C 152.859 3.74082 -4.51973 0
M  V30 1504 C 155.211 3.78487 -5.06883 0
M  V30 1505 C 153.875 3.82598 -5.46969 0
M  V30 1506 H 153.145 0.678276 -0.298366 0
M  V30 1507 H 155.792 1.35002 -1.35819 0
M  V30 1508 H 154.097 3.86191 -0.660593 0
M  V30 1509 H 155.794 3.86959 -1.05186 0
M  V30 1510 H 152.384 3.52179 -2.4427 0
M  V30 1511 H 156.568 3.59595 -3.42061 0
M  V30 1512 H 151.824 3.75527 -4.82483 0
M  V30 1513 H 155.998 3.84193 -5.80834 0
M  V30 1514 H 153.625 3.91747 -6.51489 0
M  V30 1515 N 155.201 0.870884 1.31352 0
M  V30 1516 C 156.131 0.343096 2.30966 0
M  V30 1517 C 157.112 -0.566507 1.60389 0
M  V30 1518 O 158.297 -0.483336 1.88089 0
M  V30 1519 C 155.427 -0.455487 3.443 0
M  V30 1520 C 154.381 0.361103 4.26474 0
M  V30 1521 C 153.707 -0.563221 5.31725 0
M  V30 1522 C 155.007 1.59566 4.97329 0
M  V30 1523 H 156.701 1.17548 2.75359 0
M  V30 1524 H 154.247 0.566686 1.32381 0
M  V30 1525 H 156.2 -0.83525 4.13039 0
M  V30 1526 H 154.924 -1.32139 2.98675 0
M  V30 1527 H 153.583 0.722825 3.59403 0
M  V30 1528 H 153.231 -1.42643 4.82351 0
M  V30 1529 H 152.931 -0.0207409 5.87596 0
M  V30 1530 H 154.455 -0.939808 6.03324 0
M  V30 1531 H 155.869 1.28728 5.58661 0
M  V30 1532 H 154.266 2.07728 5.63 0
M  V30 1533 H 155.336 2.34798 4.24262 0
M  V30 1534 N 156.679 -1.44442 0.630414 0
M  V30 1535 C 157.611 -2.2892 -0.113347 0
M  V30 1536 C 158.624 -1.41243 -0.80959 0
M  V30 1537 O 159.813 -1.65402 -0.671156 0
M  V30 1538 C 156.913 -3.17594 -1.18266 0
M  V30 1539 C 156.086 -4.33682 -0.569073 0
M  V30 1540 C 155.145 -5.03397 -1.53226 0
M  V30 1541 O 154.171 -5.59438 -1.04967 0
M  V30 1542 N 155.373 -5.04783 -2.86661 0
M  V30 1543 H 158.138 -2.93392 0.611636 0
M  V30 1544 H 155.699 -1.54881 0.471523 0
M  V30 1545 H 157.691 -3.61097 -1.82732 0
M  V30 1546 H 156.261 -2.54876 -1.80988 0
M  V30 1547 H 155.481 -3.9338 0.254187 0
M  V30 1548 H 156.769 -5.08608 -0.139767 0
M  V30 1549 H 156.167 -4.60584 -3.28449 0
M  V30 1550 H 154.724 -5.52077 -3.46489 0
M  V30 1551 N 158.157 -0.370918 -1.53173 0
M  V30 1552 C 159.087 0.464847 -2.28826 0
M  V30 1553 C 160.068 1.07936 -1.31468 0
M  V30 1554 O 161.253 1.0956 -1.60344 0
M  V30 1555 C 158.383 1.60196 -3.08147 0
M  V30 1556 C 157.337 1.11443 -4.13237 0
M  V30 1557 C 156.663 2.3422 -4.80672 0
M  V30 1558 C 157.963 0.195384 -5.21934 0
M  V30 1559 H 159.657 -0.166329 -2.98938 0
M  V30 1560 H 157.203 -0.0814359 -1.4377 0
M  V30 1561 H 159.156 2.19332 -3.59822 0
M  V30 1562 H 157.88 2.26045 -2.35735 0
M  V30 1563 H 156.539 0.545727 -3.62515 0
M  V30 1564 H 156.187 2.98537 -4.04827 0
M  V30 1565 H 155.887 2.02269 -5.51689 0
M  V30 1566 H 157.411 2.94032 -5.35143 0
M  V30 1567 H 158.825 0.694375 -5.69079 0
M  V30 1568 H 157.222 -0.0335027 -6.00091 0
M  V30 1569 H 158.292 -0.760961 -4.78892 0
M  V30 1570 N 159.635 1.57281 -0.100228 0
M  V30 1571 C 160.863 1.98879 0.570509 0
M  V30 1572 C 161.278 0.979476 1.61405 0
M  V30 1573 O 160.635 -0.0302288 1.82475 0
M  V30 1574 C 160.686 3.4052 1.2136 0
M  V30 1575 O 160.407 4.37588 0.211786 0
M  V30 1576 C 161.908 3.97149 1.96945 0
M  V30 1577 H 159.128 0.653428 0.152555 0
M  V30 1578 H 161.672 2.03697 -0.18103 0
M  V30 1579 H 159.827 3.367 1.91603 0
M  V30 1580 H 160.241 5.20118 0.676607 0
M  V30 1581 H 161.715 4.98393 2.37294 0
M  V30 1582 H 162.192 3.3525 2.83733 0
M  V30 1583 H 162.798 4.04458 1.31506 0
M  V30 1584 N 161.113 -0.173488 1.56642 0
M  V30 1585 C 162.524 -0.736155 1.71574 0
M  V30 1586 C 162.875 -1.82888 0.710389 0
M  V30 1587 O 162 -2.16017 -0.1287 0
M  V30 1588 C 162.595 -1.34211 3.11083 0
M  V30 1589 C 161.154 -1.85162 3.27707 0
M  V30 1590 C 160.301 -0.729765 2.67525 0
M  V30 1591 H 163.252 0.0518786 1.58615 0
M  V30 1592 H 163.273 -2.21178 3.09613 0
M  V30 1593 H 162.785 -0.546579 3.84232 0
M  V30 1594 H 160.886 -2.67366 2.59512 0
M  V30 1595 H 160.999 -1.99855 4.35425 0
M  V30 1596 H 159.363 -1.14965 2.27278 0
M  V30 1597 H 160.146 0.0538806 3.43258 0
M  V30 1598 N 162.591 -1.51276 -0.441967 0
M  V30 1599 C 163.501 -1.75092 -1.56141 0
M  V30 1600 C 164.517 -0.634963 -1.62001 0
M  V30 1601 O 165.693 -0.916686 -1.79329 0
M  V30 1602 C 162.758 -1.86666 -2.92158 0
M  V30 1603 C 161.819 -3.10506 -2.96453 0
M  V30 1604 C 161.052 -3.21519 -4.25982 0
M  V30 1605 O 161.275 -2.38586 -5.18105 0
M  V30 1606 O 160.209 -4.14465 -4.36466 0
M  V30 1607 H 164.035 -2.70044 -1.38961 0
M  V30 1608 H 161.62 -1.35722 -0.624499 0
M  V30 1609 H 163.502 -1.96292 -3.72891 0
M  V30 1610 H 162.177 -0.949014 -3.09476 0
M  V30 1611 H 161.084 -3.06363 -2.14692 0
M  V30 1612 H 162.417 -4.01945 -2.84079 0
M  V30 1613 N 164.069 0.697108 -1.41344 0
M  V30 1614 C 165.485 1.00751 -1.2378 0
M  V30 1615 C 165.685 2.01105 -0.126066 0
M  V30 1616 O 164.741 2.47295 0.51004 0
M  V30 1617 C 166.054 1.53359 -2.58653 0
M  V30 1618 C 167.602 1.6525 -2.65822 0
M  V30 1619 C 168.077 2.2126 -4.01009 0
M  V30 1620 N 169.568 2.28622 -4.02847 0
M  V30 1621 C 170.303 2.72984 -5.04249 0
M  V30 1622 N 169.799 3.16962 -6.16041 0
M  V30 1623 N 171.592 2.72534 -4.91611 0
M  V30 1624 H 163.743 0.0322662 -2.12375 0
M  V30 1625 H 166.006 0.0768853 -0.944877 0
M  V30 1626 H 165.712 0.870773 -3.4075 0
M  V30 1627 H 165.586 2.51597 -2.81032 0
M  V30 1628 H 167.973 2.30644 -1.84086 0
M  V30 1629 H 168.054 0.655614 -2.47256 0
M  V30 1630 H 167.698 1.56482 -4.83193 0
M  V30 1631 H 167.628 3.21698 -4.16915 0
M  V30 1632 H 170.119 1.97585 -3.22131 0
M  V30 1633 H 170.432 3.49434 -6.89287 0
M  V30 1634 H 168.777 3.14875 -6.1958 0
M  V30 1635 H 171.968 2.37525 -4.0336 0
M  V30 1636 H 172.141 3.06789 -5.70775 0
M  V30 1637 N 165.547 1.27147 0.931209 0
M  V30 1638 C 166.787 1.14511 1.69312 0
M  V30 1639 C 167.151 -0.304638 1.89568 0
M  V30 1640 O 168.352 -0.553343 2.63043 0
M  V30 1641 C 166.623 1.90349 3.02493 0
M  V30 1642 S 168.182 1.93884 3.93642 0
M  V30 1643 H 165 0.408858 0.581684 0
M  V30 1644 H 167.602 1.61006 1.10893 0
M  V30 1645 H 166.306 2.94877 2.85439 0
M  V30 1646 H 165.837 1.44333 3.65966 0
M  V30 1647 H 167.852 1.03273 4.85334 0
M  V30 1648 N 167.025 -1.13721 1.09112 0
M  V30 1649 C 167.955 -2.21148 0.749385 0
M  V30 1650 C 168.936 -1.6792 -0.271475 0
M  V30 1651 O 170.121 -1.93693 -0.140251 0
M  V30 1652 C 167.251 -3.46905 0.165659 0
M  V30 1653 C 166.205 -4.13203 1.11567 0
M  V30 1654 C 165.531 -5.33248 0.393809 0
M  V30 1655 C 166.831 -4.60912 2.45678 0
M  V30 1656 H 168.525 -2.4999 1.64758 0
M  V30 1657 H 166.071 -1.20156 0.793626 0
M  V30 1658 H 168.024 -4.21313 -0.085466 0
M  V30 1659 H 166.748 -3.17449 -0.767714 0
M  V30 1660 H 165.407 -3.40758 1.35202 0
M  V30 1661 H 165.055 -5.00054 -0.543599 0
M  V30 1662 H 164.755 -5.78552 1.02721 0
M  V30 1663 H 166.279 -6.10413 0.150908 0
M  V30 1664 H 167.693 -5.26759 2.26269 0
M  V30 1665 H 166.09 -5.16944 3.04776 0
M  V30 1666 H 167.16 -3.75603 3.06677 0
M  V30 1667 N 168.503 -0.877838 -1.30888 0
M  V30 1668 C 169.752 -0.488793 -1.95688 0
M  V30 1669 C 170.065 0.965485 -1.70111 0
M  V30 1670 O 171.271 1.46104 -2.28836 0
M  V30 1671 C 169.727 -0.823201 -3.50359 0
M  V30 1672 C 169.335 -2.29477 -3.84765 0
M  V30 1673 C 171.079 -0.503009 -4.21509 0
M  V30 1674 C 168.986 -2.57118 -5.32583 0
M  V30 1675 H 167.916 -0.179062 -0.732429 0
M  V30 1676 H 170.567 -1.07183 -1.48943 0
M  V30 1677 H 168.949 -0.169331 -3.95638 0
M  V30 1678 H 170.123 -2.99236 -3.5042 0
M  V30 1679 H 168.438 -2.58178 -3.267 0
M  V30 1680 H 171.035 -0.68665 -5.30273 0
M  V30 1681 H 171.378 0.557109 -4.12555 0
M  V30 1682 H 171.911 -1.11376 -3.8189 0
M  V30 1683 H 168.65 -3.61843 -5.4658 0
M  V30 1684 H 168.17 -1.91961 -5.68253 0
M  V30 1685 H 169.849 -2.42251 -5.99936 0
M  V30 1686 N 169.982 1.44106 -0.638065 0
M  V30 1687 C 170.892 2.34513 0.0637334 0
M  V30 1688 C 171.908 1.53018 0.828346 0
M  V30 1689 O 173.084 1.85723 0.779036 0
M  V30 1690 C 170.149 3.31095 1.02844 0
M  V30 1691 C 169.21 4.28497 0.26244 0
M  V30 1692 C 168.443 5.20465 1.1812 0
M  V30 1693 O 168.666 5.16514 2.42011 0
M  V30 1694 O 167.6 5.98251 0.661774 0
M  V30 1695 H 171.426 2.95989 -0.68003 0
M  V30 1696 H 169.011 1.43994 -0.398252 0
M  V30 1697 H 170.893 3.90526 1.58327 0
M  V30 1698 H 169.568 2.72144 1.7527 0
M  V30 1699 H 168.475 3.72592 -0.335602 0
M  V30 1700 H 169.808 4.90388 -0.421936 0
M  V30 1701 N 171.46 0.379036 1.52974 0
M  V30 1702 C 172.708 -0.206014 2.01047 0
M  V30 1703 C 173.029 -1.48175 1.26765 0
M  V30 1704 O 172.299 -1.92085 0.384743 0
M  V30 1705 H 170.879 -0.0791184 0.742798 0
M  V30 1706 H 173.541 0.508366 1.88153 0
M  V30 1707 H 172.637 -0.423501 3.09213 0
M  V30 1708 N 172.938 -1.57226 0.108567 0
M  V30 1709 C 174.166 -1.99179 -0.559954 0
M  V30 1710 C 174.581 -0.988022 -1.60884 0
M  V30 1711 O 173.938 0.0205512 -1.82488 0
M  V30 1712 C 173.989 -3.41159 -1.19552 0
M  V30 1713 O 173.71 -4.37694 -0.188577 0
M  V30 1714 C 175.211 -3.98188 -1.94837 0
M  V30 1715 H 172.431 -0.654228 -0.149088 0
M  V30 1716 H 174.975 -2.03598 0.19183 0
M  V30 1717 H 173.13 -3.37711 -1.89815 0
M  V30 1718 H 173.544 -5.20469 -0.649014 0
M  V30 1719 H 175.018 -4.99644 -2.34648 0
M  V30 1720 H 175.495 -3.3675 -2.81951 0
M  V30 1721 H 176.101 -4.0515 -1.2936 0
M  V30 1722 N 174.416 0.165178 -1.56732 0
M  V30 1723 C 175.665 0.879143 -1.81532 0
M  V30 1724 C 175.978 1.83144 -0.686842 0
M  V30 1725 O 177.184 2.58823 -0.819944 0
M  V30 1726 C 175.64 1.61388 -3.21686 0
M  V30 1727 C 175.248 0.704904 -4.4242 0
M  V30 1728 C 176.992 2.3157 -3.55774 0
M  V30 1729 C 174.899 1.44022 -5.73595 0
M  V30 1730 H 173.829 0.332033 -0.676957 0
M  V30 1731 H 176.48 0.132008 -1.83025 0
M  V30 1732 H 174.862 2.40599 -3.14529 0
M  V30 1733 H 176.036 -0.0506815 -4.60772 0
M  V30 1734 H 174.351 0.112419 -4.16248 0
M  V30 1735 H 176.948 2.8719 -4.51028 0
M  V30 1736 H 177.291 3.07201 -2.8095 0
M  V30 1737 H 177.824 1.59297 -3.64513 0
M  V30 1738 H 174.563 0.72612 -6.51466 0
M  V30 1739 H 174.083 2.16898 -5.5921 0
M  V30 1740 H 175.762 1.98606 -6.15764 0
M  V30 1741 N 175.894 1.51508 0.433938 0
M  V30 1742 C 177.171 1.54888 1.19453 0
M  V30 1743 C 177.551 0.315154 2.08734 0
M  V30 1744 O 176.899 -0.699558 2.17528 0
M  V30 1745 C 177.109 2.86467 1.99342 0
M  V30 1746 C 178.457 3.38545 2.56267 0
M  V30 1747 O 179.481 2.88041 2.0955 0
M  V30 1748 O 178.34 4.26675 3.41483 0
M  V30 1749 H 175.434 0.622863 0.544032 0
M  V30 1750 H 177.98 1.63823 0.442732 0
M  V30 1751 H 176.752 3.67718 1.33788 0
M  V30 1752 H 176.375 2.8071 2.8158 0
M  V30 1753 N 177.372 -0.689602 1.41712 0
M  V30 1754 C 178.62 -1.4468 1.4111 0
M  V30 1755 C 178.941 -1.94986 0.0232196 0
M  V30 1756 O 178.211 -1.72097 -0.935913 0
M  V30 1757 H 176.791 -0.536847 0.519427 0
M  V30 1758 H 179.453 -0.815825 1.77004 0
M  V30 1759 H 178.549 -2.30706 2.10193 0
M  V30 1760 N 178.85 -1.27639 -0.924453 0
M  V30 1761 C 179.78 -1.13166 -2.04244 0
M  V30 1762 C 180.761 -0.032256 -1.70069 0
M  V30 1763 O 181.946 -0.207328 -1.9309 0
M  V30 1764 C 179.076 -0.781496 -3.38393 0
M  V30 1765 C 178.03 -1.83449 -3.86692 0
M  V30 1766 C 177.356 -1.33822 -5.17683 0
M  V30 1767 C 178.656 -3.23917 -4.09726 0
M  V30 1768 H 180.35 -2.06689 -2.1661 0
M  V30 1769 H 177.896 -0.995136 -1.04082 0
M  V30 1770 H 179.849 -0.667057 -4.16087 0
M  V30 1771 H 178.573 0.189439 -3.2605 0
M  V30 1772 H 177.232 -1.93789 -3.11193 0
M  V30 1773 H 176.88 -0.35665 -5.01734 0
M  V30 1774 H 176.58 -2.04224 -5.50968 0
M  V30 1775 H 178.104 -1.23679 -5.97943 0
M  V30 1776 H 179.518 -3.16559 -4.77978 0
M  V30 1777 H 177.915 -3.92059 -4.54324 0
M  V30 1778 H 178.985 -3.68729 -3.14908 0
M  V30 1779 N 180.328 1.1314 -1.09713 0
M  V30 1780 C 181.238 2.22242 -0.751367 0
M  V30 1781 C 182.254 1.72224 0.247938 0
M  V30 1782 O 183.43 2.01205 0.0885463 0
M  V30 1783 C 180.495 3.46231 -0.180274 0
M  V30 1784 C 179.556 4.11125 -1.2359 0
M  V30 1785 C 178.789 5.29195 -0.691966 0
M  V30 1786 O 179.012 5.68342 0.48414 0
M  V30 1787 O 177.946 5.84214 -1.44838 0
M  V30 1788 H 181.772 2.54197 -1.66186 0
M  V30 1789 H 179.357 1.21331 -0.871735 0
M  V30 1790 H 181.239 4.21185 0.134739 0
M  V30 1791 H 179.914 3.1597 0.703185 0
M  V30 1792 H 178.821 3.37985 -1.60366 0
M  V30 1793 H 180.154 4.45524 -2.09211 0
M  V30 1794 N 181.806 0.884767 1.30421 0
M  V30 1795 C 183.217 0.553656 1.78302 0
M  V30 1796 C 183.568 -0.930153 1.7275 0
M  V30 1797 O 182.693 -1.72681 1.30423 0
M  V30 1798 C 183.288 0.998234 3.2376 0
M  V30 1799 C 181.847 0.71854 3.69478 0
M  V30 1800 C 180.994 1.18132 2.50879 0
M  V30 1801 H 183.945 1.06901 1.17294 0
M  V30 1802 H 183.966 0.327118 3.79091 0
M  V30 1803 H 183.478 2.0782 3.27769 0
M  V30 1804 H 181.579 -0.349444 3.70958 0
M  V30 1805 H 181.692 1.30595 4.60958 0
M  V30 1806 H 180.056 0.600669 2.47516 0
M  V30 1807 H 180.839 2.26902 2.57624 0
M  V30 1808 N 183.284 -1.43765 0.645699 0
M  V30 1809 C 184.532 -2.01499 0.155731 0
M  V30 1810 C 184.853 -1.51151 -1.232 0
M  V30 1811 O 184.123 -0.721044 -1.82148 0
M  V30 1812 H 182.703 -0.745003 0.0545817 0
M  V30 1813 H 185.365 -1.76075 0.835677 0
M  V30 1814 H 184.461 -3.1181 0.134577 0
M  V30 1815 N 184.763 -0.387143 -1.52771 0
M  V30 1816 C 185.693 0.440551 -2.29306 0
M  V30 1817 C 186.674 1.06535 -1.32606 0
M  V30 1818 O 187.859 1.07853 -1.61497 0
M  V30 1819 C 184.989 1.56919 -3.09829 0
M  V30 1820 C 183.943 1.07054 -4.14395 0
M  V30 1821 C 183.269 2.29109 -4.83129 0
M  V30 1822 C 184.569 0.140015 -5.22112 0
M  V30 1823 H 186.263 -0.198026 -2.98744 0
M  V30 1824 H 183.809 -0.09668 -1.43675 0
M  V30 1825 H 185.762 2.15503 -3.62128 0
M  V30 1826 H 184.486 2.23532 -2.3812 0
M  V30 1827 H 183.145 0.507247 -3.63074 0
M  V30 1828 H 182.793 2.94227 -4.0797 0
M  V30 1829 H 182.493 1.96406 -5.53804 0
M  V30 1830 H 184.017 2.88339 -5.38231 0
M  V30 1831 H 185.431 0.633978 -5.69784 0
M  V30 1832 H 183.828 -0.0971485 -6.00021 0
M  V30 1833 H 184.898 -0.811711 -4.78058 0
M  V30 1834 N 186.241 1.57166 -0.116904 0
M  V30 1835 C 187.191 2.11756 0.845178 0
M  V30 1836 C 188.175 1.03783 1.22955 0
M  V30 1837 O 189.367 1.3002 1.20099 0
M  V30 1838 C 186.496 2.71886 2.09602 0
M  V30 1839 C 185.582 3.86937 1.7361 0
M  V30 1840 N 185.973 4.94073 1.08284 0
M  V30 1841 C 184.271 3.97082 2.03082 0
M  V30 1842 C 184.972 5.74477 0.913855 0
M  V30 1843 N 183.948 5.2423 1.43818 0
M  V30 1844 H 187.75 2.91967 0.336523 0
M  V30 1845 H 185.264 1.62174 0.0856332 0
M  V30 1846 H 187.261 3.09338 2.79492 0
M  V30 1847 H 185.921 1.93138 2.61013 0
M  V30 1848 H 186.932 5.12483 0.747067 0
M  V30 1849 H 183.609 3.29372 2.56554 0
M  V30 1850 H 184.999 6.70701 0.40125 0
M  V30 1851 N 187.719 -0.156864 1.56817 0
M  V30 1852 C 188.967 -0.869404 1.82444 0
M  V30 1853 C 189.288 -1.82147 0.69623 0
M  V30 1854 O 188.558 -1.93847 -0.28287 0
M  V30 1855 H 187.138 -0.324043 0.673056 0
M  V30 1856 H 189.8 -0.153224 1.94297 0
M  V30 1857 H 188.896 -1.43761 2.77019 0
M  V30 1858 N 189.197 -1.51736 -0.425897 0
M  V30 1859 C 190.127 -1.76827 -1.52494 0
M  V30 1860 C 191.108 -0.618524 -1.58456 0
M  V30 1861 O 192.293 -0.862416 -1.74 0
M  V30 1862 C 189.423 -1.90374 -2.90474 0
M  V30 1863 C 188.377 -3.0588 -2.99369 0
M  V30 1864 C 187.703 -3.04625 -4.3944 0
M  V30 1865 C 189.003 -4.45644 -2.72394 0
M  V30 1866 H 190.697 -2.68855 -1.31748 0
M  V30 1867 H 188.243 -1.29372 -0.632362 0
M  V30 1868 H 190.196 -2.0651 -3.6733 0
M  V30 1869 H 188.92 -0.95004 -3.12477 0
M  V30 1870 H 187.579 -2.89467 -2.24954 0
M  V30 1871 H 187.227 -2.0701 -4.58428 0
M  V30 1872 H 186.927 -3.82195 -4.46319 0
M  V30 1873 H 188.451 -3.22869 -5.18255 0
M  V30 1874 H 189.865 -4.62348 -3.38979 0
M  V30 1875 H 188.262 -5.25006 -2.9067 0
M  V30 1876 H 189.332 -4.54893 -1.67929 0
M  V30 1877 N 190.675 0.682077 -1.42076 0
M  V30 1878 C 191.625 1.78823 -1.41444 0
M  V30 1879 C 192.609 1.58323 -0.28681 0
M  V30 1880 O 193.801 1.68926 -0.528498 0
M  V30 1881 C 190.93 3.17232 -1.3122 0
M  V30 1882 C 190.016 3.4338 -2.489 0
M  V30 1883 N 190.407 3.40152 -3.7434 0
M  V30 1884 C 188.705 3.73986 -2.43003 0
M  V30 1885 C 189.406 3.65581 -4.52466 0
M  V30 1886 N 188.382 3.85989 -3.8277 0
M  V30 1887 H 192.184 1.7471 -2.36334 0
M  V30 1888 H 189.698 0.882622 -1.36321 0
M  V30 1889 H 191.695 3.96489 -1.2885 0
M  V30 1890 H 190.355 3.22547 -0.373263 0
M  V30 1891 H 191.366 3.20221 -4.07037 0
M  V30 1892 H 188.043 3.86591 -1.57651 0
M  V30 1893 H 189.433 3.69108 -5.61435 0
M  V30 1894 N 192.153 1.28127 0.917671 0
M  V30 1895 C 193.399 1.15223 1.66888 0
M  V30 1896 C 193.732 -0.299293 1.9188 0
M  V30 1897 O 193.007 -1.21805 1.51637 0
M  V30 1898 C 193.29 1.94706 3.02922 0
M  V30 1899 C 193.143 3.47898 2.85109 0
M  V30 1900 C 194.462 1.75939 4.03402 0
M  V30 1901 H 191.581 0.419946 0.605652 0
M  V30 1902 H 194.223 1.57398 1.06423 0
M  V30 1903 H 192.373 1.58864 3.54534 0
M  V30 1904 H 194.045 3.93624 2.40537 0
M  V30 1905 H 192.288 3.7373 2.20246 0
M  V30 1906 H 192.959 3.98765 3.81694 0
M  V30 1907 H 195.435 2.07209 3.60837 0
M  V30 1908 H 194.311 2.33931 4.96556 0
M  V30 1909 H 194.572 0.709877 4.36364 0
M  V30 1910 N 193.631 -1.12557 1.10312 0
M  V30 1911 C 194.581 -2.16331 0.720076 0
M  V30 1912 C 195.565 -1.58616 -0.270115 0
M  V30 1913 O 196.757 -1.76823 -0.0790507 0
M  V30 1914 C 193.886 -3.42963 0.152113 0
M  V30 1915 C 192.972 -4.07663 1.16927 0
M  V30 1916 N 193.363 -4.47392 2.35953 0
M  V30 1917 C 191.661 -4.34425 1.0095 0
M  V30 1918 C 192.362 -4.97932 3.0073 0
M  V30 1919 N 191.338 -4.93358 2.28252 0
M  V30 1920 H 195.14 -2.44813 1.62616 0
M  V30 1921 H 192.654 -1.29449 0.980654 0
M  V30 1922 H 194.651 -4.16664 -0.14037 0
M  V30 1923 H 193.311 -3.1595 -0.748701 0
M  V30 1924 H 194.322 -4.39802 2.73486 0
M  V30 1925 H 190.999 -4.17177 0.164134 0
M  V30 1926 H 192.389 -5.38397 4.01969 0
M  V30 1927 N 195.109 -0.891671 -1.2995 0
M  V30 1928 C 196.041 -0.320695 -2.26945 0
M  V30 1929 C 197.054 0.528497 -1.53983 0
M  V30 1930 O 198.243 0.346959 -1.75096 0
M  V30 1931 C 195.343 0.562066 -3.34207 0
M  V30 1932 C 194.516 -0.259576 -4.36629 0
M  V30 1933 C 193.575 0.554739 -5.23268 0
M  V30 1934 O 192.601 -0.0249311 -5.69195 0
M  V30 1935 N 193.803 1.8625 -5.4981 0
M  V30 1936 H 196.568 -1.15432 -2.76578 0
M  V30 1937 H 194.129 -0.755336 -1.432 0
M  V30 1938 H 196.121 1.11304 -3.89093 0
M  V30 1939 H 194.691 1.29637 -2.84452 0
M  V30 1940 H 193.911 -0.991986 -3.81514 0
M  V30 1941 H 195.199 -0.822564 -5.02107 0
M  V30 1942 H 194.597 2.35628 -5.14292 0
M  V30 1943 H 193.154 2.36078 -6.07545 0
M  V30 1944 N 196.587 1.43421 -0.653314 0
M  V30 1945 C 197.817 2.05864 -0.174238 0
M  V30 1946 C 198.225 1.49052 1.16534 0
M  V30 1947 O 197.568 0.616481 1.73047 0
M  V30 1948 C 197.63 3.59499 -0.00875873 0
M  V30 1949 C 197.294 4.38893 -1.27364 0
M  V30 1950 C 198.291 4.70947 -2.20239 0
M  V30 1951 C 195.976 4.789 -1.51525 0
M  V30 1952 C 197.97 5.41916 -3.35568 0
M  V30 1953 C 195.657 5.49614 -2.67147 0
M  V30 1954 C 196.655 5.81044 -3.58994 0
M  V30 1955 O 196.343 6.50313 -4.72597 0
M  V30 1956 H 196.075 0.670345 -0.0872549 0
M  V30 1957 H 198.629 1.84913 -0.894226 0
M  V30 1958 H 196.859 3.79025 0.7666 0
M  V30 1959 H 198.548 4.0364 0.427687 0
M  V30 1960 H 199.314 4.40558 -2.02815 0
M  V30 1961 H 195.193 4.53843 -0.809158 0
M  V30 1962 H 198.737 5.66365 -4.07279 0
M  V30 1963 H 194.634 5.79419 -2.84505 0
M  V30 1964 H 195.402 6.68795 -4.71864 0
M  V30 1965 N 198.065 0.39524 1.52563 0
M  V30 1966 C 199.313 -0.184678 2.01254 0
M  V30 1967 C 199.634 -1.46822 1.28329 0
M  V30 1968 O 198.904 -1.91666 0.405094 0
M  V30 1969 H 197.484 -0.0712355 0.743596 0
M  V30 1970 H 200.146 0.528293 1.87603 0
M  V30 1971 H 199.242 -0.390681 3.09645 0
M  V30 1972 N 199.544 -1.57102 0.125237 0
M  V30 1973 C 200.821 -1.86953 -0.575142 0
M  V30 1974 C 201.201 -1.02749 -1.84407 0
M  V30 1975 O 200.549 -0.108144 -2.28244 0
M  V30 1976 C 200.759 -3.38198 -0.861583 0
M  V30 1977 C 202.107 -4.06937 -1.21192 0
M  V30 1978 O 203.131 -3.43252 -0.951645 0
M  V30 1979 O 201.99 -5.19364 -1.70068 0
M  V30 1980 H 199.084 -0.774147 -0.290906 0
M  V30 1981 H 201.63 -1.68942 0.160211 0
M  V30 1982 H 200.402 -3.91282 0.0373647 0
M  V30 1983 H 200.025 -3.61661 -1.65188 0
M  V30 1984 N 201.022 0.148545 -1.56898 0
M  V30 1985 C 201.952 1.18524 -2.01182 0
M  V30 1986 C 202.933 1.4489 -0.891123 0
M  V30 1987 O 204.118 1.55836 -1.15882 0
M  V30 1988 C 201.248 2.51879 -2.39112 0
M  V30 1989 C 200.202 2.40038 -3.54353 0
M  V30 1990 C 199.528 3.78089 -3.78091 0
M  V30 1991 C 200.828 1.88577 -4.87069 0
M  V30 1992 H 202.522 0.817029 -2.88036 0
M  V30 1993 H 200.068 0.391575 -1.38574 0
M  V30 1994 H 202.021 3.24627 -2.68692 0
M  V30 1995 H 200.745 2.90532 -1.49193 0
M  V30 1996 H 199.404 1.69742 -3.24936 0
M  V30 1997 H 199.052 4.14175 -2.85426 0
M  V30 1998 H 198.752 3.71028 -4.55645 0
M  V30 1999 H 200.276 4.52387 -4.10095 0
M  V30 2000 H 201.69 2.51117 -5.15377 0
M  V30 2001 H 200.087 1.9241 -5.68417 0
M  V30 2002 H 201.157 0.84136 -4.77545 0
M  V30 2003 N 202.5 1.5196 0.417844 0
M  V30 2004 C 203.728 1.69426 1.18753 0
M  V30 2005 C 204.143 0.399955 1.84515 0
M  V30 2006 O 203.5 -0.623288 1.71527 0
M  V30 2007 C 203.551 2.82375 2.25714 0
M  V30 2008 O 203.272 4.06793 1.62638 0
M  V30 2009 C 204.773 3.11277 3.15628 0
M  V30 2010 H 201.993 0.568031 0.357186 0
M  V30 2011 H 204.537 1.98475 0.49273 0
M  V30 2012 H 202.692 2.5587 2.90877 0
M  V30 2013 H 203.106 4.69667 2.3348 0
M  V30 2014 H 204.58 3.93843 3.86771 0
M  V30 2015 H 205.057 2.24473 3.77503 0
M  V30 2016 H 205.663 3.39515 2.56144 0
M  V30 2017 N 203.978 -0.674533 1.42435 0
M  V30 2018 C 204.926 -1.80934 1.46169 0
M  V30 2019 C 205.92 -1.66006 0.3374 0
M  V30 2020 O 207.126 -1.72611 0.510425 0
M  V30 2021 H 203.501 -0.596594 0.457798 0
M  V30 2022 H 205.472 -1.74903 2.41767 0
M  V30 2023 C 204.221 -3.19088 1.38123 0
M  V30 2024 H 203.544 -3.31203 2.23931 0
M  V30 2025 H 204.984 -3.9851 1.44797 0
M  V30 2026 C 203.443 -3.36763 0.0960517 0
M  V30 2027 O 203.973 -3.92581 -0.851073 0
M  V30 2028 N 202.179 -2.90597 0.0131186 0
M  V30 2029 H 201.726 -2.45359 0.784639 0
M  V30 2030 H 201.684 -3.028 -0.846133 0
M  V30 2031 N 205.456 -1.28612 -0.910864 0
M  V30 2032 C 206.404 -1.1265 -2.03501 0
M  V30 2033 C 207.398 -0.0450054 -1.6934 0
M  V30 2034 O 208.604 -0.203988 -1.7884 0
M  V30 2035 H 204.979 -0.347639 -0.666822 0
M  V30 2036 H 206.95 -2.07849 -2.14106 0
M  V30 2037 C 205.699 -0.808143 -3.38178 0
M  V30 2038 H 205.022 -1.63231 -3.6496 0
M  V30 2039 H 206.462 -0.736426 -4.17556 0
M  V30 2040 C 204.921 0.488226 -3.33344 0
M  V30 2041 O 205.451 1.51766 -3.71927 0
M  V30 2042 N 203.657 0.490009 -2.86439 0
M  V30 2043 H 203.204 -0.348161 -2.55236 0
M  V30 2044 H 203.162 1.35741 -2.83587 0
M  V30 2045 N 206.934 1.1197 -1.10907 0
M  V30 2046 C 208.174 1.85224 -0.864378 0
M  V30 2047 C 208.538 1.82411 0.599178 0
M  V30 2048 O 209.739 2.51057 0.960416 0
M  V30 2049 C 208.01 3.2868 -1.40371 0
M  V30 2050 S 209.569 4.1925 -1.29518 0
M  V30 2051 H 206.387 0.63878 -0.312219 0
M  V30 2052 H 208.989 1.3485 -1.41548 0
M  V30 2053 H 207.693 3.28289 -2.46281 0
M  V30 2054 H 207.224 3.84121 -0.849402 0
M  V30 2055 H 209.239 4.95539 -0.256059 0
M  V30 2056 N 208.412 0.89855 1.29475 0
M  V30 2057 C 209.36 0.365253 2.29714 0
M  V30 2058 C 210.354 -0.534993 1.6073 0
M  V30 2059 O 211.56 -0.417921 1.75081 0
M  V30 2060 H 207.935 0.0994853 0.74539 0
M  V30 2061 H 209.906 1.22406 2.72138 0
M  V30 2062 C 208.655 -0.393159 3.4547 0
M  V30 2063 H 207.978 0.290332 3.98744 0
M  V30 2064 H 209.418 -0.731189 4.17648 0
M  V30 2065 C 207.877 -1.59539 2.9673 0
M  V30 2066 O 208.407 -2.69469 2.97908 0
M  V30 2067 N 206.613 -1.43716 2.52575 0
M  V30 2068 H 206.16 -0.542828 2.51816 0
M  V30 2069 H 206.118 -2.24288 2.20323 0
M  V30 2070 N 209.89 -1.43072 0.660911 0
M  V30 2071 C 211.115 -2.06584 0.183805 0
M  V30 2072 C 211.54 -1.49257 -1.14472 0
M  V30 2073 O 210.898 -0.605528 -1.70889 0
M  V30 2074 C 210.946 -3.60418 0.114434 0
M  V30 2075 O 210.05 -4.01981 -0.921137 0
M  V30 2076 H 209.391 -0.656669 0.0983994 0
M  V30 2077 H 211.921 -1.83447 0.906006 0
M  V30 2078 H 211.931 -4.07946 -0.0663394 0
M  V30 2079 H 210.606 -4.01519 1.08422 0
M  V30 2080 H 209.183 -3.66029 -0.71253 0
M  V30 2081 N 211.368 -0.403325 -1.52352 0
M  V30 2082 C 212.608 0.173946 -2.03659 0
M  V30 2083 C 212.972 1.42869 -1.28267 0
M  V30 2084 O 214.173 2.08403 -1.69769 0
M  V30 2085 C 212.444 0.421478 -3.54906 0
M  V30 2086 S 214.003 0.967027 -4.28012 0
M  V30 2087 H 210.821 0.0477461 -0.709395 0
M  V30 2088 H 213.423 -0.554906 -1.87459 0
M  V30 2089 H 212.127 -0.498616 -4.0736 0
M  V30 2090 H 211.658 1.17837 -3.75337 0
M  V30 2091 H 213.673 2.24812 -4.4235 0
M  V30 2092 N 212.846 1.57033 -0.133567 0
M  V30 2093 C 214.094 1.953 0.519848 0
M  V30 2094 C 214.415 1.01866 1.66278 0
M  V30 2095 O 213.685 0.0776513 1.95746 0
M  V30 2096 H 212.265 0.721091 0.195032 0
M  V30 2097 H 214.927 1.93809 -0.205921 0
M  V30 2098 H 214.023 2.98695 0.904854 0
M  V30 2099 N 214.325 -0.140222 1.56975 0
M  V30 2100 C 215.273 -1.19207 1.99731 0
M  V30 2101 C 216.267 -1.44089 0.890777 0
M  V30 2102 O 217.473 -1.44301 1.07597 0
M  V30 2103 H 213.848 -0.40142 0.635898 0
M  V30 2104 H 215.819 -0.804813 2.87342 0
M  V30 2105 C 214.568 -2.51617 2.39967 0
M  V30 2106 H 213.891 -2.33303 3.24669 0
M  V30 2107 H 215.331 -3.23827 2.73701 0
M  V30 2108 C 213.79 -3.12654 1.25496 0
M  V30 2109 O 214.32 -3.97786 0.559371 0
M  V30 2110 N 212.526 -2.72206 1.01746 0
M  V30 2111 H 212.073 -2.03074 1.58489 0
M  V30 2112 H 212.031 -3.13377 0.253461 0
M  V30 2113 N 215.803 -1.52179 -0.40978 0
M  V30 2114 C 216.753 -1.71857 -1.49831 0
M  V30 2115 C 217.737 -0.572469 -1.50372 0
M  V30 2116 O 218.929 -0.829509 -1.56359 0
M  V30 2117 C 216.058 -1.87206 -2.87765 0
M  V30 2118 C 215.144 -3.07685 -2.91875 0
M  V30 2119 N 215.535 -4.30403 -2.65683 0
M  V30 2120 C 213.833 -3.07505 -3.23043 0
M  V30 2121 C 214.534 -5.11868 -2.76344 0
M  V30 2122 N 213.51 -4.47101 -3.09195 0
M  V30 2123 H 217.312 -2.64381 -1.28375 0
M  V30 2124 H 214.826 -1.50203 -0.617479 0
M  V30 2125 H 216.823 -1.99419 -3.66111 0
M  V30 2126 H 215.483 -0.958814 -3.10221 0
M  V30 2127 H 216.494 -4.58887 -2.4009 0
M  V30 2128 H 213.171 -2.25915 -3.51096 0
M  V30 2129 H 214.561 -6.19634 -2.59814 0
M  V30 2130 N 217.281 0.66697 -1.42791 0
M  V30 2131 C 218.528 1.42699 -1.43678 0
M  V30 2132 C 218.856 1.94419 -0.0560425 0
M  V30 2133 O 218.111 1.7182 0.936831 0
M  V30 2134 C 218.41 2.6349 -2.4147 0
M  V30 2135 C 218.076 2.30267 -3.8767 0
M  V30 2136 C 216.738 2.20918 -4.27491 0
M  V30 2137 C 219.09 2.03435 -4.79858 0
M  V30 2138 C 216.418 1.82873 -5.57471 0
M  V30 2139 C 218.77 1.66892 -6.10188 0
M  V30 2140 C 217.434 1.56058 -6.49001 0
M  V30 2141 H 216.704 0.522171 -0.525755 0
M  V30 2142 H 219.351 0.759785 -1.75783 0
M  V30 2143 H 217.656 3.35279 -2.0272 0
M  V30 2144 H 219.353 3.21684 -2.39417 0
M  V30 2145 H 215.943 2.38449 -3.56146 0
M  V30 2146 H 220.127 2.09586 -4.49875 0
M  V30 2147 H 215.383 1.7306 -5.86396 0
M  V30 2148 H 219.557 1.45157 -6.81104 0
M  V30 2149 H 217.184 1.26348 -7.49627 0
M  V30 2150 N 218.759 1.29093 0.90403 0
M  V30 2151 C 219.707 1.13727 2.02901 0
M  V30 2152 C 220.701 0.0539853 1.69314 0
M  V30 2153 O 221.907 0.213469 1.7873 0
M  V30 2154 H 218.282 0.35117 0.664969 0
M  V30 2155 H 220.253 2.08982 2.13001 0
M  V30 2156 C 219.002 0.826066 3.37745 0
M  V30 2157 H 218.325 1.65164 3.64089 0
M  V30 2158 H 219.765 0.758559 4.17159 0
M  V30 2159 C 218.224 -0.470541 3.33598 0
M  V30 2160 O 218.754 -1.49792 3.72727 0
M  V30 2161 N 216.96 -0.474812 2.86695 0
M  V30 2162 H 216.507 0.361692 2.55048 0
M  V30 2163 H 216.465 -1.34236 2.84303 0
M  V30 2164 N 220.237 -1.11381 1.11499 0
M  V30 2165 C 221.648 -1.6465 0.880191 0
M  V30 2166 C 221.999 -1.87199 -0.587434 0
M  V30 2167 O 221.124 -1.60667 -1.44966 0
M  V30 2168 C 221.719 -2.99105 1.59128 0
M  V30 2169 C 220.278 -3.49279 1.40289 0
M  V30 2170 C 219.425 -2.24077 1.63354 0
M  V30 2171 H 222.376 -0.950123 1.27116 0
M  V30 2172 H 222.397 -3.66107 1.03664 0
M  V30 2173 H 221.909 -2.82661 2.65941 0
M  V30 2174 H 220.01 -3.70887 0.356888 0
M  V30 2175 H 220.123 -4.2803 2.15238 0
M  V30 2176 H 218.487 -2.31733 1.05698 0
M  V30 2177 H 219.27 -2.10175 2.71443 0
M  V30 2178 N 221.715 -0.905404 -1.28997 0
M  V30 2179 C 222.992 -0.453513 -1.9027 0
M  V30 2180 C 223.372 1.06721 -1.82137 0
M  V30 2181 O 222.72 1.91159 -1.25182 0
M  V30 2182 C 222.93 -0.974494 -3.35119 0
M  V30 2183 C 224.278 -1.0216 -4.12127 0
M  V30 2184 O 225.302 -0.922557 -3.44046 0
M  V30 2185 O 224.161 -1.17121 -5.33802 0
M  V30 2186 H 221.255 -0.142347 -0.814657 0
M  V30 2187 H 223.801 -0.995642 -1.37423 0
M  V30 2188 H 222.573 -2.01848 -3.35221 0
M  V30 2189 H 222.196 -0.412706 -3.95452 0
M  V30 2190 N 223.193 1.4272 -0.668489 0
M  V30 2191 C 224.441 2.01226 -0.187769 0
M  V30 2192 C 224.762 1.53092 1.2078 0
M  V30 2193 O 224.032 0.74993 1.80977 0
M  V30 2194 H 222.612 0.744041 -0.0664272 0
M  V30 2195 H 225.274 1.74723 -0.863583 0
M  V30 2196 H 224.37 3.11556 -0.184166 0
M  V30 2197 N 224.671 0.411399 1.52136 0
M  V30 2198 C 225.634 -0.401089 2.25663 0
M  V30 2199 C 226.634 -0.971732 1.28117 0
M  V30 2200 O 227.824 -0.850254 1.52041 0
M  V30 2201 C 224.956 -1.56483 3.02863 0
M  V30 2202 H 226.149 0.24295 2.98914 0
M  V30 2203 H 223.702 0.163968 1.55438 0
M  V30 2204 H 224.437 -2.24567 2.33967 0
M  V30 2205 H 224.222 -1.16211 3.74483 0
M  V30 2206 H 225.712 -2.13951 3.58629 0
M  V30 2207 N 226.149 -1.5696 0.141893 0
M  V30 2208 C 227.374 -2.00754 -0.520838 0
M  V30 2209 C 227.799 -1.0213 -1.57959 0
M  V30 2210 O 227.157 0.00371324 -1.813 0
M  V30 2211 C 227.205 -3.43318 -1.10294 0
M  V30 2212 O 226.309 -3.47679 -2.21795 0
M  V30 2213 H 225.65 -0.651564 -0.127908 0
M  V30 2214 H 228.18 -2.03221 0.23712 0
M  V30 2215 H 228.19 -3.82012 -1.43287 0
M  V30 2216 H 226.865 -4.14608 -0.327574 0
M  V30 2217 H 225.442 -3.20824 -1.9007 0
M  V30 2218 N 227.627 0.131896 -1.57047 0
M  V30 2219 C 228.577 1.1679 -1.95816 0
M  V30 2220 C 229.561 1.37756 -0.831393 0
M  V30 2221 O 230.753 1.39065 -1.09499 0
M  V30 2222 C 227.882 2.49778 -2.35512 0
M  V30 2223 C 226.968 2.32342 -3.54793 0
M  V30 2224 N 227.359 1.8469 -4.70875 0
M  V30 2225 C 225.657 2.63043 -3.60173 0
M  V30 2226 C 226.358 1.80656 -5.52936 0
M  V30 2227 N 225.334 2.24528 -4.95064 0
M  V30 2228 H 229.136 0.791818 -2.83033 0
M  V30 2229 H 226.65 0.339791 -1.58805 0
M  V30 2230 H 228.647 3.24692 -2.61498 0
M  V30 2231 H 227.307 2.88156 -1.49654 0
M  V30 2232 H 228.318 1.54429 -4.9434 0
M  V30 2233 H 224.995 3.05193 -2.84892 0
M  V30 2234 H 226.385 1.45178 -6.56028 0
M  V30 2235 N 229.106 1.52395 0.401703 0
M  V30 2236 C 230.354 1.66488 1.14569 0
M  V30 2237 C 230.675 0.400897 1.90835 0
M  V30 2238 O 229.945 -0.584415 1.8698 0
M  V30 2239 H 228.525 0.613672 0.425929 0
M  V30 2240 H 231.187 1.89464 0.457093 0
M  V30 2241 H 230.283 2.50942 1.85566 0
M  V30 2242 N 230.584 -0.659388 1.43143 0
M  V30 2243 C 231.832 -1.41654 1.44147 0
M  V30 2244 C 232.153 -1.94893 0.0645739 0
M  V30 2245 O 231.423 -1.74044 -0.899198 0
M  V30 2246 H 230.003 -0.525708 0.530697 0
M  V30 2247 H 232.665 -0.778097 1.78694 0
M  V30 2248 H 231.761 -2.26195 2.1504 0
M  V30 2249 N 232.062 -1.29571 -0.897171 0
M  V30 2250 C 233.473 -1.15964 -1.46319 0
M  V30 2251 C 233.824 0.244267 -1.94674 0
M  V30 2252 O 232.949 1.13998 -1.83939 0
M  V30 2253 C 233.544 -2.09906 -2.65942 0
M  V30 2254 C 232.103 -2.00314 -3.18671 0
M  V30 2255 C 231.25 -2.00687 -1.91363 0
M  V30 2256 H 234.201 -1.42019 -0.708268 0
M  V30 2257 H 234.222 -1.67276 -3.41759 0
M  V30 2258 H 233.734 -3.12075 -2.30718 0
M  V30 2259 H 231.835 -1.01242 -3.58582 0
M  V30 2260 H 231.948 -2.88102 -3.82798 0
M  V30 2261 H 230.312 -1.45319 -2.09175 0
M  V30 2262 H 231.095 -3.04566 -1.58413 0
M  V30 2263 N 233.54 1.10788 -1.12088 0
M  V30 2264 C 234.472 2.16816 -0.743213 0
M  V30 2265 C 235.485 1.6119 0.228412 0
M  V30 2266 O 236.674 1.78497 0.0102931 0
M  V30 2267 C 233.774 3.38809 -0.0787313 0
M  V30 2268 C 232.947 4.23885 -1.0789 0
M  V30 2269 C 232.006 5.24334 -0.442713 0
M  V30 2270 O 231.032 5.58497 -1.09864 0
M  V30 2271 N 232.234 5.75079 0.791457 0
M  V30 2272 H 234.999 2.49825 -1.65552 0
M  V30 2273 H 232.56 1.26373 -1.012 0
M  V30 2274 H 234.552 4.03107 0.358766 0
M  V30 2275 H 233.122 3.03805 0.736275 0
M  V30 2276 H 232.342 3.55939 -1.69414 0
M  V30 2277 H 233.63 4.77562 -1.75533 0
M  V30 2278 H 233.028 5.49517 1.3434 0
M  V30 2279 H 231.585 6.4118 1.17183 0
M  V30 2280 N 235.018 0.912232 1.28515 0
M  V30 2281 C 236.295 0.463597 1.90027 0
M  V30 2282 C 236.675 -1.05753 1.82701 0
M  V30 2283 O 236.023 -1.90492 1.26194 0
M  V30 2284 C 236.233 0.992253 3.34597 0
M  V30 2285 C 237.581 1.04344 4.11579 0
M  V30 2286 O 238.605 0.94079 3.43551 0
M  V30 2287 O 237.464 1.1995 5.33174 0
M  V30 2288 H 234.558 0.146666 0.813891 0
M  V30 2289 H 237.104 1.00292 1.36893 0
M  V30 2290 H 235.876 2.03623 3.34146 0
M  V30 2291 H 235.499 0.433672 3.95228 0
M  V30 2292 N 236.496 -1.42363 0.676048 0
M  V30 2293 C 237.721 -2.06377 0.205705 0
M  V30 2294 C 238.146 -1.50463 -1.12883 0
M  V30 2295 O 237.504 -0.623619 -1.70237 0
M  V30 2296 C 237.552 -3.60277 0.152655 0
M  V30 2297 O 236.656 -4.02935 -0.87845 0
M  V30 2298 H 235.997 -0.655588 0.105359 0
M  V30 2299 H 238.527 -1.82475 0.925412 0
M  V30 2300 H 238.537 -4.07993 -0.0230675 0
M  V30 2301 H 237.212 -4.00346 1.12675 0
M  V30 2302 H 235.789 -3.66764 -0.673668 0
M  V30 2303 N 237.974 -0.419461 -1.51915 0
M  V30 2304 C 239.251 0.211999 -1.94448 0
M  V30 2305 C 239.631 1.61703 -1.35703 0
M  V30 2306 O 238.979 2.22102 -0.536931 0
M  V30 2307 C 239.189 0.207872 -3.4838 0
M  V30 2308 C 240.537 0.422192 -4.22496 0
M  V30 2309 O 241.561 0.286778 -3.55044 0
M  V30 2310 O 240.42 0.690009 -5.42126 0
M  V30 2311 H 237.514 0.139586 -0.815135 0
M  V30 2312 H 240.06 -0.476151 -1.62883 0
M  V30 2313 H 238.832 -0.775102 -3.83546 0
M  V30 2314 H 238.455 0.939688 -3.86336 0
M  V30 2315 N 239.452 1.56882 -0.150215 0
M  V30 2316 C 240.868 1.58263 0.20617 0
M  V30 2317 C 241.068 1.16464 1.64434 0
M  V30 2318 O 240.124 0.866422 2.3717 0
M  V30 2319 C 241.437 3.00649 -0.0555025 0
M  V30 2320 C 242.985 3.12999 0.00795388 0
M  V30 2321 C 243.46 4.5744 -0.226429 0
M  V30 2322 N 244.951 4.62875 -0.173469 0
M  V30 2323 C 245.686 5.72454 -0.329288 0
M  V30 2324 N 245.182 6.90669 -0.543005 0
M  V30 2325 N 246.975 5.61467 -0.266666 0
M  V30 2326 H 239.126 1.82345 -1.08922 0
M  V30 2327 H 241.389 0.844149 -0.431413 0
M  V30 2328 H 241.095 3.3563 -1.05096 0
M  V30 2329 H 240.969 3.71337 0.66246 0
M  V30 2330 H 243.356 2.77857 0.993966 0
M  V30 2331 H 243.437 2.4479 -0.742388 0
M  V30 2332 H 243.081 4.93287 -1.20956 0
M  V30 2333 H 243.011 5.2378 0.544274 0
M  V30 2334 H 245.502 3.77898 -0.0130709 0
M  V30 2335 H 245.815 7.70045 -0.651922 0
M  V30 2336 H 244.16 6.92581 -0.579366 0
M  V30 2337 H 247.351 4.67992 -0.100441 0
M  V30 2338 H 247.524 6.46816 -0.391535 0
M  V30 2339 N 240.93 -0.123565 1.57115 0
M  V30 2340 C 241.88 -1.1575 1.96433 0
M  V30 2341 C 242.864 -1.37313 0.838686 0
M  V30 2342 O 244.056 -1.38482 1.10235 0
M  V30 2343 C 241.185 -2.48526 2.36833 0
M  V30 2344 C 240.271 -2.30457 3.5602 0
M  V30 2345 N 240.662 -1.8219 4.71848 0
M  V30 2346 C 238.96 -2.61129 3.61563 0
M  V30 2347 C 239.661 -1.77721 5.53886 0
M  V30 2348 N 238.637 -2.21899 4.96248 0
M  V30 2349 H 242.439 -0.776797 2.83449 0
M  V30 2350 H 239.953 -0.331364 1.58983 0
M  V30 2351 H 241.95 -3.233 2.63216 0
M  V30 2352 H 240.61 -2.87358 1.5118 0
M  V30 2353 H 241.621 -1.51805 4.95152 0
M  V30 2354 H 238.298 -3.03678 2.86507 0
M  V30 2355 H 239.688 -1.41697 6.56789 0
M  V30 2356 N 242.408 -1.52605 -0.393616 0
M  V30 2357 C 243.824 -1.41753 -0.733357 0
M  V30 2358 C 244.024 -0.534293 -1.94287 0
M  V30 2359 O 243.08 -0.0059787 -2.52499 0
M  V30 2360 C 244.393 -2.84531 -0.972772 0
M  V30 2361 C 245.941 -2.93978 -1.07453 0
M  V30 2362 C 246.416 -4.37756 -1.3466 0
M  V30 2363 N 247.907 -4.4106 -1.41492 0
M  V30 2364 C 248.642 -5.49387 -1.642 0
M  V30 2365 N 248.138 -6.67806 -1.8441 0
M  V30 2366 N 249.931 -5.36923 -1.66342 0
M  V30 2367 H 242.082 -2.08555 0.402328 0
M  V30 2368 H 244.345 -0.940654 0.117789 0
M  V30 2369 H 244.051 -3.51353 -0.156204 0
M  V30 2370 H 243.925 -3.26508 -1.88871 0
M  V30 2371 H 246.312 -2.27326 -1.88167 0
M  V30 2372 H 246.393 -2.55435 -0.136605 0
M  V30 2373 H 246.037 -5.04972 -0.544581 0
M  V30 2374 H 245.967 -4.73848 -2.2973 0
M  V30 2375 H 248.458 -3.55705 -1.27601 0
M  V30 2376 H 248.771 -7.46141 -2.01231 0
M  V30 2377 H 247.116 -6.70843 -1.81644 0
M  V30 2378 H 250.307 -4.43381 -1.50102 0
M  V30 2379 H 250.48 -6.21416 -1.837 0
M  V30 2380 N 243.887 0.651787 -1.4349 0
M  V30 2381 C 245.135 1.40888 -1.44897 0
M  V30 2382 C 245.456 1.94856 -0.0749086 0
M  V30 2383 O 244.726 1.74518 0.889956 0
M  V30 2384 H 243.306 0.522887 -0.533478 0
M  V30 2385 H 245.968 0.768609 -1.79104 0
M  V30 2386 H 245.064 2.25052 -2.16236 0
M  V30 2387 N 245.365 1.30045 0.890287 0
M  V30 2388 C 246.642 1.09227 1.62262 0
M  V30 2389 C 247.022 -0.360305 2.08002 0
M  V30 2390 O 246.37 -1.35084 1.84295 0
M  V30 2391 C 246.58 2.08835 2.79623 0
M  V30 2392 C 247.928 2.40266 3.50082 0
M  V30 2393 O 248.952 2.07104 2.89804 0
M  V30 2394 O 247.811 2.96967 4.58773 0
M  V30 2395 H 244.905 0.419132 0.712922 0
M  V30 2396 H 247.451 1.41451 0.937529 0
M  V30 2397 H 246.223 3.06633 2.43089 0
M  V30 2398 H 245.846 1.77397 3.55832 0
M  V30 2399 N 246.843 -1.10192 1.12674 0
M  V30 2400 C 247.773 -2.18652 0.819362 0
M  V30 2401 C 248.754 -1.68698 -0.217915 0
M  V30 2402 O 249.939 -1.94041 -0.0785581 0
M  V30 2403 C 247.069 -3.46202 0.27594 0
M  V30 2404 C 246.023 -4.09444 1.24656 0
M  V30 2405 C 245.349 -5.31725 0.563258 0
M  V30 2406 C 246.649 -4.52863 2.60217 0
M  V30 2407 H 248.343 -2.44622 1.72628 0
M  V30 2408 H 245.889 -1.17571 0.831451 0
M  V30 2409 H 247.842 -4.21372 0.0486149 0
M  V30 2410 H 246.566 -3.1973 -0.666331 0
M  V30 2411 H 245.225 -3.36284 1.45974 0
M  V30 2412 H 244.873 -5.0153 -0.384235 0
M  V30 2413 H 244.573 -5.74991 1.21075 0
M  V30 2414 H 246.097 -6.09624 0.34503 0
M  V30 2415 H 247.511 -5.19294 2.42913 0
M  V30 2416 H 245.908 -5.06986 3.21068 0
M  V30 2417 H 246.978 -3.65656 3.18471 0
M  V30 2418 N 248.321 -0.919034 -1.28029 0
M  V30 2419 C 249.569 -0.553838 -1.94363 0
M  V30 2420 C 249.89 0.906357 -1.72656 0
M  V30 2421 O 249.16 1.64143 -1.0693 0
M  V30 2422 H 247.74 -0.201834 -0.719216 0
M  V30 2423 H 250.402 -1.16954 -1.55909 0
M  V30 2424 H 249.498 -0.752758 -3.02886 0
M  V30 2425 N 249.799 1.42003 -0.683588 0
M  V30 2426 C 250.747 2.326 0.000815408 0
M  V30 2427 C 251.741 1.50308 0.781278 0
M  V30 2428 O 252.947 1.66322 0.688251 0
M  V30 2429 H 249.322 0.751758 0.0190616 0
M  V30 2430 H 251.293 2.88011 -0.780528 0
M  V30 2431 C 250.042 3.34978 0.93195 0
M  V30 2432 H 249.365 3.98345 0.340817 0
M  V30 2433 H 250.805 4.00936 1.37936 0
M  V30 2434 C 249.264 2.67925 2.04249 0
M  V30 2435 O 249.794 2.51788 3.12995 0
M  V30 2436 N 248 2.2681 1.81675 0
M  V30 2437 H 247.547 2.40135 0.932363 0
M  V30 2438 H 247.505 1.8228 2.56167 0
M  V30 2439 N 251.277 0.427512 1.51691 0
M  V30 2440 C 252.523 -0.142439 2.02299 0
M  V30 2441 C 252.856 -1.43214 1.31162 0
M  V30 2442 O 252.131 -1.89833 0.423511 0
M  V30 2443 C 252.414 -0.371301 3.58181 0
M  V30 2444 C 252.267 0.936358 4.39946 0
M  V30 2445 C 253.586 -1.14542 4.24933 0
M  V30 2446 H 250.705 -0.0502937 0.735282 0
M  V30 2447 H 253.347 0.564584 1.81418 0
M  V30 2448 H 251.497 -0.973559 3.76104 0
M  V30 2449 H 253.169 1.57184 4.33694 0
M  V30 2450 H 251.412 1.5432 4.05423 0
M  V30 2451 H 252.083 0.730388 5.47147 0
M  V30 2452 H 254.559 -0.635362 4.11221 0
M  V30 2453 H 253.435 -1.27431 5.33903 0
M  V30 2454 H 253.696 -2.17093 3.85127 0
M  V30 2455 N 252.755 -1.56801 0.158532 0
M  V30 2456 C 254.171 -1.5837 -0.197774 0
M  V30 2457 C 254.371 -1.17334 -1.63814 0
M  V30 2458 O 253.427 -0.878988 -2.36707 0
M  V30 2459 C 254.74 -3.00615 0.0714459 0
M  V30 2460 C 256.288 -3.12999 0.00864533 0
M  V30 2461 C 256.763 -4.57313 0.250685 0
M  V30 2462 N 258.254 -4.62777 0.198014 0
M  V30 2463 C 258.989 -5.72271 0.359642 0
M  V30 2464 N 258.485 -6.90371 0.579625 0
M  V30 2465 N 260.278 -5.61318 0.296438 0
M  V30 2466 H 252.429 -1.81765 1.09887 0
M  V30 2467 H 254.692 -0.841849 0.435884 0
M  V30 2468 H 254.398 -3.35068 1.06874 0
M  V30 2469 H 254.272 -3.71683 -0.642757 0
M  V30 2470 H 256.659 -2.7838 -0.979217 0
M  V30 2471 H 256.74 -2.44393 0.755359 0
M  V30 2472 H 256.384 -4.92639 1.2357 0
M  V30 2473 H 256.314 -5.24061 -0.516489 0
M  V30 2474 H 258.805 -3.77885 0.0331115 0
M  V30 2475 H 259.118 -7.69689 0.69275 0
M  V30 2476 H 257.463 -6.92264 0.616087 0
M  V30 2477 H 260.654 -4.67932 0.125258 0
M  V30 2478 H 260.827 -6.46599 0.425831 0
M  V30 2479 N 254.233 0.115231 -1.57178 0
M  V30 2480 C 255.196 1.12526 -1.99676 0
M  V30 2481 C 256.196 1.34095 -0.88742 0
M  V30 2482 O 257.386 1.30548 -1.15337 0
M  V30 2483 C 254.518 2.4789 -2.34015 0
M  V30 2484 H 255.711 0.759912 -2.90113 0
M  V30 2485 H 253.264 0.359648 -1.52106 0
M  V30 2486 H 253.999 2.89339 -1.4647 0
M  V30 2487 H 253.784 2.33588 -3.14927 0
M  V30 2488 H 255.274 3.20575 -2.67622 0
M  V30 2489 N 255.711 1.52812 0.385517 0
M  V30 2490 C 256.988 1.5861 1.14465 0
M  V30 2491 C 257.368 0.381402 2.07626 0
M  V30 2492 O 256.716 -0.629999 2.19643 0
M  V30 2493 C 256.926 2.92664 1.90128 0
M  V30 2494 C 258.274 3.46526 2.45367 0
M  V30 2495 O 259.298 2.94562 2.0028 0
M  V30 2496 O 258.157 4.37323 3.27736 0
M  V30 2497 H 255.251 0.639855 0.523941 0
M  V30 2498 H 257.797 1.65149 0.390389 0
M  V30 2499 H 256.569 3.71788 1.22022 0
M  V30 2500 H 256.192 2.89527 2.72507 0
M  V30 2501 N 257.189 -0.644168 1.43834 0
M  V30 2502 C 258.152 -1.73857 1.49353 0
M  V30 2503 C 259.152 -1.56315 0.377112 0
M  V30 2504 O 260.342 -1.62048 0.639226 0
M  V30 2505 C 257.474 -3.12819 1.35488 0
M  V30 2506 H 258.667 -1.70342 2.46827 0
M  V30 2507 H 256.22 -0.856652 1.30733 0
M  V30 2508 H 256.955 -3.2194 0.390569 0
M  V30 2509 H 256.74 -3.26958 2.16428 0
M  V30 2510 H 258.23 -3.92606 1.42302 0
M  V30 2511 N 258.668 -1.30515 -0.883378 0
M  V30 2512 C 259.945 -1.10086 -1.6168 0
M  V30 2513 C 260.325 0.349269 -2.08191 0
M  V30 2514 O 259.673 1.34105 -1.85008 0
M  V30 2515 C 259.883 -2.10315 -2.78511 0
M  V30 2516 C 261.231 -2.42119 -3.48803 0
M  V30 2517 O 262.255 -2.08638 -2.88702 0
M  V30 2518 O 261.114 -2.99396 -4.57192 0
M  V30 2519 H 258.208 -0.422907 -0.710689 0
M  V30 2520 H 260.754 -1.41947 -0.930015 0
M  V30 2521 H 259.526 -3.07917 -2.41459 0
M  V30 2522 H 259.149 -1.79282 -3.54886 0
M  V30 2523 N 260.146 1.09593 -1.13257 0
M  V30 2524 C 261.394 1.81375 -0.891492 0
M  V30 2525 C 261.715 1.86049 0.584009 0
M  V30 2526 O 260.985 1.34481 1.42449 0
M  V30 2527 H 259.565 0.671708 -0.326828 0
M  V30 2528 H 262.227 1.3256 -1.42877 0
M  V30 2529 H 261.323 2.84612 -1.28071 0
M  V30 2530 N 261.624 0.925811 1.2754 0
M  V30 2531 C 263.04 0.625767 1.46821 0
M  V30 2532 C 263.24 -0.825506 1.83814 0
M  V30 2533 O 262.296 -1.60356 1.95044 0
M  V30 2534 C 263.609 1.57402 2.56213 0
M  V30 2535 C 265.157 1.58204 2.70075 0
M  V30 2536 C 265.632 2.51721 3.82623 0
M  V30 2537 N 267.123 2.49917 3.89994 0
M  V30 2538 C 267.858 3.18968 4.76494 0
M  V30 2539 N 267.354 3.97391 5.67496 0
M  V30 2540 N 269.147 3.07996 4.70208 0
M  V30 2541 H 261.298 1.86409 1.01811 0
M  V30 2542 H 263.561 0.800213 0.508295 0
M  V30 2543 H 263.267 2.60925 2.35819 0
M  V30 2544 H 263.141 1.31428 3.53563 0
M  V30 2545 H 265.528 0.554124 2.89851 0
M  V30 2546 H 265.609 1.88226 1.73218 0
M  V30 2547 H 265.253 3.54622 3.63601 0
M  V30 2548 H 265.183 2.18996 4.78903 0
M  V30 2549 H 267.674 1.9296 3.24923 0
M  V30 2550 H 267.987 4.4707 6.30356 0
M  V30 2551 H 266.332 4.01495 5.67298 0
M  V30 2552 H 269.523 2.46223 3.9811 0
M  V30 2553 H 269.696 3.6208 5.37403 0
M  V30 2554 N 263.102 -1.41638 0.69111 0
M  V30 2555 C 264.065 -2.29178 0.0319786 0
M  V30 2556 C 265.065 -1.44153 -0.712496 0
M  V30 2557 O 266.255 -1.65354 -0.548053 0
M  V30 2558 C 263.387 -3.26952 -0.965161 0
M  V30 2559 H 264.58 -2.88959 0.802681 0
M  V30 2560 H 262.133 -1.4955 0.454356 0
M  V30 2561 H 262.868 -2.72142 -1.76378 0
M  V30 2562 H 262.653 -3.89685 -0.434522 0
M  V30 2563 H 264.143 -3.92561 -1.42428 0
M  V30 2564 N 264.58 -0.43555 -1.51462 0
M  V30 2565 C 265.829 0.133007 -2.01261 0
M  V30 2566 C 266.142 1.43942 -1.32439 0
M  V30 2567 O 267.348 2.09081 -1.73198 0
M  V30 2568 C 265.804 0.287581 -3.58749 0
M  V30 2569 C 265.412 -1.00829 -4.36506 0
M  V30 2570 C 267.156 0.810004 -4.167 0
M  V30 2571 C 265.063 -0.819454 -5.85695 0
M  V30 2572 H 263.993 0.0534822 -0.752101 0
M  V30 2573 H 266.644 -0.565038 -1.74584 0
M  V30 2574 H 265.026 1.04859 -3.81865 0
M  V30 2575 H 266.2 -1.77749 -4.25138 0
M  V30 2576 H 264.515 -1.45911 -3.89999 0
M  V30 2577 H 267.112 0.967743 -5.2587 0
M  V30 2578 H 267.455 1.79196 -3.75758 0
M  V30 2579 H 267.988 0.107357 -3.97655 0
M  V30 2580 H 264.727 -1.77374 -6.31046 0
M  V30 2581 H 264.247 -0.0900208 -5.99732 0
M  V30 2582 H 265.926 -0.471949 -6.45276 0
M  V30 2583 N 266.058 1.56714 -0.166846 0
M  V30 2584 C 267.305 1.96747 0.479252 0
M  V30 2585 C 267.633 1.05263 1.63554 0
M  V30 2586 O 266.888 0.0858098 1.95512 0
M  V30 2587 C 267.187 3.42889 1.00806 0
M  V30 2588 C 266.853 4.50889 -0.0318574 0
M  V30 2589 C 265.515 4.8015 -0.317675 0
M  V30 2590 C 267.867 5.15949 -0.737956 0
M  V30 2591 C 265.195 5.71772 -1.31506 0
M  V30 2592 C 267.547 6.08647 -1.72429 0
M  V30 2593 C 266.211 6.36277 -2.0176 0
M  V30 2594 H 265.481 0.719949 0.175371 0
M  V30 2595 H 268.128 1.89756 -0.257864 0
M  V30 2596 H 266.433 3.4681 1.82291 0
M  V30 2597 H 268.13 3.71203 1.51689 0
M  V30 2598 H 264.72 4.28128 0.201088 0
M  V30 2599 H 268.904 4.93458 -0.530351 0
M  V30 2600 H 264.16 5.91465 -1.54853 0
M  V30 2601 H 268.334 6.58129 -2.27682 0
M  V30 2602 H 265.961 7.07075 -2.79194 0
M  V30 2603 N 267.536 -0.106894 1.57237 0
M  V30 2604 C 268.952 -0.46078 1.52804 0
M  V30 2605 C 269.152 -1.81184 0.881746 0
M  V30 2606 O 268.208 -2.48102 0.469224 0
M  V30 2607 C 269.521 -0.434127 2.9755 0
M  V30 2608 C 271.069 -0.516821 3.08704 0
M  V30 2609 C 271.544 -0.520436 4.55033 0
M  V30 2610 N 273.035 -0.58153 4.59535 0
M  V30 2611 C 273.77 -0.605973 5.70189 0
M  V30 2612 N 273.266 -0.587331 6.90306 0
M  V30 2613 N 275.059 -0.649895 5.5833 0
M  V30 2614 H 267.21 0.778203 1.9763 0
M  V30 2615 H 269.473 0.288403 0.903066 0
M  V30 2616 H 269.179 0.491197 3.48253 0
M  V30 2617 H 269.053 -1.25748 3.55622 0
M  V30 2618 H 271.44 -1.43256 2.57995 0
M  V30 2619 H 271.521 0.334449 2.53604 0
M  V30 2620 H 271.165 0.391313 5.0639 0
M  V30 2621 H 271.095 -1.38876 5.07958 0
M  V30 2622 H 273.586 -0.60161 3.73081 0
M  V30 2623 H 273.899 -0.60894 7.70397 0
M  V30 2624 H 272.244 -0.554564 6.92784 0
M  V30 2625 H 275.435 -0.661907 4.63397 0
M  V30 2626 H 275.608 -0.665476 6.44574 0
M  V30 2627 N 269.014 -1.53014 -0.377408 0
M  V30 2628 C 269.947 -1.73382 -1.48371 0
M  V30 2629 C 270.925 -0.581879 -1.51832 0
M  V30 2630 O 272.109 -0.81307 -1.70063 0
M  V30 2631 C 269.236 -1.80192 -2.8679 0
M  V30 2632 C 268.282 -3.02056 -3.01105 0
M  V30 2633 S 269.115 -4.61811 -2.71093 0
M  V30 2634 C 270.271 -4.71453 -4.11683 0
M  V30 2635 H 270.504 -2.66946 -1.30872 0
M  V30 2636 H 268.037 -1.43453 -0.571012 0
M  V30 2637 H 269.995 -1.84802 -3.6655 0
M  V30 2638 H 268.656 -0.877008 -3.01608 0
M  V30 2639 H 267.849 -3.03396 -4.02451 0
M  V30 2640 H 267.451 -2.95498 -2.29253 0
M  V30 2641 H 269.743 -4.50781 -5.0577 0
M  V30 2642 H 270.686 -5.73487 -4.15353 0
M  V30 2643 H 271.094 -4.00189 -3.98132 0
M  V30 2644 N 270.492 0.636531 -1.44174 0
M  V30 2645 C 271.402 1.77754 -1.53103 0
M  V30 2646 C 272.418 1.68928 -0.417034 0
M  V30 2647 O 273.594 1.89801 -0.6736 0
M  V30 2648 C 270.659 3.14115 -1.46741 0
M  V30 2649 C 269.72 3.34612 -2.68948 0
M  V30 2650 C 268.953 4.64467 -2.6288 0
M  V30 2651 O 269.176 5.44919 -1.68581 0
M  V30 2652 O 268.11 4.87049 -3.53648 0
M  V30 2653 H 271.936 1.73174 -2.49489 0
M  V30 2654 H 269.521 0.79709 -1.2636 0
M  V30 2655 H 271.403 3.95412 -1.45696 0
M  V30 2656 H 270.078 3.19249 -0.534975 0
M  V30 2657 H 268.985 2.53014 -2.75562 0
M  V30 2658 H 270.318 3.34336 -3.61221 0
M  V30 2659 N 271.97 1.30982 0.876444 0
M  V30 2660 C 273.247 1.10942 1.61094 0
M  V30 2661 C 273.627 -0.338223 2.08373 0
M  V30 2662 O 272.975 -1.33122 1.85717 0
M  V30 2663 C 273.185 2.11789 2.77392 0
M  V30 2664 C 274.533 2.43965 3.47514 0
M  V30 2665 O 275.557 2.10166 2.87591 0
M  V30 2666 O 274.416 3.01817 4.55597 0
M  V30 2667 H 271.51 0.42667 0.708436 0
M  V30 2668 H 274.056 1.42438 0.922474 0
M  V30 2669 H 272.828 3.09194 2.39823 0
M  V30 2670 H 272.451 1.81161 3.5393 0
M  V30 2671 N 273.449 -1.08991 1.13837 0
M  V30 2672 C 274.359 -2.19301 0.833333 0
M  V30 2673 C 275.375 -1.73026 -0.183847 0
M  V30 2674 O 276.551 -2.01395 -0.0138092 0
M  V30 2675 C 273.616 -3.45323 0.308651 0
M  V30 2676 C 272.677 -4.06255 1.38764 0
M  V30 2677 C 271.91 -5.26262 0.887896 0
M  V30 2678 O 272.133 -5.69747 -0.27287 0
M  V30 2679 O 271.067 -5.78435 1.66421 0
M  V30 2680 H 274.893 -2.47854 1.75506 0
M  V30 2681 H 272.478 -1.18012 0.916166 0
M  V30 2682 H 274.36 -4.21394 0.0216739 0
M  V30 2683 H 273.035 -3.18362 -0.585431 0
M  V30 2684 H 271.942 -3.318 1.72799 0
M  V30 2685 H 273.275 -4.37452 2.25602 0
M  V30 2686 N 274.927 -0.932562 -1.27047 0
M  V30 2687 C 275.859 -0.392734 -2.2581 0
M  V30 2688 C 276.872 0.479241 -1.55586 0
M  V30 2689 O 278.061 0.291078 -1.76111 0
M  V30 2690 C 275.161 0.455456 -3.35826 0
M  V30 2691 C 274.334 -0.398355 -4.35582 0
M  V30 2692 C 273.393 0.387985 -5.24768 0
M  V30 2693 O 272.419 -0.206003 -5.68827 0
M  V30 2694 N 273.621 1.68664 -5.55457 0
M  V30 2695 H 276.386 -1.24173 -2.72766 0
M  V30 2696 H 273.947 -0.800511 -1.40725 0
M  V30 2697 H 275.939 0.988692 -3.92437 0
M  V30 2698 H 274.509 1.20522 -2.88432 0
M  V30 2699 H 273.729 -1.11286 -3.78165 0
M  V30 2700 H 275.017 -0.981889 -4.99236 0
M  V30 2701 H 274.415 2.19147 -5.21528 0
M  V30 2702 H 272.972 2.1663 -6.14748 0
M  V30 2703 N 276.405 1.4127 -0.698611 0
M  V30 2704 C 277.335 2.33447 -0.049629 0
M  V30 2705 C 278.316 1.51982 0.763898 0
M  V30 2706 O 279.501 1.80509 0.716257 0
M  V30 2707 C 276.631 3.35828 0.885267 0
M  V30 2708 C 275.585 4.27627 0.178613 0
M  V30 2709 C 274.911 5.20406 1.22807 0
M  V30 2710 C 276.211 5.13459 -0.956933 0
M  V30 2711 H 277.905 2.87966 -0.81951 0
M  V30 2712 H 275.451 1.38461 -0.395538 0
M  V30 2713 H 277.404 3.9924 1.34854 0
M  V30 2714 H 276.128 2.79666 1.68685 0
M  V30 2715 H 274.787 3.65643 -0.26466 0
M  V30 2716 H 274.435 4.60558 2.02226 0
M  V30 2717 H 274.135 5.82661 0.760239 0
M  V30 2718 H 275.659 5.86695 1.69179 0
M  V30 2719 H 277.073 5.70421 -0.573805 0
M  V30 2720 H 275.47 5.8467 -1.35205 0
M  V30 2721 H 276.54 4.50443 -1.79524 0
M  V30 2722 N 277.883 0.443576 1.51229 0
M  V30 2723 C 278.83 -0.364716 2.279 0
M  V30 2724 C 279.8 -1.0114 1.31757 0
M  V30 2725 O 280.985 -1.02912 1.60667 0
M  V30 2726 C 278.125 -1.45644 3.12861 0
M  V30 2727 C 277.238 -0.827269 4.24005 0
M  V30 2728 C 276.373 -1.89456 4.96266 0
M  V30 2729 C 275.412 -1.24416 5.99322 0
M  V30 2730 N 274.549 -2.25309 6.64966 0
M  V30 2731 H 279.389 0.295464 2.96532 0
M  V30 2732 H 276.926 0.157554 1.46254 0
M  V30 2733 H 278.884 -2.10076 3.6045 0
M  V30 2734 H 277.514 -2.08616 2.46331 0
M  V30 2735 H 276.566 -0.0710839 3.80334 0
M  V30 2736 H 277.878 -0.312481 4.9782 0
M  V30 2737 H 277.032 -2.61535 5.47434 0
M  V30 2738 H 275.771 -2.4431 4.22095 0
M  V30 2739 H 274.776 -0.508868 5.4744 0
M  V30 2740 H 276.001 -0.702882 6.75453 0
M  V30 2741 H 273.947 -2.79231 5.93604 0
M  V30 2742 H 273.864 -1.78739 7.34567 0
M  V30 2743 H 275.132 -2.96853 7.20763 0
M  V30 2744 N 279.361 -1.56624 0.175154 0
M  V30 2745 C 280.607 -1.9729 -0.469506 0
M  V30 2746 C 280.94 -1.06128 -1.62636 0
M  V30 2747 O 280.215 -0.109183 -1.94193 0
M  V30 2748 C 280.498 -3.47375 -0.948804 0
M  V30 2749 C 280.351 -4.49317 0.208491 0
M  V30 2750 C 281.67 -4.00652 -1.82116 0
M  V30 2751 H 278.789 -0.717317 -0.16919 0
M  V30 2752 H 281.431 -1.88184 0.262062 0
M  V30 2753 H 279.581 -3.55267 -1.57219 0
M  V30 2754 H 281.253 -4.53482 0.845682 0
M  V30 2755 H 279.496 -4.25121 0.863395 0
M  V30 2756 H 280.167 -5.51741 -0.169059 0
M  V30 2757 H 282.643 -3.95416 -1.2956 0
M  V30 2758 H 281.519 -5.06075 -2.12554 0
M  V30 2759 H 281.78 -3.44699 -2.7683 0
M  V30 2760 N 280.839 0.0985539 -1.57292 0
M  V30 2761 C 282.085 0.798769 -1.87059 0
M  V30 2762 C 282.44 1.76514 -0.76555 0
M  V30 2763 O 281.733 1.90181 0.232752 0
M  V30 2764 C 281.927 1.56927 -3.21105 0
M  V30 2765 C 281.756 0.679026 -4.44544 0
M  V30 2766 C 280.526 0.326071 -5.04247 0
M  V30 2767 C 282.724 -0.0124715 -5.14298 0
M  V30 2768 N 280.706 -0.572702 -6.11223 0
M  V30 2769 C 282.077 -0.769446 -6.15207 0
M  V30 2770 C 284.132 -0.0867545 -4.97824 0
M  V30 2771 C 282.835 -1.59376 -7.01421 0
M  V30 2772 C 284.861 -0.897955 -5.84543 0
M  V30 2773 C 284.223 -1.64306 -6.84969 0
M  V30 2774 H 280.322 0.268568 -0.734435 0
M  V30 2775 H 282.906 0.0614664 -1.94603 0
M  V30 2776 H 281.077 2.27748 -3.1462 0
M  V30 2777 H 282.809 2.21641 -3.38611 0
M  V30 2778 H 279.564 0.67295 -4.68795 0
M  V30 2779 H 279.988 -1.01454 -6.69355 0
M  V30 2780 H 284.63 0.474963 -4.20124 0
M  V30 2781 H 282.348 -2.16655 -7.78515 0
M  V30 2782 H 285.934 -0.958059 -5.73858 0
M  V30 2783 H 284.814 -2.26065 -7.50909 0
M  V30 2784 N 282.317 1.53212 0.369288 0
M  V30 2785 C 283.594 1.59815 1.12776 0
M  V30 2786 C 283.974 0.403402 2.0721 0
M  V30 2787 O 283.322 -0.606667 2.20299 0
M  V30 2788 C 283.532 2.94664 1.87013 0
M  V30 2789 C 284.88 3.49109 2.41677 0
M  V30 2790 O 285.904 2.96669 1.97144 0
M  V30 2791 O 284.763 4.40775 3.23079 0
M  V30 2792 H 281.857 0.645376 0.517125 0
M  V30 2793 H 284.403 1.65553 0.37285 0
M  V30 2794 H 283.175 3.73061 1.18071 0
M  V30 2795 H 282.798 2.92401 2.69421 0
M  V30 2796 N 283.795 -0.628877 1.44509 0
M  V30 2797 C 285.041 -1.39045 1.47629 0
M  V30 2798 C 285.374 -1.93892 0.109343 0
M  V30 2799 O 284.649 -1.7379 -0.87334 0
M  V30 2800 C 284.932 -2.55408 2.53848 0
M  V30 2801 C 284.785 -2.05896 3.99909 0
M  V30 2802 C 286.104 -3.5759 2.56549 0
M  V30 2803 H 283.223 -0.504232 0.537512 0
M  V30 2804 H 285.865 -0.710854 1.76201 0
M  V30 2805 H 284.015 -3.13384 2.29615 0
M  V30 2806 H 285.687 -1.52734 4.35282 0
M  V30 2807 H 283.93 -1.37061 4.11578 0
M  V30 2808 H 284.601 -2.89681 4.69882 0
M  V30 2809 H 287.077 -3.09419 2.78207 0
M  V30 2810 H 285.953 -4.36527 3.32769 0
M  V30 2811 H 286.214 -4.11808 1.60832 0
M  V30 2812 N 285.273 -1.31445 -0.869486 0
M  V30 2813 C 286.522 -1.20517 -1.61736 0
M  V30 2814 C 286.835 0.235341 -1.94179 0
M  V30 2815 O 288.041 0.466312 -2.67465 0
M  V30 2816 C 286.497 -2.10982 -2.91573 0
M  V30 2817 C 286.105 -3.60032 -2.66611 0
M  V30 2818 C 287.849 -2.08856 -3.69567 0
M  V30 2819 C 285.756 -4.42503 -3.92358 0
M  V30 2820 H 284.686 -0.447493 -0.606849 0
M  V30 2821 H 287.337 -1.56303 -0.96133 0
M  V30 2822 H 285.719 -1.68095 -3.58553 0
M  V30 2823 H 286.893 -4.11167 -2.08035 0
M  V30 2824 H 285.208 -3.64139 -2.0197 0
M  V30 2825 H 287.805 -2.67716 -4.62852 0
M  V30 2826 H 288.148 -1.07582 -4.02159 0
M  V30 2827 H 288.681 -2.49945 -3.09471 0
M  V30 2828 H 285.42 -5.44533 -3.64916 0
M  V30 2829 H 284.94 -3.96125 -4.50383 0
M  V30 2830 H 286.619 -4.54741 -4.60238 0
M  V30 2831 N 286.751 1.08385 -1.14413 0
M  V30 2832 C 287.999 1.80419 -0.910679 0
M  V30 2833 C 288.32 1.86658 0.564243 0
M  V30 2834 O 287.59 1.35985 1.41014 0
M  V30 2835 H 286.17 0.668204 -0.333934 0
M  V30 2836 H 288.832 1.31037 -1.44275 0
M  V30 2837 H 287.928 2.83238 -1.31082 0
M  V30 2838 N 288.23 0.939286 1.26551 0
M  V30 2839 C 289.646 0.641304 1.46149 0
M  V30 2840 C 289.846 -0.805964 1.84679 0
M  V30 2841 O 288.902 -1.58278 1.96734 0
M  V30 2842 C 290.215 1.6011 2.54529 0
M  V30 2843 C 291.763 1.6106 2.68382 0
M  V30 2844 C 292.238 2.55765 3.79932 0
M  V30 2845 N 293.729 2.5404 3.87322 0
M  V30 2846 C 294.464 3.24004 4.73085 0
M  V30 2847 N 293.96 4.03388 5.63249 0
M  V30 2848 N 295.753 3.12965 4.66914 0
M  V30 2849 H 287.904 1.87478 0.998285 0
M  V30 2850 H 290.167 0.805559 0.499779 0
M  V30 2851 H 289.873 2.63412 2.33039 0
M  V30 2852 H 289.747 1.35171 3.52149 0
M  V30 2853 H 292.134 0.584835 2.89247 0
M  V30 2854 H 292.215 1.90053 1.71212 0
M  V30 2855 H 291.859 3.58458 3.5982 0
M  V30 2856 H 291.789 2.24063 4.76554 0
M  V30 2857 H 294.28 1.96396 3.22858 0
M  V30 2858 H 294.593 4.5373 6.25579 0
M  V30 2859 H 292.938 4.07489 5.63008 0
M  V30 2860 H 296.129 2.50432 3.95476 0
M  V30 2861 H 296.302 3.67759 5.33533 0
M  V30 2862 N 289.708 -1.40897 0.706093 0
M  V30 2863 C 290.933 -2.05895 0.249435 0
M  V30 2864 C 291.358 -1.52823 -1.09666 0
M  V30 2865 O 290.716 -0.659589 -1.68876 0
M  V30 2866 C 290.764 -3.59872 0.22904 0
M  V30 2867 O 289.868 -4.04708 -0.792784 0
M  V30 2868 H 289.209 -0.653206 0.119241 0
M  V30 2869 H 291.739 -1.80471 0.96391 0
M  V30 2870 H 291.749 -4.07951 0.0634791 0
M  V30 2871 H 290.424 -3.97866 1.21141 0
M  V30 2872 H 289.001 -3.68111 -0.59572 0
M  V30 2873 N 291.186 -0.45159 -1.50991 0
M  V30 2874 C 292.116 0.342898 -2.30969 0
M  V30 2875 C 293.097 1.00815 -1.37005 0
M  V30 2876 O 294.282 1.00907 -1.65926 0
M  V30 2877 C 291.412 1.43637 -3.16205 0
M  V30 2878 C 290.366 0.893818 -4.18563 0
M  V30 2879 C 289.692 2.08411 -4.92411 0
M  V30 2880 C 290.992 -0.0815568 -5.22236 0
M  V30 2881 H 292.686 -0.324556 -2.97636 0
M  V30 2882 H 290.232 -0.157531 -1.43136 0
M  V30 2883 H 292.185 1.9995 -3.70942 0
M  V30 2884 H 290.909 2.13232 -2.47386 0
M  V30 2885 H 289.568 0.352798 -3.64898 0
M  V30 2886 H 289.216 2.76658 -4.20082 0
M  V30 2887 H 288.916 1.72741 -5.61636 0
M  V30 2888 H 290.44 2.65251 -5.49976 0
M  V30 2889 H 291.854 0.391742 -5.7196 0
M  V30 2890 H 290.251 -0.351551 -5.99069 0
M  V30 2891 H 291.321 -1.01374 -4.74185 0
M  V30 2892 N 292.664 1.56529 -0.183458 0
M  V30 2893 C 293.913 1.96419 0.458511 0
M  V30 2894 C 294.226 1.0727 1.63562 0
M  V30 2895 O 295.432 1.36893 2.34462 0
M  V30 2896 C 293.888 3.49298 0.867122 0
M  V30 2897 C 293.496 4.47092 -0.285057 0
M  V30 2898 C 295.24 3.97983 1.47683 0
M  V30 2899 C 293.147 5.91225 0.143862 0
M  V30 2900 H 292.077 0.733394 0.175071 0
M  V30 2901 H 294.728 1.81448 -0.273624 0
M  V30 2902 H 293.11 3.59731 1.65559 0
M  V30 2903 H 294.284 4.48383 -1.0625 0
M  V30 2904 H 292.599 4.08535 -0.805503 0
M  V30 2905 H 295.196 5.03134 1.80999 0
M  V30 2906 H 295.539 3.41618 2.37914 0
M  V30 2907 H 296.072 3.90617 0.752562 0
M  V30 2908 H 292.811 6.5149 -0.723974 0
M  V30 2909 H 292.331 5.93214 0.886413 0
M  V30 2910 H 294.01 6.44362 0.583628 0
M  V30 2911 N 294.142 -0.090211 1.57342 0
M  V30 2912 C 295.391 -0.791531 1.8552 0
M  V30 2913 C 295.704 -1.79659 0.773441 0
M  V30 2914 O 296.91 -2.54616 0.942497 0
M  V30 2915 C 295.366 -1.45856 3.2902 0
M  V30 2916 C 294.974 -0.493017 4.45279 0
M  V30 2917 C 296.718 -2.14332 3.66418 0
M  V30 2918 C 294.625 -1.16491 5.79814 0
M  V30 2919 H 293.555 -0.299356 0.692027 0
M  V30 2920 H 296.206 -0.0445343 1.83446 0
M  V30 2921 H 294.588 -2.25318 3.2565 0
M  V30 2922 H 295.762 0.270464 4.60006 0
M  V30 2923 H 294.077 0.0863061 4.16311 0
M  V30 2924 H 296.674 -2.65344 4.64216 0
M  V30 2925 H 297.017 -2.93447 2.95287 0
M  V30 2926 H 297.55 -1.41724 3.71698 0
M  V30 2927 H 294.289 -0.41447 6.54188 0
M  V30 2928 H 293.809 -1.8997 5.68921 0
M  V30 2929 H 295.488 -1.69001 6.24538 0
M  V30 2930 N 295.62 -1.53406 -0.361157 0
M  V30 2931 C 296.897 -1.60411 -1.11927 0
M  V30 2932 C 297.277 -0.414385 -2.06993 0
M  V30 2933 O 296.625 0.594976 -2.20618 0
M  V30 2934 C 296.835 -2.95652 -1.85448 0
M  V30 2935 C 298.183 -3.50386 -2.39823 0
M  V30 2936 O 299.207 -2.97711 -1.95568 0
M  V30 2937 O 298.066 -4.42482 -3.20737 0
M  V30 2938 H 295.16 -0.64811 -0.513695 0
M  V30 2939 H 297.706 -1.65749 -0.364065 0
M  V30 2940 H 296.478 -3.73682 -1.16091 0
M  V30 2941 H 296.101 -2.93825 -2.67866 0
M  V30 2942 N 297.098 0.621204 -1.44841 0
M  V30 2943 C 298.008 1.7612 -1.5498 0
M  V30 2944 C 299.024 1.68477 -0.434927 0
M  V30 2945 O 300.2 1.89076 -0.693693 0
M  V30 2946 C 297.265 3.1254 -1.50065 0
M  V30 2947 C 296.326 3.31741 -2.72482 0
M  V30 2948 C 295.559 4.61653 -2.67792 0
M  V30 2949 O 295.782 5.431 -1.74352 0
M  V30 2950 O 294.716 4.83271 -3.58794 0
M  V30 2951 H 298.542 1.70518 -2.51311 0
M  V30 2952 H 296.127 0.783643 -1.27198 0
M  V30 2953 H 298.009 3.93844 -1.49882 0
M  V30 2954 H 296.684 3.18663 -0.568806 0
M  V30 2955 H 295.591 2.50077 -2.7823 0
M  V30 2956 H 296.924 3.30486 -3.64746 0
M  V30 2957 N 298.576 1.31904 0.862503 0
M  V30 2958 C 299.824 1.21776 1.61292 0
M  V30 2959 C 300.145 -0.222413 1.93727 0
M  V30 2960 O 299.415 -1.1451 1.58947 0
M  V30 2961 H 297.995 0.447717 0.597962 0
M  V30 2962 H 300.657 1.65326 1.03215 0
M  V30 2963 H 299.753 1.7948 2.5533 0
M  V30 2964 N 300.054 -1.07777 1.14986 0
M  V30 2965 C 300.964 -2.18404 0.856546 0
M  V30 2966 C 301.98 -1.73211 -0.165485 0
M  V30 2967 O 303.156 -2.01399 0.00755219 0
M  V30 2968 C 300.221 -3.44977 0.34526 0
M  V30 2969 C 299.282 -4.0476 1.43065 0
M  V30 2970 C 298.515 -5.25291 0.943663 0
M  V30 2971 O 298.738 -5.70004 -0.212426 0
M  V30 2972 O 297.672 -5.76638 1.72547 0
M  V30 2973 H 301.498 -2.45978 1.78125 0
M  V30 2974 H 299.083 -1.17033 0.928631 0
M  V30 2975 H 300.965 -4.21348 0.0663671 0
M  V30 2976 H 299.64 -3.18965 -0.551631 0
M  V30 2977 H 298.547 -3.29949 1.76309 0
M  V30 2978 H 299.88 -4.35035 2.30229 0
M  V30 2979 N 301.532 -0.945985 -1.26051 0
M  V30 2980 C 302.809 -0.513816 -1.88731 0
M  V30 2981 C 303.189 1.00872 -1.8544 0
M  V30 2982 O 302.537 1.8708 -1.312 0
M  V30 2983 C 302.747 -1.08062 -3.31849 0
M  V30 2984 C 304.095 -1.1522 -4.08668 0
M  V30 2985 O 305.119 -1.03155 -3.40936 0
M  V30 2986 O 303.978 -1.34044 -5.29806 0
M  V30 2987 H 301.072 -0.168193 -0.809716 0
M  V30 2988 H 303.618 -1.03886 -1.34186 0
M  V30 2989 H 302.39 -2.1241 -3.2863 0
M  V30 2990 H 302.013 -0.538307 -3.93939 0
M  V30 2991 N 303.011 1.40521 -0.713556 0
M  V30 2992 C 304.288 1.94775 -0.17943 0
M  V30 2993 C 304.668 1.65184 1.31444 0
M  V30 2994 O 304.016 0.968429 2.06963 0
M  V30 2995 C 304.226 3.45543 -0.489986 0
M  V30 2996 C 305.574 4.22442 -0.427536 0
M  V30 2997 O 306.598 3.53644 -0.425929 0
M  V30 2998 O 305.457 5.4501 -0.403292 0
M  V30 2999 H 302.551 0.826606 -0.0255192 0
M  V30 3000 H 305.097 1.5014 -0.790949 0
M  V30 3001 H 303.869 3.60432 -1.5233 0
M  V30 3002 H 303.492 3.97311 0.151598 0
M  V30 3003 N 304.489 0.459591 1.5075 0
M  V30 3004 C 305.419 -0.330644 2.31147 0
M  V30 3005 C 306.4 -1.00087 1.37538 0
M  V30 3006 O 307.585 -1.00025 1.66459 0
M  V30 3007 C 304.715 -1.41958 3.16962 0
M  V30 3008 C 303.669 -0.871608 4.19031 0
M  V30 3009 C 302.995 -2.05797 4.9351 0
M  V30 3010 C 304.295 0.109251 5.22186 0
M  V30 3011 H 305.989 0.340336 2.97459 0
M  V30 3012 H 303.535 0.165119 1.4305 0
M  V30 3013 H 305.488 -1.9798 3.71997 0
M  V30 3014 H 304.212 -2.11917 2.48513 0
M  V30 3015 H 302.871 -0.333442 3.6508 0
M  V30 3016 H 302.519 -2.74427 4.21544 0
M  V30 3017 H 302.219 -1.6976 5.62544 0
M  V30 3018 H 303.743 -2.62331 5.51375 0
M  V30 3019 H 305.157 -0.361405 5.7216 0
M  V30 3020 H 303.554 0.383316 5.98875 0
M  V30 3021 H 304.624 1.03887 4.73641 0
M  V30 3022 N 305.967 -1.56429 0.191757 0
M  V30 3023 C 307.215 -1.97095 -0.447006 0
M  V30 3024 C 307.536 -1.07967 -1.62383 0
M  V30 3025 O 306.806 -0.150248 -1.95323 0
M  V30 3026 H 305.386 -0.727832 -0.168135 0
M  V30 3027 H 308.048 -1.92911 0.27771 0
M  V30 3028 H 307.144 -3.01848 -0.793371 0
M  V30 3029 N 307.445 0.0818655 -1.57387 0
M  V30 3030 C 308.861 0.436412 -1.53517 0
M  V30 3031 C 309.061 1.79758 -0.910459 0
M  V30 3032 O 308.117 2.47324 -0.508636 0
M  V30 3033 C 309.43 0.386734 -2.98203 0
M  V30 3034 C 310.978 0.467644 -3.09487 0
M  V30 3035 C 311.453 0.447978 -4.55804 0
M  V30 3036 N 312.944 0.508348 -4.60402 0
M  V30 3037 C 313.679 0.515184 -5.71081 0
M  V30 3038 N 313.175 0.477435 -6.91153 0
M  V30 3039 N 314.968 0.560988 -5.59294 0
M  V30 3040 H 307.119 -0.809546 -1.96367 0
M  V30 3041 H 309.382 -0.302733 -0.898363 0
M  V30 3042 H 309.088 -0.546539 -3.47427 0
M  V30 3043 H 308.962 1.20075 -3.57578 0
M  V30 3044 H 311.349 1.39134 -2.60242 0
M  V30 3045 H 311.43 -0.374753 -2.5304 0
M  V30 3046 H 311.074 -0.471826 -5.05704 0
M  V30 3047 H 311.004 1.30777 -5.10103 0
M  V30 3048 H 313.495 0.54218 -3.7399 0
M  V30 3049 H 313.808 0.486299 -7.71268 0
M  V30 3050 H 312.153 0.444278 -6.93579 0
M  V30 3051 H 315.344 0.5881 -4.64391 0
M  V30 3052 H 315.517 0.562846 -6.45551 0
M  V30 3053 N 308.923 1.53595 0.353017 0
M  V30 3054 C 310.171 1.70049 1.09215 0
M  V30 3055 C 310.492 0.461406 1.89463 0
M  V30 3056 O 309.762 -0.524633 1.88744 0
M  V30 3057 H 308.342 0.626912 0.40619 0
M  V30 3058 H 311.004 1.90822 0.396585 0
M  V30 3059 H 310.1 2.56718 1.77488 0
M  V30 3060 N 310.401 -0.613514 1.45168 0
M  V30 3061 C 311.649 -1.36997 1.48581 0
M  V30 3062 C 311.97 -1.94589 0.126545 0
M  V30 3063 O 311.24 -1.76816 -0.843372 0
M  V30 3064 H 309.82 -0.508558 0.547154 0
M  V30 3065 H 312.482 -0.720853 1.81079 0
M  V30 3066 H 311.578 -2.1924 2.22127 0
M  V30 3067 N 311.879 -1.3236 -0.855495 0
M  V30 3068 C 312.829 -1.17809 -1.95205 0
M  V30 3069 C 313.813 -0.0852319 -1.60674 0
M  V30 3070 O 315.005 -0.311651 -1.74235 0
M  V30 3071 C 312.134 -0.902437 -3.31226 0
M  V30 3072 C 311.22 -2.03695 -3.7198 0
M  V30 3073 N 311.611 -3.28544 -3.84568 0
M  V30 3074 C 309.909 -1.93993 -4.016 0
M  V30 3075 C 310.61 -4.02847 -4.19629 0
M  V30 3076 N 309.586 -3.31138 -4.31102 0
M  V30 3077 H 313.388 -2.12462 -2.0307 0
M  V30 3078 H 310.902 -1.24127 -1.0472 0
M  V30 3079 H 312.899 -0.77915 -4.09554 0
M  V30 3080 H 311.559 0.0357267 -3.2468 0
M  V30 3081 H 312.57 -3.6349 -3.68911 0
M  V30 3082 H 309.247 -1.07733 -4.03361 0
M  V30 3083 H 310.637 -5.10506 -4.36845 0
M  V30 3084 N 313.357 1.07166 -1.15556 0
M  V30 3085 C 314.768 1.6127 -0.940693 0
M  V30 3086 C 315.119 1.89251 0.517551 0
M  V30 3087 O 314.244 1.65937 1.38903 0
M  V30 3088 C 314.839 2.92993 -1.7012 0
M  V30 3089 C 313.398 3.43832 -1.53156 0
M  V30 3090 C 312.545 2.1786 -1.71558 0
M  V30 3091 H 315.496 0.90229 -1.30554 0
M  V30 3092 H 315.517 3.62007 -1.17181 0
M  V30 3093 H 315.029 2.72596 -2.76248 0
M  V30 3094 H 313.13 3.69307 -0.494294 0
M  V30 3095 H 313.243 4.19747 -2.30975 0
M  V30 3096 H 311.607 2.2765 -1.14225 0
M  V30 3097 H 312.39 1.99956 -2.79056 0
M  V30 3098 N 314.835 0.952656 1.25548 0
M  V30 3099 C 315.765 0.489287 2.28316 0
M  V30 3100 C 316.746 -0.463359 1.63667 0
M  V30 3101 O 317.931 -0.36274 1.90782 0
M  V30 3102 C 315.061 -0.235603 3.465 0
M  V30 3103 C 314.015 0.631593 4.23314 0
M  V30 3104 C 313.341 -0.223923 5.34231 0
M  V30 3105 C 314.641 1.90871 4.86174 0
M  V30 3106 H 316.335 1.34822 2.67326 0
M  V30 3107 H 313.881 0.649728 1.28509 0
M  V30 3108 H 315.834 -0.570882 4.17515 0
M  V30 3109 H 314.558 -1.12877 3.06474 0
M  V30 3110 H 313.217 0.949929 3.54079 0
M  V30 3111 H 312.865 -1.11678 4.90446 0
M  V30 3112 H 312.565 0.35299 5.86539 0
M  V30 3113 H 314.089 -0.554214 6.0808 0
M  V30 3114 H 315.503 1.63997 5.49343 0
M  V30 3115 H 313.9 2.43112 5.4865 0
M  V30 3116 H 314.97 2.61304 4.08471 0
M  V30 3117 N 316.313 -1.40141 0.720998 0
M  V30 3118 C 317.538 -2.05618 0.271258 0
M  V30 3119 C 317.963 -1.53978 -1.08039 0
M  V30 3120 O 317.321 -0.677463 -1.68167 0
M  V30 3121 C 317.369 -3.59609 0.267197 0
M  V30 3122 O 316.473 -4.05526 -0.749814 0
M  V30 3123 H 315.814 -0.651904 0.126162 0
M  V30 3124 H 318.344 -1.79439 0.982997 0
M  V30 3125 H 318.354 -4.0786 0.106744 0
M  V30 3126 H 317.029 -3.96559 1.25354 0
M  V30 3127 H 315.606 -3.68722 -0.556644 0
M  V30 3128 N 317.792 -0.46758 -1.50504 0
M  V30 3129 C 318.739 0.328413 -2.28452 0
M  V30 3130 C 319.709 0.990313 -1.33349 0
M  V30 3131 O 320.894 1.00343 -1.62284 0
M  V30 3132 C 318.034 1.40648 -3.15138 0
M  V30 3133 C 317.147 0.759709 -4.25267 0
M  V30 3134 C 316.282 1.81537 -4.99217 0
M  V30 3135 C 315.321 1.14866 -6.01226 0
M  V30 3136 N 314.458 2.14702 -6.68467 0
M  V30 3137 H 319.298 -0.342603 -2.96024 0
M  V30 3138 H 316.835 -0.180801 -1.45985 0
M  V30 3139 H 318.793 2.04315 -3.63746 0
M  V30 3140 H 317.423 2.04671 -2.49619 0
M  V30 3141 H 316.475 0.0105671 -3.80399 0
M  V30 3142 H 317.787 0.233243 -4.98254 0
M  V30 3143 H 316.941 2.52793 -5.51526 0
M  V30 3144 H 315.68 2.37564 -4.25928 0
M  V30 3145 H 314.685 0.42171 -5.4818 0
M  V30 3146 H 315.91 0.595334 -6.76485 0
M  V30 3147 H 313.856 2.69752 -5.97972 0
M  V30 3148 H 313.773 1.6703 -7.37317 0
M  V30 3149 H 315.041 2.85348 -7.25394 0
M  V30 3150 N 319.27 1.56325 -0.20005 0
M  V30 3151 C 320.519 1.96895 0.437652 0
M  V30 3152 C 320.832 1.08999 1.62415 0
M  V30 3153 O 322.038 1.39372 2.32997 0
M  V30 3154 C 320.494 3.50198 0.830025 0
M  V30 3155 C 320.102 4.46765 -0.332461 0
M  V30 3156 C 321.846 3.99526 1.43453 0
M  V30 3157 C 319.753 5.91344 0.0811468 0
M  V30 3158 H 318.683 0.735209 0.167282 0
M  V30 3159 H 321.334 1.81148 -0.292853 0
M  V30 3160 H 319.716 3.61467 1.61734 0
M  V30 3161 H 320.89 4.47231 -1.11 0
M  V30 3162 H 319.205 4.07657 -0.848789 0
M  V30 3163 H 321.802 5.05025 1.75652 0
M  V30 3164 H 322.145 3.44122 2.34277 0
M  V30 3165 H 322.678 3.91393 0.71109 0
M  V30 3166 H 319.417 6.50685 -0.793033 0
M  V30 3167 H 318.937 5.94121 0.823445 0
M  V30 3168 H 320.616 6.44945 0.515252 0
M  V30 3169 N 320.748 -0.0735177 1.57428 0
M  V30 3170 C 321.976 -0.785969 1.9139 0
M  V30 3171 C 322.391 -1.71207 0.795847 0
M  V30 3172 O 321.748 -1.81033 -0.230915 0
M  V30 3173 C 321.799 -1.58107 3.25091 0
M  V30 3174 O 321.52 -0.6922 4.32597 0
M  V30 3175 C 323.021 -2.39467 3.73055 0
M  V30 3176 H 320.241 -0.223558 0.632663 0
M  V30 3177 H 322.785 -0.044302 2.04452 0
M  V30 3178 H 320.94 -2.27503 3.13562 0
M  V30 3179 H 321.354 -1.24504 5.09508 0
M  V30 3180 H 322.828 -2.90716 4.69242 0
M  V30 3181 H 323.305 -3.18913 3.01979 0
M  V30 3182 H 323.911 -1.7523 3.87523 0
M  V30 3183 N 322.226 -1.5378 -0.344866 0
M  V30 3184 C 323.474 -1.70625 -1.08311 0
M  V30 3185 C 323.795 -0.471447 -1.89215 0
M  V30 3186 O 323.065 0.514616 -1.8902 0
M  V30 3187 H 321.645 -0.629058 -0.402859 0
M  V30 3188 H 324.307 -1.9103 -0.386459 0
M  V30 3189 H 323.403 -2.57656 -1.76124 0
M  V30 3190 N 323.704 0.605807 -1.45491 0
M  V30 3191 C 324.652 1.73754 -1.54636 0
M  V30 3192 C 325.646 1.64207 -0.416219 0
M  V30 3193 O 326.852 1.69979 -0.592199 0
M  V30 3194 H 323.227 0.574073 -0.485741 0
M  V30 3195 H 325.198 1.63169 -2.49837 0
M  V30 3196 C 323.947 3.12135 -1.53189 0
M  V30 3197 H 323.27 3.20141 -2.39478 0
M  V30 3198 H 324.71 3.91147 -1.63645 0
M  V30 3199 C 323.169 3.35921 -0.256616 0
M  V30 3200 O 323.699 3.96194 0.662798 0
M  V30 3201 N 321.905 2.90204 -0.151751 0
M  V30 3202 H 321.452 2.41336 -0.90081 0
M  V30 3203 H 321.41 3.06492 0.700699 0
M  V30 3204 N 325.182 1.32811 0.848464 0
M  V30 3205 C 326.407 1.26882 1.6406 0
M  V30 3206 C 326.832 -0.15913 1.87426 0
M  V30 3207 O 326.19 -1.11258 1.43148 0
M  V30 3208 C 326.238 2.03997 2.97351 0
M  V30 3209 O 325.342 1.39201 3.88197 0
M  V30 3210 H 324.683 0.436982 0.499943 0
M  V30 3211 H 327.213 1.75224 1.0563 0
M  V30 3212 H 327.223 2.14403 3.47124 0
M  V30 3213 H 325.898 3.0783 2.79666 0
M  V30 3214 H 324.475 1.37381 3.46671 0
M  V30 3215 N 326.66 -1.06551 1.16123 0
M  V30 3216 C 327.908 -1.78947 0.939267 0
M  V30 3217 C 328.229 -1.87532 -0.534476 0
M  V30 3218 O 327.499 -1.38211 -1.38833 0
M  V30 3219 H 326.079 -0.662807 0.344523 0
M  V30 3220 H 328.741 -1.28725 1.46342 0
M  V30 3221 H 327.837 -2.81117 1.35572 0
M  V30 3222 N 328.138 -0.959301 -1.25041 0
M  V30 3223 C 329.048 -0.489994 -2.29426 0
M  V30 3224 C 330.064 0.444944 -1.68215 0
M  V30 3225 O 331.24 0.320046 -1.98841 0
M  V30 3226 C 328.305 0.220309 -3.45999 0
M  V30 3227 C 327.366 -0.753418 -4.22637 0
M  V30 3228 C 326.599 -0.076918 -5.33645 0
M  V30 3229 O 326.822 1.13649 -5.58963 0
M  V30 3230 O 325.756 -0.764824 -5.97021 0
M  V30 3231 H 329.582 -1.35755 -2.71669 0
M  V30 3232 H 327.167 -0.725961 -1.30576 0
M  V30 3233 H 329.049 0.619677 -4.16819 0
M  V30 3234 H 327.724 1.06296 -3.0575 0
M  V30 3235 H 326.631 -1.20308 -3.54227 0
M  V30 3236 H 327.964 -1.56423 -4.66683 0
M  V30 3237 N 329.616 1.39756 -0.72842 0
M  V30 3238 C 331.032 1.5442 -0.403308 0
M  V30 3239 C 331.232 1.69694 1.08656 0
M  V30 3240 O 330.288 1.69373 1.87267 0
M  V30 3241 C 331.601 2.76555 -1.18058 0
M  V30 3242 C 333.149 2.90384 -1.16815 0
M  V30 3243 C 333.624 4.15449 -1.92785 0
M  V30 3244 N 335.115 4.22475 -1.89918 0
M  V30 3245 C 335.85 5.1818 -2.45514 0
M  V30 3246 N 335.346 6.19714 -3.09719 0
M  V30 3247 N 337.139 5.1035 -2.35584 0
M  V30 3248 H 329.29 1.28089 -1.69431 0
M  V30 3249 H 331.553 0.620327 -0.716867 0
M  V30 3250 H 331.259 2.7159 -2.23455 0
M  V30 3251 H 331.133 3.69033 -0.780662 0
M  V30 3252 H 333.52 2.94846 -0.12234 0
M  V30 3253 H 333.601 1.98988 -1.6074 0
M  V30 3254 H 333.245 4.11749 -2.97364 0
M  V30 3255 H 333.175 5.05877 -1.46272 0
M  V30 3256 H 335.666 3.49743 -1.43138 0
M  V30 3257 H 335.979 6.8919 -3.49625 0
M  V30 3258 H 334.324 6.20121 -3.13807 0
M  V30 3259 H 337.515 4.2996 -1.85072 0
M  V30 3260 H 337.688 5.84761 -2.79211 0
M  V30 3261 N 331.094 0.475555 1.50254 0
M  V30 3262 C 332.024 -0.30611 2.31485 0
M  V30 3263 C 333.005 -0.986228 1.38591 0
M  V30 3264 O 334.19 -0.982541 1.67511 0
M  V30 3265 C 331.32 -1.38588 3.1845 0
M  V30 3266 C 330.274 -0.827115 4.19932 0
M  V30 3267 C 329.6 -2.00551 4.95665 0
M  V30 3268 C 330.9 0.16463 5.2204 0
M  V30 3269 H 332.594 0.371866 2.97082 0
M  V30 3270 H 330.14 0.180282 1.42867 0
M  V30 3271 H 332.093 -1.94023 3.74076 0
M  V30 3272 H 330.817 -2.09269 2.50747 0
M  V30 3273 H 329.476 -0.294702 3.65414 0
M  V30 3274 H 329.124 -2.6994 4.2443 0
M  V30 3275 H 328.824 -1.63784 5.64313 0
M  V30 3276 H 330.348 -2.56468 5.54127 0
M  V30 3277 H 331.762 -0.300699 5.72511 0
M  V30 3278 H 330.159 0.446813 5.98434 0
M  V30 3279 H 331.229 1.08905 4.72512 0
M  V30 3280 N 332.573 -1.56217 0.208337 0
M  V30 3281 C 333.536 -2.18455 -0.693557 0
M  V30 3282 C 334.536 -1.14268 -1.13135 0
M  V30 3283 O 335.726 -1.39577 -1.0423 0
M  V30 3284 C 332.858 -2.79727 -1.94848 0
M  V30 3285 H 334.051 -2.99519 -0.15114 0
M  V30 3286 H 331.604 -1.56245 -0.041287 0
M  V30 3287 H 332.339 -2.02497 -2.53309 0
M  V30 3288 H 332.124 -3.56009 -1.64316 0
M  V30 3289 H 333.614 -3.27475 -2.59133 0
M  V30 3290 N 334.051 0.0651679 -1.57465 0
M  V30 3291 C 335.291 0.768329 -1.8941 0
M  V30 3292 C 335.655 1.74406 -0.802894 0
M  V30 3293 O 336.856 2.49281 -1.0056 0
M  V30 3294 C 335.127 1.45199 -3.26576 0
M  V30 3295 S 336.686 2.1893 -3.80283 0
M  V30 3296 H 333.504 0.255359 -0.663561 0
M  V30 3297 H 336.106 0.024167 -1.95485 0
M  V30 3298 H 334.81 0.728123 -4.03889 0
M  V30 3299 H 334.341 2.23545 -3.23715 0
M  V30 3300 H 336.356 3.45551 -3.56102 0
M  V30 3301 N 335.529 1.53961 0.336706 0
M  V30 3302 C 336.777 1.71197 1.07405 0
M  V30 3303 C 337.098 0.481475 1.88962 0
M  V30 3304 O 336.368 -0.504585 1.8929 0
M  V30 3305 H 334.948 0.631185 0.399517 0
M  V30 3306 H 337.61 1.91232 0.376323 0
M  V30 3307 H 336.706 2.58587 1.74755 0
M  V30 3308 N 337.007 -0.598083 1.45811 0
M  V30 3309 C 338.256 -1.35295 1.49594 0
M  V30 3310 C 338.569 -1.95057 0.145679 0
M  V30 3311 O 339.775 -2.71431 0.0612099 0
M  V30 3312 C 338.231 -2.45124 2.63519 0
M  V30 3313 C 337.839 -1.91732 4.04899 0
M  V30 3314 C 339.583 -3.2205 2.76558 0
M  V30 3315 C 337.49 -2.991 5.1019 0
M  V30 3316 H 336.42 -0.508552 0.556679 0
M  V30 3317 H 339.071 -0.639977 1.71978 0
M  V30 3318 H 337.453 -3.19149 2.34435 0
M  V30 3319 H 338.627 -1.24352 4.43704 0
M  V30 3320 H 336.942 -1.27522 3.96393 0
M  V30 3321 H 339.539 -4.0215 3.52391 0
M  V30 3322 H 339.882 -3.73663 1.83526 0
M  V30 3323 H 340.415 -2.55127 3.05213 0
M  V30 3324 H 337.154 -2.52393 6.04961 0
M  V30 3325 H 336.674 -3.65017 4.75944 0
M  V30 3326 H 338.353 -3.63318 5.35359 0
M  V30 3327 N 338.485 -1.33259 -0.841409 0
M  V30 3328 C 339.734 -1.23921 -1.59143 0
M  V30 3329 C 340.047 0.1941 -1.94635 0
M  V30 3330 O 341.253 0.409474 -2.68394 0
M  V30 3331 C 339.709 -2.17119 -2.87032 0
M  V30 3332 C 339.317 -3.65606 -2.58914 0
M  V30 3333 C 341.061 -2.16648 -3.65053 0
M  V30 3334 C 338.968 -4.50726 -3.82884 0
M  V30 3335 H 337.898 -0.460264 -0.597221 0
M  V30 3336 H 340.549 -1.58307 -0.927959 0
M  V30 3337 H 338.931 -1.75663 -3.54906 0
M  V30 3338 H 340.105 -4.15487 -1.99267 0
M  V30 3339 H 338.42 -3.68341 -1.942 0
M  V30 3340 H 341.017 -2.77474 -4.57069 0
M  V30 3341 H 341.36 -1.16088 -3.99787 0
M  V30 3342 H 341.893 -2.56453 -3.041 0
M  V30 3343 H 338.632 -5.52151 -3.53283 0
M  V30 3344 H 338.152 -4.0559 -4.41879 0
M  V30 3345 H 339.831 -4.64401 -4.50489 0
M  V30 3346 N 339.963 1.05934 -1.16686 0
M  V30 3347 C 340.926 2.11669 -0.879144 0
M  V30 3348 C 341.926 1.60294 0.127445 0
M  V30 3349 O 343.116 1.7389 -0.103865 0
M  V30 3350 C 340.248 3.39438 -0.315425 0
M  V30 3351 H 341.441 2.38626 -1.81653 0
M  V30 3352 H 338.994 1.22058 -0.976299 0
M  V30 3353 H 339.729 3.18132 0.629468 0
M  V30 3354 H 339.514 3.78034 -1.04079 0
M  V30 3355 H 341.004 4.17391 -0.132189 0
M  V30 3356 N 341.441 0.965919 1.2453 0
M  V30 3357 C 342.857 0.67216 1.44756 0
M  V30 3358 C 343.057 -0.766609 1.86347 0
M  V30 3359 O 342.113 -1.5407 2.00047 0
M  V30 3360 C 343.426 1.65473 2.51076 0
M  V30 3361 C 344.974 1.66716 2.64905 0
M  V30 3362 C 345.449 2.63766 3.74421 0
M  V30 3363 N 346.94 2.62198 3.81846 0
M  V30 3364 C 347.675 3.33966 4.66106 0
M  V30 3365 N 347.171 4.15245 5.54566 0
M  V30 3366 N 348.964 3.22799 4.60171 0
M  V30 3367 H 341.115 1.89553 0.958293 0
M  V30 3368 H 343.378 0.815979 0.482579 0
M  V30 3369 H 343.084 2.68296 2.27399 0
M  V30 3370 H 342.958 1.4261 3.49202 0
M  V30 3371 H 345.345 0.646057 2.87941 0
M  V30 3372 H 345.426 1.93642 1.67142 0
M  V30 3373 H 345.07 3.6601 3.52135 0
M  V30 3374 H 345 2.34121 4.71694 0
M  V30 3375 H 347.491 2.032 3.18619 0
M  V30 3376 H 347.804 4.66898 6.15814 0
M  V30 3377 H 346.149 4.1934 5.54237 0
M  V30 3378 H 349.34 2.58764 3.90075 0
M  V30 3379 H 349.513 3.78994 5.25612 0
M  V30 3380 N 342.919 -1.39368 0.735821 0
M  V30 3381 C 344.144 -2.05319 0.293052 0
M  V30 3382 C 344.569 -1.55115 -1.064 0
M  V30 3383 O 343.927 -0.695261 -1.67439 0
M  V30 3384 C 343.975 -3.59305 0.305323 0
M  V30 3385 O 343.079 -4.06299 -0.706761 0
M  V30 3386 H 342.42 -0.650529 0.13307 0
M  V30 3387 H 344.95 -1.78386 1.00197 0
M  V30 3388 H 344.96 -4.07724 0.149997 0
M  V30 3389 H 343.635 -3.95207 1.29553 0
M  V30 3390 H 342.212 -3.69292 -0.517504 0
M  V30 3391 N 344.397 -0.483516 -1.5 0
M  V30 3392 C 345.36 0.292965 -2.2732 0
M  V30 3393 C 346.36 0.909499 -1.32608 0
M  V30 3394 O 347.55 0.776745 -1.55924 0
M  V30 3395 C 344.682 1.41854 -3.09984 0
M  V30 3396 H 345.875 -0.385289 -2.97415 0
M  V30 3397 H 343.428 -0.237942 -1.54478 0
M  V30 3398 H 344.163 2.13148 -2.44414 0
M  V30 3399 H 343.948 0.982114 -3.79601 0
M  V30 3400 H 345.438 1.96597 -3.68429 0
M  V30 3401 N 345.875 1.56104 -0.216619 0
M  V30 3402 C 347.123 1.97781 0.415593 0
M  V30 3403 C 347.444 1.10536 1.60645 0
M  V30 3404 O 346.714 0.181303 1.95059 0
M  V30 3405 H 345.294 0.730415 0.156534 0
M  V30 3406 H 347.956 1.92445 -0.308366 0
M  V30 3407 H 347.052 3.03072 0.74525 0
M  V30 3408 N 347.353 -0.0568162 1.57498 0
M  V30 3409 C 348.283 -1.06593 2.0775 0
M  V30 3410 C 349.264 -1.39448 0.974082 0
M  V30 3411 O 350.449 -1.48815 1.24771 0
M  V30 3412 C 347.579 -2.37509 2.5339 0
M  V30 3413 C 346.533 -2.1897 3.67745 0
M  V30 3414 C 345.859 -3.55402 3.99492 0
M  V30 3415 C 347.159 -1.59859 4.97235 0
M  V30 3416 H 348.853 -0.647706 2.9231 0
M  V30 3417 H 346.399 -0.310116 1.40621 0
M  V30 3418 H 348.352 -3.08409 2.87162 0
M  V30 3419 H 347.076 -2.8134 1.65878 0
M  V30 3420 H 345.735 -1.50508 3.3428 0
M  V30 3421 H 345.383 -3.9683 3.09088 0
M  V30 3422 H 345.083 -3.43831 4.76502 0
M  V30 3423 H 346.607 -4.27708 4.35773 0
M  V30 3424 H 348.021 -2.20642 5.29141 0
M  V30 3425 H 346.418 -1.58942 5.78669 0
M  V30 3426 H 347.488 -0.561506 4.81638 0
M  V30 3427 N 348.832 -1.54138 -0.328536 0
M  V30 3428 C 350.079 -1.72105 -1.06706 0
M  V30 3429 C 350.407 -0.492111 -1.88171 0
M  V30 3430 O 349.662 0.526153 -1.88494 0
M  V30 3431 C 349.961 -2.9457 -2.02393 0
M  V30 3432 C 349.627 -4.29544 -1.37122 0
M  V30 3433 C 348.289 -4.6624 -1.19052 0
M  V30 3434 C 350.641 -5.1333 -0.902331 0
M  V30 3435 C 347.969 -5.84325 -0.527331 0
M  V30 3436 C 350.321 -6.32094 -0.252988 0
M  V30 3437 C 348.985 -6.67473 -0.0600901 0
M  V30 3438 H 348.255 -0.629775 -0.390466 0
M  V30 3439 H 350.902 -1.88372 -0.34473 0
M  V30 3440 H 349.207 -2.72969 -2.81061 0
M  V30 3441 H 350.904 -3.05665 -2.59557 0
M  V30 3442 H 347.494 -4.0067 -1.52188 0
M  V30 3443 H 351.678 -4.855 -1.02974 0
M  V30 3444 H 346.934 -6.103 -0.366634 0
M  V30 3445 H 351.108 -6.96299 0.118366 0
M  V30 3446 H 348.735 -7.58832 0.455828 0
M  V30 3447 N 350.31 0.590341 -1.46126 0
M  V30 3448 C 351.242 1.71427 -1.52136 0
M  V30 3449 C 352.255 1.57542 -0.41042 0
M  V30 3450 O 353.444 1.65106 -0.678389 0
M  V30 3451 C 350.544 3.09605 -1.37834 0
M  V30 3452 C 349.717 3.49566 -2.62912 0
M  V30 3453 C 348.776 4.66773 -2.42918 0
M  V30 3454 O 347.802 4.73019 -3.1661 0
M  V30 3455 N 349.004 5.61161 -1.4859 0
M  V30 3456 H 351.769 1.66728 -2.49042 0
M  V30 3457 H 349.33 0.776113 -1.42085 0
M  V30 3458 H 351.322 3.85796 -1.22243 0
M  V30 3459 H 349.892 3.08714 -0.491393 0
M  V30 3460 H 349.112 2.63158 -2.93499 0
M  V30 3461 H 350.4 3.73028 -3.46017 0
M  V30 3462 H 349.798 5.58844 -0.87808 0
M  V30 3463 H 348.355 6.36814 -1.38965 0
M  V30 3464 N 351.788 1.33704 0.83433 0
M  V30 3465 C 352.736 1.24323 1.96587 0
M  V30 3466 C 353.73 0.143659 1.6879 0
M  V30 3467 O 354.936 0.30791 1.77347 0
M  V30 3468 H 351.311 0.385925 0.645419 0
M  V30 3469 H 353.282 2.19978 2.01624 0
M  V30 3470 C 352.031 1.00394 3.32891 0
M  V30 3471 H 351.354 1.84231 3.54822 0
M  V30 3472 H 352.794 0.97862 4.12552 0
M  V30 3473 C 351.253 -0.293047 3.35623 0
M  V30 3474 O 351.783 -1.29823 3.80143 0
M  V30 3475 N 349.989 -0.322174 2.88809 0
M  V30 3476 H 349.536 0.496379 2.52772 0
M  V30 3477 H 349.494 -1.18977 2.91019 0
M  V30 3478 N 353.266 -1.05314 1.17247 0
M  V30 3479 C 354.677 -1.59753 0.96623 0
M  V30 3480 C 355.028 -1.9005 -0.487378 0
M  V30 3481 O 354.153 -1.68126 -1.36245 0
M  V30 3482 C 354.748 -2.90249 1.74759 0
M  V30 3483 C 353.307 -3.41352 1.58606 0
M  V30 3484 C 352.454 -2.15103 1.75002 0
M  V30 3485 H 355.405 -0.881406 1.31973 0
M  V30 3486 H 355.426 -3.60097 1.22925 0
M  V30 3487 H 354.938 -2.68166 2.8055 0
M  V30 3488 H 353.039 -3.68474 0.552985 0
M  V30 3489 H 353.152 -4.16019 2.37624 0
M  V30 3490 H 351.516 -2.25804 1.17833 0
M  V30 3491 H 352.299 -1.95491 2.82202 0
M  V30 3492 N 354.744 -0.972509 -1.24016 0
M  V30 3493 C 355.691 -0.505969 -2.25186 0
M  V30 3494 C 356.661 0.451009 -1.5986 0
M  V30 3495 O 357.846 0.360307 -1.87367 0
M  V30 3496 C 354.986 0.193089 -3.44559 0
M  V30 3497 C 354.099 -0.803222 -4.24467 0
M  V30 3498 C 353.234 -0.0797793 -5.3114 0
M  V30 3499 C 352.273 -1.06583 -6.02749 0
M  V30 3500 N 351.41 -0.372074 -7.01113 0
M  V30 3501 H 356.25 -1.37351 -2.64459 0
M  V30 3502 H 353.787 -0.688419 -1.29997 0
M  V30 3503 H 355.745 0.615125 -4.1264 0
M  V30 3504 H 354.375 1.02455 -3.06109 0
M  V30 3505 H 353.427 -1.34368 -3.55878 0
M  V30 3506 H 354.739 -1.55494 -4.73944 0
M  V30 3507 H 353.893 0.400015 -6.0538 0
M  V30 3508 H 352.632 0.704597 -4.82583 0
M  V30 3509 H 351.637 -1.55645 -5.27309 0
M  V30 3510 H 352.862 -1.85074 -6.53395 0
M  V30 3511 H 350.808 0.393238 -6.5482 0
M  V30 3512 H 350.725 -1.06258 -7.48495 0
M  V30 3513 H 351.993 0.0855932 -7.79453 0
M  V30 3514 N 356.222 1.38976 -0.743202 0
M  V30 3515 C 357.154 2.29096 -0.0689228 0
M  V30 3516 C 358.167 1.47229 0.694791 0
M  V30 3517 O 359.356 1.70212 0.537597 0
M  V30 3518 C 356.456 3.25988 0.926548 0
M  V30 3519 C 355.629 4.36833 0.222647 0
M  V30 3520 C 354.688 5.13981 1.12739 0
M  V30 3521 O 353.714 5.6601 0.601795 0
M  V30 3522 N 354.916 5.25966 2.45641 0
M  V30 3523 H 357.681 2.87604 -0.842846 0
M  V30 3524 H 355.242 1.50645 -0.593109 0
M  V30 3525 H 357.234 3.74476 1.5346 0
M  V30 3526 H 355.804 2.68453 1.60162 0
M  V30 3527 H 355.024 3.90116 -0.565983 0
M  V30 3528 H 356.312 5.0811 -0.264841 0
M  V30 3529 H 355.71 4.85228 2.9081 0
M  V30 3530 H 354.267 5.77865 3.01522 0
M  V30 3531 N 357.7 0.491464 1.49741 0
M  V30 3532 C 358.949 -0.0582189 2.01616 0
M  V30 3533 C 359.262 -1.38927 1.3769 0
M  V30 3534 O 360.468 -2.02509 1.80838 0
M  V30 3535 C 358.924 -0.154235 3.59569 0
M  V30 3536 C 358.532 1.1696 4.32463 0
M  V30 3537 C 360.276 -0.65479 4.1942 0
M  V30 3538 C 358.183 1.03627 5.8225 0
M  V30 3539 H 357.113 -0.0255317 0.753568 0
M  V30 3540 H 359.764 0.629445 1.72367 0
M  V30 3541 H 358.146 -0.906138 3.85493 0
M  V30 3542 H 359.32 1.93405 4.18248 0
M  V30 3543 H 357.635 1.60285 3.84315 0
M  V30 3544 H 360.232 -0.771903 5.29099 0
M  V30 3545 H 360.575 -1.65127 3.8215 0
M  V30 3546 H 361.108 0.040304 3.9778 0
M  V30 3547 H 357.847 2.00672 6.24028 0
M  V30 3548 H 357.367 0.312546 5.98985 0
M  V30 3549 H 359.046 0.711114 6.4308 0
M  V30 3550 N 359.178 -1.55987 0.224894 0
M  V30 3551 C 360.418 -2.00293 -0.407706 0
M  V30 3552 C 360.782 -1.1093 -1.56711 0
M  V30 3553 O 361.983 -1.44597 -2.26595 0
M  V30 3554 C 360.254 -3.47675 -0.82805 0
M  V30 3555 S 361.813 -4.14 -1.45429 0
M  V30 3556 H 358.631 -0.699152 -0.129256 0
M  V30 3557 H 361.233 -1.92609 0.334967 0
M  V30 3558 H 359.937 -4.10392 0.0253964 0
M  V30 3559 H 359.468 -3.59239 -1.60345 0
M  V30 3560 H 361.483 -4.13465 -2.74337 0
M  V30 3561 N 360.656 0.0484629 -1.57525 0
M  V30 3562 C 361.881 0.759177 -1.93006 0
M  V30 3563 C 362.306 1.69125 -0.823317 0
M  V30 3564 O 361.664 1.79931 0.222364 0
M  V30 3565 C 361.712 1.50899 -3.27509 0
M  V30 3566 O 360.816 2.62112 -3.18388 0
M  V30 3567 H 360.157 0.205564 -0.631379 0
M  V30 3568 H 362.687 0.00972959 -2.04598 0
M  V30 3569 H 362.697 1.88317 -3.6194 0
M  V30 3570 H 361.372 0.825269 -4.0763 0
M  V30 3571 H 359.949 2.27379 -2.95556 0
M  V30 3572 N 362.134 1.5431 0.320358 0
M  V30 3573 C 363.374 1.74395 1.0661 0
M  V30 3574 C 363.738 0.508602 1.85141 0
M  V30 3575 O 364.939 0.586856 2.62316 0
M  V30 3576 C 363.21 2.98619 1.96371 0
M  V30 3577 S 364.769 3.39621 2.77854 0
M  V30 3578 H 361.587 0.613204 0.359863 0
M  V30 3579 H 364.189 1.9249 0.341727 0
M  V30 3580 H 362.893 3.86673 1.3752 0
M  V30 3581 H 362.424 2.83055 2.73209 0
M  V30 3582 H 364.439 2.95172 3.98858 0
M  V30 3583 N 363.613 -0.582584 1.46437 0
M  V30 3584 C 364.89 -1.34276 1.4223 0
M  V30 3585 C 365.27 -2.10835 0.10583 0
M  V30 3586 O 364.618 -2.09485 -0.912596 0
M  V30 3587 C 364.828 -2.26865 2.65204 0
M  V30 3588 C 366.176 -2.88691 3.11356 0
M  V30 3589 O 367.2 -2.37178 2.65753 0
M  V30 3590 O 366.059 -3.82255 3.90568 0
M  V30 3591 H 363.153 -0.603326 0.565621 0
M  V30 3592 H 365.699 -0.603591 1.58603 0
M  V30 3593 H 364.471 -1.69724 3.52576 0
M  V30 3594 H 364.094 -3.08122 2.5129 0
M  V30 3595 N 365.091 -1.34144 -0.827227 0
M  V30 3596 C 366.339 -1.26009 -1.58007 0
M  V30 3597 C 366.66 0.170971 -1.94249 0
M  V30 3598 O 365.93 1.10256 -1.61927 0
M  V30 3599 H 364.51 -0.463414 -0.585881 0
M  V30 3600 H 367.172 -1.68005 -0.987951 0
M  V30 3601 H 366.268 -1.86187 -2.50481 0
M  V30 3602 N 366.569 1.04691 -1.17803 0
M  V30 3603 C 367.499 2.14494 -0.92275 0
M  V30 3604 C 368.48 1.69546 0.137179 0
M  V30 3605 O 369.665 1.94195 -0.0141108 0
M  V30 3606 C 366.795 3.44491 -0.440803 0
M  V30 3607 C 365.749 4.03031 -1.4405 0
M  V30 3608 C 365.075 5.28432 -0.81631 0
M  V30 3609 C 366.375 4.39932 -2.81527 0
M  V30 3610 H 368.069 2.36107 -1.84103 0
M  V30 3611 H 365.615 1.1347 -0.886599 0
M  V30 3612 H 367.568 4.2066 -0.249602 0
M  V30 3613 H 366.292 3.22546 0.513025 0
M  V30 3614 H 364.951 3.28937 -1.61853 0
M  V30 3615 H 364.599 5.02792 0.144511 0
M  V30 3616 H 364.299 5.68559 -1.48371 0
M  V30 3617 H 365.823 6.07284 -0.635496 0
M  V30 3618 H 367.237 5.07113 -2.67412 0
M  V30 3619 H 365.634 4.9109 -3.44892 0
M  V30 3620 H 366.704 3.50045 -3.35554 0
M  V30 3621 N 368.047 0.979072 1.23499 0
M  V30 3622 C 369.275 0.665202 1.95915 0
M  V30 3623 C 369.69 -0.767571 1.72493 0
M  V30 3624 O 369.047 -1.51635 1.01554 0
M  V30 3625 C 369.098 0.944438 3.48945 0
M  V30 3626 O 368.819 2.3209 3.71572 0
M  V30 3627 C 370.32 0.646336 4.38563 0
M  V30 3628 H 367.54 0.247218 0.623798 0
M  V30 3629 H 370.084 1.31009 1.57025 0
M  V30 3630 H 368.239 0.345575 3.85856 0
M  V30 3631 H 368.653 2.40957 4.65876 0
M  V30 3632 H 370.127 0.892091 5.44744 0
M  V30 3633 H 370.604 -0.419575 4.37191 0
M  V30 3634 H 371.21 1.22562 4.07258 0
M  V30 3635 N 369.525 -1.3858 0.750561 0
M  V30 3636 C 370.774 -1.99424 0.302172 0
M  V30 3637 C 371.087 -1.60254 -1.12152 0
M  V30 3638 O 372.293 -2.14046 -1.67023 0
M  V30 3639 C 370.749 -3.56558 0.489307 0
M  V30 3640 C 370.357 -4.04682 1.92189 0
M  V30 3641 C 372.101 -4.24374 0.103478 0
M  V30 3642 C 370.008 -5.54446 2.05775 0
M  V30 3643 H 368.938 -0.746046 0.10923 0
M  V30 3644 H 371.589 -1.58383 0.92667 0
M  V30 3645 H 369.971 -3.95472 -0.204329 0
M  V30 3646 H 371.145 -3.77065 2.64875 0
M  V30 3647 H 369.46 -3.4958 2.26236 0
M  V30 3648 H 372.057 -5.34384 0.183787 0
M  V30 3649 H 372.4 -4.05468 -0.943481 0
M  V30 3650 H 372.933 -3.90688 0.748854 0
M  V30 3651 H 369.672 -5.78252 3.08714 0
M  V30 3652 H 369.192 -5.83816 1.37546 0
M  V30 3653 H 370.871 -6.20099 1.84626 0
M  V30 3654 N 371.003 -0.499398 -1.49478 0
M  V30 3655 C 372.249 0.0377587 -2.03365 0
M  V30 3656 C 372.604 1.3484 -1.37244 0
M  V30 3657 O 371.897 1.85 -0.498547 0
M  V30 3658 C 372.091 0.248424 -3.56536 0
M  V30 3659 C 371.92 -1.04025 -4.37503 0
M  V30 3660 C 370.69 -1.59159 -4.79579 0
M  V30 3661 C 372.888 -1.9431 -4.76181 0
M  V30 3662 N 370.87 -2.82634 -5.44969 0
M  V30 3663 C 372.241 -3.02364 -5.41272 0
M  V30 3664 C 374.296 -1.95008 -4.58123 0
M  V30 3665 C 372.999 -4.1114 -5.90217 0
M  V30 3666 C 375.025 -3.02758 -5.08027 0
M  V30 3667 C 374.387 -4.09531 -5.73118 0
M  V30 3668 H 370.486 -0.026923 -0.781536 0
M  V30 3669 H 373.07 -0.673901 -1.82665 0
M  V30 3670 H 371.241 0.929139 -3.77123 0
M  V30 3671 H 372.973 0.782445 -3.97064 0
M  V30 3672 H 369.728 -1.13696 -4.5975 0
M  V30 3673 H 370.152 -3.45416 -5.82252 0
M  V30 3674 H 374.794 -1.13766 -4.07207 0
M  V30 3675 H 372.512 -4.93181 -6.40155 0
M  V30 3676 H 376.098 -3.04315 -4.95866 0
M  V30 3677 H 374.978 -4.91534 -6.11035 0
M  V30 3678 N 372.481 1.55866 -0.233164 0
M  V30 3679 C 373.391 2.24431 0.683217 0
M  V30 3680 C 374.407 1.2558 1.2044 0
M  V30 3681 O 375.583 1.58422 1.24356 0
M  V30 3682 C 372.648 2.91979 1.86947 0
M  V30 3683 C 371.709 4.06204 1.38912 0
M  V30 3684 C 370.942 4.70522 2.51883 0
M  V30 3685 O 371.165 4.33865 3.70293 0
M  V30 3686 O 370.099 5.59296 2.22423 0
M  V30 3687 H 373.925 3.03426 0.129059 0
M  V30 3688 H 371.51 1.494 -0.0022283 0
M  V30 3689 H 373.392 3.34573 2.56201 0
M  V30 3690 H 372.067 2.15935 2.41151 0
M  V30 3691 H 370.974 3.68155 0.664259 0
M  V30 3692 H 372.307 4.84025 0.893328 0
M  V30 3693 N 373.959 -0.0401083 1.57549 0
M  V30 3694 C 374.869 -1.06133 2.0922 0
M  V30 3695 C 375.885 -1.40356 1.0284 0
M  V30 3696 O 377.061 -1.49897 1.34509 0
M  V30 3697 C 374.126 -2.34658 2.55218 0
M  V30 3698 C 373.187 -2.07117 3.76033 0
M  V30 3699 C 372.42 -3.29514 4.19829 0
M  V30 3700 O 372.643 -4.39794 3.63232 0
M  V30 3701 O 371.577 -3.15863 5.12362 0
M  V30 3702 H 375.403 -0.652244 2.96613 0
M  V30 3703 H 372.988 -0.256368 1.47184 0
M  V30 3704 H 374.87 -3.10239 2.85184 0
M  V30 3705 H 373.545 -2.74883 1.70941 0
M  V30 3706 H 372.452 -1.29139 3.51104 0
M  V30 3707 H 373.785 -1.71754 4.61261 0
M  V30 3708 N 375.437 -1.54477 -0.31217 0
M  V30 3709 C 376.853 -1.45442 -0.657185 0
M  V30 3710 C 377.053 -0.63653 -1.91182 0
M  V30 3711 O 376.109 -0.139815 -2.52113 0
M  V30 3712 C 377.422 -2.89287 -0.82058 0
M  V30 3713 C 378.97 -2.9926 -0.917188 0
M  V30 3714 C 379.445 -4.44279 -1.11267 0
M  V30 3715 N 380.936 -4.4794 -1.17914 0
M  V30 3716 C 381.671 -5.57318 -1.34848 0
M  V30 3717 N 381.167 -6.76642 -1.48752 0
M  V30 3718 N 382.96 -5.44986 -1.37647 0
M  V30 3719 H 375.111 -2.06129 0.512313 0
M  V30 3720 H 377.374 -0.933088 0.167485 0
M  V30 3721 H 377.08 -3.51687 0.0302604 0
M  V30 3722 H 376.954 -3.36061 -1.71298 0
M  V30 3723 H 379.341 -2.36981 -1.75852 0
M  V30 3724 H 379.422 -2.558 -0.00101257 0
M  V30 3725 H 379.066 -5.07149 -0.27614 0
M  V30 3726 H 378.996 -4.85359 -2.04289 0
M  V30 3727 H 381.487 -3.61969 -1.08567 0
M  V30 3728 H 381.8 -7.55758 -1.61397 0
M  V30 3729 H 380.145 -6.79529 -1.45828 0
M  V30 3730 H 383.336 -4.50715 -1.26388 0
M  V30 3731 H 383.509 -6.3028 -1.50501 0
M  V30 3732 N 376.915 0.57481 -1.46744 0
M  V30 3733 C 378.163 1.33009 -1.52161 0
M  V30 3734 C 378.484 1.94185 -0.178092 0
M  V30 3735 O 377.754 1.7899 0.796196 0
M  V30 3736 H 376.334 0.493873 -0.560445 0
M  V30 3737 H 378.996 0.672589 -1.82927 0
M  V30 3738 H 378.092 2.13273 -2.27862 0
M  V30 3739 N 378.394 1.34581 0.820102 0
M  V30 3740 C 379.81 1.14325 1.11364 0
M  V30 3741 C 380.01 -0.0533648 2.01429 0
M  V30 3742 O 379.066 -0.728044 2.41776 0
M  V30 3743 C 380.379 2.43983 1.75764 0
M  V30 3744 C 381.927 2.50065 1.88246 0
M  V30 3745 C 382.402 3.79732 2.56061 0
M  V30 3746 N 383.893 3.80908 2.63558 0
M  V30 3747 C 384.628 4.77961 3.16766 0
M  V30 3748 N 384.124 5.85397 3.70517 0
M  V30 3749 N 385.917 4.65413 3.15194 0
M  V30 3750 H 378.068 2.11246 0.221096 0
M  V30 3751 H 380.331 0.934289 0.160649 0
M  V30 3752 H 380.037 3.31651 1.1705 0
M  V30 3753 H 379.911 2.57531 2.75604 0
M  V30 3754 H 382.298 1.62834 2.46108 0
M  V30 3755 H 382.379 2.40442 0.873006 0
M  V30 3756 H 382.023 4.67354 1.98853 0
M  V30 3757 H 381.953 3.86639 3.57516 0
M  V30 3758 H 384.444 3.03274 2.25463 0
M  V30 3759 H 384.757 6.55463 4.09376 0
M  V30 3760 H 383.102 5.89107 3.68752 0
M  V30 3761 H 386.293 3.80627 2.72471 0
M  V30 3762 H 386.466 5.41216 3.56356 0
M  V30 3763 N 379.872 -1.04064 1.18357 0
M  V30 3764 C 381.283 -1.58719 0.98312 0
M  V30 3765 C 381.634 -1.90556 -0.467193 0
M  V30 3766 O 380.759 -1.69561 -1.34454 0
M  V30 3767 C 381.354 -2.88379 1.77828 0
M  V30 3768 C 379.913 -3.3965 1.62218 0
M  V30 3769 C 379.06 -2.13235 1.77274 0
M  V30 3770 H 382.011 -0.867359 1.32901 0
M  V30 3771 H 382.032 -3.58773 1.26737 0
M  V30 3772 H 381.544 -2.65176 2.83379 0
M  V30 3773 H 379.645 -3.67866 0.592036 0
M  V30 3774 H 379.758 -4.13475 2.42023 0
M  V30 3775 H 378.122 -2.24542 1.20221 0
M  V30 3776 H 378.905 -1.92487 2.8426 0
M  V30 3777 N 381.35 -0.985608 -1.22978 0
M  V30 3778 C 382.599 -0.652881 -1.90841 0
M  V30 3779 C 382.912 0.817842 -1.77681 0
M  V30 3780 O 384.118 1.26185 -2.40395 0
M  V30 3781 C 382.574 -1.11717 -3.42122 0
M  V30 3782 C 382.182 -2.6126 -3.63933 0
M  V30 3783 C 383.926 -0.85843 -4.1573 0
M  V30 3784 C 381.833 -3.0133 -5.08876 0
M  V30 3785 H 380.763 -0.240491 -0.714619 0
M  V30 3786 H 383.414 -1.1942 -1.39324 0
M  V30 3787 H 381.796 -0.504027 -3.92779 0
M  V30 3788 H 382.97 -3.27858 -3.23799 0
M  V30 3789 H 381.285 -2.84937 -3.03644 0
M  V30 3790 H 383.882 -1.13359 -5.22546 0
M  V30 3791 H 384.225 0.205461 -4.15793 0
M  V30 3792 H 384.758 -1.43341 -3.71077 0
M  V30 3793 H 381.497 -4.06864 -5.13947 0
M  V30 3794 H 381.017 -2.3943 -5.49939 0
M  V30 3795 H 382.696 -2.92224 -5.77247 0
M  V30 3796 N 382.828 1.3818 -0.7579 0
M  V30 3797 C 383.791 2.28764 -0.141286 0
M  V30 3798 C 384.791 1.47388 0.642907 0
M  V30 3799 O 385.981 1.67781 0.468536 0
M  V30 3800 C 383.113 3.31184 0.808069 0
M  V30 3801 H 384.306 2.848 -0.939633 0
M  V30 3802 H 381.859 1.47212 -0.525191 0
M  V30 3803 H 382.594 2.80247 1.63193 0
M  V30 3804 H 382.379 3.91314 0.248104 0
M  V30 3805 H 383.869 3.98909 1.23536 0
M  V30 3806 N 384.306 0.507319 1.49211 0
M  V30 3807 C 385.554 -0.0348839 2.0207 0
M  V30 3808 C 385.875 -1.36898 1.38866 0
M  V30 3809 O 385.145 -1.88133 0.546151 0
M  V30 3810 H 383.725 -0.0158812 0.746831 0
M  V30 3811 H 386.387 0.665998 1.83168 0
M  V30 3812 H 385.483 -0.159917 3.1169 0
M  V30 3813 N 385.784 -1.5574 0.241426 0
M  V30 3814 C 386.731 -2.21149 -0.660432 0
M  V30 3815 C 387.701 -1.17356 -1.17545 0
M  V30 3816 O 388.886 -1.45784 -1.23093 0
M  V30 3817 C 386.026 -2.91059 -1.85414 0
M  V30 3818 C 385.139 -4.09495 -1.37616 0
M  V30 3819 C 384.274 -4.67135 -2.529 0
M  V30 3820 C 383.313 -5.77831 -2.01936 0
M  V30 3821 N 382.45 -6.29677 -3.10566 0
M  V30 3822 H 387.29 -2.97845 -0.095955 0
M  V30 3823 H 384.827 -1.47057 -0.0356024 0
M  V30 3824 H 386.785 -3.29788 -2.5553 0
M  V30 3825 H 385.415 -2.16846 -2.39118 0
M  V30 3826 H 384.467 -3.76117 -0.569235 0
M  V30 3827 H 385.779 -4.89423 -0.962618 0
M  V30 3828 H 384.933 -5.08409 -3.31067 0
M  V30 3829 H 383.672 -3.86411 -2.97553 0
M  V30 3830 H 382.677 -5.36039 -1.22238 0
M  V30 3831 H 383.902 -6.60402 -1.58259 0
M  V30 3832 H 381.848 -5.5186 -3.54664 0
M  V30 3833 H 381.765 -7.04783 -2.73526 0
M  V30 3834 H 383.033 -6.75609 -3.88809 0
M  V30 3835 N 387.262 0.0317525 -1.57568 0
M  V30 3836 C 388.51 0.721676 -1.88776 0
M  V30 3837 C 388.831 1.76039 -0.838772 0
M  V30 3838 O 388.101 1.95482 0.127935 0
M  V30 3839 H 386.681 0.269534 -0.696678 0
M  V30 3840 H 389.343 -0.00165879 -1.949 0
M  V30 3841 H 388.439 1.21293 -2.87566 0
M  V30 3842 N 388.74 1.54641 0.303973 0
M  V30 3843 C 390.156 1.45788 0.649463 0
M  V30 3844 C 390.356 0.64666 1.90842 0
M  V30 3845 O 389.412 0.153183 2.52035 0
M  V30 3846 C 390.725 2.89718 0.805227 0
M  V30 3847 C 392.273 2.99742 0.901305 0
M  V30 3848 C 392.748 4.44863 1.08909 0
M  V30 3849 N 394.239 4.48559 1.15536 0
M  V30 3850 C 394.974 5.58026 1.3189 0
M  V30 3851 N 394.47 6.77422 1.45161 0
M  V30 3852 N 396.263 5.45708 1.34755 0
M  V30 3853 H 388.414 2.05854 -0.523237 0
M  V30 3854 H 390.677 0.932186 -0.172431 0
M  V30 3855 H 390.383 3.51666 -0.0489108 0
M  V30 3856 H 390.257 3.36964 1.69513 0
M  V30 3857 H 392.644 2.3791 1.74593 0
M  V30 3858 H 392.725 2.55797 -0.0125531 0
M  V30 3859 H 392.369 5.07288 0.249241 0
M  V30 3860 H 392.299 4.86436 2.01713 0
M  V30 3861 H 394.79 3.6254 1.06646 0
M  V30 3862 H 395.103 7.56604 1.57387 0
M  V30 3863 H 393.448 6.80292 1.42223 0
M  V30 3864 H 396.639 4.51378 1.23996 0
M  V30 3865 H 396.812 6.3107 1.47157 0
M  V30 3866 N 390.218 -0.567019 1.47046 0
M  V30 3867 C 391.165 -1.67489 1.58796 0
M  V30 3868 C 392.135 -1.60399 0.43144 0
M  V30 3869 O 393.32 -1.79378 0.650233 0
M  V30 3870 C 390.46 -3.05821 1.59899 0
M  V30 3871 C 389.573 -3.2342 2.86397 0
M  V30 3872 C 388.708 -4.52093 2.789 0
M  V30 3873 C 387.747 -4.6309 4.00267 0
M  V30 3874 N 386.884 -5.83106 3.91064 0
M  V30 3875 H 391.724 -1.56785 2.53422 0
M  V30 3876 H 389.261 -0.763896 1.2571 0
M  V30 3877 H 391.219 -3.8591 1.58522 0
M  V30 3878 H 389.849 -3.15384 0.687929 0
M  V30 3879 H 388.901 -2.3683 2.97684 0
M  V30 3880 H 390.213 -3.27412 3.76301 0
M  V30 3881 H 389.367 -5.4043 2.75718 0
M  V30 3882 H 388.106 -4.50565 1.86662 0
M  V30 3883 H 387.111 -3.73168 4.03765 0
M  V30 3884 H 388.336 -4.66386 4.93621 0
M  V30 3885 H 386.282 -5.82546 3.01623 0
M  V30 3886 H 386.199 -5.88434 4.74638 0
M  V30 3887 H 387.467 -6.73831 3.91882 0
M  V30 3888 N 391.696 -1.35014 -0.812953 0
M  V30 3889 C 392.606 -1.2951 -1.95613 0
M  V30 3890 C 393.622 -0.20107 -1.72834 0
M  V30 3891 O 394.798 -0.42932 -1.96771 0
M  V30 3892 C 391.863 -1.06033 -3.30088 0
M  V30 3893 C 390.924 -2.24688 -3.65805 0
M  V30 3894 C 390.157 -2.02322 -4.93864 0
M  V30 3895 O 390.38 -0.986464 -5.61805 0
M  V30 3896 O 389.314 -2.89525 -5.27692 0
M  V30 3897 H 393.14 -2.25705 -2.03202 0
M  V30 3898 H 390.725 -1.15321 -0.949811 0
M  V30 3899 H 392.607 -0.94763 -4.10607 0
M  V30 3900 H 391.282 -0.128852 -3.23443 0
M  V30 3901 H 390.189 -2.41521 -2.85689 0
M  V30 3902 H 391.522 -3.16261 -3.77147 0
M  V30 3903 N 393.175 1.03435 -1.18907 0
M  V30 3904 C 394.4 1.80919 -1.01406 0
M  V30 3905 C 394.825 1.83055 0.432721 0
M  V30 3906 O 394.183 1.25252 1.31079 0
M  V30 3907 C 394.231 3.24091 -1.58105 0
M  V30 3908 O 393.335 4.04434 -0.806669 0
M  V30 3909 H 392.676 0.558709 -0.358803 0
M  V30 3910 H 395.206 1.30223 -1.57807 0
M  V30 3911 H 395.216 3.74853 -1.61087 0
M  V30 3912 H 393.891 3.21851 -2.6341 0
M  V30 3913 H 392.468 3.63091 -0.849666 0
M  V30 3914 N 394.653 0.992116 1.22453 0
M  V30 3915 C 395.616 0.546883 2.2258 0
M  V30 3916 C 396.616 -0.369829 1.56489 0
M  V30 3917 O 397.806 -0.161896 1.73446 0
M  V30 3918 C 394.938 -0.204659 3.40285 0
M  V30 3919 H 396.131 1.43234 2.63484 0
M  V30 3920 H 393.684 0.779239 1.3549 0
M  V30 3921 H 394.419 -1.10614 3.04853 0
M  V30 3922 H 394.204 0.45354 3.89468 0
M  V30 3923 H 395.694 -0.504358 4.14543 0
M  V30 3924 N 396.131 -1.37776 0.765217 0
M  V30 3925 C 397.063 -2.28958 0.105361 0
M  V30 3926 C 398.076 -1.48316 -0.67128 0
M  V30 3927 O 399.265 -1.71046 -0.51045 0
M  V30 3928 C 396.365 -3.27421 -0.874569 0
M  V30 3929 C 395.538 -4.37132 -0.153123 0
M  V30 3930 C 394.597 -5.1571 -1.04547 0
M  V30 3931 O 393.623 -5.66896 -0.511672 0
M  V30 3932 N 394.825 -5.29808 -2.37243 0
M  V30 3933 H 397.59 -2.86227 0.888495 0
M  V30 3934 H 395.151 -1.49682 0.617 0
M  V30 3935 H 397.143 -3.7687 -1.47483 0
M  V30 3936 H 395.713 -2.70967 -1.55871 0
M  V30 3937 H 394.933 -3.89166 0.627975 0
M  V30 3938 H 396.221 -5.07625 0.345643 0
M  V30 3939 H 395.619 -4.89793 -2.83054 0
M  V30 3940 H 394.176 -5.82589 -2.9229 0
M  V30 3941 N 397.609 -0.515225 -1.4894 0
M  V30 3942 C 399.02 -0.0710067 -1.86565 0
M  V30 3943 C 399.371 1.34733 -1.42623 0
M  V30 3944 O 398.496 2.00653 -0.810379 0
M  V30 3945 C 399.091 -0.122083 -3.3858 0
M  V30 3946 C 397.65 0.266863 -3.75453 0
M  V30 3947 C 396.797 -0.488376 -2.72966 0
M  V30 3948 H 399.748 -0.727266 -1.41055 0
M  V30 3949 H 399.769 0.669818 -3.74558 0
M  V30 3950 H 399.281 -1.15448 -3.70531 0
M  V30 3951 H 397.382 1.30196 -3.49113 0
M  V30 3952 H 397.495 -0.0624811 -4.79059 0
M  V30 3953 H 395.859 0.0635622 -2.54621 0
M  V30 3954 H 396.642 -1.52113 -3.07761 0
M  V30 3955 N 399.087 1.5561 -0.249682 0
M  V30 3956 C 400.498 1.84979 0.252949 0
M  V30 3957 C 400.849 1.17153 1.57384 0
M  V30 3958 O 399.974 0.450884 2.11651 0
M  V30 3959 C 400.569 3.35584 0.465732 0
M  V30 3960 C 399.128 3.65169 0.912624 0
M  V30 3961 C 398.275 2.77299 -0.00859085 0
M  V30 3962 H 401.226 1.51513 -0.47217 0
M  V30 3963 H 401.247 3.57313 1.30795 0
M  V30 3964 H 400.759 3.8492 -0.49579 0
M  V30 3965 H 398.86 3.21312 1.88652 0
M  V30 3966 H 398.973 4.72912 0.767559 0
M  V30 3967 H 397.337 2.49678 0.50327 0
M  V30 3968 H 398.12 3.29442 -0.965537 0
M  V30 3969 N 400.565 -0.0233959 1.57583 0
M  V30 3970 C 401.528 -1.00693 2.05897 0
M  V30 3971 C 402.528 -1.28693 0.964092 0
M  V30 3972 O 403.718 -1.23602 1.22753 0
M  V30 3973 C 400.85 -2.33825 2.4807 0
M  V30 3974 H 402.043 -0.589476 2.9405 0
M  V30 3975 H 399.596 -0.270354 1.53944 0
M  V30 3976 H 400.331 -2.80307 1.6309 0
M  V30 3977 H 400.116 -2.1483 3.2801 0
M  V30 3978 H 401.606 -3.04426 2.85857 0
M  V30 3979 N 402.043 -1.548 -0.295768 0
M  V30 3980 C 402.993 -1.82497 -1.3667 0
M  V30 3981 C 403.977 -0.682434 -1.45711 0
M  V30 3982 O 405.169 -0.943207 -1.49775 0
M  V30 3983 C 402.298 -2.08036 -2.73086 0
M  V30 3984 C 401.384 -3.28488 -2.68247 0
M  V30 3985 N 401.775 -4.48924 -2.33025 0
M  V30 3986 C 400.073 -3.3062 -2.99343 0
M  V30 3987 C 400.774 -5.30956 -2.37613 0
M  V30 3988 N 399.75 -4.68805 -2.75178 0
M  V30 3989 H 403.552 -2.73175 -1.0841 0
M  V30 3990 H 401.066 -1.5437 -0.504361 0
M  V30 3991 H 403.063 -2.26027 -3.5031 0
M  V30 3992 H 401.723 -1.18629 -3.02254 0
M  V30 3993 H 402.734 -4.75432 -2.05389 0
M  V30 3994 H 399.411 -2.51336 -3.33371 0
M  V30 3995 H 400.801 -6.37199 -2.13135 0
M  V30 3996 N 403.521 0.559213 -1.47345 0
M  V30 3997 C 404.451 1.67622 -1.62558 0
M  V30 3998 C 405.432 1.63331 -0.475087 0
M  V30 3999 O 406.617 1.80983 -0.704182 0
M  V30 4000 C 403.747 3.0626 -1.63774 0
M  V30 4001 C 402.701 3.25397 -2.7803 0
M  V30 4002 C 402.027 4.64801 -2.64318 0
M  V30 4003 C 403.327 3.10965 -4.19641 0
M  V30 4004 H 405.021 1.55146 -2.56067 0
M  V30 4005 H 402.567 0.744961 -1.23233 0
M  V30 4006 H 404.52 3.84247 -1.73008 0
M  V30 4007 H 403.244 3.1969 -0.66825 0
M  V30 4008 H 401.903 2.49817 -2.68304 0
M  V30 4009 H 401.551 4.75028 -1.65401 0
M  V30 4010 H 401.251 4.78555 -3.40968 0
M  V30 4011 H 402.775 5.44926 -2.75478 0
M  V30 4012 H 404.189 3.78772 -4.30354 0
M  V30 4013 H 402.586 3.36229 -4.97062 0
M  V30 4014 H 403.656 2.07736 -4.38148 0
M  V30 4015 O 405.038 1.45356 0.703831 0
M  V30 4016 H 405.729 1.38392 1.35526 0
M  V30 END ATOM
M  V30 BEGIN BOND
M  V30 END BOND
M  V30 END CTAB
M  END
$$$$
