drugbank_target|O14672 Disintegrin and metalloproteinase domain-containing protein 10 (DB04991)
 OpenBabel12092120143D

  0  0  0     0  0            999 V3000
M  V30 BEGIN CTAB
M  V30 COUNTS 11593 11734 0 0 0
M  V30 BEGIN ATOM
M  V30 1 H -0.908 1.98254 -0.117106 0
M  V30 2 N 0 1.576 0 0
M  V30 3 C 0.933 2.03868 1.02534 0
M  V30 4 C 1.911 0.928543 1.3348 0
M  V30 5 O 3.095 1.19667 1.45644 0
M  V30 6 C 0.222 2.43627 2.35294 0
M  V30 7 C -0.732 3.65373 2.2001 0
M  V30 8 S 0.101 5.13292 1.52614 0
M  V30 9 C 1.257 5.56322 2.86805 0
M  V30 10 H 1.49 2.90518 0.631377 0
M  V30 11 H -0.977 1.52953 0.210867 0
M  V30 12 H 0.981 2.67203 3.11629 0
M  V30 13 H -0.358 1.57376 2.7183 0
M  V30 14 H -1.165 3.90944 3.18086 0
M  V30 15 H -1.563 3.418 1.51819 0
M  V30 16 H 0.729 5.58782 3.83104 0
M  V30 17 H 1.672 6.56266 2.65933 0
M  V30 18 H 2.08 4.83886 2.90714 0
M  V30 19 N 1.4781 -0.272755 1.55222 0
M  V30 20 C 2.7241 -1.00581 1.761 0
M  V30 21 C 3.0571 -1.85932 0.560625 0
M  V30 22 O 2.3321 -1.89416 -0.441801 0
M  V30 23 C 2.6151 -1.88816 3.06628 0
M  V30 24 C 2.4681 -1.06457 4.37021 0
M  V30 25 C 3.7871 -2.8752 3.33197 0
M  V30 26 H 0.9061 -0.364244 0.640699 0
M  V30 27 H 3.5481 -0.278189 1.87952 0
M  V30 28 H 1.6981 -2.50856 2.96654 0
M  V30 29 H 3.3701 -0.464863 4.58952 0
M  V30 30 H 1.6131 -0.368043 4.32236 0
M  V30 31 H 2.2841 -1.71514 5.24678 0
M  V30 32 H 4.7601 -2.35615 3.42965 0
M  V30 33 H 3.6361 -3.46399 4.25792 0
M  V30 34 H 3.8971 -3.62657 2.52849 0
M  V30 35 N 2.9562 -1.48159 -0.537278 0
M  V30 36 C 3.8862 -1.65029 -1.6519 0
M  V30 37 C 4.8672 -0.499281 -1.62607 0
M  V30 38 O 6.0522 -0.730972 -1.79918 0
M  V30 39 C 3.1822 -1.68303 -3.03795 0
M  V30 40 C 2.1362 -2.8283 -3.21234 0
M  V30 41 C 1.4622 -2.71189 -4.60826 0
M  V30 42 C 2.7622 -4.24211 -3.04701 0
M  V30 43 H 4.4562 -2.58341 -1.51328 0
M  V30 44 H 2.0022 -1.24325 -0.726585 0
M  V30 45 H 3.9552 -1.78693 -3.81637 0
M  V30 46 H 2.6792 -0.715635 -3.18663 0
M  V30 47 H 1.3382 -2.71983 -2.45807 0
M  V30 48 H 0.9862 -1.72435 -4.7252 0
M  V30 49 H 0.6862 -3.48035 -4.7344 0
M  V30 50 H 2.2102 -2.83537 -5.40777 0
M  V30 51 H 3.6242 -4.3593 -3.72341 0
M  V30 52 H 2.0212 -5.01998 -3.28813 0
M  V30 53 H 3.0912 -4.41184 -2.01209 0
M  V30 54 N 4.4343 0.785586 -1.36625 0
M  V30 55 C 5.3643 1.91259 -1.33949 0
M  V30 56 C 6.3453 1.68795 -0.210325 0
M  V30 57 O 7.5303 1.89854 -0.408561 0
M  V30 58 C 4.6603 3.28339 -1.13186 0
M  V30 59 C 3.6143 3.65335 -2.22967 0
M  V30 60 C 2.9403 5.00806 -1.87342 0
M  V30 61 C 4.2403 3.7352 -3.65075 0
M  V30 62 H 5.9343 1.93755 -2.28253 0
M  V30 63 H 3.4803 0.930788 -1.09874 0
M  V30 64 H 5.4333 4.06804 -1.09948 0
M  V30 65 H 4.1573 3.2624 -0.153332 0
M  V30 66 H 2.8163 2.89169 -2.25337 0
M  V30 67 H 2.4643 4.95233 -0.880545 0
M  V30 68 H 2.1643 5.26529 -2.60846 0
M  V30 69 H 3.6883 5.81687 -1.85667 0
M  V30 70 H 5.1023 4.42168 -3.64911 0
M  V30 71 H 3.4993 4.10731 -4.37516 0
M  V30 72 H 4.5693 2.74527 -3.99703 0
M  V30 73 N 5.9124 1.20967 1.01018 0
M  V30 74 C 7.3284 0.965905 1.27053 0
M  V30 75 C 7.5284 -0.350785 1.98423 0
M  V30 76 O 6.5844 -1.07773 2.28344 0
M  V30 77 C 7.8974 2.15294 2.09926 0
M  V30 78 C 9.4454 2.19463 2.23171 0
M  V30 79 C 9.9204 3.3767 3.09424 0
M  V30 80 N 11.4114 3.37724 3.17012 0
M  V30 81 C 12.1464 4.25837 3.83993 0
M  V30 82 N 11.6424 5.24138 4.53047 0
M  V30 83 N 13.4354 4.1366 3.80581 0
M  V30 84 H 5.5864 2.0565 0.531194 0
M  V30 85 H 7.8494 0.90024 0.297106 0
M  V30 86 H 7.5554 3.10684 1.64828 0
M  V30 87 H 7.4294 2.13923 3.10672 0
M  V30 88 H 9.8164 1.24632 2.6749 0
M  V30 89 H 9.8974 2.2488 1.21912 0
M  V30 90 H 9.5414 4.32791 2.65808 0
M  V30 91 H 9.4714 3.29491 4.10784 0
M  V30 92 H 11.9624 2.6658 2.6785 0
M  V30 93 H 12.2754 5.87684 5.01844 0
M  V30 94 H 10.6204 5.28068 4.5185 0
M  V30 95 H 13.8114 3.36127 3.25785 0
M  V30 96 H 13.9844 4.82538 4.32505 0
M  V30 97 N 7.3905 -1.2043 1.01659 0
M  V30 98 C 8.6365 -1.90079 0.706963 0
M  V30 99 C 8.9695 -1.78648 -0.761474 0
M  V30 100 O 8.2445 -1.17069 -1.55323 0
M  V30 101 C 8.5275 -3.41469 1.14327 0
M  V30 102 C 8.3805 -3.61833 2.67201 0
M  V30 103 C 9.6995 -4.34261 0.714529 0
M  V30 104 H 6.8185 -0.690254 0.2583 0
M  V30 105 H 9.4605 -1.41826 1.26433 0
M  V30 106 H 7.6105 -3.82696 0.669056 0
M  V30 107 H 9.2825 -3.2986 3.22475 0
M  V30 108 H 7.5255 -3.05304 3.08175 0
M  V30 109 H 8.1965 -4.67955 2.92783 0
M  V30 110 H 10.6725 -4.00682 1.12221 0
M  V30 111 H 9.5485 -5.38806 1.04784 0
M  V30 112 H 9.8095 -4.40431 -0.383799 0
M  V30 113 N 8.8686 -0.792821 -1.36206 0
M  V30 114 C 9.7986 -0.207853 -2.32573 0
M  V30 115 C 10.7796 0.659055 -1.56813 0
M  V30 116 O 11.9646 0.592176 -1.84951 0
M  V30 117 C 9.0946 0.655449 -3.41059 0
M  V30 118 C 8.0486 -0.111842 -4.27854 0
M  V30 119 C 7.3746 0.872274 -5.27537 0
M  V30 120 C 8.6746 -1.30299 -5.05786 0
M  V30 121 H 10.3686 -1.01294 -2.81744 0
M  V30 122 H 7.9146 -0.48854 -1.3546 0
M  V30 123 H 9.8676 1.07464 -4.07467 0
M  V30 124 H 8.5916 1.49328 -2.90463 0
M  V30 125 H 7.2506 -0.512053 -3.63006 0
M  V30 126 H 6.8986 1.70523 -4.73214 0
M  V30 127 H 6.5986 0.363291 -5.86476 0
M  V30 128 H 8.1226 1.28996 -5.96818 0
M  V30 129 H 9.5366 -0.959379 -5.65216 0
M  V30 130 H 7.9336 -1.7455 -5.74154 0
M  V30 131 H 9.0036 -2.09663 -4.37229 0
M  V30 132 N 10.3467 1.47872 -0.545128 0
M  V30 133 C 11.5957 2.01695 -0.0145033 0
M  V30 134 C 11.9087 1.42609 1.33873 0
M  V30 135 O 13.1147 1.88021 1.95858 0
M  V30 136 C 11.5707 3.59892 0.0245068 0
M  V30 137 C 11.1787 4.27966 -1.32475 0
M  V30 138 C 12.9227 4.21507 0.50316 0
M  V30 139 C 10.8297 5.78136 -1.2455 0
M  V30 140 H 9.7597 0.753998 -0.00165172 0
M  V30 141 H 12.4107 1.69985 -0.691175 0
M  V30 142 H 10.7927 3.88509 0.766575 0
M  V30 143 H 11.9667 4.11003 -2.08357 0
M  V30 144 H 10.2817 3.78286 -1.74036 0
M  V30 145 H 12.8787 5.31538 0.580656 0
M  V30 146 H 13.2217 3.87855 1.51243 0
M  V30 147 H 13.7547 3.97376 -0.183681 0
M  V30 148 H 10.4937 6.16388 -2.23039 0
M  V30 149 H 10.0137 5.97469 -0.528282 0
M  V30 150 H 11.6927 6.40099 -0.942488 0
M  V30 151 N 11.8248 0.280983 1.55075 0
M  V30 152 C 12.7548 -0.597469 2.25727 0
M  V30 153 C 13.7358 -1.15417 1.24952 0
M  V30 154 O 14.9208 -1.18722 1.53684 0
M  V30 155 C 12.0508 -1.7789 2.98283 0
M  V30 156 C 11.0048 -1.35347 4.06036 0
M  V30 157 C 10.3308 -2.61846 4.66198 0
M  V30 158 C 11.6308 -0.499354 5.19907 0
M  V30 159 H 13.3248 -0.00824265 2.99399 0
M  V30 160 H 10.8708 -0.0025244 1.44 0
M  V30 161 H 12.8238 -2.39937 3.46422 0
M  V30 162 H 11.5478 -2.39405 2.22155 0
M  V30 163 H 10.2068 -0.756156 3.58717 0
M  V30 164 H 9.8548 -3.21632 3.86732 0
M  V30 165 H 9.5548 -2.3409 5.38958 0
M  V30 166 H 11.0788 -3.24732 5.1709 0
M  V30 167 H 12.4928 -1.02498 5.64063 0
M  V30 168 H 10.8898 -0.316424 5.99265 0
M  V30 169 H 11.9598 0.480459 4.82514 0
M  V30 170 N 13.3029 -1.57598 0.00835791 0
M  V30 171 C 14.2329 -2.1198 -0.979113 0
M  V30 172 C 15.2139 -1.03091 -1.35301 0
M  V30 173 O 16.3989 -1.30818 -1.43528 0
M  V30 174 C 13.5289 -2.62995 -2.26828 0
M  V30 175 C 12.4829 -3.76485 -2.03576 0
M  V30 176 C 11.8089 -4.13846 -3.38579 0
M  V30 177 C 13.1089 -5.0342 -1.39161 0
M  V30 178 H 14.8029 -2.94738 -0.526281 0
M  V30 179 H 12.3489 -1.41783 -0.251704 0
M  V30 180 H 14.3019 -2.99669 -2.96271 0
M  V30 181 H 13.0259 -1.7737 -2.7424 0
M  V30 182 H 11.6849 -3.40217 -1.36557 0
M  V30 183 H 11.3329 -3.25232 -3.83709 0
M  V30 184 H 11.0329 -4.90312 -3.23834 0
M  V30 185 H 12.5569 -4.53086 -4.09323 0
M  V30 186 H 13.9709 -5.37812 -1.98573 0
M  V30 187 H 12.3679 -5.84746 -1.34878 0
M  V30 188 H 13.4379 -4.83548 -0.361868 0
M  V30 189 N 14.781 0.264519 -1.55364 0
M  V30 190 C 15.711 1.33121 -1.91836 0
M  V30 191 C 16.692 1.51101 -0.781192 0
M  V30 192 O 17.877 1.64003 -1.04003 0
M  V30 193 C 15.007 2.68921 -2.19769 0
M  V30 194 C 13.961 2.65661 -3.35571 0
M  V30 195 C 13.287 4.05093 -3.49004 0
M  V30 196 C 14.587 2.24187 -4.71739 0
M  V30 197 H 16.281 1.02844 -2.81182 0
M  V30 198 H 13.827 0.493286 -1.35287 0
M  V30 199 H 15.78 3.43663 -2.43872 0
M  V30 200 H 14.504 3.00799 -1.27231 0
M  V30 201 H 13.163 1.93377 -3.1145 0
M  V30 202 H 12.811 4.34206 -2.53917 0
M  V30 203 H 12.511 4.03804 -4.26868 0
M  V30 204 H 14.035 4.81561 -3.75408 0
M  V30 205 H 15.449 2.88654 -4.9533 0
M  V30 206 H 13.846 2.34044 -5.52579 0
M  V30 207 H 14.916 1.19327 -4.69988 0
M  V30 208 N 16.2591 1.48442 0.529413 0
M  V30 209 C 17.4841 1.60406 1.31471 0
M  V30 210 C 17.9091 0.264738 1.86228 0
M  V30 211 O 17.2671 -0.763668 1.64432 0
M  V30 212 C 17.3151 2.65419 2.44101 0
M  V30 213 O 16.4191 2.22618 3.47153 0
M  V30 214 H 15.7601 0.537863 0.389357 0
M  V30 215 H 18.2901 1.94432 0.636965 0
M  V30 216 H 18.3001 2.86709 2.90279 0
M  V30 217 H 16.9751 3.62652 2.03608 0
M  V30 218 H 15.5521 2.11543 3.0709 0
M  V30 219 N 17.7372 -0.778329 1.37039 0
M  V30 220 C 18.9832 -1.53817 1.33086 0
M  V30 221 C 19.3382 -1.92208 -0.0860346 0
M  V30 222 O 18.6312 -1.60713 -1.04316 0
M  V30 223 C 18.8252 -2.81845 2.19768 0
M  V30 224 C 18.6542 -2.55967 3.69744 0
M  V30 225 C 17.4242 -2.50428 4.38878 0
M  V30 226 C 19.6222 -2.2441 4.62758 0
M  V30 227 N 17.6042 -2.16564 5.74433 0
M  V30 228 C 18.9752 -2.0063 5.86641 0
M  V30 229 C 21.0302 -2.1051 4.5121 0
M  V30 230 C 19.7332 -1.64354 7.00272 0
M  V30 231 C 21.7592 -1.75634 5.64718 0
M  V30 232 C 21.1212 -1.52709 6.87648 0
M  V30 233 H 17.2202 -0.563434 0.542279 0
M  V30 234 H 19.8042 -0.908617 1.72198 0
M  V30 235 H 17.9752 -3.42649 1.82883 0
M  V30 236 H 19.7072 -3.47682 2.07122 0
M  V30 237 H 16.4622 -2.66056 3.91805 0
M  V30 238 H 16.8862 -2.02348 6.46053 0
M  V30 239 H 21.5282 -2.26919 3.56746 0
M  V30 240 H 19.2462 -1.46683 7.94676 0
M  V30 241 H 22.8322 -1.65546 5.57751 0
M  V30 242 H 21.7122 -1.2612 7.73992 0
M  V30 243 N 19.2153 -1.21501 -1.00376 0
M  V30 244 C 20.1783 -0.976927 -2.07337 0
M  V30 245 C 21.1783 0.0525322 -1.60714 0
M  V30 246 O 22.3683 -0.184869 -1.73216 0
M  V30 247 C 19.5003 -0.473423 -3.37597 0
M  V30 248 H 20.6933 -1.92587 -2.29892 0
M  V30 249 H 18.2463 -1.03217 -1.17371 0
M  V30 250 H 18.9813 0.480379 -3.20722 0
M  V30 251 H 18.7663 -1.216 -3.72768 0
M  V30 252 H 20.2563 -0.32675 -4.1632 0
M  V30 253 N 20.6934 1.19889 -1.02296 0
M  V30 254 C 21.6564 2.21116 -0.603351 0
M  V30 255 C 22.6564 1.5738 0.329884 0
M  V30 256 O 23.8464 1.73802 0.117702 0
M  V30 257 C 20.9784 3.40696 0.117992 0
M  V30 258 H 22.1714 2.59754 -1.49893 0
M  V30 259 H 19.7244 1.33463 -0.813468 0
M  V30 260 H 20.4594 3.07569 1.0282 0
M  V30 261 H 20.2444 3.88188 -0.552511 0
M  V30 262 H 21.7344 4.15692 0.398696 0
M  V30 263 N 22.1715 0.800033 1.35784 0
M  V30 264 C 23.4195 0.376597 1.9856 0
M  V30 265 C 23.7405 -1.05812 1.63795 0
M  V30 266 O 23.0105 -1.73103 0.917171 0
M  V30 267 H 21.5905 0.136261 0.734467 0
M  V30 268 H 24.2525 1.02442 1.65806 0
M  V30 269 H 23.3485 0.477002 3.08433 0
M  V30 270 N 23.6496 -1.47581 0.552962 0
M  V30 271 C 24.5826 -2.26883 -0.244857 0
M  V30 272 C 25.5606 -1.33784 -0.924147 0
M  V30 273 O 26.7446 -1.6316 -0.943981 0
M  V30 274 C 23.8716 -3.10695 -1.34856 0
M  V30 275 C 22.9176 -4.19339 -0.778268 0
M  V30 276 S 23.7506 -5.34207 0.37184 0
M  V30 277 C 24.9066 -6.21584 -0.733779 0
M  V30 278 H 25.1396 -2.94202 0.428087 0
M  V30 279 H 22.6726 -1.50628 0.339197 0
M  V30 280 H 24.6306 -3.59555 -1.98066 0
M  V30 281 H 23.2916 -2.42746 -1.99332 0
M  V30 282 H 22.4846 -4.77695 -1.60696 0
M  V30 283 H 22.0866 -3.73338 -0.222422 0
M  V30 284 H 24.3786 -6.57676 -1.62692 0
M  V30 285 H 25.3216 -7.07851 -0.187668 0
M  V30 286 H 25.7296 -5.55125 -1.02454 0
M  V30 287 N 25.1277 -0.289203 -1.54924 0
M  V30 288 C 26.3757 0.322879 -1.99504 0
M  V30 289 C 26.6967 1.55313 -1.1791 0
M  V30 290 O 25.9667 1.94001 -0.272097 0
M  V30 291 H 24.5467 0.122291 -0.736922 0
M  V30 292 H 27.2087 -0.397802 -1.90797 0
M  V30 293 H 26.3047 0.603061 -3.06218 0
M  V30 294 N 26.6058 1.57591 -0.0167156 0
M  V30 295 C 27.8538 1.90906 0.663285 0
M  V30 296 C 28.1748 0.892509 1.73376 0
M  V30 297 O 27.4448 -0.0677623 1.95783 0
M  V30 298 H 26.0248 0.704637 0.247983 0
M  V30 299 H 28.6868 1.94803 -0.0615909 0
M  V30 300 H 27.7828 2.9116 1.12393 0
M  V30 301 N 28.0839 -0.256276 1.55502 0
M  V30 302 C 29.0159 -1.33981 1.85962 0
M  V30 303 C 30.0289 -1.44743 0.745212 0
M  V30 304 O 31.2179 -1.4626 1.02324 0
M  V30 305 C 28.3179 -2.7194 2.02242 0
M  V30 306 C 27.4909 -2.83562 3.33033 0
M  V30 307 C 26.5499 -4.02304 3.39172 0
M  V30 308 O 25.5759 -3.92273 4.12444 0
M  V30 309 N 26.7779 -5.15045 2.67784 0
M  V30 310 H 29.5429 -1.08191 2.7949 0
M  V30 311 H 27.1039 -0.446388 1.55624 0
M  V30 312 H 29.0959 -3.49697 2.03701 0
M  V30 313 H 27.6659 -2.90479 1.15502 0
M  V30 314 H 26.8859 -1.92555 3.43971 0
M  V30 315 H 28.1739 -2.88271 4.19258 0
M  V30 316 H 27.5719 -5.26085 2.07968 0
M  V30 317 H 26.1289 -5.90972 2.74947 0
M  V30 318 N 29.562 -1.4872 -0.521534 0
M  V30 319 C 30.792 -1.6061 -1.29954 0
M  V30 320 C 31.2 -0.268728 -1.87282 0
M  V30 321 O 30.543 0.753221 -1.67548 0
M  V30 322 C 30.605 -2.60013 -2.48261 0
M  V30 323 C 30.269 -4.04874 -2.11957 0
M  V30 324 C 31.266 -4.92304 -1.67132 0
M  V30 325 C 28.951 -4.5047 -2.22221 0
M  V30 326 C 30.945 -6.2336 -1.33047 0
M  V30 327 C 28.632 -5.81544 -1.87748 0
M  V30 328 C 29.63 -6.67812 -1.43234 0
M  V30 329 O 29.318 -7.96446 -1.09217 0
M  V30 330 H 29.05 -0.544116 -0.401141 0
M  V30 331 H 31.604 -1.95339 -0.634958 0
M  V30 332 H 29.834 -2.20422 -3.17728 0
M  V30 333 H 31.523 -2.61648 -3.10315 0
M  V30 334 H 32.289 -4.58312 -1.58665 0
M  V30 335 H 28.168 -3.83504 -2.55823 0
M  V30 336 H 31.712 -6.90649 -0.982299 0
M  V30 337 H 27.609 -6.15069 -1.95858 0
M  V30 338 H 28.377 -8.09275 -1.22542 0
M  V30 339 N 31.0401 0.771051 -1.3745 0
M  V30 340 C 32.2881 1.52661 -1.32435 0
M  V30 341 C 32.6091 1.9479 0.0905024 0
M  V30 342 O 31.8791 1.66348 1.03466 0
M  V30 343 H 30.4591 0.566218 -0.487244 0
M  V30 344 H 33.1211 0.917636 -1.71946 0
M  V30 345 H 32.2171 2.42568 -1.96385 0
M  V30 346 N 32.5182 1.22032 0.997298 0
M  V30 347 C 33.4662 0.983634 2.10778 0
M  V30 348 C 34.4602 -0.0717564 1.69248 0
M  V30 349 O 35.6662 0.080304 1.79821 0
M  V30 350 H 32.0412 0.300877 0.689186 0
M  V30 351 H 34.0122 1.92606 2.27916 0
M  V30 352 C 32.7612 0.57326 3.42942 0
M  V30 353 H 32.0842 1.37702 3.75338 0
M  V30 354 H 33.5242 0.447031 4.21637 0
M  V30 355 C 31.9832 -0.7167 3.29188 0
M  V30 356 O 32.5132 -1.77027 3.60589 0
M  V30 357 N 30.7192 -0.686167 2.82383 0
M  V30 358 H 30.2662 0.171507 2.57028 0
M  V30 359 H 30.2242 -1.54955 2.73562 0
M  V30 360 N 33.9963 -1.19345 1.0293 0
M  V30 361 C 35.4073 -1.70725 0.755633 0
M  V30 362 C 35.7583 -1.82326 -0.724676 0
M  V30 363 O 34.8833 -1.49471 -1.56484 0
M  V30 364 C 35.4783 -3.10084 1.36503 0
M  V30 365 C 34.0373 -3.58723 1.13994 0
M  V30 366 C 33.1843 -2.35577 1.46283 0
M  V30 367 H 36.1353 -1.0418 1.19718 0
M  V30 368 H 36.1563 -3.72787 0.762217 0
M  V30 369 H 35.6683 -3.01609 2.44241 0
M  V30 370 H 33.7693 -3.72512 0.0807901 0
M  V30 371 H 33.8823 -4.42816 1.82894 0
M  V30 372 H 32.2463 -2.38935 0.88217 0
M  V30 373 H 33.0293 -2.29731 2.55105 0
M  V30 374 N 35.4744 -0.807222 -1.35358 0
M  V30 375 C 36.4044 -0.232509 -2.3234 0
M  V30 376 C 37.3854 0.642386 -1.57504 0
M  V30 377 O 38.5704 0.572526 -1.85569 0
M  V30 378 C 35.7004 0.619238 -3.41735 0
M  V30 379 C 34.6544 -0.157215 -4.27711 0
M  V30 380 C 33.9804 0.816273 -5.28433 0
M  V30 381 C 35.2804 -1.35656 -5.04376 0
M  V30 382 H 36.9744 -1.04276 -2.80654 0
M  V30 383 H 34.5204 -0.50288 -1.34934 0
M  V30 384 H 36.4734 1.03137 -4.08584 0
M  V30 385 H 35.1974 1.46239 -2.92031 0
M  V30 386 H 33.8564 -0.550525 -3.62443 0
M  V30 387 H 33.5044 1.65494 -4.74996 0
M  V30 388 H 33.2044 0.301067 -5.86828 0
M  V30 389 H 34.7284 1.22659 -5.98153 0
M  V30 390 H 36.1424 -1.01927 -5.64166 0
M  V30 391 H 34.5394 -1.8063 -5.7227 0
M  V30 392 H 35.6094 -2.14288 -4.34981 0
M  V30 393 N 36.9525 1.47285 -0.560781 0
M  V30 394 C 37.9005 2.31756 0.197942 0
M  V30 395 C 38.8945 1.43146 0.905854 0
M  V30 396 O 40.1005 1.59891 0.826733 0
M  V30 397 H 36.4755 0.747438 0.0827049 0
M  V30 398 H 38.4465 2.9359 -0.533629 0
M  V30 399 C 37.1955 3.25874 1.21249 0
M  V30 400 H 36.5185 3.94023 0.67719 0
M  V30 401 H 37.9585 3.87803 1.71419 0
M  V30 402 C 36.4175 2.49651 2.26221 0
M  V30 403 O 36.9475 2.24355 3.33208 0
M  V30 404 N 35.1535 2.10597 2.00243 0
M  V30 405 H 34.7005 2.31369 1.13252 0
M  V30 406 H 34.6585 1.59913 2.70694 0
M  V30 407 N 38.4306 0.297415 1.54768 0
M  V30 408 C 39.3776 -0.580276 2.23386 0
M  V30 409 C 40.3476 -1.13238 1.21517 0
M  V30 410 O 41.5326 -1.17757 1.50126 0
M  V30 411 C 38.6726 -1.74801 2.97555 0
M  V30 412 C 37.7856 -1.22764 4.1419 0
M  V30 413 C 36.9206 -2.35895 4.75949 0
M  V30 414 C 35.9596 -1.80974 5.84735 0
M  V30 415 N 35.0966 -2.87664 6.40464 0
M  V30 416 H 39.9366 0.0114833 2.97998 0
M  V30 417 H 37.4736 0.0174361 1.4709 0
M  V30 418 H 39.4316 -2.43475 3.38786 0
M  V30 419 H 38.0616 -2.31145 2.25326 0
M  V30 420 H 37.1136 -0.433271 3.77924 0
M  V30 421 H 38.4256 -0.785551 4.92575 0
M  V30 422 H 37.5796 -3.12523 5.20014 0
M  V30 423 H 36.3186 -2.83429 3.96887 0
M  V30 424 H 35.3236 -1.02834 5.40097 0
M  V30 425 H 36.5486 -1.34348 6.65678 0
M  V30 426 H 34.4946 -3.34538 5.64287 0
M  V30 427 H 34.4116 -2.4794 7.14186 0
M  V30 428 H 35.6796 -3.642 6.89187 0
M  V30 429 N 39.9087 -1.5758 0.0250728 0
M  V30 430 C 41.1387 -1.95646 -0.663783 0
M  V30 431 C 41.5467 -0.899935 -1.66427 0
M  V30 432 O 40.8897 0.127191 -1.83259 0
M  V30 433 C 40.9517 -3.29835 -1.43 0
M  V30 434 C 40.6157 -4.53197 -0.588305 0
M  V30 435 C 41.6127 -5.19726 0.13469 0
M  V30 436 C 39.2977 -4.99529 -0.526897 0
M  V30 437 C 41.2917 -6.30902 0.90781 0
M  V30 438 C 38.9787 -6.10589 0.24993 0
M  V30 439 C 39.9767 -6.76134 0.965994 0
M  V30 440 O 39.6647 -7.85062 1.7301 0
M  V30 441 H 39.3967 -0.649282 -0.188174 0
M  V30 442 H 41.9507 -2.05245 0.0799006 0
M  V30 443 H 40.1807 -3.16716 -2.21873 0
M  V30 444 H 41.8697 -3.52833 -2.00658 0
M  V30 445 H 42.6357 -4.84904 0.0965562 0
M  V30 446 H 38.5147 -4.48319 -1.07381 0
M  V30 447 H 42.0587 -6.81995 1.46724 0
M  V30 448 H 37.9557 -6.44849 0.289795 0
M  V30 449 H 38.7237 -8.01708 1.64944 0
M  V30 450 N 41.3868 0.248026 -1.55636 0
M  V30 451 C 42.6358 0.974134 -1.76617 0
M  V30 452 C 42.9488 1.86528 -0.588796 0
M  V30 453 O 44.1548 2.62805 -0.681594 0
M  V30 454 C 42.6108 1.78213 -3.12679 0
M  V30 455 C 42.2188 0.93843 -4.38061 0
M  V30 456 C 43.9628 2.50104 -3.42999 0
M  V30 457 C 41.8698 1.74225 -5.65155 0
M  V30 458 H 40.7998 0.36745 -0.658405 0
M  V30 459 H 43.4508 0.22884 -1.82067 0
M  V30 460 H 41.8328 2.56933 -3.01333 0
M  V30 461 H 43.0068 0.193635 -4.60393 0
M  V30 462 H 41.3218 0.332905 -4.15067 0
M  V30 463 H 43.9188 3.10694 -4.3517 0
M  V30 464 H 44.2618 3.21662 -2.64271 0
M  V30 465 H 44.7948 1.78395 -3.55556 0
M  V30 466 H 41.5338 1.07043 -6.46701 0
M  V30 467 H 41.0538 2.46235 -5.46926 0
M  V30 468 H 42.7328 2.30967 -6.0437 0
M  V30 469 N 42.8649 1.48995 0.513639 0
M  V30 470 C 44.2809 1.35478 0.843682 0
M  V30 471 C 44.4809 0.378213 1.97919 0
M  V30 472 O 43.5369 -0.194689 2.51748 0
M  V30 473 C 44.8499 2.75901 1.1958 0
M  V30 474 C 46.3979 2.84509 1.30474 0
M  V30 475 C 46.8729 4.25671 1.69021 0
M  V30 476 N 48.3639 4.28422 1.76094 0
M  V30 477 C 49.0989 5.34601 2.07338 0
M  V30 478 N 48.5949 6.5104 2.36894 0
M  V30 479 N 50.3879 5.22007 2.08483 0
M  V30 480 H 42.5389 2.11092 -0.235328 0
M  V30 481 H 44.8019 0.947039 -0.0426669 0
M  V30 482 H 44.5079 3.49001 0.434913 0
M  V30 483 H 44.3819 3.10467 2.1422 0
M  V30 484 H 46.7689 2.11655 2.05637 0
M  V30 485 H 46.8499 2.53542 0.339155 0
M  V30 486 H 46.4939 4.99048 0.944135 0
M  V30 487 H 46.4239 4.54094 2.66658 0
M  V30 488 H 48.9149 3.44441 1.55464 0
M  V30 489 H 49.2279 7.2779 2.59887 0
M  V30 490 H 47.5729 6.54287 2.34378 0
M  V30 491 H 50.7639 4.30051 1.84861 0
M  V30 492 H 50.9369 6.04854 2.325 0
M  V30 493 N 44.343 -0.763751 1.37857 0
M  V30 494 C 45.293 -1.86765 1.30777 0
M  V30 495 C 46.277 -1.59726 0.194015 0
M  V30 496 O 47.469 -1.7172 0.42911 0
M  V30 497 C 44.598 -3.24343 1.12502 0
M  V30 498 C 43.684 -3.57307 2.28456 0
M  V30 499 N 44.075 -3.61398 3.53871 0
M  V30 500 C 42.373 -3.87517 2.20786 0
M  V30 501 C 43.074 -3.91339 4.30382 0
M  V30 502 N 42.05 -4.07649 3.59615 0
M  V30 503 H 45.852 -1.88191 2.25746 0
M  V30 504 H 43.366 -0.9606 1.30944 0
M  V30 505 H 45.363 -4.03327 1.05514 0
M  V30 506 H 44.023 -3.24175 0.184574 0
M  V30 507 H 45.034 -3.43407 3.87675 0
M  V30 508 H 41.711 -3.95125 1.34844 0
M  V30 509 H 43.101 -4.01213 5.3896 0
M  V30 510 N 45.8211 -1.22559 -0.990812 0
M  V30 511 C 47.0511 -1.07623 -1.76355 0
M  V30 512 C 47.4591 0.37601 -1.85426 0
M  V30 513 O 46.8021 1.27228 -1.32509 0
M  V30 514 C 46.8641 -1.61507 -3.21179 0
M  V30 515 C 46.5281 -3.10146 -3.35646 0
M  V30 516 C 47.5251 -4.07553 -3.22796 0
M  V30 517 C 45.2101 -3.49644 -3.60631 0
M  V30 518 C 47.2041 -5.42442 -3.34716 0
M  V30 519 C 44.8911 -4.84682 -3.72192 0
M  V30 520 C 45.8891 -5.8089 -3.59243 0
M  V30 521 O 45.5771 -7.13476 -3.70415 0
M  V30 522 H 45.3091 -0.377745 -0.560611 0
M  V30 523 H 47.8631 -1.62658 -1.25425 0
M  V30 524 H 46.0931 -1.00881 -3.73309 0
M  V30 525 H 47.7821 -1.42202 -3.80175 0
M  V30 526 H 48.5481 -3.78381 -3.03403 0
M  V30 527 H 44.4271 -2.75282 -3.69785 0
M  V30 528 H 47.9711 -6.17518 -3.24526 0
M  V30 529 H 43.8681 -5.13534 -3.91092 0
M  V30 530 H 44.6361 -7.21083 -3.87275 0
M  V30 531 N 47.2992 1.18797 -1.03562 0
M  V30 532 C 48.2092 2.25913 -0.632505 0
M  V30 533 C 49.2252 1.70668 0.338882 0
M  V30 534 O 50.4012 2.00453 0.195076 0
M  V30 535 C 47.4662 3.467 0.00350942 0
M  V30 536 C 46.5272 4.17098 -1.01624 0
M  V30 537 C 45.7602 5.32119 -0.410478 0
M  V30 538 O 45.9832 5.64976 0.784725 0
M  V30 539 O 44.9172 5.9107 -1.13667 0
M  V30 540 H 48.7432 2.62648 -1.52478 0
M  V30 541 H 46.3282 1.25781 -0.806195 0
M  V30 542 H 48.2102 4.19878 0.35781 0
M  V30 543 H 46.8852 3.11798 0.869686 0
M  V30 544 H 45.7922 3.4601 -1.42224 0
M  V30 545 H 47.1252 4.55987 -1.85301 0
M  V30 546 N 48.7773 0.814389 1.34928 0
M  V30 547 C 50.0253 0.397636 1.9815 0
M  V30 548 C 50.3463 -1.04069 1.64908 0
M  V30 549 O 49.6163 -1.72121 0.93548 0
M  V30 550 H 48.1963 0.144043 0.732981 0
M  V30 551 H 50.8583 1.04195 1.6471 0
M  V30 552 H 49.9543 0.509688 3.0791 0
M  V30 553 N 50.2554 -1.46986 0.568584 0
M  V30 554 C 51.1854 -2.32946 -0.160753 0
M  V30 555 C 52.1664 -1.44487 -0.897631 0
M  V30 556 O 53.3514 -1.73327 -0.875867 0
M  V30 557 C 50.4814 -3.26494 -1.18403 0
M  V30 558 C 49.4354 -4.24282 -0.562895 0
M  V30 559 C 48.7614 -5.07236 -1.69163 0
M  V30 560 C 50.0614 -5.19989 0.490761 0
M  V30 561 H 51.7554 -2.94175 0.556916 0
M  V30 562 H 49.3014 -1.4146 0.26927 0
M  V30 563 H 51.2544 -3.85477 -1.70251 0
M  V30 564 H 49.9784 -2.63343 -1.93179 0
M  V30 565 H 48.6374 -3.66541 -0.0656164 0
M  V30 566 H 48.2854 -4.4048 -2.42871 0
M  V30 567 H 47.9854 -5.7345 -1.28174 0
M  V30 568 H 49.5094 -5.6908 -2.21314 0
M  V30 569 H 50.9234 -5.73271 0.0579047 0
M  V30 570 H 49.3204 -5.94469 0.820165 0
M  V30 571 H 50.3904 -4.64777 1.3824 0
M  V30 572 N 51.7335 -0.305618 -1.54608 0
M  V30 573 C 52.9585 0.307562 -2.05107 0
M  V30 574 C 53.3835 1.46385 -1.18123 0
M  V30 575 O 52.7415 1.8034 -0.186324 0
M  V30 576 C 52.7895 0.73704 -3.52987 0
M  V30 577 O 51.8935 1.84134 -3.6901 0
M  V30 578 H 51.2345 0.0589143 -0.661381 0
M  V30 579 H 53.7645 -0.448807 -1.99617 0
M  V30 580 H 53.7745 1.02459 -3.94925 0
M  V30 581 H 52.4495 -0.108773 -4.15758 0
M  V30 582 H 51.0265 1.55398 -3.38978 0
M  V30 583 N 53.2116 1.57565 -0.0334293 0
M  V30 584 C 54.4416 1.95996 0.653398 0
M  V30 585 C 54.8496 0.908749 1.65947 0
M  V30 586 O 54.1926 -0.117471 1.83324 0
M  V30 587 C 54.2546 3.30589 1.41249 0
M  V30 588 C 53.9186 4.53503 0.564263 0
M  V30 589 C 54.9156 5.19647 -0.16225 0
M  V30 590 C 52.6006 4.99801 0.500398 0
M  V30 591 C 54.5946 6.30412 -0.941255 0
M  V30 592 C 52.2816 6.10448 -0.282308 0
M  V30 593 C 53.2796 6.75612 -1.00184 0
M  V30 594 O 52.9676 7.84134 -1.77171 0
M  V30 595 H 52.6996 0.65027 0.184728 0
M  V30 596 H 55.2536 2.05199 -0.0907841 0
M  V30 597 H 53.4836 3.17888 2.20191 0
M  V30 598 H 55.1726 3.53892 1.98784 0
M  V30 599 H 55.9386 4.84846 -0.12227 0
M  V30 600 H 51.8176 4.48883 1.05002 0
M  V30 601 H 55.3616 6.81208 -1.50339 0
M  V30 602 H 51.2586 6.44686 -0.323989 0
M  V30 603 H 52.0266 8.00822 -1.69194 0
M  V30 604 N 54.6897 -0.239769 1.55765 0
M  V30 605 C 55.6377 -1.31668 1.91745 0
M  V30 606 C 56.6317 -1.49462 0.797338 0
M  V30 607 O 57.8377 -1.50852 0.982021 0
M  V30 608 H 54.2127 -0.441048 0.609082 0
M  V30 609 H 56.1837 -0.985923 2.81642 0
M  V30 610 C 54.9327 -2.66368 2.2348 0
M  V30 611 H 54.2557 -2.53478 3.09175 0
M  V30 612 H 55.6957 -3.40578 2.52553 0
M  V30 613 C 54.1547 -3.20002 1.05359 0
M  V30 614 O 54.6847 -4.00538 0.305261 0
M  V30 615 N 52.8907 -2.78126 0.842292 0
M  V30 616 H 52.4377 -2.12742 1.45253 0
M  V30 617 H 52.3957 -3.14354 0.053652 0
M  V30 618 N 56.1678 -1.49265 -0.50573 0
M  V30 619 C 57.4138 -1.58748 -1.26202 0
M  V30 620 C 57.7468 -0.271227 -1.92297 0
M  V30 621 O 57.0218 0.724831 -1.80489 0
M  V30 622 C 57.3048 -2.74332 -2.33268 0
M  V30 623 C 57.1578 -4.15737 -1.71705 0
M  V30 624 C 58.4768 -2.85576 -3.34865 0
M  V30 625 H 55.5958 -0.577826 -0.457478 0
M  V30 626 H 58.2378 -1.81532 -0.560897 0
M  V30 627 H 56.3878 -2.55036 -2.93068 0
M  V30 628 H 58.0598 -4.46537 -1.15769 0
M  V30 629 H 56.3028 -4.21605 -1.02135 0
M  V30 630 H 56.9738 -4.92477 -2.49341 0
M  V30 631 H 59.4498 -3.03127 -2.8505 0
M  V30 632 H 58.3258 -3.68135 -4.07146 0
M  V30 633 H 58.5868 -1.94732 -3.96903 0
M  V30 634 N 57.6459 0.756429 -1.3826 0
M  V30 635 C 58.9229 1.50584 -1.24835 0
M  V30 636 C 59.3029 2.10556 0.151485 0
M  V30 637 O 58.6509 1.96825 1.1607 0
M  V30 638 C 58.8609 2.57448 -2.3563 0
M  V30 639 C 60.2089 3.24429 -2.73917 0
M  V30 640 O 61.2329 2.67751 -2.34921 0
M  V30 641 O 60.0919 4.26937 -3.41156 0
M  V30 642 H 57.1859 0.667664 -0.48801 0
M  V30 643 H 59.7319 0.792083 -1.5008 0
M  V30 644 H 58.5039 2.11362 -3.29305 0
M  V30 645 H 58.1269 3.36408 -2.11933 0
M  V30 646 N 59.124 1.23083 0.984299 0
M  V30 647 C 60.349 1.088 1.76571 0
M  V30 648 C 60.774 -0.356657 1.84688 0
M  V30 649 O 60.132 -1.25788 1.30565 0
M  V30 650 C 60.18 1.71371 3.17277 0
M  V30 651 O 59.284 0.973213 4.00752 0
M  V30 652 H 58.625 0.381599 0.543395 0
M  V30 653 H 61.155 1.63057 1.23587 0
M  V30 654 H 61.165 1.76449 3.67872 0
M  V30 655 H 59.84 2.76493 3.10684 0
M  V30 656 H 58.417 0.999078 3.59267 0
M  V30 657 N 60.6021 -1.18246 1.0419 0
M  V30 658 C 61.5321 -2.24127 0.654914 0
M  V30 659 C 62.5131 -1.66617 -0.342451 0
M  V30 660 O 63.6981 -1.92924 -0.222277 0
M  V30 661 C 60.8281 -3.47295 0.0183757 0
M  V30 662 C 59.7821 -4.17563 0.939414 0
M  V30 663 C 59.1081 -5.34438 0.167286 0
M  V30 664 C 60.4081 -4.70917 2.25908 0
M  V30 665 H 62.1021 -2.56753 1.54007 0
M  V30 666 H 59.6481 -1.23414 0.74195 0
M  V30 667 H 61.6011 -4.20572 -0.264082 0
M  V30 668 H 60.3251 -3.13907 -0.901664 0
M  V30 669 H 58.9841 -3.46186 1.20628 0
M  V30 670 H 58.6321 -4.97298 -0.7552 0
M  V30 671 H 58.3321 -5.82388 0.780901 0
M  V30 672 H 59.8561 -6.10504 -0.108125 0
M  V30 673 H 61.2701 -5.35882 2.03724 0
M  V30 674 H 59.6671 -5.29406 2.82577 0
M  V30 675 H 60.7371 -3.88272 2.9047 0
M  V30 676 N 62.0802 -0.821533 -1.34494 0
M  V30 677 C 63.0302 -0.214793 -2.26986 0
M  V30 678 C 64.0142 0.620125 -1.4847 0
M  V30 679 O 65.2062 0.474933 -1.70509 0
M  V30 680 C 62.3352 0.623566 -3.37589 0
M  V30 681 C 61.4212 -0.221904 -4.23519 0
M  V30 682 N 61.8122 -1.29223 -4.89014 0
M  V30 683 C 60.1102 -0.00600922 -4.46 0
M  V30 684 C 60.8112 -1.80965 -5.52835 0
M  V30 685 N 59.7872 -1.11376 -5.32068 0
M  V30 686 H 63.5892 -1.03354 -2.75128 0
M  V30 687 H 61.1032 -0.6642 -1.48196 0
M  V30 688 H 63.1002 1.0744 -4.02818 0
M  V30 689 H 61.7602 1.44049 -2.90998 0
M  V30 690 H 62.7712 -1.67502 -4.90065 0
M  V30 691 H 59.4482 0.77886 -4.10171 0
M  V30 692 H 60.8382 -2.70502 -6.15043 0
M  V30 693 N 63.5583 1.46682 -0.576371 0
M  V30 694 C 64.4903 2.28341 0.198231 0
M  V30 695 C 65.5033 1.38141 0.861453 0
M  V30 696 O 66.6923 1.62797 0.732082 0
M  V30 697 C 63.7923 3.12986 1.29972 0
M  V30 698 C 62.9653 4.31271 0.729639 0
M  V30 699 C 62.0243 4.97363 1.71803 0
M  V30 700 O 61.0503 5.55156 1.25658 0
M  V30 701 N 62.2523 4.93796 3.05198 0
M  V30 702 H 65.0173 2.9546 -0.502324 0
M  V30 703 H 62.5783 1.56525 -0.413715 0
M  V30 704 H 64.5703 3.54066 1.96008 0
M  V30 705 H 63.1403 2.47984 1.90323 0
M  V30 706 H 62.3603 3.94052 -0.108012 0
M  V30 707 H 63.6483 5.07739 0.328438 0
M  V30 708 H 63.0463 4.48077 3.45317 0
M  V30 709 H 61.6033 5.38837 3.6674 0
M  V30 710 N 65.0364 0.313813 1.54444 0
M  V30 711 C 65.9834 -0.55655 2.23989 0
M  V30 712 C 66.9534 -1.11943 1.22711 0
M  V30 713 O 68.1384 -1.16158 1.51367 0
M  V30 714 C 65.2784 -1.71635 2.99392 0
M  V30 715 C 64.3914 -1.18364 4.15468 0
M  V30 716 C 63.5264 -2.30834 4.78424 0
M  V30 717 C 62.5654 -1.74762 5.86622 0
M  V30 718 N 61.7024 -2.80855 6.43479 0
M  V30 719 H 66.5424 0.0430893 2.97969 0
M  V30 720 H 64.0794 0.0330359 1.47063 0
M  V30 721 H 66.0374 -2.39868 3.41349 0
M  V30 722 H 64.6674 -2.28742 2.27765 0
M  V30 723 H 63.7194 -0.393163 3.78363 0
M  V30 724 H 65.0314 -0.733262 4.93381 0
M  V30 725 H 64.1854 -3.0699 5.23299 0
M  V30 726 H 62.9244 -2.79204 3.99871 0
M  V30 727 H 61.9294 -0.970995 5.41158 0
M  V30 728 H 63.1544 -1.2728 6.67066 0
M  V30 729 H 61.1004 -3.28535 5.67804 0
M  V30 730 H 61.0174 -2.40351 7.16776 0
M  V30 731 H 62.2854 -3.5687 6.93011 0
M  V30 732 N 66.5145 -1.57545 0.0417849 0
M  V30 733 C 67.4645 -2.07483 -0.945247 0
M  V30 734 C 68.4485 -0.977983 -1.27767 0
M  V30 735 O 69.6405 -1.24142 -1.26166 0
M  V30 736 C 66.7695 -2.61576 -2.22335 0
M  V30 737 C 65.8555 -3.78213 -1.91874 0
M  V30 738 N 66.2465 -4.88344 -1.31733 0
M  V30 739 C 64.5445 -3.8694 -2.21796 0
M  V30 740 C 65.2455 -5.69462 -1.1869 0
M  V30 741 N 64.2215 -5.16771 -1.68666 0
M  V30 742 H 68.0235 -2.90029 -0.475441 0
M  V30 743 H 65.5375 -1.61581 -0.162911 0
M  V30 744 H 67.5345 -2.95651 -2.93932 0
M  V30 745 H 66.1945 -1.80465 -2.69931 0
M  V30 746 H 67.2055 -5.08335 -0.990729 0
M  V30 747 H 63.8825 -3.16757 -2.71977 0
M  V30 748 H 65.2725 -6.68023 -0.720793 0
M  V30 749 N 67.9926 0.231505 -1.5589 0
M  V30 750 C 68.9246 1.31006 -1.8807 0
M  V30 751 C 69.9376 1.43539 -0.768145 0
M  V30 752 O 71.1266 1.44614 -1.04638 0
M  V30 753 C 68.2266 2.68688 -2.06543 0
M  V30 754 C 67.3996 2.78228 -3.37502 0
M  V30 755 C 66.4586 3.96857 -3.4553 0
M  V30 756 O 65.4846 3.85662 -4.18633 0
M  V30 757 N 66.6866 5.1072 -2.75944 0
M  V30 758 H 69.4516 1.03731 -2.81176 0
M  V30 759 H 67.0126 0.421573 -1.56315 0
M  V30 760 H 69.0046 3.46412 -2.09239 0
M  V30 761 H 67.5746 2.88605 -1.20109 0
M  V30 762 H 66.7946 1.87059 -3.46991 0
M  V30 763 H 68.0826 2.81564 -4.23791 0
M  V30 764 H 67.4806 5.2271 -2.16311 0
M  V30 765 H 66.0376 5.86523 -2.84314 0
M  V30 766 N 69.4707 1.49531 0.497807 0
M  V30 767 C 70.8867 1.36365 0.829266 0
M  V30 768 C 71.0867 0.399184 1.97506 0
M  V30 769 O 70.1427 -0.167977 2.51941 0
M  V30 770 C 71.4557 2.77153 1.16647 0
M  V30 771 C 73.0037 2.85877 1.27449 0
M  V30 772 C 73.4787 4.2744 1.64497 0
M  V30 773 N 74.9697 4.30265 1.7154 0
M  V30 774 C 75.7047 5.3677 2.01656 0
M  V30 775 N 75.2007 6.53516 2.29976 0
M  V30 776 N 76.9937 5.24189 2.02934 0
M  V30 777 H 69.1447 2.10831 -0.257703 0
M  V30 778 H 71.4077 0.946534 -0.0527091 0
M  V30 779 H 71.1137 3.49442 0.397872 0
M  V30 780 H 70.9877 3.12722 2.10915 0
M  V30 781 H 73.3747 2.13824 2.0338 0
M  V30 782 H 73.4557 2.53887 0.312244 0
M  V30 783 H 73.0997 5.00021 0.891151 0
M  V30 784 H 73.0297 4.56896 2.61827 0
M  V30 785 H 75.5207 3.4607 1.51802 0
M  V30 786 H 75.8337 7.30506 2.52153 0
M  V30 787 H 74.1787 6.56737 2.27425 0
M  V30 788 H 77.3697 4.31988 1.80289 0
M  V30 789 H 77.5427 6.07286 2.26071 0
M  V30 790 N 70.9488 -0.749086 1.3866 0
M  V30 791 C 71.9118 -1.84457 1.36045 0
M  V30 792 C 72.9118 -1.58682 0.260122 0
M  V30 793 O 74.1018 -1.66343 0.517261 0
M  V30 794 C 71.2338 -3.22008 1.11911 0
M  V30 795 H 72.4268 -1.88182 2.33512 0
M  V30 796 H 69.9798 -0.951266 1.24019 0
M  V30 797 H 70.7148 -3.2395 0.150686 0
M  V30 798 H 70.4998 -3.42111 1.91579 0
M  V30 799 H 71.9898 -4.0208 1.12788 0
M  V30 800 N 72.4269 -1.23603 -0.977757 0
M  V30 801 C 73.3739 -1.01954 -2.07061 0
M  V30 802 C 74.3439 0.0638697 -1.65977 0
M  V30 803 O 75.5289 -0.0887624 -1.90593 0
M  V30 804 C 72.6689 -0.619658 -3.39491 0
M  V30 805 C 71.7819 -1.77547 -3.93829 0
M  V30 806 C 70.9169 -1.32212 -5.14484 0
M  V30 807 C 69.9559 -2.44852 -5.60994 0
M  V30 808 N 69.0929 -2.00456 -6.72876 0
M  V30 809 H 73.9329 -1.95495 -2.24913 0
M  V30 810 H 71.4699 -0.973861 -1.10247 0
M  V30 811 H 73.4279 -0.368898 -4.15566 0
M  V30 812 H 72.0579 0.278752 -3.21594 0
M  V30 813 H 71.1099 -2.14016 -3.14486 0
M  V30 814 H 72.4219 -2.62219 -4.24314 0
M  V30 815 H 71.5759 -1.02965 -5.97899 0
M  V30 816 H 70.3149 -0.445808 -4.85658 0
M  V30 817 H 69.3199 -2.74871 -4.76157 0
M  V30 818 H 70.5449 -3.33024 -5.91837 0
M  V30 819 H 68.4909 -1.15208 -6.45804 0
M  V30 820 H 68.4079 -2.78687 -7.02759 0
M  V30 821 H 69.6759 -1.7432 -7.59758 0
M  V30 822 N 73.905 1.17692 -1.04816 0
M  V30 823 C 75.321 1.39863 -0.768794 0
M  V30 824 C 75.521 1.91118 0.638451 0
M  V30 825 O 74.577 2.10036 1.40146 0
M  V30 826 C 75.89 2.39274 -1.82122 0
M  V30 827 C 77.438 2.52987 -1.843 0
M  V30 828 C 77.913 3.55669 -2.88555 0
M  V30 829 N 79.404 3.63183 -2.87493 0
M  V30 830 C 80.139 4.42381 -3.64811 0
M  V30 831 N 79.635 5.25125 -4.51903 0
M  V30 832 N 81.428 4.37217 -3.53267 0
M  V30 833 H 73.579 0.82752 -1.95617 0
M  V30 834 H 75.842 0.426123 -0.846831 0
M  V30 835 H 75.548 2.08678 -2.83102 0
M  V30 836 H 75.422 3.38725 -1.65967 0
M  V30 837 H 77.809 2.82896 -0.839869 0
M  V30 838 H 77.89 1.53623 -2.04532 0
M  V30 839 H 77.534 3.26499 -3.89051 0
M  V30 840 H 77.464 4.54728 -2.65575 0
M  V30 841 H 79.955 3.04103 -2.24343 0
M  V30 842 H 80.268 5.82728 -5.07591 0
M  V30 843 H 78.613 5.24519 -4.55966 0
M  V30 844 H 81.804 3.71626 -2.84625 0
M  V30 845 H 81.977 4.98696 -4.13771 0
M  V30 846 N 75.3831 0.828654 1.34056 0
M  V30 847 C 76.3461 0.259927 2.27721 0
M  V30 848 C 77.3461 -0.565478 1.50529 0
M  V30 849 O 78.5361 -0.38075 1.69988 0
M  V30 850 C 75.6681 -0.634944 3.34935 0
M  V30 851 H 76.8611 1.0863 2.79534 0
M  V30 852 H 74.4141 0.600951 1.44285 0
M  V30 853 H 75.1491 -1.48416 2.88346 0
M  V30 854 H 74.9341 -0.0444999 3.92075 0
M  V30 855 H 76.4241 -1.02648 4.04788 0
M  V30 856 N 76.8612 -1.46375 0.584142 0
M  V30 857 C 78.1072 -2.02678 0.0703716 0
M  V30 858 C 78.4402 -1.4545 -1.28678 0
M  V30 859 O 77.7152 -0.62014 -1.84349 0
M  V30 860 C 77.9982 -3.60099 0.00614674 0
M  V30 861 C 77.8512 -4.27709 1.3923 0
M  V30 862 C 79.1702 -4.34598 -0.693742 0
M  V30 863 H 76.2892 -0.736504 0.027047 0
M  V30 864 H 78.9312 -1.74501 0.751615 0
M  V30 865 H 77.0812 -3.84236 -0.574009 0
M  V30 866 H 78.7532 -4.14832 2.01773 0
M  V30 867 H 76.9962 -3.87016 1.95962 0
M  V30 868 H 77.6672 -5.36478 1.29982 0
M  V30 869 H 80.1432 -4.15615 -0.200869 0
M  V30 870 H 79.0192 -5.44318 -0.707714 0
M  V30 871 H 79.2802 -4.05759 -1.75533 0
M  V30 872 N 78.3393 -0.321999 -1.54275 0
M  V30 873 C 79.5643 0.285791 -2.05422 0
M  V30 874 C 79.9893 1.45124 -1.19669 0
M  V30 875 O 79.3473 1.80132 -0.205441 0
M  V30 876 C 79.3953 0.69956 -3.53749 0
M  V30 877 O 78.4993 1.8021 -3.70942 0
M  V30 878 H 77.8403 0.0518962 -0.661969 0
M  V30 879 H 80.3703 -0.469954 -1.9913 0
M  V30 880 H 80.3803 0.982649 -3.9599 0
M  V30 881 H 79.0553 -0.152864 -4.15619 0
M  V30 882 H 77.6323 1.51794 -3.40607 0
M  V30 883 N 79.8174 1.5752 -0.0501392 0
M  V30 884 C 80.7674 2.07981 0.934231 0
M  V30 885 C 81.7514 0.984745 1.27246 0
M  V30 886 O 82.9434 1.24809 1.25506 0
M  V30 887 C 80.0724 2.62751 2.20945 0
M  V30 888 C 79.1584 3.79225 1.89865 0
M  V30 889 N 79.5494 4.89036 1.29142 0
M  V30 890 C 77.8474 3.88111 2.19741 0
M  V30 891 C 78.5484 5.70084 1.15669 0
M  V30 892 N 77.5244 5.17659 1.65923 0
M  V30 893 H 81.3264 2.90277 0.460053 0
M  V30 894 H 78.8404 1.61665 0.15434 0
M  V30 895 H 80.8374 2.97205 2.9236 0
M  V30 896 H 79.4974 1.81894 2.6897 0
M  V30 897 H 80.5084 5.08854 0.963756 0
M  V30 898 H 77.1854 3.18194 2.70293 0
M  V30 899 H 78.5754 6.68395 0.685356 0
M  V30 900 N 81.2955 -0.223234 1.56011 0
M  V30 901 C 82.2055 -1.29766 1.95443 0
M  V30 902 C 83.2215 -1.51373 0.858028 0
M  V30 903 O 84.3975 -1.64536 1.16146 0
M  V30 904 C 81.4625 -2.62772 2.26167 0
M  V30 905 C 80.5235 -2.49482 3.49367 0
M  V30 906 C 79.7565 -3.76145 3.78616 0
M  V30 907 O 79.9795 -4.79087 3.09568 0
M  V30 908 O 78.9135 -3.73358 4.72109 0
M  V30 909 H 82.7395 -0.99309 2.87004 0
M  V30 910 H 80.3245 -0.425958 1.43199 0
M  V30 911 H 82.2065 -3.41327 2.47131 0
M  V30 912 H 80.8815 -2.92913 1.37781 0
M  V30 913 H 79.7885 -1.69133 3.33684 0
M  V30 914 H 81.1215 -2.2428 4.38131 0
M  V30 915 N 82.7736 -1.49793 -0.48987 0
M  V30 916 C 84.0506 -1.50348 -1.25119 0
M  V30 917 C 84.4306 -0.237466 -2.0976 0
M  V30 918 O 83.7786 0.77981 -2.14782 0
M  V30 919 C 83.9886 -2.78872 -2.09837 0
M  V30 920 C 85.3366 -3.288 -2.68655 0
M  V30 921 O 86.3606 -2.80065 -2.20096 0
M  V30 922 O 85.2196 -4.13707 -3.57083 0
M  V30 923 H 82.3136 -0.602242 -0.566775 0
M  V30 924 H 84.8596 -1.62067 -0.503229 0
M  V30 925 H 83.6316 -3.62499 -1.47343 0
M  V30 926 H 83.2546 -2.70066 -2.91805 0
M  V30 927 N 84.2517 0.741722 -1.39055 0
M  V30 928 C 85.1837 1.8657 -1.33133 0
M  V30 929 C 86.1967 1.61001 -0.241329 0
M  V30 930 O 87.3857 1.7136 -0.499784 0
M  V30 931 C 84.4857 3.22457 -1.04283 0
M  V30 932 C 83.6587 3.75435 -2.24427 0
M  V30 933 C 82.7177 4.89867 -1.92138 0
M  V30 934 O 81.7437 5.03879 -2.64754 0
M  V30 935 N 82.9457 5.73738 -0.88347 0
M  V30 936 H 85.7107 1.92156 -2.29991 0
M  V30 937 H 83.2717 0.922172 -1.3307 0
M  V30 938 H 85.2637 3.9657 -0.807128 0
M  V30 939 H 83.8337 3.12181 -0.161807 0
M  V30 940 H 83.0537 2.92751 -2.6399 0
M  V30 941 H 84.3417 4.07563 -3.04581 0
M  V30 942 H 83.7397 5.64999 -0.281517 0
M  V30 943 H 82.2967 6.47947 -0.707662 0
M  V30 944 N 85.7298 1.2412 0.971189 0
M  V30 945 C 86.9768 1.07881 1.71371 0
M  V30 946 C 87.3048 -0.382901 1.90694 0
M  V30 947 O 86.5598 -1.29945 1.46331 0
M  V30 948 C 86.8588 1.75983 3.11071 0
M  V30 949 C 86.5248 3.25909 3.11599 0
M  V30 950 C 85.1868 3.66813 3.11451 0
M  V30 951 C 87.5388 4.21771 3.062 0
M  V30 952 C 84.8668 5.02021 3.03631 0
M  V30 953 C 87.2188 5.56982 2.99923 0
M  V30 954 C 85.8828 5.97237 2.98102 0
M  V30 955 H 85.1528 0.394764 0.62709 0
M  V30 956 H 87.7998 1.54176 1.13587 0
M  V30 957 H 86.1048 1.22072 3.72298 0
M  V30 958 H 87.8018 1.60887 3.6731 0
M  V30 959 H 84.3918 2.93353 3.12477 0
M  V30 960 H 88.5758 3.91172 3.05447 0
M  V30 961 H 83.8318 5.32411 3.0058 0
M  V30 962 H 88.0058 6.30969 2.94704 0
M  V30 963 H 85.6328 7.01967 2.91798 0
M  V30 964 N 87.2079 -1.17134 1.05439 0
M  V30 965 C 88.1379 -2.2342 0.678649 0
M  V30 966 C 89.1189 -1.66971 -0.32476 0
M  V30 967 O 90.3039 -1.93149 -0.201802 0
M  V30 968 C 87.4339 -3.47256 0.0552099 0
M  V30 969 C 86.3879 -4.16543 0.98365 0
M  V30 970 C 85.7139 -5.34231 0.223961 0
M  V30 971 C 87.0139 -4.68495 2.3089 0
M  V30 972 H 88.7079 -2.55105 1.56722 0
M  V30 973 H 86.2539 -1.2262 0.754998 0
M  V30 974 H 88.2069 -4.20828 -0.21946 0
M  V30 975 H 86.9309 -3.14846 -0.868319 0
M  V30 976 H 85.5899 -3.44887 1.24293 0
M  V30 977 H 85.2379 -4.98071 -0.702412 0
M  V30 978 H 84.9379 -5.81527 0.842627 0
M  V30 979 H 86.4619 -6.10585 -0.0433671 0
M  V30 980 H 87.8759 -5.33691 2.09396 0
M  V30 981 H 86.2729 -5.26379 2.88176 0
M  V30 982 H 87.3429 -3.85169 2.94572 0
M  V30 983 N 88.686 -0.835752 -1.33615 0
M  V30 984 C 90.102 -0.523139 -1.50783 0
M  V30 985 C 90.302 0.950171 -1.77691 0
M  V30 986 O 89.358 1.73411 -1.83534 0
M  V30 987 C 90.671 -1.39378 -2.66448 0
M  V30 988 C 92.219 -1.39223 -2.80332 0
M  V30 989 C 92.694 -2.24765 -3.99055 0
M  V30 990 N 94.185 -2.22458 -4.06284 0
M  V30 991 C 94.92 -2.85386 -4.97336 0
M  V30 992 N 94.416 -3.57354 -5.93523 0
M  V30 993 N 96.209 -2.74872 -4.90308 0
M  V30 994 H 88.36 -1.78952 -1.14411 0
M  V30 995 H 90.623 -0.763297 -0.562212 0
M  V30 996 H 90.329 -2.44061 -2.53234 0
M  V30 997 H 90.203 -1.0676 -3.61776 0
M  V30 998 H 92.59 -0.353136 -2.92979 0
M  V30 999 H 92.671 -1.75846 -1.85773 0
M  V30 1000 H 92.315 -3.28732 -3.87167 0
M  V30 1001 H 92.245 -1.85485 -4.92852 0
M  V30 1002 H 94.736 -1.70119 -3.37443 0
M  V30 1003 H 95.049 -4.02584 -6.59656 0
M  V30 1004 H 93.394 -3.61461 -5.93608 0
M  V30 1005 H 96.585 -2.18213 -4.14126 0
M  V30 1006 H 96.758 -3.24199 -5.61069 0
M  V30 1007 N 90.1641 1.46063 -0.591896 0
M  V30 1008 C 91.0941 2.33172 0.123673 0
M  V30 1009 C 92.0751 1.45897 0.87453 0
M  V30 1010 O 93.2601 1.74698 0.848181 0
M  V30 1011 C 90.3901 3.28336 1.13194 0
M  V30 1012 C 89.3441 4.25124 0.495324 0
M  V30 1013 C 88.6701 5.09863 1.61071 0
M  V30 1014 C 89.9701 5.19143 -0.573425 0
M  V30 1015 H 91.6641 2.93252 -0.603646 0
M  V30 1016 H 89.2101 1.41014 -0.291741 0
M  V30 1017 H 91.1631 3.88137 1.64097 0
M  V30 1018 H 89.8871 2.66383 1.88965 0
M  V30 1019 H 88.5461 3.66599 0.00729452 0
M  V30 1020 H 88.1941 4.44288 2.35832 0
M  V30 1021 H 87.8941 5.75417 1.19035 0
M  V30 1022 H 89.4181 5.72529 2.12233 0
M  V30 1023 H 90.8321 5.73106 -0.1491 0
M  V30 1024 H 89.2291 5.93089 -0.914636 0
M  V30 1025 H 90.2991 4.62519 -1.45617 0
M  V30 1026 N 91.6422 0.330177 1.54103 0
M  V30 1027 C 92.9192 -0.325007 1.92881 0
M  V30 1028 C 93.2992 -1.6934 1.26045 0
M  V30 1029 O 92.6472 -2.24855 0.406526 0
M  V30 1030 C 92.8572 -0.410634 3.46576 0
M  V30 1031 C 94.2052 -0.667801 4.19316 0
M  V30 1032 O 95.2292 -0.49329 3.52768 0
M  V30 1033 O 94.0882 -1.00491 5.37181 0
M  V30 1034 H 91.1822 -0.186873 0.80561 0
M  V30 1035 H 93.7282 0.380376 1.65382 0
M  V30 1036 H 92.5002 0.550164 3.87413 0
M  V30 1037 H 92.1232 -1.16333 3.802 0
M  V30 1038 N 93.1203 -1.57491 0.0584922 0
M  V30 1039 C 94.3673 -1.92978 -0.613648 0
M  V30 1040 C 94.6953 -0.937461 -1.70417 0
M  V30 1041 O 93.9503 0.049078 -1.95638 0
M  V30 1042 C 94.2493 -3.3513 -1.24188 0
M  V30 1043 C 93.9153 -4.50037 -0.278826 0
M  V30 1044 C 92.5773 -4.81198 -0.0138447 0
M  V30 1045 C 94.9293 -5.19807 0.380777 0
M  V30 1046 C 92.2573 -5.79473 0.918052 0
M  V30 1047 C 94.6093 -6.19079 1.30091 0
M  V30 1048 C 93.2733 -6.48665 1.57449 0
M  V30 1049 H 92.5433 -0.706157 -0.22455 0
M  V30 1050 H 95.1903 -1.91082 0.126533 0
M  V30 1051 H 93.4953 -3.33429 -2.05749 0
M  V30 1052 H 95.1923 -3.59871 -1.769 0
M  V30 1053 H 91.7823 -4.25726 -0.495539 0
M  V30 1054 H 95.9663 -4.95939 0.189158 0
M  V30 1055 H 91.2223 -6.00727 1.1374 0
M  V30 1056 H 95.3963 -6.7225 1.81804 0
M  V30 1057 H 93.0233 -7.24628 2.29822 0
M  V30 1058 N 94.5984 0.214957 -1.56127 0
M  V30 1059 C 95.5484 1.27006 -1.8935 0
M  V30 1060 C 96.5324 1.41969 -0.757202 0
M  V30 1061 O 97.7244 1.44673 -1.01973 0
M  V30 1062 C 94.8534 2.61911 -2.2194 0
M  V30 1063 C 93.9394 2.50822 -3.41978 0
M  V30 1064 N 94.3304 2.09391 -4.60423 0
M  V30 1065 C 92.6284 2.81765 -3.45723 0
M  V30 1066 C 93.3294 2.09712 -5.42582 0
M  V30 1067 N 92.3054 2.50454 -4.82466 0
M  V30 1068 H 96.1074 0.940734 -2.78437 0
M  V30 1069 H 93.6214 0.423492 -1.56781 0
M  V30 1070 H 95.6184 3.38096 -2.43919 0
M  V30 1071 H 94.2784 2.95684 -1.34169 0
M  V30 1072 H 95.2894 1.80416 -4.85459 0
M  V30 1073 H 91.9664 3.19865 -2.68314 0
M  V30 1074 H 93.3564 1.79748 -6.4741 0
M  V30 1075 N 96.0765 1.50051 0.48192 0
M  V30 1076 C 97.0395 1.67584 1.5636 0
M  V30 1077 C 98.0395 0.546894 1.51214 0
M  V30 1078 O 99.2295 0.813725 1.54026 0
M  V30 1079 C 96.3615 1.691 2.96003 0
M  V30 1080 H 97.5545 2.64078 1.42136 0
M  V30 1081 H 95.1075 1.39369 0.707533 0
M  V30 1082 H 95.8425 0.742589 3.15684 0
M  V30 1083 H 95.6275 2.51105 3.01146 0
M  V30 1084 H 97.1175 1.84656 3.74556 0
M  V30 1085 N 97.5546 -0.734337 1.39446 0
M  V30 1086 C 98.5046 -1.83949 1.34709 0
M  V30 1087 C 99.4886 -1.59279 0.227851 0
M  V30 1088 O 100.681 -1.70771 0.465438 0
M  V30 1089 C 97.8096 -3.21884 1.19356 0
M  V30 1090 C 96.8956 -3.52381 2.35984 0
M  V30 1091 N 97.2866 -3.53811 3.61457 0
M  V30 1092 C 95.5846 -3.82747 2.28956 0
M  V30 1093 C 96.2856 -3.82122 4.38586 0
M  V30 1094 N 95.2616 -3.9993 3.68181 0
M  V30 1095 H 99.0636 -1.83361 2.29687 0
M  V30 1096 H 96.5776 -0.932609 1.32952 0
M  V30 1097 H 98.5746 -4.00998 1.14046 0
M  V30 1098 H 97.2346 -3.23711 0.253295 0
M  V30 1099 H 98.2456 -3.35107 3.94872 0
M  V30 1100 H 94.9226 -3.92175 1.43194 0
M  V30 1101 H 96.3126 -3.89691 5.47349 0
M  V30 1102 N 99.0327 -1.24633 -0.964593 0
M  V30 1103 C 100.281 -1.08573 -1.70459 0
M  V30 1104 C 100.602 0.375655 -1.91347 0
M  V30 1105 O 99.8717 1.26779 -1.49345 0
M  V30 1106 H 98.4517 -0.398784 -0.631649 0
M  V30 1107 H 101.114 -1.56601 -1.16026 0
M  V30 1108 H 100.21 -1.58623 -2.68785 0
M  V30 1109 N 100.511 1.16574 -1.06058 0
M  V30 1110 C 101.927 1.3904 -0.783585 0
M  V30 1111 C 102.127 1.91784 0.618145 0
M  V30 1112 O 101.183 2.11511 1.37911 0
M  V30 1113 C 102.496 2.37329 -1.84649 0
M  V30 1114 C 104.044 2.51018 -1.86973 0
M  V30 1115 C 104.519 3.52588 -2.92311 0
M  V30 1116 N 106.01 3.60113 -2.91329 0
M  V30 1117 C 106.745 4.38486 -3.69482 0
M  V30 1118 N 106.241 5.20302 -4.57447 0
M  V30 1119 N 108.034 4.33446 -3.57885 0
M  V30 1120 H 100.185 0.806725 -1.96483 0
M  V30 1121 H 102.448 0.417117 -0.851303 0
M  V30 1122 H 102.154 2.05663 -2.85299 0
M  V30 1123 H 102.028 3.36946 -1.6955 0
M  V30 1124 H 104.415 2.81989 -0.869827 0
M  V30 1125 H 104.496 1.51445 -2.0615 0
M  V30 1126 H 104.14 3.22354 -3.92492 0
M  V30 1127 H 104.07 4.51886 -2.70383 0
M  V30 1128 H 106.561 3.01707 -2.27555 0
M  V30 1129 H 106.874 5.77311 -5.13743 0
M  V30 1130 H 105.219 5.19653 -4.61503 0
M  V30 1131 H 108.41 3.68586 -2.88551 0
M  V30 1132 H 108.583 4.94279 -4.19037 0
M  V30 1133 N 101.989 0.842826 1.3317 0
M  V30 1134 C 102.939 0.250877 2.26616 0
M  V30 1135 C 103.923 -0.596427 1.49437 0
M  V30 1136 O 105.115 -0.447747 1.71243 0
M  V30 1137 C 102.244 -0.569779 3.38539 0
M  V30 1138 C 101.33 0.289254 4.23112 0
M  V30 1139 N 101.721 1.36987 4.86897 0
M  V30 1140 C 100.019 0.0769631 4.45934 0
M  V30 1141 C 100.72 1.89737 5.49886 0
M  V30 1142 N 99.6959 1.19827 5.30229 0
M  V30 1143 H 103.498 1.07718 2.73448 0
M  V30 1144 H 101.012 0.687693 1.47121 0
M  V30 1145 H 103.009 -1.01018 4.04476 0
M  V30 1146 H 101.669 -1.39401 2.93253 0
M  V30 1147 H 102.68 1.75277 4.87338 0
M  V30 1148 H 99.3569 -0.713507 4.11358 0
M  V30 1149 H 100.747 2.80253 6.10662 0
M  V30 1150 N 103.467 -1.45747 0.599634 0
M  V30 1151 C 104.714 -2.02292 0.0917284 0
M  V30 1152 C 105.042 -1.46906 -1.27472 0
M  V30 1153 O 104.297 -0.630652 -1.8526 0
M  V30 1154 C 104.596 -3.57399 -0.00602758 0
M  V30 1155 C 104.262 -4.31902 1.29503 0
M  V30 1156 C 102.924 -4.51974 1.65144 0
M  V30 1157 C 105.276 -4.74551 2.15525 0
M  V30 1158 C 102.604 -5.11949 2.86574 0
M  V30 1159 C 104.956 -5.35868 3.36196 0
M  V30 1160 C 103.62 -5.54165 3.72099 0
M  V30 1161 H 102.89 -0.740239 0.0335658 0
M  V30 1162 H 105.537 -1.7491 0.779661 0
M  V30 1163 H 103.842 -3.84014 -0.777183 0
M  V30 1164 H 105.539 -3.98846 -0.415038 0
M  V30 1165 H 102.129 -4.16588 1.00761 0
M  V30 1166 H 106.313 -4.58784 1.8929 0
M  V30 1167 H 101.569 -5.24305 3.14507 0
M  V30 1168 H 105.743 -5.6787 4.03109 0
M  V30 1169 H 103.37 -6.00406 4.6628 0
M  V30 1170 N 104.945 -0.338344 -1.53925 0
M  V30 1171 C 105.893 0.536231 -2.26335 0
M  V30 1172 C 106.887 1.1063 -1.28286 0
M  V30 1173 O 108.093 1.05264 -1.46012 0
M  V30 1174 H 104.468 0.191602 -0.727181 0
M  V30 1175 H 106.439 -0.0965747 -2.98244 0
M  V30 1176 C 105.188 1.67803 -3.04528 0
M  V30 1177 H 104.511 1.24864 -3.79801 0
M  V30 1178 H 105.951 2.26526 -3.58416 0
M  V30 1179 C 104.41 2.60439 -2.13712 0
M  V30 1180 O 104.94 3.6255 -1.72975 0
M  V30 1181 N 103.146 2.29006 -1.78898 0
M  V30 1182 H 102.693 1.46011 -2.12223 0
M  V30 1183 H 102.651 2.91248 -1.18416 0
M  V30 1184 N 106.423 1.57458 -0.0668435 0
M  V30 1185 C 107.353 2.15468 0.899764 0
M  V30 1186 C 108.334 1.08042 1.31381 0
M  V30 1187 O 109.519 1.36054 1.38574 0
M  V30 1188 C 106.649 2.71232 2.16911 0
M  V30 1189 C 105.603 3.83781 1.89463 0
M  V30 1190 C 104.929 4.26127 3.22986 0
M  V30 1191 C 106.229 5.08238 1.20381 0
M  V30 1192 H 107.923 2.96488 0.416529 0
M  V30 1193 H 105.469 1.4262 0.198908 0
M  V30 1194 H 107.422 3.10458 2.84945 0
M  V30 1195 H 106.146 1.87426 2.67468 0
M  V30 1196 H 104.805 3.45051 1.23836 0
M  V30 1197 H 104.453 3.39249 3.71374 0
M  V30 1198 H 104.153 5.01993 3.05413 0
M  V30 1199 H 105.677 4.67966 3.92225 0
M  V30 1200 H 107.091 5.44811 1.78475 0
M  V30 1201 H 105.488 5.89349 1.13083 0
M  V30 1202 H 106.558 4.84558 0.182153 0
M  V30 1203 N 107.901 -0.206675 1.56239 0
M  V30 1204 C 109.317 -0.557025 1.49564 0
M  V30 1205 C 109.517 -1.86424 0.764735 0
M  V30 1206 O 108.573 -2.50584 0.310491 0
M  V30 1207 C 109.886 -0.622478 2.94186 0
M  V30 1208 C 111.434 -0.712099 3.04792 0
M  V30 1209 C 111.909 -0.808767 4.50803 0
M  V30 1210 N 113.4 -0.8726 4.54907 0
M  V30 1211 C 114.135 -0.967365 5.65181 0
M  V30 1212 N 113.631 -1.02515 6.85173 0
M  V30 1213 N 115.424 -1.00366 5.53067 0
M  V30 1214 H 107.575 0.650943 2.02179 0
M  V30 1215 H 109.838 0.230387 0.919579 0
M  V30 1216 H 109.544 0.268727 3.50672 0
M  V30 1217 H 109.418 -1.4811 3.46905 0
M  V30 1218 H 111.805 -1.59374 2.48363 0
M  V30 1219 H 111.886 0.172489 2.55218 0
M  V30 1220 H 111.53 0.0684754 5.07854 0
M  V30 1221 H 111.46 -1.70899 4.98098 0
M  V30 1222 H 113.951 -0.837657 3.68499 0
M  V30 1223 H 114.264 -1.09765 7.64965 0
M  V30 1224 H 112.609 -0.994026 6.87855 0
M  V30 1225 H 115.8 -0.95527 4.58249 0
M  V30 1226 H 115.973 -1.07405 6.39037 0
M  V30 1227 N 109.379 -1.50304 -0.473955 0
M  V30 1228 C 110.312 -1.63595 -1.59097 0
M  V30 1229 C 111.29 -0.484142 -1.55225 0
M  V30 1230 O 112.474 -0.703271 -1.7489 0
M  V30 1231 C 109.601 -1.61589 -2.97669 0
M  V30 1232 C 108.647 -2.82295 -3.19705 0
M  V30 1233 S 109.48 -4.43635 -2.99913 0
M  V30 1234 C 110.636 -4.44317 -4.40832 0
M  V30 1235 H 110.869 -2.58082 -1.47583 0
M  V30 1236 H 108.402 -1.39531 -0.661087 0
M  V30 1237 H 110.36 -1.61116 -3.7756 0
M  V30 1238 H 109.021 -0.683421 -3.06575 0
M  V30 1239 H 108.214 -2.77188 -4.20931 0
M  V30 1240 H 107.816 -2.8032 -2.47582 0
M  V30 1241 H 110.108 -4.17703 -5.33414 0
M  V30 1242 H 111.051 -5.45911 -4.50984 0
M  V30 1243 H 111.459 -3.74059 -4.22777 0
M  V30 1244 N 110.857 0.726932 -1.39834 0
M  V30 1245 C 111.804 1.841 -1.39197 0
M  V30 1246 C 112.774 1.642 -0.250502 0
M  V30 1247 O 113.959 1.85494 -0.446846 0
M  V30 1248 C 111.099 3.21697 -1.24919 0
M  V30 1249 C 110.212 3.53247 -2.48678 0
M  V30 1250 C 109.347 4.80289 -2.26928 0
M  V30 1251 C 108.386 5.04707 -3.4632 0
M  V30 1252 N 107.523 6.22956 -3.23836 0
M  V30 1253 H 112.363 1.83979 -2.34427 0
M  V30 1254 H 109.9 0.898876 -1.16442 0
M  V30 1255 H 111.858 4.01137 -1.1465 0
M  V30 1256 H 110.488 3.21076 -0.333153 0
M  V30 1257 H 109.54 2.68447 -2.69519 0
M  V30 1258 H 110.852 3.67205 -3.37582 0
M  V30 1259 H 110.006 5.67725 -2.13947 0
M  V30 1260 H 108.745 4.68519 -1.35431 0
M  V30 1261 H 107.75 4.1573 -3.5979 0
M  V30 1262 H 108.975 5.18357 -4.38729 0
M  V30 1263 H 106.921 6.12459 -2.35011 0
M  V30 1264 H 106.838 6.37539 -4.063 0
M  V30 1265 H 108.106 7.1321 -3.14566 0
M  V30 1266 N 112.336 1.25143 0.95797 0
M  V30 1267 C 113.752 1.01892 1.22842 0
M  V30 1268 C 113.952 -0.266311 1.99732 0
M  V30 1269 O 113.008 -0.979913 2.3271 0
M  V30 1270 C 114.321 2.24004 2.00606 0
M  V30 1271 C 115.869 2.28731 2.13662 0
M  V30 1272 C 116.344 3.5049 2.94823 0
M  V30 1273 N 117.835 3.50866 3.02403 0
M  V30 1274 C 118.57 4.4174 3.65586 0
M  V30 1275 N 118.066 5.42882 4.30408 0
M  V30 1276 N 119.859 4.29429 3.62694 0
M  V30 1277 H 112.01 2.07718 0.443493 0
M  V30 1278 H 114.273 0.912031 0.258657 0
M  V30 1279 H 113.979 3.17395 1.51503 0
M  V30 1280 H 113.853 2.26907 3.01319 0
M  V30 1281 H 116.24 1.35865 2.61963 0
M  V30 1282 H 116.321 2.29848 1.12265 0
M  V30 1283 H 115.965 4.43676 2.47213 0
M  V30 1284 H 115.895 3.46617 3.96439 0
M  V30 1285 H 118.386 2.777 2.56302 0
M  V30 1286 H 118.699 6.0844 4.76467 0
M  V30 1287 H 117.044 5.46758 4.29047 0
M  V30 1288 H 120.235 3.49643 3.11236 0
M  V30 1289 H 120.408 5.00448 4.1165 0
M  V30 1290 N 113.814 -1.1601 1.06675 0
M  V30 1291 C 115.091 -1.82679 0.699114 0
M  V30 1292 C 115.471 -1.94559 -0.819137 0
M  V30 1293 O 114.819 -1.49169 -1.73092 0
M  V30 1294 C 115.029 -3.19445 1.40555 0
M  V30 1295 C 116.377 -3.95171 1.55323 0
M  V30 1296 O 117.401 -3.28976 1.36577 0
M  V30 1297 O 116.26 -5.13833 1.86112 0
M  V30 1298 H 113.354 -0.788954 0.247951 0
M  V30 1299 H 115.9 -1.23179 1.16726 0
M  V30 1300 H 114.672 -3.05856 2.44065 0
M  V30 1301 H 114.295 -3.86625 0.927733 0
M  V30 1302 N 115.292 -0.849877 -1.32721 0
M  V30 1303 C 116.52 -0.464754 -2.01613 0
M  V30 1304 C 116.935 0.937191 -1.63897 0
M  V30 1305 O 116.292 1.61081 -0.857856 0
M  V30 1306 C 116.343 -0.588638 -3.56675 0
M  V30 1307 O 116.064 -1.93535 -3.93034 0
M  V30 1308 C 117.565 -0.2019 -4.4284 0
M  V30 1309 H 114.785 -0.183215 -0.645502 0
M  V30 1310 H 117.329 -1.1455 -1.69407 0
M  V30 1311 H 115.484 0.0443159 -3.87375 0
M  V30 1312 H 115.898 -1.92871 -4.87751 0
M  V30 1313 H 117.372 -0.339599 -5.50954 0
M  V30 1314 H 117.849 0.857224 -4.30753 0
M  V30 1315 H 118.455 -0.809733 -4.17521 0
M  V30 1316 N 116.77 1.45427 -0.607355 0
M  V30 1317 C 117.995 2.07124 -0.107006 0
M  V30 1318 C 118.42 1.44906 1.19933 0
M  V30 1319 O 117.778 0.541687 1.73019 0
M  V30 1320 C 117.826 3.60595 0.0194119 0
M  V30 1321 O 116.93 3.98285 1.0697 0
M  V30 1322 H 116.271 0.659868 -0.0739597 0
M  V30 1323 H 118.801 1.86683 -0.837297 0
M  V30 1324 H 118.811 4.07419 0.2177 0
M  V30 1325 H 117.486 4.05266 -0.934453 0
M  V30 1326 H 116.063 3.63133 0.847889 0
M  V30 1327 N 118.248 0.346503 1.53744 0
M  V30 1328 C 119.178 -0.501193 2.28058 0
M  V30 1329 C 120.159 -1.10014 1.29734 0
M  V30 1330 O 121.344 -1.12097 1.58581 0
M  V30 1331 C 118.474 -1.65078 3.05559 0
M  V30 1332 C 117.428 -1.18003 4.11411 0
M  V30 1333 C 116.754 -2.41837 4.76884 0
M  V30 1334 C 118.054 -0.278394 5.21558 0
M  V30 1335 H 119.748 0.11875 2.99164 0
M  V30 1336 H 117.294 0.0585531 1.43881 0
M  V30 1337 H 119.247 -2.25028 3.56287 0
M  V30 1338 H 117.971 -2.29767 2.32109 0
M  V30 1339 H 116.63 -0.603331 3.61601 0
M  V30 1340 H 116.278 -3.0494 4.00026 0
M  V30 1341 H 115.978 -2.1102 5.48402 0
M  V30 1342 H 117.502 -3.02508 5.30397 0
M  V30 1343 H 118.916 -0.784823 5.67903 0
M  V30 1344 H 117.313 -0.0619707 6.00068 0
M  V30 1345 H 118.383 0.684677 4.80042 0
M  V30 1346 N 119.726 -1.57421 0.075193 0
M  V30 1347 C 120.973 -1.93618 -0.593146 0
M  V30 1348 C 121.301 -0.955484 -1.69413 0
M  V30 1349 O 120.556 0.0283251 -1.9568 0
M  V30 1350 C 120.855 -3.36428 -1.20626 0
M  V30 1351 C 120.521 -4.50307 -0.231078 0
M  V30 1352 C 119.183 -4.81186 0.0371936 0
M  V30 1353 C 121.535 -5.19374 0.435888 0
M  V30 1354 C 118.863 -5.78466 0.979461 0
M  V30 1355 C 121.215 -6.17665 1.3665 0
M  V30 1356 C 119.879 -6.46958 1.6432 0
M  V30 1357 H 119.149 -0.708499 -0.217047 0
M  V30 1358 H 121.796 -1.90937 0.146793 0
M  V30 1359 H 120.101 -3.35592 -2.02201 0
M  V30 1360 H 121.798 -3.61727 -1.73073 0
M  V30 1361 H 118.388 -4.26227 -0.450357 0
M  V30 1362 H 122.572 -4.95711 0.241748 0
M  V30 1363 H 117.828 -5.99487 1.20106 0
M  V30 1364 H 122.002 -6.70284 1.88924 0
M  V30 1365 H 119.629 -7.2215 2.37494 0
M  V30 1366 N 121.204 0.198386 -1.56346 0
M  V30 1367 C 122.429 0.939682 -1.84891 0
M  V30 1368 C 122.854 1.76202 -0.658369 0
M  V30 1369 O 122.212 1.76993 0.392851 0
M  V30 1370 C 122.26 1.81428 -3.11635 0
M  V30 1371 O 121.364 2.91265 -2.91956 0
M  V30 1372 H 120.705 0.264807 -0.608912 0
M  V30 1373 H 123.235 0.204695 -2.03573 0
M  V30 1374 H 123.245 2.21958 -3.42343 0
M  V30 1375 H 121.92 1.21004 -3.97908 0
M  V30 1376 H 120.497 2.54514 -2.72538 0
M  V30 1377 N 122.682 1.50554 0.465978 0
M  V30 1378 C 123.959 1.5232 1.22712 0
M  V30 1379 C 124.339 0.270807 2.09356 0
M  V30 1380 O 123.687 -0.745541 2.15995 0
M  V30 1381 C 123.897 2.82175 2.05374 0
M  V30 1382 C 125.245 3.33033 2.6339 0
M  V30 1383 O 126.269 2.83531 2.15612 0
M  V30 1384 O 125.128 4.19336 3.50456 0
M  V30 1385 H 122.222 0.611183 0.557122 0
M  V30 1386 H 124.768 1.62847 0.477381 0
M  V30 1387 H 123.54 3.64797 1.41558 0
M  V30 1388 H 123.163 2.74675 2.87471 0
M  V30 1389 N 124.16 -0.719506 1.40217 0
M  V30 1390 C 125.07 -1.86378 1.42479 0
M  V30 1391 C 126.086 -1.71073 0.317834 0
M  V30 1392 O 127.262 -1.93406 0.561794 0
M  V30 1393 C 124.327 -3.22136 1.28178 0
M  V30 1394 C 123.388 -3.49723 2.48982 0
M  V30 1395 C 122.621 -4.79004 2.35353 0
M  V30 1396 O 122.844 -5.53821 1.36524 0
M  V30 1397 O 121.778 -5.06839 3.2465 0
M  V30 1398 H 125.604 -1.87425 2.38968 0
M  V30 1399 H 123.189 -0.869405 1.21498 0
M  V30 1400 H 125.071 -4.03234 1.22395 0
M  V30 1401 H 123.746 -3.21825 0.347934 0
M  V30 1402 H 122.653 -2.6865 2.60342 0
M  V30 1403 H 123.986 -3.54828 3.41113 0
M  V30 1404 N 125.638 -1.25649 -0.95132 0
M  V30 1405 C 126.885 -1.10594 -1.69633 0
M  V30 1406 C 127.213 0.352515 -1.91279 0
M  V30 1407 O 126.468 1.27601 -1.4838 0
M  V30 1408 C 126.767 -1.80909 -3.08231 0
M  V30 1409 C 126.433 -3.30825 -3.06375 0
M  V30 1410 C 125.095 -3.71722 -3.05576 0
M  V30 1411 C 127.447 -4.26589 -2.99452 0
M  V30 1412 C 124.775 -5.06788 -2.95606 0
M  V30 1413 C 127.127 -5.61683 -2.91024 0
M  V30 1414 C 125.791 -6.01904 -2.88562 0
M  V30 1415 H 125.061 -0.404691 -0.620731 0
M  V30 1416 H 127.708 -1.55964 -1.11119 0
M  V30 1417 H 126.013 -1.27979 -3.70309 0
M  V30 1418 H 127.71 -1.6671 -3.64704 0
M  V30 1419 H 124.3 -2.98287 -3.07771 0
M  V30 1420 H 128.484 -3.95982 -2.99185 0
M  V30 1421 H 123.74 -5.37126 -2.92071 0
M  V30 1422 H 127.914 -6.35578 -2.84629 0
M  V30 1423 H 125.541 -7.06521 -2.80593 0
M  V30 1424 N 127.117 1.15442 -1.07289 0
M  V30 1425 C 128.064 2.20161 -0.692653 0
M  V30 1426 C 129.034 1.63073 0.31564 0
M  V30 1427 O 130.219 1.89725 0.202235 0
M  V30 1428 C 127.359 3.44967 -0.0959509 0
M  V30 1429 C 126.472 4.16256 -1.15564 0
M  V30 1430 C 125.607 5.28609 -0.524011 0
M  V30 1431 C 124.646 5.91715 -1.56653 0
M  V30 1432 N 123.783 6.9554 -0.957531 0
M  V30 1433 H 128.623 2.52037 -1.59002 0
M  V30 1434 H 126.16 1.2378 -0.794798 0
M  V30 1435 H 128.118 4.16341 0.267628 0
M  V30 1436 H 126.748 3.1361 0.764772 0
M  V30 1437 H 125.8 3.43385 -1.6368 0
M  V30 1438 H 127.112 4.59268 -1.94613 0
M  V30 1439 H 126.266 6.06604 -0.108032 0
M  V30 1440 H 125.005 4.86787 0.29825 0
M  V30 1441 H 124.01 5.12433 -1.9923 0
M  V30 1442 H 125.235 6.35614 -2.39107 0
M  V30 1443 H 123.181 6.55814 -0.156162 0
M  V30 1444 H 123.098 7.36977 -1.68526 0
M  V30 1445 H 124.366 7.77435 -0.567032 0
M  V30 1446 N 128.595 0.856903 1.32268 0
M  V30 1447 C 129.841 0.462069 1.97466 0
M  V30 1448 C 130.174 -0.980298 1.67642 0
M  V30 1449 O 129.449 -1.68824 0.965858 0
M  V30 1450 C 129.732 0.704336 3.53145 0
M  V30 1451 C 129.585 2.19529 3.9259 0
M  V30 1452 C 130.904 0.1622 4.39801 0
M  V30 1453 H 128.023 0.169357 0.717278 0
M  V30 1454 H 130.665 1.07574 1.56614 0
M  V30 1455 H 128.815 0.181999 3.88073 0
M  V30 1456 H 130.487 2.78387 3.67829 0
M  V30 1457 H 128.73 2.67292 3.41668 0
M  V30 1458 H 129.401 2.31549 5.01088 0
M  V30 1459 H 131.877 0.608905 4.11621 0
M  V30 1460 H 130.753 0.361265 5.4771 0
M  V30 1461 H 131.014 -0.935158 4.32096 0
M  V30 1462 N 130.073 -1.45103 0.615059 0
M  V30 1463 C 130.983 -2.34382 -0.101034 0
M  V30 1464 C 131.999 -1.51681 -0.852585 0
M  V30 1465 O 133.175 -1.8446 -0.808484 0
M  V30 1466 C 130.24 -3.29417 -1.08099 0
M  V30 1467 C 129.301 -4.28025 -0.330577 0
M  V30 1468 C 128.534 -5.1852 -1.26385 0
M  V30 1469 O 128.757 -5.12598 -2.50198 0
M  V30 1470 O 127.691 -5.97122 -0.756866 0
M  V30 1471 H 131.517 -2.97033 0.632855 0
M  V30 1472 H 129.102 -1.4461 0.375293 0
M  V30 1473 H 130.984 -3.87958 -1.6452 0
M  V30 1474 H 129.659 -2.69321 -1.79577 0
M  V30 1475 H 128.566 -3.73078 0.276283 0
M  V30 1476 H 129.899 -4.90997 0.343866 0
M  V30 1477 N 131.551 -0.354651 -1.53558 0
M  V30 1478 C 132.779 0.239515 -2.05509 0
M  V30 1479 C 133.194 1.4333 -1.2289 0
M  V30 1480 O 132.551 1.80538 -0.266899 0
M  V30 1481 C 132.602 0.643719 -3.55723 0
M  V30 1482 O 132.323 -0.502602 -4.35207 0
M  V30 1483 C 133.824 1.29743 -4.23889 0
M  V30 1484 H 131.044 0.0442697 -0.669538 0
M  V30 1485 H 133.588 -0.509856 -1.98042 0
M  V30 1486 H 131.743 1.34302 -3.63376 0
M  V30 1487 H 132.157 -0.178172 -5.24197 0
M  V30 1488 H 133.631 1.53091 -5.30346 0
M  V30 1489 H 134.108 2.25441 -3.76926 0
M  V30 1490 H 134.714 0.639865 -4.20459 0
M  V30 1491 N 133.029 1.57378 -0.0835403 0
M  V30 1492 C 134.254 1.98682 0.594987 0
M  V30 1493 C 134.679 0.961969 1.61641 0
M  V30 1494 O 134.037 -0.0709989 1.81161 0
M  V30 1495 C 134.085 3.38988 1.2296 0
M  V30 1496 O 133.189 3.39208 2.34546 0
M  V30 1497 H 132.53 0.646368 0.152002 0
M  V30 1498 H 135.06 2.03961 -0.161533 0
M  V30 1499 H 135.07 3.76431 1.57366 0
M  V30 1500 H 133.745 4.13107 0.481228 0
M  V30 1501 H 132.322 3.13548 2.01846 0
M  V30 1502 N 134.507 -0.190092 1.56449 0
M  V30 1503 C 135.455 -1.25501 1.95837 0
M  V30 1504 C 136.449 -1.4685 0.844485 0
M  V30 1505 O 137.655 -1.47651 1.02952 0
M  V30 1506 H 134.03 -0.421447 0.622805 0
M  V30 1507 H 136.001 -0.895821 2.84636 0
M  V30 1508 C 134.75 -2.59124 2.31841 0
M  V30 1509 H 134.073 -2.43514 3.17082 0
M  V30 1510 H 135.513 -3.32371 2.6326 0
M  V30 1511 C 133.972 -3.16488 1.15486 0
M  V30 1512 O 134.502 -3.99365 0.432535 0
M  V30 1513 N 132.708 -2.75305 0.930349 0
M  V30 1514 H 132.255 -2.08013 1.51948 0
M  V30 1515 H 132.213 -3.14024 0.153634 0
M  V30 1516 N 135.985 -1.50799 -0.457987 0
M  V30 1517 C 136.932 -1.70617 -1.5543 0
M  V30 1518 C 137.902 -0.547562 -1.56815 0
M  V30 1519 O 139.087 -0.779647 -1.74144 0
M  V30 1520 C 136.227 -1.81831 -2.93311 0
M  V30 1521 C 135.34 -3.09278 -3.01615 0
M  V30 1522 C 134.475 -3.11209 -4.30491 0
M  V30 1523 C 133.514 -4.33055 -4.32585 0
M  V30 1524 N 132.651 -4.32652 -5.52952 0
M  V30 1525 H 137.491 -2.64207 -1.37836 0
M  V30 1526 H 135.028 -1.30959 -0.669937 0
M  V30 1527 H 136.986 -1.86314 -3.73287 0
M  V30 1528 H 135.616 -0.916685 -3.0951 0
M  V30 1529 H 134.668 -3.14203 -2.1443 0
M  V30 1530 H 135.98 -3.99233 -2.99022 0
M  V30 1531 H 135.134 -3.14494 -5.18824 0
M  V30 1532 H 133.873 -2.19106 -4.35711 0
M  V30 1533 H 132.878 -4.29969 -3.42647 0
M  V30 1534 H 134.103 -5.264 -4.29046 0
M  V30 1535 H 132.049 -3.43409 -5.58933 0
M  V30 1536 H 131.966 -5.16392 -5.52155 0
M  V30 1537 H 133.234 -4.40101 -6.43375 0
M  V30 1538 N 137.463 0.71206 -1.40597 0
M  V30 1539 C 138.709 1.47416 -1.39271 0
M  V30 1540 C 139.042 1.942 0.00388791 0
M  V30 1541 O 138.317 1.68403 0.973179 0
M  V30 1542 C 138.6 2.69774 -2.38525 0
M  V30 1543 C 138.453 2.28861 -3.87224 0
M  V30 1544 C 139.772 3.71939 -2.35264 0
M  V30 1545 H 136.891 0.534713 -0.5072 0
M  V30 1546 H 139.533 0.812375 -1.71757 0
M  V30 1547 H 137.683 3.26238 -2.10953 0
M  V30 1548 H 139.355 1.77852 -4.25636 0
M  V30 1549 H 137.598 1.60824 -4.02887 0
M  V30 1550 H 138.269 3.16584 -4.52193 0
M  V30 1551 H 140.745 3.25113 -2.59694 0
M  V30 1552 H 139.621 4.55186 -3.06753 0
M  V30 1553 H 139.882 4.20484 -1.36549 0
M  V30 1554 N 138.941 1.26152 0.944643 0
M  V30 1555 C 139.871 1.09902 2.06019 0
M  V30 1556 C 140.852 0.00519538 1.70099 0
M  V30 1557 O 142.037 0.176583 1.93396 0
M  V30 1558 C 139.167 0.727562 3.39594 0
M  V30 1559 C 138.121 1.77274 3.89561 0
M  V30 1560 C 137.447 1.25569 5.19747 0
M  V30 1561 C 138.747 3.17357 4.14827 0
M  V30 1562 H 140.441 2.03217 2.19871 0
M  V30 1563 H 137.987 0.978452 1.05652 0
M  V30 1564 H 139.94 0.600777 4.17095 0
M  V30 1565 H 138.664 -0.241287 3.25707 0
M  V30 1566 H 137.323 1.88814 3.14237 0
M  V30 1567 H 136.971 0.276783 5.02238 0
M  V30 1568 H 136.671 1.95433 5.54148 0
M  V30 1569 H 138.195 1.1415 5.99835 0
M  V30 1570 H 139.609 3.08914 4.82954 0
M  V30 1571 H 138.006 3.84781 4.60504 0
M  V30 1572 H 139.076 3.63673 3.20734 0
M  V30 1573 N 140.419 -1.14872 1.07899 0
M  V30 1574 C 141.696 -1.81928 0.71845 0
M  V30 1575 C 142.076 -1.95417 -0.798455 0
M  V30 1576 O 141.424 -1.50997 -1.715 0
M  V30 1577 C 141.634 -3.17937 1.43935 0
M  V30 1578 C 142.982 -3.93501 1.59506 0
M  V30 1579 O 144.006 -3.27509 1.40058 0
M  V30 1580 O 142.865 -5.1183 1.91551 0
M  V30 1581 H 139.959 -0.78628 0.256305 0
M  V30 1582 H 142.505 -1.21934 1.18026 0
M  V30 1583 H 141.277 -3.0325 2.47295 0
M  V30 1584 H 140.9 -3.85619 0.968687 0
M  V30 1585 N 141.898 -0.863906 -1.31812 0
M  V30 1586 C 143.128 -0.485406 -2.00817 0
M  V30 1587 C 143.536 0.925007 -1.65046 0
M  V30 1588 O 142.879 1.61653 -0.872574 0
M  V30 1589 C 142.941 -0.555589 -3.55181 0
M  V30 1590 C 142.605 -1.92654 -4.14407 0
M  V30 1591 C 143.602 -2.89324 -4.31958 0
M  V30 1592 C 141.287 -2.2262 -4.50273 0
M  V30 1593 C 143.281 -4.14108 -4.84555 0
M  V30 1594 C 140.968 -3.47654 -5.02573 0
M  V30 1595 C 141.966 -4.43214 -5.19664 0
M  V30 1596 O 141.654 -5.66033 -5.70843 0
M  V30 1597 H 141.386 -0.188224 -0.649267 0
M  V30 1598 H 143.94 -1.16514 -1.69156 0
M  V30 1599 H 142.17 0.181037 -3.86276 0
M  V30 1600 H 143.859 -0.19138 -4.05449 0
M  V30 1601 H 144.625 -2.6748 -4.04573 0
M  V30 1602 H 140.504 -1.4902 -4.3625 0
M  V30 1603 H 144.048 -4.88703 -4.9781 0
M  V30 1604 H 139.945 -3.69345 -5.29391 0
M  V30 1605 H 140.713 -5.6812 -5.89222 0
M  V30 1606 N 143.376 1.44774 -0.622745 0
M  V30 1607 C 144.653 1.95522 -0.0551974 0
M  V30 1608 C 145.033 1.5649 1.41683 0
M  V30 1609 O 144.381 0.834848 2.12703 0
M  V30 1610 C 144.591 3.4796 -0.269242 0
M  V30 1611 C 145.939 4.24306 -0.158014 0
M  V30 1612 O 146.963 3.55637 -0.200162 0
M  V30 1613 O 145.822 5.46471 -0.0558693 0
M  V30 1614 H 142.916 0.826556 0.0271015 0
M  V30 1615 H 145.462 1.54866 -0.693864 0
M  V30 1616 H 144.234 3.6939 -1.29099 0
M  V30 1617 H 143.857 3.95543 0.403966 0
M  V30 1618 N 144.854 0.36279 1.53368 0
M  V30 1619 C 146.082 -0.228613 2.05633 0
M  V30 1620 C 146.497 -1.42676 1.23649 0
M  V30 1621 O 145.854 -1.80394 0.27647 0
M  V30 1622 C 145.905 -0.624845 3.56059 0
M  V30 1623 O 145.626 0.525675 4.34935 0
M  V30 1624 C 147.127 -1.27493 4.24571 0
M  V30 1625 H 144.347 -0.0407183 0.669763 0
M  V30 1626 H 146.891 0.520352 1.97769 0
M  V30 1627 H 145.046 -1.32373 3.64083 0
M  V30 1628 H 145.46 0.205969 5.24095 0
M  V30 1629 H 146.934 -1.50277 5.31151 0
M  V30 1630 H 147.411 -2.23439 3.78116 0
M  V30 1631 H 148.017 -0.617558 4.20792 0
M  V30 1632 N 146.332 -1.57332 0.0918853 0
M  V30 1633 C 147.557 -1.98995 -0.584442 0
M  V30 1634 C 147.982 -0.970528 -1.61128 0
M  V30 1635 O 147.34 0.0613904 -1.81196 0
M  V30 1636 C 147.388 -3.39636 -1.21161 0
M  V30 1637 O 146.492 -3.40447 -2.32744 0
M  V30 1638 H 145.833 -0.647165 -0.148572 0
M  V30 1639 H 148.363 -2.03873 0.172347 0
M  V30 1640 H 148.373 -3.7726 -1.55367 0
M  V30 1641 H 147.048 -4.13356 -0.459313 0
M  V30 1642 H 145.625 -3.14614 -2.0018 0
M  V30 1643 N 147.81 0.181792 -1.56548 0
M  V30 1644 C 148.76 1.22961 -1.92002 0
M  V30 1645 C 149.744 1.40331 -0.787146 0
M  V30 1646 O 150.936 1.42478 -1.05019 0
M  V30 1647 C 148.065 2.57144 -2.27446 0
M  V30 1648 C 147.151 2.43512 -3.47222 0
M  V30 1649 N 147.542 1.99577 -4.64761 0
M  V30 1650 C 145.84 2.74368 -3.51622 0
M  V30 1651 C 146.541 1.98156 -5.46909 0
M  V30 1652 N 145.517 2.40164 -4.8767 0
M  V30 1653 H 149.319 0.881462 -2.8037 0
M  V30 1654 H 146.833 0.390141 -1.57644 0
M  V30 1655 H 148.83 3.32847 -2.51035 0
M  V30 1656 H 147.49 2.92771 -1.40411 0
M  V30 1657 H 148.501 1.70078 -4.89177 0
M  V30 1658 H 145.178 3.14102 -2.75038 0
M  V30 1659 H 146.568 1.65975 -6.51077 0
M  V30 1660 N 149.288 1.51039 0.449983 0
M  V30 1661 C 150.537 1.62317 1.19733 0
M  V30 1662 C 150.85 0.339101 1.92638 0
M  V30 1663 O 152.056 0.331069 2.69474 0
M  V30 1664 C 150.512 2.86608 2.17678 0
M  V30 1665 C 150.12 4.21972 1.50479 0
M  V30 1666 C 151.864 3.07239 2.92924 0
M  V30 1667 C 149.771 5.37426 2.46834 0
M  V30 1668 H 148.701 0.604532 0.450619 0
M  V30 1669 H 151.352 1.77494 0.465625 0
M  V30 1670 H 149.734 2.65037 2.94231 0
M  V30 1671 H 150.908 4.53878 0.795716 0
M  V30 1672 H 149.223 4.07117 0.874344 0
M  V30 1673 H 151.82 3.90668 3.65079 0
M  V30 1674 H 152.163 2.19807 3.5354 0
M  V30 1675 H 152.696 3.29091 2.23481 0
M  V30 1676 H 149.435 6.27079 1.90926 0
M  V30 1677 H 148.955 5.09912 3.15832 0
M  V30 1678 H 150.634 5.68862 3.08228 0
M  V30 1679 N 150.766 -0.704594 1.40972 0
M  V30 1680 C 151.996 -1.49138 1.42974 0
M  V30 1681 C 152.404 -1.89175 0.0308406 0
M  V30 1682 O 151.747 -1.56734 -0.958138 0
M  V30 1683 C 151.809 -2.79016 2.26694 0
M  V30 1684 C 151.473 -2.61236 3.74973 0
M  V30 1685 C 152.47 -2.27773 4.67349 0
M  V30 1686 C 150.155 -2.77158 4.18914 0
M  V30 1687 C 152.149 -2.10457 6.01653 0
M  V30 1688 C 149.836 -2.59459 5.53285 0
M  V30 1689 C 150.834 -2.26158 6.4447 0
M  V30 1690 O 150.522 -2.08605 7.76363 0
M  V30 1691 H 150.254 -0.466443 0.489292 0
M  V30 1692 H 152.808 -0.8758 1.85793 0
M  V30 1693 H 151.038 -3.42947 1.78673 0
M  V30 1694 H 152.727 -3.40782 2.20504 0
M  V30 1695 H 153.493 -2.15095 4.34694 0
M  V30 1696 H 149.372 -3.02064 3.48251 0
M  V30 1697 H 152.916 -1.84387 6.72791 0
M  V30 1698 H 148.813 -2.71725 5.85522 0
M  V30 1699 H 149.581 -2.23439 7.87412 0
M  V30 1700 N 152.244 -1.26651 -0.937939 0
M  V30 1701 C 153.472 -1.15173 -1.7188 0
M  V30 1702 C 153.887 0.292668 -1.86518 0
M  V30 1703 O 153.244 1.20014 -1.37488 0
M  V30 1704 C 153.295 -1.81925 -3.12387 0
M  V30 1705 O 153.016 -3.2072 -2.98446 0
M  V30 1706 C 154.517 -1.76442 -4.06673 0
M  V30 1707 H 151.737 -0.400911 -0.538063 0
M  V30 1708 H 154.281 -1.67332 -1.1756 0
M  V30 1709 H 152.436 -1.33696 -3.63599 0
M  V30 1710 H 152.85 -3.53802 -3.872 0
M  V30 1711 H 154.324 -2.27781 -5.02812 0
M  V30 1712 H 154.801 -0.731608 -4.33064 0
M  V30 1713 H 155.407 -2.24238 -3.61382 0
M  V30 1714 N 153.722 1.14298 -1.08507 0
M  V30 1715 C 154.97 1.84993 -0.813763 0
M  V30 1716 C 155.291 1.83405 0.662393 0
M  V30 1717 O 154.561 1.28319 1.48024 0
M  V30 1718 H 153.141 0.684966 -0.298045 0
M  V30 1719 H 155.803 1.385 -1.37126 0
M  V30 1720 H 154.899 2.89788 -1.15884 0
M  V30 1721 N 155.201 0.870884 1.31352 0
M  V30 1722 C 156.151 0.298889 2.26032 0
M  V30 1723 C 157.135 -0.564595 1.50669 0
M  V30 1724 O 158.327 -0.411323 1.72154 0
M  V30 1725 C 155.456 -0.497842 3.39671 0
M  V30 1726 C 154.542 0.378937 4.22404 0
M  V30 1727 N 154.933 1.47284 4.83881 0
M  V30 1728 C 153.231 0.171535 4.4567 0
M  V30 1729 C 153.932 2.01359 5.45738 0
M  V30 1730 N 152.908 1.31047 5.27568 0
M  V30 1731 H 156.71 1.13494 2.71102 0
M  V30 1732 H 154.224 0.718745 1.45629 0
M  V30 1733 H 156.221 -0.924155 4.06528 0
M  V30 1734 H 154.881 -1.33149 2.96144 0
M  V30 1735 H 155.892 1.85575 4.8351 0
M  V30 1736 H 152.569 -0.626091 4.12779 0
M  V30 1737 H 153.959 2.93143 6.0458 0
M  V30 1738 N 156.679 -1.44442 0.630414 0
M  V30 1739 C 157.928 -2.01267 0.132073 0
M  V30 1740 C 158.241 -1.50172 -1.25331 0
M  V30 1741 O 159.447 -1.9912 -1.84562 0
M  V30 1742 C 157.903 -3.59422 0.185362 0
M  V30 1743 C 157.511 -4.19514 1.57201 0
M  V30 1744 C 159.255 -4.23724 -0.256553 0
M  V30 1745 C 157.162 -5.69891 1.58045 0
M  V30 1746 H 156.092 -0.752619 0.0456092 0
M  V30 1747 H 158.743 -1.65666 0.789106 0
M  V30 1748 H 157.125 -3.92318 -0.538759 0
M  V30 1749 H 158.299 -3.98156 2.31966 0
M  V30 1750 H 156.614 -3.67496 1.95795 0
M  V30 1751 H 159.211 -5.34019 -0.269767 0
M  V30 1752 H 159.554 -3.96013 -1.28372 0
M  V30 1753 H 160.087 -3.95629 0.41505 0
M  V30 1754 H 156.826 -6.02336 2.58597 0
M  V30 1755 H 156.346 -5.93373 0.875725 0
M  V30 1756 H 158.025 -6.33515 1.31408 0
M  V30 1757 N 158.157 -0.370918 -1.53173 0
M  V30 1758 C 159.387 0.217389 -2.05453 0
M  V30 1759 C 159.795 1.42568 -1.24382 0
M  V30 1760 O 159.138 1.81571 -0.278839 0
M  V30 1761 C 159.2 0.669827 -3.53205 0
M  V30 1762 C 158.864 -0.4225 -4.55043 0
M  V30 1763 C 159.861 -1.27407 -5.04047 0
M  V30 1764 C 157.546 -0.58427 -4.9889 0
M  V30 1765 C 159.54 -2.27271 -5.95505 0
M  V30 1766 C 157.227 -1.58627 -5.90153 0
M  V30 1767 C 158.225 -2.42892 -6.38351 0
M  V30 1768 O 157.913 -3.41382 -7.27814 0
M  V30 1769 H 157.645 0.0408171 -0.674767 0
M  V30 1770 H 160.199 -0.5292 -1.98466 0
M  V30 1771 H 158.429 1.4681 -3.57748 0
M  V30 1772 H 160.118 1.18173 -3.88317 0
M  V30 1773 H 160.884 -1.16031 -4.70916 0
M  V30 1774 H 156.763 0.061851 -4.60959 0
M  V30 1775 H 160.307 -2.93079 -6.33049 0
M  V30 1776 H 156.204 -1.70048 -6.22699 0
M  V30 1777 H 156.972 -3.37173 -7.45826 0
M  V30 1778 N 159.635 1.57281 -0.100228 0
M  V30 1779 C 160.883 1.94153 0.561157 0
M  V30 1780 C 161.204 0.983157 1.68401 0
M  V30 1781 O 160.474 0.0361132 1.95867 0
M  V30 1782 H 159.054 0.716791 0.210283 0
M  V30 1783 H 161.716 1.94202 -0.164765 0
M  V30 1784 H 160.812 2.96709 0.968008 0
M  V30 1785 N 161.113 -0.173488 1.56642 0
M  V30 1786 C 162.023 -1.23482 1.99473 0
M  V30 1787 C 163.039 -1.48567 0.905752 0
M  V30 1788 O 164.215 -1.60758 1.21321 0
M  V30 1789 C 161.28 -2.55444 2.34413 0
M  V30 1790 C 160.341 -2.38241 3.57127 0
M  V30 1791 C 159.574 -3.63909 3.90392 0
M  V30 1792 O 159.797 -4.68996 3.24653 0
M  V30 1793 O 158.731 -3.58149 4.83749 0
M  V30 1794 H 162.557 -0.901279 2.90018 0
M  V30 1795 H 160.142 -0.380185 1.44482 0
M  V30 1796 H 162.024 -3.33292 2.57865 0
M  V30 1797 H 160.699 -2.88382 1.4703 0
M  V30 1798 H 159.606 -1.58431 3.38896 0
M  V30 1799 H 160.939 -2.10228 4.45045 0
M  V30 1800 N 162.591 -1.51276 -0.441967 0
M  V30 1801 C 163.501 -1.75092 -1.56141 0
M  V30 1802 C 164.517 -0.634963 -1.62001 0
M  V30 1803 O 165.693 -0.916686 -1.79329 0
M  V30 1804 C 162.758 -1.86666 -2.92158 0
M  V30 1805 C 161.819 -3.10506 -2.96453 0
M  V30 1806 C 161.052 -3.21519 -4.25982 0
M  V30 1807 O 161.275 -2.38586 -5.18105 0
M  V30 1808 O 160.209 -4.14465 -4.36466 0
M  V30 1809 H 164.035 -2.70044 -1.38961 0
M  V30 1810 H 161.62 -1.35722 -0.624499 0
M  V30 1811 H 163.502 -1.96292 -3.72891 0
M  V30 1812 H 162.177 -0.949014 -3.09476 0
M  V30 1813 H 161.084 -3.06363 -2.14692 0
M  V30 1814 H 162.417 -4.01945 -2.84079 0
M  V30 1815 N 164.069 0.697108 -1.41344 0
M  V30 1816 C 165.317 1.45426 -1.40341 0
M  V30 1817 C 165.638 1.94996 -0.0128787 0
M  V30 1818 O 164.908 1.71599 0.945027 0
M  V30 1819 H 163.488 0.539594 -0.516573 0
M  V30 1820 H 166.15 0.825201 -1.76569 0
M  V30 1821 H 165.246 2.31817 -2.08967 0
M  V30 1822 N 165.547 1.27147 0.931209 0
M  V30 1823 C 166.772 1.16191 1.71797 0
M  V30 1824 C 167.197 -0.278004 1.86034 0
M  V30 1825 O 166.555 -1.20137 1.35782 0
M  V30 1826 C 166.603 1.84673 3.09723 0
M  V30 1827 O 165.707 1.14231 3.96264 0
M  V30 1828 H 165.048 0.404303 0.526721 0
M  V30 1829 H 167.578 1.68152 1.1656 0
M  V30 1830 H 167.588 1.91893 3.60057 0
M  V30 1831 H 166.263 2.89421 2.98677 0
M  V30 1832 H 164.84 1.15056 3.54706 0
M  V30 1833 N 167.025 -1.13721 1.09112 0
M  V30 1834 C 168.272 -1.84924 0.825192 0
M  V30 1835 C 168.6 -1.83347 -0.649151 0
M  V30 1836 O 167.855 -1.26449 -1.49362 0
M  V30 1837 C 168.154 -3.32861 1.30146 0
M  V30 1838 C 167.82 -3.54621 2.78486 0
M  V30 1839 C 166.482 -3.60268 3.18999 0
M  V30 1840 C 168.834 -3.62855 3.74146 0
M  V30 1841 C 166.162 -3.71679 4.53951 0
M  V30 1842 C 168.514 -3.75793 5.08883 0
M  V30 1843 C 167.178 -3.79692 5.4899 0
M  V30 1844 H 166.448 -0.676684 0.301959 0
M  V30 1845 H 169.095 -1.3428 1.36533 0
M  V30 1846 H 167.4 -3.85835 0.681064 0
M  V30 1847 H 169.097 -3.86395 1.07236 0
M  V30 1848 H 165.687 -3.50879 2.46134 0
M  V30 1849 H 169.871 -3.57775 3.43963 0
M  V30 1850 H 165.127 -3.72963 4.84467 0
M  V30 1851 H 169.301 -3.81107 5.82864 0
M  V30 1852 H 166.928 -3.88287 6.53558 0
M  V30 1853 N 168.503 -0.877838 -1.30888 0
M  V30 1854 C 169.728 -0.506629 -2.01117 0
M  V30 1855 C 170.153 0.895564 -1.65412 0
M  V30 1856 O 169.511 1.5923 -0.866922 0
M  V30 1857 C 169.559 -0.680223 -3.54126 0
M  V30 1858 O 168.663 0.277033 -4.11468 0
M  V30 1859 H 168.004 -0.200518 -0.633 0
M  V30 1860 H 170.534 -1.18342 -1.66902 0
M  V30 1861 H 170.544 -0.5765 -4.03907 0
M  V30 1862 H 169.219 -1.70261 -3.79452 0
M  V30 1863 H 167.796 0.127606 -3.72682 0
M  V30 1864 N 169.982 1.44106 -0.638065 0
M  V30 1865 C 170.932 2.27843 0.0847285 0
M  V30 1866 C 171.916 1.39055 0.809471 0
M  V30 1867 O 173.108 1.62808 0.694435 0
M  V30 1868 C 170.237 3.26497 1.06089 0
M  V30 1869 C 169.323 4.22772 0.33541 0
M  V30 1870 N 169.714 5.01737 -0.639787 0
M  V30 1871 C 168.012 4.42227 0.578921 0
M  V30 1872 C 168.713 5.71792 -1.06904 0
M  V30 1873 N 167.689 5.42079 -0.406395 0
M  V30 1874 H 171.491 2.86305 -0.663814 0
M  V30 1875 H 169.005 1.55627 -0.464122 0
M  V30 1876 H 171.002 3.8525 1.59337 0
M  V30 1877 H 169.662 2.69595 1.80966 0
M  V30 1878 H 170.673 5.07799 -1.01789 0
M  V30 1879 H 167.35 3.96415 1.31003 0
M  V30 1880 H 168.74 6.45205 -1.8751 0
M  V30 1881 N 171.46 0.379036 1.52974 0
M  V30 1882 C 172.708 -0.206014 2.01047 0
M  V30 1883 C 173.029 -1.48175 1.26765 0
M  V30 1884 O 172.299 -1.92085 0.384743 0
M  V30 1885 H 170.879 -0.0791184 0.742798 0
M  V30 1886 H 173.541 0.508366 1.88153 0
M  V30 1887 H 172.637 -0.423501 3.09213 0
M  V30 1888 N 172.938 -1.57226 0.108567 0
M  V30 1889 C 174.163 -1.99604 -0.563303 0
M  V30 1890 C 174.588 -0.987563 -1.6009 0
M  V30 1891 O 173.946 0.0421687 -1.81251 0
M  V30 1892 C 173.994 -3.40902 -1.17552 0
M  V30 1893 O 173.098 -3.42896 -2.2912 0
M  V30 1894 H 172.439 -0.648704 -0.1417 0
M  V30 1895 H 174.969 -2.03679 0.193961 0
M  V30 1896 H 174.979 -3.78886 -1.51357 0
M  V30 1897 H 173.654 -4.1382 -0.415445 0
M  V30 1898 H 172.231 -3.1672 -1.96832 0
M  V30 1899 N 174.416 0.165178 -1.56732 0
M  V30 1900 C 175.662 0.882112 -1.82611 0
M  V30 1901 C 175.995 1.81628 -0.687378 0
M  V30 1902 O 175.27 1.92009 0.310267 0
M  V30 1903 C 175.553 1.67245 -3.18906 0
M  V30 1904 C 175.406 0.760987 -4.43316 0
M  V30 1905 C 176.725 2.63884 -3.52212 0
M  V30 1906 H 173.844 0.319242 -0.664269 0
M  V30 1907 H 176.486 0.148052 -1.89422 0
M  V30 1908 H 174.636 2.29824 -3.1323 0
M  V30 1909 H 176.308 0.147596 -4.61064 0
M  V30 1910 H 174.551 0.0694102 -4.33744 0
M  V30 1911 H 175.222 1.34962 -5.35247 0
M  V30 1912 H 177.698 2.11429 -3.58381 0
M  V30 1913 H 176.574 3.16245 -4.48643 0
M  V30 1914 H 176.835 3.44377 -2.77231 0
M  V30 1915 N 175.894 1.51508 0.433938 0
M  V30 1916 C 177.143 1.63578 1.18005 0
M  V30 1917 C 177.456 0.359514 1.92268 0
M  V30 1918 O 178.662 0.359632 2.69108 0
M  V30 1919 C 177.118 2.88901 2.14626 0
M  V30 1920 C 176.726 4.23544 1.45995 0
M  V30 1921 C 178.47 3.10328 2.89649 0
M  V30 1922 C 176.377 5.40014 2.4112 0
M  V30 1923 H 175.307 0.609277 0.444182 0
M  V30 1924 H 177.958 1.77978 0.446773 0
M  V30 1925 H 176.34 2.68142 2.91403 0
M  V30 1926 H 177.514 4.54696 0.747532 0
M  V30 1927 H 175.829 4.08021 0.831115 0
M  V30 1928 H 178.426 3.94518 3.60915 0
M  V30 1929 H 178.769 2.23544 3.51189 0
M  V30 1930 H 179.302 3.31443 2.19978 0
M  V30 1931 H 176.041 6.29068 1.84264 0
M  V30 1932 H 175.561 5.13233 3.10406 0
M  V30 1933 H 177.24 5.72099 3.02177 0
M  V30 1934 N 177.372 -0.689602 1.41712 0
M  V30 1935 C 178.649 -1.44457 1.31877 0
M  V30 1936 C 179.029 -2.11039 -0.0508537 0
M  V30 1937 O 178.377 -2.02138 -1.06547 0
M  V30 1938 C 178.587 -2.45913 2.47645 0
M  V30 1939 C 179.935 -3.10991 2.89084 0
M  V30 1940 O 180.959 -2.56238 2.47428 0
M  V30 1941 O 179.818 -4.10174 3.61137 0
M  V30 1942 H 176.912 -0.64362 0.519309 0
M  V30 1943 H 179.458 -0.719576 1.53689 0
M  V30 1944 H 178.23 -1.95409 3.39015 0
M  V30 1945 H 177.853 -3.25913 2.27742 0
M  V30 1946 N 178.85 -1.27639 -0.924453 0
M  V30 1947 C 180.098 -1.13941 -1.66918 0
M  V30 1948 C 180.419 0.314589 -1.92446 0
M  V30 1949 O 179.689 1.21964 -1.53303 0
M  V30 1950 H 178.269 -0.418678 -0.618642 0
M  V30 1951 H 180.931 -1.60213 -1.10985 0
M  V30 1952 H 180.027 -1.67094 -2.63602 0
M  V30 1953 N 180.328 1.1314 -1.09713 0
M  V30 1954 C 181.744 1.36477 -0.827423 0
M  V30 1955 C 181.944 1.93654 0.556817 0
M  V30 1956 O 181 2.15791 1.31112 0
M  V30 1957 C 182.313 2.31334 -1.92106 0
M  V30 1958 C 183.861 2.44943 -1.94864 0
M  V30 1959 C 184.336 3.4311 -3.0338 0
M  V30 1960 N 185.827 3.50662 -3.02639 0
M  V30 1961 C 186.562 4.2651 -3.83246 0
M  V30 1962 N 186.058 5.05485 -4.73768 0
M  V30 1963 N 187.851 4.2184 -3.71493 0
M  V30 1964 H 180.002 0.743807 -1.9895 0
M  V30 1965 H 182.265 0.389823 -0.864143 0
M  V30 1966 H 181.971 1.96483 -2.91698 0
M  V30 1967 H 181.845 3.31381 -1.80184 0
M  V30 1968 H 184.232 2.79079 -0.959099 0
M  V30 1969 H 184.313 1.4481 -2.10864 0
M  V30 1970 H 183.957 3.09704 -4.02549 0
M  V30 1971 H 183.887 4.43055 -2.84622 0
M  V30 1972 H 186.378 2.94315 -2.37039 0
M  V30 1973 H 186.691 5.60675 -5.3185 0
M  V30 1974 H 185.036 5.04708 -4.77802 0
M  V30 1975 H 188.227 3.5922 -3.00131 0
M  V30 1976 H 188.4 4.80697 -4.3455 0
M  V30 1977 N 181.806 0.884767 1.30421 0
M  V30 1978 C 183.053 0.503105 1.96151 0
M  V30 1979 C 183.381 -0.947676 1.69851 0
M  V30 1980 O 182.636 -1.68467 0.995861 0
M  V30 1981 C 182.935 0.724318 3.49983 0
M  V30 1982 C 182.601 2.15015 3.96332 0
M  V30 1983 C 181.263 2.54005 4.08699 0
M  V30 1984 C 183.615 3.07936 4.20505 0
M  V30 1985 C 180.943 3.85128 4.42599 0
M  V30 1986 C 183.295 4.3859 4.55874 0
M  V30 1987 C 181.959 4.77474 4.66449 0
M  V30 1988 H 181.229 0.184099 0.717766 0
M  V30 1989 H 183.876 1.12058 1.55291 0
M  V30 1990 H 182.181 0.0238086 3.91793 0
M  V30 1991 H 183.878 0.408617 3.98913 0
M  V30 1992 H 180.468 1.8375 3.87213 0
M  V30 1993 H 184.652 2.79033 4.10431 0
M  V30 1994 H 179.908 4.14996 4.48986 0
M  V30 1995 H 184.082 5.10629 4.7353 0
M  V30 1996 H 181.709 5.79115 4.92473 0
M  V30 1997 N 183.284 -1.43765 0.645699 0
M  V30 1998 C 184.194 -2.34544 -0.0512957 0
M  V30 1999 C 185.21 -1.53455 -0.82022 0
M  V30 2000 O 186.386 -1.86133 -0.769176 0
M  V30 2001 C 183.451 -3.31636 -1.01087 0
M  V30 2002 C 182.512 -4.2863 -0.239712 0
M  V30 2003 C 181.745 -5.21084 -1.15358 0
M  V30 2004 O 181.968 -5.1779 -2.39269 0
M  V30 2005 O 180.902 -5.98593 -0.630038 0
M  V30 2006 H 184.728 -2.95624 0.695718 0
M  V30 2007 H 182.313 -1.43781 0.405882 0
M  V30 2008 H 184.195 -3.9136 -1.56254 0
M  V30 2009 H 182.87 -2.73069 -1.73824 0
M  V30 2010 H 181.777 -3.72408 0.355356 0
M  V30 2011 H 183.11 -4.90157 0.447936 0
M  V30 2012 N 184.763 -0.387143 -1.52771 0
M  V30 2013 C 186.011 0.195349 -2.01154 0
M  V30 2014 C 186.332 1.475 -1.27549 0
M  V30 2015 O 185.602 1.91878 -0.394924 0
M  V30 2016 H 184.182 0.075178 -0.743207 0
M  V30 2017 H 186.844 -0.518337 -1.87881 0
M  V30 2018 H 185.94 0.407096 -3.09434 0
M  V30 2019 N 186.241 1.57166 -0.116904 0
M  V30 2020 C 187.488 1.95123 0.541603 0
M  V30 2021 C 187.816 1.00006 1.6682 0
M  V30 2022 O 187.071 0.0235658 1.95686 0
M  V30 2023 C 187.37 3.39508 1.11664 0
M  V30 2024 C 187.036 4.50762 0.111606 0
M  V30 2025 C 185.698 4.80918 -0.164758 0
M  V30 2026 C 188.05 5.18036 -0.573438 0
M  V30 2027 C 185.378 5.75666 -1.13249 0
M  V30 2028 C 187.73 6.13824 -1.52978 0
M  V30 2029 C 186.394 6.42374 -1.81415 0
M  V30 2030 H 185.664 0.714005 0.198187 0
M  V30 2031 H 188.311 1.9048 -0.197365 0
M  V30 2032 H 186.616 3.40835 1.93232 0
M  V30 2033 H 188.313 3.66189 1.63422 0
M  V30 2034 H 184.903 4.27272 0.337192 0
M  V30 2035 H 189.087 4.94896 -0.373092 0
M  V30 2036 H 184.343 5.96092 -1.35958 0
M  V30 2037 H 188.517 6.65039 -2.06629 0
M  V30 2038 H 186.144 7.15599 -2.56557 0
M  V30 2039 N 187.719 -0.156864 1.56817 0
M  V30 2040 C 188.968 -0.869504 1.81996 0
M  V30 2041 C 189.281 -1.82777 0.696545 0
M  V30 2042 O 190.487 -2.58384 0.833658 0
M  V30 2043 C 188.943 -1.59679 3.22538 0
M  V30 2044 C 188.551 -0.681431 4.42787 0
M  V30 2045 C 190.295 -2.2968 3.56997 0
M  V30 2046 C 188.202 -1.40978 5.74351 0
M  V30 2047 H 187.132 -0.328438 0.678708 0
M  V30 2048 H 189.783 -0.1223 1.83092 0
M  V30 2049 H 188.165 -2.38927 3.158 0
M  V30 2050 H 189.339 0.0751166 4.60739 0
M  V30 2051 H 187.654 -0.0903431 4.16302 0
M  V30 2052 H 190.251 -2.84794 4.52544 0
M  V30 2053 H 190.594 -3.05707 2.82576 0
M  V30 2054 H 191.127 -1.57361 3.65352 0
M  V30 2055 H 187.866 -0.691561 6.51842 0
M  V30 2056 H 187.386 -2.13929 5.60352 0
M  V30 2057 H 189.065 -1.95337 6.16808 0
M  V30 2058 N 189.197 -1.51736 -0.425897 0
M  V30 2059 C 190.129 -1.70083 -1.53638 0
M  V30 2060 C 191.142 -0.581349 -1.52066 0
M  V30 2061 O 192.331 -0.856017 -1.56635 0
M  V30 2062 C 189.431 -1.71078 -2.9255 0
M  V30 2063 C 188.604 -2.99795 -3.185 0
M  V30 2064 C 187.663 -2.92825 -4.37196 0
M  V30 2065 O 186.689 -3.66756 -4.35291 0
M  V30 2066 N 187.891 -2.0946 -5.41393 0
M  V30 2067 H 190.656 -2.65882 -1.383 0
M  V30 2068 H 188.217 -1.49765 -0.614988 0
M  V30 2069 H 190.209 -1.63969 -3.69995 0
M  V30 2070 H 188.779 -0.828242 -3.01428 0
M  V30 2071 H 187.999 -3.20684 -2.2925 0
M  V30 2072 H 189.287 -3.84977 -3.32671 0
M  V30 2073 H 188.685 -1.48792 -5.45781 0
M  V30 2074 H 187.242 -2.08221 -6.17647 0
M  V30 2075 N 190.675 0.682077 -1.42076 0
M  V30 2076 C 191.903 1.47057 -1.4554 0
M  V30 2077 C 192.318 1.8869 -0.0645779 0
M  V30 2078 O 191.675 1.57666 0.919115 0
M  V30 2079 C 191.726 2.72442 -2.37609 0
M  V30 2080 O 191.447 2.32559 -3.71279 0
M  V30 2081 C 192.948 3.66069 -2.50017 0
M  V30 2082 H 190.168 0.452737 -0.495248 0
M  V30 2083 H 192.712 0.838695 -1.8651 0
M  V30 2084 H 190.867 3.31835 -1.9991 0
M  V30 2085 H 191.281 3.13475 -4.20516 0
M  V30 2086 H 192.755 4.50792 -3.18576 0
M  V30 2087 H 193.232 4.11476 -1.53572 0
M  V30 2088 H 193.838 3.12572 -2.88407 0
M  V30 2089 N 192.153 1.28127 0.917671 0
M  V30 2090 C 193.569 1.05749 1.19538 0
M  V30 2091 C 193.769 -0.202633 2.00479 0
M  V30 2092 O 192.825 -0.905382 2.3571 0
M  V30 2093 C 194.138 2.30273 1.93378 0
M  V30 2094 C 195.686 2.35412 2.06277 0
M  V30 2095 C 196.161 3.59692 2.83524 0
M  V30 2096 N 197.652 3.60309 2.91087 0
M  V30 2097 C 198.387 4.53147 3.51348 0
M  V30 2098 N 197.883 5.563 4.12919 0
M  V30 2099 N 199.676 4.40751 3.48849 0
M  V30 2100 H 191.827 2.09024 0.377184 0
M  V30 2101 H 194.09 0.919798 0.22951 0
M  V30 2102 H 193.796 3.22055 1.41328 0
M  V30 2103 H 193.67 2.36378 2.93947 0
M  V30 2104 H 196.057 1.4413 2.57508 0
M  V30 2105 H 196.138 2.33304 1.04895 0
M  V30 2106 H 195.782 4.51316 2.32973 0
M  V30 2107 H 195.712 3.59054 3.85211 0
M  V30 2108 H 198.203 2.85714 2.47338 0
M  V30 2109 H 198.516 6.2329 4.56869 0
M  V30 2110 H 196.861 5.60131 4.11435 0
M  V30 2111 H 200.052 3.59367 2.99955 0
M  V30 2112 H 200.225 5.13291 3.9552 0
M  V30 2113 N 193.631 -1.12557 1.10312 0
M  V30 2114 C 194.879 -1.83675 0.843091 0
M  V30 2115 C 195.2 -1.84435 -0.633131 0
M  V30 2116 O 194.47 -1.30657 -1.45964 0
M  V30 2117 H 193.05 -0.680138 0.308904 0
M  V30 2118 H 195.712 -1.36301 1.39313 0
M  V30 2119 H 194.808 -2.87908 1.2048 0
M  V30 2120 N 195.109 -0.891671 -1.2995 0
M  V30 2121 C 196.357 -0.512486 -1.95494 0
M  V30 2122 C 196.678 0.942776 -1.70695 0
M  V30 2123 O 195.948 1.66374 -1.03424 0
M  V30 2124 H 194.528 -0.186533 -0.723336 0
M  V30 2125 H 197.19 -1.13621 -1.58355 0
M  V30 2126 H 196.286 -0.688342 -3.04415 0
M  V30 2127 N 196.587 1.43421 -0.653314 0
M  V30 2128 C 197.815 2.06163 -0.174491 0
M  V30 2129 C 198.23 1.48969 1.1599 0
M  V30 2130 O 197.587 0.621042 1.71608 0
M  V30 2131 C 197.638 3.61417 -0.0774865 0
M  V30 2132 O 197.359 4.16485 -1.35912 0
M  V30 2133 C 198.86 4.41235 0.427402 0
M  V30 2134 H 196.08 0.664946 -0.0899353 0
M  V30 2135 H 198.624 1.83924 -0.893988 0
M  V30 2136 H 196.779 3.82841 0.59257 0
M  V30 2137 H 197.193 5.10153 -1.21839 0
M  V30 2138 H 198.667 5.5021 0.44423 0
M  V30 2139 H 199.144 4.14268 1.45873 0
M  V30 2140 H 199.75 4.2478 -0.210167 0
M  V30 2141 N 198.065 0.39524 1.52563 0
M  V30 2142 C 199.312 -0.185044 2.01653 0
M  V30 2143 C 199.64 -1.46317 1.28146 0
M  V30 2144 O 198.895 -1.9213 0.372074 0
M  V30 2145 C 199.194 -0.493444 3.53977 0
M  V30 2146 C 198.86 0.69384 4.4553 0
M  V30 2147 C 197.522 1.01954 4.70275 0
M  V30 2148 C 199.874 1.48785 4.99512 0
M  V30 2149 C 197.202 2.14069 5.46252 0
M  V30 2150 C 199.554 2.59965 5.76716 0
M  V30 2151 C 198.218 2.93037 5.99738 0
M  V30 2152 H 197.488 -0.0677123 0.7379 0
M  V30 2153 H 200.135 0.533807 1.8391 0
M  V30 2154 H 198.44 -1.29369 3.69825 0
M  V30 2155 H 200.137 -0.955163 3.89458 0
M  V30 2156 H 196.727 0.429987 4.26438 0
M  V30 2157 H 200.911 1.24946 4.80315 0
M  V30 2158 H 196.167 2.40056 5.62302 0
M  V30 2159 H 200.341 3.21887 6.17545 0
M  V30 2160 H 197.968 3.8003 6.58393 0
M  V30 2161 N 199.544 -1.57102 0.125237 0
M  V30 2162 C 200.774 -1.99472 -0.538015 0
M  V30 2163 C 201.182 -1.00395 -1.60366 0
M  V30 2164 O 200.525 0.0103875 -1.83697 0
M  V30 2165 C 200.587 -3.38262 -1.21734 0
M  V30 2166 C 200.251 -4.56021 -0.298897 0
M  V30 2167 C 201.248 -5.17817 0.464943 0
M  V30 2168 C 198.933 -5.01869 -0.208149 0
M  V30 2169 C 200.927 -6.23852 1.3072 0
M  V30 2170 C 198.614 -6.07763 0.637736 0
M  V30 2171 C 199.612 -6.68622 1.39403 0
M  V30 2172 O 199.3 -7.7247 2.22586 0
M  V30 2173 H 199.032 -0.659934 -0.146501 0
M  V30 2174 H 201.586 -2.04321 0.210267 0
M  V30 2175 H 199.816 -3.30185 -2.01282 0
M  V30 2176 H 201.505 -3.6488 -1.77813 0
M  V30 2177 H 202.271 -4.83308 0.404741 0
M  V30 2178 H 198.15 -4.54241 -0.786522 0
M  V30 2179 H 201.694 -6.71284 1.898 0
M  V30 2180 H 197.591 -6.41701 0.699309 0
M  V30 2181 H 198.359 -7.89595 2.15596 0
M  V30 2182 N 201.022 0.148545 -1.56898 0
M  V30 2183 C 202.268 0.862694 -1.83536 0
M  V30 2184 C 202.601 1.80889 -0.706604 0
M  V30 2185 O 201.876 1.92328 0.289885 0
M  V30 2186 C 202.159 1.63853 -3.20662 0
M  V30 2187 C 202.012 0.713925 -4.44098 0
M  V30 2188 C 203.331 2.60133 -3.54991 0
M  V30 2189 H 200.45 0.312179 -0.667618 0
M  V30 2190 H 203.092 0.127953 -1.89569 0
M  V30 2191 H 201.242 2.26489 -3.1565 0
M  V30 2192 H 202.914 0.098686 -4.61194 0
M  V30 2193 H 201.157 0.0234019 -4.33794 0
M  V30 2194 H 201.828 1.29278 -5.36648 0
M  V30 2195 H 204.304 2.07616 -3.60603 0
M  V30 2196 H 203.18 3.11468 -4.51972 0
M  V30 2197 H 203.441 3.41417 -2.80868 0
M  V30 2198 N 202.5 1.5196 0.417844 0
M  V30 2199 C 203.41 1.77554 1.53336 0
M  V30 2200 C 204.426 0.660655 1.6097 0
M  V30 2201 O 205.602 0.945099 1.77848 0
M  V30 2202 C 202.667 1.91291 2.89152 0
M  V30 2203 C 201.728 3.15183 2.91475 0
M  V30 2204 C 200.961 3.28256 4.20813 0
M  V30 2205 O 201.184 2.46798 5.14244 0
M  V30 2206 O 200.118 4.21356 4.29817 0
M  V30 2207 H 203.944 2.7222 1.34647 0
M  V30 2208 H 201.529 1.36698 0.602828 0
M  V30 2209 H 203.411 2.02199 3.69721 0
M  V30 2210 H 202.086 0.998129 3.07927 0
M  V30 2211 H 200.993 3.09739 2.09791 0
M  V30 2212 H 202.326 4.06414 2.77648 0
M  V30 2213 N 203.978 -0.674533 1.42435 0
M  V30 2214 C 205.389 -1.25514 1.38214 0
M  V30 2215 C 205.74 -1.96055 0.0755464 0
M  V30 2216 O 204.865 -2.00028 -0.8257 0
M  V30 2217 C 205.46 -2.28269 2.50357 0
M  V30 2218 C 204.019 -2.81856 2.49467 0
M  V30 2219 C 203.166 -1.56182 2.29134 0
M  V30 2220 H 206.117 -0.467902 1.51646 0
M  V30 2221 H 206.138 -3.10009 2.20624 0
M  V30 2222 H 205.65 -1.769 3.45439 0
M  V30 2223 H 203.751 -3.37346 1.58204 0
M  V30 2224 H 203.864 -3.30854 3.46515 0
M  V30 2225 H 202.228 -1.82761 1.774 0
M  V30 2226 H 203.011 -1.06778 3.26272 0
M  V30 2227 N 205.456 -1.28612 -0.910864 0
M  V30 2228 C 206.419 -1.12803 -1.9952 0
M  V30 2229 C 207.419 -0.0668264 -1.60661 0
M  V30 2230 O 208.609 -0.312847 -1.71368 0
M  V30 2231 C 205.741 -0.72254 -3.33155 0
M  V30 2232 H 206.934 -2.09109 -2.14973 0
M  V30 2233 H 204.487 -1.11639 -1.09391 0
M  V30 2234 H 205.222 0.241152 -3.23402 0
M  V30 2235 H 205.007 -1.48916 -3.62721 0
M  V30 2236 H 206.497 -0.634666 -4.12749 0
M  V30 2237 N 206.934 1.1197 -1.10907 0
M  V30 2238 C 207.844 2.21433 -0.774896 0
M  V30 2239 C 208.86 1.72478 0.229657 0
M  V30 2240 O 210.036 2.01288 0.0672008 0
M  V30 2241 C 207.101 3.4602 -0.216986 0
M  V30 2242 C 206.162 4.09791 -1.27944 0
M  V30 2243 C 205.395 5.28431 -0.748055 0
M  V30 2244 O 205.618 5.68823 0.423833 0
M  V30 2245 O 204.552 5.82644 -1.51027 0
M  V30 2246 H 208.378 2.5242 -1.68873 0
M  V30 2247 H 205.963 1.20399 -0.884555 0
M  V30 2248 H 207.845 4.21304 0.090059 0
M  V30 2249 H 206.52 3.16698 0.669633 0
M  V30 2250 H 205.427 3.36265 -1.63941 0
M  V30 2251 H 206.76 4.4328 -2.13925 0
M  V30 2252 N 208.412 0.89855 1.29475 0
M  V30 2253 C 209.828 0.594483 1.48115 0
M  V30 2254 C 210.028 -0.86431 1.82022 0
M  V30 2255 O 209.084 -1.64457 1.91599 0
M  V30 2256 C 210.397 1.51932 2.59494 0
M  V30 2257 C 211.945 1.5244 2.7337 0
M  V30 2258 C 212.42 2.43548 3.87877 0
M  V30 2259 N 213.911 2.41589 3.95208 0
M  V30 2260 C 214.646 3.08789 4.83153 0
M  V30 2261 N 214.142 3.85265 5.75798 0
M  V30 2262 N 215.935 2.97952 4.76635 0
M  V30 2263 H 208.086 1.84207 1.05742 0
M  V30 2264 H 210.349 0.789251 0.525154 0
M  V30 2265 H 210.055 2.55865 2.41301 0
M  V30 2266 H 209.929 1.23899 3.56271 0
M  V30 2267 H 212.316 0.492518 2.90961 0
M  V30 2268 H 212.397 1.8451 1.77172 0
M  V30 2269 H 212.041 3.46829 3.71041 0
M  V30 2270 H 211.971 2.08788 4.83441 0
M  V30 2271 H 214.462 1.86025 3.28943 0
M  V30 2272 H 214.775 4.33598 6.39697 0
M  V30 2273 H 213.12 3.89371 5.75687 0
M  V30 2274 H 216.311 2.37723 4.03244 0
M  V30 2275 H 216.484 3.50599 5.44962 0
M  V30 2276 N 209.89 -1.43072 0.660911 0
M  V30 2277 C 211.12 -2.05769 0.185153 0
M  V30 2278 C 211.528 -1.49668 -1.15742 0
M  V30 2279 O 210.871 -0.625649 -1.72717 0
M  V30 2280 C 210.933 -3.59489 0.0278237 0
M  V30 2281 C 210.597 -4.38212 1.2969 0
M  V30 2282 C 211.594 -4.69772 2.22734 0
M  V30 2283 C 209.279 -4.7809 1.54063 0
M  V30 2284 C 211.273 -5.40129 3.38437 0
M  V30 2285 C 208.96 -5.4819 2.70058 0
M  V30 2286 C 209.958 -5.79132 3.62071 0
M  V30 2287 O 209.646 -6.47798 4.76039 0
M  V30 2288 H 209.378 -0.669873 0.0908086 0
M  V30 2289 H 211.932 -1.84436 0.90402 0
M  V30 2290 H 210.162 -3.79426 -0.746489 0
M  V30 2291 H 211.851 -4.03862 -0.406275 0
M  V30 2292 H 212.617 -4.39476 2.05149 0
M  V30 2293 H 208.496 -4.53408 0.833215 0
M  V30 2294 H 212.04 -5.64198 4.10277 0
M  V30 2295 H 207.937 -5.77902 2.87574 0
M  V30 2296 H 208.705 -6.66283 4.75404 0
M  V30 2297 N 211.368 -0.403325 -1.52352 0
M  V30 2298 C 212.617 0.175668 -2.00934 0
M  V30 2299 C 212.93 1.46718 -1.29356 0
M  V30 2300 O 214.136 2.12708 -1.68724 0
M  V30 2301 C 212.592 0.363612 -3.58058 0
M  V30 2302 C 212.2 -0.915472 -4.38547 0
M  V30 2303 C 213.944 0.89821 -4.14888 0
M  V30 2304 C 211.851 -0.695035 -5.87302 0
M  V30 2305 H 210.781 0.0694234 -0.750797 0
M  V30 2306 H 213.432 -0.527879 -1.75743 0
M  V30 2307 H 211.814 1.12935 -3.79555 0
M  V30 2308 H 212.988 -1.68691 -4.28812 0
M  V30 2309 H 211.303 -1.37606 -3.93006 0
M  V30 2310 H 213.9 1.07907 -5.23699 0
M  V30 2311 H 214.243 1.87126 -3.71873 0
M  V30 2312 H 214.776 0.191681 -3.97338 0
M  V30 2313 H 211.515 -1.63948 -6.34666 0
M  V30 2314 H 211.035 0.0372116 -5.99788 0
M  V30 2315 H 212.714 -0.33497 -6.46132 0
M  V30 2316 N 212.846 1.57033 -0.133567 0
M  V30 2317 C 213.793 2.16074 0.811208 0
M  V30 2318 C 214.763 1.08979 1.2535 0
M  V30 2319 O 215.948 1.36958 1.32843 0
M  V30 2320 C 213.088 2.77595 2.05024 0
M  V30 2321 C 212.201 3.99042 1.65498 0
M  V30 2322 C 211.336 4.48603 2.84479 0
M  V30 2323 C 210.375 5.62547 2.41262 0
M  V30 2324 N 209.512 6.06787 3.53206 0
M  V30 2325 H 214.352 2.96477 0.300906 0
M  V30 2326 H 211.889 1.46462 0.136822 0
M  V30 2327 H 213.847 3.11402 2.77642 0
M  V30 2328 H 212.477 1.99859 2.53488 0
M  V30 2329 H 211.529 3.71302 0.826981 0
M  V30 2330 H 212.841 4.81629 1.29748 0
M  V30 2331 H 211.995 4.84395 3.65303 0
M  V30 2332 H 210.734 3.64995 3.23465 0
M  V30 2333 H 209.739 5.26345 1.58874 0
M  V30 2334 H 210.964 6.47931 2.03377 0
M  V30 2335 H 208.91 5.26117 3.91838 0
M  V30 2336 H 208.827 6.84266 3.21427 0
M  V30 2337 H 210.095 6.4722 4.34427 0
M  V30 2338 N 214.325 -0.140222 1.56975 0
M  V30 2339 C 215.602 -0.880769 1.74648 0
M  V30 2340 C 215.982 -1.99036 0.703404 0
M  V30 2341 O 215.33 -2.26821 -0.27648 0
M  V30 2342 C 215.54 -1.417 3.18939 0
M  V30 2343 C 216.888 -1.87774 3.80823 0
M  V30 2344 O 217.912 -1.51427 3.2241 0
M  V30 2345 O 216.771 -2.54827 4.83452 0
M  V30 2346 H 213.865 -0.416713 0.714338 0
M  V30 2347 H 216.411 -0.125618 1.69234 0
M  V30 2348 H 215.183 -0.619902 3.86359 0
M  V30 2349 H 214.806 -2.23546 3.28805 0
M  V30 2350 N 215.803 -1.52179 -0.40978 0
M  V30 2351 C 217.219 -1.40968 -0.74835 0
M  V30 2352 C 217.419 -0.513657 -1.94843 0
M  V30 2353 O 216.475 0.0208026 -2.52491 0
M  V30 2354 C 217.788 -2.83483 -1.0029 0
M  V30 2355 C 219.336 -2.92821 -1.10565 0
M  V30 2356 C 219.811 -4.36303 -1.39296 0
M  V30 2357 N 221.302 -4.39535 -1.46162 0
M  V30 2358 C 222.037 -5.47614 -1.70018 0
M  V30 2359 N 221.533 -6.65812 -1.91483 0
M  V30 2360 N 223.326 -5.35129 -1.72027 0
M  V30 2361 H 215.477 -2.0897 0.380186 0
M  V30 2362 H 217.74 -0.94185 0.107805 0
M  V30 2363 H 217.446 -3.51168 -0.193461 0
M  V30 2364 H 217.32 -3.24487 -1.92323 0
M  V30 2365 H 219.707 -2.25318 -1.90568 0
M  V30 2366 H 219.788 -2.55276 -0.16369 0
M  V30 2367 H 219.432 -5.04366 -0.598109 0
M  V30 2368 H 219.362 -4.71385 -2.34743 0
M  V30 2369 H 221.853 -3.54332 -1.31367 0
M  V30 2370 H 222.166 -7.43964 -2.09134 0
M  V30 2371 H 220.511 -6.68879 -1.88749 0
M  V30 2372 H 223.702 -4.41764 -1.54796 0
M  V30 2373 H 223.875 -6.19433 -1.9028 0
M  V30 2374 N 217.281 0.66697 -1.42791 0
M  V30 2375 C 218.509 1.45505 -1.47091 0
M  V30 2376 C 218.924 1.8861 -0.0845873 0
M  V30 2377 O 218.281 1.58632 0.90234 0
M  V30 2378 C 218.332 2.69906 -2.40485 0
M  V30 2379 O 218.053 2.28608 -3.73725 0
M  V30 2380 C 219.554 3.63396 -2.53886 0
M  V30 2381 H 216.774 0.447459 -0.500022 0
M  V30 2382 H 219.318 0.818866 -1.8739 0
M  V30 2383 H 217.473 3.29696 -2.03419 0
M  V30 2384 H 217.887 3.08997 -4.23817 0
M  V30 2385 H 219.361 4.47387 -3.2334 0
M  V30 2386 H 219.838 4.09824 -1.57927 0
M  V30 2387 H 220.444 3.09495 -2.91706 0
M  V30 2388 N 218.759 1.29093 0.90403 0
M  V30 2389 C 219.689 1.16401 2.02418 0
M  V30 2390 C 220.67 0.0593085 1.69997 0
M  V30 2391 O 221.855 0.238021 1.92736 0
M  V30 2392 C 218.985 0.835233 3.37107 0
M  V30 2393 C 217.939 1.89578 3.83724 0
M  V30 2394 C 217.265 1.42041 5.15489 0
M  V30 2395 C 218.565 3.30394 4.04521 0
M  V30 2396 H 220.259 2.10109 2.13295 0
M  V30 2397 H 217.805 1.01157 1.02486 0
M  V30 2398 H 219.758 0.733169 4.14973 0
M  V30 2399 H 218.482 -0.137543 3.2631 0
M  V30 2400 H 217.141 1.98715 3.08071 0
M  V30 2401 H 216.789 0.436426 5.01103 0
M  V30 2402 H 216.489 2.12964 5.4765 0
M  V30 2403 H 218.013 1.33176 5.959 0
M  V30 2404 H 219.427 3.24123 4.72882 0
M  V30 2405 H 217.824 3.99237 4.48029 0
M  V30 2406 H 218.894 3.73692 3.09002 0
M  V30 2407 N 220.237 -1.11381 1.11499 0
M  V30 2408 C 221.648 -1.6465 0.880191 0
M  V30 2409 C 221.999 -1.87199 -0.587434 0
M  V30 2410 O 221.124 -1.60667 -1.44966 0
M  V30 2411 C 221.719 -2.99105 1.59128 0
M  V30 2412 C 220.278 -3.49279 1.40289 0
M  V30 2413 C 219.425 -2.24077 1.63354 0
M  V30 2414 H 222.376 -0.950123 1.27116 0
M  V30 2415 H 222.397 -3.66107 1.03664 0
M  V30 2416 H 221.909 -2.82661 2.65941 0
M  V30 2417 H 220.01 -3.70887 0.356888 0
M  V30 2418 H 220.123 -4.2803 2.15238 0
M  V30 2419 H 218.487 -2.31733 1.05698 0
M  V30 2420 H 219.27 -2.10175 2.71443 0
M  V30 2421 N 221.715 -0.905404 -1.28997 0
M  V30 2422 C 222.962 -0.534248 -1.95325 0
M  V30 2423 C 223.29 0.920535 -1.71337 0
M  V30 2424 O 222.545 1.66861 -1.02254 0
M  V30 2425 C 222.844 -0.779906 -3.48787 0
M  V30 2426 C 222.51 -2.21293 -3.92861 0
M  V30 2427 C 221.172 -2.60475 -4.04606 0
M  V30 2428 C 223.524 -3.14587 -4.15553 0
M  V30 2429 C 220.852 -3.9212 -4.36416 0
M  V30 2430 C 223.204 -4.45787 -4.48839 0
M  V30 2431 C 221.868 -4.84834 -4.58794 0
M  V30 2432 H 221.138 -0.195495 -0.714747 0
M  V30 2433 H 223.785 -1.14514 -1.53488 0
M  V30 2434 H 222.09 -0.0861365 -3.91705 0
M  V30 2435 H 223.787 -0.472029 -3.98212 0
M  V30 2436 H 220.377 -1.89887 -3.84241 0
M  V30 2437 H 224.561 -2.85528 -4.0594 0
M  V30 2438 H 219.817 -4.22086 -4.42327 0
M  V30 2439 H 223.991 -5.18098 -4.65346 0
M  V30 2440 H 221.618 -5.86877 -4.83197 0
M  V30 2441 N 223.193 1.4272 -0.668489 0
M  V30 2442 C 224.143 2.27971 0.0363806 0
M  V30 2443 C 225.127 1.40741 0.779794 0
M  V30 2444 O 226.319 1.64245 0.659745 0
M  V30 2445 C 223.448 3.28673 0.991398 0
M  V30 2446 C 222.534 4.23388 0.245658 0
M  V30 2447 N 222.925 5.00267 -0.746069 0
M  V30 2448 C 221.223 4.43355 0.484988 0
M  V30 2449 C 221.924 5.69396 -1.19009 0
M  V30 2450 N 220.9 5.41095 -0.521287 0
M  V30 2451 H 224.702 2.84833 -0.724394 0
M  V30 2452 H 222.216 1.54607 -0.497028 0
M  V30 2453 H 224.213 3.88543 1.51129 0
M  V30 2454 H 222.873 2.73373 1.75207 0
M  V30 2455 H 223.884 5.05525 -1.12537 0
M  V30 2456 H 220.561 3.99104 1.22565 0
M  V30 2457 H 221.951 6.41083 -2.01153 0
M  V30 2458 N 224.671 0.411399 1.52136 0
M  V30 2459 C 225.896 -0.165538 2.06738 0
M  V30 2460 C 226.321 -1.379 1.27926 0
M  V30 2461 O 225.679 -1.78628 0.310114 0
M  V30 2462 C 225.727 -0.492124 3.57226 0
M  V30 2463 O 224.831 -1.58276 3.80818 0
M  V30 2464 H 224.172 -0.0132132 0.663869 0
M  V30 2465 H 226.702 0.585253 1.96051 0
M  V30 2466 H 226.712 -0.750104 4.01045 0
M  V30 2467 H 225.387 0.394922 4.14021 0
M  V30 2468 H 223.964 -1.31677 3.48877 0
M  V30 2469 N 226.149 -1.5696 0.141893 0
M  V30 2470 C 227.395 -1.9625 -0.511248 0
M  V30 2471 C 227.728 -1.02654 -1.64851 0
M  V30 2472 O 227.003 -0.0679676 -1.94381 0
M  V30 2473 C 227.286 -3.45285 -1.02227 0
M  V30 2474 C 227.139 -4.49658 0.113138 0
M  V30 2475 C 228.458 -3.96698 -1.90574 0
M  V30 2476 H 225.577 -0.713567 -0.184367 0
M  V30 2477 H 228.219 -1.88698 0.222087 0
M  V30 2478 H 226.369 -3.51852 -1.64719 0
M  V30 2479 H 228.041 -4.55174 0.749302 0
M  V30 2480 H 226.284 -4.26857 0.773026 0
M  V30 2481 H 226.955 -5.51258 -0.286053 0
M  V30 2482 H 229.431 -3.92578 -1.37918 0
M  V30 2483 H 228.307 -5.01453 -2.2324 0
M  V30 2484 H 228.568 -3.3875 -2.84079 0
M  V30 2485 N 227.627 0.131896 -1.57047 0
M  V30 2486 C 228.876 0.84044 -1.83356 0
M  V30 2487 C 229.189 1.81646 -0.725535 0
M  V30 2488 O 230.395 2.57025 -0.874659 0
M  V30 2489 C 228.851 1.54528 -3.25037 0
M  V30 2490 C 228.459 0.610902 -4.43815 0
M  V30 2491 C 230.203 2.23972 -3.60606 0
M  V30 2492 C 228.11 1.31823 -5.76521 0
M  V30 2493 H 227.04 0.317599 -0.683847 0
M  V30 2494 H 229.691 0.0931561 -1.83263 0
M  V30 2495 H 228.073 2.33873 -3.19561 0
M  V30 2496 H 229.247 -0.148407 -4.60561 0
M  V30 2497 H 227.562 0.0241016 -4.16393 0
M  V30 2498 H 230.159 2.77558 -4.57018 0
M  V30 2499 H 230.502 3.01173 -2.87403 0
M  V30 2500 H 231.035 1.51529 -3.6781 0
M  V30 2501 H 227.774 0.587771 -6.52859 0
M  V30 2502 H 227.294 2.04987 -5.63685 0
M  V30 2503 H 228.973 1.855 -6.19838 0
M  V30 2504 N 229.106 1.52395 0.401703 0
M  V30 2505 C 230.336 1.70429 1.1678 0
M  V30 2506 C 230.744 0.416702 1.84554 0
M  V30 2507 O 230.087 -0.617697 1.73003 0
M  V30 2508 C 230.149 2.78919 2.26814 0
M  V30 2509 C 229.813 4.20437 1.79113 0
M  V30 2510 C 230.81 5.04028 1.27482 0
M  V30 2511 C 228.495 4.66704 1.85722 0
M  V30 2512 C 230.489 6.31961 0.830913 0
M  V30 2513 C 228.176 5.94625 1.40942 0
M  V30 2514 C 229.174 6.77082 0.897128 0
M  V30 2515 O 228.862 8.02607 0.455822 0
M  V30 2516 H 228.594 0.574272 0.356634 0
M  V30 2517 H 231.148 1.99767 0.477724 0
M  V30 2518 H 229.378 2.44973 2.99207 0
M  V30 2519 H 231.067 2.8548 2.88541 0
M  V30 2520 H 231.833 4.69471 1.21744 0
M  V30 2521 H 227.712 4.0262 2.24539 0
M  V30 2522 H 231.256 6.96271 0.430368 0
M  V30 2523 H 227.153 6.28688 1.46362 0
M  V30 2524 H 227.921 8.16453 0.578457 0
M  V30 2525 N 230.584 -0.659388 1.43143 0
M  V30 2526 C 231.534 -1.7655 1.44271 0
M  V30 2527 C 232.518 -1.57847 0.311961 0
M  V30 2528 O 233.71 -1.68064 0.555306 0
M  V30 2529 C 230.839 -3.15104 1.36251 0
M  V30 2530 C 229.925 -3.39377 2.54331 0
M  V30 2531 N 230.316 -3.34153 3.79704 0
M  V30 2532 C 228.614 -3.70072 2.48922 0
M  V30 2533 C 229.315 -3.58337 4.58225 0
M  V30 2534 N 228.291 -3.79851 3.88863 0
M  V30 2535 H 232.093 -1.70928 2.39083 0
M  V30 2536 H 229.607 -0.860823 1.37708 0
M  V30 2537 H 231.604 -3.94389 1.35141 0
M  V30 2538 H 230.264 -3.21913 0.424531 0
M  V30 2539 H 231.275 -3.13704 4.1208 0
M  V30 2540 H 227.952 -3.84034 1.63781 0
M  V30 2541 H 229.342 -3.60129 5.67236 0
M  V30 2542 N 232.062 -1.29571 -0.897171 0
M  V30 2543 C 232.972 -1.16808 -2.03453 0
M  V30 2544 C 233.988 -0.0907471 -1.73763 0
M  V30 2545 O 235.164 -0.303312 -1.99103 0
M  V30 2546 C 232.229 -0.848264 -3.36163 0
M  V30 2547 C 231.29 -2.0097 -3.79354 0
M  V30 2548 C 230.523 -1.70505 -5.05731 0
M  V30 2549 O 230.746 -0.62718 -5.66941 0
M  V30 2550 O 229.68 -2.5538 -5.45036 0
M  V30 2551 H 233.506 -2.12325 -2.17144 0
M  V30 2552 H 231.091 -1.09047 -1.02123 0
M  V30 2553 H 232.973 -0.684581 -4.15802 0
M  V30 2554 H 231.648 0.0771071 -3.23608 0
M  V30 2555 H 230.555 -2.22863 -3.00471 0
M  V30 2556 H 231.888 -2.91636 -3.96496 0
M  V30 2557 N 233.54 1.10788 -1.12088 0
M  V30 2558 C 234.817 1.79136 -0.785476 0
M  V30 2559 C 235.197 1.98246 0.725377 0
M  V30 2560 O 234.545 1.57258 1.65778 0
M  V30 2561 C 234.755 3.12375 -1.55636 0
M  V30 2562 C 236.103 3.8731 -1.74001 0
M  V30 2563 O 237.127 3.22085 -1.52117 0
M  V30 2564 O 235.986 5.04369 -2.10415 0
M  V30 2565 H 233.08 0.776226 -0.285311 0
M  V30 2566 H 235.626 1.1747 -1.2247 0
M  V30 2567 H 234.398 2.93863 -2.5838 0
M  V30 2568 H 234.021 3.81758 -1.11114 0
M  V30 2569 N 235.018 0.912232 1.28515 0
M  V30 2570 C 236.295 0.463597 1.90027 0
M  V30 2571 C 236.675 -1.05753 1.82701 0
M  V30 2572 O 236.023 -1.90492 1.26194 0
M  V30 2573 C 236.233 0.992253 3.34597 0
M  V30 2574 C 237.581 1.04344 4.11579 0
M  V30 2575 O 238.605 0.94079 3.43551 0
M  V30 2576 O 237.464 1.1995 5.33174 0
M  V30 2577 H 234.558 0.146666 0.813891 0
M  V30 2578 H 237.104 1.00292 1.36893 0
M  V30 2579 H 235.876 2.03623 3.34146 0
M  V30 2580 H 235.499 0.433672 3.95228 0
M  V30 2581 N 236.496 -1.42363 0.676048 0
M  V30 2582 C 237.745 -2.00745 0.196037 0
M  V30 2583 C 238.058 -1.54083 -1.20489 0
M  V30 2584 O 239.264 -2.04891 -1.78134 0
M  V30 2585 C 237.72 -3.58651 0.299616 0
M  V30 2586 C 237.328 -4.143 1.70468 0
M  V30 2587 C 239.072 -4.24326 -0.121619 0
M  V30 2588 C 236.979 -5.64574 1.76096 0
M  V30 2589 H 235.909 -0.750787 0.0695301 0
M  V30 2590 H 238.56 -1.63072 0.841412 0
M  V30 2591 H 236.942 -3.93833 -0.413673 0
M  V30 2592 H 238.116 -3.90575 2.44515 0
M  V30 2593 H 236.431 -3.61081 2.07387 0
M  V30 2594 H 239.028 -5.34607 -0.0997362 0
M  V30 2595 H 239.371 -3.99897 -1.15708 0
M  V30 2596 H 239.904 -3.94108 0.540706 0
M  V30 2597 H 236.643 -5.93804 2.77628 0
M  V30 2598 H 236.163 -5.90286 1.06406 0
M  V30 2599 H 237.842 -6.29013 1.51496 0
M  V30 2600 N 237.974 -0.419461 -1.51915 0
M  V30 2601 C 238.922 0.415502 -2.28859 0
M  V30 2602 C 239.916 1.03674 -1.3397 0
M  V30 2603 O 241.122 0.973757 -1.51387 0
M  V30 2604 H 237.497 0.152786 -0.736315 0
M  V30 2605 H 239.468 -0.254531 -2.97312 0
M  V30 2606 C 238.217 1.51425 -3.12995 0
M  V30 2607 H 237.54 1.04556 -3.85886 0
M  V30 2608 H 238.98 2.07208 -3.6992 0
M  V30 2609 C 237.439 2.48745 -2.27217 0
M  V30 2610 O 237.969 3.52871 -1.9195 0
M  V30 2611 N 236.175 2.19202 -1.90785 0
M  V30 2612 H 235.722 1.34556 -2.19664 0
M  V30 2613 H 235.68 2.84561 -1.33687 0
M  V30 2614 N 239.452 1.56882 -0.150215 0
M  V30 2615 C 240.682 2.00302 0.506213 0
M  V30 2616 C 241.09 1.02934 1.58749 0
M  V30 2617 O 240.433 0.0188384 1.8369 0
M  V30 2618 C 240.495 3.40156 1.16337 0
M  V30 2619 C 240.159 4.56439 0.226311 0
M  V30 2620 C 241.156 5.17012 -0.547265 0
M  V30 2621 C 238.841 5.02136 0.128279 0
M  V30 2622 C 240.835 6.21693 -1.40629 0
M  V30 2623 C 238.522 6.06672 -0.734345 0
M  V30 2624 C 239.52 6.6632 -1.50023 0
M  V30 2625 O 239.208 7.68831 -2.34848 0
M  V30 2626 H 238.94 0.662182 0.135984 0
M  V30 2627 H 241.494 2.03961 -0.242746 0
M  V30 2628 H 239.724 3.33346 1.96004 0
M  V30 2629 H 241.413 3.67663 1.71985 0
M  V30 2630 H 242.179 4.82603 -0.48158 0
M  V30 2631 H 238.058 4.55435 0.714157 0
M  V30 2632 H 241.602 6.68179 -2.00455 0
M  V30 2633 H 237.499 6.40507 -0.801309 0
M  V30 2634 H 238.267 7.86065 -2.28131 0
M  V30 2635 N 240.93 -0.123565 1.57115 0
M  V30 2636 C 242.341 -0.681198 1.73829 0
M  V30 2637 C 242.692 -1.80535 0.768214 0
M  V30 2638 O 241.817 -2.16317 -0.0599103 0
M  V30 2639 C 242.412 -1.24246 3.15196 0
M  V30 2640 C 240.971 -1.74643 3.33432 0
M  V30 2641 C 240.118 -0.644284 2.69711 0
M  V30 2642 H 243.069 0.102315 1.5837 0
M  V30 2643 H 243.09 -2.11216 3.16493 0
M  V30 2644 H 242.602 -0.424062 3.85776 0
M  V30 2645 H 240.703 -2.58974 2.67886 0
M  V30 2646 H 240.816 -1.85902 4.41562 0
M  V30 2647 H 239.18 -1.07676 2.3082 0
M  V30 2648 H 239.963 0.163058 3.42913 0
M  V30 2649 N 242.408 -1.52605 -0.393616 0
M  V30 2650 C 243.358 -1.73436 -1.48 0
M  V30 2651 C 244.342 -0.588386 -1.49756 0
M  V30 2652 O 245.534 -0.846047 -1.5547 0
M  V30 2653 C 242.663 -1.90247 -2.85764 0
M  V30 2654 C 241.749 -3.10763 -2.88595 0
M  V30 2655 N 242.14 -4.33196 -2.61103 0
M  V30 2656 C 240.438 -3.10914 -3.19763 0
M  V30 2657 C 241.139 -5.1477 -2.70899 0
M  V30 2658 N 240.115 -4.50356 -3.04435 0
M  V30 2659 H 243.917 -2.65727 -1.25563 0
M  V30 2660 H 241.431 -1.5085 -0.601513 0
M  V30 2661 H 243.428 -2.03291 -3.63976 0
M  V30 2662 H 242.088 -0.991663 -3.09186 0
M  V30 2663 H 243.099 -4.61408 -2.35209 0
M  V30 2664 H 239.776 -2.29626 -3.4868 0
M  V30 2665 H 241.166 -6.22355 -2.53227 0
M  V30 2666 N 243.887 0.651787 -1.4349 0
M  V30 2667 C 244.834 1.76462 -1.4876 0
M  V30 2668 C 245.804 1.62641 -0.337189 0
M  V30 2669 O 246.989 1.82864 -0.544544 0
M  V30 2670 C 244.129 3.14623 -1.41796 0
M  V30 2671 C 243.242 3.39568 -2.67053 0
M  V30 2672 C 242.377 4.67585 -2.52068 0
M  V30 2673 C 241.416 4.85639 -3.72587 0
M  V30 2674 N 240.553 6.04915 -3.56402 0
M  V30 2675 H 245.393 1.71293 -2.43849 0
M  V30 2676 H 242.93 0.835889 -1.21043 0
M  V30 2677 H 244.888 3.94496 -1.35753 0
M  V30 2678 H 243.518 3.18859 -0.50288 0
M  V30 2679 H 242.57 2.53783 -2.8337 0
M  V30 2680 H 243.882 3.48795 -3.56572 0
M  V30 2681 H 243.036 5.55586 -2.4374 0
M  V30 2682 H 241.775 4.60681 -1.60075 0
M  V30 2683 H 240.78 3.96073 -3.81321 0
M  V30 2684 H 242.005 4.94372 -4.65589 0
M  V30 2685 H 239.951 5.9914 -2.67146 0
M  V30 2686 H 239.868 6.15106 -4.39524 0
M  V30 2687 H 241.136 6.95533 -3.51929 0
M  V30 2688 N 245.365 1.30045 0.890287 0
M  V30 2689 C 246.595 1.21296 1.67245 0
M  V30 2690 C 247.003 -0.227471 1.87828 0
M  V30 2691 O 246.346 -1.16296 1.422 0
M  V30 2692 C 246.408 1.86519 3.07329 0
M  V30 2693 C 246.072 3.35837 3.09939 0
M  V30 2694 C 247.069 4.31915 2.89389 0
M  V30 2695 C 244.754 3.77196 3.31706 0
M  V30 2696 C 246.748 5.67325 2.90552 0
M  V30 2697 C 244.435 5.12725 3.32499 0
M  V30 2698 C 245.433 6.076 3.11947 0
M  V30 2699 O 245.121 7.40655 3.12547 0
M  V30 2700 H 244.853 0.4211 0.528821 0
M  V30 2701 H 247.407 1.72111 1.12103 0
M  V30 2702 H 245.637 1.30228 3.64112 0
M  V30 2703 H 247.326 1.71963 3.67673 0
M  V30 2704 H 248.092 4.01294 2.72375 0
M  V30 2705 H 243.971 3.03796 3.4674 0
M  V30 2706 H 247.515 6.41354 2.74429 0
M  V30 2707 H 243.412 5.42988 3.49047 0
M  V30 2708 H 244.18 7.49577 3.28749 0
M  V30 2709 N 246.843 -1.10192 1.12674 0
M  V30 2710 C 248.091 -1.81845 0.881861 0
M  V30 2711 C 248.412 -1.85737 -0.593867 0
M  V30 2712 O 247.682 -1.33724 -1.4316 0
M  V30 2713 H 246.262 -0.673432 0.323261 0
M  V30 2714 H 248.924 -1.33316 1.42172 0
M  V30 2715 H 248.02 -2.85288 1.2656 0
M  V30 2716 N 248.321 -0.919034 -1.28029 0
M  V30 2717 C 249.732 -0.600735 -1.76771 0
M  V30 2718 C 250.083 0.884024 -1.75156 0
M  V30 2719 O 249.208 1.69163 -1.34956 0
M  V30 2720 C 249.803 -1.08372 -3.21 0
M  V30 2721 C 248.362 -0.816248 -3.67443 0
M  V30 2722 C 247.509 -1.24742 -2.47658 0
M  V30 2723 H 250.46 -1.09974 -1.14418 0
M  V30 2724 H 250.481 -0.427512 -3.78091 0
M  V30 2725 H 249.993 -2.16437 -3.22144 0
M  V30 2726 H 248.094 0.250968 -3.71754 0
M  V30 2727 H 248.207 -1.4277 -4.57333 0
M  V30 2728 H 246.571 -0.666083 -2.45836 0
M  V30 2729 H 247.354 -2.33653 -2.51518 0
M  V30 2730 N 249.799 1.42003 -0.683588 0
M  V30 2731 C 250.731 2.29183 0.0283068 0
M  V30 2732 C 251.744 1.4415 0.756611 0
M  V30 2733 O 252.933 1.67779 0.609306 0
M  V30 2734 C 250.033 3.21765 1.06398 0
M  V30 2735 C 249.206 4.35496 0.407723 0
M  V30 2736 C 248.265 5.08737 1.34437 0
M  V30 2737 O 247.291 5.62948 0.841318 0
M  V30 2738 N 248.493 5.15075 2.67728 0
M  V30 2739 H 251.258 2.9092 -0.720105 0
M  V30 2740 H 248.819 1.53025 -0.528682 0
M  V30 2741 H 250.811 3.6763 1.69204 0
M  V30 2742 H 249.381 2.61418 1.71404 0
M  V30 2743 H 248.601 3.92165 -0.400012 0
M  V30 2744 H 249.889 5.08776 -0.0490956 0
M  V30 2745 H 249.287 4.72457 3.11129 0
M  V30 2746 H 247.844 5.64556 3.2576 0
M  V30 2747 N 251.277 0.427512 1.51691 0
M  V30 2748 C 252.525 -0.141948 2.01601 0
M  V30 2749 C 252.846 -1.44067 1.31414 0
M  V30 2750 O 252.116 -1.90763 0.445658 0
M  V30 2751 H 250.696 -0.0554468 0.744939 0
M  V30 2752 H 253.358 0.567968 1.86441 0
M  V30 2753 H 252.454 -0.324913 3.10404 0
M  V30 2754 N 252.755 -1.56801 0.158532 0
M  V30 2755 C 254.003 -1.96102 -0.488712 0
M  V30 2756 C 254.324 -1.04498 -1.64636 0
M  V30 2757 O 253.594 -0.108783 -1.95598 0
M  V30 2758 H 252.174 -0.724102 -0.183535 0
M  V30 2759 H 254.836 -1.93457 0.236728 0
M  V30 2760 H 253.932 -3.00097 -0.857219 0
M  V30 2761 N 254.233 0.115231 -1.57178 0
M  V30 2762 C 255.473 0.828199 -1.8687 0
M  V30 2763 C 255.837 1.76873 -0.747002 0
M  V30 2764 O 257.038 2.52354 -0.925785 0
M  V30 2765 C 255.309 1.55515 -3.21792 0
M  V30 2766 S 256.868 2.30917 -3.73125 0
M  V30 2767 H 253.686 0.27634 -0.655101 0
M  V30 2768 H 256.288 0.0863469 -1.95309 0
M  V30 2769 H 254.992 0.856248 -4.01368 0
M  V30 2770 H 254.523 2.3373 -3.16439 0
M  V30 2771 H 256.538 3.56705 -3.44929 0
M  V30 2772 N 255.711 1.52812 0.385517 0
M  V30 2773 C 256.674 1.77188 1.45386 0
M  V30 2774 C 257.674 0.641953 1.4743 0
M  V30 2775 O 258.864 0.910033 1.4854 0
M  V30 2776 C 255.996 1.87582 2.8465 0
M  V30 2777 H 257.189 2.72583 1.25054 0
M  V30 2778 H 254.742 1.43586 0.617467 0
M  V30 2779 H 255.477 0.941849 3.10322 0
M  V30 2780 H 255.262 2.69748 2.84567 0
M  V30 2781 H 256.752 2.08102 3.62054 0
M  V30 2782 N 257.189 -0.644168 1.43834 0
M  V30 2783 C 258.466 -1.40188 1.36406 0
M  V30 2784 C 258.846 -2.11094 0.0163124 0
M  V30 2785 O 258.194 -2.05426 -1.00062 0
M  V30 2786 C 258.404 -2.3791 2.55343 0
M  V30 2787 C 259.752 -3.01637 2.98832 0
M  V30 2788 O 260.776 -2.48237 2.55455 0
M  V30 2789 O 259.635 -3.98477 3.74003 0
M  V30 2790 H 256.729 -0.626773 0.539523 0
M  V30 2791 H 259.275 -0.670317 1.559 0
M  V30 2792 H 258.047 -1.84525 3.4506 0
M  V30 2793 H 257.67 -3.18503 2.37995 0
M  V30 2794 N 258.668 -1.30515 -0.883378 0
M  V30 2795 C 259.618 -1.13641 -1.9766 0
M  V30 2796 C 260.602 -0.0511314 -1.60819 0
M  V30 2797 O 261.794 -0.274623 -1.74857 0
M  V30 2798 C 258.923 -0.831976 -3.33066 0
M  V30 2799 C 258.009 -1.95759 -3.76217 0
M  V30 2800 N 258.4 -3.20313 -3.9145 0
M  V30 2801 C 256.698 -1.85431 -4.05625 0
M  V30 2802 C 257.399 -3.93856 -4.2808 0
M  V30 2803 N 256.375 -3.21919 -4.38029 0
M  V30 2804 H 260.177 -2.08106 -2.07531 0
M  V30 2805 H 257.691 -1.21877 -1.0733 0
M  V30 2806 H 259.688 -0.692102 -4.11115 0
M  V30 2807 H 258.348 0.104588 -3.24532 0
M  V30 2808 H 259.359 -3.55583 -3.76538 0
M  V30 2809 H 256.036 -0.991531 -4.05555 0
M  V30 2810 H 257.426 -5.01125 -4.47575 0
M  V30 2811 N 260.146 1.09593 -1.13257 0
M  V30 2812 C 261.371 1.8604 -0.916732 0
M  V30 2813 C 261.796 1.80504 0.529146 0
M  V30 2814 O 261.154 1.18127 1.37534 0
M  V30 2815 C 261.202 3.32017 -1.40703 0
M  V30 2816 O 260.306 4.08141 -0.591153 0
M  V30 2817 H 259.647 0.576943 -0.328683 0
M  V30 2818 H 262.177 1.38405 -1.50682 0
M  V30 2819 H 262.187 3.82865 -1.4099 0
M  V30 2820 H 260.862 3.35361 -2.45979 0
M  V30 2821 H 259.439 3.67084 -0.656005 0
M  V30 2822 N 261.624 0.925811 1.2754 0
M  V30 2823 C 262.87 0.566092 1.94739 0
M  V30 2824 C 263.203 -0.890057 1.72603 0
M  V30 2825 O 262.478 -1.63467 1.05399 0
M  V30 2826 C 262.761 0.89054 3.48915 0
M  V30 2827 C 262.614 2.4003 3.80402 0
M  V30 2828 C 263.933 0.395101 4.38323 0
M  V30 2829 H 261.052 0.20714 0.707292 0
M  V30 2830 H 263.694 1.15725 1.50691 0
M  V30 2831 H 261.844 0.387452 3.86563 0
M  V30 2832 H 263.516 2.97494 3.52555 0
M  V30 2833 H 261.759 2.85028 3.2702 0
M  V30 2834 H 262.43 2.57785 4.8811 0
M  V30 2835 H 264.906 0.826241 4.07814 0
M  V30 2836 H 263.782 0.651086 5.45025 0
M  V30 2837 H 264.043 -0.704798 4.36446 0
M  V30 2838 N 263.102 -1.41638 0.69111 0
M  V30 2839 C 264.349 -2.01299 0.220193 0
M  V30 2840 C 264.677 -1.54715 -1.17871 0
M  V30 2841 O 263.932 -0.747193 -1.80874 0
M  V30 2842 C 264.231 -3.56714 0.221277 0
M  V30 2843 C 263.897 -4.22792 1.56709 0
M  V30 2844 C 262.559 -4.40557 1.93554 0
M  V30 2845 C 264.911 -4.59883 2.45268 0
M  V30 2846 C 262.239 -4.92688 3.18552 0
M  V30 2847 C 264.591 -5.13403 3.69595 0
M  V30 2848 C 263.255 -5.29379 4.06589 0
M  V30 2849 H 262.525 -0.736606 0.0805743 0
M  V30 2850 H 265.172 -1.69598 0.889319 0
M  V30 2851 H 263.477 -3.8818 -0.531391 0
M  V30 2852 H 265.174 -4.00678 -0.160547 0
M  V30 2853 H 261.764 -4.09336 1.2705 0
M  V30 2854 H 265.948 -4.45817 2.18084 0
M  V30 2855 H 261.204 -5.03242 3.47214 0
M  V30 2856 H 265.378 -5.41084 4.38407 0
M  V30 2857 H 263.005 -5.69537 5.03519 0
M  V30 2858 N 264.58 -0.43555 -1.51462 0
M  V30 2859 C 265.49 0.383001 -2.31453 0
M  V30 2860 C 266.506 1.02931 -1.4029 0
M  V30 2861 O 267.682 1.02507 -1.73362 0
M  V30 2862 C 264.747 1.47043 -3.13973 0
M  V30 2863 C 263.808 0.844433 -4.20913 0
M  V30 2864 C 263.041 1.88004 -4.9949 0
M  V30 2865 O 263.264 3.10199 -4.78678 0
M  V30 2866 O 262.198 1.47157 -5.83634 0
M  V30 2867 H 266.024 -0.269964 -3.02498 0
M  V30 2868 H 263.609 -0.19813 -1.4808 0
M  V30 2869 H 265.491 2.10113 -3.65281 0
M  V30 2870 H 264.166 2.10751 -2.45695 0
M  V30 2871 H 263.073 0.175729 -3.73687 0
M  V30 2872 H 264.406 0.250869 -4.9156 0
M  V30 2873 N 266.058 1.56714 -0.166846 0
M  V30 2874 C 267.474 1.58473 0.189372 0
M  V30 2875 C 267.674 1.18201 1.63189 0
M  V30 2876 O 266.73 0.891528 2.36237 0
M  V30 2877 C 268.043 3.00573 -0.0873872 0
M  V30 2878 C 269.591 3.1299 -0.0252443 0
M  V30 2879 C 270.066 4.57174 -0.274934 0
M  V30 2880 N 271.557 4.62665 -0.222553 0
M  V30 2881 C 272.292 5.72072 -0.389985 0
M  V30 2882 N 271.788 6.90054 -0.616229 0
M  V30 2883 N 273.581 5.61153 -0.326202 0
M  V30 2884 H 265.732 1.8118 -1.10849 0
M  V30 2885 H 267.995 0.839525 -0.440342 0
M  V30 2886 H 267.701 3.34497 -1.0865 0
M  V30 2887 H 267.575 3.72019 0.623037 0
M  V30 2888 H 269.962 2.78895 0.96444 0
M  V30 2889 H 270.043 2.43989 -0.768309 0
M  V30 2890 H 269.687 4.91976 -1.26181 0
M  V30 2891 H 269.617 5.24328 0.48869 0
M  V30 2892 H 272.108 3.77863 -0.0531512 0
M  V30 2893 H 272.421 7.69311 -0.733559 0
M  V30 2894 H 270.766 6.91927 -0.652791 0
M  V30 2895 H 273.957 4.67859 -0.150072 0
M  V30 2896 H 274.13 6.46364 -0.460116 0
M  V30 2897 N 267.536 -0.106894 1.57237 0
M  V30 2898 C 268.469 -1.16125 1.96444 0
M  V30 2899 C 269.447 -1.3947 0.835871 0
M  V30 2900 O 270.631 -1.53425 1.09513 0
M  V30 2901 C 267.758 -2.51277 2.27107 0
M  V30 2902 C 266.804 -2.44285 3.4961 0
M  V30 2903 S 267.637 -1.87077 5.01759 0
M  V30 2904 C 268.793 -3.23877 5.35588 0
M  V30 2905 H 269.026 -0.826971 2.85567 0
M  V30 2906 H 266.559 -0.314124 1.51171 0
M  V30 2907 H 268.517 -3.29035 2.45451 0
M  V30 2908 H 267.178 -2.81879 1.38576 0
M  V30 2909 H 266.371 -3.4387 3.68469 0
M  V30 2910 H 265.973 -1.74652 3.30715 0
M  V30 2911 H 268.265 -4.20122 5.31511 0
M  V30 2912 H 269.208 -3.09833 6.36717 0
M  V30 2913 H 269.616 -3.22864 4.63054 0
M  V30 2914 N 269.014 -1.53014 -0.377408 0
M  V30 2915 C 270.43 -1.42523 -0.718281 0
M  V30 2916 C 270.63 -0.55487 -1.9371 0
M  V30 2917 O 269.686 -0.0327593 -2.52479 0
M  V30 2918 C 270.999 -2.85546 -0.942539 0
M  V30 2919 C 272.547 -2.95101 -1.04329 0
M  V30 2920 C 273.022 -4.3916 -1.3001 0
M  V30 2921 N 274.513 -4.42536 -1.36806 0
M  V30 2922 C 275.248 -5.51097 -1.58364 0
M  V30 2923 N 274.744 -6.69724 -1.77317 0
M  V30 2924 N 276.537 -5.38657 -1.60638 0
M  V30 2925 H 268.688 -2.08116 0.424426 0
M  V30 2926 H 270.951 -0.939352 0.127759 0
M  V30 2927 H 270.657 -3.51499 -0.118929 0
M  V30 2928 H 270.531 -3.28493 -1.85397 0
M  V30 2929 H 272.918 -2.29309 -1.85745 0
M  V30 2930 H 272.999 -2.55566 -0.109505 0
M  V30 2931 H 272.643 -5.05521 -0.490991 0
M  V30 2932 H 272.573 -4.76258 -2.24691 0
M  V30 2933 H 275.064 -3.57039 -1.23821 0
M  V30 2934 H 275.377 -7.48233 -1.93306 0
M  V30 2935 H 273.722 -6.72732 -1.74518 0
M  V30 2936 H 276.913 -4.44948 -1.45391 0
M  V30 2937 H 277.086 -6.2333 -1.77098 0
M  V30 2938 N 270.492 0.636531 -1.44174 0
M  V30 2939 C 271.439 1.74875 -1.50624 0
M  V30 2940 C 272.409 1.62275 -0.35442 0
M  V30 2941 O 273.594 1.82276 -0.563908 0
M  V30 2942 C 270.734 3.13102 -1.45125 0
M  V30 2943 C 269.847 3.36717 -2.7064 0
M  V30 2944 C 268.982 4.64885 -2.57013 0
M  V30 2945 C 268.021 4.8166 -3.77717 0
M  V30 2946 N 267.158 6.01101 -3.62798 0
M  V30 2947 H 271.998 1.68697 -2.45653 0
M  V30 2948 H 269.535 0.823004 -1.21922 0
M  V30 2949 H 271.493 3.93034 -1.39929 0
M  V30 2950 H 270.123 3.18308 -0.536671 0
M  V30 2951 H 269.175 2.50763 -2.86046 0
M  V30 2952 H 270.487 3.44993 -3.60252 0
M  V30 2953 H 269.641 5.52969 -2.49619 0
M  V30 2954 H 268.38 4.58957 -1.64953 0
M  V30 2955 H 267.385 3.92007 -3.85501 0
M  V30 2956 H 268.61 4.89406 -4.70807 0
M  V30 2957 H 266.556 5.96273 -2.73486 0
M  V30 2958 H 266.473 6.10409 -4.46023 0
M  V30 2959 H 267.741 6.91761 -3.59286 0
M  V30 2960 N 271.97 1.30982 0.876444 0
M  V30 2961 C 273.2 1.23063 1.65949 0
M  V30 2962 C 273.608 -0.207537 1.88058 0
M  V30 2963 O 272.951 -1.14781 1.43426 0
M  V30 2964 C 273.013 1.89768 3.05333 0
M  V30 2965 C 272.677 3.39106 3.0636 0
M  V30 2966 C 273.674 4.3496 2.84791 0
M  V30 2967 C 271.359 3.80693 3.27686 0
M  V30 2968 C 273.353 5.70375 2.84519 0
M  V30 2969 C 271.04 5.16223 3.27043 0
M  V30 2970 C 272.038 6.10875 3.05485 0
M  V30 2971 O 271.726 7.43928 3.04674 0
M  V30 2972 H 271.458 0.426685 0.524324 0
M  V30 2973 H 274.012 1.7329 1.10271 0
M  V30 2974 H 272.242 1.34082 3.6271 0
M  V30 2975 H 273.931 1.75853 3.65829 0
M  V30 2976 H 274.697 4.0416 2.68103 0
M  V30 2977 H 270.576 3.07457 3.43499 0
M  V30 2978 H 274.12 6.44228 2.67611 0
M  V30 2979 H 270.017 5.4666 3.43269 0
M  V30 2980 H 270.785 7.53022 3.2078 0
M  V30 2981 N 273.449 -1.08991 1.13837 0
M  V30 2982 C 274.381 -2.15606 0.777612 0
M  V30 2983 C 275.394 -1.61533 -0.202739 0
M  V30 2984 O 276.583 -1.78491 0.0181055 0
M  V30 2985 C 273.683 -3.3864 0.132623 0
M  V30 2986 C 272.856 -4.22115 1.1462 0
M  V30 2987 C 271.915 -5.23564 0.526074 0
M  V30 2988 O 270.941 -5.56678 1.18735 0
M  V30 2989 N 272.143 -5.76266 -0.699866 0
M  V30 2990 H 274.908 -2.47159 1.69506 0
M  V30 2991 H 272.469 -1.24747 1.03198 0
M  V30 2992 H 274.461 -4.03626 -0.29459 0
M  V30 2993 H 273.031 -3.04938 -0.687849 0
M  V30 2994 H 272.251 -3.53199 1.75055 0
M  V30 2995 H 273.539 -4.74709 1.83109 0
M  V30 2996 H 272.937 -5.51585 -1.25581 0
M  V30 2997 H 271.494 -6.42963 -1.06968 0
M  V30 2998 N 274.927 -0.932562 -1.27047 0
M  V30 2999 C 275.86 -0.379774 -2.25018 0
M  V30 3000 C 276.838 0.526587 -1.53837 0
M  V30 3001 O 278.022 0.465992 -1.82649 0
M  V30 3002 C 275.149 0.455187 -3.35627 0
M  V30 3003 C 274.195 -0.388428 -4.24728 0
M  V30 3004 S 275.028 -1.80701 -5.04091 0
M  V30 3005 C 276.184 -0.979865 -6.18182 0
M  V30 3006 H 276.417 -1.2101 -2.71558 0
M  V30 3007 H 273.95 -0.735078 -1.35779 0
M  V30 3008 H 275.908 0.931052 -3.99802 0
M  V30 3009 H 274.569 1.26009 -2.87716 0
M  V30 3010 H 273.762 0.25089 -5.03375 0
M  V30 3011 H 273.364 -0.798649 -3.65373 0
M  V30 3012 H 275.656 -0.218115 -6.77149 0
M  V30 3013 H 276.599 -1.73951 -6.86401 0
M  V30 3014 H 277.007 -0.51973 -5.62102 0
M  V30 3015 N 276.405 1.4127 -0.698611 0
M  V30 3016 C 277.633 2.05503 -0.239992 0
M  V30 3017 C 278.048 1.52584 1.11191 0
M  V30 3018 O 277.405 0.675323 1.69545 0
M  V30 3019 C 277.456 3.60987 -0.192429 0
M  V30 3020 O 277.177 4.1195 -1.49094 0
M  V30 3021 C 278.678 4.42371 0.28681 0
M  V30 3022 H 275.898 0.661748 -0.111045 0
M  V30 3023 H 278.442 1.80987 -0.95205 0
M  V30 3024 H 276.597 3.84533 0.470472 0
M  V30 3025 H 277.011 5.06018 -1.38007 0
M  V30 3026 H 278.485 5.51344 0.26896 0
M  V30 3027 H 278.962 4.18699 1.32619 0
M  V30 3028 H 279.568 4.23897 -0.345201 0
M  V30 3029 N 277.883 0.443576 1.51229 0
M  V30 3030 C 279.131 -0.120557 2.0174 0
M  V30 3031 C 279.452 -1.42665 1.32935 0
M  V30 3032 O 278.722 -1.9028 0.465866 0
M  V30 3033 H 277.302 -0.0475426 0.745486 0
M  V30 3034 H 279.964 0.587711 1.85828 0
M  V30 3035 H 279.06 -0.291972 3.10731 0
M  V30 3036 N 279.361 -1.56624 0.175154 0
M  V30 3037 C 280.607 -1.9729 -0.469506 0
M  V30 3038 C 280.94 -1.06128 -1.62636 0
M  V30 3039 O 280.215 -0.109183 -1.94193 0
M  V30 3040 C 280.498 -3.47375 -0.948804 0
M  V30 3041 C 280.351 -4.49317 0.208491 0
M  V30 3042 C 281.67 -4.00652 -1.82116 0
M  V30 3043 H 278.789 -0.717317 -0.16919 0
M  V30 3044 H 281.431 -1.88184 0.262062 0
M  V30 3045 H 279.581 -3.55267 -1.57219 0
M  V30 3046 H 281.253 -4.53482 0.845682 0
M  V30 3047 H 279.496 -4.25121 0.863395 0
M  V30 3048 H 280.167 -5.51741 -0.169059 0
M  V30 3049 H 282.643 -3.95416 -1.2956 0
M  V30 3050 H 281.519 -5.06075 -2.12554 0
M  V30 3051 H 281.78 -3.44699 -2.7683 0
M  V30 3052 N 280.839 0.0985539 -1.57292 0
M  V30 3053 C 281.749 1.13824 -2.05137 0
M  V30 3054 C 282.765 1.44076 -0.975604 0
M  V30 3055 O 283.941 1.54786 -1.28853 0
M  V30 3056 C 281.006 2.43969 -2.46333 0
M  V30 3057 C 280.067 2.2093 -3.68087 0
M  V30 3058 C 279.3 3.44869 -4.0731 0
M  V30 3059 O 279.523 4.52972 -3.46659 0
M  V30 3060 O 278.457 3.34661 -5.00285 0
M  V30 3061 H 282.283 0.761881 -2.93988 0
M  V30 3062 H 279.868 0.310818 -1.46131 0
M  V30 3063 H 281.75 3.20609 -2.73473 0
M  V30 3064 H 280.425 2.81038 -1.60621 0
M  V30 3065 H 279.332 1.42081 -3.46069 0
M  V30 3066 H 280.665 1.88755 -4.54568 0
M  V30 3067 N 282.317 1.53212 0.369288 0
M  V30 3068 C 283.227 1.82342 1.47609 0
M  V30 3069 C 284.243 0.711532 1.58787 0
M  V30 3070 O 285.419 1.0012 1.74751 0
M  V30 3071 C 282.484 2.00393 2.8292 0
M  V30 3072 C 281.545 3.24297 2.81301 0
M  V30 3073 C 280.778 3.41478 4.10157 0
M  V30 3074 O 281.001 2.63033 5.06132 0
M  V30 3075 O 279.935 4.34817 4.16194 0
M  V30 3076 H 283.761 2.76366 1.25918 0
M  V30 3077 H 281.346 1.38547 0.559034 0
M  V30 3078 H 283.228 2.13859 3.63101 0
M  V30 3079 H 281.903 1.09559 3.04596 0
M  V30 3080 H 280.81 3.16257 1.99831 0
M  V30 3081 H 282.143 4.15041 2.64578 0
M  V30 3082 N 283.795 -0.628877 1.44509 0
M  V30 3083 C 285.041 -1.39045 1.47629 0
M  V30 3084 C 285.374 -1.93892 0.109343 0
M  V30 3085 O 284.649 -1.7379 -0.87334 0
M  V30 3086 C 284.932 -2.55408 2.53848 0
M  V30 3087 C 284.785 -2.05896 3.99909 0
M  V30 3088 C 286.104 -3.5759 2.56549 0
M  V30 3089 H 283.223 -0.504232 0.537512 0
M  V30 3090 H 285.865 -0.710854 1.76201 0
M  V30 3091 H 284.015 -3.13384 2.29615 0
M  V30 3092 H 285.687 -1.52734 4.35282 0
M  V30 3093 H 283.93 -1.37061 4.11578 0
M  V30 3094 H 284.601 -2.89681 4.69882 0
M  V30 3095 H 287.077 -3.09419 2.78207 0
M  V30 3096 H 285.953 -4.36527 3.32769 0
M  V30 3097 H 286.214 -4.11808 1.60832 0
M  V30 3098 N 285.273 -1.31445 -0.869486 0
M  V30 3099 C 286.501 -1.24122 -1.65534 0
M  V30 3100 C 286.916 0.193387 -1.87807 0
M  V30 3101 O 286.273 1.12557 -1.43656 0
M  V30 3102 C 286.324 -1.98229 -3.02304 0
M  V30 3103 O 286.045 -3.3609 -2.81026 0
M  V30 3104 C 287.546 -1.97751 -3.96749 0
M  V30 3105 H 284.766 -0.428868 -0.516055 0
M  V30 3106 H 287.31 -1.73328 -1.08525 0
M  V30 3107 H 285.465 -1.52782 -3.56001 0
M  V30 3108 H 285.879 -3.7383 -3.67902 0
M  V30 3109 H 287.353 -2.54114 -4.90031 0
M  V30 3110 H 287.83 -0.960137 -4.28577 0
M  V30 3111 H 288.436 -2.43079 -3.48988 0
M  V30 3112 N 286.751 1.08385 -1.14413 0
M  V30 3113 C 287.683 2.1519 -0.789036 0
M  V30 3114 C 288.696 1.61638 0.19417 0
M  V30 3115 O 289.885 1.78479 -0.0275711 0
M  V30 3116 C 286.985 3.38565 -0.15058 0
M  V30 3117 C 286.158 4.21501 -1.16857 0
M  V30 3118 C 285.217 5.23277 -0.553832 0
M  V30 3119 O 284.243 5.56041 -1.21686 0
M  V30 3120 N 285.445 5.76629 0.669296 0
M  V30 3121 H 288.21 2.46257 -1.70814 0
M  V30 3122 H 285.771 1.24198 -1.03858 0
M  V30 3123 H 287.763 4.03777 0.273181 0
M  V30 3124 H 286.333 3.05299 0.671667 0
M  V30 3125 H 285.553 3.52265 -1.76926 0
M  V30 3126 H 286.841 4.73731 -1.85624 0
M  V30 3127 H 286.239 5.52243 1.22654 0
M  V30 3128 H 284.796 6.43521 1.03556 0
M  V30 3129 N 288.23 0.939286 1.26551 0
M  V30 3130 C 289.479 0.581601 1.93133 0
M  V30 3131 C 289.792 -0.883224 1.74524 0
M  V30 3132 O 290.998 -1.3502 2.35546 0
M  V30 3133 C 289.454 0.989425 3.46032 0
M  V30 3134 C 289.062 2.47573 3.73379 0
M  V30 3135 C 290.806 0.703544 4.18629 0
M  V30 3136 C 288.713 2.82235 5.19709 0
M  V30 3137 H 287.643 0.213803 0.723052 0
M  V30 3138 H 290.294 1.14167 1.4366 0
M  V30 3139 H 288.676 0.357902 3.94379 0
M  V30 3140 H 289.85 3.15614 3.35744 0
M  V30 3141 H 288.165 2.73471 3.1401 0
M  V30 3142 H 290.762 0.938869 5.26393 0
M  V30 3143 H 291.105 -0.359639 4.14744 0
M  V30 3144 H 291.638 1.2947 3.76141 0
M  V30 3145 H 288.377 3.87509 5.28694 0
M  V30 3146 H 287.897 2.18854 5.58447 0
M  V30 3147 H 289.576 2.70599 5.87695 0
M  V30 3148 N 289.708 -1.40897 0.706093 0
M  V30 3149 C 291.119 -1.84023 0.315052 0
M  V30 3150 C 291.47 -1.5906 -1.14866 0
M  V30 3151 O 290.595 -1.06651 -1.88293 0
M  V30 3152 C 291.19 -3.34055 0.565038 0
M  V30 3153 C 289.749 -3.7571 0.227806 0
M  V30 3154 C 288.896 -2.64204 0.842122 0
M  V30 3155 H 291.847 -1.303 0.905963 0
M  V30 3156 H 291.868 -3.80107 -0.172843 0
M  V30 3157 H 291.38 -3.52192 1.63042 0
M  V30 3158 H 289.481 -3.63172 -0.832895 0
M  V30 3159 H 289.594 -4.74103 0.690174 0
M  V30 3160 H 287.958 -2.53255 0.270893 0
M  V30 3161 H 288.741 -2.85155 1.91158 0
M  V30 3162 N 291.186 -0.45159 -1.50991 0
M  V30 3163 C 292.118 0.388634 -2.25881 0
M  V30 3164 C 293.131 0.974041 -1.30446 0
M  V30 3165 O 294.32 0.865758 -1.56099 0
M  V30 3166 C 291.42 1.5571 -3.01011 0
M  V30 3167 C 290.593 1.08801 -4.23652 0
M  V30 3168 C 289.652 2.12825 -4.8124 0
M  V30 3169 O 288.678 1.71678 -5.42693 0
M  V30 3170 N 289.88 3.45453 -4.66522 0
M  V30 3171 H 292.645 -0.25329 -2.98628 0
M  V30 3172 H 290.206 -0.281268 -1.59438 0
M  V30 3173 H 292.198 2.24952 -3.3642 0
M  V30 3174 H 290.768 2.10409 -2.31186 0
M  V30 3175 H 289.988 0.22215 -3.93574 0
M  V30 3176 H 291.276 0.752213 -5.03209 0
M  V30 3177 H 290.674 3.81605 -4.17605 0
M  V30 3178 H 289.231 4.10549 -5.06254 0
M  V30 3179 N 292.664 1.56529 -0.183458 0
M  V30 3180 C 293.574 2.22144 0.754272 0
M  V30 3181 C 294.59 1.21684 1.24374 0
M  V30 3182 O 295.766 1.54385 1.29333 0
M  V30 3183 C 292.831 2.85884 1.96141 0
M  V30 3184 C 291.892 4.01579 1.51765 0
M  V30 3185 C 291.125 4.6227 2.66725 0
M  V30 3186 O 291.348 4.21865 3.83909 0
M  V30 3187 O 290.282 5.51936 2.40104 0
M  V30 3188 H 294.108 3.02861 0.225527 0
M  V30 3189 H 291.693 1.49331 0.0453032 0
M  V30 3190 H 293.575 3.26253 2.66715 0
M  V30 3191 H 292.25 2.08154 2.47899 0
M  V30 3192 H 291.157 3.65856 0.781049 0
M  V30 3193 H 292.49 4.80938 1.04686 0
M  V30 3194 N 294.142 -0.090211 1.57342 0
M  V30 3195 C 295.052 -1.12735 2.05738 0
M  V30 3196 C 296.068 -1.43557 0.983231 0
M  V30 3197 O 297.244 -1.54101 1.29672 0
M  V30 3198 C 294.309 -2.42659 2.47624 0
M  V30 3199 C 293.37 -2.18975 3.69254 0
M  V30 3200 C 292.603 -3.42704 4.09133 0
M  V30 3201 O 292.826 -4.51127 3.49057 0
M  V30 3202 O 291.76 -3.32003 5.02053 0
M  V30 3203 H 295.586 -0.746279 2.94388 0
M  V30 3204 H 293.171 -0.303064 1.46294 0
M  V30 3205 H 295.053 -3.19155 2.7517 0
M  V30 3206 H 293.728 -2.80182 1.62109 0
M  V30 3207 H 292.635 -1.40244 3.46818 0
M  V30 3208 H 293.968 -1.86342 4.55563 0
M  V30 3209 N 295.62 -1.53406 -0.361157 0
M  V30 3210 C 296.57 -1.76536 -1.44287 0
M  V30 3211 C 297.554 -0.620019 -1.48474 0
M  V30 3212 O 298.746 -0.878834 -1.53641 0
M  V30 3213 C 295.875 -1.96266 -2.81664 0
M  V30 3214 C 294.961 -3.16815 -2.81938 0
M  V30 3215 N 295.352 -4.38637 -2.51855 0
M  V30 3216 C 293.65 -3.17627 -3.13096 0
M  V30 3217 C 294.351 -5.20401 -2.59919 0
M  V30 3218 N 293.327 -4.56712 -2.94814 0
M  V30 3219 H 297.129 -2.68331 -1.19899 0
M  V30 3220 H 294.643 -1.52091 -0.56938 0
M  V30 3221 H 296.64 -2.10966 -3.59582 0
M  V30 3222 H 295.3 -1.05702 -3.07013 0
M  V30 3223 H 296.311 -4.66293 -2.25369 0
M  V30 3224 H 292.988 -2.36971 -3.43731 0
M  V30 3225 H 294.378 -6.27586 -2.39969 0
M  V30 3226 N 297.098 0.621204 -1.44841 0
M  V30 3227 C 298.061 1.71459 -1.521 0
M  V30 3228 C 299.061 1.55696 -0.401933 0
M  V30 3229 O 300.251 1.61011 -0.664925 0
M  V30 3230 C 297.383 3.10624 -1.40447 0
M  V30 3231 H 298.576 1.66394 -2.49506 0
M  V30 3232 H 296.129 0.835745 -1.3208 0
M  V30 3233 H 296.864 3.21277 -0.441737 0
M  V30 3234 H 296.649 3.23473 -2.21602 0
M  V30 3235 H 298.139 3.90293 -1.4853 0
M  V30 3236 N 298.576 1.31904 0.862503 0
M  V30 3237 C 299.539 1.20131 1.95195 0
M  V30 3238 C 300.539 0.126409 1.60302 0
M  V30 3239 O 301.729 0.376234 1.70089 0
M  V30 3240 C 298.861 0.845691 3.30244 0
M  V30 3241 H 300.054 2.16943 2.07064 0
M  V30 3242 H 297.607 1.15622 1.05172 0
M  V30 3243 H 298.342 -0.120957 3.24074 0
M  V30 3244 H 298.127 1.62276 3.56944 0
M  V30 3245 H 299.617 0.787418 4.10109 0
M  V30 3246 N 300.054 -1.07777 1.14986 0
M  V30 3247 C 301.002 -2.16964 0.838406 0
M  V30 3248 C 301.996 -1.68372 -0.186386 0
M  V30 3249 O 303.202 -1.79951 -0.0418465 0
M  V30 3250 H 299.577 -0.708006 0.253439 0
M  V30 3251 H 301.548 -2.40454 1.76704 0
M  V30 3252 C 300.297 -3.4604 0.339335 0
M  V30 3253 H 299.62 -3.83813 1.11927 0
M  V30 3254 H 301.06 -4.23698 0.160021 0
M  V30 3255 C 299.519 -3.23569 -0.938325 0
M  V30 3256 O 300.049 -3.47752 -2.01077 0
M  V30 3257 N 298.255 -2.77079 -0.876117 0
M  V30 3258 H 297.802 -2.576 -0.00322037 0
M  V30 3259 H 297.76 -2.62422 -1.73153 0
M  V30 3260 N 301.532 -0.945985 -1.26051 0
M  V30 3261 C 302.78 -0.594941 -1.93145 0
M  V30 3262 C 303.101 0.86953 -1.7454 0
M  V30 3263 O 302.371 1.61838 -1.10387 0
M  V30 3264 H 300.951 -0.217044 -0.714773 0
M  V30 3265 H 303.613 -1.20235 -1.53393 0
M  V30 3266 H 302.709 -0.816835 -3.01221 0
M  V30 3267 N 303.011 1.40521 -0.713556 0
M  V30 3268 C 304.422 1.83853 -0.324807 0
M  V30 3269 C 304.773 1.59667 1.14021 0
M  V30 3270 O 303.898 1.07649 1.87725 0
M  V30 3271 C 304.493 3.33751 -0.582746 0
M  V30 3272 C 303.052 3.75584 -0.247727 0
M  V30 3273 C 302.199 2.63753 -0.856121 0
M  V30 3274 H 305.15 1.29817 -0.91286 0
M  V30 3275 H 305.171 3.80194 0.152682 0
M  V30 3276 H 304.683 3.51322 -1.64908 0
M  V30 3277 H 302.784 3.63608 0.813624 0
M  V30 3278 H 302.897 4.7373 -0.715307 0
M  V30 3279 H 301.261 2.53108 -0.28432 0
M  V30 3280 H 302.044 2.84137 -1.92668 0
M  V30 3281 N 304.489 0.459591 1.5075 0
M  V30 3282 C 305.399 -0.34613 2.32033 0
M  V30 3283 C 306.415 -1.00686 1.41909 0
M  V30 3284 O 307.591 -0.997361 1.7497 0
M  V30 3285 C 304.656 -1.42029 3.16273 0
M  V30 3286 C 303.717 -0.777362 4.22203 0
M  V30 3287 C 302.95 -1.80034 5.02418 0
M  V30 3288 O 303.173 -3.02544 4.83553 0
M  V30 3289 O 302.107 -1.37853 5.85901 0
M  V30 3290 H 305.933 0.318054 3.0203 0
M  V30 3291 H 303.518 0.221663 1.47746 0
M  V30 3292 H 305.4 -2.04275 3.68578 0
M  V30 3293 H 304.075 -2.06815 2.49016 0
M  V30 3294 H 302.982 -0.116256 3.73919 0
M  V30 3295 H 304.315 -0.172634 4.91897 0
M  V30 3296 N 305.967 -1.56429 0.191757 0
M  V30 3297 C 306.897 -2.21937 -0.725696 0
M  V30 3298 C 307.878 -1.1814 -1.2238 0
M  V30 3299 O 309.063 -1.46636 -1.27325 0
M  V30 3300 C 306.193 -2.87611 -1.94672 0
M  V30 3301 C 305.147 -3.97623 -1.58366 0
M  V30 3302 C 304.473 -4.50446 -2.88102 0
M  V30 3303 C 305.773 -5.16197 -0.796133 0
M  V30 3304 H 307.467 -2.98861 -0.179606 0
M  V30 3305 H 305.013 -1.43749 -0.0849464 0
M  V30 3306 H 306.966 -3.3212 -2.59373 0
M  V30 3307 H 305.69 -2.08087 -2.51728 0
M  V30 3308 H 304.349 -3.53801 -0.960247 0
M  V30 3309 H 303.997 -3.67688 -3.43241 0
M  V30 3310 H 303.697 -5.24675 -2.64556 0
M  V30 3311 H 305.221 -4.97654 -3.53798 0
M  V30 3312 H 306.635 -5.57271 -1.34618 0
M  V30 3313 H 305.032 -5.96471 -0.658928 0
M  V30 3314 H 306.102 -4.84473 0.203478 0
M  V30 3315 N 307.445 0.0818655 -1.57387 0
M  V30 3316 C 308.375 1.09885 -2.06028 0
M  V30 3317 C 309.356 1.4098 -0.951774 0
M  V30 3318 O 310.541 1.50781 -1.22387 0
M  V30 3319 C 307.671 2.4151 -2.4958 0
M  V30 3320 C 306.625 2.24792 -3.64215 0
M  V30 3321 C 305.951 3.61712 -3.93787 0
M  V30 3322 C 307.251 1.67749 -4.94629 0
M  V30 3323 H 308.945 0.694128 -2.91243 0
M  V30 3324 H 306.491 0.332448 -1.4011 0
M  V30 3325 H 308.444 3.12939 -2.82219 0
M  V30 3326 H 307.168 2.83943 -1.61381 0
M  V30 3327 H 305.827 1.55807 -3.31843 0
M  V30 3328 H 305.475 4.01697 -3.02735 0
M  V30 3329 H 305.175 3.51368 -4.70971 0
M  V30 3330 H 306.699 4.34587 -4.28913 0
M  V30 3331 H 308.113 2.29032 -5.25564 0
M  V30 3332 H 306.51 1.68128 -5.76067 0
M  V30 3333 H 307.58 0.638059 -4.80684 0
M  V30 3334 N 308.923 1.53595 0.353017 0
M  V30 3335 C 310.339 1.43648 0.695516 0
M  V30 3336 C 310.539 0.585617 1.92802 0
M  V30 3337 O 309.595 0.0729223 2.52395 0
M  V30 3338 C 310.908 2.8701 0.896991 0
M  V30 3339 C 312.456 2.96723 0.996209 0
M  V30 3340 C 312.931 4.41173 1.23007 0
M  V30 3341 N 314.422 4.44657 1.29749 0
M  V30 3342 C 315.157 5.53547 1.49577 0
M  V30 3343 N 314.653 6.72461 1.66639 0
M  V30 3344 N 316.446 5.41145 1.52048 0
M  V30 3345 H 308.597 2.07415 -0.457481 0
M  V30 3346 H 310.86 0.9372 -0.142687 0
M  V30 3347 H 310.566 3.51644 0.0629938 0
M  V30 3348 H 310.44 3.31401 1.80148 0
M  V30 3349 H 312.827 2.32235 1.82074 0
M  V30 3350 H 312.908 2.55707 0.0688331 0
M  V30 3351 H 312.552 5.06238 0.410505 0
M  V30 3352 H 312.482 4.79772 2.17086 0
M  V30 3353 H 314.973 3.58963 1.18126 0
M  V30 3354 H 315.286 7.51214 1.81378 0
M  V30 3355 H 313.631 6.75423 1.63794 0
M  V30 3356 H 316.822 4.47205 1.38294 0
M  V30 3357 H 316.995 6.26068 1.67159 0
M  V30 3358 N 310.401 -0.613514 1.45168 0
M  V30 3359 C 311.348 -1.72456 1.53387 0
M  V30 3360 C 312.318 -1.6169 0.380191 0
M  V30 3361 O 313.503 -1.81356 0.592836 0
M  V30 3362 C 310.643 -3.10753 1.50088 0
M  V30 3363 C 309.756 -3.32368 2.75963 0
M  V30 3364 C 308.891 -4.60737 2.64376 0
M  V30 3365 C 307.93 -4.7559 3.85332 0
M  V30 3366 N 307.067 -5.95253 3.72315 0
M  V30 3367 H 311.907 -1.64768 2.48305 0
M  V30 3368 H 309.444 -0.803503 1.23216 0
M  V30 3369 H 311.402 -3.90758 1.46164 0
M  V30 3370 H 310.032 -3.17413 0.587243 0
M  V30 3371 H 309.084 -2.4618 2.89999 0
M  V30 3372 H 310.396 -3.39218 3.65695 0
M  V30 3373 H 309.55 -5.48928 2.58385 0
M  V30 3374 H 308.289 -4.56275 1.72233 0
M  V30 3375 H 307.294 -3.85824 3.91688 0
M  V30 3376 H 308.519 -4.81854 4.78533 0
M  V30 3377 H 306.465 -5.91847 2.82937 0
M  V30 3378 H 306.382 -6.03236 4.55677 0
M  V30 3379 H 307.65 -6.85958 3.70246 0
M  V30 3380 N 311.879 -1.3236 -0.855495 0
M  V30 3381 C 312.826 -1.21225 -1.964 0
M  V30 3382 C 313.796 -0.0946204 -1.6583 0
M  V30 3383 O 314.981 -0.27002 -1.8888 0
M  V30 3384 C 312.121 -0.940419 -3.32039 0
M  V30 3385 C 311.234 -2.14276 -3.75113 0
M  V30 3386 C 310.369 -1.80648 -4.9954 0
M  V30 3387 C 309.408 -2.97208 -5.35102 0
M  V30 3388 N 308.545 -2.63678 -6.50706 0
M  V30 3389 H 313.385 -2.16042 -2.05255 0
M  V30 3390 H 310.922 -1.07451 -1.00463 0
M  V30 3391 H 312.88 -0.763311 -4.10158 0
M  V30 3392 H 311.51 -0.0290413 -3.22787 0
M  V30 3393 H 310.562 -2.43017 -2.92655 0
M  V30 3394 H 311.874 -3.01468 -3.97389 0
M  V30 3395 H 311.028 -1.59484 -5.85363 0
M  V30 3396 H 309.767 -0.906678 -4.79198 0
M  V30 3397 H 308.772 -3.19004 -4.47791 0
M  V30 3398 H 309.997 -3.87918 -5.57401 0
M  V30 3399 H 307.943 -1.76238 -6.31883 0
M  V30 3400 H 307.86 -3.444 -6.72997 0
M  V30 3401 H 309.128 -2.45942 -7.39684 0
M  V30 3402 N 313.357 1.07166 -1.15556 0
M  V30 3403 C 314.773 1.31899 -0.898603 0
M  V30 3404 C 314.973 1.96333 0.453383 0
M  V30 3405 O 314.029 2.22438 1.19489 0
M  V30 3406 C 315.342 2.20826 -2.04099 0
M  V30 3407 C 316.89 2.34269 -2.07574 0
M  V30 3408 C 317.365 3.26546 -3.21141 0
M  V30 3409 N 318.856 3.34127 -3.20801 0
M  V30 3410 C 319.591 4.05595 -4.05315 0
M  V30 3411 N 319.087 4.79661 -4.99897 0
M  V30 3412 N 320.88 4.01555 -3.93332 0
M  V30 3413 H 313.031 0.637302 -2.02613 0
M  V30 3414 H 315.294 0.343468 -0.883591 0
M  V30 3415 H 315 1.80744 -3.01703 0
M  V30 3416 H 314.874 3.21364 -1.97496 0
M  V30 3417 H 317.261 2.73603 -1.10568 0
M  V30 3418 H 317.342 1.33429 -2.18244 0
M  V30 3419 H 316.986 2.87931 -4.184 0
M  V30 3420 H 316.916 4.27345 -3.07708 0
M  V30 3421 H 319.407 2.81336 -2.52306 0
M  V30 3422 H 319.72 5.31694 -5.60822 0
M  V30 3423 H 318.065 4.78671 -5.03884 0
M  V30 3424 H 321.256 3.42806 -3.18751 0
M  V30 3425 H 321.429 4.56987 -4.5942 0
M  V30 3426 N 314.835 0.952656 1.25548 0
M  V30 3427 C 316.063 0.623496 1.97282 0
M  V30 3428 C 316.478 -0.803987 1.70826 0
M  V30 3429 O 315.835 -1.53755 0.983147 0
M  V30 3430 C 315.886 0.870209 3.5087 0
M  V30 3431 O 315.607 2.24156 3.76412 0
M  V30 3432 C 317.108 0.553164 4.39835 0
M  V30 3433 H 314.328 0.233931 0.628902 0
M  V30 3434 H 316.872 1.27649 1.59768 0
M  V30 3435 H 315.027 0.263652 3.86502 0
M  V30 3436 H 315.441 2.31021 4.70882 0
M  V30 3437 H 316.915 0.776342 5.46513 0
M  V30 3438 H 317.392 -0.512215 4.36203 0
M  V30 3439 H 317.998 1.13896 4.09766 0
M  V30 3440 N 316.313 -1.40141 0.720998 0
M  V30 3441 C 317.541 -2.05096 0.272656 0
M  V30 3442 C 317.956 -1.54334 -1.0875 0
M  V30 3443 O 317.313 -0.702211 -1.6845 0
M  V30 3444 C 317.364 -3.60636 0.249835 0
M  V30 3445 O 317.085 -4.09526 1.55629 0
M  V30 3446 C 318.586 -4.42772 -0.216396 0
M  V30 3447 H 315.806 -0.659897 0.121558 0
M  V30 3448 H 318.35 -1.79449 0.980723 0
M  V30 3449 H 316.505 -3.85232 -0.409237 0
M  V30 3450 H 316.919 -5.03758 1.4604 0
M  V30 3451 H 318.393 -5.51702 -0.181212 0
M  V30 3452 H 318.87 -4.20756 -1.25941 0
M  V30 3453 H 319.476 -4.23294 0.412596 0
M  V30 3454 N 317.792 -0.46758 -1.50504 0
M  V30 3455 C 319.017 0.0886943 -2.0721 0
M  V30 3456 C 319.442 1.33057 -1.32956 0
M  V30 3457 O 318.8 1.77354 -0.376197 0
M  V30 3458 C 318.848 0.359202 -3.58806 0
M  V30 3459 O 317.952 1.44034 -3.8643 0
M  V30 3460 H 317.293 -0.0114349 -0.663902 0
M  V30 3461 H 319.823 -0.657613 -1.93744 0
M  V30 3462 H 319.833 0.600742 -4.03553 0
M  V30 3463 H 318.508 -0.548311 -4.1227 0
M  V30 3464 H 317.085 1.18638 -3.53524 0
M  V30 3465 N 319.27 1.56325 -0.20005 0
M  V30 3466 C 320.233 2.18084 0.705132 0
M  V30 3467 C 321.233 1.13666 1.1374 0
M  V30 3468 O 322.423 1.39023 1.04968 0
M  V30 3469 C 319.555 2.78689 1.96329 0
M  V30 3470 H 320.748 2.99435 0.167023 0
M  V30 3471 H 318.301 1.56221 0.0495725 0
M  V30 3472 H 319.036 2.0115 2.5438 0
M  V30 3473 H 318.821 3.55133 1.66202 0
M  V30 3474 H 320.311 3.26096 2.60866 0
M  V30 3475 N 320.748 -0.0735177 1.57428 0
M  V30 3476 C 321.658 -1.10547 2.06922 0
M  V30 3477 C 322.674 -1.42506 0.998402 0
M  V30 3478 O 323.85 -1.52717 1.31299 0
M  V30 3479 C 320.915 -2.40019 2.50184 0
M  V30 3480 C 319.976 -2.15046 3.71556 0
M  V30 3481 C 319.209 -3.38345 4.12745 0
M  V30 3482 O 319.432 -4.47399 3.53822 0
M  V30 3483 O 318.366 -3.2666 5.05546 0
M  V30 3484 H 322.192 -0.715013 2.95163 0
M  V30 3485 H 319.777 -0.287531 1.46607 0
M  V30 3486 H 321.659 -3.16218 2.78539 0
M  V30 3487 H 320.334 -2.78447 1.65072 0
M  V30 3488 H 319.241 -1.36558 3.48285 0
M  V30 3489 H 320.574 -1.81499 4.57514 0
M  V30 3490 N 322.226 -1.5378 -0.344866 0
M  V30 3491 C 323.173 -1.81676 -1.42346 0
M  V30 3492 C 324.143 -0.662376 -1.52321 0
M  V30 3493 O 325.328 -0.906675 -1.67881 0
M  V30 3494 C 322.468 -2.03087 -2.79015 0
M  V30 3495 C 321.581 -3.30799 -2.77842 0
M  V30 3496 C 320.716 -3.42285 -4.0622 0
M  V30 3497 C 319.755 -4.6395 -3.9927 0
M  V30 3498 N 318.892 -4.72477 -5.19336 0
M  V30 3499 H 323.732 -2.73703 -1.17858 0
M  V30 3500 H 321.269 -1.35568 -0.570949 0
M  V30 3501 H 323.227 -2.1349 -3.58438 0
M  V30 3502 H 321.857 -1.14375 -3.01858 0
M  V30 3503 H 320.909 -3.29244 -1.90533 0
M  V30 3504 H 322.221 -4.20314 -2.68584 0
M  V30 3505 H 321.375 -3.52113 -4.94066 0
M  V30 3506 H 320.114 -2.50823 -4.18258 0
M  V30 3507 H 319.119 -4.54201 -3.09809 0
M  V30 3508 H 320.344 -5.56775 -3.88817 0
M  V30 3509 H 318.29 -3.83924 -5.3192 0
M  V30 3510 H 318.207 -5.55927 -5.12329 0
M  V30 3511 H 319.475 -4.86613 -6.08957 0
M  V30 3512 N 323.704 0.605807 -1.45491 0
M  V30 3513 C 324.652 1.73754 -1.54636 0
M  V30 3514 C 325.646 1.64207 -0.416219 0
M  V30 3515 O 326.852 1.69979 -0.592199 0
M  V30 3516 H 323.227 0.574073 -0.485741 0
M  V30 3517 H 325.198 1.63169 -2.49837 0
M  V30 3518 C 323.947 3.12135 -1.53189 0
M  V30 3519 H 323.27 3.20141 -2.39478 0
M  V30 3520 H 324.71 3.91147 -1.63645 0
M  V30 3521 C 323.169 3.35921 -0.256616 0
M  V30 3522 O 323.699 3.96194 0.662798 0
M  V30 3523 N 321.905 2.90204 -0.151751 0
M  V30 3524 H 321.452 2.41336 -0.90081 0
M  V30 3525 H 321.41 3.06492 0.700699 0
M  V30 3526 N 325.182 1.32811 0.848464 0
M  V30 3527 C 326.41 1.26739 1.63538 0
M  V30 3528 C 326.825 -0.163484 1.88091 0
M  V30 3529 O 326.182 -1.10258 1.45429 0
M  V30 3530 C 326.233 2.03013 2.99112 0
M  V30 3531 O 325.954 3.40518 2.75643 0
M  V30 3532 C 327.455 2.04038 3.93552 0
M  V30 3533 H 324.675 0.437024 0.509167 0
M  V30 3534 H 327.219 1.75033 1.05753 0
M  V30 3535 H 325.374 1.58426 3.53525 0
M  V30 3536 H 325.788 3.79635 3.61908 0
M  V30 3537 H 327.262 2.61877 4.85926 0
M  V30 3538 H 327.739 1.0282 4.26995 0
M  V30 3539 H 328.345 2.486 3.45077 0
M  V30 3540 N 326.66 -1.06551 1.16123 0
M  V30 3541 C 327.9 -1.80889 0.951766 0
M  V30 3542 C 328.264 -1.85062 -0.511465 0
M  V30 3543 O 329.465 -2.55353 -0.83954 0
M  V30 3544 C 327.736 -3.21609 1.55893 0
M  V30 3545 S 329.295 -4.12593 1.49373 0
M  V30 3546 H 326.113 -0.623156 0.342341 0
M  V30 3547 H 328.715 -1.27943 1.47821 0
M  V30 3548 H 327.419 -3.16165 2.61664 0
M  V30 3549 H 326.95 -3.79631 1.0317 0
M  V30 3550 H 328.965 -4.93753 0.492196 0
M  V30 3551 N 328.138 -0.959301 -1.25041 0
M  V30 3552 C 329.07 -0.440543 -2.24926 0
M  V30 3553 C 330.083 0.446131 -1.56568 0
M  V30 3554 O 331.272 0.253657 -1.76689 0
M  V30 3555 C 328.372 0.38412 -3.36716 0
M  V30 3556 C 327.545 -0.490658 -4.34639 0
M  V30 3557 C 326.604 0.276587 -5.25473 0
M  V30 3558 O 325.63 -0.326614 -5.68262 0
M  V30 3559 N 326.832 1.56844 -5.5891 0
M  V30 3560 H 329.597 -1.29931 -2.70071 0
M  V30 3561 H 327.158 -0.830181 -1.38995 0
M  V30 3562 H 329.15 0.905228 -3.94446 0
M  V30 3563 H 327.72 1.14377 -2.90924 0
M  V30 3564 H 326.94 -1.19282 -3.7572 0
M  V30 3565 H 328.228 -1.08756 -4.97041 0
M  V30 3566 H 327.626 2.08036 -5.26059 0
M  V30 3567 H 326.183 2.03541 -6.19205 0
M  V30 3568 N 329.616 1.39756 -0.72842 0
M  V30 3569 C 330.546 2.33289 -0.0991354 0
M  V30 3570 C 331.527 1.53568 0.731489 0
M  V30 3571 O 332.712 1.81987 0.677807 0
M  V30 3572 C 329.842 3.3763 0.813834 0
M  V30 3573 C 328.796 4.2791 0.0878663 0
M  V30 3574 C 328.122 5.22894 1.11741 0
M  V30 3575 C 329.422 5.11314 -1.06563 0
M  V30 3576 H 331.116 2.86163 -0.880408 0
M  V30 3577 H 328.662 1.37591 -0.424819 0
M  V30 3578 H 330.615 4.0201 1.26355 0
M  V30 3579 H 329.339 2.83181 1.62715 0
M  V30 3580 H 327.998 3.65 -0.342159 0
M  V30 3581 H 327.646 4.64744 1.92412 0
M  V30 3582 H 327.346 5.84143 0.636477 0
M  V30 3583 H 328.87 5.90151 1.56697 0
M  V30 3584 H 330.284 5.69076 -0.694671 0
M  V30 3585 H 328.681 5.81671 -1.47577 0
M  V30 3586 H 329.751 4.46534 -1.89038 0
M  V30 3587 N 331.094 0.475555 1.50254 0
M  V30 3588 C 332.324 -0.0753399 2.06463 0
M  V30 3589 C 332.732 -1.33661 1.33908 0
M  V30 3590 O 332.075 -1.79219 0.403257 0
M  V30 3591 C 332.137 -0.424921 3.5698 0
M  V30 3592 C 331.801 0.734965 4.51051 0
M  V30 3593 C 332.798 1.61827 4.94073 0
M  V30 3594 C 330.483 0.926557 4.9368 0
M  V30 3595 C 332.477 2.67754 5.78434 0
M  V30 3596 C 330.164 1.98904 5.77824 0
M  V30 3597 C 331.162 2.8629 6.20103 0
M  V30 3598 O 330.85 3.90708 7.02568 0
M  V30 3599 H 330.582 0.00576308 0.675975 0
M  V30 3600 H 333.136 0.664662 1.94349 0
M  V30 3601 H 331.366 -1.21817 3.67012 0
M  V30 3602 H 333.055 -0.911422 3.95535 0
M  V30 3603 H 333.821 1.48196 4.61804 0
M  V30 3604 H 329.7 0.25584 4.6029 0
M  V30 3605 H 333.244 3.35992 6.11355 0
M  V30 3606 H 329.141 2.12541 6.09505 0
M  V30 3607 H 329.909 3.87751 7.20827 0
M  V30 3608 N 332.573 -1.56217 0.208337 0
M  V30 3609 C 333.822 -1.97124 -0.427204 0
M  V30 3610 C 334.135 -1.09859 -1.61835 0
M  V30 3611 O 335.341 -1.40606 -2.32255 0
M  V30 3612 C 333.797 -3.50633 -0.811442 0
M  V30 3613 C 333.405 -4.46582 0.35615 0
M  V30 3614 C 335.149 -4.00282 -1.41332 0
M  V30 3615 C 333.056 -5.91379 -0.0497852 0
M  V30 3616 H 331.986 -0.736086 -0.163381 0
M  V30 3617 H 334.637 -1.8099 0.302456 0
M  V30 3618 H 333.019 -3.62319 -1.59815 0
M  V30 3619 H 334.193 -4.46636 1.1337 0
M  V30 3620 H 332.508 -4.07202 0.870396 0
M  V30 3621 H 335.105 -5.0595 -1.72972 0
M  V30 3622 H 335.448 -3.45359 -2.32449 0
M  V30 3623 H 335.981 -3.91764 -0.690323 0
M  V30 3624 H 332.72 -6.50255 0.827529 0
M  V30 3625 H 332.24 -5.94549 -0.791926 0
M  V30 3626 H 333.919 -6.45209 -0.481042 0
M  V30 3627 N 334.051 0.0651679 -1.57465 0
M  V30 3628 C 334.983 1.10359 -2.00882 0
M  V30 3629 C 335.996 1.346 -0.915788 0
M  V30 3630 O 337.185 1.32723 -1.1936 0
M  V30 3631 C 334.285 2.45312 -2.33828 0
M  V30 3632 C 333.458 2.40934 -3.65061 0
M  V30 3633 C 332.517 3.58047 -3.85602 0
M  V30 3634 O 331.543 3.39175 -4.57109 0
M  V30 3635 N 332.745 4.78637 -3.28462 0
M  V30 3636 H 335.51 0.733807 -2.90578 0
M  V30 3637 H 333.071 0.253719 -1.599 0
M  V30 3638 H 335.063 3.22314 -2.44737 0
M  V30 3639 H 333.633 2.74267 -1.49988 0
M  V30 3640 H 332.853 1.49273 -3.64844 0
M  V30 3641 H 334.141 2.35117 -4.51218 0
M  V30 3642 H 333.539 4.96872 -2.70433 0
M  V30 3643 H 332.096 5.53127 -3.44809 0
M  V30 3644 N 335.529 1.53961 0.336706 0
M  V30 3645 C 336.757 1.75483 1.09605 0
M  V30 3646 C 337.172 0.4972 1.82136 0
M  V30 3647 O 336.529 -0.53149 1.74589 0
M  V30 3648 C 336.58 2.93943 2.10428 0
M  V30 3649 O 336.301 4.14842 1.40846 0
M  V30 3650 C 337.802 3.27571 2.98684 0
M  V30 3651 H 335.022 0.586166 0.326574 0
M  V30 3652 H 337.566 2.00808 0.38683 0
M  V30 3653 H 335.721 2.70929 2.76905 0
M  V30 3654 H 336.135 4.81383 2.08255 0
M  V30 3655 H 337.609 4.13791 3.6535 0
M  V30 3656 H 338.086 2.44168 3.65074 0
M  V30 3657 H 338.692 3.52615 2.37787 0
M  V30 3658 N 337.007 -0.598083 1.45811 0
M  V30 3659 C 338.284 -1.35777 1.40797 0
M  V30 3660 C 338.664 -2.10935 0.083462 0
M  V30 3661 O 338.012 -2.08505 -0.934763 0
M  V30 3662 C 338.222 -2.29666 2.62783 0
M  V30 3663 C 339.57 -2.91977 3.08277 0
M  V30 3664 O 340.594 -2.39984 2.63223 0
M  V30 3665 O 339.453 -3.86376 3.86491 0
M  V30 3666 H 336.547 -0.609291 0.55919 0
M  V30 3667 H 339.093 -0.620379 1.57954 0
M  V30 3668 H 337.865 -1.73454 3.50756 0
M  V30 3669 H 337.488 -3.1077 2.48008 0
M  V30 3670 N 338.485 -1.33259 -0.841409 0
M  V30 3671 C 339.435 -1.19872 -1.93945 0
M  V30 3672 C 340.419 -0.102269 -1.60575 0
M  V30 3673 O 341.611 -0.330114 -1.73894 0
M  V30 3674 C 338.74 -0.937517 -3.30251 0
M  V30 3675 C 337.826 -2.07629 -3.69799 0
M  V30 3676 N 338.217 -3.32604 -3.81062 0
M  V30 3677 C 336.515 -1.98242 -3.9952 0
M  V30 3678 C 337.216 -4.07275 -4.15333 0
M  V30 3679 N 336.192 -3.35691 -4.27566 0
M  V30 3680 H 339.994 -2.14604 -2.00805 0
M  V30 3681 H 337.508 -1.2523 -1.03398 0
M  V30 3682 H 339.505 -0.822545 -4.08705 0
M  V30 3683 H 338.165 0.00128798 -3.247 0
M  V30 3684 H 339.176 -3.67382 -3.65035 0
M  V30 3685 H 335.853 -1.12005 -4.02195 0
M  V30 3686 H 337.243 -5.1511 -4.31406 0
M  V30 3687 N 339.963 1.05934 -1.16686 0
M  V30 3688 C 340.893 2.1546 -0.899949 0
M  V30 3689 C 341.874 1.69391 0.155154 0
M  V30 3690 O 343.059 1.94199 0.00648693 0
M  V30 3691 C 340.189 3.44939 -0.404241 0
M  V30 3692 C 339.143 4.04536 -1.39767 0
M  V30 3693 C 338.469 5.29268 -0.760216 0
M  V30 3694 C 339.769 4.42893 -2.76845 0
M  V30 3695 H 341.463 2.38046 -1.81588 0
M  V30 3696 H 339.009 1.14404 -0.874514 0
M  V30 3697 H 340.962 4.20901 -0.204971 0
M  V30 3698 H 339.686 3.21983 0.547206 0
M  V30 3699 H 338.345 3.30635 -1.58355 0
M  V30 3700 H 337.993 5.02611 0.197831 0
M  V30 3701 H 337.693 5.70101 -1.42332 0
M  V30 3702 H 339.217 6.07924 -0.57105 0
M  V30 3703 H 340.631 5.09921 -2.62019 0
M  V30 3704 H 339.028 4.94721 -3.39663 0
M  V30 3705 H 340.098 3.53584 -3.31823 0
M  V30 3706 N 341.441 0.965919 1.2453 0
M  V30 3707 C 342.688 0.626831 1.92554 0
M  V30 3708 C 343.016 -0.837739 1.75534 0
M  V30 3709 O 342.271 -1.61793 1.10098 0
M  V30 3710 C 342.57 0.945428 3.44669 0
M  V30 3711 C 342.236 2.39785 3.81856 0
M  V30 3712 C 340.898 2.79483 3.91718 0
M  V30 3713 C 343.25 3.34055 4.00071 0
M  V30 3714 C 340.578 4.12496 4.1721 0
M  V30 3715 C 342.93 4.66694 4.27059 0
M  V30 3716 C 341.594 5.06172 4.3514 0
M  V30 3717 H 340.864 0.229374 0.704605 0
M  V30 3718 H 343.511 1.21707 1.4785 0
M  V30 3719 H 341.816 0.272926 3.90848 0
M  V30 3720 H 343.513 0.661484 3.95507 0
M  V30 3721 H 340.103 2.08003 3.74743 0
M  V30 3722 H 344.287 3.04571 3.91855 0
M  V30 3723 H 339.543 4.42709 4.21685 0
M  V30 3724 H 343.717 5.3971 4.40097 0
M  V30 3725 H 341.344 6.09262 4.54646 0
M  V30 3726 N 342.919 -1.39368 0.735821 0
M  V30 3727 C 344.166 -2.00497 0.284123 0
M  V30 3728 C 344.494 -1.58387 -1.12889 0
M  V30 3729 O 343.749 -0.804359 -1.78406 0
M  V30 3730 C 344.048 -3.5583 0.334651 0
M  V30 3731 C 343.714 -4.17593 1.7008 0
M  V30 3732 C 342.376 -4.34176 2.07472 0
M  V30 3733 C 344.728 -4.51848 2.59775 0
M  V30 3734 C 342.056 -4.82304 3.34065 0
M  V30 3735 C 344.408 -5.01384 3.85741 0
M  V30 3736 C 343.072 -5.16175 4.23225 0
M  V30 3737 H 342.342 -0.73367 0.103968 0
M  V30 3738 H 344.989 -1.66683 0.942825 0
M  V30 3739 H 343.294 -3.89674 -0.407625 0
M  V30 3740 H 344.991 -4.00986 -0.0329927 0
M  V30 3741 H 341.581 -4.05087 1.40008 0
M  V30 3742 H 345.765 -4.38653 2.32157 0
M  V30 3743 H 341.021 -4.91941 3.63049 0
M  V30 3744 H 345.195 -5.26863 4.55399 0
M  V30 3745 H 342.822 -5.5323 5.21384 0
M  V30 3746 N 344.397 -0.483516 -1.5 0
M  V30 3747 C 345.344 0.304164 -2.28787 0
M  V30 3748 C 346.314 0.976114 -1.34392 0
M  V30 3749 O 347.499 0.986156 -1.63339 0
M  V30 3750 C 344.639 1.37298 -3.16612 0
M  V30 3751 C 343.752 0.714561 -4.26049 0
M  V30 3752 C 342.887 1.76232 -5.01114 0
M  V30 3753 C 341.926 1.08483 -6.0241 0
M  V30 3754 N 341.063 2.076 -6.70706 0
M  V30 3755 H 345.903 -0.373981 -2.95644 0
M  V30 3756 H 343.44 -0.196275 -1.45785 0
M  V30 3757 H 345.398 2.00445 -3.65893 0
M  V30 3758 H 344.028 2.02012 -2.51776 0
M  V30 3759 H 343.08 -0.0297798 -3.80388 0
M  V30 3760 H 344.392 0.180383 -4.98474 0
M  V30 3761 H 343.546 2.46929 -5.54176 0
M  V30 3762 H 342.285 2.33033 -4.28424 0
M  V30 3763 H 341.29 0.363545 -5.48597 0
M  V30 3764 H 342.515 0.523551 -6.77079 0
M  V30 3765 H 340.461 2.63394 -6.00799 0
M  V30 3766 H 340.378 1.59201 -7.39047 0
M  V30 3767 H 341.646 2.77639 -7.2838 0
M  V30 3768 N 345.875 1.56104 -0.216619 0
M  V30 3769 C 347.105 2.02269 0.420802 0
M  V30 3770 C 347.513 1.09575 1.5424 0
M  V30 3771 O 346.856 0.0967308 1.83445 0
M  V30 3772 C 346.918 3.44784 1.01806 0
M  V30 3773 C 346.582 4.56988 0.0325154 0
M  V30 3774 C 347.579 5.14225 -0.766055 0
M  V30 3775 C 345.264 5.02228 -0.0848092 0
M  V30 3776 C 347.258 6.15169 -1.6687 0
M  V30 3777 C 344.945 6.03011 -0.990994 0
M  V30 3778 C 345.943 6.59357 -1.78149 0
M  V30 3779 O 345.631 7.58179 -2.67245 0
M  V30 3780 H 345.363 0.667353 0.107776 0
M  V30 3781 H 347.917 2.02747 -0.329034 0
M  V30 3782 H 346.147 3.41359 1.81689 0
M  V30 3783 H 347.836 3.74626 1.56237 0
M  V30 3784 H 348.602 4.80126 -0.685836 0
M  V30 3785 H 344.481 4.58054 0.520349 0
M  V30 3786 H 348.025 6.59076 -2.28615 0
M  V30 3787 H 343.922 6.36532 -1.07225 0
M  V30 3788 H 344.69 7.75682 -2.61265 0
M  V30 3789 N 347.353 -0.0568162 1.57498 0
M  V30 3790 C 348.583 -0.764515 1.91934 0
M  V30 3791 C 348.991 -1.70877 0.81227 0
M  V30 3792 O 348.334 -1.82351 -0.222213 0
M  V30 3793 C 348.396 -1.5994 3.21962 0
M  V30 3794 C 348.06 -0.822925 4.4953 0
M  V30 3795 C 349.057 -0.135464 5.19723 0
M  V30 3796 C 346.742 -0.785666 4.96117 0
M  V30 3797 C 348.736 0.578861 6.34766 0
M  V30 3798 C 346.423 -0.0675784 6.11063 0
M  V30 3799 C 347.421 0.613471 6.80239 0
M  V30 3800 O 347.109 1.31996 7.92989 0
M  V30 3801 H 346.841 -0.221647 0.63863 0
M  V30 3802 H 349.395 -0.0268218 2.05382 0
M  V30 3803 H 347.625 -2.38026 3.04763 0
M  V30 3804 H 349.314 -2.18715 3.41934 0
M  V30 3805 H 350.08 -0.155458 4.84751 0
M  V30 3806 H 345.959 -1.30524 4.42136 0
M  V30 3807 H 349.503 1.111 6.88696 0
M  V30 3808 H 345.4 -0.0455636 6.45484 0
M  V30 3809 H 346.168 1.23077 8.09194 0
M  V30 3810 N 348.832 -1.54138 -0.328536 0
M  V30 3811 C 350.08 -1.71765 -1.06496 0
M  V30 3812 C 350.401 -0.49149 -1.88704 0
M  V30 3813 O 349.671 0.494539 -1.89555 0
M  V30 3814 H 348.251 -0.633295 -0.396164 0
M  V30 3815 H 350.913 -1.91429 -0.366176 0
M  V30 3816 H 350.009 -2.5951 -1.73381 0
M  V30 3817 N 350.31 0.590341 -1.46126 0
M  V30 3818 C 351.538 1.37504 -1.54597 0
M  V30 3819 C 351.953 1.87897 -0.184447 0
M  V30 3820 O 351.31 1.63192 0.816984 0
M  V30 3821 C 351.361 2.56779 -2.54454 0
M  V30 3822 O 351.082 2.08476 -3.85317 0
M  V30 3823 C 352.583 3.49427 -2.72792 0
M  V30 3824 H 349.803 0.420325 -0.523037 0
M  V30 3825 H 352.347 0.718383 -1.91467 0
M  V30 3826 H 350.502 3.1845 -2.20609 0
M  V30 3827 H 350.916 2.86097 -4.396 0
M  V30 3828 H 352.39 4.29619 -3.466 0
M  V30 3829 H 352.867 4.00876 -1.79429 0
M  V30 3830 H 353.473 2.93598 -3.07702 0
M  V30 3831 N 351.788 1.33704 0.83433 0
M  V30 3832 C 353.204 1.13137 1.12571 0
M  V30 3833 C 353.404 -0.0747261 2.01361 0
M  V30 3834 O 352.46 -0.753647 2.4099 0
M  V30 3835 C 353.773 2.42105 1.78342 0
M  V30 3836 C 355.321 2.48054 1.90888 0
M  V30 3837 C 355.796 3.76995 2.60075 0
M  V30 3838 N 357.287 3.78092 2.67584 0
M  V30 3839 C 358.022 4.74574 3.21818 0
M  V30 3840 N 357.518 5.81434 3.76705 0
M  V30 3841 N 359.311 4.62044 3.20112 0
M  V30 3842 H 351.462 2.11 0.243489 0
M  V30 3843 H 353.725 0.932532 0.17055 0
M  V30 3844 H 353.431 3.30391 1.20561 0
M  V30 3845 H 353.305 2.54594 2.7832 0
M  V30 3846 H 355.692 1.60215 2.47821 0
M  V30 3847 H 355.773 2.39502 0.898459 0
M  V30 3848 H 355.417 4.65219 2.03799 0
M  V30 3849 H 355.347 3.82825 3.61597 0
M  V30 3850 H 357.838 3.00865 2.28667 0
M  V30 3851 H 358.151 6.51084 4.16305 0
M  V30 3852 H 356.496 5.85163 3.7498 0
M  V30 3853 H 359.687 3.77716 2.76493 0
M  V30 3854 H 359.86 5.37406 3.62076 0
M  V30 3855 N 353.266 -1.05314 1.17247 0
M  V30 3856 C 354.176 -2.16538 0.90268 0
M  V30 3857 C 355.192 -1.73523 -0.128707 0
M  V30 3858 O 356.368 -2.01337 0.0502701 0
M  V30 3859 C 353.433 -3.44167 0.418356 0
M  V30 3860 C 352.494 -4.01635 1.51618 0
M  V30 3861 C 351.727 -5.23171 1.05487 0
M  V30 3862 O 351.95 -5.70327 -0.0914715 0
M  V30 3863 O 350.884 -5.72848 1.8474 0
M  V30 3864 H 354.71 -2.42145 1.83302 0
M  V30 3865 H 352.295 -1.15037 0.953246 0
M  V30 3866 H 354.177 -4.21112 0.155726 0
M  V30 3867 H 352.852 -3.20063 -0.48385 0
M  V30 3868 H 351.759 -3.26135 1.83268 0
M  V30 3869 H 353.092 -4.30053 2.39405 0
M  V30 3870 N 354.744 -0.972509 -1.24016 0
M  V30 3871 C 355.707 -0.511403 -2.23422 0
M  V30 3872 C 356.707 0.394679 -1.55881 0
M  V30 3873 O 357.897 0.189469 -1.73167 0
M  V30 3874 C 355.029 0.258769 -3.39916 0
M  V30 3875 H 356.222 -1.39024 -2.6573 0
M  V30 3876 H 353.775 -0.757585 -1.36713 0
M  V30 3877 H 354.51 1.1545 -3.03054 0
M  V30 3878 H 354.295 -0.391522 -3.9014 0
M  V30 3879 H 355.785 0.570244 -4.13688 0
M  V30 3880 N 356.222 1.38976 -0.743202 0
M  V30 3881 C 357.468 2.0064 -0.295189 0
M  V30 3882 C 357.801 1.5885 1.11716 0
M  V30 3883 O 357.076 0.821181 1.76315 0
M  V30 3884 C 357.359 3.578 -0.406318 0
M  V30 3885 C 357.212 4.09586 -1.85903 0
M  V30 3886 C 358.531 4.39616 0.206439 0
M  V30 3887 H 355.65 0.728935 -0.108733 0
M  V30 3888 H 358.292 1.65067 -0.940897 0
M  V30 3889 H 356.442 3.88235 0.143419 0
M  V30 3890 H 358.114 3.89837 -2.46627 0
M  V30 3891 H 356.357 3.6284 -2.3776 0
M  V30 3892 H 357.028 5.18708 -1.888 0
M  V30 3893 H 359.504 4.15273 -0.262283 0
M  V30 3894 H 358.38 5.48812 0.0983819 0
M  V30 3895 H 358.641 4.22754 1.2935 0
M  V30 3896 N 357.7 0.491464 1.49741 0
M  V30 3897 C 358.949 -0.0582189 2.01616 0
M  V30 3898 C 359.262 -1.38927 1.3769 0
M  V30 3899 O 360.468 -2.02509 1.80838 0
M  V30 3900 C 358.924 -0.154235 3.59569 0
M  V30 3901 C 358.532 1.1696 4.32463 0
M  V30 3902 C 360.276 -0.65479 4.1942 0
M  V30 3903 C 358.183 1.03627 5.8225 0
M  V30 3904 H 357.113 -0.0255317 0.753568 0
M  V30 3905 H 359.764 0.629445 1.72367 0
M  V30 3906 H 358.146 -0.906138 3.85493 0
M  V30 3907 H 359.32 1.93405 4.18248 0
M  V30 3908 H 357.635 1.60285 3.84315 0
M  V30 3909 H 360.232 -0.771903 5.29099 0
M  V30 3910 H 360.575 -1.65127 3.8215 0
M  V30 3911 H 361.108 0.040304 3.9778 0
M  V30 3912 H 357.847 2.00672 6.24028 0
M  V30 3913 H 357.367 0.312546 5.98985 0
M  V30 3914 H 359.046 0.711114 6.4308 0
M  V30 3915 N 359.178 -1.55987 0.224894 0
M  V30 3916 C 360.141 -2.19178 -0.670348 0
M  V30 3917 C 361.141 -1.15461 -1.11917 0
M  V30 3918 O 362.331 -1.40675 -1.02743 0
M  V30 3919 C 359.463 -2.81777 -1.9187 0
M  V30 3920 H 360.656 -2.99662 -0.119364 0
M  V30 3921 H 358.209 -1.5628 -0.0247128 0
M  V30 3922 H 358.944 -2.05172 -2.51147 0
M  V30 3923 H 358.729 -3.57732 -1.60531 0
M  V30 3924 H 360.219 -3.30205 -2.55645 0
M  V30 3925 N 360.656 0.0484629 -1.57525 0
M  V30 3926 C 361.588 1.08222 -2.02041 0
M  V30 3927 C 362.601 1.33621 -0.930012 0
M  V30 3928 O 363.79 1.3145 -1.20761 0
M  V30 3929 C 360.89 2.42818 -2.36416 0
M  V30 3930 C 360.063 2.37049 -3.67596 0
M  V30 3931 C 359.122 3.53937 -3.89378 0
M  V30 3932 O 358.148 3.34308 -4.60681 0
M  V30 3933 N 359.35 4.75126 -3.3352 0
M  V30 3934 H 362.115 0.702946 -2.9134 0
M  V30 3935 H 359.676 0.236745 -1.6016 0
M  V30 3936 H 361.668 3.197 -2.48141 0
M  V30 3937 H 360.238 2.72661 -1.52888 0
M  V30 3938 H 359.458 1.45395 -3.66407 0
M  V30 3939 H 360.746 2.30318 -4.53686 0
M  V30 3940 H 360.144 4.93976 -2.75688 0
M  V30 3941 H 358.701 5.49439 -3.50656 0
M  V30 3942 N 362.134 1.5431 0.320358 0
M  V30 3943 C 363.383 1.7188 1.05546 0
M  V30 3944 C 363.696 0.501143 1.89071 0
M  V30 3945 O 364.902 0.558258 2.65699 0
M  V30 3946 C 363.358 3.04025 1.92605 0
M  V30 3947 C 362.966 4.33207 1.14176 0
M  V30 3948 C 364.71 3.30959 2.65832 0
M  V30 3949 C 362.617 5.56412 2.00399 0
M  V30 3950 H 361.547 0.640547 0.397763 0
M  V30 3951 H 364.198 1.80802 0.313522 0
M  V30 3952 H 362.58 2.89019 2.7071 0
M  V30 3953 H 363.754 4.58989 0.40819 0
M  V30 3954 H 362.069 4.13062 0.526165 0
M  V30 3955 H 364.666 4.20203 3.30656 0
M  V30 3956 H 365.009 2.48979 3.33639 0
M  V30 3957 H 365.542 3.46847 1.94787 0
M  V30 3958 H 362.281 6.41004 1.37094 0
M  V30 3959 H 361.801 5.34844 2.7148 0
M  V30 3960 H 363.48 5.92938 2.58908 0
M  V30 3961 N 363.613 -0.582584 1.46437 0
M  V30 3962 C 364.838 -1.37168 1.55563 0
M  V30 3963 C 365.263 -1.87061 0.19743 0
M  V30 3964 O 364.621 -1.61572 -0.822451 0
M  V30 3965 C 364.669 -2.53511 2.56446 0
M  V30 3966 O 363.773 -3.54953 2.09958 0
M  V30 3967 H 363.114 -0.408494 0.523477 0
M  V30 3968 H 365.644 -0.706646 1.9201 0
M  V30 3969 H 365.654 -3.00426 2.76058 0
M  V30 3970 H 364.329 -2.16549 3.55076 0
M  V30 3971 H 362.906 -3.14516 2.00334 0
M  V30 3972 N 365.091 -1.34144 -0.827227 0
M  V30 3973 C 366.316 -1.29476 -1.62021 0
M  V30 3974 C 366.741 0.129292 -1.87655 0
M  V30 3975 O 366.099 1.08967 -1.449 0
M  V30 3976 C 366.147 -2.08702 -2.94068 0
M  V30 3977 O 365.251 -1.45359 -3.85933 0
M  V30 3978 H 364.592 -0.444881 -0.492927 0
M  V30 3979 H 367.122 -1.76882 -1.02829 0
M  V30 3980 H 367.132 -2.19898 -3.43669 0
M  V30 3981 H 365.807 -3.12241 -2.74734 0
M  V30 3982 H 364.384 -1.42879 -3.44442 0
M  V30 3983 N 366.569 1.04691 -1.17803 0
M  V30 3984 C 367.519 2.10856 -0.867391 0
M  V30 3985 C 368.503 1.601 0.160206 0
M  V30 3986 O 369.695 1.76948 -0.042947 0
M  V30 3987 C 366.824 3.411 -0.388012 0
M  V30 3988 C 365.91 3.9864 -1.44732 0
M  V30 3989 N 366.301 4.30075 -2.66212 0
M  V30 3990 C 364.599 4.26439 -1.30637 0
M  V30 3991 C 365.3 4.76033 -3.34317 0
M  V30 3992 N 364.276 4.76462 -2.61696 0
M  V30 3993 H 368.078 2.33029 -1.79094 0
M  V30 3994 H 365.592 1.22386 -1.0675 0
M  V30 3995 H 367.589 4.16641 -0.146994 0
M  V30 3996 H 366.249 3.20357 0.529271 0
M  V30 3997 H 367.26 4.19917 -3.03134 0
M  V30 3998 H 363.937 4.15056 -0.451129 0
M  V30 3999 H 365.327 5.09427 -4.38103 0
M  V30 4000 N 368.047 0.979072 1.23499 0
M  V30 4001 C 369.293 0.648178 1.92163 0
M  V30 4002 C 369.626 -0.816049 1.76222 0
M  V30 4003 O 368.901 -1.58849 1.12237 0
M  V30 4004 C 369.184 1.03773 3.44824 0
M  V30 4005 C 369.037 2.55948 3.69879 0
M  V30 4006 C 370.356 0.580653 4.36253 0
M  V30 4007 H 367.475 0.236952 0.69787 0
M  V30 4008 H 370.117 1.22012 1.45647 0
M  V30 4009 H 368.267 0.551058 3.84572 0
M  V30 4010 H 369.939 3.12179 3.3962 0
M  V30 4011 H 368.182 2.98641 3.14636 0
M  V30 4012 H 368.853 2.78255 4.76737 0
M  V30 4013 H 371.329 0.998465 4.03943 0
M  V30 4014 H 370.205 0.881663 5.41773 0
M  V30 4015 H 370.466 -0.519052 4.39042 0
M  V30 4016 N 369.525 -1.3858 0.750561 0
M  V30 4017 C 370.472 -2.30483 0.120835 0
M  V30 4018 C 371.442 -1.50022 -0.712923 0
M  V30 4019 O 372.627 -1.78662 -0.669676 0
M  V30 4020 C 369.767 -3.36431 -0.768666 0
M  V30 4021 C 368.88 -4.31927 0.0793922 0
M  V30 4022 C 368.015 -5.24944 -0.81283 0
M  V30 4023 C 367.054 -6.12088 0.0390447 0
M  V30 4024 N 366.191 -6.97412 -0.809969 0
M  V30 4025 H 371.031 -2.83761 0.91015 0
M  V30 4026 H 368.568 -1.39707 0.460463 0
M  V30 4027 H 370.526 -3.96462 -1.29898 0
M  V30 4028 H 369.156 -2.8457 -1.5238 0
M  V30 4029 H 368.208 -3.73382 0.727303 0
M  V30 4030 H 369.52 -4.93319 0.737401 0
M  V30 4031 H 368.674 -5.90078 -1.41042 0
M  V30 4032 H 367.413 -4.63911 -1.50458 0
M  V30 4033 H 366.418 -5.45952 0.649328 0
M  V30 4034 H 367.643 -6.75189 0.727809 0
M  V30 4035 H 365.589 -6.38931 -1.48672 0
M  V30 4036 H 365.506 -7.55712 -0.208789 0
M  V30 4037 H 366.774 -7.66959 -1.39263 0
M  V30 4038 N 371.003 -0.499398 -1.49478 0
M  V30 4039 C 371.966 0.268838 -2.27618 0
M  V30 4040 C 372.966 0.895383 -1.33565 0
M  V30 4041 O 374.156 0.760164 -1.56739 0
M  V30 4042 C 371.288 1.38559 -3.11471 0
M  V30 4043 H 372.481 -0.416812 -2.96989 0
M  V30 4044 H 370.034 -0.254313 -1.54217 0
M  V30 4045 H 370.769 2.10544 -2.46661 0
M  V30 4046 H 370.554 0.941797 -3.80621 0
M  V30 4047 H 372.044 1.92678 -3.70493 0
M  V30 4048 N 372.481 1.55866 -0.233164 0
M  V30 4049 C 373.73 1.97779 0.39579 0
M  V30 4050 C 374.043 1.12419 1.60066 0
M  V30 4051 O 375.249 1.44283 2.29988 0
M  V30 4052 C 373.705 3.5188 0.755556 0
M  V30 4053 C 373.313 4.45959 -0.427152 0
M  V30 4054 C 375.057 4.02479 1.34946 0
M  V30 4055 C 372.964 5.91383 -0.0443043 0
M  V30 4056 H 371.894 0.738592 0.15165 0
M  V30 4057 H 374.545 1.80486 -0.331212 0
M  V30 4058 H 372.927 3.64816 1.5403 0
M  V30 4059 H 374.101 4.44776 -1.20462 0
M  V30 4060 H 372.416 4.05765 -0.935068 0
M  V30 4061 H 375.013 5.08637 1.649 0
M  V30 4062 H 375.356 3.49014 2.26925 0
M  V30 4063 H 375.889 3.92813 0.62791 0
M  V30 4064 H 372.628 6.48857 -0.930874 0
M  V30 4065 H 372.148 5.95734 0.697238 0
M  V30 4066 H 373.827 6.45893 0.378334 0
M  V30 4067 N 373.959 -0.0401083 1.57549 0
M  V30 4068 C 375.236 -0.767917 1.79896 0
M  V30 4069 C 375.616 -1.9416 0.82856 0
M  V30 4070 O 374.964 -2.2812 -0.131671 0
M  V30 4071 C 375.174 -1.2113 3.27305 0
M  V30 4072 C 376.522 -1.63175 3.91994 0
M  V30 4073 O 377.546 -1.30616 3.31388 0
M  V30 4074 O 376.405 -2.23565 4.98679 0
M  V30 4075 H 373.499 -0.370441 0.739393 0
M  V30 4076 H 376.045 -0.017737 1.69691 0
M  V30 4077 H 374.817 -0.372937 3.89519 0
M  V30 4078 H 374.44 -2.02183 3.42356 0
M  V30 4079 N 375.437 -1.54477 -0.31217 0
M  V30 4080 C 376.665 -1.77205 -1.068 0
M  V30 4081 C 377.08 -0.526114 -1.81321 0
M  V30 4082 O 376.437 0.503647 -1.75413 0
M  V30 4083 C 376.488 -2.97253 -2.05725 0
M  V30 4084 O 376.209 -4.1703 -1.34228 0
M  V30 4085 C 377.71 -3.32281 -2.93435 0
M  V30 4086 H 374.93 -0.591287 -0.317208 0
M  V30 4087 H 377.474 -2.01398 -0.354834 0
M  V30 4088 H 375.629 -2.753 -2.72559 0
M  V30 4089 H 376.043 -4.84636 -2.00571 0
M  V30 4090 H 377.517 -4.19551 -3.58721 0
M  V30 4091 H 377.994 -2.49945 -3.61143 0
M  V30 4092 H 378.6 -3.56353 -2.32147 0
M  V30 4093 N 376.915 0.57481 -1.46744 0
M  V30 4094 C 378.164 1.32898 -1.51727 0
M  V30 4095 C 378.477 1.948 -0.176692 0
M  V30 4096 O 379.683 2.71299 -0.104385 0
M  V30 4097 C 378.139 2.40901 -2.67385 0
M  V30 4098 C 377.747 1.85266 -4.07898 0
M  V30 4099 C 379.491 3.17609 -2.81646 0
M  V30 4100 C 377.398 2.90945 -5.14883 0
M  V30 4101 H 376.328 0.499631 -0.564699 0
M  V30 4102 H 378.979 0.612536 -1.72975 0
M  V30 4103 H 377.361 3.15379 -2.39483 0
M  V30 4104 H 378.535 1.17278 -4.45626 0
M  V30 4105 H 376.85 1.21199 -3.98371 0
M  V30 4106 H 379.447 3.96493 -3.58744 0
M  V30 4107 H 379.79 3.70696 -1.89448 0
M  V30 4108 H 380.323 2.50239 -3.09233 0
M  V30 4109 H 377.062 2.42736 -6.089 0
M  V30 4110 H 376.582 3.57398 -4.81691 0
M  V30 4111 H 378.261 3.54755 -5.41071 0
M  V30 4112 N 378.394 1.34581 0.820102 0
M  V30 4113 C 379.624 1.29991 1.6058 0
M  V30 4114 C 380.032 -0.127588 1.88769 0
M  V30 4115 O 379.375 -1.08595 1.48165 0
M  V30 4116 C 379.437 2.02548 2.9701 0
M  V30 4117 C 379.101 3.51794 2.91701 0
M  V30 4118 C 380.098 4.46647 2.66087 0
M  V30 4119 C 377.783 3.94249 3.11245 0
M  V30 4120 C 379.777 5.81929 2.60071 0
M  V30 4121 C 377.464 5.2963 3.04853 0
M  V30 4122 C 378.462 6.23282 2.793 0
M  V30 4123 O 378.15 7.56181 2.72847 0
M  V30 4124 H 377.882 0.448539 0.505756 0
M  V30 4125 H 380.436 1.77811 1.02822 0
M  V30 4126 H 378.666 1.49345 3.56697 0
M  V30 4127 H 380.355 1.91211 3.58041 0
M  V30 4128 H 381.121 4.15168 2.5072 0
M  V30 4129 H 377 3.21749 3.30149 0
M  V30 4130 H 380.544 6.54999 2.40046 0
M  V30 4131 H 376.441 5.60727 3.19774 0
M  V30 4132 H 377.209 7.6595 2.88553 0
M  V30 4133 N 379.872 -1.04064 1.18357 0
M  V30 4134 C 380.804 -2.12114 0.868358 0
M  V30 4135 C 381.817 -1.62247 -0.134045 0
M  V30 4136 O 383.006 -1.78253 0.0937933 0
M  V30 4137 C 380.106 -3.37773 0.276132 0
M  V30 4138 C 379.279 -4.16874 1.3242 0
M  V30 4139 C 378.338 -5.20861 0.747662 0
M  V30 4140 O 377.364 -5.51141 1.42239 0
M  V30 4141 N 378.566 -5.78715 -0.454823 0
M  V30 4142 H 381.331 -2.39748 1.79836 0
M  V30 4143 H 378.892 -1.20258 1.08396 0
M  V30 4144 H 380.884 -4.04513 -0.123133 0
M  V30 4145 H 379.454 -3.07581 -0.557895 0
M  V30 4146 H 378.674 -3.45456 1.89878 0
M  V30 4147 H 379.962 -4.66516 2.03078 0
M  V30 4148 H 379.36 -5.56415 -1.02073 0
M  V30 4149 H 377.917 -6.46921 -0.79601 0
M  V30 4150 N 381.35 -0.985608 -1.22978 0
M  V30 4151 C 382.578 -0.675582 -1.95559 0
M  V30 4152 C 382.993 0.758413 -1.72897 0
M  V30 4153 O 382.35 1.51094 -1.02357 0
M  V30 4154 C 382.401 -0.96293 -3.48439 0
M  V30 4155 O 382.122 -2.34057 -3.70336 0
M  V30 4156 C 383.623 -0.669585 -4.38214 0
M  V30 4157 H 380.843 -0.250523 -0.622478 0
M  V30 4158 H 383.387 -1.3184 -1.56328 0
M  V30 4159 H 381.542 -0.366033 -3.85667 0
M  V30 4160 H 381.956 -2.43424 -4.64591 0
M  V30 4161 H 383.43 -0.920967 -5.44263 0
M  V30 4162 H 383.907 0.396383 -4.37408 0
M  V30 4163 H 384.513 -1.2472 -4.06602 0
M  V30 4164 N 382.828 1.3818 -0.7579 0
M  V30 4165 C 384.056 2.04301 -0.326937 0
M  V30 4166 C 384.471 1.57163 1.0462 0
M  V30 4167 O 383.828 0.746626 1.66529 0
M  V30 4168 C 383.879 3.59846 -0.345363 0
M  V30 4169 O 383.6 4.05256 -1.66432 0
M  V30 4170 C 385.101 4.4319 0.098927 0
M  V30 4171 H 382.321 0.656443 -0.139012 0
M  V30 4172 H 384.865 1.76786 -1.02796 0
M  V30 4173 H 383.02 3.86182 0.306955 0
M  V30 4174 H 383.434 4.99709 -1.59345 0
M  V30 4175 H 384.908 5.51989 0.0348745 0
M  V30 4176 H 385.385 4.23947 1.14741 0
M  V30 4177 H 385.991 4.22051 -0.52468 0
M  V30 4178 N 384.306 0.507319 1.49211 0
M  V30 4179 C 385.583 -0.0982702 1.95353 0
M  V30 4180 C 385.963 -1.53516 1.449 0
M  V30 4181 O 385.311 -2.18594 0.66551 0
M  V30 4182 C 385.521 -0.00440283 3.49 0
M  V30 4183 C 386.869 -0.175147 4.24239 0
M  V30 4184 O 387.893 -0.0792891 3.56112 0
M  V30 4185 O 386.752 -0.37276 5.45227 0
M  V30 4186 H 383.846 -0.0918236 0.821887 0
M  V30 4187 H 386.392 0.570307 1.5983 0
M  V30 4188 H 385.164 0.997402 3.78375 0
M  V30 4189 H 384.787 -0.712845 3.91158 0
M  V30 4190 N 385.784 -1.5574 0.241426 0
M  V30 4191 C 387.031 -1.9881 -0.384836 0
M  V30 4192 C 387.359 -1.12947 -1.58346 0
M  V30 4193 O 386.614 -0.178993 -1.9488 0
M  V30 4194 C 386.913 -3.47308 -0.843317 0
M  V30 4195 C 386.579 -4.50223 0.246946 0
M  V30 4196 C 385.241 -4.78088 0.546399 0
M  V30 4197 C 387.593 -5.11841 0.983282 0
M  V30 4198 C 384.921 -5.64846 1.58636 0
M  V30 4199 C 387.273 -5.99727 2.01272 0
M  V30 4200 C 385.937 -6.25927 2.31888 0
M  V30 4201 H 385.207 -0.727496 -0.140821 0
M  V30 4202 H 387.854 -1.8831 0.348106 0
M  V30 4203 H 386.159 -3.55112 -1.65537 0
M  V30 4204 H 387.856 -3.78017 -1.33806 0
M  V30 4205 H 384.446 -4.286 0.00340639 0
M  V30 4206 H 388.63 -4.90366 0.765182 0
M  V30 4207 H 383.886 -5.83403 1.82896 0
M  V30 4208 H 388.06 -6.46517 2.58823 0
M  V30 4209 H 385.687 -6.92949 3.12611 0
M  V30 4210 N 387.262 0.0317525 -1.57568 0
M  V30 4211 C 388.487 0.738664 -1.938 0
M  V30 4212 C 388.912 1.68242 -0.841208 0
M  V30 4213 O 388.27 1.80157 0.203267 0
M  V30 4214 C 388.318 1.47417 -3.29091 0
M  V30 4215 O 387.422 2.5872 -3.2115 0
M  V30 4216 H 386.763 0.198856 -0.633524 0
M  V30 4217 H 389.293 -0.0119713 -2.04596 0
M  V30 4218 H 389.303 1.84468 -3.63917 0
M  V30 4219 H 387.978 0.781988 -4.08482 0
M  V30 4220 H 386.555 2.24231 -2.97951 0
M  V30 4221 N 388.74 1.54641 0.303973 0
M  V30 4222 C 389.988 1.73437 1.0375 0
M  V30 4223 C 390.309 0.521449 1.87899 0
M  V30 4224 O 389.579 -0.46432 1.90318 0
M  V30 4225 H 388.159 0.639518 0.386039 0
M  V30 4226 H 390.821 1.91988 0.335675 0
M  V30 4227 H 389.917 2.62235 1.69231 0
M  V30 4228 N 390.218 -0.567019 1.47046 0
M  V30 4229 C 391.467 -1.32091 1.5243 0
M  V30 4230 C 391.78 -1.94704 0.187021 0
M  V30 4231 O 392.986 -2.7124 0.118771 0
M  V30 4232 C 391.442 -2.39479 2.68659 0
M  V30 4233 C 391.05 -1.831 4.08874 0
M  V30 4234 C 392.794 -3.16111 2.83327 0
M  V30 4235 C 390.701 -2.8821 5.16419 0
M  V30 4236 H 389.631 -0.496629 0.56734 0
M  V30 4237 H 392.282 -0.603354 1.73297 0
M  V30 4238 H 390.664 -3.14105 2.41152 0
M  V30 4239 H 391.838 -1.14913 4.46242 0
M  V30 4240 H 390.153 -1.19085 3.99008 0
M  V30 4241 H 392.75 -3.94585 3.60842 0
M  V30 4242 H 393.093 -3.69686 1.91411 0
M  V30 4243 H 393.626 -2.48595 3.10556 0
M  V30 4244 H 390.365 -2.39504 6.10179 0
M  V30 4245 H 389.885 -3.54839 4.8358 0
M  V30 4246 H 391.564 -3.51881 5.42945 0
M  V30 4247 N 391.696 -1.35014 -0.812953 0
M  V30 4248 C 393.112 -1.14914 -1.10757 0
M  V30 4249 C 393.312 0.0426818 -2.01455 0
M  V30 4250 O 392.368 0.715212 -2.42159 0
M  V30 4251 C 393.681 -2.44911 -1.74468 0
M  V30 4252 C 395.229 -2.5106 -1.86917 0
M  V30 4253 C 395.704 -3.81085 -2.54044 0
M  V30 4254 N 397.195 -3.82301 -2.61535 0
M  V30 4255 C 397.93 -4.79634 -3.14227 0
M  V30 4256 N 397.426 -5.87353 -3.67407 0
M  V30 4257 N 399.219 -4.67078 -3.12721 0
M  V30 4258 H 391.37 -2.1136 -0.20989 0
M  V30 4259 H 393.633 -0.935128 -0.155692 0
M  V30 4260 H 393.339 -3.32267 -1.15289 0
M  V30 4261 H 393.213 -2.58989 -2.74234 0
M  V30 4262 H 395.6 -1.64137 -2.45241 0
M  V30 4263 H 395.681 -2.40901 -0.860242 0
M  V30 4264 H 395.325 -4.68402 -1.96372 0
M  V30 4265 H 395.255 -3.88529 -3.55461 0
M  V30 4266 H 397.746 -3.04465 -2.23851 0
M  V30 4267 H 398.059 -6.57624 -4.05894 0
M  V30 4268 H 396.404 -5.91054 -3.65623 0
M  V30 4269 H 399.595 -3.82067 -2.70449 0
M  V30 4270 H 399.768 -5.43098 -3.53481 0
M  V30 4271 N 393.175 1.03435 -1.18907 0
M  V30 4272 C 394.123 2.13703 -0.918353 0
M  V30 4273 C 395.117 1.68947 0.123767 0
M  V30 4274 O 396.323 1.79983 -0.0249701 0
M  V30 4275 H 392.698 0.698112 -0.279542 0
M  V30 4276 H 394.669 2.33731 -1.85506 0
M  V30 4277 C 393.418 3.44542 -0.467532 0
M  V30 4278 H 392.741 3.79394 -1.26095 0
M  V30 4279 H 394.181 4.22812 -0.317164 0
M  V30 4280 C 392.64 3.26829 0.817588 0
M  V30 4281 O 393.17 3.54975 1.88031 0
M  V30 4282 N 391.376 2.80139 0.772677 0
M  V30 4283 H 390.923 2.57434 -0.0923883 0
M  V30 4284 H 390.881 2.68668 1.63294 0
M  V30 4285 N 394.653 0.992116 1.22453 0
M  V30 4286 C 395.902 0.662992 1.90492 0
M  V30 4287 C 396.215 -0.808407 1.78113 0
M  V30 4288 O 397.421 -1.24908 2.41061 0
M  V30 4289 C 395.877 1.1353 3.41524 0
M  V30 4290 C 395.485 2.63187 3.62542 0
M  V30 4291 C 397.229 0.880465 4.15269 0
M  V30 4292 C 395.136 3.04024 5.0727 0
M  V30 4293 H 394.066 0.244278 0.713333 0
M  V30 4294 H 396.717 1.20157 1.38688 0
M  V30 4295 H 395.099 0.52485 3.92506 0
M  V30 4296 H 396.273 3.2957 3.22056 0
M  V30 4297 H 394.588 2.86543 3.02129 0
M  V30 4298 H 397.185 1.16128 5.21937 0
M  V30 4299 H 397.528 -0.183408 4.15896 0
M  V30 4300 H 398.061 1.45307 3.70312 0
M  V30 4301 H 394.8 4.09584 5.11782 0
M  V30 4302 H 394.32 2.42343 5.48662 0
M  V30 4303 H 395.999 2.95282 5.75689 0
M  V30 4304 N 396.131 -1.37776 0.765217 0
M  V30 4305 C 397.356 -2.04651 0.336537 0
M  V30 4306 C 397.781 -1.57337 -1.03086 0
M  V30 4307 O 397.139 -0.730621 -1.65927 0
M  V30 4308 C 397.187 -3.58577 0.381468 0
M  V30 4309 O 396.291 -4.07706 -0.62042 0
M  V30 4310 H 395.632 -0.64756 0.146838 0
M  V30 4311 H 398.162 -1.76221 1.03959 0
M  V30 4312 H 398.172 -4.07314 0.236448 0
M  V30 4313 H 396.847 -3.9237 1.37907 0
M  V30 4314 H 395.424 -3.70306 -0.439056 0
M  V30 4315 N 397.609 -0.515225 -1.4894 0
M  V30 4316 C 398.856 0.024215 -2.02486 0
M  V30 4317 C 399.184 1.35671 -1.39368 0
M  V30 4318 O 398.439 1.88566 -0.523574 0
M  V30 4319 C 398.738 0.210595 -3.56779 0
M  V30 4320 C 398.404 -1.04569 -4.38607 0
M  V30 4321 C 397.066 -1.39002 -4.60686 0
M  V30 4322 C 399.418 -1.88008 -4.86109 0
M  V30 4323 C 396.746 -2.568 -5.27514 0
M  V30 4324 C 399.098 -3.04972 -5.54234 0
M  V30 4325 C 397.762 -3.39768 -5.74555 0
M  V30 4326 H 397.032 0.00886088 -0.740947 0
M  V30 4327 H 399.679 -0.678263 -1.79086 0
M  V30 4328 H 397.984 0.99572 -3.78936 0
M  V30 4329 H 399.681 0.642659 -3.95817 0
M  V30 4330 H 396.271 -0.767497 -4.21672 0
M  V30 4331 H 400.455 -1.62719 -4.68867 0
M  V30 4332 H 395.711 -2.8398 -5.41447 0
M  V30 4333 H 399.885 -3.69943 -5.90013 0
M  V30 4334 H 397.512 -4.31148 -6.26112 0
M  V30 4335 N 399.087 1.5561 -0.249682 0
M  V30 4336 C 400.02 2.17537 0.689408 0
M  V30 4337 C 400.998 1.12829 1.17083 0
M  V30 4338 O 402.182 1.41229 1.24846 0
M  V30 4339 C 399.309 2.77828 1.93725 0
M  V30 4340 C 398.355 3.95615 1.59346 0
M  V30 4341 S 399.188 5.30988 0.69367 0
M  V30 4342 C 400.344 5.94734 1.95046 0
M  V30 4343 H 400.577 2.96852 0.163142 0
M  V30 4344 H 398.11 1.54362 -0.0341166 0
M  V30 4345 H 400.068 3.13199 2.65361 0
M  V30 4346 H 398.729 1.98454 2.43465 0
M  V30 4347 H 397.922 4.364 2.52132 0
M  V30 4348 H 397.524 3.61535 0.957512 0
M  V30 4349 H 399.816 6.12419 2.89739 0
M  V30 4350 H 400.759 6.90109 1.58604 0
M  V30 4351 H 401.167 5.23832 2.10381 0
M  V30 4352 N 400.565 -0.0233959 1.57583 0
M  V30 4353 C 401.811 -0.714119 1.89811 0
M  V30 4354 C 402.144 -1.74702 0.848113 0
M  V30 4355 O 401.419 -1.94023 -0.136135 0
M  V30 4356 C 401.702 -1.37853 3.32669 0
M  V30 4357 C 401.555 -0.358764 4.48367 0
M  V30 4358 C 402.874 -2.31101 3.7454 0
M  V30 4359 H 399.993 -0.25814 0.690314 0
M  V30 4360 H 402.635 0.0230927 1.89986 0
M  V30 4361 H 400.785 -2.00689 3.3265 0
M  V30 4362 H 402.457 0.268115 4.6052 0
M  V30 4363 H 400.7 0.321387 4.32608 0
M  V30 4364 H 401.371 -0.862242 5.45224 0
M  V30 4365 H 403.847 -1.78304 3.75961 0
M  V30 4366 H 402.723 -2.74567 4.75294 0
M  V30 4367 H 402.984 -3.18018 3.0711 0
M  V30 4368 N 402.043 -1.548 -0.295768 0
M  V30 4369 C 402.99 -1.86113 -1.36494 0
M  V30 4370 C 403.96 -0.7105 -1.50137 0
M  V30 4371 O 405.145 -0.959626 -1.64912 0
M  V30 4372 C 402.285 -2.11861 -2.72413 0
M  V30 4373 C 401.398 -3.39471 -2.67177 0
M  V30 4374 C 400.533 -3.55035 -3.95125 0
M  V30 4375 C 399.572 -4.76418 -3.84308 0
M  V30 4376 N 398.709 -4.8876 -5.04042 0
M  V30 4377 H 403.549 -2.77314 -1.09091 0
M  V30 4378 H 401.086 -1.37315 -0.52753 0
M  V30 4379 H 403.044 -2.24786 -3.51464 0
M  V30 4380 H 401.674 -1.2392 -2.98066 0
M  V30 4381 H 400.726 -3.35139 -1.79962 0
M  V30 4382 H 402.038 -4.28646 -2.55076 0
M  V30 4383 H 401.192 -3.67653 -4.82614 0
M  V30 4384 H 399.931 -2.64002 -4.10066 0
M  V30 4385 H 398.936 -4.63827 -2.95202 0
M  V30 4386 H 400.161 -5.68863 -3.70906 0
M  V30 4387 H 398.107 -4.00652 -5.19436 0
M  V30 4388 H 398.024 -5.71945 -4.94384 0
M  V30 4389 H 399.292 -5.0574 -5.93167 0
M  V30 4390 N 403.521 0.559213 -1.47345 0
M  V30 4391 C 404.937 0.884943 -1.32819 0
M  V30 4392 C 405.137 1.98988 -0.317173 0
M  V30 4393 O 404.193 2.51031 0.272011 0
M  V30 4394 C 405.506 1.28007 -2.72093 0
M  V30 4395 C 407.054 1.39161 -2.80363 0
M  V30 4396 C 407.529 1.82031 -4.20272 0
M  V30 4397 N 409.02 1.89185 -4.22804 0
M  V30 4398 C 409.755 2.2368 -5.27973 0
M  V30 4399 N 409.251 2.56802 -6.43447 0
M  V30 4400 N 411.044 2.24436 -5.15349 0
M  V30 4401 H 403.195 -0.170304 -2.11716 0
M  V30 4402 H 405.458 -0.0135247 -0.947904 0
M  V30 4403 H 405.164 0.542027 -3.47498 0
M  V30 4404 H 405.038 2.23665 -3.03733 0
M  V30 4405 H 407.425 2.12048 -2.05231 0
M  V30 4406 H 407.506 0.41696 -2.52379 0
M  V30 4407 H 407.15 1.09715 -4.95908 0
M  V30 4408 H 407.08 2.80495 -4.45679 0
M  V30 4409 H 409.571 1.65982 -3.39497 0
M  V30 4410 H 409.884 2.82144 -7.19454 0
M  V30 4411 H 408.229 2.54387 -6.46771 0
M  V30 4412 H 411.42 1.97998 -4.24163 0
M  V30 4413 H 411.593 2.50989 -5.97418 0
M  V30 4414 N 404.999 1.35443 0.805782 0
M  V30 4415 C 406.248 1.28097 1.55801 0
M  V30 4416 C 406.561 -0.142428 1.95081 0
M  V30 4417 O 407.767 -0.33817 2.69386 0
M  V30 4418 C 406.223 2.24653 2.81174 0
M  V30 4419 C 405.831 3.72342 2.49129 0
M  V30 4420 C 407.575 2.2625 3.59181 0
M  V30 4421 C 405.482 4.60719 3.70799 0
M  V30 4422 H 404.412 0.475937 0.584808 0
M  V30 4423 H 407.063 1.60712 0.885661 0
M  V30 4424 H 405.445 1.85011 3.50124 0
M  V30 4425 H 406.619 4.20624 1.88181 0
M  V30 4426 H 404.934 3.73361 1.84366 0
M  V30 4427 H 407.531 2.89495 4.49552 0
M  V30 4428 H 407.874 1.26647 3.96568 0
M  V30 4429 H 408.407 2.64426 2.97193 0
M  V30 4430 H 405.146 5.61324 3.3852 0
M  V30 4431 H 404.666 4.17163 4.3097 0
M  V30 4432 H 406.345 4.76182 4.38018 0
M  V30 4433 N 406.477 -1.02803 1.19454 0
M  V30 4434 C 407.893 -1.28473 0.946937 0
M  V30 4435 C 408.093 -1.97881 -0.380202 0
M  V30 4436 O 407.149 -2.26719 -1.11151 0
M  V30 4437 C 408.462 -2.13099 2.12154 0
M  V30 4438 C 410.01 -2.26404 2.16126 0
M  V30 4439 C 410.485 -3.14402 3.33039 0
M  V30 4440 N 411.976 -3.21991 3.32981 0
M  V30 4441 C 412.711 -3.90272 4.20089 0
M  V30 4442 N 412.207 -4.60777 5.17355 0
M  V30 4443 N 414 -3.8668 4.07964 0
M  V30 4444 H 406.151 -0.561665 2.04839 0
M  V30 4445 H 408.414 -0.310438 0.89573 0
M  V30 4446 H 408.12 -1.69422 3.08203 0
M  V30 4447 H 407.994 -3.13813 2.09287 0
M  V30 4448 H 410.381 -2.69311 1.20647 0
M  V30 4449 H 410.462 -1.25237 2.23045 0
M  V30 4450 H 410.106 -2.72204 4.28798 0
M  V30 4451 H 410.036 -4.1563 3.23356 0
M  V30 4452 H 412.527 -2.71778 2.62574 0
M  V30 4453 H 412.84 -5.10513 5.80169 0
M  V30 4454 H 411.185 -4.5964 5.21302 0
M  V30 4455 H 414.376 -3.30739 3.31254 0
M  V30 4456 H 414.549 -4.39621 4.76064 0
M  V30 4457 N 407.956 -0.998596 -1.21925 0
M  V30 4458 C 409.205 -0.673085 -1.90138 0
M  V30 4459 C 409.518 0.79895 -1.78539 0
M  V30 4460 O 410.724 1.23628 -2.4172 0
M  V30 4461 C 409.18 -1.15339 -3.40918 0
M  V30 4462 C 408.788 -2.65106 -3.61141 0
M  V30 4463 C 410.532 -0.902476 -4.14796 0
M  V30 4464 C 408.439 -3.0671 -5.05651 0
M  V30 4465 H 407.369 -0.248057 -0.712028 0
M  V30 4466 H 410.02 -1.20891 -1.38049 0
M  V30 4467 H 408.402 -0.545658 -3.92223 0
M  V30 4468 H 409.576 -3.31274 -3.20304 0
M  V30 4469 H 407.891 -2.88142 -3.00605 0
M  V30 4470 H 410.488 -1.18895 -5.21314 0
M  V30 4471 H 410.831 0.161349 -4.15987 0
M  V30 4472 H 411.364 -1.47269 -3.69536 0
M  V30 4473 H 408.103 -4.12292 -5.09603 0
M  V30 4474 H 407.623 -2.45249 -5.47369 0
M  V30 4475 H 409.302 -2.9833 -5.74115 0
M  V30 4476 N 409.434 1.37368 -0.772513 0
M  V30 4477 C 410.382 2.32134 -0.147111 0
M  V30 4478 C 411.376 1.54972 0.684106 0
M  V30 4479 O 412.582 1.70363 0.581083 0
M  V30 4480 H 408.957 0.751449 -0.028786 0
M  V30 4481 H 410.928 2.82464 -0.962112 0
M  V30 4482 C 409.677 3.40226 0.71703 0
M  V30 4483 H 409 3.99706 0.0867951 0
M  V30 4484 H 410.44 4.08897 1.12159 0
M  V30 4485 C 408.899 2.80372 1.86797 0
M  V30 4486 O 409.429 2.71183 2.96349 0
M  V30 4487 N 407.635 2.37904 1.66883 0
M  V30 4488 H 407.182 2.45578 0.777759 0
M  V30 4489 H 407.14 1.98202 2.44056 0
M  V30 4490 N 410.912 0.523116 1.48665 0
M  V30 4491 C 412.14 -0.0096312 2.06898 0
M  V30 4492 C 412.555 -1.28784 1.38059 0
M  V30 4493 O 411.912 -1.76453 0.465893 0
M  V30 4494 C 411.963 -0.244386 3.60673 0
M  V30 4495 O 411.684 0.983172 4.26925 0
M  V30 4496 C 413.185 -0.818289 4.35682 0
M  V30 4497 H 410.405 0.0304161 0.67031 0
M  V30 4498 H 412.949 0.726799 1.91149 0
M  V30 4499 H 411.104 -0.930847 3.76051 0
M  V30 4500 H 411.518 0.759653 5.1897 0
M  V30 4501 H 412.992 -0.93201 5.44075 0
M  V30 4502 H 413.469 -1.82153 3.99646 0
M  V30 4503 H 414.075 -0.168609 4.24966 0
M  V30 4504 N 412.39 -1.55475 0.257931 0
M  V30 4505 C 413.618 -2.03609 -0.367559 0
M  V30 4506 C 414.033 -1.13687 -1.50734 0
M  V30 4507 O 413.39 -0.153479 -1.81853 0
M  V30 4508 C 413.441 -3.51001 -0.864908 0
M  V30 4509 O 413.162 -4.37499 0.229465 0
M  V30 4510 C 414.663 -4.14946 -1.55997 0
M  V30 4511 H 411.883 -0.665459 -0.0860521 0
M  V30 4512 H 414.427 -2.00843 0.385014 0
M  V30 4513 H 412.582 -3.54266 -1.56762 0
M  V30 4514 H 412.996 -5.24286 -0.14998 0
M  V30 4515 H 414.47 -5.19735 -1.85956 0
M  V30 4516 H 414.947 -3.6209 -2.4857 0
M  V30 4517 H 415.553 -4.15635 -0.901543 0
M  V30 4518 N 413.868 0.0150385 -1.57593 0
M  V30 4519 C 414.831 0.995996 -2.06428 0
M  V30 4520 C 415.831 1.2818 -0.970903 0
M  V30 4521 O 417.021 1.22949 -1.23406 0
M  V30 4522 C 414.153 2.32506 -2.49307 0
M  V30 4523 H 415.346 0.573873 -2.94358 0
M  V30 4524 H 412.899 0.262186 -1.54085 0
M  V30 4525 H 413.634 2.79438 -1.64575 0
M  V30 4526 H 413.419 2.13087 -3.29145 0
M  V30 4527 H 414.909 3.02906 -2.87468 0
M  V30 4528 N 415.346 1.54954 0.287554 0
M  V30 4529 C 416.623 1.65569 1.04146 0
M  V30 4530 C 417.003 0.512672 2.0478 0
M  V30 4531 O 416.351 -0.489038 2.23205 0
M  V30 4532 C 416.561 3.04163 1.71131 0
M  V30 4533 C 417.909 3.61429 2.22832 0
M  V30 4534 O 418.933 3.06702 1.81141 0
M  V30 4535 O 417.792 4.57281 2.9926 0
M  V30 4536 H 414.886 0.671881 0.482188 0
M  V30 4537 H 417.432 1.67297 0.28457 0
M  V30 4538 H 416.204 3.78796 0.981303 0
M  V30 4539 H 415.827 3.06271 2.53543 0
M  V30 4540 N 416.824 -0.551391 1.4764 0
M  V30 4541 C 417.734 -1.68525 1.63207 0
M  V30 4542 C 418.75 -1.6621 0.514815 0
M  V30 4543 O 419.926 -1.85551 0.783113 0
M  V30 4544 C 416.991 -3.05025 1.64805 0
M  V30 4545 C 416.052 -3.18362 2.88 0
M  V30 4546 C 415.285 -4.4835 2.89513 0
M  V30 4547 O 415.508 -5.34163 2.00065 0
M  V30 4548 O 414.442 -4.65602 3.81443 0
M  V30 4549 H 418.268 -1.58333 2.59161 0
M  V30 4550 H 415.853 -0.722063 1.30792 0
M  V30 4551 H 417.735 -3.86245 1.68502 0
M  V30 4552 H 416.41 -3.15587 0.720197 0
M  V30 4553 H 415.317 -2.36518 2.89845 0
M  V30 4554 H 416.65 -3.12707 3.80099 0
M  V30 4555 N 418.302 -1.35869 -0.798587 0
M  V30 4556 C 419.249 -1.29446 -1.91082 0
M  V30 4557 C 420.219 -0.16487 -1.6528 0
M  V30 4558 O 421.404 -0.349888 -1.87564 0
M  V30 4559 C 418.544 -1.0804 -3.27752 0
M  V30 4560 C 417.657 -2.29993 -3.65687 0
M  V30 4561 C 416.792 -2.01673 -4.91428 0
M  V30 4562 C 415.831 -3.19636 -5.22015 0
M  V30 4563 N 414.968 -2.91039 -6.38937 0
M  V30 4564 H 419.808 -2.24553 -1.95907 0
M  V30 4565 H 417.345 -1.11615 -0.958148 0
M  V30 4566 H 419.303 -0.936586 -4.06551 0
M  V30 4567 H 417.933 -0.16592 -3.22373 0
M  V30 4568 H 416.985 -2.55211 -2.82085 0
M  V30 4569 H 418.297 -3.18052 -3.84245 0
M  V30 4570 H 417.451 -1.84168 -5.78072 0
M  V30 4571 H 416.19 -1.10911 -4.74921 0
M  V30 4572 H 415.195 -3.37709 -4.33858 0
M  V30 4573 H 416.42 -4.11211 -5.40447 0
M  V30 4574 H 414.366 -2.0288 -6.2384 0
M  V30 4575 H 414.283 -3.72635 -6.57784 0
M  V30 4576 H 415.551 -2.77093 -7.28587 0
M  V30 4577 N 419.78 1.02168 -1.19998 0
M  V30 4578 C 421.057 1.72816 -0.916191 0
M  V30 4579 C 421.437 2.03081 0.576325 0
M  V30 4580 O 420.785 1.69122 1.53656 0
M  V30 4581 C 420.995 2.9997 -1.78378 0
M  V30 4582 C 422.343 3.73336 -2.02251 0
M  V30 4583 O 423.367 3.09914 -1.75589 0
M  V30 4584 O 422.226 4.87371 -2.47249 0
M  V30 4585 H 419.32 0.752924 -0.342103 0
M  V30 4586 H 421.866 1.08062 -1.30846 0
M  V30 4587 H 420.638 2.73888 -2.79466 0
M  V30 4588 H 420.261 3.72464 -1.39126 0
M  V30 4589 N 421.258 1.00505 1.21394 0
M  V30 4590 C 422.669 0.721082 1.72213 0
M  V30 4591 C 423.02 -0.761263 1.80829 0
M  V30 4592 O 422.145 -1.59464 1.46288 0
M  V30 4593 C 422.74 1.30228 3.12772 0
M  V30 4594 C 421.299 1.06743 3.60947 0
M  V30 4595 C 420.446 1.41507 2.38477 0
M  V30 4596 H 423.397 1.17594 1.06571 0
M  V30 4597 H 423.418 0.686955 3.74247 0
M  V30 4598 H 422.93 2.38115 3.06468 0
M  V30 4599 H 421.031 0.00572162 3.726 0
M  V30 4600 H 421.144 1.73936 4.46411 0
M  V30 4601 H 419.508 0.833852 2.40664 0
M  V30 4602 H 420.291 2.50424 2.34824 0
M  V30 4603 N 422.737 -1.36956 0.779787 0
M  V30 4604 C 423.965 -2.03755 0.359398 0
M  V30 4605 C 424.38 -1.58807 -1.02106 0
M  V30 4606 O 423.737 -0.773024 -1.6532 0
M  V30 4607 C 423.788 -3.59251 0.402568 0
M  V30 4608 O 423.509 -4.02557 1.72858 0
M  V30 4609 C 425.01 -4.43291 -0.0284068 0
M  V30 4610 H 422.23 -0.654148 0.149437 0
M  V30 4611 H 424.774 -1.75128 1.05595 0
M  V30 4612 H 422.929 -3.86621 -0.245478 0
M  V30 4613 H 423.343 -4.97111 1.67275 0
M  V30 4614 H 424.817 -5.51975 0.0529466 0
M  V30 4615 H 425.294 -4.25719 -1.07982 0
M  V30 4616 H 425.9 -4.21163 0.591758 0
M  V30 4617 N 424.215 -0.530993 -1.48385 0
M  V30 4618 C 425.163 0.244595 -2.3131 0
M  V30 4619 C 426.157 0.93451 -1.41291 0
M  V30 4620 O 427.363 0.85878 -1.58193 0
M  V30 4621 H 423.738 0.0977472 -0.74562 0
M  V30 4622 H 425.709 -0.474369 -2.94605 0
M  V30 4623 C 424.458 1.2779 -3.23365 0
M  V30 4624 H 423.781 0.756439 -3.92579 0
M  V30 4625 H 425.221 1.79198 -3.84271 0
M  V30 4626 C 423.68 2.31205 -2.45042 0
M  V30 4627 O 424.21 3.37661 -2.17596 0
M  V30 4628 N 422.416 2.04446 -2.0652 0
M  V30 4629 H 421.963 1.17891 -2.2904 0
M  V30 4630 H 421.921 2.73861 -1.54427 0
M  V30 4631 N 425.693 1.55336 -0.266172 0
M  V30 4632 C 427.104 1.85236 0.233315 0
M  V30 4633 C 427.455 1.18816 1.56132 0
M  V30 4634 O 426.58 0.473307 2.11161 0
M  V30 4635 C 427.175 3.36059 0.430113 0
M  V30 4636 C 425.734 3.66116 0.873842 0
M  V30 4637 C 424.881 2.77274 -0.0380016 0
M  V30 4638 H 427.832 1.51004 -0.488214 0
M  V30 4639 H 427.853 3.58681 1.26998 0
M  V30 4640 H 427.365 3.84373 -0.536588 0
M  V30 4641 H 425.466 3.23295 1.85233 0
M  V30 4642 H 425.579 4.73699 0.717358 0
M  V30 4643 H 423.943 2.50198 0.476759 0
M  V30 4644 H 424.726 3.284 -1.00042 0
M  V30 4645 N 427.171 -0.0066808 1.57599 0
M  V30 4646 C 428.418 -0.69292 1.90276 0
M  V30 4647 C 428.746 -1.74148 0.866192 0
M  V30 4648 O 428.001 -1.95268 -0.129933 0
M  V30 4649 C 428.3 -1.37939 3.29708 0
M  V30 4650 C 427.966 -0.464679 4.48499 0
M  V30 4651 C 426.628 -0.212809 4.80729 0
M  V30 4652 C 428.98 0.16551 5.20937 0
M  V30 4653 C 426.308 0.677653 5.82773 0
M  V30 4654 C 428.66 1.04381 6.23929 0
M  V30 4655 C 427.324 1.30492 6.54621 0
M  V30 4656 H 426.594 -0.253558 0.696268 0
M  V30 4657 H 429.241 0.0474123 1.91441 0
M  V30 4658 H 427.546 -2.1936 3.24636 0
M  V30 4659 H 429.243 -1.9163 3.52249 0
M  V30 4660 H 425.833 -0.671153 4.23313 0
M  V30 4661 H 430.017 -0.0160756 4.96297 0
M  V30 4662 H 425.273 0.88803 6.04917 0
M  V30 4663 H 429.447 1.53851 6.79193 0
M  V30 4664 H 427.074 1.99662 7.33512 0
M  V30 4665 N 428.649 -1.55105 -0.279332 0
M  V30 4666 C 430.065 -1.46803 -0.626187 0
M  V30 4667 C 430.265 -0.676939 -1.89789 0
M  V30 4668 O 429.321 -0.19326 -2.51759 0
M  V30 4669 C 430.634 -2.90962 -0.759034 0
M  V30 4670 C 432.182 -3.01138 -0.853504 0
M  V30 4671 C 432.657 -4.46539 -1.01818 0
M  V30 4672 N 434.148 -4.50341 -1.08386 0
M  V30 4673 C 434.883 -5.60053 -1.22996 0
M  V30 4674 N 434.379 -6.79645 -1.34366 0
M  V30 4675 N 436.172 -5.47783 -1.26056 0
M  V30 4676 H 428.323 -2.04996 0.555921 0
M  V30 4677 H 430.586 -0.929325 0.187239 0
M  V30 4678 H 430.292 -3.51544 0.104852 0
M  V30 4679 H 430.166 -3.39619 -1.64131 0
M  V30 4680 H 432.553 -2.40658 -1.70786 0
M  V30 4681 H 432.634 -2.55745 0.0532466 0
M  V30 4682 H 432.278 -5.0762 -0.168504 0
M  V30 4683 H 432.208 -4.89583 -1.93948 0
M  V30 4684 H 434.699 -3.64191 -1.00864 0
M  V30 4685 H 435.012 -7.59012 -1.4533 0
M  V30 4686 H 433.357 -6.82469 -1.31382 0
M  V30 4687 H 436.548 -4.53294 -1.168 0
M  V30 4688 H 436.721 -6.33331 -1.37098 0
M  V30 4689 N 430.127 0.543554 -1.4793 0
M  V30 4690 C 431.374 1.30008 -1.55255 0
M  V30 4691 C 431.702 1.93245 -0.220612 0
M  V30 4692 O 430.957 1.79141 0.787843 0
M  V30 4693 C 431.256 2.42078 -2.62932 0
M  V30 4694 C 430.922 1.96583 -4.0579 0
M  V30 4695 C 429.584 1.83893 -4.44676 0
M  V30 4696 C 431.936 1.62034 -4.95373 0
M  V30 4697 C 429.264 1.34969 -5.70964 0
M  V30 4698 C 431.616 1.14577 -6.22137 0
M  V30 4699 C 430.28 1.00493 -6.59892 0
M  V30 4700 H 429.55 0.475735 -0.568117 0
M  V30 4701 H 432.197 0.608075 -1.81589 0
M  V30 4702 H 430.502 3.16892 -2.30406 0
M  V30 4703 H 432.199 3.00236 -2.65818 0
M  V30 4704 H 428.789 2.07407 -3.75074 0
M  V30 4705 H 432.973 1.70705 -4.66019 0
M  V30 4706 H 428.229 1.2274 -5.98953 0
M  V30 4707 H 432.403 0.869109 -6.90955 0
M  V30 4708 H 430.03 0.623624 -7.57638 0
M  V30 4709 N 431.605 1.3629 0.791371 0
M  V30 4710 C 433.016 1.27225 1.36641 0
M  V30 4711 C 433.367 -0.0887968 1.95999 0
M  V30 4712 O 432.492 -0.990207 1.92416 0
M  V30 4713 C 433.087 2.30375 2.48421 0
M  V30 4714 C 431.646 2.25004 3.01746 0
M  V30 4715 C 430.793 2.15259 1.7481 0
M  V30 4716 H 433.744 1.47198 0.593173 0
M  V30 4717 H 433.765 1.93905 3.27385 0
M  V30 4718 H 433.277 3.29422 2.05189 0
M  V30 4719 H 431.378 1.29417 3.49403 0
M  V30 4720 H 431.491 3.1761 3.58693 0
M  V30 4721 H 429.855 1.61482 1.96966 0
M  V30 4722 H 430.638 3.16191 1.33709 0
M  V30 4723 N 433.083 -1.0153 1.20538 0
M  V30 4724 C 434.031 -2.12215 0.952235 0
M  V30 4725 C 435.025 -1.69123 -0.0968735 0
M  V30 4726 O 436.231 -1.7992 0.0536006 0
M  V30 4727 H 432.606 -0.693576 0.290613 0
M  V30 4728 H 434.577 -2.3075 1.89201 0
M  V30 4729 C 433.326 -3.43755 0.522287 0
M  V30 4730 H 432.649 -3.7734 1.32115 0
M  V30 4731 H 434.089 -4.22254 0.384389 0
M  V30 4732 C 432.548 -3.28088 -0.765489 0
M  V30 4733 O 433.078 -3.57921 -1.8236 0
M  V30 4734 N 431.284 -2.81333 -0.728011 0
M  V30 4735 H 430.831 -2.57255 0.133332 0
M  V30 4736 H 430.789 -2.71232 -1.58999 0
M  V30 4737 N 434.561 -1.01147 -1.20859 0
M  V30 4738 C 435.81 -0.693214 -1.89413 0
M  V30 4739 C 436.123 0.779969 -1.79376 0
M  V30 4740 O 437.329 1.21057 -2.43017 0
M  V30 4741 C 435.785 -1.18949 -3.39675 0
M  V30 4742 C 435.393 -2.68921 -3.58309 0
M  V30 4743 C 437.137 -0.94642 -4.13815 0
M  V30 4744 C 435.044 -3.12056 -5.0237 0
M  V30 4745 H 433.974 -0.255595 -0.709357 0
M  V30 4746 H 436.625 -1.22349 -1.36759 0
M  V30 4747 H 435.007 -0.587228 -3.91622 0
M  V30 4748 H 436.181 -3.34652 -3.16772 0
M  V30 4749 H 434.496 -2.91314 -2.97532 0
M  V30 4750 H 437.093 -1.24417 -5.20023 0
M  V30 4751 H 437.436 0.117219 -4.16135 0
M  V30 4752 H 437.969 -1.5118 -3.67953 0
M  V30 4753 H 434.708 -4.17674 -5.05202 0
M  V30 4754 H 434.228 -2.51041 -5.44737 0
M  V30 4755 H 435.907 -3.04403 -5.70918 0
M  V30 4756 N 436.039 1.36541 -0.78704 0
M  V30 4757 C 437.287 1.98911 -0.357633 0
M  V30 4758 C 437.608 1.62778 1.07371 0
M  V30 4759 O 436.878 0.900612 1.73971 0
M  V30 4760 H 435.458 0.735734 -0.129246 0
M  V30 4761 H 438.12 1.66776 -1.00855 0
M  V30 4762 H 437.216 3.08874 -0.447549 0
M  V30 4763 N 437.518 0.538854 1.48102 0
M  V30 4764 C 438.764 0.00801365 2.02798 0
M  V30 4765 C 439.097 -1.3309 1.41424 0
M  V30 4766 O 438.372 -1.86169 0.563158 0
M  V30 4767 C 438.655 -0.104589 3.59948 0
M  V30 4768 C 438.508 1.26012 4.31788 0
M  V30 4769 C 439.827 -0.827055 4.32259 0
M  V30 4770 H 436.946 0.00438624 0.736987 0
M  V30 4771 H 439.588 0.6976 1.7673 0
M  V30 4772 H 437.738 -0.691893 3.82289 0
M  V30 4773 H 439.41 1.88922 4.2084 0
M  V30 4774 H 437.653 1.83968 3.92859 0
M  V30 4775 H 438.324 1.13424 5.40221 0
M  V30 4776 H 440.8 -0.328578 4.14801 0
M  V30 4777 H 439.676 -0.87476 5.41885 0
M  V30 4778 H 439.937 -1.87927 4.0017 0
M  V30 4779 N 438.996 -1.55193 0.274407 0
M  V30 4780 C 439.906 -2.26164 -0.623473 0
M  V30 4781 C 440.922 -1.28729 -1.17068 0
M  V30 4782 O 442.098 -1.61663 -1.20112 0
M  V30 4783 C 439.163 -2.96833 -1.7914 0
M  V30 4784 C 438.224 -4.09745 -1.28093 0
M  V30 4785 C 437.457 -4.77034 -2.3932 0
M  V30 4786 O 437.68 -4.4353 -3.5866 0
M  V30 4787 O 436.614 -5.64996 -2.07516 0
M  V30 4788 H 440.44 -3.03661 -0.0485661 0
M  V30 4789 H 438.025 -1.49341 0.0418382 0
M  V30 4790 H 439.907 -3.41248 -2.4724 0
M  V30 4791 H 438.582 -2.22253 -2.35341 0
M  V30 4792 H 437.489 -3.69787 -0.566416 0
M  V30 4793 H 438.822 -4.86224 -0.764683 0
M  V30 4794 N 440.474 -0.00167713 -1.576 0
M  V30 4795 C 441.421 0.989195 -2.08527 0
M  V30 4796 C 442.391 1.34031 -0.981065 0
M  V30 4797 O 443.576 1.43839 -1.2536 0
M  V30 4798 C 440.716 2.27537 -2.59463 0
M  V30 4799 C 439.829 1.98314 -3.83791 0
M  V30 4800 C 438.964 3.21025 -4.23222 0
M  V30 4801 C 438.003 2.87495 -5.40382 0
M  V30 4802 N 437.14 4.02749 -5.75098 0
M  V30 4803 H 441.98 0.547973 -2.92919 0
M  V30 4804 H 439.517 0.258917 -1.44803 0
M  V30 4805 H 441.475 3.02729 -2.87073 0
M  V30 4806 H 440.105 2.69325 -1.77943 0
M  V30 4807 H 439.157 1.13482 -3.63078 0
M  V30 4808 H 440.469 1.69601 -4.69081 0
M  V30 4809 H 439.623 4.04561 -4.52123 0
M  V30 4810 H 438.362 3.52877 -3.36644 0
M  V30 4811 H 437.367 2.02367 -5.11202 0
M  V30 4812 H 438.592 2.56889 -6.28637 0
M  V30 4813 H 436.538 4.34494 -4.91478 0
M  V30 4814 H 436.455 3.77566 -6.54966 0
M  V30 4815 H 437.723 4.87068 -6.08592 0
M  V30 4816 N 441.952 1.55251 0.271103 0
M  V30 4817 C 443.199 1.75946 1.00245 0
M  V30 4818 C 443.527 0.561611 1.86215 0
M  V30 4819 O 442.782 -0.455832 1.90317 0
M  V30 4820 C 443.081 3.01879 1.91321 0
M  V30 4821 C 442.747 4.34337 1.21086 0
M  V30 4822 C 441.409 4.70338 1.01666 0
M  V30 4823 C 443.761 5.16325 0.71119 0
M  V30 4824 C 441.089 5.8588 0.310099 0
M  V30 4825 C 443.441 6.32597 0.0182157 0
M  V30 4826 C 442.105 6.67236 -0.18768 0
M  V30 4827 H 441.375 0.643833 0.366824 0
M  V30 4828 H 444.022 1.89521 0.27458 0
M  V30 4829 H 442.327 2.83212 2.70736 0
M  V30 4830 H 444.024 3.15088 2.48033 0
M  V30 4831 H 440.614 4.06043 1.37213 0
M  V30 4832 H 444.798 4.88987 0.848844 0
M  V30 4833 H 440.054 6.1124 0.139873 0
M  V30 4834 H 444.228 6.9538 -0.376711 0
M  V30 4835 H 441.855 7.56618 -0.73715 0
M  V30 4836 N 443.43 -0.535701 1.48216 0
M  V30 4837 C 444.36 -1.65014 1.65204 0
M  V30 4838 C 445.341 -1.62554 0.501011 0
M  V30 4839 O 446.526 -1.7984 0.732886 0
M  V30 4840 C 443.656 -3.03616 1.68626 0
M  V30 4841 C 442.61 -3.20932 2.83172 0
M  V30 4842 C 441.936 -4.60537 2.71679 0
M  V30 4843 C 443.236 -3.04249 4.24535 0
M  V30 4844 H 444.93 -1.51053 2.58502 0
M  V30 4845 H 442.476 -0.725262 1.24402 0
M  V30 4846 H 444.429 -3.81446 1.79099 0
M  V30 4847 H 443.153 -3.18587 0.719026 0
M  V30 4848 H 441.812 -2.45517 2.72244 0
M  V30 4849 H 441.46 -4.72336 1.72937 0
M  V30 4850 H 441.16 -4.73069 3.48538 0
M  V30 4851 H 442.684 -5.40475 2.84112 0
M  V30 4852 H 444.098 -3.71877 4.36326 0
M  V30 4853 H 442.495 -3.28278 5.02348 0
M  V30 4854 H 443.565 -2.00739 4.41397 0
M  V30 4855 N 444.908 -1.36708 -0.784132 0
M  V30 4856 C 445.818 -1.3363 -1.92822 0
M  V30 4857 C 446.834 -0.237686 -1.72369 0
M  V30 4858 O 448.01 -0.470962 -1.95816 0
M  V30 4859 C 445.075 -1.13011 -3.27764 0
M  V30 4860 C 444.136 -2.32397 -3.60957 0
M  V30 4861 C 443.369 -2.12752 -4.89461 0
M  V30 4862 O 443.592 -1.10541 -5.59586 0
M  V30 4863 O 442.526 -3.00653 -5.21432 0
M  V30 4864 H 446.352 -2.29964 -1.98369 0
M  V30 4865 H 443.937 -1.1731 -0.925136 0
M  V30 4866 H 445.819 -1.03451 -4.08504 0
M  V30 4867 H 444.494 -0.19743 -3.23097 0
M  V30 4868 H 443.401 -2.47527 -2.80502 0
M  V30 4869 H 444.734 -3.2419 -3.70354 0
M  V30 4870 N 446.386 1.0089 -1.21074 0
M  V30 4871 C 447.316 2.1145 -0.990523 0
M  V30 4872 C 448.297 1.69897 0.0831699 0
M  V30 4873 O 449.482 1.94052 -0.0758853 0
M  V30 4874 C 446.612 3.42914 -0.550177 0
M  V30 4875 C 445.566 3.98244 -1.56799 0
M  V30 4876 C 444.892 5.25568 -0.984013 0
M  V30 4877 C 446.192 4.30752 -2.95381 0
M  V30 4878 H 447.886 2.3013 -1.91521 0
M  V30 4879 H 445.432 1.10592 -0.92225 0
M  V30 4880 H 447.385 4.19653 -0.383305 0
M  V30 4881 H 446.109 3.24014 0.41015 0
M  V30 4882 H 444.768 3.23621 -1.72236 0
M  V30 4883 H 444.416 5.02998 -0.0155216 0
M  V30 4884 H 444.116 5.63551 -1.66384 0
M  V30 4885 H 445.64 6.04955 -0.828378 0
M  V30 4886 H 447.054 4.98349 -2.8341 0
M  V30 4887 H 445.451 4.79869 -3.60341 0
M  V30 4888 H 446.521 3.39192 -3.46521 0
M  V30 4889 N 447.864 1.01787 1.20321 0
M  V30 4890 C 448.812 0.58254 2.25187 0
M  V30 4891 C 449.806 -0.379359 1.65098 0
M  V30 4892 O 451.012 -0.249142 1.78267 0
M  V30 4893 H 447.387 0.170078 0.732514 0
M  V30 4894 H 449.358 1.47788 2.59232 0
M  V30 4895 C 448.107 -0.0620885 3.47645 0
M  V30 4896 H 447.43 0.669069 3.94162 0
M  V30 4897 H 448.87 -0.329784 4.22716 0
M  V30 4898 C 447.329 -1.3053 3.10586 0
M  V30 4899 O 447.859 -2.39848 3.22236 0
M  V30 4900 N 446.065 -1.18988 2.65123 0
M  V30 4901 H 445.612 -0.300341 2.55843 0
M  V30 4902 H 445.57 -2.02267 2.40698 0
M  V30 4903 N 449.342 -1.36122 0.79427 0
M  V30 4904 C 450.567 -2.03891 0.379871 0
M  V30 4905 C 450.992 -1.59488 -0.997251 0
M  V30 4906 O 450.35 -0.765652 -1.64339 0
M  V30 4907 C 450.398 -3.57687 0.457442 0
M  V30 4908 O 449.502 -4.08931 -0.5338 0
M  V30 4909 H 448.843 -0.6443 0.160541 0
M  V30 4910 H 451.373 -1.73976 1.07673 0
M  V30 4911 H 451.383 -4.06721 0.322792 0
M  V30 4912 H 450.058 -3.89357 1.46199 0
M  V30 4913 H 448.635 -3.71154 -0.360409 0
M  V30 4914 N 450.82 -0.546701 -1.47814 0
M  V30 4915 C 451.73 0.21026 -2.33656 0
M  V30 4916 C 452.746 0.922413 -1.47538 0
M  V30 4917 O 453.922 0.893652 -1.80488 0
M  V30 4918 C 450.987 1.23348 -3.24016 0
M  V30 4919 C 450.048 0.529883 -4.26017 0
M  V30 4920 C 449.281 1.50435 -5.12059 0
M  V30 4921 O 449.504 2.73837 -5.00369 0
M  V30 4922 O 448.438 1.03459 -5.92942 0
M  V30 4923 H 452.264 -0.493605 -2.99662 0
M  V30 4924 H 449.849 -0.307427 -1.46203 0
M  V30 4925 H 451.731 1.82438 -3.79861 0
M  V30 4926 H 450.406 1.91945 -2.60651 0
M  V30 4927 H 449.313 -0.101948 -3.73961 0
M  V30 4928 H 450.646 -0.11445 -4.92067 0
M  V30 4929 N 452.299 1.55045 -0.282633 0
M  V30 4930 C 453.231 2.2023 0.634924 0
M  V30 4931 C 454.244 1.18931 1.11172 0
M  V30 4932 O 455.433 1.4562 1.03233 0
M  V30 4933 C 452.533 2.82041 1.87899 0
M  V30 4934 C 451.706 4.091 1.54776 0
M  V30 4935 C 450.765 4.54887 2.64507 0
M  V30 4936 O 449.791 5.20496 2.30375 0
M  V30 4937 N 450.993 4.25659 3.94709 0
M  V30 4938 H 453.758 2.99601 0.0769811 0
M  V30 4939 H 451.319 1.61565 -0.104048 0
M  V30 4940 H 453.311 3.09613 2.60619 0
M  V30 4941 H 451.881 2.06618 2.3458 0
M  V30 4942 H 451.101 3.88736 0.654049 0
M  V30 4943 H 452.389 4.9187 1.30158 0
M  V30 4944 H 451.787 3.7306 4.25256 0
M  V30 4945 H 450.344 4.57984 4.63782 0
M  V30 4946 N 453.777 0.010035 1.57597 0
M  V30 4947 C 454.725 -0.996272 2.10184 0
M  V30 4948 C 455.719 -1.34942 1.02406 0
M  V30 4949 O 456.925 -1.33389 1.20861 0
M  V30 4950 H 453.3 -0.338982 0.671264 0
M  V30 4951 H 455.271 -0.527272 2.93705 0
M  V30 4952 C 454.02 -2.27599 2.62857 0
M  V30 4953 H 453.343 -2.01295 3.45428 0
M  V30 4954 H 454.783 -2.96265 3.0332 0
M  V30 4955 C 453.242 -2.99269 1.54725 0
M  V30 4956 O 453.772 -3.90644 0.93597 0
M  V30 4957 N 451.978 -2.61269 1.27228 0
M  V30 4958 H 451.525 -1.87043 1.77123 0
M  V30 4959 H 451.483 -3.09534 0.550999 0
M  V30 4960 N 455.255 -1.55392 -0.262866 0
M  V30 4961 C 456.205 -1.85355 -1.32768 0
M  V30 4962 C 457.189 -0.713188 -1.44231 0
M  V30 4963 O 458.381 -0.974765 -1.47741 0
M  V30 4964 C 455.51 -2.13781 -2.68612 0
M  V30 4965 C 454.596 -3.34104 -2.61219 0
M  V30 4966 N 454.987 -4.53766 -2.2345 0
M  V30 4967 C 453.285 -3.36895 -2.92263 0
M  V30 4968 C 453.986 -5.35877 -2.26298 0
M  V30 4969 N 452.962 -4.74536 -2.65172 0
M  V30 4970 H 456.764 -2.75413 -1.02591 0
M  V30 4971 H 454.278 -1.55405 -0.471503 0
M  V30 4972 H 456.275 -2.33407 -3.45437 0
M  V30 4973 H 454.935 -1.25013 -2.99669 0
M  V30 4974 H 455.946 -4.79682 -1.95258 0
M  V30 4975 H 452.623 -2.58351 -3.27965 0
M  V30 4976 H 454.013 -6.41577 -1.99572 0
M  V30 4977 N 456.733 0.527833 -1.48498 0
M  V30 4978 C 458.01 1.28905 -1.47115 0
M  V30 4979 C 458.39 2.10297 -0.184007 0
M  V30 4980 O 457.738 2.12728 0.834218 0
M  V30 4981 C 457.948 2.16866 -2.73441 0
M  V30 4982 C 459.296 2.76936 -3.21857 0
M  V30 4983 O 460.32 2.27152 -2.74373 0
M  V30 4984 O 459.179 3.67496 -4.04486 0
M  V30 4985 H 456.273 0.581918 -0.587623 0
M  V30 4986 H 458.819 0.544311 -1.60734 0
M  V30 4987 H 457.591 1.56521 -3.58632 0
M  V30 4988 H 457.214 2.98583 -2.62553 0
M  V30 4989 N 458.211 1.37122 0.776871 0
M  V30 4990 C 459.488 1.22586 1.52421 0
M  V30 4991 C 459.868 -0.182726 2.10308 0
M  V30 4992 O 459.216 -1.18979 1.9508 0
M  V30 4993 C 459.426 2.31782 2.60918 0
M  V30 4994 C 460.774 2.69071 3.2846 0
M  V30 4995 O 461.798 2.3092 2.71209 0
M  V30 4996 O 460.657 3.3478 4.31954 0
M  V30 4997 H 457.751 0.478045 0.674835 0
M  V30 4998 H 460.297 1.48888 0.814275 0
M  V30 4999 H 459.069 3.26131 2.16227 0
M  V30 5000 H 458.692 2.06916 3.39517 0
M  V30 5001 N 459.689 -1.00246 1.21608 0
M  V30 5002 C 460.919 -1.77373 1.05935 0
M  V30 5003 C 461.327 -1.85059 -0.393686 0
M  V30 5004 O 460.67 -1.31289 -1.28487 0
M  V30 5005 C 460.732 -3.22705 1.58435 0
M  V30 5006 C 460.396 -3.38591 3.06929 0
M  V30 5007 C 461.393 -3.2667 4.04454 0
M  V30 5008 C 459.078 -3.6395 3.46187 0
M  V30 5009 C 461.072 -3.39877 5.39224 0
M  V30 5010 C 458.759 -3.768 4.81108 0
M  V30 5011 C 459.757 -3.6477 5.77436 0
M  V30 5012 O 459.445 -3.77206 7.09909 0
M  V30 5013 H 459.177 -0.56419 0.372378 0
M  V30 5014 H 461.731 -1.26971 1.61454 0
M  V30 5015 H 459.961 -3.74255 0.973147 0
M  V30 5016 H 461.65 -3.81515 1.38568 0
M  V30 5017 H 462.416 -3.06999 3.75468 0
M  V30 5018 H 458.295 -3.72395 2.71741 0
M  V30 5019 H 461.839 -3.30404 6.14393 0
M  V30 5020 H 457.736 -3.95975 5.09779 0
M  V30 5021 H 458.504 -3.94138 7.17355 0
M  V30 5022 N 461.167 -1.02423 -1.1978 0
M  V30 5023 C 462.407 -0.726635 -1.91048 0
M  V30 5024 C 462.771 0.730947 -1.77542 0
M  V30 5025 O 463.972 1.14141 -2.43362 0
M  V30 5026 C 462.243 -1.15964 -3.38064 0
M  V30 5027 S 463.802 -0.985172 -4.27598 0
M  V30 5028 H 460.62 -0.264679 -0.659899 0
M  V30 5029 H 463.222 -1.31309 -1.44838 0
M  V30 5030 H 461.926 -2.21619 -3.45417 0
M  V30 5031 H 461.457 -0.566274 -3.89303 0
M  V30 5032 H 463.472 0.106946 -4.96085 0
M  V30 5033 N 462.645 1.35699 -0.801477 0
M  V30 5034 C 463.575 2.32436 -0.222658 0
M  V30 5035 C 464.556 1.5723 0.649057 0
M  V30 5036 O 465.741 1.85324 0.580387 0
M  V30 5037 C 462.871 3.41469 0.633719 0
M  V30 5038 C 461.825 4.27774 -0.139083 0
M  V30 5039 C 461.151 5.28082 0.838666 0
M  V30 5040 C 462.451 5.04946 -1.33517 0
M  V30 5041 H 464.145 2.81094 -1.03086 0
M  V30 5042 H 461.691 1.35146 -0.497155 0
M  V30 5043 H 463.644 4.08143 1.04868 0
M  V30 5044 H 462.368 2.91408 1.47475 0
M  V30 5045 H 461.027 3.62673 -0.535156 0
M  V30 5046 H 460.675 4.7429 1.67506 0
M  V30 5047 H 460.375 5.86695 0.32594 0
M  V30 5048 H 461.899 5.97628 1.25194 0
M  V30 5049 H 463.313 5.64593 -0.995349 0
M  V30 5050 H 461.71 5.7303 -1.78202 0
M  V30 5051 H 462.78 4.35886 -2.12442 0
M  V30 5052 N 464.123 0.554532 1.47522 0
M  V30 5053 C 465.086 -0.184174 2.28459 0
M  V30 5054 C 466.086 -0.845195 1.36796 0
M  V30 5055 O 467.276 -0.701467 1.59452 0
M  V30 5056 C 464.408 -1.26903 3.16399 0
M  V30 5057 H 465.601 0.526751 2.95238 0
M  V30 5058 H 463.154 0.311375 1.53167 0
M  V30 5059 H 463.889 -2.01244 2.54306 0
M  V30 5060 H 463.674 -0.799883 3.83854 0
M  V30 5061 H 465.164 -1.78794 3.77389 0
M  V30 5062 N 465.601 -1.54893 0.290851 0
M  V30 5063 C 466.831 -2.04047 -0.323818 0
M  V30 5064 C 467.239 -1.16809 -1.48837 0
M  V30 5065 O 466.582 -0.184145 -1.82775 0
M  V30 5066 C 466.644 -3.49248 -0.852395 0
M  V30 5067 C 466.308 -4.56623 0.185557 0
M  V30 5068 C 467.305 -5.09985 1.01053 0
M  V30 5069 C 464.99 -5.01252 0.324332 0
M  V30 5070 C 466.984 -6.06507 1.96031 0
M  V30 5071 C 464.671 -5.97596 1.27757 0
M  V30 5072 C 465.669 -6.50107 2.09405 0
M  V30 5073 O 465.357 -7.44565 3.03114 0
M  V30 5074 H 465.089 -0.671735 -0.0758129 0
M  V30 5075 H 467.643 -2.00947 0.425393 0
M  V30 5076 H 465.873 -3.49639 -1.65195 0
M  V30 5077 H 467.562 -3.81654 -1.38185 0
M  V30 5078 H 468.328 -4.76307 0.914129 0
M  V30 5079 H 464.207 -4.60015 -0.301213 0
M  V30 5080 H 467.751 -6.47418 2.598 0
M  V30 5081 H 463.648 -6.30691 1.37473 0
M  V30 5082 H 464.416 -7.62334 2.97976 0
M  V30 5083 N 467.08 -0.0183926 -1.57589 0
M  V30 5084 C 468.326 0.663543 -1.91638 0
M  V30 5085 C 468.659 1.72392 -0.894134 0
M  V30 5086 O 467.934 1.94316 0.0846449 0
M  V30 5087 C 468.217 1.28984 -3.36207 0
M  V30 5088 C 468.07 0.239761 -4.49161 0
M  V30 5089 C 469.389 2.2109 -3.80536 0
M  V30 5090 H 466.508 0.239746 -0.696915 0
M  V30 5091 H 469.15 -0.073456 -1.89858 0
M  V30 5092 H 467.3 1.91799 -3.37854 0
M  V30 5093 H 468.972 -0.390119 -4.59647 0
M  V30 5094 H 467.215 -0.435972 -4.31604 0
M  V30 5095 H 467.886 0.717383 -5.47319 0
M  V30 5096 H 470.362 1.68273 -3.80557 0
M  V30 5097 H 469.238 2.61869 -4.82406 0
M  V30 5098 H 469.499 3.09764 -3.15434 0
M  V30 5099 N 468.558 1.5553 0.254621 0
M  V30 5100 C 469.805 1.77 0.983736 0
M  V30 5101 C 470.133 0.58133 1.85609 0
M  V30 5102 O 469.388 -0.435621 1.9079 0
M  V30 5103 C 469.687 3.03891 1.88109 0
M  V30 5104 C 469.353 4.35597 1.16472 0
M  V30 5105 C 468.015 4.7139 0.966714 0
M  V30 5106 C 470.367 5.1705 0.656387 0
M  V30 5107 C 467.695 5.86176 0.247942 0
M  V30 5108 C 470.047 6.32581 -0.0488807 0
M  V30 5109 C 468.711 6.67 -0.258438 0
M  V30 5110 H 467.981 0.647688 0.359974 0
M  V30 5111 H 470.628 1.89802 0.254463 0
M  V30 5112 H 468.933 2.86068 2.67717 0
M  V30 5113 H 470.63 3.17701 2.44677 0
M  V30 5114 H 467.22 4.07475 1.32899 0
M  V30 5115 H 471.404 4.8986 0.796933 0
M  V30 5116 H 466.66 6.11354 0.075035 0
M  V30 5117 H 470.834 6.94942 -0.450444 0
M  V30 5118 H 468.461 7.55793 -0.817358 0
M  V30 5119 N 470.036 -0.519951 1.48776 0
M  V30 5120 C 471.264 -1.29971 1.60982 0
M  V30 5121 C 471.679 -1.86803 0.273885 0
M  V30 5122 O 471.036 -1.66904 -0.738193 0
M  V30 5123 C 471.087 -2.44346 2.66415 0
M  V30 5124 O 470.808 -1.89855 3.94825 0
M  V30 5125 C 472.309 -3.36014 2.89153 0
M  V30 5126 H 469.529 -0.394891 0.542496 0
M  V30 5127 H 472.073 -0.626214 1.94676 0
M  V30 5128 H 470.228 -3.07562 2.35552 0
M  V30 5129 H 470.642 -2.64798 4.5275 0
M  V30 5130 H 472.116 -4.12593 3.66703 0
M  V30 5131 H 472.593 -3.91859 1.98351 0
M  V30 5132 H 473.199 -2.78582 3.21359 0
M  V30 5133 N 471.514 -1.37532 -0.769588 0
M  V30 5134 C 472.791 -1.23392 -1.51768 0
M  V30 5135 C 473.171 0.17157 -2.10402 0
M  V30 5136 O 472.519 1.17943 -1.95708 0
M  V30 5137 C 472.729 -2.33163 -2.59685 0
M  V30 5138 C 474.077 -2.70809 -3.27028 0
M  V30 5139 O 475.101 -2.32355 -2.69981 0
M  V30 5140 O 473.96 -3.37066 -4.30173 0
M  V30 5141 H 471.054 -0.481617 -0.67229 0
M  V30 5142 H 473.6 -1.49318 -0.806368 0
M  V30 5143 H 472.372 -3.27273 -2.14494 0
M  V30 5144 H 471.995 -2.08713 -3.38415 0
M  V30 5145 N 472.992 0.995999 -1.22138 0
M  V30 5146 C 474.408 1.25917 -0.980667 0
M  V30 5147 C 474.608 1.98819 0.327604 0
M  V30 5148 O 473.664 2.29587 1.05101 0
M  V30 5149 C 474.977 2.07399 -2.17729 0
M  V30 5150 C 476.525 2.20594 -2.22052 0
M  V30 5151 C 477 3.05462 -3.41258 0
M  V30 5152 N 478.491 3.13049 -3.41401 0
M  V30 5153 C 479.226 3.78997 -4.30289 0
M  V30 5154 N 478.722 4.46899 -5.2939 0
M  V30 5155 N 480.515 3.75728 -4.18073 0
M  V30 5156 H 472.666 0.507158 -2.06256 0
M  V30 5157 H 474.929 0.28658 -0.903646 0
M  V30 5158 H 474.635 1.61191 -3.12586 0
M  V30 5159 H 474.509 3.08154 -2.17534 0
M  V30 5160 H 476.896 2.66017 -1.27745 0
M  V30 5161 H 476.977 1.1928 -2.26287 0
M  V30 5162 H 476.621 2.60739 -4.35864 0
M  V30 5163 H 476.551 4.06911 -3.34262 0
M  V30 5164 H 479.042 2.64721 -2.69688 0
M  V30 5165 H 479.355 4.94952 -5.935 0
M  V30 5166 H 477.7 4.45657 -5.33306 0
M  V30 5167 H 480.891 3.2184 -3.39907 0
M  V30 5168 H 481.064 4.26845 -4.87553 0
M  V30 5169 N 474.47 1.03057 1.19235 0
M  V30 5170 C 475.747 0.642608 1.84743 0
M  V30 5171 C 476.127 -0.878577 1.91948 0
M  V30 5172 O 475.475 -1.77597 1.43776 0
M  V30 5173 C 475.685 1.30665 3.23616 0
M  V30 5174 C 477.033 1.43098 3.9976 0
M  V30 5175 O 478.057 1.26396 3.3302 0
M  V30 5176 O 476.916 1.70223 5.19313 0
M  V30 5177 H 474.01 0.223573 0.796206 0
M  V30 5178 H 476.556 1.12883 1.26711 0
M  V30 5179 H 475.328 2.34544 3.13217 0
M  V30 5180 H 474.951 0.808405 3.89295 0
M  V30 5181 N 475.948 -1.35272 0.808662 0
M  V30 5182 C 477.195 -1.98709 0.390003 0
M  V30 5183 C 477.523 -1.64148 -1.04335 0
M  V30 5184 O 476.778 -0.897797 -1.73891 0
M  V30 5185 C 477.077 -3.53556 0.522798 0
M  V30 5186 C 476.743 -4.0799 1.91977 0
M  V30 5187 C 475.405 -4.22568 2.30195 0
M  V30 5188 C 477.757 -4.37442 2.83361 0
M  V30 5189 C 475.085 -4.63918 3.59162 0
M  V30 5190 C 477.437 -4.80232 4.11776 0
M  V30 5191 C 476.101 -4.93016 4.49991 0
M  V30 5192 H 475.371 -0.727127 0.142712 0
M  V30 5193 H 478.018 -1.6145 1.02985 0
M  V30 5194 H 476.323 -3.91287 -0.200494 0
M  V30 5195 H 478.02 -4.00598 0.179608 0
M  V30 5196 H 474.61 -3.97096 1.61284 0
M  V30 5197 H 478.794 -4.25731 2.55083 0
M  V30 5198 H 474.05 -4.72005 3.88615 0
M  V30 5199 H 478.224 -5.01982 4.82687 0
M  V30 5200 H 475.851 -5.24814 5.49976 0
M  V30 5201 N 477.426 -0.562348 -1.47226 0
M  V30 5202 C 478.703 0.0256985 -1.95583 0
M  V30 5203 C 479.083 1.48032 -1.50498 0
M  V30 5204 O 478.431 2.15973 -0.746181 0
M  V30 5205 C 478.641 -0.125129 -3.48776 0
M  V30 5206 C 479.989 0.0175728 -4.24596 0
M  V30 5207 O 481.013 -0.0529341 -3.56161 0
M  V30 5208 O 479.872 0.170145 -5.46235 0
M  V30 5209 H 476.966 0.0612565 -0.824728 0
M  V30 5210 H 479.512 -0.629233 -1.57603 0
M  V30 5211 H 478.284 -1.13715 -3.74412 0
M  V30 5212 H 477.907 0.567178 -3.93534 0
M  V30 5213 N 478.904 1.54736 -0.299062 0
M  V30 5214 C 480.181 1.92187 0.363802 0
M  V30 5215 C 480.561 1.22607 1.71845 0
M  V30 5216 O 479.909 0.361141 2.25628 0
M  V30 5217 C 480.119 3.45678 0.480377 0
M  V30 5218 C 481.467 4.17885 0.752147 0
M  V30 5219 O 482.491 3.51702 0.564264 0
M  V30 5220 O 481.35 5.35048 1.11294 0
M  V30 5221 H 478.444 0.801681 0.203066 0
M  V30 5222 H 480.99 1.66115 -0.346978 0
M  V30 5223 H 479.762 3.88443 -0.471999 0
M  V30 5224 H 479.385 3.77779 1.2397 0
M  V30 5225 N 480.382 0.0267497 1.57577 0
M  V30 5226 C 481.63 -0.651116 1.91324 0
M  V30 5227 C 481.951 -1.72804 0.90353 0
M  V30 5228 O 481.221 -1.95822 -0.0552946 0
M  V30 5229 H 479.801 -0.243491 0.706202 0
M  V30 5230 H 482.463 0.0739935 1.94759 0
M  V30 5231 H 481.559 -1.10536 2.9187 0
M  V30 5232 N 481.861 -1.55662 -0.24637 0
M  V30 5233 C 483.107 -1.77782 -0.975779 0
M  V30 5234 C 483.44 -0.592103 -1.84953 0
M  V30 5235 O 482.715 0.409588 -1.90138 0
M  V30 5236 C 482.998 -3.09788 -1.83584 0
M  V30 5237 C 482.851 -4.38764 -0.990241 0
M  V30 5238 C 484.17 -3.38029 -2.81823 0
M  V30 5239 H 481.289 -0.646789 -0.353317 0
M  V30 5240 H 483.931 -1.88398 -0.246248 0
M  V30 5241 H 482.081 -3.00869 -2.45784 0
M  V30 5242 H 483.753 -4.59675 -0.386897 0
M  V30 5243 H 481.996 -4.32798 -0.294626 0
M  V30 5244 H 482.667 -5.27514 -1.62584 0
M  V30 5245 H 485.143 -3.46915 -2.2976 0
M  V30 5246 H 484.019 -4.3161 -3.39122 0
M  V30 5247 H 484.28 -2.58968 -3.58313 0
M  V30 5248 N 483.339 0.512053 -1.4905 0
M  V30 5249 C 484.269 1.62365 -1.67809 0
M  V30 5250 C 485.25 1.61737 -0.526809 0
M  V30 5251 O 486.435 1.78651 -0.761404 0
M  V30 5252 C 483.565 3.00895 -1.73435 0
M  V30 5253 C 482.519 3.16387 -2.88242 0
M  V30 5254 C 481.845 4.56157 -2.78971 0
M  V30 5255 C 483.145 2.97457 -4.29321 0
M  V30 5256 H 484.839 1.46921 -2.60873 0
M  V30 5257 H 482.385 0.705379 -1.2554 0
M  V30 5258 H 484.338 3.78549 -1.85145 0
M  V30 5259 H 483.062 3.17403 -0.769619 0
M  V30 5260 H 481.721 2.41155 -2.76116 0
M  V30 5261 H 481.369 4.69525 -1.8043 0
M  V30 5262 H 481.069 4.67465 -3.5602 0
M  V30 5263 H 482.593 5.35886 -2.92675 0
M  V30 5264 H 484.007 3.64888 -4.42187 0
M  V30 5265 H 482.404 3.20245 -5.07507 0
M  V30 5266 H 483.474 1.93692 -4.44535 0
M  V30 5267 N 484.817 1.37938 0.762283 0
M  V30 5268 C 486.065 1.33404 1.51815 0
M  V30 5269 C 486.386 -0.0780975 1.94844 0
M  V30 5270 O 485.656 -1.02405 1.67003 0
M  V30 5271 H 484.236 0.490839 0.563104 0
M  V30 5272 H 486.898 1.72527 0.906669 0
M  V30 5273 H 485.994 1.97926 2.41313 0
M  V30 5274 N 486.295 -0.989507 1.22664 0
M  V30 5275 C 487.225 -2.09847 1.02404 0
M  V30 5276 C 488.206 -1.70007 -0.0561303 0
M  V30 5277 O 489.391 -1.93906 0.106748 0
M  V30 5278 C 486.521 -3.41996 0.604663 0
M  V30 5279 C 485.475 -3.95699 1.63115 0
M  V30 5280 C 484.801 -5.23936 1.0675 0
M  V30 5281 C 486.101 -4.25999 3.02196 0
M  V30 5282 H 487.795 -2.27054 1.95158 0
M  V30 5283 H 485.341 -1.09111 0.939727 0
M  V30 5284 H 487.294 -4.1899 0.45002 0
M  V30 5285 H 486.018 -3.24626 -0.35855 0
M  V30 5286 H 484.677 -3.2084 1.77362 0
M  V30 5287 H 484.325 -5.02909 0.0955422 0
M  V30 5288 H 484.025 -5.60833 1.75328 0
M  V30 5289 H 485.549 -6.0356 0.924516 0
M  V30 5290 H 486.963 -4.93777 2.91303 0
M  V30 5291 H 485.36 -4.74076 3.67929 0
M  V30 5292 H 486.43 -3.33636 3.51873 0
M  V30 5293 N 487.773 -1.03688 -1.18687 0
M  V30 5294 C 488.736 -0.629115 -2.20397 0
M  V30 5295 C 489.736 0.311495 -1.57754 0
M  V30 5296 O 490.926 0.0974107 -1.73927 0
M  V30 5297 C 488.058 0.0782231 -3.4081 0
M  V30 5298 H 489.251 -1.52915 -2.57987 0
M  V30 5299 H 486.804 -0.828988 -1.32505 0
M  V30 5300 H 487.539 0.992233 -3.08748 0
M  V30 5301 H 487.324 -0.597776 -3.87517 0
M  V30 5302 H 488.814 0.350156 -4.16129 0
M  V30 5303 N 489.251 1.34841 -0.815825 0
M  V30 5304 C 490.497 1.99219 -0.410288 0
M  V30 5305 C 490.852 1.63532 1.01366 0
M  V30 5306 O 490.145 0.893093 1.69512 0
M  V30 5307 C 490.339 3.53273 -0.541541 0
M  V30 5308 C 490.168 4.03927 -1.9767 0
M  V30 5309 C 488.938 4.32852 -2.60706 0
M  V30 5310 C 491.136 4.21808 -2.9425 0
M  V30 5311 N 489.118 4.69494 -3.95536 0
M  V30 5312 C 490.489 4.6155 -4.13971 0
M  V30 5313 C 492.544 4.04038 -2.9096 0
M  V30 5314 C 491.247 4.85381 -5.30847 0
M  V30 5315 C 493.273 4.29031 -4.07046 0
M  V30 5316 C 492.635 4.69054 -5.25517 0
M  V30 5317 H 488.734 0.756494 -0.198094 0
M  V30 5318 H 491.318 1.63379 -1.05902 0
M  V30 5319 H 489.489 3.88323 0.0772544 0
M  V30 5320 H 491.221 4.04551 -0.109694 0
M  V30 5321 H 487.976 4.23503 -2.11995 0
M  V30 5322 H 488.4 4.92061 -4.64979 0
M  V30 5323 H 493.042 3.7223 -2.00512 0
M  V30 5324 H 490.76 5.16059 -6.21859 0
M  V30 5325 H 494.346 4.16826 -4.05891 0
M  V30 5326 H 493.226 4.88014 -6.1385 0
M  V30 5327 N 490.729 0.570148 1.46925 0
M  V30 5328 C 491.975 0.0510284 2.02736 0
M  V30 5329 C 492.308 -1.3006 1.44215 0
M  V30 5330 O 491.583 -1.84932 0.602521 0
M  V30 5331 C 491.866 -0.028215 3.60089 0
M  V30 5332 C 491.719 1.35142 4.29018 0
M  V30 5333 C 493.038 -0.735181 4.33916 0
M  V30 5334 H 490.157 0.0200178 0.736728 0
M  V30 5335 H 492.799 0.73493 1.75211 0
M  V30 5336 H 490.949 -0.610648 3.83671 0
M  V30 5337 H 492.621 1.97806 4.16738 0
M  V30 5338 H 490.864 1.9226 3.88868 0
M  V30 5339 H 491.535 1.24857 5.37694 0
M  V30 5340 H 494.011 -0.240519 4.15404 0
M  V30 5341 H 492.887 -0.759622 5.43618 0
M  V30 5342 H 493.148 -1.79397 4.04066 0
M  V30 5343 N 492.207 -1.54576 0.307264 0
M  V30 5344 C 493.455 -1.99867 -0.299574 0
M  V30 5345 C 493.776 -1.19714 -1.53927 0
M  V30 5346 O 493.046 -0.29472 -1.9367 0
M  V30 5347 H 491.626 -0.738299 -0.113683 0
M  V30 5348 H 494.288 -1.9032 0.420042 0
M  V30 5349 H 493.384 -3.06901 -0.567283 0
M  V30 5350 N 493.685 -0.035106 -1.57561 0
M  V30 5351 C 494.648 0.929819 -2.09492 0
M  V30 5352 C 495.648 1.25026 -1.01119 0
M  V30 5353 O 496.838 1.18961 -1.27255 0
M  V30 5354 C 493.97 2.24457 -2.56577 0
M  V30 5355 H 495.163 0.479935 -2.96035 0
M  V30 5356 H 492.716 0.213033 -1.54841 0
M  V30 5357 H 493.451 2.74061 -1.73382 0
M  V30 5358 H 493.236 2.02508 -3.35757 0
M  V30 5359 H 494.726 2.93607 -2.96959 0
M  V30 5360 N 495.163 1.55791 0.238111 0
M  V30 5361 C 496.574 1.68383 0.806472 0
M  V30 5362 C 496.925 0.634157 1.85669 0
M  V30 5363 O 496.05 -0.217913 2.153 0
M  V30 5364 C 496.645 3.05268 1.46959 0
M  V30 5365 C 495.204 3.1977 1.98555 0
M  V30 5366 C 494.351 2.64279 0.839763 0
M  V30 5367 H 497.302 1.58694 0.0137535 0
M  V30 5368 H 497.323 3.00203 2.33792 0
M  V30 5369 H 496.835 3.81643 0.704993 0
M  V30 5370 H 494.936 2.48234 2.77868 0
M  V30 5371 H 495.049 4.26788 2.17689 0
M  V30 5372 H 493.413 2.22329 1.24265 0
M  V30 5373 H 494.196 3.43187 0.0881032 0
M  V30 5374 N 496.642 -0.504142 1.49319 0
M  V30 5375 C 497.867 -1.28729 1.62615 0
M  V30 5376 C 498.292 -1.85752 0.296309 0
M  V30 5377 O 497.65 -1.65704 -0.735649 0
M  V30 5378 C 497.698 -2.39561 2.69524 0
M  V30 5379 O 496.802 -3.43324 2.28478 0
M  V30 5380 H 496.143 -0.380172 0.544395 0
M  V30 5381 H 498.673 -0.603872 1.95485 0
M  V30 5382 H 498.683 -2.8537 2.91595 0
M  V30 5383 H 497.358 -1.97423 3.66056 0
M  V30 5384 H 495.935 -3.03455 2.16725 0
M  V30 5385 N 498.12 -1.38341 -0.754957 0
M  V30 5386 C 499.368 -1.34208 -1.51105 0
M  V30 5387 C 499.689 0.0677634 -1.94882 0
M  V30 5388 O 498.959 1.01517 -1.67544 0
M  V30 5389 H 497.539 -0.493819 -0.560493 0
M  V30 5390 H 500.201 -1.73005 -0.897507 0
M  V30 5391 H 499.297 -1.99203 -2.4026 0
M  V30 5392 N 499.598 0.982988 -1.23187 0
M  V30 5393 C 500.823 1.76455 -1.08988 0
M  V30 5394 C 501.248 1.84726 0.354691 0
M  V30 5395 O 500.606 1.30699 1.25649 0
M  V30 5396 C 500.654 3.17094 -1.71708 0
M  V30 5397 O 499.758 4.00648 -0.977477 0
M  V30 5398 H 499.099 0.542988 -0.382177 0
M  V30 5399 H 501.629 1.23413 -1.63188 0
M  V30 5400 H 501.639 3.67684 -1.76841 0
M  V30 5401 H 500.314 3.10389 -2.76823 0
M  V30 5402 H 498.891 3.59161 -1.0029 0
M  V30 5403 N 501.076 1.04316 1.18135 0
M  V30 5404 C 502.301 0.768047 1.92655 0
M  V30 5405 C 502.726 -0.66904 1.758 0
M  V30 5406 O 502.084 -1.46372 1.06981 0
M  V30 5407 C 502.132 1.14239 3.42026 0
M  V30 5408 O 501.236 0.269333 4.1152 0
M  V30 5409 H 500.577 0.282436 0.600937 0
M  V30 5410 H 503.107 1.39367 1.49793 0
M  V30 5411 H 503.117 1.10538 3.92741 0
M  V30 5412 H 501.792 2.18928 3.53615 0
M  V30 5413 H 500.369 0.366175 3.71098 0
M  V30 5414 N 502.554 -1.34406 0.822964 0
M  V30 5415 C 503.802 -1.97892 0.410245 0
M  V30 5416 C 504.123 -1.65567 -1.03017 0
M  V30 5417 O 503.393 -0.94642 -1.71522 0
M  V30 5418 H 501.973 -0.732049 0.148707 0
M  V30 5419 H 504.635 -1.64043 1.05242 0
M  V30 5420 H 503.731 -3.07579 0.529284 0
M  V30 5421 N 504.032 -0.577932 -1.46621 0
M  V30 5422 C 505.28 -0.061566 -2.02006 0
M  V30 5423 C 505.601 1.30117 -1.4524 0
M  V30 5424 O 504.871 1.85313 -0.63529 0
M  V30 5425 H 503.451 -0.0197692 -0.746738 0
M  V30 5426 H 506.113 -0.752631 -1.79782 0
M  V30 5427 H 505.209 0.0110238 -3.12098 0
M  V30 5428 N 505.51 1.54411 -0.315457 0
M  V30 5429 C 506.759 1.99599 0.290395 0
M  V30 5430 C 507.072 1.20746 1.53882 0
M  V30 5431 O 508.278 1.56272 2.22017 0
M  V30 5432 C 506.734 3.5539 0.56797 0
M  V30 5433 C 506.342 4.43068 -0.662945 0
M  V30 5434 C 508.086 4.09067 1.13422 0
M  V30 5435 C 505.993 5.90317 -0.357722 0
M  V30 5436 H 504.923 0.745592 0.112286 0
M  V30 5437 H 507.574 1.78477 -0.426418 0
M  V30 5438 H 505.956 3.72468 1.34476 0
M  V30 5439 H 507.13 4.37765 -1.43869 0
M  V30 5440 H 505.445 4.00238 -1.14884 0
M  V30 5441 H 508.042 5.16663 1.37707 0
M  V30 5442 H 508.385 3.60552 2.08106 0
M  V30 5443 H 508.918 3.95589 0.418805 0
M  V30 5444 H 505.657 6.4301 -1.27351 0
M  V30 5445 H 505.177 5.98592 0.380472 0
M  V30 5446 H 506.856 6.4699 0.0354284 0
M  V30 5447 N 506.988 0.0434614 1.5754 0
M  V30 5448 C 508.228 -0.636023 1.94253 0
M  V30 5449 C 508.592 -1.68461 0.921132 0
M  V30 5450 O 509.793 -2.41762 1.17494 0
M  V30 5451 C 508.064 -1.22357 3.35803 0
M  V30 5452 S 509.623 -1.92213 3.94461 0
M  V30 5453 H 506.441 -0.209041 0.679575 0
M  V30 5454 H 509.043 0.110556 1.95187 0
M  V30 5455 H 507.747 -0.448162 4.07946 0
M  V30 5456 H 507.278 -2.00713 3.38346 0
M  V30 5457 H 509.293 -3.20199 3.79061 0
M  V30 5458 N 508.466 -1.55915 -0.229846 0
M  V30 5459 C 509.376 -1.94891 -1.30593 0
M  V30 5460 C 510.392 -0.851604 -1.51736 0
M  V30 5461 O 511.568 -1.15447 -1.65027 0
M  V30 5462 C 508.633 -2.25052 -2.63728 0
M  V30 5463 C 507.694 -3.48306 -2.5096 0
M  V30 5464 C 506.927 -3.77019 -3.77747 0
M  V30 5465 O 507.15 -3.07534 -4.80395 0
M  V30 5466 O 506.084 -4.70523 -3.75356 0
M  V30 5467 H 509.91 -2.86581 -1.00525 0
M  V30 5468 H 507.495 -1.43017 -0.432025 0
M  V30 5469 H 509.377 -2.45682 -3.42372 0
M  V30 5470 H 508.052 -1.36538 -2.93495 0
M  V30 5471 H 506.959 -3.32964 -1.70546 0
M  V30 5472 H 508.292 -4.37177 -2.26136 0
M  V30 5473 N 509.944 0.496216 -1.49584 0
M  V30 5474 C 510.891 1.59722 -1.66606 0
M  V30 5475 C 511.861 1.58158 -0.507477 0
M  V30 5476 O 513.046 1.76072 -0.735076 0
M  V30 5477 C 510.186 2.97844 -1.74308 0
M  V30 5478 C 509.299 3.09388 -3.01502 0
M  V30 5479 C 508.434 4.38271 -3.00153 0
M  V30 5480 C 507.473 4.43466 -4.21906 0
M  V30 5481 N 506.61 5.63784 -4.1844 0
M  V30 5482 H 511.45 1.44515 -2.60613 0
M  V30 5483 H 508.987 0.703048 -1.29212 0
M  V30 5484 H 510.945 3.77907 -1.76754 0
M  V30 5485 H 509.575 3.11743 -0.837619 0
M  V30 5486 H 508.627 2.22357 -3.08645 0
M  V30 5487 H 509.939 3.09085 -3.91494 0
M  V30 5488 H 509.093 5.2666 -3.01188 0
M  V30 5489 H 507.832 4.41146 -2.07947 0
M  V30 5490 H 506.837 3.53478 -4.21109 0
M  V30 5491 H 508.062 4.42303 -5.1531 0
M  V30 5492 H 506.008 5.67491 -3.29074 0
M  V30 5493 H 505.925 5.65118 -5.02173 0
M  V30 5494 H 507.193 6.54367 -4.23585 0
M  V30 5495 N 511.423 1.38739 0.74761 0
M  V30 5496 C 512.648 1.38702 1.54197 0
M  V30 5497 C 513.073 -0.019664 1.8809 0
M  V30 5498 O 512.431 -1.00333 1.51006 0
M  V30 5499 C 512.479 2.25492 2.814 0
M  V30 5500 O 511.583 1.67613 3.76802 0
M  V30 5501 H 510.924 0.472863 0.466151 0
M  V30 5502 H 513.454 1.82577 0.923413 0
M  V30 5503 H 513.464 2.39561 3.30264 0
M  V30 5504 H 512.139 3.27727 2.56062 0
M  V30 5505 H 510.716 1.62718 3.35526 0
M  V30 5506 N 512.901 -0.976442 1.23707 0
M  V30 5507 C 513.848 -2.06952 1.02174 0
M  V30 5508 C 514.818 -1.65984 -0.0621034 0
M  V30 5509 O 516.003 -1.90584 0.0907906 0
M  V30 5510 C 513.143 -3.39425 0.62327 0
M  V30 5511 C 512.256 -3.9364 1.77966 0
M  V30 5512 C 511.391 -5.14343 1.3276 0
M  V30 5513 C 510.43 -5.60733 2.45449 0
M  V30 5514 N 509.567 -6.72662 2.01172 0
M  V30 5515 H 514.407 -2.24704 1.95734 0
M  V30 5516 H 511.944 -1.10143 0.975034 0
M  V30 5517 H 513.902 -4.15526 0.37332 0
M  V30 5518 H 512.532 -3.21624 -0.275329 0
M  V30 5519 H 511.584 -3.14258 2.14351 0
M  V30 5520 H 512.896 -4.24035 2.62671 0
M  V30 5521 H 512.05 -5.97789 1.03601 0
M  V30 5522 H 510.789 -4.8561 0.450975 0
M  V30 5523 H 509.794 -4.75865 2.75378 0
M  V30 5524 H 511.019 -5.91483 3.33654 0
M  V30 5525 H 508.965 -6.45681 1.15895 0
M  V30 5526 H 508.882 -7.02462 2.79434 0
M  V30 5527 H 510.15 -7.59572 1.75129 0
M  V30 5528 N 514.379 -1.04941 -1.1758 0
M  V30 5529 C 515.309 -0.669172 -2.23706 0
M  V30 5530 C 516.29 0.331835 -1.66832 0
M  V30 5531 O 517.475 0.209988 -1.93061 0
M  V30 5532 C 514.605 -0.0404889 -3.47276 0
M  V30 5533 C 513.559 -0.965983 -4.16957 0
M  V30 5534 C 512.885 -0.201312 -5.34321 0
M  V30 5535 C 514.185 -2.28902 -4.69469 0
M  V30 5536 H 515.879 -1.55639 -2.55767 0
M  V30 5537 H 513.425 -0.749793 -1.22939 0
M  V30 5538 H 515.378 0.237298 -4.20731 0
M  V30 5539 H 514.102 0.881658 -3.14475 0
M  V30 5540 H 512.761 -1.22829 -3.45411 0
M  V30 5541 H 512.409 0.723519 -4.97769 0
M  V30 5542 H 512.109 -0.817968 -5.81879 0
M  V30 5543 H 513.633 0.0692499 -6.10561 0
M  V30 5544 H 515.047 -2.07132 -5.34574 0
M  V30 5545 H 513.444 -2.85942 -5.27596 0
M  V30 5546 H 514.514 -2.92937 -3.86414 0
M  V30 5547 N 515.857 1.33968 -0.830081 0
M  V30 5548 C 517.087 2.01987 -0.434142 0
M  V30 5549 C 517.495 1.62639 0.96671 0
M  V30 5550 O 516.838 0.831151 1.63822 0
M  V30 5551 C 516.9 3.5648 -0.465018 0
M  V30 5552 C 516.564 4.19176 -1.82045 0
M  V30 5553 C 517.561 4.39181 -2.78237 0
M  V30 5554 C 515.246 4.55792 -2.11089 0
M  V30 5555 C 517.24 4.94937 -4.01642 0
M  V30 5556 C 514.927 5.11258 -3.34752 0
M  V30 5557 C 515.925 5.30775 -4.29845 0
M  V30 5558 O 515.613 5.85064 -5.51322 0
M  V30 5559 H 515.345 0.653847 -0.171639 0
M  V30 5560 H 517.899 1.72066 -1.12171 0
M  V30 5561 H 516.129 3.8569 0.279284 0
M  V30 5562 H 517.818 4.05804 -0.0881334 0
M  V30 5563 H 518.584 4.11249 -2.57097 0
M  V30 5564 H 514.463 4.39901 -1.3787 0
M  V30 5565 H 518.007 5.10086 -4.75876 0
M  V30 5566 H 513.904 5.38619 -3.55753 0
M  V30 5567 H 514.672 6.03489 -5.5294 0
M  V30 5568 N 517.335 0.585699 1.46312 0
M  V30 5569 C 518.56 0.0762461 2.0726 0
M  V30 5570 C 518.985 -1.22071 1.43109 0
M  V30 5571 O 518.343 -1.73804 0.515942 0
M  V30 5572 C 518.391 -0.0729404 3.60526 0
M  V30 5573 O 517.495 -1.1287 3.96654 0
M  V30 5574 H 516.836 0.0641558 0.660893 0
M  V30 5575 H 519.366 0.809492 1.87905 0
M  V30 5576 H 519.376 -0.278158 4.07051 0
M  V30 5577 H 518.051 0.874188 4.06609 0
M  V30 5578 H 516.628 -0.901703 3.61834 0
M  V30 5579 N 518.813 -1.54241 0.323641 0
M  V30 5580 C 520.09 -1.92741 -0.333181 0
M  V30 5581 C 520.47 -1.25326 -1.69872 0
M  V30 5582 O 519.818 -0.396991 -2.25025 0
M  V30 5583 C 520.028 -3.46399 -0.425322 0
M  V30 5584 C 521.376 -4.19029 -0.68557 0
M  V30 5585 O 522.4 -3.52555 -0.50824 0
M  V30 5586 O 521.259 -5.36751 -1.02767 0
M  V30 5587 H 518.353 -0.804811 -0.190286 0
M  V30 5588 H 520.899 -1.65542 0.373361 0
M  V30 5589 H 519.671 -3.87643 0.533737 0
M  V30 5590 H 519.294 -3.79704 -1.17944 0
M  V30 5591 N 520.291 -0.0518155 -1.57515 0
M  V30 5592 C 521.539 0.620595 -1.92336 0
M  V30 5593 C 521.86 1.71345 -0.930907 0
M  V30 5594 O 521.13 1.95885 0.0241341 0
M  V30 5595 H 519.71 0.232226 -0.709986 0
M  V30 5596 H 522.372 -0.104969 -1.94617 0
M  V30 5597 H 521.468 1.05879 -2.93592 0
M  V30 5598 N 521.769 1.56035 0.221574 0
M  V30 5599 C 522.716 1.92413 1.27459 0
M  V30 5600 C 523.686 0.781323 1.46576 0
M  V30 5601 O 524.871 1.03721 1.60145 0
M  V30 5602 C 522.011 2.24617 2.61995 0
M  V30 5603 C 521.124 3.51831 2.50677 0
M  V30 5604 C 520.259 3.73482 3.77736 0
M  V30 5605 C 519.298 4.94211 3.6114 0
M  V30 5606 N 518.435 5.12252 4.80148 0
M  V30 5607 H 523.275 2.82203 0.957355 0
M  V30 5608 H 520.812 1.39676 0.461415 0
M  V30 5609 H 522.77 2.41298 3.40339 0
M  V30 5610 H 521.4 1.38 2.91815 0
M  V30 5611 H 520.452 3.43343 1.63767 0
M  V30 5612 H 521.764 4.40328 2.34334 0
M  V30 5613 H 520.918 3.9026 4.64523 0
M  V30 5614 H 519.657 2.83266 3.97003 0
M  V30 5615 H 518.662 4.77384 2.72736 0
M  V30 5616 H 519.887 5.85912 3.43343 0
M  V30 5617 H 517.833 4.24978 4.99729 0
M  V30 5618 H 517.75 5.94881 4.66532 0
M  V30 5619 H 519.018 5.33465 5.68362 0
M  V30 5620 N 523.247 -0.488276 1.49845 0
M  V30 5621 C 524.194 -1.58836 1.67451 0
M  V30 5622 C 525.164 -1.57886 0.515857 0
M  V30 5623 O 526.349 -1.75679 0.744403 0
M  V30 5624 C 523.489 -2.96915 1.75885 0
M  V30 5625 C 522.602 -3.07784 3.03138 0
M  V30 5626 C 521.737 -4.36673 3.02473 0
M  V30 5627 C 520.776 -4.41222 4.24252 0
M  V30 5628 N 519.913 -5.61557 4.21424 0
M  V30 5629 H 524.753 -1.43131 2.61376 0
M  V30 5630 H 522.29 -0.696186 1.29583 0
M  V30 5631 H 524.248 -3.76965 1.78755 0
M  V30 5632 H 522.878 -3.11295 0.85414 0
M  V30 5633 H 521.93 -2.20717 3.09819 0
M  V30 5634 H 523.242 -3.07005 3.93128 0
M  V30 5635 H 522.396 -5.25055 3.03977 0
M  V30 5636 H 521.135 -4.40037 2.10283 0
M  V30 5637 H 520.14 -3.5124 4.22978 0
M  V30 5638 H 521.365 -4.39564 5.17649 0
M  V30 5639 H 519.311 -5.65738 3.32078 0
M  V30 5640 H 519.228 -5.62447 5.05163 0
M  V30 5641 H 520.496 -6.52111 4.2705 0
M  V30 5642 N 524.725 -1.39134 -0.740242 0
M  V30 5643 C 525.672 -1.37434 -1.8542 0
M  V30 5644 C 526.642 -0.234822 -1.64432 0
M  V30 5645 O 527.827 -0.429125 -1.85912 0
M  V30 5646 C 524.967 -1.21844 -3.22875 0
M  V30 5647 C 524.08 -2.45296 -3.55603 0
M  V30 5648 C 523.215 -2.22334 -4.82432 0
M  V30 5649 C 522.254 -3.41488 -5.07988 0
M  V30 5650 N 521.391 -3.17877 -6.26018 0
M  V30 5651 H 526.231 -2.3266 -1.86207 0
M  V30 5652 H 523.768 -1.15578 -0.909946 0
M  V30 5653 H 525.726 -1.10818 -4.02213 0
M  V30 5654 H 524.356 -0.3025 -3.21379 0
M  V30 5655 H 523.408 -2.66945 -2.71006 0
M  V30 5656 H 524.72 -3.34063 -3.7041 0
M  V30 5657 H 523.874 -2.0852 -5.69741 0
M  V30 5658 H 522.613 -1.30954 -4.6979 0
M  V30 5659 H 521.618 -3.55807 -4.19144 0
M  V30 5660 H 522.843 -4.33763 -5.22519 0
M  V30 5661 H 520.789 -2.29156 -6.14673 0
M  V30 5662 H 520.706 -4.00198 -6.41387 0
M  V30 5663 H 521.974 -3.07746 -7.16179 0
M  V30 5664 N 526.204 0.969867 -1.24223 0
M  V30 5665 C 527.429 1.75289 -1.10853 0
M  V30 5666 C 527.854 1.85091 0.335079 0
M  V30 5667 O 527.212 1.32024 1.24255 0
M  V30 5668 C 527.26 3.15255 -1.75062 0
M  V30 5669 O 526.364 3.99589 -1.01992 0
M  V30 5670 H 525.705 0.538904 -0.387915 0
M  V30 5671 H 528.235 1.21675 -1.64488 0
M  V30 5672 H 528.245 3.65787 -1.80731 0
M  V30 5673 H 526.92 3.07436 -2.801 0
M  V30 5674 H 525.497 3.58077 -1.04094 0
M  V30 5675 N 527.682 1.05563 1.17022 0
M  V30 5676 C 528.612 0.681026 2.23348 0
M  V30 5677 C 529.593 -0.322983 1.67005 0
M  V30 5678 O 530.778 -0.199746 1.9317 0
M  V30 5679 C 527.908 0.0589053 3.4725 0
M  V30 5680 C 526.862 0.988082 4.16438 0
M  V30 5681 C 526.188 0.229646 5.34207 0
M  V30 5682 C 527.488 2.31388 4.68249 0
M  V30 5683 H 529.182 1.56993 2.54938 0
M  V30 5684 H 526.728 0.756302 1.2254 0
M  V30 5685 H 528.681 -0.214982 4.20851 0
M  V30 5686 H 527.405 -0.864968 3.14938 0
M  V30 5687 H 526.064 1.24659 3.44754 0
M  V30 5688 H 525.712 -0.697111 4.98146 0
M  V30 5689 H 525.412 0.848815 5.81437 0
M  V30 5690 H 526.936 -0.0368694 6.10589 0
M  V30 5691 H 528.35 2.09964 5.33468 0
M  V30 5692 H 526.747 2.88736 5.26072 0
M  V30 5693 H 527.817 2.94982 3.84855 0
M  V30 5694 N 529.16 -1.33526 0.837174 0
M  V30 5695 C 530.108 -2.31168 0.257698 0
M  V30 5696 C 531.102 -1.5806 -0.609388 0
M  V30 5697 O 532.308 -1.72941 -0.499139 0
M  V30 5698 H 528.683 -0.74922 0.0646058 0
M  V30 5699 H 530.654 -2.77552 1.09578 0
M  V30 5700 C 529.403 -3.4326 -0.553887 0
M  V30 5701 H 528.726 -3.99665 0.104008 0
M  V30 5702 H 530.166 -4.13782 -0.925219 0
M  V30 5703 C 528.625 -2.88965 -1.73207 0
M  V30 5704 O 529.155 -2.85013 -2.83073 0
M  V30 5705 N 527.361 -2.45596 -1.55342 0
M  V30 5706 H 526.908 -2.49009 -0.659705 0
M  V30 5707 H 526.866 -2.0962 -2.34322 0
M  V30 5708 N 530.638 -0.59345 -1.46 0
M  V30 5709 C 531.866 -0.0890934 -2.06708 0
M  V30 5710 C 532.281 1.2205 -1.44046 0
M  V30 5711 O 531.638 1.74029 -0.549551 0
M  V30 5712 C 531.689 0.0720263 -3.61428 0
M  V30 5713 O 531.41 -1.18574 -4.21748 0
M  V30 5714 C 532.911 0.609487 -4.3909 0
M  V30 5715 H 530.131 -0.0623628 -0.668096 0
M  V30 5716 H 532.675 -0.817171 -1.87464 0
M  V30 5717 H 530.83 0.750369 -3.80063 0
M  V30 5718 H 531.244 -1.0064 -5.14754 0
M  V30 5719 H 532.718 0.671363 -5.47902 0
M  V30 5720 H 533.195 1.62878 -4.07882 0
M  V30 5721 H 533.801 -0.03434 -4.25286 0
M  V30 5722 N 532.116 1.54067 -0.331816 0
M  V30 5723 C 533.364 2.00319 0.267739 0
M  V30 5724 C 533.685 1.22148 1.52003 0
M  V30 5725 O 532.955 0.325494 1.93177 0
M  V30 5726 H 531.535 0.740014 0.101922 0
M  V30 5727 H 534.197 1.89628 -0.450267 0
M  V30 5728 H 533.293 3.07765 0.518385 0
M  V30 5729 N 533.594 0.0601682 1.57485 0
M  V30 5730 C 534.843 -0.611101 1.9222 0
M  V30 5731 C 535.156 -1.71469 0.941159 0
M  V30 5732 O 536.362 -2.44473 1.18089 0
M  V30 5733 C 534.818 -1.13832 3.41424 0
M  V30 5734 C 534.426 -0.0663596 4.47951 0
M  V30 5735 C 536.17 -1.78432 3.85178 0
M  V30 5736 C 534.077 -0.606965 5.88277 0
M  V30 5737 H 533.007 -0.232033 0.71741 0
M  V30 5738 H 535.658 0.130518 1.83035 0
M  V30 5739 H 534.04 -1.93254 3.45643 0
M  V30 5740 H 535.214 0.707682 4.55333 0
M  V30 5741 H 533.529 0.482715 4.13593 0
M  V30 5742 H 536.126 -2.1989 4.87394 0
M  V30 5743 H 536.469 -2.63966 3.21913 0
M  V30 5744 H 537.002 -1.05651 3.83514 0
M  V30 5745 H 533.741 0.21095 6.5516 0
M  V30 5746 H 533.261 -1.34879 5.84438 0
M  V30 5747 H 534.94 -1.08704 6.37803 0
M  V30 5748 N 535.072 -1.5615 -0.213296 0
M  V30 5749 C 536.321 -1.78743 -0.93455 0
M  V30 5750 C 536.634 -0.630199 -1.8517 0
M  V30 5751 O 537.84 -0.739966 -2.61222 0
M  V30 5752 C 536.296 -3.16571 -1.71203 0
M  V30 5753 C 535.904 -4.40043 -0.840617 0
M  V30 5754 C 537.648 -3.48485 -2.42401 0
M  V30 5755 C 535.555 -5.68895 -1.61592 0
M  V30 5756 H 534.485 -0.666426 -0.352692 0
M  V30 5757 H 537.136 -1.82532 -0.188227 0
M  V30 5758 H 535.518 -3.06981 -2.50157 0
M  V30 5759 H 536.692 -4.6071 -0.0910326 0
M  V30 5760 H 535.007 -4.15706 -0.240365 0
M  V30 5761 H 537.604 -4.41983 -3.00924 0
M  V30 5762 H 537.947 -2.71371 -3.15695 0
M  V30 5763 H 538.48 -3.59442 -1.7043 0
M  V30 5764 H 535.219 -6.48925 -0.926106 0
M  V30 5765 H 534.739 -5.52275 -2.33991 0
M  V30 5766 H 536.418 -6.09365 -2.17447 0
M  V30 5767 N 536.55 0.480323 -1.50102 0
M  V30 5768 C 537.778 1.25657 -1.64371 0
M  V30 5769 C 538.193 1.86011 -0.323316 0
M  V30 5770 O 537.55 1.68803 0.693682 0
M  V30 5771 C 537.601 2.37197 -2.728 0
M  V30 5772 O 537.322 1.7932 -3.9972 0
M  V30 5773 C 538.823 3.2823 -2.9796 0
M  V30 5774 H 536.043 0.380369 -0.552775 0
M  V30 5775 H 538.587 0.574379 -1.96268 0
M  V30 5776 H 536.742 3.01208 -2.43623 0
M  V30 5777 H 537.156 2.52701 -4.59611 0
M  V30 5778 H 538.63 4.02725 -3.77513 0
M  V30 5779 H 539.107 3.86462 -2.08671 0
M  V30 5780 H 539.713 2.69964 -3.28633 0
M  V30 5781 N 538.028 1.39524 0.732853 0
M  V30 5782 C 539.274 1.37068 1.49467 0
M  V30 5783 C 539.607 -0.0327166 1.94172 0
M  V30 5784 O 538.882 -0.998071 1.66939 0
M  V30 5785 C 539.165 2.34494 2.73285 0
M  V30 5786 C 539.018 3.83784 2.34585 0
M  V30 5787 C 540.337 2.29717 3.75391 0
M  V30 5788 H 537.456 0.499206 0.542183 0
M  V30 5789 H 540.098 1.70532 0.837783 0
M  V30 5790 H 538.248 2.06087 3.29333 0
M  V30 5791 H 539.92 4.22949 1.84151 0
M  V30 5792 H 538.163 4.00455 1.66787 0
M  V30 5793 H 538.834 4.47444 3.23262 0
M  V30 5794 H 541.31 2.54839 3.28932 0
M  V30 5795 H 540.186 2.99962 4.59689 0
M  V30 5796 H 540.447 1.30291 4.22465 0
M  V30 5797 N 539.506 -0.963266 1.24736 0
M  V30 5798 C 540.438 -2.06162 1.0015 0
M  V30 5799 C 541.451 -1.62771 -0.0305905 0
M  V30 5800 O 542.64 -1.77296 0.206966 0
M  V30 5801 C 539.74 -3.35333 0.490385 0
M  V30 5802 C 538.913 -4.07609 1.58663 0
M  V30 5803 C 537.972 -5.15052 1.0774 0
M  V30 5804 O 536.998 -5.4098 1.77002 0
M  V30 5805 N 538.2 -5.80436 -0.0858605 0
M  V30 5806 H 540.965 -2.27825 1.94719 0
M  V30 5807 H 538.526 -1.13121 1.15825 0
M  V30 5808 H 540.518 -4.04477 0.134371 0
M  V30 5809 H 539.088 -3.10507 -0.361155 0
M  V30 5810 H 538.308 -3.32681 2.11463 0
M  V30 5811 H 539.596 -4.52656 2.32336 0
M  V30 5812 H 538.994 -5.6178 -0.664806 0
M  V30 5813 H 537.551 -6.50674 -0.382981 0
M  V30 5814 N 540.985 -1.06182 -1.16461 0
M  V30 5815 C 541.933 -0.665716 -2.2287 0
M  V30 5816 C 542.927 0.317822 -1.66392 0
M  V30 5817 O 544.133 0.182807 -1.79069 0
M  V30 5818 H 540.508 -0.197148 -0.725697 0
M  V30 5819 H 542.479 -1.57307 -2.53569 0
M  V30 5820 C 541.228 -0.0669803 -3.47635 0
M  V30 5821 H 540.551 -0.814899 -3.91407 0
M  V30 5822 H 541.991 0.172669 -4.23648 0
M  V30 5823 C 540.45 1.18913 -3.15216 0
M  V30 5824 O 540.98 2.27723 -3.30916 0
M  V30 5825 N 539.186 1.09066 -2.69357 0
M  V30 5826 H 538.733 0.20518 -2.56782 0
M  V30 5827 H 538.691 1.93195 -2.48039 0
M  V30 5828 N 542.463 1.3308 -0.844243 0
M  V30 5829 C 543.693 2.01515 -0.455541 0
M  V30 5830 C 544.101 1.63655 0.949406 0
M  V30 5831 O 543.444 0.84848 1.62931 0
M  V30 5832 C 543.506 3.55967 -0.502801 0
M  V30 5833 C 543.17 4.17222 -1.86481 0
M  V30 5834 C 544.167 4.36205 -2.8288 0
M  V30 5835 C 541.852 4.53528 -2.15911 0
M  V30 5836 C 543.846 4.90649 -4.06869 0
M  V30 5837 C 541.533 5.07679 -3.40155 0
M  V30 5838 C 542.531 5.26186 -4.35451 0
M  V30 5839 O 542.219 5.79183 -5.57496 0
M  V30 5840 H 541.951 0.65199 -0.178565 0
M  V30 5841 H 544.505 1.70867 -1.1399 0
M  V30 5842 H 542.735 3.85965 0.23836 0
M  V30 5843 H 544.424 4.05688 -0.131169 0
M  V30 5844 H 545.19 4.085 -2.61444 0
M  V30 5845 H 541.069 4.38414 -1.42528 0
M  V30 5846 H 544.613 5.0501 -4.81259 0
M  V30 5847 H 540.51 5.34815 -3.61446 0
M  V30 5848 H 541.278 5.97591 -5.5931 0
M  V30 5849 N 543.941 0.601185 1.45683 0
M  V30 5850 C 545.189 0.0936957 2.01883 0
M  V30 5851 C 545.51 -1.2779 1.47291 0
M  V30 5852 O 544.78 -1.84279 0.664691 0
M  V30 5853 H 543.36 0.0316466 0.746329 0
M  V30 5854 H 546.022 0.781137 1.78562 0
M  V30 5855 H 545.118 0.0386297 3.12076 0
M  V30 5856 N 545.419 -1.53889 0.339982 0
M  V30 5857 C 546.644 -2.05741 -0.261798 0
M  V30 5858 C 547.069 -1.21354 -1.43718 0
M  V30 5859 O 546.427 -0.22645 -1.7988 0
M  V30 5860 C 546.475 -3.54542 -0.658228 0
M  V30 5861 O 545.579 -3.7302 -1.75869 0
M  V30 5862 H 544.92 -0.662529 -0.0441672 0
M  V30 5863 H 547.45 -1.98568 0.493161 0
M  V30 5864 H 547.46 -3.9711 -0.936368 0
M  V30 5865 H 546.135 -4.15412 0.201358 0
M  V30 5866 H 544.712 -3.42355 -1.47809 0
M  V30 5867 N 546.897 -0.0685191 -1.57451 0
M  V30 5868 C 547.847 0.909895 -2.09057 0
M  V30 5869 C 548.831 1.26088 -0.999528 0
M  V30 5870 O 550.023 1.24041 -1.26265 0
M  V30 5871 C 547.152 2.17863 -2.65312 0
M  V30 5872 C 546.238 1.85427 -3.81415 0
M  V30 5873 N 546.629 1.23426 -4.9051 0
M  V30 5874 C 544.927 2.15196 -3.90649 0
M  V30 5875 C 545.628 1.09008 -5.71395 0
M  V30 5876 N 544.604 1.59871 -5.1956 0
M  V30 5877 H 548.406 0.426145 -2.90794 0
M  V30 5878 H 545.92 0.135462 -1.61834 0
M  V30 5879 H 547.917 2.88872 -3.00597 0
M  V30 5880 H 546.577 2.66829 -1.85021 0
M  V30 5881 H 547.588 0.904305 -5.09944 0
M  V30 5882 H 544.265 2.66562 -3.21327 0
M  V30 5883 H 545.655 0.607305 -6.6915 0
M  V30 5884 N 548.375 1.56261 0.205012 0
M  V30 5885 C 549.621 1.80306 0.9283 0
M  V30 5886 C 549.954 0.640932 1.83319 0
M  V30 5887 O 549.229 -0.359032 1.91158 0
M  V30 5888 C 549.512 3.14547 1.75306 0
M  V30 5889 C 549.365 4.41236 0.873562 0
M  V30 5890 C 550.684 3.45382 2.72762 0
M  V30 5891 H 547.803 0.655929 0.336044 0
M  V30 5892 H 550.445 1.88984 0.196211 0
M  V30 5893 H 548.595 3.0728 2.37721 0
M  V30 5894 H 550.267 4.60539 0.264887 0
M  V30 5895 H 548.51 4.33427 0.179773 0
M  V30 5896 H 549.181 5.31639 1.48541 0
M  V30 5897 H 551.657 3.52884 2.20481 0
M  V30 5898 H 550.533 4.40449 3.2756 0
M  V30 5899 H 550.794 2.68377 3.51321 0
M  V30 5900 N 549.853 -0.472356 1.50355 0
M  V30 5901 C 551.264 -1.05326 1.54154 0
M  V30 5902 C 551.615 -1.93155 0.344303 0
M  V30 5903 O 550.74 -2.09479 -0.542928 0
M  V30 5904 C 551.335 -1.91691 2.79356 0
M  V30 5905 C 549.894 -2.44892 2.8584 0
M  V30 5906 C 549.041 -1.23205 2.48426 0
M  V30 5907 H 551.992 -0.255027 1.56637 0
M  V30 5908 H 552.013 -2.76742 2.6114 0
M  V30 5909 H 551.525 -1.27741 3.66475 0
M  V30 5910 H 549.626 -3.12399 2.0307 0
M  V30 5911 H 549.739 -2.80086 3.88701 0
M  V30 5912 H 548.103 -1.56643 2.00836 0
M  V30 5913 H 548.886 -0.609194 3.37852 0
M  V30 5914 N 551.331 -1.39911 -0.725443 0
M  V30 5915 C 552.742 -1.33599 -1.30415 0
M  V30 5916 C 553.093 -0.00481792 -1.96199 0
M  V30 5917 O 552.218 0.897275 -1.96921 0
M  V30 5918 C 552.813 -2.41965 -2.37146 0
M  V30 5919 C 551.372 -2.39144 -2.90667 0
M  V30 5920 C 550.519 -2.23355 -1.64341 0
M  V30 5921 H 553.47 -1.4986 -0.522267 0
M  V30 5922 H 553.491 -2.09304 -3.17761 0
M  V30 5923 H 553.003 -3.38837 -1.89238 0
M  V30 5924 H 551.104 -1.4594 -3.4283 0
M  V30 5925 H 551.217 -3.34362 -3.43131 0
M  V30 5926 H 549.581 -1.70696 -1.89037 0
M  V30 5927 H 550.364 -3.2221 -1.18471 0
M  V30 5928 N 552.809 0.956637 -1.25245 0
M  V30 5929 C 553.756 2.053 -1.05454 0
M  V30 5930 C 554.726 1.66062 0.0356889 0
M  V30 5931 O 555.911 1.90415 -0.121099 0
M  V30 5932 C 553.051 3.38391 -0.677191 0
M  V30 5933 C 552.164 3.90758 -1.84206 0
M  V30 5934 C 551.299 5.12165 -1.40926 0
M  V30 5935 C 550.338 5.56757 -2.54338 0
M  V30 5936 N 549.475 6.69376 -2.11848 0
M  V30 5937 H 554.315 2.21562 -1.99284 0
M  V30 5938 H 551.852 1.08578 -0.992434 0
M  V30 5939 H 553.81 4.1488 -0.43938 0
M  V30 5940 H 552.44 3.22021 0.224127 0
M  V30 5941 H 551.492 3.10808 -2.19323 0
M  V30 5942 H 552.804 4.19802 -2.69383 0
M  V30 5943 H 551.958 5.96065 -1.13098 0
M  V30 5944 H 550.697 4.84832 -0.528175 0
M  V30 5945 H 549.702 4.71423 -2.82913 0
M  V30 5946 H 550.927 5.861 -3.43022 0
M  V30 5947 H 548.873 6.43756 -1.26153 0
M  V30 5948 H 548.79 6.97927 -2.90574 0
M  V30 5949 H 550.058 7.5669 -1.87191 0
M  V30 5950 N 554.287 1.06798 1.15896 0
M  V30 5951 C 555.533 0.788934 1.86825 0
M  V30 5952 C 555.866 -0.683084 1.8179 0
M  V30 5953 O 555.141 -1.50086 1.23711 0
M  V30 5954 C 555.424 1.29065 3.36176 0
M  V30 5955 C 555.277 2.8268 3.49874 0
M  V30 5956 C 556.596 0.902655 4.30744 0
M  V30 5957 H 553.715 0.288066 0.678371 0
M  V30 5958 H 556.357 1.32479 1.36195 0
M  V30 5959 H 554.507 0.834806 3.79425 0
M  V30 5960 H 556.179 3.36511 3.15528 0
M  V30 5961 H 554.422 3.21157 2.91617 0
M  V30 5962 H 555.093 3.12852 4.54783 0
M  V30 5963 H 557.569 1.29535 3.95424 0
M  V30 5964 H 556.445 1.28111 5.3374 0
M  V30 5965 H 556.706 -0.191951 4.41683 0
M  V30 5966 N 555.766 -1.3263 0.851289 0
M  V30 5967 C 556.991 -2.02097 0.466006 0
M  V30 5968 C 557.416 -1.63574 -0.928709 0
M  V30 5969 O 556.774 -0.834665 -1.60944 0
M  V30 5970 C 556.822 -3.55425 0.608737 0
M  V30 5971 O 555.926 -4.10827 -0.359878 0
M  V30 5972 H 555.267 -0.636911 0.187724 0
M  V30 5973 H 557.797 -1.69253 1.14955 0
M  V30 5974 H 557.807 -4.04986 0.495006 0
M  V30 5975 H 556.482 -3.82806 1.62581 0
M  V30 5976 H 555.059 -3.72349 -0.202666 0
M  V30 5977 N 557.244 -0.608902 -1.45362 0
M  V30 5978 C 558.194 0.130616 -2.27626 0
M  V30 5979 C 559.178 0.837323 -1.37396 0
M  V30 5980 O 560.37 0.727096 -1.61376 0
M  V30 5981 C 557.499 1.12646 -3.24293 0
M  V30 5982 C 556.585 0.42052 -4.2201 0
M  V30 5983 N 556.976 -0.538569 -5.02925 0
M  V30 5984 C 555.274 0.667901 -4.40971 0
M  V30 5985 C 555.975 -0.953625 -5.7383 0
M  V30 5986 N 554.951 -0.297097 -5.42788 0
M  V30 5987 H 558.753 -0.605996 -2.87585 0
M  V30 5988 H 556.267 -0.432672 -1.5653 0
M  V30 5989 H 558.264 1.67066 -3.81961 0
M  V30 5990 H 556.924 1.86361 -2.65894 0
M  V30 5991 H 557.935 -0.915375 -5.09746 0
M  V30 5992 H 554.612 1.38963 -3.93695 0
M  V30 5993 H 556.002 -1.74473 -6.48852 0
M  V30 5994 N 558.722 1.53707 -0.348139 0
M  V30 5995 C 559.971 2.0017 0.247992 0
M  V30 5996 C 560.284 1.23983 1.51286 0
M  V30 5997 O 561.49 1.60946 2.18652 0
M  V30 5998 C 559.946 3.56515 0.492459 0
M  V30 5999 C 559.554 4.41562 -0.756777 0
M  V30 6000 C 561.298 4.11381 1.0472 0
M  V30 6001 C 559.205 5.89426 -0.482856 0
M  V30 6002 H 558.135 0.747806 0.0964452 0
M  V30 6003 H 560.786 1.77532 -0.464179 0
M  V30 6004 H 559.168 3.75236 1.26545 0
M  V30 6005 H 560.342 4.34615 -1.53122 0
M  V30 6006 H 558.657 3.97711 -1.23348 0
M  V30 6007 H 561.254 5.19468 1.26717 0
M  V30 6008 H 561.597 3.64885 2.00411 0
M  V30 6009 H 562.13 3.96389 0.334801 0
M  V30 6010 H 558.869 6.40164 -1.40962 0
M  V30 6011 H 558.389 5.99264 0.253416 0
M  V30 6012 H 560.068 6.4692 -0.101816 0
M  V30 6013 N 560.2 0.0768682 1.57412 0
M  V30 6014 C 561.428 -0.59997 1.9801 0
M  V30 6015 C 561.843 -1.62842 0.955408 0
M  V30 6016 O 561.2 -1.8241 -0.057314 0
M  V30 6017 C 561.251 -1.26401 3.38681 0
M  V30 6018 O 560.972 -0.276723 4.37225 0
M  V30 6019 C 562.473 -2.0282 3.94182 0
M  V30 6020 H 559.693 -0.162239 0.651091 0
M  V30 6021 H 562.237 0.150771 2.03943 0
M  V30 6022 H 560.392 -1.96581 3.33819 0
M  V30 6023 H 560.806 -0.753744 5.19056 0
M  V30 6024 H 562.28 -2.44667 4.94815 0
M  V30 6025 H 562.757 -2.88678 3.31001 0
M  V30 6026 H 563.363 -1.37496 4.02461 0
M  V30 6027 N 561.678 -1.56367 -0.196722 0
M  V30 6028 C 562.925 -1.80529 -0.917366 0
M  V30 6029 C 563.253 -0.649817 -1.83324 0
M  V30 6030 O 562.508 0.36451 -1.92275 0
M  V30 6031 C 562.807 -3.10663 -1.767 0
M  V30 6032 C 562.473 -4.3962 -1.00225 0
M  V30 6033 C 561.135 -4.74653 -0.791095 0
M  V30 6034 C 563.487 -5.1913 -0.464035 0
M  V30 6035 C 560.815 -5.86692 -0.0302155 0
M  V30 6036 C 563.167 -6.31964 0.283625 0
M  V30 6037 C 561.831 -6.65581 0.505813 0
M  V30 6038 H 561.101 -0.660602 -0.335688 0
M  V30 6039 H 563.748 -1.90615 -0.183844 0
M  V30 6040 H 562.053 -2.95807 -2.56915 0
M  V30 6041 H 563.75 -3.26563 -2.32718 0
M  V30 6042 H 560.34 -4.12127 -1.17684 0
M  V30 6043 H 564.524 -4.9248 -0.614575 0
M  V30 6044 H 559.78 -6.11211 0.151917 0
M  V30 6045 H 563.954 -6.92791 0.708057 0
M  V30 6046 H 561.581 -7.52239 1.0973 0
M  V30 6047 N 563.156 0.464375 -1.50603 0
M  V30 6048 C 564.119 1.54393 -1.69397 0
M  V30 6049 C 565.119 1.50566 -0.564504 0
M  V30 6050 O 566.309 1.53066 -0.831645 0
M  V30 6051 C 563.441 2.9401 -1.72543 0
M  V30 6052 H 564.634 1.39044 -2.65719 0
M  V30 6053 H 562.187 0.69122 -1.40185 0
M  V30 6054 H 562.922 3.14795 -0.77938 0
M  V30 6055 H 562.707 2.98195 -2.54602 0
M  V30 6056 H 564.197 3.72375 -1.89015 0
M  V30 6057 N 564.634 1.40294 0.718013 0
M  V30 6058 C 565.584 1.36847 1.82365 0
M  V30 6059 C 566.568 0.246424 1.59002 0
M  V30 6060 O 567.76 0.485336 1.70216 0
M  V30 6061 C 564.889 1.23105 3.20469 0
M  V30 6062 C 563.975 2.4008 3.49603 0
M  V30 6063 N 564.366 3.65562 3.49568 0
M  V30 6064 C 562.664 2.33407 3.80049 0
M  V30 6065 C 563.365 4.43015 3.76978 0
M  V30 6066 N 562.341 3.72823 3.95606 0
M  V30 6067 H 566.143 2.31811 1.80668 0
M  V30 6068 H 563.657 1.34031 0.91703 0
M  V30 6069 H 565.654 1.18718 3.9964 0
M  V30 6070 H 564.314 0.291056 3.23393 0
M  V30 6071 H 565.325 3.98756 3.30476 0
M  V30 6072 H 562.002 1.47762 3.90478 0
M  V30 6073 H 563.392 5.51859 3.83276 0
M  V30 6074 N 566.112 -0.949982 1.2575 0
M  V30 6075 C 567.022 -2.08109 1.08295 0
M  V30 6076 C 568.038 -1.7399 0.0188181 0
M  V30 6077 O 569.214 -2.00187 0.220724 0
M  V30 6078 C 566.279 -3.39383 0.708534 0
M  V30 6079 C 565.34 -3.8734 1.85111 0
M  V30 6080 C 564.573 -5.12349 1.49447 0
M  V30 6081 O 564.796 -5.6905 0.392212 0
M  V30 6082 O 563.73 -5.5513 2.32624 0
M  V30 6083 H 567.556 -2.25738 2.03165 0
M  V30 6084 H 565.141 -1.06545 1.04731 0
M  V30 6085 H 567.023 -4.18277 0.512061 0
M  V30 6086 H 565.698 -3.23013 -0.210854 0
M  V30 6087 H 564.605 -3.09429 2.10248 0
M  V30 6088 H 565.938 -4.08216 2.74991 0
M  V30 6089 N 567.59 -1.07411 -1.15328 0
M  V30 6090 C 568.836 -0.798831 -1.86404 0
M  V30 6091 C 569.169 0.673433 -1.8215 0
M  V30 6092 O 568.444 1.49428 -1.24505 0
M  V30 6093 C 568.727 -1.30846 -3.35487 0
M  V30 6094 C 568.58 -2.84532 -3.4837 0
M  V30 6095 C 569.899 -0.925486 -4.30259 0
M  V30 6096 H 567.018 -0.291659 -0.676834 0
M  V30 6097 H 569.66 -1.332 -1.35491 0
M  V30 6098 H 567.81 -0.854916 -3.78977 0
M  V30 6099 H 569.482 -3.3818 -3.13739 0
M  V30 6100 H 567.725 -3.22699 -2.8991 0
M  V30 6101 H 568.396 -3.15259 -4.53118 0
M  V30 6102 H 570.872 -1.3163 -3.94731 0
M  V30 6103 H 569.748 -1.3094 -5.33053 0
M  V30 6104 H 570.009 0.168525 -4.41779 0
M  V30 6105 N 569.068 1.32177 -0.85831 0
M  V30 6106 C 570.316 1.96735 -0.462568 0
M  V30 6107 C 570.637 1.6824 0.985911 0
M  V30 6108 O 569.907 0.991564 1.68952 0
M  V30 6109 H 568.487 0.727849 -0.168064 0
M  V30 6110 H 571.149 1.61195 -1.09554 0
M  V30 6111 H 570.245 3.06068 -0.610647 0
M  V30 6112 N 570.547 0.616602 1.45037 0
M  V30 6113 C 571.497 -0.118543 2.27692 0
M  V30 6114 C 572.481 -0.830025 1.37838 0
M  V30 6115 O 573.673 -0.718528 1.6176 0
M  V30 6116 C 570.802 -1.10924 3.24886 0
M  V30 6117 C 569.888 -0.398134 4.22227 0
M  V30 6118 N 570.279 0.565233 5.02632 0
M  V30 6119 C 568.577 -0.644506 4.41319 0
M  V30 6120 C 569.278 0.984043 5.73316 0
M  V30 6121 N 568.254 0.325879 5.42622 0
M  V30 6122 H 572.056 0.621239 2.87259 0
M  V30 6123 H 569.57 0.440968 1.56299 0
M  V30 6124 H 571.567 -1.65038 3.82842 0
M  V30 6125 H 570.227 -1.84948 2.66879 0
M  V30 6126 H 571.238 0.942395 5.09254 0
M  V30 6127 H 567.915 -1.36873 3.94426 0
M  V30 6128 H 569.305 1.77911 6.47918 0
M  V30 6129 N 572.025 -1.5352 0.356285 0
M  V30 6130 C 572.973 -2.26945 -0.50978 0
M  V30 6131 C 573.967 -1.29569 -1.09125 0
M  V30 6132 O 575.173 -1.47231 -1.03552 0
M  V30 6133 H 571.548 -0.729368 -0.183102 0
M  V30 6134 H 573.519 -2.98111 0.131374 0
M  V30 6135 C 572.268 -3.06466 -1.64237 0
M  V30 6136 H 571.591 -3.81233 -1.20423 0
M  V30 6137 H 573.031 -3.61035 -2.22327 0
M  V30 6138 C 571.49 -2.16737 -2.57928 0
M  V30 6139 O 572.02 -1.77195 -3.60507 0
M  V30 6140 N 570.226 -1.81558 -2.26903 0
M  V30 6141 H 569.773 -2.13913 -1.43524 0
M  V30 6142 H 569.731 -1.21806 -2.89846 0
M  V30 6143 N 573.503 -0.0852151 -1.57369 0
M  V30 6144 C 574.75 0.580806 -1.93992 0
M  V30 6145 C 575.078 1.68801 -0.966252 0
M  V30 6146 O 574.333 1.95694 0.0158649 0
M  V30 6147 C 574.632 1.18482 -3.3719 0
M  V30 6148 C 574.298 0.2024 -4.50446 0
M  V30 6149 C 572.96 -0.0678318 -4.81152 0
M  V30 6150 C 575.312 -0.46895 -5.19086 0
M  V30 6151 C 572.64 -1.01627 -5.77831 0
M  V30 6152 C 574.992 -1.4058 -6.16782 0
M  V30 6153 C 573.656 -1.68436 -6.45899 0
M  V30 6154 H 572.926 0.212532 -0.709867 0
M  V30 6155 H 575.573 -0.158947 -1.90839 0
M  V30 6156 H 573.878 2.0006 -3.36873 0
M  V30 6157 H 575.575 1.70767 -3.62822 0
M  V30 6158 H 572.165 0.423208 -4.26505 0
M  V30 6159 H 576.349 -0.273307 -4.95547 0
M  V30 6160 H 571.605 -1.2392 -5.9871 0
M  V30 6161 H 575.779 -1.93188 -6.69068 0
M  V30 6162 H 573.406 -2.42088 -7.20623 0
M  V30 6163 N 574.981 1.5647 0.188427 0
M  V30 6164 C 576.229 1.80655 0.905986 0
M  V30 6165 C 576.55 0.659391 1.83513 0
M  V30 6166 O 575.82 -0.321868 1.93238 0
M  V30 6167 H 574.4 0.666391 0.337538 0
M  V30 6168 H 577.062 1.93949 0.192339 0
M  V30 6169 H 576.158 2.74066 1.49313 0
M  V30 6170 N 576.459 -0.456382 1.50847 0
M  V30 6171 C 577.684 -1.2349 1.66628 0
M  V30 6172 C 578.109 -1.84715 0.355254 0
M  V30 6173 O 577.467 -1.67961 -0.682559 0
M  V30 6174 C 577.515 -2.30865 2.77009 0
M  V30 6175 O 576.619 -3.35882 2.39285 0
M  V30 6176 H 575.96 -0.36266 0.556214 0
M  V30 6177 H 578.49 -0.541374 1.97308 0
M  V30 6178 H 578.5 -2.75949 3.00526 0
M  V30 6179 H 577.175 -1.85677 3.72152 0
M  V30 6180 H 575.752 -2.96406 2.26269 0
M  V30 6181 N 577.937 -1.40673 -0.710563 0
M  V30 6182 C 579.348 -1.34975 -1.28991 0
M  V30 6183 C 579.699 -0.0256272 -1.96183 0
M  V30 6184 O 578.824 0.876339 -1.97862 0
M  V30 6185 C 579.419 -2.44467 -2.34567 0
M  V30 6186 C 577.978 -2.42213 -2.88114 0
M  V30 6187 C 577.125 -2.25085 -1.61963 0
M  V30 6188 H 580.076 -1.50406 -0.506343 0
M  V30 6189 H 580.097 -2.12663 -3.15523 0
M  V30 6190 H 579.609 -3.40825 -1.85634 0
M  V30 6191 H 577.71 -1.49568 -3.41263 0
M  V30 6192 H 577.823 -3.37983 -3.39565 0
M  V30 6193 H 576.187 -1.72691 -1.87216 0
M  V30 6194 H 576.97 -3.23449 -1.15047 0
M  V30 6195 N 579.415 0.9433 -1.26252 0
M  V30 6196 C 580.365 2.02746 -1.04297 0
M  V30 6197 C 581.349 1.60882 0.0239435 0
M  V30 6198 O 582.541 1.75947 -0.192757 0
M  V30 6199 C 579.67 3.36585 -0.6757 0
M  V30 6200 C 578.756 3.84939 -1.77996 0
M  V30 6201 N 579.147 4.05966 -3.01704 0
M  V30 6202 C 577.445 4.13833 -1.66308 0
M  V30 6203 C 578.146 4.45987 -3.73458 0
M  V30 6204 N 577.122 4.52569 -3.01135 0
M  V30 6205 H 580.924 2.17012 -1.98199 0
M  V30 6206 H 578.438 1.12898 -1.16738 0
M  V30 6207 H 580.435 4.13896 -0.499571 0
M  V30 6208 H 579.095 3.2369 0.255863 0
M  V30 6209 H 580.106 3.92716 -3.37631 0
M  V30 6210 H 576.783 4.09739 -0.801267 0
M  V30 6211 H 578.173 4.70465 -4.79701 0
M  V30 6212 N 580.893 1.08022 1.14757 0
M  V30 6213 C 582.17 0.720386 1.81851 0
M  V30 6214 C 582.55 -0.796375 1.95502 0
M  V30 6215 O 581.898 -1.71339 1.51179 0
M  V30 6216 C 582.108 1.44273 3.17783 0
M  V30 6217 C 583.456 1.59925 3.93331 0
M  V30 6218 O 584.48 1.40407 3.2736 0
M  V30 6219 O 583.339 1.92096 5.11626 0
M  V30 6220 H 580.433 0.257142 0.786007 0
M  V30 6221 H 582.979 1.18155 1.21809 0
M  V30 6222 H 581.751 2.47618 3.02987 0
M  V30 6223 H 581.374 0.97279 3.85516 0
M  V30 6224 N 582.371 -1.3172 0.865308 0
M  V30 6225 C 583.596 -2.01591 0.487415 0
M  V30 6226 C 584.021 -1.6455 -0.911307 0
M  V30 6227 O 583.379 -0.851689 -1.6005 0
M  V30 6228 C 583.427 -3.54759 0.646401 0
M  V30 6229 O 582.531 -4.11185 -0.316284 0
M  V30 6230 H 581.872 -0.634884 0.194468 0
M  V30 6231 H 584.402 -1.68024 1.16744 0
M  V30 6232 H 584.412 -4.04438 0.537932 0
M  V30 6233 H 583.087 -3.8106 1.66632 0
M  V30 6234 H 581.664 -3.72543 -0.163162 0
M  V30 6235 N 583.85 -0.624285 -1.44708 0
M  V30 6236 C 585.098 -0.125802 -2.01708 0
M  V30 6237 C 585.418 1.2543 -1.49306 0
M  V30 6238 O 584.689 1.83198 -0.693924 0
M  V30 6239 H 583.269 -0.0435161 -0.745731 0
M  V30 6240 H 585.931 -0.809446 -1.77296 0
M  V30 6241 H 585.027 -0.0882734 -3.11975 0
M  V30 6242 N 585.328 1.53329 -0.364422 0
M  V30 6243 C 586.556 2.05657 0.226424 0
M  V30 6244 C 586.971 1.23801 1.42544 0
M  V30 6245 O 586.328 0.27839 1.80364 0
M  V30 6246 C 586.379 3.56125 0.621056 0
M  V30 6247 O 586.1 4.34879 -0.530304 0
M  V30 6248 C 587.601 4.24706 1.27041 0
M  V30 6249 H 584.821 0.669806 0.0400056 0
M  V30 6250 H 587.365 1.97714 -0.522456 0
M  V30 6251 H 585.52 3.64223 1.31985 0
M  V30 6252 H 585.934 5.24073 -0.211546 0
M  V30 6253 H 587.408 5.3131 1.49711 0
M  V30 6254 H 587.885 3.78354 2.23036 0
M  V30 6255 H 588.491 4.20858 0.613079 0
M  V30 6256 N 586.806 0.0935595 1.57322 0
M  V30 6257 C 587.716 -0.880192 2.17462 0
M  V30 6258 C 588.732 -1.31135 1.14366 0
M  V30 6259 O 589.908 -1.37958 1.46729 0
M  V30 6260 C 586.973 -2.12184 2.74188 0
M  V30 6261 C 586.034 -1.74503 3.92234 0
M  V30 6262 C 585.267 -2.92748 4.46245 0
M  V30 6263 O 585.49 -4.07427 3.99198 0
M  V30 6264 O 584.424 -2.71303 5.37288 0
M  V30 6265 H 588.25 -0.398516 3.01074 0
M  V30 6266 H 585.835 -0.130707 1.48827 0
M  V30 6267 H 587.717 -2.84953 3.10451 0
M  V30 6268 H 586.392 -2.59407 1.93623 0
M  V30 6269 H 585.299 -0.989186 3.60785 0
M  V30 6270 H 586.632 -1.32044 4.74157 0
M  V30 6271 N 588.284 -1.56567 -0.180126 0
M  V30 6272 C 589.524 -1.83285 -0.904761 0
M  V30 6273 C 589.888 -0.673226 -1.7981 0
M  V30 6274 O 591.089 -0.820645 -2.55967 0
M  V30 6275 C 589.36 -3.15086 -1.68688 0
M  V30 6276 S 590.919 -3.63258 -2.46149 0
M  V30 6277 H 587.737 -0.643114 -0.303193 0
M  V30 6278 H 590.339 -1.94785 -0.167034 0
M  V30 6279 H 589.043 -3.97484 -1.02148 0
M  V30 6280 H 588.574 -3.06504 -2.46615 0
M  V30 6281 H 590.589 -3.29884 -3.70663 0
M  V30 6282 N 589.762 0.448376 -1.51087 0
M  V30 6283 C 590.99 1.22143 -1.66999 0
M  V30 6284 C 591.405 1.85283 -0.362699 0
M  V30 6285 O 590.762 1.70236 0.65772 0
M  V30 6286 C 590.813 2.31357 -2.7777 0
M  V30 6287 O 590.534 1.70801 -4.03434 0
M  V30 6288 C 592.035 3.21836 -3.04855 0
M  V30 6289 H 589.255 0.368558 -0.560719 0
M  V30 6290 H 591.799 0.532618 -1.97442 0
M  V30 6291 H 589.954 2.95973 -2.49958 0
M  V30 6292 H 590.368 2.42895 -4.64868 0
M  V30 6293 H 591.842 3.94627 -3.85971 0
M  V30 6294 H 592.319 3.81949 -2.16821 0
M  V30 6295 H 592.925 2.62933 -3.34285 0
M  V30 6296 N 591.24 1.41047 0.703093 0
M  V30 6297 C 592.651 1.35657 1.28274 0
M  V30 6298 C 593.002 0.0360309 1.96167 0
M  V30 6299 O 592.127 -0.865833 1.98324 0
M  V30 6300 C 592.722 2.45707 2.33267 0
M  V30 6301 C 591.281 2.43738 2.86825 0
M  V30 6302 C 590.428 2.25941 1.60767 0
M  V30 6303 H 593.379 1.50672 0.49836 0
M  V30 6304 H 593.4 2.14333 3.14391 0
M  V30 6305 H 592.912 3.41805 1.83824 0
M  V30 6306 H 591.013 1.51375 3.40465 0
M  V30 6307 H 591.126 3.39779 3.37768 0
M  V30 6308 H 589.49 1.73681 1.86298 0
M  V30 6309 H 590.273 3.24054 1.1333 0
M  V30 6310 N 592.718 -0.936591 1.26751 0
M  V30 6311 C 593.966 -1.67998 1.12343 0
M  V30 6312 C 594.287 -1.92137 -0.332938 0
M  V30 6313 O 593.557 -1.52132 -1.23421 0
M  V30 6314 H 592.137 -0.622609 0.412756 0
M  V30 6315 H 594.799 -1.12509 1.59147 0
M  V30 6316 H 593.895 -2.65185 1.64571 0
M  V30 6317 N 594.196 -1.08629 -1.14182 0
M  V30 6318 C 595.106 -0.730126 -2.22949 0
M  V30 6319 C 596.122 0.26436 -1.7198 0
M  V30 6320 O 597.298 0.107742 -2.01112 0
M  V30 6321 C 594.363 -0.147227 -3.46387 0
M  V30 6322 C 593.424 -1.19662 -4.12286 0
M  V30 6323 C 592.657 -0.641437 -5.29831 0
M  V30 6324 O 592.88 0.538351 -5.67854 0
M  V30 6325 O 591.814 -1.39257 -5.85569 0
M  V30 6326 H 595.64 -1.63753 -2.55771 0
M  V30 6327 H 593.225 -0.860118 -1.22157 0
M  V30 6328 H 595.107 0.174923 -4.21037 0
M  V30 6329 H 593.782 0.733304 -3.15285 0
M  V30 6330 H 592.689 -1.57133 -3.395 0
M  V30 6331 H 594.022 -2.0495 -4.475 0
M  V30 6332 N 595.674 1.31259 -0.872281 0
M  V30 6333 C 596.899 2.0133 -0.498099 0
M  V30 6334 C 597.324 1.65031 0.902568 0
M  V30 6335 O 596.682 0.860164 1.59596 0
M  V30 6336 C 596.73 3.54411 -0.665205 0
M  V30 6337 O 595.834 4.11347 0.294473 0
M  V30 6338 H 595.175 0.633844 -0.197832 0
M  V30 6339 H 597.705 1.67402 -1.17633 0
M  V30 6340 H 597.715 4.04147 -0.559373 0
M  V30 6341 H 596.39 3.80171 -1.68651 0
M  V30 6342 H 594.967 3.72624 0.143403 0
M  V30 6343 N 597.152 0.631951 1.44375 0
M  V30 6344 C 598.099 -0.0724807 2.30686 0
M  V30 6345 C 599.069 -0.835975 1.43529 0
M  V30 6346 O 600.254 -0.816849 1.7243 0
M  V30 6347 C 597.394 -1.04753 3.28817 0
M  V30 6348 C 596.507 -0.282367 4.31076 0
M  V30 6349 C 595.642 -1.2493 5.163 0
M  V30 6350 C 594.681 -0.473349 6.10267 0
M  V30 6351 N 593.818 -1.39079 6.88187 0
M  V30 6352 H 598.658 0.669477 2.90383 0
M  V30 6353 H 596.195 0.341927 1.43071 0
M  V30 6354 H 598.153 -1.62623 3.842 0
M  V30 6355 H 596.783 -1.75661 2.70819 0
M  V30 6356 H 595.835 0.412268 3.78159 0
M  V30 6357 H 597.147 0.321955 4.9776 0
M  V30 6358 H 596.301 -1.89931 5.76204 0
M  V30 6359 H 595.04 -1.88755 4.49692 0
M  V30 6360 H 594.045 0.190142 5.49471 0
M  V30 6361 H 595.27 0.16019 6.78911 0
M  V30 6362 H 593.216 -2.01623 6.24247 0
M  V30 6363 H 593.133 -0.840513 7.51313 0
M  V30 6364 H 594.401 -2.02961 7.52613 0
M  V30 6365 N 598.631 -1.53133 0.372548 0
M  V30 6366 C 599.579 -2.27473 -0.485681 0
M  V30 6367 C 600.573 -1.30719 -1.07745 0
M  V30 6368 O 601.779 -1.48321 -1.01985 0
M  V30 6369 H 598.154 -0.731269 -0.175356 0
M  V30 6370 H 600.125 -2.97955 0.162986 0
M  V30 6371 C 598.874 -3.08191 -1.60978 0
M  V30 6372 H 598.197 -3.82488 -1.16373 0
M  V30 6373 H 599.637 -3.63373 -2.18485 0
M  V30 6374 C 598.096 -2.19461 -2.55614 0
M  V30 6375 O 598.626 -1.81008 -3.58607 0
M  V30 6376 N 596.832 -1.83955 -2.24965 0
M  V30 6377 H 596.379 -2.15423 -1.41247 0
M  V30 6378 H 596.337 -1.24874 -2.88538 0
M  V30 6379 N 600.109 -0.101901 -1.5727 0
M  V30 6380 C 601.039 0.851544 -2.17419 0
M  V30 6381 C 602.02 1.28942 -1.10941 0
M  V30 6382 O 603.205 1.35509 -1.39107 0
M  V30 6383 C 600.335 2.10816 -2.75996 0
M  V30 6384 C 599.289 1.80867 -3.87906 0
M  V30 6385 C 598.615 3.13413 -4.33216 0
M  V30 6386 C 599.915 1.0903 -5.10793 0
M  V30 6387 H 601.609 0.350381 -2.97343 0
M  V30 6388 H 599.155 0.16709 -1.43027 0
M  V30 6389 H 601.108 2.77959 -3.16729 0
M  V30 6390 H 599.832 2.63227 -1.93337 0
M  V30 6391 H 598.491 1.16119 -3.47724 0
M  V30 6392 H 598.139 3.63725 -3.47438 0
M  V30 6393 H 597.839 2.94155 -5.08671 0
M  V30 6394 H 599.363 3.81704 -4.76586 0
M  V30 6395 H 600.777 1.66295 -5.48652 0
M  V30 6396 H 599.174 0.99927 -5.91722 0
M  V30 6397 H 600.244 0.0741704 -4.84843 0
M  V30 6398 N 601.587 1.56661 0.17182 0
M  V30 6399 C 602.835 1.81606 0.886774 0
M  V30 6400 C 603.156 0.678818 1.82803 0
M  V30 6401 O 602.426 -0.301354 1.93568 0
M  V30 6402 H 601.006 0.669934 0.330451 0
M  V30 6403 H 603.668 1.94142 0.171757 0
M  V30 6404 H 602.764 2.75634 1.46398 0
M  V30 6405 N 603.065 -0.440357 1.51323 0
M  V30 6406 C 603.997 -1.55254 1.68609 0
M  V30 6407 C 605.01 -1.52614 0.566812 0
M  V30 6408 O 606.199 -1.57445 0.841032 0
M  V30 6409 C 603.299 -2.94169 1.68279 0
M  V30 6410 C 602.472 -3.21346 2.96742 0
M  V30 6411 C 601.531 -4.3997 2.8864 0
M  V30 6412 O 600.557 -4.38771 3.62586 0
M  V30 6413 N 601.759 -5.43367 2.04285 0
M  V30 6414 H 604.524 -1.40831 2.6455 0
M  V30 6415 H 602.085 -0.629251 1.49171 0
M  V30 6416 H 604.077 -3.71543 1.60431 0
M  V30 6417 H 602.647 -3.02205 0.799441 0
M  V30 6418 H 601.867 -2.32299 3.18482 0
M  V30 6419 H 603.155 -3.3633 3.81785 0
M  V30 6420 H 602.553 -5.47176 1.43578 0
M  V30 6421 H 601.11 -6.19605 2.02318 0
M  V30 6422 N 604.543 -1.41418 -0.695603 0
M  V30 6423 C 605.49 -1.43264 -1.80954 0
M  V30 6424 C 606.46 -0.287016 -1.63601 0
M  V30 6425 O 607.645 -0.488054 -1.84452 0
M  V30 6426 C 604.785 -1.32054 -3.18835 0
M  V30 6427 C 603.898 -2.56485 -3.4762 0
M  V30 6428 C 603.033 -2.3757 -4.75115 0
M  V30 6429 C 602.072 -3.57477 -4.96867 0
M  V30 6430 N 601.209 -3.37632 -6.15588 0
M  V30 6431 H 606.049 -2.38467 -1.78711 0
M  V30 6432 H 603.586 -1.18415 -0.872715 0
M  V30 6433 H 605.544 -1.23558 -3.98484 0
M  V30 6434 H 604.174 -0.404592 -3.20254 0
M  V30 6435 H 603.226 -2.75432 -2.62376 0
M  V30 6436 H 604.538 -3.45678 -3.59594 0
M  V30 6437 H 603.692 -2.2654 -5.62818 0
M  V30 6438 H 602.431 -1.45834 -4.65386 0
M  V30 6439 H 601.436 -3.68961 -4.07612 0
M  V30 6440 H 602.661 -4.50167 -5.08455 0
M  V30 6441 H 600.607 -2.48596 -6.07072 0
M  V30 6442 H 600.524 -4.20401 -6.2833 0
M  V30 6443 H 601.792 -3.30375 -7.06026 0
M  V30 6444 N 606.021 0.929856 -1.27246 0
M  V30 6445 C 606.931 2.0636 -1.11592 0
M  V30 6446 C 607.947 1.73938 -0.046496 0
M  V30 6447 O 609.123 1.9981 -0.252544 0
M  V30 6448 C 606.188 3.38213 -0.762437 0
M  V30 6449 C 605.249 3.84346 -1.9125 0
M  V30 6450 C 604.482 5.09906 -1.57579 0
M  V30 6451 O 604.705 5.68354 -0.482694 0
M  V30 6452 O 603.639 5.51359 -2.41426 0
M  V30 6453 H 607.465 2.22478 -2.0673 0
M  V30 6454 H 605.05 1.04865 -1.06413 0
M  V30 6455 H 606.932 4.1741 -0.57854 0
M  V30 6456 H 605.607 3.23307 0.159439 0
M  V30 6457 H 604.514 3.06045 -2.15144 0
M  V30 6458 H 605.847 4.0379 -2.81451 0
M  V30 6459 N 607.499 1.09233 1.13605 0
M  V30 6460 C 608.447 0.724572 2.21027 0
M  V30 6461 C 609.441 -0.273595 1.67176 0
M  V30 6462 O 610.647 -0.135266 1.79491 0
M  V30 6463 H 607.022 0.216319 0.720215 0
M  V30 6464 H 608.993 1.63975 2.49309 0
M  V30 6465 C 607.742 0.159126 3.47336 0
M  V30 6466 H 607.065 0.918387 3.89109 0
M  V30 6467 H 608.505 -0.0602851 4.23957 0
M  V30 6468 C 606.964 -1.10514 3.18258 0
M  V30 6469 O 607.494 -2.18869 3.36837 0
M  V30 6470 N 605.7 -1.01886 2.72154 0
M  V30 6471 H 605.247 -0.137027 2.57235 0
M  V30 6472 H 605.205 -1.8655 2.53074 0
M  V30 6473 N 608.977 -1.30795 0.87923 0
M  V30 6474 C 610.225 -1.95974 0.493809 0
M  V30 6475 C 610.546 -1.69787 -0.959021 0
M  V30 6476 O 609.816 -1.01832 -1.67353 0
M  V30 6477 H 608.396 -0.725083 0.179622 0
M  V30 6478 H 611.058 -1.59432 1.12105 0
M  V30 6479 H 610.154 -3.05058 0.659263 0
M  V30 6480 N 610.455 -0.639598 -1.44038 0
M  V30 6481 C 611.403 0.0723409 -2.32487 0
M  V30 6482 C 612.397 0.827129 -1.47834 0
M  V30 6483 O 613.603 0.73907 -1.64127 0
M  V30 6484 H 609.978 0.0421696 -0.750817 0
M  V30 6485 H 611.949 -0.691593 -2.90275 0
M  V30 6486 C 610.698 1.03452 -3.31953 0
M  V30 6487 H 610.021 0.46315 -3.97108 0
M  V30 6488 H 611.461 1.502 -3.96505 0
M  V30 6489 C 609.92 2.12392 -2.61518 0
M  V30 6490 O 610.45 3.2059 -2.42044 0
M  V30 6491 N 608.656 1.88563 -2.21116 0
M  V30 6492 H 608.203 1.00577 -2.37154 0
M  V30 6493 H 608.161 2.61651 -1.74316 0
M  V30 6494 N 611.933 1.52934 -0.380664 0
M  V30 6495 C 613.163 2.05587 0.204302 0
M  V30 6496 C 613.571 1.25288 1.41773 0
M  V30 6497 O 612.914 0.290394 1.8139 0
M  V30 6498 C 612.976 3.53624 0.647324 0
M  V30 6499 C 612.64 4.54765 -0.451465 0
M  V30 6500 C 613.637 5.03226 -1.30614 0
M  V30 6501 C 611.322 4.98508 -0.616025 0
M  V30 6502 C 613.316 5.94046 -2.31058 0
M  V30 6503 C 611.003 5.89131 -1.62381 0
M  V30 6504 C 612.001 6.36792 -2.46952 0
M  V30 6505 O 611.689 7.25626 -3.46009 0
M  V30 6506 H 611.421 0.675013 0.0365198 0
M  V30 6507 H 613.975 1.98125 -0.541827 0
M  V30 6508 H 612.205 3.58676 1.44529 0
M  V30 6509 H 613.894 3.89061 1.15698 0
M  V30 6510 H 614.66 4.70167 -1.19027 0
M  V30 6511 H 610.539 4.60989 0.0324987 0
M  V30 6512 H 614.083 6.3117 -2.97104 0
M  V30 6513 H 609.98 6.21603 -1.7401 0
M  V30 6514 H 610.748 7.43664 -3.41916 0
M  V30 6515 N 613.412 0.11024 1.57214 0
M  V30 6516 C 614.661 -0.549638 1.94067 0
M  V30 6517 C 614.974 -1.68388 0.995234 0
M  V30 6518 O 616.18 -2.40593 1.25807 0
M  V30 6519 C 614.636 -1.02912 3.44873 0
M  V30 6520 C 614.244 0.0761861 4.47935 0
M  V30 6521 C 615.988 -1.66087 3.9066 0
M  V30 6522 C 613.895 -0.419502 5.8991 0
M  V30 6523 H 612.825 -0.209092 0.724428 0
M  V30 6524 H 615.476 0.188683 1.82527 0
M  V30 6525 H 613.858 -1.82159 3.51616 0
M  V30 6526 H 615.032 0.852185 4.52851 0
M  V30 6527 H 613.347 0.614052 4.11847 0
M  V30 6528 H 615.944 -2.04272 4.94143 0
M  V30 6529 H 616.287 -2.53591 3.30148 0
M  V30 6530 H 616.82 -0.933959 3.86681 0
M  V30 6531 H 613.559 0.419277 6.54158 0
M  V30 6532 H 613.079 -1.16217 5.88433 0
M  V30 6533 H 614.758 -0.883577 6.40938 0
M  V30 6534 N 614.89 -1.56749 -0.16351 0
M  V30 6535 C 615.823 -1.9213 -1.23132 0
M  V30 6536 C 616.801 -0.785047 -1.42393 0
M  V30 6537 O 617.985 -1.0391 -1.57273 0
M  V30 6538 C 615.112 -2.17901 -2.59301 0
M  V30 6539 C 614.158 -3.40576 -2.5673 0
M  V30 6540 S 614.991 -4.94689 -2.05045 0
M  V30 6541 C 616.147 -5.23564 -3.42975 0
M  V30 6542 H 616.38 -2.824 -0.929383 0
M  V30 6543 H 613.913 -1.4994 -0.368418 0
M  V30 6544 H 615.871 -2.33429 -3.3767 0
M  V30 6545 H 614.532 -1.28324 -2.86691 0
M  V30 6546 H 613.725 -3.55833 -3.5693 0
M  V30 6547 H 613.327 -3.24204 -1.86462 0
M  V30 6548 H 615.619 -5.16019 -4.3901 0
M  V30 6549 H 616.562 -6.25134 -3.32586 0
M  V30 6550 H 616.97 -4.51113 -3.39348 0
M  V30 6551 N 616.368 0.432326 -1.51554 0
M  V30 6552 C 617.598 1.2019 -1.68042 0
M  V30 6553 C 618.006 1.85356 -0.379434 0
M  V30 6554 O 617.349 1.71724 0.652427 0
M  V30 6555 C 617.411 2.32387 -2.74292 0
M  V30 6556 C 617.075 1.87548 -4.16743 0
M  V30 6557 C 618.072 1.37611 -5.01357 0
M  V30 6558 C 615.757 1.95087 -4.62868 0
M  V30 6559 C 617.751 0.958069 -6.30159 0
M  V30 6560 C 615.438 1.52894 -5.91664 0
M  V30 6561 C 616.436 1.03336 -6.75137 0
M  V30 6562 O 616.124 0.617435 -8.01525 0
M  V30 6563 H 615.856 0.368132 -0.56697 0
M  V30 6564 H 618.41 0.517875 -1.98764 0
M  V30 6565 H 616.64 3.04082 -2.38895 0
M  V30 6566 H 618.329 2.94235 -2.79608 0
M  V30 6567 H 619.095 1.31178 -4.66923 0
M  V30 6568 H 614.974 2.32606 -3.98015 0
M  V30 6569 H 618.518 0.570562 -6.95263 0
M  V30 6570 H 614.415 1.58999 -6.25611 0
M  V30 6571 H 615.183 0.742835 -8.15122 0
M  V30 6572 N 617.846 1.41785 0.688094 0
M  V30 6573 C 618.809 1.43936 1.78368 0
M  V30 6574 C 619.809 0.328866 1.57401 0
M  V30 6575 O 620.999 0.589093 1.63937 0
M  V30 6576 C 618.131 1.25804 3.16838 0
M  V30 6577 H 619.324 2.41472 1.77852 0
M  V30 6578 H 616.877 1.28037 0.896448 0
M  V30 6579 H 617.612 0.291386 3.22988 0
M  V30 6580 H 617.397 2.06272 3.33458 0
M  V30 6581 H 618.887 1.30162 3.96797 0
M  V30 6582 N 619.324 -0.923095 1.27737 0
M  V30 6583 C 620.74 -1.19985 1.05241 0
M  V30 6584 C 620.94 -2.00391 -0.21113 0
M  V30 6585 O 619.996 -2.35324 -0.915366 0
M  V30 6586 C 621.309 -1.94352 2.29451 0
M  V30 6587 C 622.857 -2.07273 2.34536 0
M  V30 6588 C 623.332 -2.85046 3.58487 0
M  V30 6589 N 624.823 -2.92612 3.59072 0
M  V30 6590 C 625.558 -3.53266 4.51654 0
M  V30 6591 N 625.054 -4.15274 5.54545 0
M  V30 6592 N 626.847 -3.50714 4.39268 0
M  V30 6593 H 618.998 -0.386042 2.08862 0
M  V30 6594 H 621.261 -0.233407 0.918817 0
M  V30 6595 H 620.967 -1.42692 3.21453 0
M  V30 6596 H 620.841 -2.94947 2.3513 0
M  V30 6597 H 623.228 -2.58117 1.43037 0
M  V30 6598 H 623.309 -1.05884 2.32857 0
M  V30 6599 H 622.953 -2.34884 4.50324 0
M  V30 6600 H 622.883 -3.8673 3.57418 0
M  V30 6601 H 625.374 -2.48547 2.84663 0
M  V30 6602 H 625.687 -4.59507 6.21348 0
M  V30 6603 H 624.032 -4.13806 5.58382 0
M  V30 6604 H 627.223 -3.01475 3.58093 0
M  V30 6605 H 627.396 -3.97693 5.1161 0
M  V30 6606 N 620.802 -1.09834 -1.13024 0
M  V30 6607 C 621.765 -0.745058 -2.16752 0
M  V30 6608 C 622.765 0.227435 -1.59183 0
M  V30 6609 O 623.955 0.0050786 -1.74199 0
M  V30 6610 C 621.087 -0.102543 -3.40746 0
M  V30 6611 H 622.28 -1.66375 -2.49518 0
M  V30 6612 H 619.833 -0.898061 -1.27924 0
M  V30 6613 H 620.568 0.827177 -3.13573 0
M  V30 6614 H 620.353 -0.80235 -3.83803 0
M  V30 6615 H 621.843 0.129082 -4.174 0
M  V30 6616 N 622.28 1.30327 -0.886154 0
M  V30 6617 C 623.508 2.00254 -0.520176 0
M  V30 6618 C 623.923 1.66419 0.891637 0
M  V30 6619 O 623.28 0.901951 1.58654 0
M  V30 6620 C 623.331 3.54916 -0.686775 0
M  V30 6621 O 623.052 3.87547 -2.04301 0
M  V30 6622 C 624.553 4.42115 -0.323945 0
M  V30 6623 H 621.773 0.640204 -0.200947 0
M  V30 6624 H 624.317 1.66183 -1.19178 0
M  V30 6625 H 622.472 3.8735 -0.0625273 0
M  V30 6626 H 622.886 4.82247 -2.06249 0
M  V30 6627 H 624.36 5.49808 -0.491407 0
M  V30 6628 H 624.837 4.32953 0.73811 0
M  V30 6629 H 625.443 4.15129 -0.924565 0
M  V30 6630 N 623.758 0.647228 1.43697 0
M  V30 6631 C 624.983 0.164083 2.0675 0
M  V30 6632 C 625.408 -1.15892 1.48158 0
M  V30 6633 O 624.766 -1.71459 0.589194 0
M  V30 6634 C 624.814 0.0800368 3.60511 0
M  V30 6635 O 623.918 -0.959453 4.01084 0
M  V30 6636 H 623.259 0.0921288 0.657578 0
M  V30 6637 H 625.789 0.88846 1.84303 0
M  V30 6638 H 625.799 -0.105263 4.07864 0
M  V30 6639 H 624.474 1.04586 4.02535 0
M  V30 6640 H 623.051 -0.747425 3.65333 0
M  V30 6641 N 625.236 -1.5273 0.388769 0
M  V30 6642 C 626.484 -2.01174 -0.193208 0
M  V30 6643 C 626.805 -1.27705 -1.47365 0
M  V30 6644 O 626.075 -0.396966 -1.91836 0
M  V30 6645 H 624.655 -0.743287 -0.0743871 0
M  V30 6646 H 627.317 -1.87826 0.520336 0
M  V30 6647 H 626.413 -3.09477 -0.403803 0
M  V30 6648 N 626.714 -0.118576 -1.57153 0
M  V30 6649 C 627.991 0.583062 -1.86708 0
M  V30 6650 C 628.371 1.84841 -1.01967 0
M  V30 6651 O 627.719 2.28288 -0.0984673 0
M  V30 6652 C 627.929 0.875912 -3.3783 0
M  V30 6653 C 629.277 1.22916 -4.0642 0
M  V30 6654 O 630.301 0.966188 -3.42846 0
M  V30 6655 O 629.16 1.72269 -5.18638 0
M  V30 6656 H 626.254 0.294185 -0.772906 0
M  V30 6657 H 628.8 -0.153048 -1.69008 0
M  V30 6658 H 627.572 -0.0207776 -3.91294 0
M  V30 6659 H 627.195 1.66719 -3.60958 0
M  V30 6660 N 628.193 1.56834 0.155195 0
M  V30 6661 C 629.14 1.97646 1.19184 0
M  V30 6662 C 630.11 0.842788 1.4313 0
M  V30 6663 O 631.295 1.1042 1.55602 0
M  V30 6664 C 628.435 2.35527 2.52232 0
M  V30 6665 C 627.548 3.62147 2.35529 0
M  V30 6666 C 626.683 3.89167 3.61555 0
M  V30 6667 C 625.722 5.09084 3.39853 0
M  V30 6668 N 624.859 5.32156 4.5799 0
M  V30 6669 H 629.699 2.8601 0.836802 0
M  V30 6670 H 627.236 1.41507 0.401758 0
M  V30 6671 H 629.194 2.55516 3.29799 0
M  V30 6672 H 627.824 1.50253 2.85699 0
M  V30 6673 H 626.876 3.4998 1.49057 0
M  V30 6674 H 628.188 4.49871 2.15448 0
M  V30 6675 H 627.342 4.09611 4.47553 0
M  V30 6676 H 626.081 2.9985 3.84632 0
M  V30 6677 H 625.086 4.88522 2.52243 0
M  V30 6678 H 626.311 5.99947 3.18183 0
M  V30 6679 H 624.257 4.45791 4.81255 0
M  V30 6680 H 624.174 6.14133 4.40882 0
M  V30 6681 H 625.442 5.57091 5.45225 0
M  V30 6682 N 629.671 -0.424282 1.51781 0
M  V30 6683 C 630.601 -1.52305 1.7699 0
M  V30 6684 C 631.582 -1.5839 0.620209 0
M  V30 6685 O 632.767 -1.73908 0.864268 0
M  V30 6686 C 629.897 -2.90271 1.90683 0
M  V30 6687 C 628.851 -2.99043 3.06198 0
M  V30 6688 C 628.177 -4.39116 3.05092 0
M  V30 6689 C 629.477 -2.7192 4.45934 0
M  V30 6690 H 631.171 -1.31461 2.68995 0
M  V30 6691 H 628.717 -0.630985 1.29439 0
M  V30 6692 H 630.67 -3.6711 2.06901 0
M  V30 6693 H 629.394 -3.12376 0.953365 0
M  V30 6694 H 628.053 -2.24646 2.89706 0
M  V30 6695 H 627.701 -4.58207 2.07498 0
M  V30 6696 H 627.401 -4.45912 3.82669 0
M  V30 6697 H 628.925 -5.17911 3.2342 0
M  V30 6698 H 630.339 -3.38487 4.62709 0
M  V30 6699 H 628.736 -2.90111 5.25315 0
M  V30 6700 H 629.806 -1.67445 4.55072 0
M  V30 6701 N 631.149 -1.42148 -0.680565 0
M  V30 6702 C 632.097 -1.45401 -1.81552 0
M  V30 6703 C 633.091 -0.33036 -1.66147 0
M  V30 6704 O 634.297 -0.503103 -1.72826 0
M  V30 6705 H 630.672 -0.455265 -0.59853 0
M  V30 6706 H 632.643 -2.41024 -1.75926 0
M  V30 6707 C 631.392 -1.36769 -3.19671 0
M  V30 6708 H 630.715 -2.22525 -3.32149 0
M  V30 6709 H 632.155 -1.43106 -3.9912 0
M  V30 6710 C 630.614 -0.0817752 -3.36801 0
M  V30 6711 O 631.144 0.867707 -3.92216 0
M  V30 6712 N 629.35 -0.000799811 -2.906 0
M  V30 6713 H 628.897 -0.774231 -2.4569 0
M  V30 6714 H 628.855 0.858961 -3.02439 0
M  V30 6715 N 632.627 0.916307 -1.28225 0
M  V30 6716 C 633.575 2.03977 -1.11786 0
M  V30 6717 C 634.569 1.69358 -0.0378265 0
M  V30 6718 O 635.775 1.78925 -0.196405 0
M  V30 6719 H 632.15 0.66829 -0.344809 0
M  V30 6720 H 634.121 2.14985 -2.06939 0
M  V30 6721 C 632.87 3.38518 -0.7938 0
M  V30 6722 H 632.193 3.65649 -1.61682 0
M  V30 6723 H 633.633 4.17864 -0.718719 0
M  V30 6724 C 632.092 3.33134 0.502353 0
M  V30 6725 O 632.622 3.71281 1.53341 0
M  V30 6726 N 630.828 2.86229 0.502147 0
M  V30 6727 H 630.375 2.55382 -0.337338 0
M  V30 6728 H 630.333 2.83009 1.36942 0
M  V30 6729 N 634.105 1.10431 1.1244 0
M  V30 6730 C 635.053 0.747974 2.20246 0
M  V30 6731 C 636.047 -0.255848 1.67457 0
M  V30 6732 O 637.253 -0.116221 1.79624 0
M  V30 6733 H 633.628 0.223946 0.71788 0
M  V30 6734 H 635.599 1.6661 2.47556 0
M  V30 6735 C 634.348 0.195957 3.47147 0
M  V30 6736 H 633.671 0.959606 3.88113 0
M  V30 6737 H 635.111 -0.0153154 4.23997 0
M  V30 6738 C 633.57 -1.07132 3.19413 0
M  V30 6739 O 634.1 -2.15284 3.3914 0
M  V30 6740 N 632.306 -0.98994 2.73219 0
M  V30 6741 H 631.853 -0.109736 2.57366 0
M  V30 6742 H 631.811 -1.83856 2.55038 0
M  V30 6743 N 635.583 -1.29855 0.893053 0
M  V30 6744 C 636.53 -2.27909 0.364161 0
M  V30 6745 C 637.5 -1.56726 -0.550093 0
M  V30 6746 O 638.685 -1.84747 -0.47677 0
M  V30 6747 C 635.825 -3.42678 -0.408178 0
M  V30 6748 C 634.938 -4.28659 0.536212 0
M  V30 6749 C 634.073 -5.30599 -0.252521 0
M  V30 6750 C 633.112 -6.08234 0.686822 0
M  V30 6751 N 632.249 -7.02068 -0.0670902 0
M  V30 6752 H 637.089 -2.72531 1.20544 0
M  V30 6753 H 634.626 -1.34047 0.605779 0
M  V30 6754 H 636.584 -4.07986 -0.871962 0
M  V30 6755 H 635.214 -2.99103 -1.21397 0
M  V30 6756 H 634.266 -3.63584 1.1185 0
M  V30 6757 H 635.578 -4.8274 1.25552 0
M  V30 6758 H 634.732 -6.01694 -0.777801 0
M  V30 6759 H 633.471 -4.77233 -1.005 0
M  V30 6760 H 632.476 -5.3601 1.22366 0
M  V30 6761 H 633.701 -6.63689 1.43852 0
M  V30 6762 H 631.647 -6.5108 -0.801955 0
M  V30 6763 H 631.564 -7.53675 0.59243 0
M  V30 6764 H 632.832 -7.77392 -0.572851 0
M  V30 6765 N 637.061 -0.65484 -1.43351 0
M  V30 6766 C 638.308 -0.168892 -2.01794 0
M  V30 6767 C 638.636 1.2177 -1.51665 0
M  V30 6768 O 637.891 1.82717 -0.70092 0
M  V30 6769 C 638.19 -0.130424 -3.57162 0
M  V30 6770 C 637.856 -1.45898 -4.26643 0
M  V30 6771 C 636.518 -1.82279 -4.4534 0
M  V30 6772 C 638.87 -2.33485 -4.65976 0
M  V30 6773 C 636.198 -3.0591 -5.00635 0
M  V30 6774 C 638.55 -3.5641 -5.22642 0
M  V30 6775 C 637.214 -3.92985 -5.39555 0
M  V30 6776 H 636.484 -0.061802 -0.738418 0
M  V30 6777 H 639.131 -0.845869 -1.71806 0
M  V30 6778 H 637.436 0.630008 -3.86702 0
M  V30 6779 H 639.133 0.262465 -4.0014 0
M  V30 6780 H 635.723 -1.16591 -4.12437 0
M  V30 6781 H 639.907 -2.06668 -4.51223 0
M  V30 6782 H 635.163 -3.34295 -5.11915 0
M  V30 6783 H 639.337 -4.24495 -5.52066 0
M  V30 6784 H 636.964 -4.88862 -5.82167 0
M  V30 6785 N 638.539 1.52521 -0.396863 0
M  V30 6786 C 639.764 2.06571 0.185258 0
M  V30 6787 C 640.189 1.26605 1.39115 0
M  V30 6788 O 639.547 0.293055 1.78916 0
M  V30 6789 C 639.595 3.5674 0.526189 0
M  V30 6790 O 638.699 3.7929 1.61903 0
M  V30 6791 H 638.04 0.663712 0.0195474 0
M  V30 6792 H 640.57 1.966 -0.566519 0
M  V30 6793 H 640.58 4.00311 0.788338 0
M  V30 6794 H 639.255 4.14379 -0.355397 0
M  V30 6795 H 637.832 3.47605 1.35 0
M  V30 6796 N 640.017 0.126909 1.57088 0
M  V30 6797 C 640.947 -0.816847 2.18746 0
M  V30 6798 C 641.928 -1.27161 1.12979 0
M  V30 6799 O 643.113 -1.33279 1.41246 0
M  V30 6800 C 640.243 -2.06398 2.79315 0
M  V30 6801 C 639.197 -1.74673 3.90735 0
M  V30 6802 C 638.523 -3.06482 4.38147 0
M  V30 6803 C 639.823 -1.0089 5.12463 0
M  V30 6804 H 641.517 -0.303032 2.97863 0
M  V30 6805 H 639.063 -0.144314 1.43275 0
M  V30 6806 H 641.016 -2.72885 3.2111 0
M  V30 6807 H 639.74 -2.60118 1.975 0
M  V30 6808 H 638.399 -1.10572 3.49527 0
M  V30 6809 H 638.047 -3.58152 3.5318 0
M  V30 6810 H 637.747 -2.86025 5.13287 0
M  V30 6811 H 639.271 -3.74073 4.82599 0
M  V30 6812 H 640.685 -1.57546 5.51228 0
M  V30 6813 H 639.082 -0.905006 5.93237 0
M  V30 6814 H 640.152 0.00297335 4.849 0
M  V30 6815 N 641.495 -1.56914 -0.146875 0
M  V30 6816 C 642.735 -1.85163 -0.86568 0
M  V30 6817 C 643.099 -0.711215 -1.78342 0
M  V30 6818 O 644.3 -0.874754 -2.54168 0
M  V30 6819 C 642.571 -3.18593 -1.61967 0
M  V30 6820 S 644.13 -3.68397 -2.38388 0
M  V30 6821 H 640.948 -0.6494 -0.289483 0
M  V30 6822 H 643.55 -1.95096 -0.125679 0
M  V30 6823 H 642.254 -3.99562 -0.93694 0
M  V30 6824 H 641.785 -3.11666 -2.40058 0
M  V30 6825 H 643.8 -3.37672 -3.63582 0
M  V30 6826 N 642.974 0.416227 -1.52004 0
M  V30 6827 C 644.199 1.19029 -1.69843 0
M  V30 6828 C 644.624 1.83708 -0.404103 0
M  V30 6829 O 643.982 1.69711 0.637787 0
M  V30 6830 C 644.03 2.23439 -2.83032 0
M  V30 6831 O 643.134 3.29419 -2.48106 0
M  V30 6832 H 642.475 0.347785 -0.565634 0
M  V30 6833 H 645.005 0.488871 -1.98674 0
M  V30 6834 H 645.015 2.67884 -3.07737 0
M  V30 6835 H 643.69 1.75745 -3.76944 0
M  V30 6836 H 642.267 2.90303 -2.34048 0
M  V30 6837 N 644.452 1.42507 0.673017 0
M  V30 6838 C 645.701 1.42364 1.42883 0
M  V30 6839 C 646.014 0.0441598 1.9555 0
M  V30 6840 O 647.22 -0.0798679 2.71382 0
M  V30 6841 C 645.676 2.5043 2.58482 0
M  V30 6842 C 645.284 3.94392 2.12506 0
M  V30 6843 C 647.028 2.59455 3.35981 0
M  V30 6844 C 644.935 4.93964 3.25198 0
M  V30 6845 H 643.865 0.52951 0.536782 0
M  V30 6846 H 646.516 1.68422 0.728448 0
M  V30 6847 H 644.898 2.1754 3.30896 0
M  V30 6848 H 646.072 4.36645 1.47233 0
M  V30 6849 H 644.387 3.89233 1.4794 0
M  V30 6850 H 646.984 3.31025 4.19912 0
M  V30 6851 H 647.327 1.63869 3.82691 0
M  V30 6852 H 647.86 2.91549 2.70637 0
M  V30 6853 H 644.599 5.91034 2.83477 0
M  V30 6854 H 644.119 4.56341 3.89247 0
M  V30 6855 H 645.798 5.15763 3.90637 0
M  V30 6856 N 645.93 -0.909495 1.28709 0
M  V30 6857 C 647.346 -1.18862 1.06508 0
M  V30 6858 C 647.546 -2.00604 -0.189864 0
M  V30 6859 O 646.602 -2.36281 -0.890355 0
M  V30 6860 C 647.915 -1.91908 2.31499 0
M  V30 6861 C 649.463 -2.04773 2.36721 0
M  V30 6862 C 649.938 -2.81228 3.6149 0
M  V30 6863 N 651.429 -2.88787 3.62155 0
M  V30 6864 C 652.164 -3.48455 4.55375 0
M  V30 6865 N 651.66 -4.09369 5.58918 0
M  V30 6866 N 653.453 -3.46035 4.42963 0
M  V30 6867 H 645.604 -0.363867 2.0926 0
M  V30 6868 H 647.867 -0.223649 0.921241 0
M  V30 6869 H 647.573 -1.39275 3.22948 0
M  V30 6870 H 647.447 -2.92436 2.38245 0
M  V30 6871 H 649.834 -2.56585 1.45767 0
M  V30 6872 H 649.915 -1.03408 2.33967 0
M  V30 6873 H 649.559 -2.30094 4.5279 0
M  V30 6874 H 649.489 -3.82917 3.61499 0
M  V30 6875 H 651.98 -2.45514 2.87283 0
M  V30 6876 H 652.293 -4.52891 6.26187 0
M  V30 6877 H 650.638 -4.0786 5.62739 0
M  V30 6878 H 653.829 -2.9766 3.6127 0
M  V30 6879 H 654.002 -3.92244 5.15799 0
M  V30 6880 N 647.408 -1.11026 -1.11852 0
M  V30 6881 C 648.356 -0.759643 -2.19846 0
M  V30 6882 C 649.35 0.246964 -1.6759 0
M  V30 6883 O 650.556 0.106693 -1.79684 0
M  V30 6884 H 646.931 -0.22775 -0.716683 0
M  V30 6885 H 648.902 -1.6792 -2.46669 0
M  V30 6886 C 647.651 -0.214364 -3.47039 0
M  V30 6887 H 646.974 -0.980175 -3.87599 0
M  V30 6888 H 648.414 -0.00717047 -4.23999 0
M  V30 6889 C 646.873 1.05436 -3.19976 0
M  V30 6890 O 647.403 2.13483 -3.40276 0
M  V30 6891 N 645.609 0.975436 -2.7374 0
M  V30 6892 H 645.156 0.0960853 -2.57421 0
M  V30 6893 H 645.114 1.82501 -2.5601 0
M  V30 6894 N 648.886 1.2938 -0.899927 0
M  V30 6895 C 650.135 1.9483 -0.521937 0
M  V30 6896 C 650.448 1.71725 0.936473 0
M  V30 6897 O 651.654 2.31282 1.42199 0
M  V30 6898 C 650.11 3.48911 -0.88255 0
M  V30 6899 C 649.718 3.80815 -2.35974 0
M  V30 6900 C 651.462 4.20595 -0.57448 0
M  V30 6901 C 649.369 5.28142 -2.66121 0
M  V30 6902 H 648.299 0.729285 -0.191468 0
M  V30 6903 H 650.95 1.47103 -1.09695 0
M  V30 6904 H 649.332 3.95293 -0.236459 0
M  V30 6905 H 650.506 3.45291 -3.05141 0
M  V30 6906 H 648.821 3.22271 -2.63686 0
M  V30 6907 H 651.418 5.29031 -0.776556 0
M  V30 6908 H 651.761 4.13442 0.487005 0
M  V30 6909 H 652.294 3.79945 -1.17842 0
M  V30 6910 H 649.033 5.4036 -3.71068 0
M  V30 6911 H 648.553 5.64913 -2.01578 0
M  V30 6912 H 650.232 5.95738 -2.52399 0
M  V30 6913 N 650.364 0.662433 1.43002 0
M  V30 6914 C 651.589 0.186003 2.06564 0
M  V30 6915 C 652.014 -1.14314 1.49379 0
M  V30 6916 O 651.372 -1.70824 0.607346 0
M  V30 6917 C 651.42 0.118269 3.60406 0
M  V30 6918 O 650.524 -0.916859 4.02079 0
M  V30 6919 H 649.865 0.0990981 0.656563 0
M  V30 6920 H 652.395 0.907958 1.8335 0
M  V30 6921 H 652.405 -0.0619981 4.07953 0
M  V30 6922 H 651.08 1.08849 4.01403 0
M  V30 6923 H 649.657 -0.708635 3.66105 0
M  V30 6924 N 651.842 -1.52309 0.404946 0
M  V30 6925 C 652.774 -2.24579 -0.45791 0
M  V30 6926 C 653.787 -1.2739 -1.01369 0
M  V30 6927 O 654.976 -1.53363 -0.91335 0
M  V30 6928 C 652.076 -2.9608 -1.64893 0
M  V30 6929 C 651.249 -4.20106 -1.21777 0
M  V30 6930 C 650.308 -4.74468 -2.27523 0
M  V30 6931 O 649.334 -5.37157 -1.88285 0
M  V30 6932 N 650.536 -4.55678 -3.59635 0
M  V30 6933 H 653.301 -2.99265 0.161341 0
M  V30 6934 H 650.862 -1.60228 0.232107 0
M  V30 6935 H 652.854 -3.29344 -2.35191 0
M  V30 6936 H 651.424 -2.24606 -2.17419 0
M  V30 6937 H 650.644 -3.92704 -0.343071 0
M  V30 6938 H 651.932 -5.00658 -0.906596 0
M  V30 6939 H 651.33 -4.05673 -3.94266 0
M  V30 6940 H 649.887 -4.9339 -4.25922 0
M  V30 6941 N 653.32 -0.135238 -1.57019 0
M  V30 6942 C 654.566 0.519563 -1.96032 0
M  V30 6943 C 654.899 1.65284 -1.01955 0
M  V30 6944 O 654.174 1.94408 -0.059727 0
M  V30 6945 C 654.457 1.0369 -3.44848 0
M  V30 6946 C 654.31 -0.0940754 -4.49702 0
M  V30 6947 C 655.629 1.92254 -3.95887 0
M  V30 6948 H 652.748 0.18739 -0.712779 0
M  V30 6949 H 655.39 -0.214086 -1.8879 0
M  V30 6950 H 653.54 1.66209 -3.5115 0
M  V30 6951 H 655.212 -0.73 -4.55487 0
M  V30 6952 H 653.455 -0.754924 -4.27181 0
M  V30 6953 H 654.126 0.309419 -5.51132 0
M  V30 6954 H 656.602 1.39581 -3.9199 0
M  V30 6955 H 655.478 2.25364 -5.00502 0
M  V30 6956 H 655.739 2.85513 -3.37543 0
M  V30 6957 N 654.798 1.5699 0.138552 0
M  V30 6958 C 655.728 2.01933 1.17241 0
M  V30 6959 C 656.709 0.90033 1.44319 0
M  V30 6960 O 657.894 1.16872 1.55095 0
M  V30 6961 C 655.024 2.40711 2.50351 0
M  V30 6962 C 653.978 3.55874 2.37776 0
M  V30 6963 C 653.304 3.80491 3.75674 0
M  V30 6964 C 654.604 4.8826 1.85472 0
M  V30 6965 H 656.298 2.88551 0.798672 0
M  V30 6966 H 653.844 1.3882 0.382743 0
M  V30 6967 H 655.797 2.70754 3.22909 0
M  V30 6968 H 654.521 1.5104 2.89576 0
M  V30 6969 H 653.18 3.2601 1.67669 0
M  V30 6970 H 652.828 2.88057 4.12349 0
M  V30 6971 H 652.528 4.57998 3.68119 0
M  V30 6972 H 654.052 4.12967 4.49767 0
M  V30 6973 H 655.466 5.16965 2.4783 0
M  V30 6974 H 653.863 5.69631 1.88787 0
M  V30 6975 H 654.933 4.78071 0.810935 0
M  V30 6976 N 656.276 -0.40816 1.52223 0
M  V30 6977 C 657.186 -1.52202 1.78526 0
M  V30 6978 C 658.202 -1.60546 0.670892 0
M  V30 6979 O 659.378 -1.77242 0.956404 0
M  V30 6980 C 656.443 -2.87928 1.93128 0
M  V30 6981 C 655.504 -2.89463 3.17033 0
M  V30 6982 C 654.737 -4.18715 3.30929 0
M  V30 6983 O 654.96 -5.12662 2.50067 0
M  V30 6984 O 653.894 -4.27125 4.24084 0
M  V30 6985 H 657.72 -1.32911 2.73072 0
M  V30 6986 H 655.305 -0.594112 1.37079 0
M  V30 6987 H 657.187 -3.68426 2.04549 0
M  V30 6988 H 655.862 -3.07285 1.01772 0
M  V30 6989 H 654.769 -2.07815 3.11069 0
M  V30 6990 H 656.102 -2.75055 4.08174 0
M  V30 6991 N 657.755 -1.42862 -0.66545 0
M  V30 6992 C 658.702 -1.4707 -1.77874 0
M  V30 6993 C 659.672 -0.321654 -1.62956 0
M  V30 6994 O 660.857 -0.52707 -1.83376 0
M  V30 6995 C 657.997 -1.38788 -3.15962 0
M  V30 6996 C 657.11 -2.63801 -3.42101 0
M  V30 6997 C 656.245 -2.47594 -4.69969 0
M  V30 6998 C 655.284 -3.67936 -4.89172 0
M  V30 6999 N 654.421 -3.50614 -6.08288 0
M  V30 7000 H 659.261 -2.42204 -1.73613 0
M  V30 7001 H 656.798 -1.20239 -0.847401 0
M  V30 7002 H 658.756 -1.31982 -3.95773 0
M  V30 7003 H 657.386 -0.472431 -3.19324 0
M  V30 7004 H 656.438 -2.80935 -2.56475 0
M  V30 7005 H 657.75 -3.53228 -3.52181 0
M  V30 7006 H 656.904 -2.38427 -5.57886 0
M  V30 7007 H 655.643 -1.55672 -4.62188 0
M  V30 7008 H 654.648 -3.77525 -3.99694 0
M  V30 7009 H 655.873 -4.60851 -4.98792 0
M  V30 7010 H 653.819 -2.61417 -6.01662 0
M  V30 7011 H 653.736 -4.33634 -6.19272 0
M  V30 7012 H 655.004 -3.45276 -6.98859 0
M  V30 7013 N 659.233 0.902656 -1.29189 0
M  V30 7014 C 660.18 2.00643 -1.14066 0
M  V30 7015 C 661.15 1.66064 -0.0347756 0
M  V30 7016 O 662.335 1.8973 -0.201752 0
M  V30 7017 C 659.475 3.35214 -0.820104 0
M  V30 7018 C 658.588 3.82594 -2.00614 0
M  V30 7019 C 657.723 5.05727 -1.62522 0
M  V30 7020 C 656.762 5.45469 -2.77724 0
M  V30 7021 N 655.899 6.59789 -2.40048 0
M  V30 7022 H 660.739 2.1291 -2.08502 0
M  V30 7023 H 658.276 1.04271 -1.03759 0
M  V30 7024 H 660.234 4.12643 -0.614949 0
M  V30 7025 H 658.864 3.22682 0.0873452 0
M  V30 7026 H 657.916 3.01226 -2.32308 0
M  V30 7027 H 659.228 4.07999 -2.86946 0
M  V30 7028 H 658.382 5.90732 -1.38277 0
M  V30 7029 H 657.121 4.82155 -0.733333 0
M  V30 7030 H 656.126 4.59 -3.02653 0
M  V30 7031 H 657.351 5.71024 -3.67572 0
M  V30 7032 H 655.297 6.37826 -1.53343 0
M  V30 7033 H 655.214 6.84975 -3.19914 0
M  V30 7034 H 656.482 7.4807 -2.19116 0
M  V30 7035 N 660.711 1.11618 1.11262 0
M  V30 7036 C 662.127 0.850468 1.35053 0
M  V30 7037 C 662.327 -0.523868 1.94571 0
M  V30 7038 O 661.383 -1.2743 2.17986 0
M  V30 7039 C 662.696 1.96005 2.28041 0
M  V30 7040 C 664.244 1.98993 2.416 0
M  V30 7041 C 664.719 3.0916 3.37911 0
M  V30 7042 N 666.21 3.08547 3.45475 0
M  V30 7043 C 666.945 3.9043 4.19943 0
M  V30 7044 N 666.441 4.8228 4.97371 0
M  V30 7045 N 668.234 3.786 4.15474 0
M  V30 7046 H 660.385 2.00184 0.709932 0
M  V30 7047 H 662.648 0.870635 0.375099 0
M  V30 7048 H 662.354 2.9499 1.91503 0
M  V30 7049 H 662.228 1.85782 3.28275 0
M  V30 7050 H 664.615 1.00633 2.77411 0
M  V30 7051 H 664.696 2.13292 1.4121 0
M  V30 7052 H 664.34 4.07748 3.02827 0
M  V30 7053 H 664.27 2.92102 4.3816 0
M  V30 7054 H 666.761 2.42 2.90249 0
M  V30 7055 H 667.074 5.41289 5.51567 0
M  V30 7056 H 665.419 4.863 4.96525 0
M  V30 7057 H 668.61 3.06185 3.54074 0
M  V30 7058 H 668.783 4.42647 4.73253 0
M  V30 7059 N 662.189 -1.289 0.906776 0
M  V30 7060 C 663.137 -2.29477 0.379873 0
M  V30 7061 C 664.131 -1.61068 -0.524747 0
M  V30 7062 O 665.337 -1.75344 -0.406765 0
M  V30 7063 H 661.712 -0.744742 0.10423 0
M  V30 7064 H 663.683 -2.71353 1.24137 0
M  V30 7065 C 662.432 -3.45713 -0.371154 0
M  V30 7066 H 661.755 -3.98551 0.315716 0
M  V30 7067 H 663.195 -4.18105 -0.704581 0
M  V30 7068 C 661.654 -2.9774 -1.57646 0
M  V30 7069 O 662.184 -2.99618 -2.67567 0
M  V30 7070 N 660.39 -2.53485 -1.42105 0
M  V30 7071 H 659.937 -2.52156 -0.526783 0
M  V30 7072 H 659.895 -2.21747 -2.22881 0
M  V30 7073 N 663.667 -0.670007 -1.42649 0
M  V30 7074 C 664.615 0.0230106 -2.32589 0
M  V30 7075 C 665.609 0.795585 -1.49555 0
M  V30 7076 O 666.815 0.70409 -1.65658 0
M  V30 7077 H 663.19 0.0262342 -0.751542 0
M  V30 7078 H 665.161 -0.753009 -2.88743 0
M  V30 7079 C 663.91 0.963872 -3.34073 0
M  V30 7080 H 663.233 0.378813 -3.98001 0
M  V30 7081 H 664.673 1.41755 -3.99602 0
M  V30 7082 C 663.132 2.06797 -2.65964 0
M  V30 7083 O 663.662 3.15383 -2.48789 0
M  V30 7084 N 661.868 1.83831 -2.25066 0
M  V30 7085 H 661.415 0.955235 -2.39234 0
M  V30 7086 H 661.373 2.57895 -1.79827 0
M  V30 7087 N 665.145 1.52092 -0.413018 0
M  V30 7088 C 666.385 2.03765 0.160975 0
M  V30 7089 C 666.749 1.29174 1.4205 0
M  V30 7090 O 667.95 1.71093 2.07318 0
M  V30 7091 C 666.221 3.55167 0.398871 0
M  V30 7092 S 667.78 4.28619 0.939755 0
M  V30 7093 H 664.598 0.709685 0.0432281 0
M  V30 7094 H 667.2 1.87102 -0.566831 0
M  V30 7095 H 665.904 4.07034 -0.524544 0
M  V30 7096 H 665.435 3.7608 1.15444 0
M  V30 7097 H 667.45 4.43773 2.21991 0
M  V30 7098 N 666.623 0.143563 1.56945 0
M  V30 7099 C 667.87 -0.508407 1.96014 0
M  V30 7100 C 668.198 -1.65099 1.02824 0
M  V30 7101 O 667.453 -1.95618 0.0567764 0
M  V30 7102 C 667.752 -1.05885 3.41355 0
M  V30 7103 C 667.418 -0.0350809 4.50886 0
M  V30 7104 C 666.08 0.246362 4.80569 0
M  V30 7105 C 668.432 0.661282 5.16988 0
M  V30 7106 C 665.76 1.23003 5.73661 0
M  V30 7107 C 668.112 1.63375 6.11139 0
M  V30 7108 C 666.776 1.92292 6.39203 0
M  V30 7109 H 666.046 -0.186039 0.717266 0
M  V30 7110 H 668.693 0.229667 1.90118 0
M  V30 7111 H 666.998 -1.87419 3.44066 0
M  V30 7112 H 668.695 -1.57183 3.6891 0
M  V30 7113 H 665.285 -0.264622 4.27782 0
M  V30 7114 H 669.469 0.457038 4.94191 0
M  V30 7115 H 664.725 1.46056 5.93698 0
M  V30 7116 H 668.899 2.17887 6.61436 0
M  V30 7117 H 666.526 2.68666 7.11142 0
M  V30 7118 N 668.101 -1.57061 -0.130224 0
M  V30 7119 C 669.347 -1.8453 -0.841216 0
M  V30 7120 C 669.68 -0.727666 -1.80052 0
M  V30 7121 O 668.955 0.267419 -1.92653 0
M  V30 7122 C 669.238 -3.22553 -1.60099 0
M  V30 7123 C 669.091 -4.44901 -0.662048 0
M  V30 7124 C 670.41 -3.58003 -2.55973 0
M  V30 7125 H 667.529 -0.671215 -0.304366 0
M  V30 7126 H 670.171 -1.89705 -0.105821 0
M  V30 7127 H 668.321 -3.18272 -2.22789 0
M  V30 7128 H 669.993 -4.61278 -0.0448559 0
M  V30 7129 H 668.236 -4.33791 0.0272253 0
M  V30 7130 H 668.907 -5.3812 -1.23006 0
M  V30 7131 H 671.383 -3.63002 -2.03393 0
M  V30 7132 H 670.259 -4.55576 -3.06172 0
M  V30 7133 H 670.52 -2.84833 -3.38116 0
M  V30 7134 N 669.579 0.400081 -1.52437 0
M  V30 7135 C 670.489 1.51253 -1.79331 0
M  V30 7136 C 671.505 1.60188 -0.679396 0
M  V30 7137 O 672.681 1.76733 -0.965791 0
M  V30 7138 C 669.746 2.869 -1.94652 0
M  V30 7139 C 668.807 2.87777 -3.18564 0
M  V30 7140 C 668.04 4.16954 -3.33145 0
M  V30 7141 O 668.263 5.11329 -2.52783 0
M  V30 7142 O 667.197 4.2487 -4.26343 0
M  V30 7143 H 671.023 1.31461 -2.73773 0
M  V30 7144 H 668.608 0.586834 -1.37392 0
M  V30 7145 H 670.49 3.67336 -2.065 0
M  V30 7146 H 669.165 3.06741 -1.034 0
M  V30 7147 H 668.072 2.06162 -3.12167 0
M  V30 7148 H 669.405 2.72886 -4.09627 0
M  V30 7149 N 671.057 1.43213 0.657864 0
M  V30 7150 C 672.282 1.48227 1.45064 0
M  V30 7151 C 672.707 0.0999939 1.87834 0
M  V30 7152 O 672.065 -0.905269 1.57081 0
M  V30 7153 C 672.113 2.42931 2.6649 0
M  V30 7154 O 671.217 1.91237 3.6538 0
M  V30 7155 H 670.558 0.501551 0.435135 0
M  V30 7156 H 673.088 1.8808 0.805431 0
M  V30 7157 H 673.098 2.6008 3.1436 0
M  V30 7158 H 671.773 3.43348 2.34701 0
M  V30 7159 H 670.35 1.83726 3.24498 0
M  V30 7160 N 672.536 -0.895792 1.29666 0
M  V30 7161 C 673.784 -1.64339 1.17631 0
M  V30 7162 C 674.105 -1.93099 -0.271643 0
M  V30 7163 O 673.375 -1.55981 -1.18518 0
M  V30 7164 H 671.955 -0.609162 0.432354 0
M  V30 7165 H 674.617 -1.07389 1.62646 0
M  V30 7166 H 673.713 -2.59815 1.72924 0
M  V30 7167 N 674.014 -1.12206 -1.10668 0
M  V30 7168 C 674.946 -0.74552 -2.16736 0
M  V30 7169 C 675.959 0.226696 -1.61214 0
M  V30 7170 O 677.148 0.0083936 -1.78498 0
M  V30 7171 C 674.248 -0.0823368 -3.388 0
M  V30 7172 C 673.421 -1.08341 -4.2377 0
M  V30 7173 C 672.48 -0.448292 -5.24287 0
M  V30 7174 O 671.506 -1.10458 -5.58379 0
M  V30 7175 N 672.708 0.785336 -5.75163 0
M  V30 7176 H 675.473 -1.65818 -2.49649 0
M  V30 7177 H 673.034 -1.01335 -1.26265 0
M  V30 7178 H 675.026 0.354476 -4.03145 0
M  V30 7179 H 673.596 0.733041 -3.03884 0
M  V30 7180 H 672.816 -1.69792 -3.55759 0
M  V30 7181 H 674.104 -1.76042 -4.77375 0
M  V30 7182 H 673.502 1.33755 -5.4966 0
M  V30 7183 H 672.059 1.16501 -6.41304 0
M  V30 7184 N 675.492 1.28418 -0.913599 0
M  V30 7185 C 676.903 1.77024 -0.593237 0
M  V30 7186 C 677.254 1.74779 0.891441 0
M  V30 7187 O 676.379 1.34237 1.69733 0
M  V30 7188 C 676.974 3.21456 -1.07011 0
M  V30 7189 C 675.533 3.67786 -0.800664 0
M  V30 7190 C 674.68 2.48185 -1.23691 0
M  V30 7191 H 677.631 1.14883 -1.09487 0
M  V30 7192 H 677.652 3.78269 -0.411481 0
M  V30 7193 H 677.164 3.23058 -2.1507 0
M  V30 7194 H 675.265 3.71644 0.266725 0
M  V30 7195 H 675.378 4.57934 -1.4083 0
M  V30 7196 H 673.742 2.46116 -0.655655 0
M  V30 7197 H 674.525 2.52506 -2.32585 0
M  V30 7198 N 676.97 0.677563 1.42291 0
M  V30 7199 C 678.219 0.198173 2.00724 0
M  V30 7200 C 678.532 -1.20325 1.54211 0
M  V30 7201 O 679.738 -1.77916 2.05081 0
M  V30 7202 C 678.194 0.303432 3.58619 0
M  V30 7203 C 677.802 1.70909 4.14119 0
M  V30 7204 C 679.546 -0.117103 4.24338 0
M  V30 7205 C 677.453 1.76696 5.64387 0
M  V30 7206 H 676.383 0.070329 0.750713 0
M  V30 7207 H 679.034 0.843147 1.62982 0
M  V30 7208 H 677.416 -0.409482 3.93877 0
M  V30 7209 H 678.59 2.44931 3.90315 0
M  V30 7210 H 676.905 2.07771 3.6086 0
M  V30 7211 H 679.502 -0.0940471 5.34617 0
M  V30 7212 H 679.845 -1.15283 4.00019 0
M  V30 7213 H 680.378 0.5449 3.9405 0
M  V30 7214 H 677.117 2.7826 5.93508 0
M  V30 7215 H 676.637 1.07034 5.90173 0
M  V30 7216 H 678.316 1.52166 6.28852 0
M  V30 7217 N 678.448 -1.51871 0.421078 0
M  V30 7218 C 679.688 -2.03848 -0.150167 0
M  V30 7219 C 680.052 -1.29925 -1.41363 0
M  V30 7220 O 681.253 -1.7219 -2.06408 0
M  V30 7221 C 679.524 -3.55374 -0.38003 0
M  V30 7222 S 681.083 -4.29111 -0.917011 0
M  V30 7223 H 677.901 -0.709904 -0.0394639 0
M  V30 7224 H 680.503 -1.86799 0.576746 0
M  V30 7225 H 679.207 -4.0675 0.546122 0
M  V30 7226 H 678.738 -3.76687 -1.13448 0
M  V30 7227 H 680.753 -4.44944 -2.19635 0
M  V30 7228 N 679.926 -0.151884 -1.56866 0
M  V30 7229 C 681.174 0.497021 -1.95893 0
M  V30 7230 C 681.495 1.65078 -1.03799 0
M  V30 7231 O 680.765 1.95642 -0.10049 0
M  V30 7232 H 679.345 0.186603 -0.723318 0
M  V30 7233 H 682.007 -0.228525 -1.93556 0
M  V30 7234 H 681.103 0.869933 -2.99731 0
M  V30 7235 N 681.404 1.57128 0.121893 0
M  V30 7236 C 682.352 2.01109 1.16868 0
M  V30 7237 C 683.346 0.907532 1.43039 0
M  V30 7238 O 684.552 1.09274 1.43036 0
M  V30 7239 H 680.927 0.640539 0.393971 0
M  V30 7240 H 682.898 2.88261 0.771224 0
M  V30 7241 C 681.647 2.42887 2.48799 0
M  V30 7242 H 680.97 3.2737 2.29498 0
M  V30 7243 H 682.41 2.77461 3.20611 0
M  V30 7244 C 680.869 1.29137 3.11168 0
M  V30 7245 O 681.399 0.605756 3.97106 0
M  V30 7246 N 679.605 1.04916 2.71 0
M  V30 7247 H 679.152 1.60848 2.01211 0
M  V30 7248 H 679.11 0.290016 3.1306 0
M  V30 7249 N 682.882 -0.391992 1.52647 0
M  V30 7250 C 684.13 -1.13507 1.67214 0
M  V30 7251 C 684.451 -1.90575 0.41304 0
M  V30 7252 O 683.721 -1.87348 -0.572498 0
M  V30 7253 H 682.301 -0.422013 0.616372 0
M  V30 7254 H 684.963 -0.44502 1.89751 0
M  V30 7255 H 684.059 -1.83964 2.52118 0
M  V30 7256 N 684.36 -1.4356 -0.65026 0
M  V30 7257 C 685.293 -1.434 -1.77515 0
M  V30 7258 C 686.271 -0.295082 -1.599 0
M  V30 7259 O 687.455 -0.489128 -1.82043 0
M  V30 7260 C 684.582 -1.2484 -3.14853 0
M  V30 7261 C 683.628 -2.42046 -3.51163 0
M  V30 7262 S 684.461 -4.04595 -3.50803 0
M  V30 7263 C 685.617 -3.88424 -4.90793 0
M  V30 7264 H 685.85 -2.38586 -1.77381 0
M  V30 7265 H 683.383 -1.30627 -0.823169 0
M  V30 7266 H 685.341 -1.14819 -3.94115 0
M  V30 7267 H 684.002 -0.311977 -3.12547 0
M  V30 7268 H 683.195 -2.24873 -4.51052 0
M  V30 7269 H 682.797 -2.48708 -2.79321 0
M  V30 7270 H 685.089 -3.50932 -5.79528 0
M  V30 7271 H 686.032 -4.88076 -5.13018 0
M  V30 7272 H 686.44 -3.20829 -4.64467 0
M  V30 7273 N 685.838 0.888903 -1.30139 0
M  V30 7274 C 687.084 1.6428 -1.18912 0
M  V30 7275 C 687.417 1.92499 0.256477 0
M  V30 7276 O 686.692 1.54312 1.18397 0
M  V30 7277 C 686.975 2.9851 -2.01405 0
M  V30 7278 C 686.828 2.77288 -3.54163 0
M  V30 7279 C 688.147 3.99383 -1.84882 0
M  V30 7280 H 685.266 0.596148 -0.433333 0
M  V30 7281 H 687.908 1.0289 -1.5973 0
M  V30 7282 H 686.058 3.50907 -1.66722 0
M  V30 7283 H 687.73 2.31709 -3.98884 0
M  V30 7284 H 685.973 2.11867 -3.78543 0
M  V30 7285 H 686.644 3.72717 -4.07168 0
M  V30 7286 H 689.12 3.56132 -2.15196 0
M  V30 7287 H 687.996 4.91222 -2.44934 0
M  V30 7288 H 688.257 4.34674 -0.806902 0
M  V30 7289 N 687.317 1.12792 1.10072 0
M  V30 7290 C 688.227 0.812369 2.20086 0
M  V30 7291 C 689.243 -0.200349 1.72843 0
M  V30 7292 O 690.419 -0.0330262 2.01373 0
M  V30 7293 C 687.484 0.275685 3.45602 0
M  V30 7294 C 686.545 1.34881 4.07561 0
M  V30 7295 C 685.778 0.837639 5.27086 0
M  V30 7296 O 686.001 -0.327224 5.69461 0
M  V30 7297 O 684.935 1.60894 5.79997 0
M  V30 7298 H 688.761 1.73133 2.49517 0
M  V30 7299 H 686.346 0.904863 1.18881 0
M  V30 7300 H 688.228 -0.0185375 4.21396 0
M  V30 7301 H 686.903 -0.615783 3.17789 0
M  V30 7302 H 685.81 1.69625 3.33434 0
M  V30 7303 H 687.143 2.21418 4.39585 0
M  V30 7304 N 688.795 -1.27931 0.920396 0
M  V30 7305 C 689.727 -2.26175 0.371169 0
M  V30 7306 C 690.74 -1.55122 -0.494065 0
M  V30 7307 O 691.929 -1.75825 -0.30787 0
M  V30 7308 C 689.029 -3.35376 -0.487481 0
M  V30 7309 C 688.202 -4.35943 0.356772 0
M  V30 7310 C 687.261 -5.24374 -0.438042 0
M  V30 7311 O 686.287 -5.68998 0.151715 0
M  V30 7312 N 687.489 -5.53823 -1.73956 0
M  V30 7313 H 690.254 -2.73938 1.21564 0
M  V30 7314 H 687.815 -1.41482 0.787047 0
M  V30 7315 H 689.807 -3.91476 -1.02609 0
M  V30 7316 H 688.377 -2.87269 -1.23269 0
M  V30 7317 H 687.597 -3.7921 1.07672 0
M  V30 7318 H 688.885 -5.0015 0.934206 0
M  V30 7319 H 688.283 -5.19413 -2.24114 0
M  V30 7320 H 686.84 -6.12653 -2.22486 0
M  V30 7321 N 690.273 -0.685099 -1.4193 0
M  V30 7322 C 691.521 -0.21124 -2.00993 0
M  V30 7323 C 691.842 1.18985 -1.54491 0
M  V30 7324 O 691.112 1.8009 -0.771 0
M  V30 7325 H 689.692 -0.0751059 -0.743215 0
M  V30 7326 H 692.354 -0.883915 -1.73704 0
M  V30 7327 H 691.45 -0.220513 -3.1132 0
M  V30 7328 N 691.751 1.51645 -0.429126 0
M  V30 7329 C 692.661 2.31288 0.392809 0
M  V30 7330 C 693.677 1.39852 1.03525 0
M  V30 7331 O 694.853 1.72926 1.03241 0
M  V30 7332 C 691.918 3.13347 1.48372 0
M  V30 7333 C 690.979 4.20551 0.862268 0
M  V30 7334 C 690.212 4.98688 1.9012 0
M  V30 7335 O 690.435 4.77359 3.12225 0
M  V30 7336 O 689.369 5.83005 1.4963 0
M  V30 7337 H 693.195 3.02609 -0.257138 0
M  V30 7338 H 690.78 1.48163 -0.191851 0
M  V30 7339 H 692.662 3.64387 2.1166 0
M  V30 7340 H 691.337 2.44799 2.1179 0
M  V30 7341 H 690.244 3.73609 0.191568 0
M  V30 7342 H 691.577 4.91449 0.271704 0
M  V30 7343 N 693.229 0.160201 1.56784 0
M  V30 7344 C 694.139 -0.787167 2.21 0
M  V30 7345 C 695.155 -1.26167 1.19825 0
M  V30 7346 O 696.331 -1.31611 1.52448 0
M  V30 7347 C 693.396 -2.00364 2.8294 0
M  V30 7348 C 692.457 -1.5771 3.99282 0
M  V30 7349 C 691.69 -2.73558 4.58259 0
M  V30 7350 O 691.913 -3.90129 4.16119 0
M  V30 7351 O 690.847 -2.48271 5.48311 0
M  V30 7352 H 694.673 -0.270462 3.02493 0
M  V30 7353 H 692.258 -0.0674666 1.49248 0
M  V30 7354 H 694.14 -2.71529 3.22257 0
M  V30 7355 H 692.815 -2.50961 2.04451 0
M  V30 7356 H 691.722 -0.835274 3.64656 0
M  V30 7357 H 693.055 -1.11815 4.79331 0
M  V30 7358 N 694.707 -1.5719 -0.113559 0
M  V30 7359 C 695.947 -1.86958 -0.82621 0
M  V30 7360 C 696.311 -0.748884 -1.76793 0
M  V30 7361 O 697.512 -0.92847 -2.52256 0
M  V30 7362 C 695.783 -3.21957 -1.55173 0
M  V30 7363 S 697.342 -3.73371 -2.3052 0
M  V30 7364 H 694.16 -0.655394 -0.275643 0
M  V30 7365 H 696.762 -1.95318 -0.0842684 0
M  V30 7366 H 695.466 -4.01459 -0.851977 0
M  V30 7367 H 694.997 -3.16688 -2.33393 0
M  V30 7368 H 697.012 -3.45308 -3.56338 0
M  V30 7369 N 696.185 0.383891 -1.52853 0
M  V30 7370 C 697.462 1.14296 -1.58732 0
M  V30 7371 C 697.842 2.07585 -0.383611 0
M  V30 7372 O 697.19 2.1971 0.627661 0
M  V30 7373 C 697.4 1.89816 -2.92867 0
M  V30 7374 C 698.748 2.44998 -3.46787 0
M  V30 7375 O 699.772 1.99966 -2.94774 0
M  V30 7376 O 698.631 3.2727 -4.37672 0
M  V30 7377 H 695.725 0.52326 -0.640413 0
M  V30 7378 H 698.271 0.388631 -1.6519 0
M  V30 7379 H 697.043 1.21626 -3.71918 0
M  V30 7380 H 696.666 2.72199 -2.89816 0
M  V30 7381 N 697.663 1.43903 0.642637 0
M  V30 7382 C 698.903 1.47591 1.41408 0
M  V30 7383 C 699.267 0.101313 1.91733 0
M  V30 7384 O 700.468 0.0128797 2.68797 0
M  V30 7385 C 698.739 2.4977 2.55636 0
M  V30 7386 S 700.298 2.72417 3.43998 0
M  V30 7387 H 697.116 0.522163 0.482563 0
M  V30 7388 H 699.718 1.80745 0.745085 0
M  V30 7389 H 698.422 3.48365 2.16956 0
M  V30 7390 H 697.953 2.1815 3.27375 0
M  V30 7391 H 699.968 2.03142 4.52712 0
M  V30 7392 N 699.141 -0.881989 1.30609 0
M  V30 7393 C 700.389 -1.63082 1.19368 0
M  V30 7394 C 700.71 -1.93376 -0.251147 0
M  V30 7395 O 699.98 -1.5723 -1.16857 0
M  V30 7396 H 698.56 -0.604542 0.438791 0
M  V30 7397 H 701.222 -1.05658 1.63776 0
M  V30 7398 H 700.318 -2.57966 1.7567 0
M  V30 7399 N 700.619 -1.13374 -1.09472 0
M  V30 7400 C 701.849 -0.917019 -1.85133 0
M  V30 7401 C 702.257 0.537568 -1.81402 0
M  V30 7402 O 701.6 1.38385 -1.20811 0
M  V30 7403 C 701.662 -1.32646 -3.34134 0
M  V30 7404 C 701.326 -2.79437 -3.61613 0
M  V30 7405 C 702.323 -3.77596 -3.57375 0
M  V30 7406 C 700.008 -3.16586 -3.89973 0
M  V30 7407 C 702.002 -5.10916 -3.81108 0
M  V30 7408 C 699.689 -4.50085 -4.13361 0
M  V30 7409 C 700.687 -5.47059 -4.0892 0
M  V30 7410 O 700.375 -6.78149 -4.31705 0
M  V30 7411 H 700.107 -0.326997 -0.591649 0
M  V30 7412 H 702.661 -1.51002 -1.39239 0
M  V30 7413 H 700.891 -0.676719 -3.80733 0
M  V30 7414 H 702.58 -1.08229 -3.91205 0
M  V30 7415 H 703.346 -3.50242 -3.35493 0
M  V30 7416 H 699.225 -2.41707 -3.92554 0
M  V30 7417 H 702.769 -5.86597 -3.77558 0
M  V30 7418 H 698.666 -4.77163 -4.34724 0
M  V30 7419 H 699.434 -6.84244 -4.49168 0
M  V30 7420 N 702.098 1.27442 -0.927168 0
M  V30 7421 C 703.323 1.99036 -0.583042 0
M  V30 7422 C 703.748 1.68711 0.83176 0
M  V30 7423 O 703.106 0.927081 1.55804 0
M  V30 7424 C 703.154 3.51271 -0.814925 0
M  V30 7425 O 702.258 4.12226 0.119742 0
M  V30 7426 H 701.599 0.624883 -0.224538 0
M  V30 7427 H 704.129 1.62263 -1.24628 0
M  V30 7428 H 704.139 4.01411 -0.730282 0
M  V30 7429 H 702.814 3.72676 -1.84623 0
M  V30 7430 H 701.391 3.72897 -0.0147688 0
M  V30 7431 N 703.576 0.692616 1.41565 0
M  V30 7432 C 704.853 0.150496 1.9502 0
M  V30 7433 C 705.233 -1.33881 1.63215 0
M  V30 7434 O 704.581 -2.08378 0.937598 0
M  V30 7435 C 704.791 0.438636 3.46233 0
M  V30 7436 C 706.139 0.364777 4.2303 0
M  V30 7437 O 707.163 0.373383 3.54238 0
M  V30 7438 O 706.022 0.32234 5.45549 0
M  V30 7439 H 703.116 0.0132454 0.826894 0
M  V30 7440 H 705.662 0.768574 1.51298 0
M  V30 7441 H 704.434 1.46962 3.62654 0
M  V30 7442 H 704.057 -0.210562 3.97042 0
M  V30 7443 N 705.054 -1.51416 0.437162 0
M  V30 7444 C 705.986 -2.255 -0.410171 0
M  V30 7445 C 706.999 -1.29511 -0.986444 0
M  V30 7446 O 708.188 -1.55266 -0.880614 0
M  V30 7447 C 705.288 -2.99511 -1.58575 0
M  V30 7448 C 704.461 -4.22595 -1.12839 0
M  V30 7449 C 703.52 -4.79187 -2.17407 0
M  V30 7450 O 702.546 -5.4103 -1.76849 0
M  V30 7451 N 703.748 -4.63204 -3.49889 0
M  V30 7452 H 706.513 -2.98856 0.224783 0
M  V30 7453 H 704.074 -1.59699 0.266041 0
M  V30 7454 H 706.066 -3.34258 -2.28152 0
M  V30 7455 H 704.636 -2.29167 -2.12606 0
M  V30 7456 H 703.856 -3.93344 -0.259695 0
M  V30 7457 H 705.144 -5.02468 -0.800196 0
M  V30 7458 H 704.542 -4.13945 -3.85573 0
M  V30 7459 H 703.099 -5.02313 -4.15361 0
M  V30 7460 N 706.532 -0.168513 -1.56696 0
M  V30 7461 C 707.772 0.479648 -1.98693 0
M  V30 7462 C 708.136 1.60609 -1.05209 0
M  V30 7463 O 709.337 2.3166 -1.36334 0
M  V30 7464 C 707.608 0.952852 -3.44464 0
M  V30 7465 S 709.167 1.60259 -4.08488 0
M  V30 7466 H 705.985 0.154377 -0.694038 0
M  V30 7467 H 708.587 -0.265312 -1.93691 0
M  V30 7468 H 707.291 0.12257 -4.10217 0
M  V30 7469 H 706.822 1.73192 -3.53225 0
M  V30 7470 H 708.837 2.89065 -4.03307 0
M  V30 7471 N 708.01 1.57248 0.105221 0
M  V30 7472 C 708.957 2.01338 1.12835 0
M  V30 7473 C 709.927 0.887897 1.40377 0
M  V30 7474 O 711.112 1.15315 1.5201 0
M  V30 7475 C 708.252 2.43432 2.44611 0
M  V30 7476 C 707.365 3.69457 2.23888 0
M  V30 7477 C 706.5 4.00473 3.48991 0
M  V30 7478 C 705.539 5.19638 3.23485 0
M  V30 7479 N 704.676 5.46457 4.40828 0
M  V30 7480 H 709.516 2.88527 0.745386 0
M  V30 7481 H 707.053 1.42714 0.356535 0
M  V30 7482 H 709.011 2.65879 3.21503 0
M  V30 7483 H 707.641 1.59266 2.80774 0
M  V30 7484 H 706.693 3.54545 1.37847 0
M  V30 7485 H 708.005 4.56497 2.01026 0
M  V30 7486 H 707.159 4.23642 4.34295 0
M  V30 7487 H 705.898 3.11935 3.74897 0
M  V30 7488 H 704.903 4.96299 2.36574 0
M  V30 7489 H 706.128 6.09766 2.98935 0
M  V30 7490 H 704.074 4.60876 4.66829 0
M  V30 7491 H 703.991 6.27849 4.2112 0
M  V30 7492 H 705.259 5.74155 5.27225 0
M  V30 7493 N 709.488 -0.375779 1.53054 0
M  V30 7494 C 710.765 -1.13453 1.59336 0
M  V30 7495 C 711.145 -2.07379 0.394614 0
M  V30 7496 O 710.493 -2.2004 -0.616 0
M  V30 7497 C 710.703 -1.8826 2.93869 0
M  V30 7498 C 712.051 -2.43155 3.48081 0
M  V30 7499 O 713.075 -1.984 2.95831 0
M  V30 7500 O 711.934 -3.24944 4.39401 0
M  V30 7501 H 709.028 -0.519856 0.643179 0
M  V30 7502 H 711.574 -0.379865 1.65394 0
M  V30 7503 H 710.346 -1.19652 3.72558 0
M  V30 7504 H 709.969 -2.70658 2.91256 0
M  V30 7505 N 710.966 -1.44241 -0.634997 0
M  V30 7506 C 711.876 -1.53293 -1.77591 0
M  V30 7507 C 712.892 -0.418831 -1.68884 0
M  V30 7508 O 714.068 -0.675619 -1.8973 0
M  V30 7509 C 711.133 -1.47075 -3.13958 0
M  V30 7510 C 710.194 -2.69304 -3.34326 0
M  V30 7511 C 709.427 -2.63374 -4.64187 0
M  V30 7512 O 709.65 -1.69161 -5.44739 0
M  V30 7513 O 708.584 -3.54166 -4.86673 0
M  V30 7514 H 712.41 -2.49673 -1.72908 0
M  V30 7515 H 709.995 -1.26445 -0.795745 0
M  V30 7516 H 711.877 -1.46117 -3.95257 0
M  V30 7517 H 710.552 -0.538373 -3.19192 0
M  V30 7518 H 709.459 -2.75831 -2.52721 0
M  V30 7519 H 710.792 -3.61576 -3.33951 0
M  V30 7520 N 712.444 0.87505 -1.31075 0
M  V30 7521 C 713.684 1.64174 -1.21763 0
M  V30 7522 C 714.048 1.90713 0.221933 0
M  V30 7523 O 715.249 2.652 0.438458 0
M  V30 7524 C 713.52 2.93932 -2.0332 0
M  V30 7525 S 715.079 3.84841 -2.10815 0
M  V30 7526 H 711.897 0.563358 -0.433761 0
M  V30 7527 H 714.499 1.03788 -1.65675 0
M  V30 7528 H 713.203 2.72349 -3.07009 0
M  V30 7529 H 712.734 3.59345 -1.60108 0
M  V30 7530 H 714.749 4.80385 -1.24276 0
M  V30 7531 N 713.922 1.13953 1.08869 0
M  V30 7532 C 715.162 0.915128 1.8277 0
M  V30 7533 C 715.526 -0.548647 1.83994 0
M  V30 7534 O 716.727 -0.890817 2.5361 0
M  V30 7535 C 714.998 1.49382 3.24684 0
M  V30 7536 S 716.557 1.4103 4.15519 0
M  V30 7537 H 713.375 0.329716 0.629927 0
M  V30 7538 H 715.977 1.45213 1.30895 0
M  V30 7539 H 714.681 2.55241 3.21372 0
M  V30 7540 H 714.212 0.955008 3.81632 0
M  V30 7541 H 716.227 0.392617 4.94644 0
M  V30 7542 N 715.4 -1.26948 0.933913 0
M  V30 7543 C 716.647 -1.94087 0.577625 0
M  V30 7544 C 716.975 -1.73345 -0.88214 0
M  V30 7545 O 716.23 -1.05945 -1.64542 0
M  V30 7546 C 716.529 -3.46963 0.857406 0
M  V30 7547 C 716.195 -3.87834 2.2999 0
M  V30 7548 C 714.857 -3.98704 2.69423 0
M  V30 7549 C 717.209 -4.08442 3.23766 0
M  V30 7550 C 714.537 -4.27573 4.01744 0
M  V30 7551 C 716.889 -4.38798 4.55675 0
M  V30 7552 C 715.553 -4.47881 4.94934 0
M  V30 7553 H 714.823 -0.710215 0.211368 0
M  V30 7554 H 717.47 -1.50899 1.17905 0
M  V30 7555 H 715.775 -3.91416 0.173369 0
M  V30 7556 H 717.472 -3.97062 0.560615 0
M  V30 7557 H 714.062 -3.79916 1.98399 0
M  V30 7558 H 718.246 -3.99479 2.94499 0
M  V30 7559 H 713.502 -4.32815 4.31834 0
M  V30 7560 H 717.676 -4.5369 5.28335 0
M  V30 7561 H 715.303 -4.70005 5.97495 0
M  V30 7562 N 716.879 -0.700114 -1.41195 0
M  V30 7563 C 718.156 -0.160836 -1.94938 0
M  V30 7564 C 718.536 1.33014 -1.63922 0
M  V30 7565 O 717.884 2.07878 -0.948636 0
M  V30 7566 C 718.094 -0.456991 -3.45995 0
M  V30 7567 C 719.442 -0.387207 -4.22831 0
M  V30 7568 O 720.466 -0.392164 -3.54035 0
M  V30 7569 O 719.325 -0.351267 -5.4537 0
M  V30 7570 H 716.419 -0.0176304 -0.826812 0
M  V30 7571 H 718.965 -0.776586 -1.50888 0
M  V30 7572 H 717.737 -1.48884 -3.61869 0
M  V30 7573 H 717.36 0.189503 -3.97148 0
M  V30 7574 N 718.357 1.51182 -0.445186 0
M  V30 7575 C 719.32 2.26501 0.350722 0
M  V30 7576 C 720.32 1.3025 0.942952 0
M  V30 7577 O 721.51 1.53897 0.816175 0
M  V30 7578 C 718.642 3.06274 1.49697 0
M  V30 7579 H 719.835 2.98299 -0.309474 0
M  V30 7580 H 717.388 1.55034 -0.198551 0
M  V30 7581 H 718.123 2.38911 2.19299 0
M  V30 7582 H 717.908 3.76979 1.0784 0
M  V30 7583 H 719.398 3.63306 2.05909 0
M  V30 7584 N 719.835 0.176821 1.56605 0
M  V30 7585 C 720.783 -0.768159 2.1955 0
M  V30 7586 C 721.777 -1.23343 1.16116 0
M  V30 7587 O 722.983 -1.19844 1.34303 0
M  V30 7588 H 719.358 -0.266013 0.703378 0
M  V30 7589 H 721.329 -0.213374 2.97636 0
M  V30 7590 C 720.078 -1.98492 2.85475 0
M  V30 7591 H 719.401 -1.63595 3.64797 0
M  V30 7592 H 720.841 -2.62489 3.3298 0
M  V30 7593 C 719.3 -2.81207 1.85538 0
M  V30 7594 O 719.83 -3.7854 1.34427 0
M  V30 7595 N 718.036 -2.46331 1.54173 0
M  V30 7596 H 717.583 -1.67241 1.95929 0
M  V30 7597 H 717.541 -3.01961 0.875595 0
M  V30 7598 N 721.313 -1.57302 -0.09688 0
M  V30 7599 C 722.245 -1.98618 -1.14384 0
M  V30 7600 C 723.258 -0.888483 -1.36418 0
M  V30 7601 O 724.447 -1.16661 -1.35101 0
M  V30 7602 C 721.547 -2.28838 -2.49973 0
M  V30 7603 C 720.72 -3.60132 -2.48241 0
M  V30 7604 C 719.779 -3.7831 -3.65743 0
M  V30 7605 O 718.805 -4.50183 -3.48316 0
M  V30 7606 N 720.007 -3.18752 -4.85157 0
M  V30 7607 H 722.772 -2.8904 -0.792202 0
M  V30 7608 H 720.333 -1.59356 -0.285883 0
M  V30 7609 H 722.325 -2.38193 -3.27179 0
M  V30 7610 H 720.895 -1.44431 -2.77233 0
M  V30 7611 H 720.115 -3.61763 -1.56593 0
M  V30 7612 H 721.403 -4.46389 -2.4416 0
M  V30 7613 H 720.801 -2.60368 -5.0222 0
M  V30 7614 H 719.358 -3.33595 -5.59962 0
M  V30 7615 N 722.791 0.367657 -1.53252 0
M  V30 7616 C 724.202 0.944563 -1.61043 0
M  V30 7617 C 724.553 1.90325 -0.476546 0
M  V30 7618 O 723.678 2.12721 0.397333 0
M  V30 7619 C 724.273 1.71992 -2.91898 0
M  V30 7620 C 722.832 2.2462 -3.02031 0
M  V30 7621 C 721.979 1.05799 -2.56324 0
M  V30 7622 H 724.93 0.146516 -1.58022 0
M  V30 7623 H 724.951 2.58095 -2.79584 0
M  V30 7624 H 724.463 1.02192 -3.74404 0
M  V30 7625 H 722.564 2.97668 -2.24108 0
M  V30 7626 H 722.677 2.52644 -4.07073 0
M  V30 7627 H 721.041 1.42435 -2.1115 0
M  V30 7628 H 721.824 0.375008 -3.41246 0
M  V30 7629 N 724.269 1.44576 0.627338 0
M  V30 7630 C 725.179 1.54232 1.76776 0
M  V30 7631 C 726.195 0.427782 1.6866 0
M  V30 7632 O 727.371 0.685671 1.89369 0
M  V30 7633 C 724.436 1.48738 3.13174 0
M  V30 7634 C 723.497 2.71074 3.32893 0
M  V30 7635 C 722.73 2.65832 4.62784 0
M  V30 7636 O 722.953 1.72048 5.43834 0
M  V30 7637 O 721.887 3.56742 4.84787 0
M  V30 7638 H 725.713 2.50586 1.71582 0
M  V30 7639 H 723.298 1.26865 0.789028 0
M  V30 7640 H 725.18 1.48211 3.94476 0
M  V30 7641 H 723.855 0.555292 3.18902 0
M  V30 7642 H 722.762 2.77168 2.51254 0
M  V30 7643 H 724.095 3.63342 3.32029 0
M  V30 7644 N 725.747 -0.868086 1.31537 0
M  V30 7645 C 726.995 -1.61807 1.21091 0
M  V30 7646 C 727.316 -1.93631 -0.230623 0
M  V30 7647 O 726.586 -1.5846 -1.15183 0
M  V30 7648 H 725.166 -0.599854 0.445178 0
M  V30 7649 H 727.828 -1.03915 1.64887 0
M  V30 7650 H 726.924 -2.56088 1.78396 0
M  V30 7651 N 727.225 -1.14528 -1.08264 0
M  V30 7652 C 728.641 -0.885976 -1.3275 0
M  V30 7653 C 728.841 0.472096 -1.95892 0
M  V30 7654 O 727.897 1.21606 -2.21288 0
M  V30 7655 C 729.21 -2.01982 -2.22764 0
M  V30 7656 C 730.758 -2.05329 -2.36239 0
M  V30 7657 C 731.233 -3.1801 -3.29596 0
M  V30 7658 N 732.724 -3.17598 -3.37173 0
M  V30 7659 C 733.459 -4.01426 -4.09444 0
M  V30 7660 N 732.955 -4.95297 -4.8441 0
M  V30 7661 N 734.748 -3.89482 -4.0529 0
M  V30 7662 H 726.899 -2.01996 -0.656607 0
M  V30 7663 H 729.162 -0.880274 -0.351884 0
M  V30 7664 H 728.868 -2.99964 -1.83615 0
M  V30 7665 H 728.742 -1.94421 -3.23234 0
M  V30 7666 H 731.129 -1.07953 -2.74646 0
M  V30 7667 H 731.21 -2.1696 -1.35506 0
M  V30 7668 H 730.854 -4.15633 -2.9191 0
M  V30 7669 H 730.784 -3.03616 -4.30261 0
M  V30 7670 H 733.275 -2.4961 -2.83731 0
M  V30 7671 H 733.588 -5.55723 -5.37021 0
M  V30 7672 H 731.933 -4.99293 -4.83457 0
M  V30 7673 H 735.124 -3.15465 -3.45832 0
M  V30 7674 H 735.297 -4.55039 -4.6135 0
M  V30 7675 N 728.703 1.26451 -0.940633 0
M  V30 7676 C 729.65 2.264 -0.448497 0
M  V30 7677 C 730.62 1.5866 0.491546 0
M  V30 7678 O 731.805 1.86389 0.407874 0
M  V30 7679 C 728.945 3.43956 0.280715 0
M  V30 7680 C 728.058 4.26374 -0.694937 0
M  V30 7681 C 727.193 5.31171 0.0554186 0
M  V30 7682 C 726.232 6.05266 -0.912091 0
M  V30 7683 N 725.369 7.01833 -0.193524 0
M  V30 7684 H 730.209 2.67869 -1.30576 0
M  V30 7685 H 727.746 1.31707 -0.655112 0
M  V30 7686 H 729.704 4.10941 0.71994 0
M  V30 7687 H 728.334 3.03403 1.10212 0
M  V30 7688 H 727.386 3.59183 -1.25267 0
M  V30 7689 H 728.698 4.77748 -1.43382 0
M  V30 7690 H 727.852 6.04166 0.553951 0
M  V30 7691 H 726.591 4.80634 0.827183 0
M  V30 7692 H 725.596 5.31099 -1.42175 0
M  V30 7693 H 726.821 6.57893 -1.68385 0
M  V30 7694 H 724.767 6.53607 0.559758 0
M  V30 7695 H 724.684 7.50957 -0.871744 0
M  V30 7696 H 725.952 7.78983 0.283932 0
M  V30 7697 N 730.181 0.707592 1.40822 0
M  V30 7698 C 731.421 0.247986 2.0289 0
M  V30 7699 C 731.785 -1.13484 1.54872 0
M  V30 7700 O 732.986 -1.69098 2.08948 0
M  V30 7701 C 731.257 0.316326 3.55997 0
M  V30 7702 S 732.816 -0.0674698 4.38748 0
M  V30 7703 H 729.634 0.09895 0.704081 0
M  V30 7704 H 732.236 0.928039 1.72069 0
M  V30 7705 H 730.94 1.32453 3.88438 0
M  V30 7706 H 730.471 -0.382474 3.91536 0
M  V30 7707 H 732.486 -1.29182 4.79089 0
M  V30 7708 N 731.66 -1.50943 0.453197 0
M  V30 7709 C 732.607 -2.28128 -0.350197 0
M  V30 7710 C 733.577 -1.32398 -1.00299 0
M  V30 7711 O 734.762 -1.61319 -1.01887 0
M  V30 7712 C 731.902 -3.13782 -1.43649 0
M  V30 7713 C 731.015 -4.24523 -0.800255 0
M  V30 7714 C 730.15 -4.97462 -1.86293 0
M  V30 7715 C 729.189 -6.00102 -1.20598 0
M  V30 7716 N 728.326 -6.66387 -2.21071 0
M  V30 7717 H 733.166 -2.96337 0.31434 0
M  V30 7718 H 730.703 -1.46151 0.166863 0
M  V30 7719 H 732.661 -3.6178 -2.07776 0
M  V30 7720 H 731.291 -2.47655 -2.07044 0
M  V30 7721 H 730.343 -3.80371 -0.0468651 0
M  V30 7722 H 731.655 -4.98009 -0.280777 0
M  V30 7723 H 730.809 -5.49088 -2.58044 0
M  V30 7724 H 729.548 -4.23642 -2.41617 0
M  V30 7725 H 728.553 -5.47753 -0.474 0
M  V30 7726 H 729.778 -6.75887 -0.659859 0
M  V30 7727 H 727.724 -5.9537 -2.75446 0
M  V30 7728 H 727.641 -7.3569 -1.74058 0
M  V30 7729 H 728.909 -7.22638 -2.92257 0
M  V30 7730 N 733.138 -0.185124 -1.56509 0
M  V30 7731 C 734.068 0.735098 -2.21627 0
M  V30 7732 C 735.049 1.2288 -1.1762 0
M  V30 7733 O 736.234 1.27945 -1.46095 0
M  V30 7734 C 733.364 1.95889 -2.86783 0
M  V30 7735 C 732.318 1.6005 -3.96948 0
M  V30 7736 C 731.644 2.90009 -4.4922 0
M  V30 7737 C 732.944 0.818008 -5.15855 0
M  V30 7738 H 734.638 0.192274 -2.98782 0
M  V30 7739 H 732.184 0.0910393 -1.43712 0
M  V30 7740 H 734.137 2.60779 -3.31017 0
M  V30 7741 H 732.861 2.52608 -2.07018 0
M  V30 7742 H 731.52 0.975237 -3.5339 0
M  V30 7743 H 731.168 3.44797 -3.6623 0
M  V30 7744 H 730.868 2.66778 -5.23549 0
M  V30 7745 H 732.392 3.55904 -4.9615 0
M  V30 7746 H 733.806 1.36979 -5.56695 0
M  V30 7747 H 732.203 0.684207 -5.96187 0
M  V30 7748 H 733.273 -0.182939 -4.84555 0
M  V30 7749 N 734.616 1.57351 0.0885366 0
M  V30 7750 C 735.563 2.02523 1.10693 0
M  V30 7751 C 736.533 0.902736 1.39427 0
M  V30 7752 O 737.718 1.16921 1.50779 0
M  V30 7753 C 734.858 2.46013 2.42016 0
M  V30 7754 C 733.971 3.7181 2.19957 0
M  V30 7755 C 733.106 4.04152 3.44724 0
M  V30 7756 C 732.145 5.2304 3.17956 0
M  V30 7757 N 731.282 5.51102 4.35007 0
M  V30 7758 H 736.122 2.89302 0.714742 0
M  V30 7759 H 733.659 1.43084 0.341378 0
M  V30 7760 H 735.617 2.69274 3.18665 0
M  V30 7761 H 734.247 1.62235 2.79069 0
M  V30 7762 H 733.299 3.55987 1.34079 0
M  V30 7763 H 734.611 4.58604 1.96173 0
M  V30 7764 H 733.765 4.28225 4.29777 0
M  V30 7765 H 732.504 3.15893 3.71568 0
M  V30 7766 H 731.509 4.98781 2.31296 0
M  V30 7767 H 732.734 6.12902 2.92451 0
M  V30 7768 H 730.68 4.65802 4.61914 0
M  V30 7769 H 730.597 6.3228 4.14437 0
M  V30 7770 H 731.865 5.79714 5.21106 0
M  V30 7771 N 736.094 -0.359525 1.53444 0
M  V30 7772 C 737.505 -0.936009 1.61542 0
M  V30 7773 C 737.856 -1.90069 0.486633 0
M  V30 7774 O 736.981 -2.12929 -0.386047 0
M  V30 7775 C 737.576 -1.70441 2.92806 0
M  V30 7776 C 736.135 -2.23015 3.03218 0
M  V30 7777 C 735.282 -1.04438 2.56881 0
M  V30 7778 H 738.233 -0.138134 1.58098 0
M  V30 7779 H 738.254 -2.56609 2.80948 0
M  V30 7780 H 737.766 -1.00205 3.74941 0
M  V30 7781 H 735.867 -2.96475 2.25684 0
M  V30 7782 H 735.98 -2.50481 4.08407 0
M  V30 7783 H 734.344 -1.41314 2.11902 0
M  V30 7784 H 735.127 -0.356905 3.4144 0
M  V30 7785 N 737.572 -1.44907 -0.619662 0
M  V30 7786 C 738.82 -1.47999 -1.37625 0
M  V30 7787 C 739.141 -0.118295 -1.94641 0
M  V30 7788 O 738.411 0.85086 -1.76457 0
M  V30 7789 H 736.991 -0.544993 -0.510873 0
M  V30 7790 H 739.653 -1.80772 -0.728522 0
M  V30 7791 H 738.749 -2.21196 -2.20179 0
M  V30 7792 N 739.05 0.861098 -1.31996 0
M  V30 7793 C 739.997 1.96912 -1.20392 0
M  V30 7794 C 740.967 1.65869 -0.0875899 0
M  V30 7795 O 742.152 1.88992 -0.262011 0
M  V30 7796 C 739.292 3.32435 -0.926335 0
M  V30 7797 C 738.405 3.76018 -2.12684 0
M  V30 7798 C 737.54 5.00301 -1.78529 0
M  V30 7799 C 736.579 5.36357 -2.94937 0
M  V30 7800 N 735.716 6.51818 -2.60917 0
M  V30 7801 H 740.556 2.06169 -2.1517 0
M  V30 7802 H 738.093 1.00917 -1.07024 0
M  V30 7803 H 740.051 4.10478 -0.745917 0
M  V30 7804 H 738.681 3.22796 -0.0153578 0
M  V30 7805 H 737.733 2.93683 -2.41774 0
M  V30 7806 H 739.045 3.98664 -2.99781 0
M  V30 7807 H 738.199 5.86034 -1.57001 0
M  V30 7808 H 736.938 4.79578 -0.886356 0
M  V30 7809 H 735.943 4.49139 -3.17103 0
M  V30 7810 H 737.168 5.59041 -3.85552 0
M  V30 7811 H 735.114 6.32624 -1.73558 0
M  V30 7812 H 735.031 6.7445 -3.41544 0
M  V30 7813 H 736.299 7.4072 -2.42804 0
M  V30 7814 N 740.528 1.15101 1.07655 0
M  V30 7815 C 741.46 0.802722 2.14684 0
M  V30 7816 C 742.473 -0.183874 1.61758 0
M  V30 7817 O 743.662 0.0389349 1.78458 0
M  V30 7818 C 740.762 0.172135 3.38463 0
M  V30 7819 C 739.935 1.19538 4.20749 0
M  V30 7820 C 738.994 0.58714 5.22914 0
M  V30 7821 O 738.02 1.25224 5.55255 0
M  V30 7822 N 739.222 -0.632566 5.77043 0
M  V30 7823 H 741.987 1.72379 2.45164 0
M  V30 7824 H 739.548 1.04647 1.23534 0
M  V30 7825 H 741.54 -0.247465 4.03943 0
M  V30 7826 H 740.11 -0.652214 3.0572 0
M  V30 7827 H 739.33 1.79165 3.51132 0
M  V30 7828 H 740.618 1.88636 4.7254 0
M  V30 7829 H 740.016 -1.19135 5.53013 0
M  V30 7830 H 738.573 -0.994566 6.44167 0
M  V30 7831 N 742.006 -1.2595 0.947325 0
M  V30 7832 C 743.246 -1.95218 0.605743 0
M  V30 7833 C 743.61 -1.72624 -0.84054 0
M  V30 7834 O 744.811 -2.35748 -1.29136 0
M  V30 7835 C 743.082 -3.44654 0.94596 0
M  V30 7836 S 744.641 -4.32922 0.715849 0
M  V30 7837 H 741.459 -0.675159 0.222894 0
M  V30 7838 H 744.061 -1.52766 1.21995 0
M  V30 7839 H 742.765 -3.586 1.99585 0
M  V30 7840 H 742.296 -3.92082 0.321718 0
M  V30 7841 H 744.311 -4.94445 -0.416959 0
M  V30 7842 N 743.484 -0.715051 -1.40445 0
M  V30 7843 C 744.709 -0.26254 -2.05732 0
M  V30 7844 C 745.134 1.08691 -1.53519 0
M  V30 7845 O 744.492 1.68453 -0.670328 0
M  V30 7846 C 744.54 -0.25195 -3.59719 0
M  V30 7847 O 743.644 0.766998 -4.05205 0
M  V30 7848 H 742.985 -0.123398 -0.652433 0
M  V30 7849 H 745.515 -0.975382 -1.79854 0
M  V30 7850 H 745.525 -0.0894537 -4.07902 0
M  V30 7851 H 744.2 -1.23672 -3.97087 0
M  V30 7852 H 742.777 0.572269 -3.68483 0
M  V30 7853 N 744.962 1.50701 -0.461195 0
M  V30 7854 C 746.373 1.867 -0.00370227 0
M  V30 7855 C 746.724 1.37673 1.39787 0
M  V30 7856 O 745.849 0.737515 2.03445 0
M  V30 7857 C 746.444 3.388 5.75786e-05 0
M  V30 7858 C 745.003 3.74247 0.402044 0
M  V30 7859 C 744.15 2.74549 -0.389652 0
M  V30 7860 H 747.101 1.43585 -0.675942 0
M  V30 7861 H 747.122 3.719 0.804414 0
M  V30 7862 H 746.634 3.74452 -1.02015 0
M  V30 7863 H 744.735 3.44192 1.42697 0
M  V30 7864 H 744.848 4.78973 0.110265 0
M  V30 7865 H 743.212 2.54226 0.155314 0
M  V30 7866 H 743.995 3.13044 -1.40919 0
M  V30 7867 N 746.441 0.193421 1.56409 0
M  V30 7868 C 747.666 -0.454552 2.02358 0
M  V30 7869 C 748.091 -1.54516 1.07268 0
M  V30 7870 O 747.449 -1.81214 0.0558962 0
M  V30 7871 C 747.497 -0.989469 3.46759 0
M  V30 7872 O 746.601 -2.10244 3.54783 0
M  V30 7873 H 745.942 -0.106417 0.655417 0
M  V30 7874 H 748.472 0.303807 2.02332 0
M  V30 7875 H 748.482 -1.30649 3.86516 0
M  V30 7876 H 747.157 -0.191083 4.15461 0
M  V30 7877 H 745.734 -1.79419 3.26899 0
M  V30 7878 N 747.919 -1.57396 -0.0801906 0
M  V30 7879 C 748.851 -1.9982 -1.12271 0
M  V30 7880 C 749.864 -0.902902 -1.35468 0
M  V30 7881 O 751.053 -1.18088 -1.33856 0
M  V30 7882 C 748.153 -2.31476 -2.47532 0
M  V30 7883 C 747.326 -3.62745 -2.44407 0
M  V30 7884 C 746.385 -3.82168 -3.6171 0
M  V30 7885 O 745.411 -4.53852 -3.43522 0
M  V30 7886 N 746.613 -3.2388 -4.81749 0
M  V30 7887 H 749.378 -2.89864 -0.761501 0
M  V30 7888 H 746.939 -1.5965 -0.268965 0
M  V30 7889 H 748.931 -2.4165 -3.24634 0
M  V30 7890 H 747.501 -1.47364 -2.75686 0
M  V30 7891 H 746.721 -3.63403 -1.52747 0
M  V30 7892 H 748.009 -4.48954 -2.39412 0
M  V30 7893 H 747.407 -2.6568 -4.9943 0
M  V30 7894 H 745.964 -3.39515 -5.56392 0
M  V30 7895 N 749.397 0.351382 -1.53633 0
M  V30 7896 C 750.645 1.09034 -1.70165 0
M  V30 7897 C 750.966 1.89413 -0.463422 0
M  V30 7898 O 750.236 1.888 0.522624 0
M  V30 7899 H 748.816 0.405522 -0.627344 0
M  V30 7900 H 751.478 0.394554 -1.90865 0
M  V30 7901 H 750.574 1.77215 -2.56907 0
M  V30 7902 N 750.875 1.45233 0.611969 0
M  V30 7903 C 752.286 1.4354 1.19387 0
M  V30 7904 C 752.637 0.160713 1.95541 0
M  V30 7905 O 751.762 -0.737954 2.03429 0
M  V30 7906 C 752.357 2.60045 2.17169 0
M  V30 7907 C 750.916 2.61486 2.70744 0
M  V30 7908 C 750.063 2.35708 1.46072 0
M  V30 7909 H 753.014 1.53536 0.401529 0
M  V30 7910 H 753.035 2.33893 3.00124 0
M  V30 7911 H 752.547 3.52803 1.61714 0
M  V30 7912 H 750.648 1.72721 3.30149 0
M  V30 7913 H 750.761 3.60572 3.15476 0
M  V30 7914 H 749.125 1.85178 1.74875 0
M  V30 7915 H 749.908 3.30606 0.924922 0
M  V30 7916 N 752.353 -0.854086 1.3245 0
M  V30 7917 C 753.593 -1.62216 1.2436 0
M  V30 7918 C 753.957 -1.91042 -0.191564 0
M  V30 7919 O 755.158 -2.65864 -0.396211 0
M  V30 7920 C 753.429 -2.9066 2.0797 0
M  V30 7921 S 754.988 -3.81438 2.16911 0
M  V30 7922 H 751.806 -0.556386 0.442669 0
M  V30 7923 H 754.408 -1.01139 1.67305 0
M  V30 7924 H 753.112 -2.6743 3.11302 0
M  V30 7925 H 752.643 -3.56753 1.65805 0
M  V30 7926 H 754.658 -4.78347 1.31903 0
M  V30 7927 N 753.831 -1.1567 -1.07043 0
M  V30 7928 C 755.071 -0.944089 -1.81291 0
M  V30 7929 C 755.435 0.519305 -1.84844 0
M  V30 7930 O 756.636 0.850357 -2.54995 0
M  V30 7931 C 754.907 -1.54528 -3.22267 0
M  V30 7932 S 756.466 -1.47623 -4.13223 0
M  V30 7933 H 753.284 -0.339696 -0.624602 0
M  V30 7934 H 755.886 -1.47277 -1.28568 0
M  V30 7935 H 754.59 -2.60321 -3.17271 0
M  V30 7936 H 754.121 -1.0156 -3.80065 0
M  V30 7937 H 756.136 -0.471261 -4.93957 0
M  V30 7938 N 755.309 1.25446 -0.953992 0
M  V30 7939 C 756.537 1.97215 -0.625595 0
M  V30 7940 C 756.952 1.70911 0.802168 0
M  V30 7941 O 756.309 0.984782 1.5365 0
M  V30 7942 C 756.36 3.50777 -0.873943 0
M  V30 7943 O 756.081 3.76173 -2.24556 0
M  V30 7944 C 757.582 4.39776 -0.557845 0
M  V30 7945 H 754.802 0.628652 -0.2346 0
M  V30 7946 H 757.346 1.59632 -1.27819 0
M  V30 7947 H 755.501 3.86474 -0.267765 0
M  V30 7948 H 755.915 4.70636 -2.31522 0
M  V30 7949 H 757.389 5.46431 -0.782157 0
M  V30 7950 H 757.866 4.36257 0.507573 0
M  V30 7951 H 758.472 4.09644 -1.14332 0
M  V30 7952 N 756.787 0.722489 1.40064 0
M  V30 7953 C 757.75 0.0830209 2.2905 0
M  V30 7954 C 758.75 -0.680208 1.45705 0
M  V30 7955 O 759.94 -0.511084 1.66534 0
M  V30 7956 C 757.072 -0.892092 3.29021 0
M  V30 7957 H 758.265 0.866848 2.87099 0
M  V30 7958 H 755.818 0.487556 1.48501 0
M  V30 7959 H 756.553 -1.70273 2.76003 0
M  V30 7960 H 756.338 -0.34761 3.90556 0
M  V30 7961 H 757.828 -1.33648 3.95636 0
M  V30 7962 N 758.265 -1.50454 0.469181 0
M  V30 7963 C 759.197 -2.26319 -0.362247 0
M  V30 7964 C 760.21 -1.31574 -0.958751 0
M  V30 7965 O 761.399 -1.57099 -0.847482 0
M  V30 7966 C 758.499 -3.02808 -1.52187 0
M  V30 7967 C 757.672 -4.24893 -1.03849 0
M  V30 7968 C 756.731 -4.83691 -2.07194 0
M  V30 7969 O 755.757 -5.44659 -1.65333 0
M  V30 7970 N 756.959 -4.70522 -3.39985 0
M  V30 7971 H 759.724 -2.98312 0.288124 0
M  V30 7972 H 757.285 -1.59099 0.299856 0
M  V30 7973 H 759.277 -3.39023 -2.21011 0
M  V30 7974 H 757.847 -2.33625 -2.07697 0
M  V30 7975 H 757.067 -3.93806 -0.176203 0
M  V30 7976 H 758.355 -5.04053 -0.693435 0
M  V30 7977 H 757.753 -4.2203 -3.76706 0
M  V30 7978 H 756.31 -5.11011 -4.04612 0
M  V30 7979 N 759.743 -0.201713 -1.56304 0
M  V30 7980 C 760.983 0.437395 -1.99665 0
M  V30 7981 C 761.347 1.58341 -1.08592 0
M  V30 7982 O 762.548 2.28716 -1.41217 0
M  V30 7983 C 760.819 0.879572 -3.46408 0
M  V30 7984 S 762.378 1.51558 -4.11795 0
M  V30 7985 H 759.196 0.139621 -0.697156 0
M  V30 7986 H 761.798 -0.306337 -1.93085 0
M  V30 7987 H 760.502 0.0355295 -4.10385 0
M  V30 7988 H 760.033 1.65661 -3.56819 0
M  V30 7989 H 762.048 2.80445 -4.09347 0
M  V30 7990 N 761.222 1.57436 0.0718424 0
M  V30 7991 C 762.185 2.02703 1.06977 0
M  V30 7992 C 763.185 0.924062 1.31597 0
M  V30 7993 O 764.375 1.18894 1.27318 0
M  V30 7994 C 761.507 2.40763 2.41342 0
M  V30 7995 H 762.7 2.92098 0.679619 0
M  V30 7996 H 760.253 1.5304 0.317565 0
M  V30 7997 H 760.988 1.54394 2.8519 0
M  V30 7998 H 760.773 3.21249 2.24814 0
M  V30 7999 H 762.263 2.76361 3.13073 0
M  V30 8000 N 762.7 -0.34323 1.53817 0
M  V30 8001 C 763.947 -1.08344 1.71079 0
M  V30 8002 C 764.275 -1.88633 0.474133 0
M  V30 8003 O 763.53 -1.87984 -0.544116 0
M  V30 8004 C 763.829 -2.05195 2.92626 0
M  V30 8005 C 763.495 -1.41215 4.28216 0
M  V30 8006 C 762.157 -1.23495 4.65083 0
M  V30 8007 C 764.509 -0.951273 5.12445 0
M  V30 8008 C 761.837 -0.583065 5.83796 0
M  V30 8009 C 764.189 -0.313292 6.31824 0
M  V30 8010 C 762.853 -0.123779 6.67385 0
M  V30 8011 H 762.123 -0.396458 0.626021 0
M  V30 8012 H 764.77 -0.362689 1.88034 0
M  V30 8013 H 763.075 -2.83653 2.70275 0
M  V30 8014 H 764.772 -2.62462 3.03175 0
M  V30 8015 H 761.362 -1.56005 3.992 0
M  V30 8016 H 765.546 -1.07602 4.84495 0
M  V30 8017 H 760.802 -0.424854 6.09922 0
M  V30 8018 H 764.976 0.0519179 6.96381 0
M  V30 8019 H 762.603 0.383398 7.59233 0
M  V30 8020 N 764.178 -1.45556 -0.604258 0
M  V30 8021 C 765.125 -1.54482 -1.71476 0
M  V30 8022 C 766.095 -0.390479 -1.61445 0
M  V30 8023 O 767.28 -0.604371 -1.80975 0
M  V30 8024 C 764.42 -1.52064 -3.09791 0
M  V30 8025 C 763.533 -2.78073 -3.30604 0
M  V30 8026 C 762.668 -2.67304 -4.59044 0
M  V30 8027 C 761.707 -3.88352 -4.73127 0
M  V30 8028 N 760.844 -3.76098 -5.9287 0
M  V30 8029 H 765.684 -2.49349 -1.63184 0
M  V30 8030 H 763.221 -1.23725 -0.795641 0
M  V30 8031 H 765.179 -1.48649 -3.89819 0
M  V30 8032 H 763.809 -0.607442 -3.17033 0
M  V30 8033 H 762.861 -2.91561 -2.44329 0
M  V30 8034 H 764.173 -3.67847 -3.36883 0
M  V30 8035 H 763.327 -2.61875 -5.47272 0
M  V30 8036 H 762.066 -1.75135 -4.55169 0
M  V30 8037 H 761.071 -3.94137 -3.83322 0
M  V30 8038 H 762.296 -4.81591 -4.78797 0
M  V30 8039 H 760.242 -2.867 -5.90033 0
M  V30 8040 H 760.159 -4.59509 -6.00323 0
M  V30 8041 H 761.427 -3.74607 -6.83586 0
M  V30 8042 N 765.656 0.84705 -1.32902 0
M  V30 8043 C 766.881 1.63925 -1.27056 0
M  V30 8044 C 767.306 1.87443 0.157136 0
M  V30 8045 O 766.664 1.43266 1.11106 0
M  V30 8046 C 766.712 2.97134 -2.04313 0
M  V30 8047 O 765.816 3.88049 -1.39614 0
M  V30 8048 H 765.157 0.499477 -0.437514 0
M  V30 8049 H 767.687 1.05443 -1.75336 0
M  V30 8050 H 767.697 3.46896 -2.14772 0
M  V30 8051 H 766.372 2.79339 -3.08128 0
M  V30 8052 H 764.949 3.46525 -1.3775 0
M  V30 8053 N 767.134 1.16236 1.06428 0
M  V30 8054 C 768.081 0.86769 2.13869 0
M  V30 8055 C 769.051 -0.183298 1.65086 0
M  V30 8056 O 770.236 -0.0488002 1.90738 0
M  V30 8057 C 767.376 0.373427 3.43074 0
M  V30 8058 C 766.489 1.48708 4.05598 0
M  V30 8059 C 765.624 0.947977 5.22673 0
M  V30 8060 C 764.663 2.03793 5.77178 0
M  V30 8061 N 763.8 1.51451 6.85571 0
M  V30 8062 H 768.64 1.78781 2.38414 0
M  V30 8063 H 766.177 0.891892 1.16977 0
M  V30 8064 H 768.135 0.0685035 4.17144 0
M  V30 8065 H 766.765 -0.509752 3.1875 0
M  V30 8066 H 765.817 1.908 3.29089 0
M  V30 8067 H 767.129 2.30964 4.42105 0
M  V30 8068 H 766.283 0.596154 6.03764 0
M  V30 8069 H 765.022 0.0947081 4.87608 0
M  V30 8070 H 764.027 2.39847 4.94726 0
M  V30 8071 H 765.252 2.89514 6.14295 0
M  V30 8072 H 763.198 0.683755 6.52427 0
M  V30 8073 H 763.115 2.27325 7.21013 0
M  V30 8074 H 764.383 1.19123 7.70344 0
M  V30 8075 N 768.612 -1.24939 0.960631 0
M  V30 8076 C 769.837 -1.9742 0.635608 0
M  V30 8077 C 770.262 -1.70857 -0.786737 0
M  V30 8078 O 769.62 -0.968063 -1.53291 0
M  V30 8079 C 769.668 -3.48987 0.907771 0
M  V30 8080 O 768.772 -4.12399 -0.0104053 0
M  V30 8081 H 768.113 -0.61871 0.241027 0
M  V30 8082 H 770.643 -1.58901 1.28886 0
M  V30 8083 H 770.653 -3.99334 0.836453 0
M  V30 8084 H 769.328 -3.6765 1.94439 0
M  V30 8085 H 767.905 -3.72727 0.113631 0
M  V30 8086 N 770.09 -0.729906 -1.39679 0
M  V30 8087 C 771 -0.0880322 -2.34435 0
M  V30 8088 C 772.016 0.727674 -1.58053 0
M  V30 8089 O 773.192 0.657321 -1.90371 0
M  V30 8090 C 770.257 0.812211 -3.37052 0
M  V30 8091 C 769.318 -0.0151681 -4.29297 0
M  V30 8092 C 768.551 0.842202 -5.27013 0
M  V30 8093 O 768.774 2.08108 -5.31081 0
M  V30 8094 O 767.708 0.27357 -6.01278 0
M  V30 8095 H 771.534 -0.869989 -2.90972 0
M  V30 8096 H 769.119 -0.490522 -1.41118 0
M  V30 8097 H 771.001 1.32745 -3.99946 0
M  V30 8098 H 769.676 1.57307 -2.82907 0
M  V30 8099 H 768.583 -0.575811 -3.69642 0
M  V30 8100 H 769.916 -0.738129 -4.86634 0
M  V30 8101 N 771.568 1.50203 -0.477153 0
M  V30 8102 C 772.515 2.28656 0.31386 0
M  V30 8103 C 773.485 1.33977 0.981802 0
M  V30 8104 O 774.67 1.62919 0.993072 0
M  V30 8105 C 771.81 3.16027 1.38639 0
M  V30 8106 C 770.923 4.25743 0.732615 0
M  V30 8107 C 770.058 5.00363 1.78355 0
M  V30 8108 C 769.097 6.01945 1.11035 0
M  V30 8109 N 768.234 6.6982 2.10441 0
M  V30 8110 H 773.074 2.958 -0.361445 0
M  V30 8111 H 770.611 1.45867 -0.190093 0
M  V30 8112 H 772.569 3.6504 2.01994 0
M  V30 8113 H 771.199 2.50917 2.03077 0
M  V30 8114 H 770.251 3.80398 -0.0136546 0
M  V30 8115 H 771.563 4.98393 0.201513 0
M  V30 8116 H 770.717 5.53124 2.49276 0
M  V30 8117 H 769.456 4.27432 2.34847 0
M  V30 8118 H 768.461 5.48438 0.386797 0
M  V30 8119 H 769.686 6.76851 0.552248 0
M  V30 8120 H 767.632 5.99677 2.65939 0
M  V30 8121 H 767.549 7.38366 1.62332 0
M  V30 8122 H 768.817 7.27196 2.80724 0
M  V30 8123 N 773.046 0.209999 1.56195 0
M  V30 8124 C 774.286 -0.4268 1.99894 0
M  V30 8125 C 774.65 -1.57763 1.0943 0
M  V30 8126 O 775.851 -2.27964 1.42428 0
M  V30 8127 C 774.122 -0.861188 3.46869 0
M  V30 8128 S 775.681 -1.49372 4.12593 0
M  V30 8129 H 772.499 -0.135922 0.697887 0
M  V30 8130 H 775.101 0.316573 1.9292 0
M  V30 8131 H 773.805 -0.0137653 4.10398 0
M  V30 8132 H 773.336 -1.63766 3.57693 0
M  V30 8133 H 775.351 -2.7827 4.10829 0
M  V30 8134 N 774.524 -1.57472 -0.0634922 0
M  V30 8135 C 775.94 -1.54016 -0.418466 0
M  V30 8136 C 776.14 -0.931376 -1.78683 0
M  V30 8137 O 775.196 -0.537465 -2.46714 0
M  V30 8138 C 776.509 -2.98634 -0.351906 0
M  V30 8139 C 778.057 -3.10012 -0.431494 0
M  V30 8140 C 778.532 -4.56296 -0.394754 0
M  V30 8141 N 780.023 -4.60964 -0.454583 0
M  V30 8142 C 780.758 -5.71643 -0.448501 0
M  V30 8143 N 780.254 -6.91663 -0.396742 0
M  V30 8144 N 782.047 -5.5991 -0.495677 0
M  V30 8145 H 774.198 -1.95409 0.832408 0
M  V30 8146 H 776.461 -0.894769 0.313197 0
M  V30 8147 H 776.167 -3.46766 0.587048 0
M  V30 8148 H 776.041 -3.58955 -1.15893 0
M  V30 8149 H 778.428 -2.61848 -1.36087 0
M  V30 8150 H 778.509 -2.52585 0.404258 0
M  V30 8151 H 778.153 -5.05119 0.530811 0
M  V30 8152 H 778.083 -5.11594 -1.24815 0
M  V30 8153 H 780.574 -3.74598 -0.498496 0
M  V30 8154 H 780.887 -7.71783 -0.396256 0
M  V30 8155 H 779.232 -6.9405 -0.363304 0
M  V30 8156 H 782.423 -4.65046 -0.533864 0
M  V30 8157 H 782.596 -6.46164 -0.487469 0
M  V30 8158 N 776.003 0.335068 -1.53997 0
M  V30 8159 C 777.28 1.09188 -1.62288 0
M  V30 8160 C 777.66 2.0626 -0.449458 0
M  V30 8161 O 777.008 2.21596 0.557444 0
M  V30 8162 C 777.218 1.80403 -2.98757 0
M  V30 8163 C 778.566 2.33841 -3.54406 0
M  V30 8164 O 779.59 1.90487 -3.00987 0
M  V30 8165 O 778.449 3.1318 -4.47862 0
M  V30 8166 H 775.543 0.502621 -0.656736 0
M  V30 8167 H 778.089 0.33588 -1.66343 0
M  V30 8168 H 776.861 1.09732 -3.75599 0
M  V30 8169 H 776.484 2.62841 -2.9833 0
M  V30 8170 N 777.481 1.45874 0.596531 0
M  V30 8171 C 778.758 1.40942 1.35627 0
M  V30 8172 C 779.138 0.0857066 2.10926 0
M  V30 8173 O 778.486 -0.932544 2.08605 0
M  V30 8174 C 778.696 2.63027 2.29386 0
M  V30 8175 C 780.044 3.08588 2.91649 0
M  V30 8176 O 781.068 2.63478 2.39704 0
M  V30 8177 O 779.927 3.86902 3.85965 0
M  V30 8178 H 777.021 0.559838 0.608696 0
M  V30 8179 H 779.567 1.5802 0.618698 0
M  V30 8180 H 778.339 3.5094 1.7308 0
M  V30 8181 H 777.962 2.48338 3.10506 0
M  V30 8182 N 778.959 -0.83999 1.33349 0
M  V30 8183 C 780.184 -1.63249 1.27924 0
M  V30 8184 C 780.609 -1.87523 -0.147193 0
M  V30 8185 O 779.967 -1.43853 -1.10345 0
M  V30 8186 C 780.015 -2.96046 2.05886 0
M  V30 8187 O 779.119 -3.87303 1.4167 0
M  V30 8188 H 778.46 -0.49715 0.440157 0
M  V30 8189 H 780.99 -1.04512 1.75893 0
M  V30 8190 H 781 -3.45752 2.16609 0
M  V30 8191 H 779.675 -2.77701 3.09605 0
M  V30 8192 H 778.252 -3.45789 1.39585 0
M  V30 8193 N 780.437 -1.16799 -1.0581 0
M  V30 8194 C 781.714 -0.862616 -1.75551 0
M  V30 8195 C 782.094 0.6385 -2.01212 0
M  V30 8196 O 781.442 1.58784 -1.64317 0
M  V30 8197 C 781.652 -1.6907 -3.05314 0
M  V30 8198 C 783 -1.90675 -3.79379 0
M  V30 8199 O 784.024 -1.65976 -3.15167 0
M  V30 8200 O 782.883 -2.32145 -4.94743 0
M  V30 8201 H 779.977 -0.318789 -0.763088 0
M  V30 8202 H 782.523 -1.27461 -1.12034 0
M  V30 8203 H 781.295 -2.70912 -2.82352 0
M  V30 8204 H 780.918 -1.27606 -3.76567 0
M  V30 8205 N 781.915 1.24427 -0.967243 0
M  V30 8206 C 783.155 1.9423 -0.636723 0
M  V30 8207 C 783.519 1.73939 0.812971 0
M  V30 8208 O 784.72 2.37773 1.25369 0
M  V30 8209 C 782.991 3.43105 -1.00067 0
M  V30 8210 S 784.55 4.31728 -0.784633 0
M  V30 8211 H 781.368 0.671527 -0.233607 0
M  V30 8212 H 783.97 1.50806 -1.2441 0
M  V30 8213 H 782.674 3.5538 -2.05264 0
M  V30 8214 H 782.205 3.91521 -0.384054 0
M  V30 8215 H 784.22 4.95046 0.338244 0
M  V30 8216 N 783.393 0.737304 1.3929 0
M  V30 8217 C 784.356 0.10731 2.28949 0
M  V30 8218 C 785.356 -0.664716 1.46418 0
M  V30 8219 O 786.546 -0.493392 1.67067 0
M  V30 8220 C 783.678 -0.857145 3.29948 0
M  V30 8221 H 784.871 0.89725 2.86163 0
M  V30 8222 H 782.424 0.503279 1.47976 0
M  V30 8223 H 783.159 -1.67336 2.77794 0
M  V30 8224 H 782.944 -0.306167 3.90903 0
M  V30 8225 H 784.434 -1.29444 3.97031 0
M  V30 8226 N 784.871 -1.49948 0.485112 0
M  V30 8227 C 786.287 -1.58984 0.140096 0
M  V30 8228 C 786.487 -1.49194 -1.35438 0
M  V30 8229 O 785.543 -1.35765 -2.12894 0
M  V30 8230 C 786.856 -2.92372 0.702769 0
M  V30 8231 C 788.404 -3.05801 0.66745 0
M  V30 8232 C 788.879 -4.41785 1.20791 0
M  V30 8233 N 790.37 -4.48234 1.16792 0
M  V30 8234 C 791.105 -5.51871 1.55646 0
M  V30 8235 N 790.601 -6.62692 2.02016 0
M  V30 8236 N 792.394 -5.42494 1.47161 0
M  V30 8237 H 784.545 -1.54555 1.45693 0
M  V30 8238 H 786.808 -0.731206 0.603359 0
M  V30 8239 H 786.514 -3.05056 1.75025 0
M  V30 8240 H 786.388 -3.76885 0.154205 0
M  V30 8241 H 788.775 -2.92757 -0.371157 0
M  V30 8242 H 788.856 -2.23011 1.25298 0
M  V30 8243 H 788.5 -4.55579 2.24522 0
M  V30 8244 H 788.43 -5.23188 0.598464 0
M  V30 8245 H 790.921 -3.68718 0.827982 0
M  V30 8246 H 791.234 -7.3785 2.29775 0
M  V30 8247 H 789.579 -6.63775 2.05979 0
M  V30 8248 H 792.77 -4.54806 1.10765 0
M  V30 8249 H 792.943 -6.2314 1.77766 0
M  V30 8250 N 786.349 -0.21828 -1.56081 0
M  V30 8251 C 787.259 0.704602 -2.23769 0
M  V30 8252 C 788.275 1.21633 -1.24425 0
M  V30 8253 O 789.451 1.25862 -1.57228 0
M  V30 8254 C 786.516 1.89725 -2.90182 0
M  V30 8255 C 785.577 1.42782 -4.0486 0
M  V30 8256 C 784.81 2.56361 -4.68097 0
M  V30 8257 O 785.033 3.74417 -4.30312 0
M  V30 8258 O 783.967 2.2775 -5.57148 0
M  V30 8259 H 787.793 0.158007 -3.03289 0
M  V30 8260 H 785.378 0.0120279 -1.49395 0
M  V30 8261 H 787.26 2.59382 -3.32113 0
M  V30 8262 H 785.935 2.432 -2.13624 0
M  V30 8263 H 784.842 0.699359 -3.67505 0
M  V30 8264 H 786.175 0.939474 -4.83151 0
M  V30 8265 N 787.827 1.57504 0.0551401 0
M  V30 8266 C 789.075 1.87684 0.74962 0
M  V30 8267 C 789.396 0.812547 1.77264 0
M  V30 8268 O 788.666 -0.15694 1.9527 0
M  V30 8269 H 787.246 0.6926 0.279846 0
M  V30 8270 H 789.908 1.94881 0.0272745 0
M  V30 8271 H 789.004 2.85734 1.25548 0
M  V30 8272 N 789.305 -0.326896 1.54172 0
M  V30 8273 C 790.554 -1.06274 1.71431 0
M  V30 8274 C 790.867 -1.89282 0.493123 0
M  V30 8275 O 792.073 -2.65933 0.54699 0
M  V30 8276 C 790.529 -1.93892 3.03206 0
M  V30 8277 C 790.137 -1.16011 4.32719 0
M  V30 8278 C 791.881 -2.67232 3.29829 0
M  V30 8279 C 789.788 -2.02755 5.55558 0
M  V30 8280 H 788.718 -0.400475 0.638855 0
M  V30 8281 H 791.369 -0.321184 1.80667 0
M  V30 8282 H 789.751 -2.71933 2.87869 0
M  V30 8283 H 790.925 -0.427643 4.58811 0
M  V30 8284 H 789.24 -0.54367 4.12836 0
M  V30 8285 H 791.837 -3.32434 4.18798 0
M  V30 8286 H 792.18 -3.34692 2.47562 0
M  V30 8287 H 792.713 -1.96255 3.46018 0
M  V30 8288 H 789.452 -1.3981 6.40417 0
M  V30 8289 H 788.972 -2.73745 5.33689 0
M  V30 8290 H 790.651 -2.61419 5.91835 0
M  V30 8291 N 790.784 -1.46188 -0.588786 0
M  V30 8292 C 792.024 -1.52738 -1.35833 0
M  V30 8293 C 792.388 -0.172403 -1.91224 0
M  V30 8294 O 793.589 -0.112633 -2.68564 0
M  V30 8295 C 791.86 -2.59085 -2.4619 0
M  V30 8296 S 793.419 -2.84997 -3.3365 0
M  V30 8297 H 790.237 -0.539713 -0.462851 0
M  V30 8298 H 792.839 -1.83386 -0.677489 0
M  V30 8299 H 791.543 -3.56177 -2.03878 0
M  V30 8300 H 791.074 -2.3015 -3.19053 0
M  V30 8301 H 793.089 -2.19804 -4.4486 0
M  V30 8302 N 792.262 0.832906 -1.33792 0
M  V30 8303 C 793.21 1.96455 -1.24532 0
M  V30 8304 C 794.204 1.68774 -0.145455 0
M  V30 8305 O 795.41 1.77314 -0.309797 0
M  V30 8306 H 791.785 0.645008 -0.386611 0
M  V30 8307 H 793.756 2.01389 -2.20193 0
M  V30 8308 C 792.505 3.32784 -1.00748 0
M  V30 8309 H 791.828 3.54626 -1.84609 0
M  V30 8310 H 793.268 4.12447 -0.98301 0
M  V30 8311 C 791.727 3.35654 0.289475 0
M  V30 8312 O 792.257 3.80281 1.29419 0
M  V30 8313 N 790.463 2.88843 0.3191 0
M  V30 8314 H 790.01 2.52719 -0.499069 0
M  V30 8315 H 789.968 2.91145 1.18667 0
M  V30 8316 N 793.74 1.17359 1.05189 0
M  V30 8317 C 794.988 0.960087 1.77839 0
M  V30 8318 C 795.309 -0.512554 1.88143 0
M  V30 8319 O 794.579 -1.3721 1.39822 0
M  V30 8320 H 793.159 0.352234 0.658741 0
M  V30 8321 H 795.821 1.47834 1.27008 0
M  V30 8322 H 794.917 1.38843 2.79516 0
M  V30 8323 N 795.218 -1.23913 0.973828 0
M  V30 8324 C 796.465 -1.92151 0.639079 0
M  V30 8325 C 796.793 -1.76064 -0.826545 0
M  V30 8326 O 796.048 -1.11126 -1.61088 0
M  V30 8327 C 796.347 -3.4406 0.967356 0
M  V30 8328 C 796.013 -3.80321 2.42212 0
M  V30 8329 C 794.675 -3.8993 2.81971 0
M  V30 8330 C 797.027 -3.97935 3.36596 0
M  V30 8331 C 794.355 -4.14575 4.15144 0
M  V30 8332 C 796.707 -4.24079 4.69404 0
M  V30 8333 C 795.371 -4.31908 5.08932 0
M  V30 8334 H 794.641 -0.70313 0.233856 0
M  V30 8335 H 797.288 -1.47072 1.22646 0
M  V30 8336 H 795.593 -3.90667 0.297807 0
M  V30 8337 H 797.29 -3.95077 0.686654 0
M  V30 8338 H 793.88 -3.73411 2.10385 0
M  V30 8339 H 798.064 -3.89908 3.07059 0
M  V30 8340 H 793.32 -4.18858 4.45385 0
M  V30 8341 H 797.494 -4.36652 5.42502 0
M  V30 8342 H 795.121 -4.50758 6.12145 0
M  V30 8343 N 796.696 -0.74468 -1.38897 0
M  V30 8344 C 797.924 -0.307428 -2.04603 0
M  V30 8345 C 798.339 1.06115 -1.56157 0
M  V30 8346 O 797.696 1.67233 -0.730701 0
M  V30 8347 C 797.747 -0.31101 -3.6016 0
M  V30 8348 O 797.468 -1.62557 -4.06825 0
M  V30 8349 C 798.969 0.141213 -4.43075 0
M  V30 8350 H 796.189 -0.132741 -0.657739 0
M  V30 8351 H 798.733 -1.01104 -1.77759 0
M  V30 8352 H 796.888 0.343792 -3.85872 0
M  V30 8353 H 797.302 -1.54569 -5.01207 0
M  V30 8354 H 798.776 0.0875449 -5.51931 0
M  V30 8355 H 799.253 1.18782 -4.22833 0
M  V30 8356 H 799.859 -0.484383 -4.22533 0
M  V30 8357 N 798.174 1.49689 -0.493057 0
M  V30 8358 C 799.137 2.27502 0.278485 0
M  V30 8359 C 800.137 1.33184 0.901037 0
M  V30 8360 O 801.327 1.56415 0.766801 0
M  V30 8361 C 798.459 3.10881 1.39878 0
M  V30 8362 H 799.652 2.97163 -0.404219 0
M  V30 8363 H 797.205 1.54324 -0.247774 0
M  V30 8364 H 797.94 2.45767 2.11587 0
M  V30 8365 H 797.725 3.80219 0.957924 0
M  V30 8366 H 799.215 3.69673 1.94247 0
M  V30 8367 N 799.652 0.226554 1.55963 0
M  V30 8368 C 800.582 -0.676079 2.23498 0
M  V30 8369 C 801.563 -1.19718 1.20837 0
M  V30 8370 O 802.748 -1.24027 1.49436 0
M  V30 8371 C 799.878 -1.88217 2.91876 0
M  V30 8372 C 798.832 -1.4947 4.01052 0
M  V30 8373 C 798.158 -2.77997 4.56751 0
M  V30 8374 C 799.458 -0.680951 5.17842 0
M  V30 8375 H 801.152 -0.112989 2.99187 0
M  V30 8376 H 798.698 -0.0529046 1.43903 0
M  V30 8377 H 800.651 -2.51911 3.37815 0
M  V30 8378 H 799.375 -2.47031 2.13643 0
M  V30 8379 H 798.034 -0.881199 3.55852 0
M  V30 8380 H 797.682 -3.34966 3.75243 0
M  V30 8381 H 797.382 -2.52803 5.30438 0
M  V30 8382 H 798.906 -3.42625 5.05411 0
M  V30 8383 H 800.32 -1.22171 5.60131 0
M  V30 8384 H 798.717 -0.525898 5.97791 0
M  V30 8385 H 799.787 0.311346 4.83899 0
M  V30 8386 N 801.13 -1.57531 -0.0467866 0
M  V30 8387 C 802.37 -1.90294 -0.746171 0
M  V30 8388 C 802.734 -0.823194 -1.73458 0
M  V30 8389 O 803.935 -1.03463 -2.48091 0
M  V30 8390 C 802.206 -3.28249 -1.41378 0
M  V30 8391 S 803.765 -3.82812 -2.14477 0
M  V30 8392 H 800.583 -0.666496 -0.247598 0
M  V30 8393 H 803.185 -1.955 -0.00135143 0
M  V30 8394 H 801.889 -4.04712 -0.680937 0
M  V30 8395 H 801.42 -3.26302 -2.19751 0
M  V30 8396 H 803.435 -3.60111 -3.41372 0
M  V30 8397 N 802.608 0.318715 -1.54344 0
M  V30 8398 C 804.019 0.89285 -1.63967 0
M  V30 8399 C 804.37 1.88712 -0.536855 0
M  V30 8400 O 803.495 2.13877 0.329457 0
M  V30 8401 C 804.09 1.62618 -2.97222 0
M  V30 8402 C 802.649 2.14897 -3.09025 0
M  V30 8403 C 801.796 0.975909 -2.5956 0
M  V30 8404 H 804.747 0.0961687 -1.58408 0
M  V30 8405 H 804.768 2.4907 -2.87653 0
M  V30 8406 H 804.28 0.902286 -3.77466 0
M  V30 8407 H 802.381 2.90387 -2.33465 0
M  V30 8408 H 802.494 2.39565 -4.14904 0
M  V30 8409 H 800.858 1.35646 -2.15574 0
M  V30 8410 H 801.641 0.266253 -3.42266 0
M  V30 8411 N 804.086 1.46499 0.581025 0
M  V30 8412 C 805.049 1.5677 1.672 0
M  V30 8413 C 806.049 0.444716 1.54528 0
M  V30 8414 O 807.239 0.709074 1.59116 0
M  V30 8415 C 804.371 1.4896 3.06633 0
M  V30 8416 H 805.564 2.54 1.5945 0
M  V30 8417 H 803.117 1.34334 0.799003 0
M  V30 8418 H 803.852 0.530168 3.19937 0
M  V30 8419 H 803.637 2.30439 3.17239 0
M  V30 8420 H 805.127 1.59237 3.86048 0
M  V30 8421 N 805.565 -0.825799 1.34232 0
M  V30 8422 C 806.79 -1.61883 1.29648 0
M  V30 8423 C 807.215 -1.87669 -0.127295 0
M  V30 8424 O 806.573 -1.45016 -1.08813 0
M  V30 8425 C 806.621 -2.93846 2.09014 0
M  V30 8426 O 805.725 -3.85778 1.4577 0
M  V30 8427 H 805.066 -0.492454 0.445405 0
M  V30 8428 H 807.596 -1.02641 1.76992 0
M  V30 8429 H 807.606 -3.43435 2.20264 0
M  V30 8430 H 806.281 -2.74401 3.12533 0
M  V30 8431 H 804.858 -3.4429 1.43245 0
M  V30 8432 N 807.043 -1.17915 -1.04565 0
M  V30 8433 C 808.32 -0.881187 -1.74627 0
M  V30 8434 C 808.7 0.617123 -2.01878 0
M  V30 8435 O 808.048 1.57032 -1.65991 0
M  V30 8436 C 808.258 -1.72299 -3.03503 0
M  V30 8437 C 809.606 -1.94688 -3.77335 0
M  V30 8438 O 810.63 -1.6931 -3.13389 0
M  V30 8439 O 809.489 -2.37379 -4.92253 0
M  V30 8440 H 806.583 -0.326864 -0.759664 0
M  V30 8441 H 809.129 -1.28642 -1.10676 0
M  V30 8442 H 807.901 -2.73891 -2.79462 0
M  V30 8443 H 807.524 -1.31593 -3.75192 0
M  V30 8444 N 808.521 1.23394 -0.980386 0
M  V30 8445 C 809.932 1.73631 -0.686239 0
M  V30 8446 C 810.283 1.79259 0.797541 0
M  V30 8447 O 809.408 1.43046 1.62379 0
M  V30 8448 C 810.003 3.15332 -1.239 0
M  V30 8449 C 808.562 3.63024 -0.994494 0
M  V30 8450 C 807.709 2.41279 -1.36673 0
M  V30 8451 H 810.66 1.08918 -1.15423 0
M  V30 8452 H 810.681 3.75556 -0.611414 0
M  V30 8453 H 810.193 3.11204 -2.31892 0
M  V30 8454 H 808.294 3.72535 0.0693492 0
M  V30 8455 H 808.407 4.49825 -1.64906 0
M  V30 8456 H 806.771 2.42295 -0.785195 0
M  V30 8457 H 807.554 2.39822 -2.45642 0
M  V30 8458 N 809.999 0.752036 1.385 0
M  V30 8459 C 810.946 0.123288 2.3047 0
M  V30 8460 C 811.916 -0.711326 1.50098 0
M  V30 8461 O 813.101 -0.667775 1.78733 0
M  V30 8462 C 810.241 -0.765085 3.36512 0
M  V30 8463 C 809.354 0.0839885 4.31918 0
M  V30 8464 C 808.489 -0.807243 5.25031 0
M  V30 8465 C 807.528 0.0455583 6.12083 0
M  V30 8466 N 806.665 -0.802547 6.97498 0
M  V30 8467 H 811.505 0.913169 2.83664 0
M  V30 8468 H 809.042 0.46195 1.39658 0
M  V30 8469 H 811 -1.29476 3.966 0
M  V30 8470 H 809.63 -1.52077 2.84732 0
M  V30 8471 H 808.682 0.731276 3.73305 0
M  V30 8472 H 809.994 0.74265 4.9324 0
M  V30 8473 H 809.148 -1.40414 5.90228 0
M  V30 8474 H 807.887 -1.49964 4.64071 0
M  V30 8475 H 806.892 0.655137 5.45883 0
M  V30 8476 H 808.117 0.734994 6.75111 0
M  V30 8477 H 806.063 -1.47992 6.39089 0
M  V30 8478 H 805.98 -0.200747 7.55733 0
M  V30 8479 H 807.248 -1.38447 7.67107 0
M  V30 8480 N 811.477 -1.49425 0.500989 0
M  V30 8481 C 812.888 -1.86624 0.0532011 0
M  V30 8482 C 813.239 -1.41331 -1.36088 0
M  V30 8483 O 812.364 -0.791195 -2.01418 0
M  V30 8484 C 812.959 -3.38681 0.0897693 0
M  V30 8485 C 811.518 -3.75181 -0.302677 0
M  V30 8486 C 810.665 -2.73419 0.462307 0
M  V30 8487 H 813.616 -1.41743 0.713773 0
M  V30 8488 H 813.637 -3.73902 -0.705528 0
M  V30 8489 H 813.149 -3.71616 1.11907 0
M  V30 8490 H 811.25 -3.47855 -1.33521 0
M  V30 8491 H 811.363 -4.79097 0.0167653 0
M  V30 8492 H 809.727 -2.54548 -0.0878557 0
M  V30 8493 H 810.51 -3.09198 1.49169 0
M  V30 8494 N 812.955 -0.234822 -1.55841 0
M  V30 8495 C 813.903 0.686145 -2.22249 0
M  V30 8496 C 814.897 1.18948 -1.20614 0
M  V30 8497 O 816.103 1.14777 -1.38659 0
M  V30 8498 H 812.478 0.239724 -0.712767 0
M  V30 8499 H 814.449 0.102762 -2.98223 0
M  V30 8500 C 813.198 1.8776 -2.92646 0
M  V30 8501 H 812.521 1.49943 -3.70617 0
M  V30 8502 H 813.961 2.4995 -3.42493 0
M  V30 8503 C 812.42 2.74127 -1.95847 0
M  V30 8504 O 812.95 3.7329 -1.48384 0
M  V30 8505 N 811.156 2.4044 -1.63209 0
M  V30 8506 H 810.703 1.59854 -2.02001 0
M  V30 8507 H 810.661 2.98504 -0.987063 0
M  V30 8508 N 814.433 1.57553 0.0384317 0
M  V30 8509 C 815.68 1.88841 0.731116 0
M  V30 8510 C 816.008 0.83093 1.75857 0
M  V30 8511 O 815.263 -0.169248 1.94967 0
M  V30 8512 C 815.562 3.26862 1.44554 0
M  V30 8513 C 815.228 4.47472 0.554946 0
M  V30 8514 C 813.89 4.80203 0.309621 0
M  V30 8515 C 816.242 5.21165 -0.0605204 0
M  V30 8516 C 813.57 5.8402 -0.560101 0
M  V30 8517 C 815.922 6.25905 -0.91789 0
M  V30 8518 C 814.586 6.57117 -1.17277 0
M  V30 8519 H 813.856 0.691018 0.267534 0
M  V30 8520 H 816.503 1.91498 -0.00883195 0
M  V30 8521 H 814.808 3.2015 2.25856 0
M  V30 8522 H 816.505 3.48316 1.98688 0
M  V30 8523 H 813.095 4.21874 0.756304 0
M  V30 8524 H 817.279 4.96164 0.116064 0
M  V30 8525 H 812.535 6.06583 -0.765974 0
M  V30 8526 H 816.709 6.82155 -1.40136 0
M  V30 8527 H 814.336 7.37385 -1.84843 0
M  V30 8528 N 815.911 -0.310526 1.54511 0
M  V30 8529 C 817.139 -1.06611 1.77318 0
M  V30 8530 C 817.554 -1.81265 0.528043 0
M  V30 8531 O 816.911 -1.75466 -0.50178 0
M  V30 8532 C 816.962 -2.05409 2.97472 0
M  V30 8533 O 816.683 -1.33785 4.17173 0
M  V30 8534 C 818.184 -2.93082 3.32593 0
M  V30 8535 H 815.404 -0.316578 0.591624 0
M  V30 8536 H 817.948 -0.352691 2.01436 0
M  V30 8537 H 816.103 -2.72266 2.7559 0
M  V30 8538 H 816.517 -2.00055 4.84849 0
M  V30 8539 H 817.991 -3.58274 4.19933 0
M  V30 8540 H 818.468 -3.60877 2.50329 0
M  V30 8541 H 819.074 -2.31768 3.566 0
M  V30 8542 N 817.389 -1.46805 -0.573248 0
M  V30 8543 C 818.666 -1.43082 -1.33368 0
M  V30 8544 C 819.046 -0.119252 -2.10763 0
M  V30 8545 O 818.394 0.899239 -2.10062 0
M  V30 8546 C 818.604 -2.66643 -2.25172 0
M  V30 8547 C 819.952 -3.13188 -2.86702 0
M  V30 8548 O 820.976 -2.67258 -2.35482 0
M  V30 8549 O 819.835 -3.92994 -3.79761 0
M  V30 8550 H 816.929 -0.569451 -0.599712 0
M  V30 8551 H 819.475 -1.58984 -0.59348 0
M  V30 8552 H 818.247 -3.53649 -1.67475 0
M  V30 8553 H 817.87 -2.53247 -3.06516 0
M  V30 8554 N 818.867 0.818669 -1.34668 0
M  V30 8555 C 820.107 1.58862 -1.28617 0
M  V30 8556 C 820.471 1.91483 0.140845 0
M  V30 8557 O 821.672 2.66821 0.325583 0
M  V30 8558 C 819.943 2.85044 -2.15604 0
M  V30 8559 S 821.502 3.75553 -2.26948 0
M  V30 8560 H 818.32 0.544454 -0.457265 0
M  V30 8561 H 820.922 0.966679 -1.69928 0
M  V30 8562 H 819.626 2.59083 -3.18284 0
M  V30 8563 H 819.157 3.52231 -1.75205 0
M  V30 8564 H 821.172 4.74682 -1.44539 0
M  V30 8565 N 820.346 1.18468 1.03938 0
M  V30 8566 C 821.294 0.909286 2.14091 0
M  V30 8567 C 822.288 -0.130928 1.68893 0
M  V30 8568 O 823.494 0.0173403 1.79992 0
M  V30 8569 H 819.869 0.27658 0.699291 0
M  V30 8570 H 821.84 1.84514 2.34515 0
M  V30 8571 C 820.589 0.452922 3.44737 0
M  V30 8572 H 819.912 1.24485 3.79926 0
M  V30 8573 H 821.352 0.299238 4.22943 0
M  V30 8574 C 819.811 -0.831435 3.26479 0
M  V30 8575 O 820.341 -1.89535 3.54174 0
M  V30 8576 N 818.547 -0.784545 2.79809 0
M  V30 8577 H 818.094 0.0814746 2.57471 0
M  V30 8578 H 818.052 -1.64431 2.67973 0
M  V30 8579 N 821.824 -1.22873 0.986916 0
M  V30 8580 C 823.24 -1.43594 0.696633 0
M  V30 8581 C 823.44 -1.87622 -0.734869 0
M  V30 8582 O 822.496 -2.02633 -1.50652 0
M  V30 8583 C 823.809 -2.48231 1.69711 0
M  V30 8584 C 825.357 -2.62037 1.71188 0
M  V30 8585 C 825.832 -3.6989 2.70084 0
M  V30 8586 N 827.323 -3.77341 2.68641 0
M  V30 8587 C 828.058 -4.6037 3.41829 0
M  V30 8588 N 827.554 -5.47438 4.24598 0
M  V30 8589 N 829.347 -4.54626 3.30563 0
M  V30 8590 H 821.498 -0.925982 1.91153 0
M  V30 8591 H 823.761 -0.46866 0.824052 0
M  V30 8592 H 823.467 -2.22812 2.72117 0
M  V30 8593 H 823.341 -3.46731 1.48516 0
M  V30 8594 H 825.728 -2.86803 0.694837 0
M  V30 8595 H 825.809 -1.63831 1.96451 0
M  V30 8596 H 825.453 -3.45872 3.71934 0
M  V30 8597 H 825.383 -4.67652 2.42093 0
M  V30 8598 H 827.874 -3.15124 2.08578 0
M  V30 8599 H 828.187 -6.078 4.77283 0
M  V30 8600 H 826.532 -5.4704 4.28687 0
M  V30 8601 H 829.723 -3.85627 2.65347 0
M  V30 8602 H 829.896 -5.19103 3.8786 0
M  V30 8603 N 823.302 -0.75937 -1.38099 0
M  V30 8604 C 824.252 -0.111098 -2.27729 0
M  V30 8605 C 825.236 0.687161 -1.45489 0
M  V30 8606 O 826.428 0.552167 -1.68167 0
M  V30 8607 C 823.557 0.776809 -3.34396 0
M  V30 8608 C 822.643 -0.0286108 -4.2409 0
M  V30 8609 N 823.034 -1.06797 -4.94397 0
M  V30 8610 C 821.332 0.197307 -4.45563 0
M  V30 8611 C 822.033 -1.55576 -5.6051 0
M  V30 8612 N 821.009 -0.870059 -5.36592 0
M  V30 8613 H 824.811 -0.907047 -2.79553 0
M  V30 8614 H 822.325 -0.595954 -1.5107 0
M  V30 8615 H 824.322 1.25691 -3.97502 0
M  V30 8616 H 822.982 1.57164 -2.84129 0
M  V30 8617 H 823.993 -1.44988 -4.97191 0
M  V30 8618 H 820.67 0.965028 -4.06194 0
M  V30 8619 H 822.06 -2.42184 -6.26735 0
M  V30 8620 N 824.78 1.49157 -0.508906 0
M  V30 8621 C 826.008 2.06879 0.0293734 0
M  V30 8622 C 826.423 1.36823 1.30095 0
M  V30 8623 O 825.78 0.449034 1.7689 0
M  V30 8624 C 825.831 3.60423 0.278791 0
M  V30 8625 O 825.552 4.27844 -0.942389 0
M  V30 8626 C 827.053 4.34881 0.859825 0
M  V30 8627 H 824.273 0.67057 -0.0240184 0
M  V30 8628 H 826.817 1.91834 -0.708526 0
M  V30 8629 H 824.972 3.75145 0.966689 0
M  V30 8630 H 825.386 5.19671 -0.710097 0
M  V30 8631 H 826.86 5.43161 0.983884 0
M  V30 8632 H 827.337 3.9789 1.85958 0
M  V30 8633 H 827.943 4.24785 0.209152 0
M  V30 8634 N 826.258 0.243083 1.55714 0
M  V30 8635 C 827.19 -0.690766 2.18543 0
M  V30 8636 C 828.203 -1.14163 1.16064 0
M  V30 8637 O 829.392 -1.06906 1.42946 0
M  V30 8638 C 826.492 -1.95016 2.77168 0
M  V30 8639 C 825.665 -1.65137 4.05029 0
M  V30 8640 C 824.724 -2.75998 4.48009 0
M  V30 8641 O 823.75 -2.43547 5.14464 0
M  V30 8642 N 824.952 -4.05414 4.15476 0
M  V30 8643 H 827.717 -0.153203 2.99308 0
M  V30 8644 H 825.278 0.0628968 1.61778 0
M  V30 8645 H 827.27 -2.68414 3.0288 0
M  V30 8646 H 825.84 -2.39762 2.00582 0
M  V30 8647 H 825.06 -0.752768 3.86946 0
M  V30 8648 H 826.348 -1.42633 4.88399 0
M  V30 8649 H 825.746 -4.34613 3.62116 0
M  V30 8650 H 824.303 -4.75288 4.46032 0
M  V30 8651 N 827.736 -1.57571 -0.0300757 0
M  V30 8652 C 828.982 -1.89506 -0.722159 0
M  V30 8653 C 829.315 -0.840699 -1.7506 0
M  V30 8654 O 828.59 0.144358 -1.93964 0
M  V30 8655 C 828.873 -3.32081 -1.39262 0
M  V30 8656 C 828.726 -4.48211 -0.377768 0
M  V30 8657 C 830.045 -3.73557 -2.32687 0
M  V30 8658 H 827.164 -0.689213 -0.261064 0
M  V30 8659 H 829.806 -1.89994 0.0150388 0
M  V30 8660 H 827.956 -3.31796 -2.02098 0
M  V30 8661 H 829.628 -4.6063 0.248591 0
M  V30 8662 H 827.871 -4.3274 0.303045 0
M  V30 8663 H 828.542 -5.44854 -0.885347 0
M  V30 8664 H 831.018 -3.75202 -1.79896 0
M  V30 8665 H 829.894 -4.74125 -2.7658 0
M  V30 8666 H 830.155 -3.05759 -3.19317 0
M  V30 8667 N 829.214 0.302327 -1.54673 0
M  V30 8668 C 830.454 1.04568 -1.75627 0
M  V30 8669 C 830.818 1.84535 -0.530175 0
M  V30 8670 O 832.019 2.61613 -0.61743 0
M  V30 8671 C 830.29 1.92873 -3.0089 0
M  V30 8672 S 831.849 2.73872 -3.4284 0
M  V30 8673 H 828.667 0.352682 -0.617362 0
M  V30 8674 H 831.269 0.319239 -1.92876 0
M  V30 8675 H 829.973 1.32998 -3.88252 0
M  V30 8676 H 829.504 2.69887 -2.86225 0
M  V30 8677 H 831.519 3.95386 -2.99807 0
M  V30 8678 N 830.692 1.47107 0.565454 0
M  V30 8679 C 831.941 1.5257 1.31929 0
M  V30 8680 C 832.254 0.189092 1.94684 0
M  V30 8681 O 833.46 0.121657 2.71227 0
M  V30 8682 C 831.916 2.68914 2.39193 0
M  V30 8683 C 831.524 4.09069 1.82665 0
M  V30 8684 C 833.268 2.83663 3.1581 0
M  V30 8685 C 831.175 5.16726 2.87661 0
M  V30 8686 H 830.105 0.567869 0.496025 0
M  V30 8687 H 832.756 1.73361 0.60151 0
M  V30 8688 H 831.138 2.41486 3.13848 0
M  V30 8689 H 832.312 4.46364 1.14438 0
M  V30 8690 H 830.627 3.99135 1.1866 0
M  V30 8691 H 833.224 3.61261 3.94201 0
M  V30 8692 H 833.567 1.91804 3.69482 0
M  V30 8693 H 834.1 3.10821 2.48265 0
M  V30 8694 H 830.839 6.10433 2.38854 0
M  V30 8695 H 830.359 4.83957 3.54324 0
M  V30 8696 H 832.038 5.43319 3.51303 0
M  V30 8697 N 832.17 -0.811516 1.35101 0
M  V30 8698 C 833.118 -1.94449 1.27642 0
M  V30 8699 C 834.112 -1.68522 0.172287 0
M  V30 8700 O 835.318 -1.76799 0.337967 0
M  V30 8701 H 831.693 -0.638776 0.396824 0
M  V30 8702 H 833.664 -1.97861 2.23369 0
M  V30 8703 C 832.413 -3.31139 1.06029 0
M  V30 8704 H 831.736 -3.51644 1.90227 0
M  V30 8705 H 833.176 -4.10831 1.0485 0
M  V30 8706 C 831.635 -3.36072 -0.236039 0
M  V30 8707 O 832.165 -3.82292 -1.23353 0
M  V30 8708 N 830.371 -2.89314 -0.273107 0
M  V30 8709 H 829.918 -2.51893 0.539211 0
M  V30 8710 H 829.876 -2.92996 -1.1402 0
M  V30 8711 N 833.648 -1.19017 -1.03309 0
M  V30 8712 C 834.896 -0.988258 -1.76289 0
M  V30 8713 C 835.217 0.482557 -1.88935 0
M  V30 8714 O 834.487 1.34969 -1.41987 0
M  V30 8715 H 833.067 -0.36267 -0.653054 0
M  V30 8716 H 835.729 -1.49836 -1.2464 0
M  V30 8717 H 834.825 -1.43273 -2.77271 0
M  V30 8718 N 835.127 1.22348 -0.993418 0
M  V30 8719 C 836.059 2.23626 -0.502404 0
M  V30 8720 C 837.072 1.57739 0.402784 0
M  V30 8721 O 838.261 1.77321 0.204835 0
M  V30 8722 C 835.361 3.37647 0.291118 0
M  V30 8723 C 834.534 4.33121 -0.610332 0
M  V30 8724 C 833.593 5.26035 0.131572 0
M  V30 8725 O 832.619 5.67145 -0.483199 0
M  V30 8726 N 833.821 5.63023 1.41371 0
M  V30 8727 H 836.586 2.66385 -1.37329 0
M  V30 8728 H 834.147 1.36653 -0.868196 0
M  V30 8729 H 836.139 3.96792 0.796107 0
M  V30 8730 H 834.709 2.93967 1.0631 0
M  V30 8731 H 833.929 3.72287 -1.29598 0
M  V30 8732 H 835.217 4.93853 -1.22422 0
M  V30 8733 H 834.615 5.31596 1.93449 0
M  V30 8734 H 833.172 6.24582 1.86388 0
M  V30 8735 N 836.605 0.766683 1.37694 0
M  V30 8736 C 837.845 0.333815 2.01656 0
M  V30 8737 C 838.209 -1.06813 1.59546 0
M  V30 8738 O 839.41 -1.60084 2.15932 0
M  V30 8739 C 837.681 0.467032 3.54335 0
M  V30 8740 S 839.24 0.118679 4.38639 0
M  V30 8741 H 836.058 0.128723 0.699251 0
M  V30 8742 H 838.66 1.00018 1.67978 0
M  V30 8743 H 837.364 1.48808 3.82471 0
M  V30 8744 H 836.895 -0.216066 3.92806 0
M  V30 8745 H 838.91 -1.08746 4.84137 0
M  V30 8746 N 838.083 -1.48885 0.516809 0
M  V30 8747 C 839.046 -2.27916 -0.242256 0
M  V30 8748 C 840.046 -1.34601 -0.879735 0
M  V30 8749 O 841.236 -1.57616 -0.74182 0
M  V30 8750 C 838.368 -3.13067 -1.34914 0
M  V30 8751 H 839.561 -2.96483 0.451444 0
M  V30 8752 H 837.114 -1.5391 0.272294 0
M  V30 8753 H 837.849 -2.49102 -2.07651 0
M  V30 8754 H 837.634 -3.81695 -0.897313 0
M  V30 8755 H 839.124 -3.72716 -1.88341 0
M  V30 8756 N 839.561 -0.251338 -1.55583 0
M  V30 8757 C 840.809 0.371434 -1.98657 0
M  V30 8758 C 841.13 1.58143 -1.14087 0
M  V30 8759 O 840.4 1.94607 -0.224708 0
M  V30 8760 H 838.98 0.140225 -0.733721 0
M  V30 8761 H 841.642 -0.351157 -1.9171 0
M  V30 8762 H 840.738 0.677554 -3.04657 0
M  V30 8763 N 841.039 1.57585 0.0217189 0
M  V30 8764 C 842.264 1.94267 0.726309 0
M  V30 8765 C 842.689 0.851904 1.67703 0
M  V30 8766 O 842.047 -0.191792 1.80283 0
M  V30 8767 C 842.095 3.30023 1.45318 0
M  V30 8768 O 841.199 3.22791 2.5667 0
M  V30 8769 H 840.54 0.634777 0.194818 0
M  V30 8770 H 843.07 2.04585 -0.0249985 0
M  V30 8771 H 843.08 3.65084 1.82147 0
M  V30 8772 H 841.755 4.08972 0.755962 0
M  V30 8773 H 840.332 2.99373 2.2233 0
M  V30 8774 N 842.517 -0.29412 1.54831 0
M  V30 8775 C 843.766 -1.02614 1.73647 0
M  V30 8776 C 844.079 -1.88193 0.533162 0
M  V30 8777 O 845.285 -2.64713 0.603275 0
M  V30 8778 C 843.741 -1.87417 3.07251 0
M  V30 8779 C 843.349 -1.06806 4.35082 0
M  V30 8780 C 845.093 -2.60176 3.35423 0
M  V30 8781 C 843 -1.90926 5.59733 0
M  V30 8782 H 841.93 -0.386834 0.647206 0
M  V30 8783 H 844.581 -0.282789 1.81308 0
M  V30 8784 H 842.963 -2.65765 2.93572 0
M  V30 8785 H 844.137 -0.330226 4.59615 0
M  V30 8786 H 842.452 -0.455979 4.13896 0
M  V30 8787 H 845.049 -3.23476 4.25755 0
M  V30 8788 H 845.392 -3.29365 2.54606 0
M  V30 8789 H 845.925 -1.88871 3.50103 0
M  V30 8790 H 842.664 -1.26194 6.43238 0
M  V30 8791 H 842.184 -2.62363 5.39375 0
M  V30 8792 H 843.863 -2.48807 5.97247 0
M  V30 8793 N 843.995 -1.47404 -0.557645 0
M  V30 8794 C 845.235 -1.55585 -1.32562 0
M  V30 8795 C 845.599 -0.212926 -1.90816 0
M  V30 8796 O 846.8 -0.169574 -2.68265 0
M  V30 8797 C 845.071 -2.64249 -2.40639 0
M  V30 8798 S 846.63 -2.9201 -3.2753 0
M  V30 8799 H 843.448 -0.549409 -0.451298 0
M  V30 8800 H 846.05 -1.84782 -0.638438 0
M  V30 8801 H 844.754 -3.60421 -1.96277 0
M  V30 8802 H 844.285 -2.36866 -3.14099 0
M  V30 8803 H 846.3 -2.29191 -4.40098 0
M  V30 8804 N 845.473 0.80434 -1.35529 0
M  V30 8805 C 846.383 1.94784 -1.30753 0
M  V30 8806 C 847.399 1.72703 -0.212071 0
M  V30 8807 O 848.575 1.96494 -0.441841 0
M  V30 8808 C 845.64 3.29406 -1.08133 0
M  V30 8809 C 844.701 3.64367 -2.27013 0
M  V30 8810 C 843.934 4.92566 -2.05463 0
M  V30 8811 O 844.157 5.61166 -1.02222 0
M  V30 8812 O 843.091 5.25838 -2.92879 0
M  V30 8813 H 846.917 2.01761 -2.26994 0
M  V30 8814 H 844.502 0.942448 -1.15924 0
M  V30 8815 H 846.384 4.09995 -0.973756 0
M  V30 8816 H 845.059 3.23355 -0.149444 0
M  V30 8817 H 843.966 2.84146 -2.43335 0
M  V30 8818 H 845.299 3.75125 -3.18656 0
M  V30 8819 N 846.951 1.19563 1.02676 0
M  V30 8820 C 847.898 0.935291 2.11 0
M  V30 8821 C 848.868 -0.130685 1.65585 0
M  V30 8822 O 850.053 0.0119062 1.90796 0
M  V30 8823 C 847.193 0.482384 3.41712 0
M  V30 8824 C 846.306 1.61537 4.00662 0
M  V30 8825 C 845.441 1.11378 5.19392 0
M  V30 8826 C 844.48 2.22052 5.70403 0
M  V30 8827 N 843.617 1.73185 6.80405 0
M  V30 8828 H 848.457 1.86275 2.32606 0
M  V30 8829 H 845.994 0.928656 1.14081 0
M  V30 8830 H 847.952 0.20118 4.16715 0
M  V30 8831 H 846.582 -0.408086 3.2021 0
M  V30 8832 H 845.634 2.01173 3.22852 0
M  V30 8833 H 846.946 2.44912 4.34534 0
M  V30 8834 H 846.1 0.787935 6.01562 0
M  V30 8835 H 844.839 0.249789 4.8706 0
M  V30 8836 H 843.844 2.55465 4.86845 0
M  V30 8837 H 845.069 3.08911 6.04774 0
M  V30 8838 H 843.015 0.890973 6.49921 0
M  V30 8839 H 842.932 2.50148 7.13416 0
M  V30 8840 H 844.2 1.4357 7.66164 0
M  V30 8841 N 848.429 -1.21819 0.999893 0
M  V30 8842 C 849.659 -1.94475 0.697346 0
M  V30 8843 C 850.067 -1.73991 -0.743228 0
M  V30 8844 O 849.41 -1.04042 -1.51397 0
M  V30 8845 C 849.472 -3.47204 0.932181 0
M  V30 8846 C 849.136 -3.91432 2.3586 0
M  V30 8847 C 850.133 -3.98545 3.33853 0
M  V30 8848 C 847.818 -4.23888 2.69489 0
M  V30 8849 C 849.812 -4.37499 4.63545 0
M  V30 8850 C 847.499 -4.62519 3.99399 0
M  V30 8851 C 848.497 -4.69294 4.96238 0
M  V30 8852 O 848.185 -5.07048 6.23825 0
M  V30 8853 H 847.917 -0.625419 0.256567 0
M  V30 8854 H 850.471 -1.55728 1.33933 0
M  V30 8855 H 848.701 -3.85997 0.233025 0
M  V30 8856 H 850.39 -4.01078 0.623807 0
M  V30 8857 H 851.156 -3.73654 3.09205 0
M  V30 8858 H 847.035 -4.17815 1.94812 0
M  V30 8859 H 850.579 -4.42702 5.3913 0
M  V30 8860 H 846.476 -4.86864 4.23833 0
M  V30 8861 H 847.244 -5.25098 6.27865 0
M  V30 8862 N 849.908 -0.773975 -1.37286 0
M  V30 8863 C 851.156 -0.338636 -1.99243 0
M  V30 8864 C 851.477 1.08919 -1.61746 0
M  V30 8865 O 850.747 1.74822 -0.88397 0
M  V30 8866 H 849.327 -0.12222 -0.736934 0
M  V30 8867 H 851.989 -0.992595 -1.67731 0
M  V30 8868 H 851.085 -0.418055 -3.09287 0
M  V30 8869 N 851.386 1.48609 -0.524698 0
M  V30 8870 C 852.316 2.32366 0.229837 0
M  V30 8871 C 853.297 1.41759 0.940129 0
M  V30 8872 O 854.482 1.7065 0.926936 0
M  V30 8873 C 851.612 3.22835 1.28043 0
M  V30 8874 C 850.566 4.22424 0.688603 0
M  V30 8875 C 849.892 5.0199 1.84146 0
M  V30 8876 C 851.192 5.21217 -0.336176 0
M  V30 8877 H 852.886 2.95698 -0.469339 0
M  V30 8878 H 850.432 1.42197 -0.227156 0
M  V30 8879 H 852.385 3.80253 1.8162 0
M  V30 8880 H 851.109 2.57492 2.00912 0
M  V30 8881 H 849.768 3.66185 0.174402 0
M  V30 8882 H 849.416 4.33076 2.5584 0
M  V30 8883 H 849.116 5.69392 1.45142 0
M  V30 8884 H 850.64 5.62259 2.38111 0
M  V30 8885 H 852.054 5.7319 0.112307 0
M  V30 8886 H 850.451 5.96642 -0.643324 0
M  V30 8887 H 851.521 4.68676 -1.24381 0
M  V30 8888 N 852.864 0.259585 1.55447 0
M  V30 8889 C 853.774 -0.645026 2.25558 0
M  V30 8890 C 854.79 -1.18291 1.27606 0
M  V30 8891 O 855.966 -1.21649 1.6051 0
M  V30 8892 C 853.031 -1.81964 2.9511 0
M  V30 8893 C 852.092 -1.31997 4.08504 0
M  V30 8894 C 851.325 -2.43861 4.74729 0
M  V30 8895 O 851.548 -3.62876 4.40088 0
M  V30 8896 O 850.482 -2.12898 5.6299 0
M  V30 8897 H 854.308 -0.0775399 3.03601 0
M  V30 8898 H 851.893 0.0275859 1.49375 0
M  V30 8899 H 853.775 -2.50485 3.38873 0
M  V30 8900 H 852.45 -2.37451 2.19997 0
M  V30 8901 H 851.357 -0.601676 3.6923 0
M  V30 8902 H 852.69 -0.811045 4.85472 0
M  V30 8903 N 854.342 -1.57594 -0.0133615 0
M  V30 8904 C 855.252 -2.10991 -1.02566 0
M  V30 8905 C 856.268 -1.05208 -1.3859 0
M  V30 8906 O 857.444 -1.37034 -1.47593 0
M  V30 8907 C 854.509 -2.59165 -2.30292 0
M  V30 8908 C 853.57 -3.79495 -2.00704 0
M  V30 8909 C 852.803 -4.25361 -3.22341 0
M  V30 8910 O 853.026 -3.70645 -4.33565 0
M  V30 8911 O 851.96 -5.17649 -3.07121 0
M  V30 8912 H 855.786 -2.97678 -0.601806 0
M  V30 8913 H 853.371 -1.47598 -0.23135 0
M  V30 8914 H 855.253 -2.90409 -3.05354 0
M  V30 8915 H 853.928 -1.75582 -2.71942 0
M  V30 8916 H 852.835 -3.53245 -1.23161 0
M  V30 8917 H 854.168 -4.64109 -1.639 0
M  V30 8918 N 855.82 0.285905 -1.54985 0
M  V30 8919 C 857.06 1.02699 -1.76726 0
M  V30 8920 C 857.424 1.83962 -0.549717 0
M  V30 8921 O 858.625 2.60943 -0.645142 0
M  V30 8922 C 856.896 1.89671 -3.02919 0
M  V30 8923 S 858.455 2.7022 -3.45726 0
M  V30 8924 H 855.273 0.346114 -0.621068 0
M  V30 8925 H 857.875 0.298764 -1.93204 0
M  V30 8926 H 856.579 1.28873 -3.89641 0
M  V30 8927 H 856.11 2.66836 -2.89071 0
M  V30 8928 H 858.125 3.92184 -3.03983 0
M  V30 8929 N 857.298 1.47698 0.54982 0
M  V30 8930 C 858.526 1.5833 1.33188 0
M  V30 8931 C 858.941 0.236193 1.87317 0
M  V30 8932 O 858.298 -0.77167 1.65383 0
M  V30 8933 C 858.349 2.61438 2.49664 0
M  V30 8934 O 858.07 3.9092 1.97771 0
M  V30 8935 C 859.571 2.82324 3.41772 0
M  V30 8936 H 856.791 0.53443 0.405741 0
M  V30 8937 H 859.335 1.93375 0.665309 0
M  V30 8938 H 857.49 2.29307 3.12245 0
M  V30 8939 H 857.904 4.47323 2.73866 0
M  V30 8940 H 859.378 3.58316 4.19897 0
M  V30 8941 H 859.855 1.90416 3.95776 0
M  V30 8942 H 860.461 3.15682 2.85 0
M  V30 8943 N 858.776 -0.797141 1.35954 0
M  V30 8944 C 860.016 -1.56795 1.31128 0
M  V30 8945 C 860.38 -1.91683 -0.110364 0
M  V30 8946 O 861.581 -2.67305 -0.283093 0
M  V30 8947 C 859.852 -2.81577 2.20111 0
M  V30 8948 S 861.411 -3.71895 2.32894 0
M  V30 8949 H 858.229 -0.53711 0.465869 0
M  V30 8950 H 860.831 -0.939522 1.71445 0
M  V30 8951 H 859.535 -2.53986 3.22365 0
M  V30 8952 H 859.066 -3.49399 1.80786 0
M  V30 8953 H 861.081 -4.72322 1.52073 0
M  V30 8954 N 860.254 -1.20106 -1.0204 0
M  V30 8955 C 861.217 -0.948261 -2.08664 0
M  V30 8956 C 862.217 0.0746753 -1.60627 0
M  V30 8957 O 863.407 -0.160981 -1.73455 0
M  V30 8958 C 860.539 -0.426854 -3.38217 0
M  V30 8959 H 861.732 -1.894 -2.32524 0
M  V30 8960 H 859.285 -1.0159 -1.18782 0
M  V30 8961 H 860.02 0.524532 -3.2003 0
M  V30 8962 H 859.805 -1.16451 -3.74408 0
M  V30 8963 H 861.295 -0.269346 -4.1673 0
M  V30 8964 N 861.732 1.21287 -1.00634 0
M  V30 8965 C 862.957 1.94925 -0.708441 0
M  V30 8966 C 863.382 1.73659 0.722783 0
M  V30 8967 O 862.74 1.02429 1.49593 0
M  V30 8968 C 862.788 3.45377 -1.03667 0
M  V30 8969 O 861.892 4.12153 -0.142661 0
M  V30 8970 H 861.233 0.609338 -0.263824 0
M  V30 8971 H 863.763 1.54008 -1.34695 0
M  V30 8972 H 863.773 3.95954 -0.984086 0
M  V30 8973 H 862.448 3.6018 -2.0795 0
M  V30 8974 H 861.025 3.72048 -0.251888 0
M  V30 8975 N 863.21 0.781244 1.36873 0
M  V30 8976 C 864.435 0.360398 2.04245 0
M  V30 8977 C 864.86 -1.01242 1.58529 0
M  V30 8978 O 864.218 -1.65063 0.749936 0
M  V30 8979 C 864.266 0.42329 3.58107 0
M  V30 8980 O 863.37 -0.572796 4.08403 0
M  V30 8981 H 862.711 0.154386 0.645803 0
M  V30 8982 H 865.241 1.06008 1.74996 0
M  V30 8983 H 865.251 0.283967 4.07011 0
M  V30 8984 H 863.926 1.42477 3.90734 0
M  V30 8985 H 862.503 -0.395809 3.70793 0
M  V30 8986 N 864.689 -1.48329 0.532571 0
M  V30 8987 C 865.966 -1.95492 -0.0650985 0
M  V30 8988 C 866.346 -1.47485 -1.51034 0
M  V30 8989 O 865.694 -0.702516 -2.17433 0
M  V30 8990 C 865.904 -3.48957 0.0548341 0
M  V30 8991 C 867.252 -4.24475 -0.103115 0
M  V30 8992 O 868.276 -3.56195 -0.0188343 0
M  V30 8993 O 867.135 -5.45781 -0.280164 0
M  V30 8994 H 864.229 -0.823327 -0.0778603 0
M  V30 8995 H 866.775 -1.58839 0.597353 0
M  V30 8996 H 865.547 -3.76628 1.06148 0
M  V30 8997 H 865.17 -3.92311 -0.64635 0
M  V30 8998 N 866.167 -0.267825 -1.55308 0
M  V30 8999 C 867.415 0.350343 -1.9904 0
M  V30 9000 C 867.736 1.56924 -1.15758 0
M  V30 9001 O 867.006 1.94358 -0.245336 0
M  V30 9002 H 865.586 0.132435 -0.735167 0
M  V30 9003 H 868.248 -0.371471 -1.91327 0
M  V30 9004 H 867.344 0.645203 -3.05358 0
M  V30 9005 N 867.645 1.57599 0.00500368 0
M  V30 9006 C 868.592 2.08106 0.998025 0
M  V30 9007 C 869.562 0.975374 1.34446 0
M  V30 9008 O 870.747 1.24749 1.44369 0
M  V30 9009 C 867.887 2.58496 2.28635 0
M  V30 9010 C 867 3.82947 1.99939 0
M  V30 9011 C 866.135 4.21857 3.22816 0
M  V30 9012 C 865.174 5.39159 2.89783 0
M  V30 9013 N 864.311 5.73386 4.05183 0
M  V30 9014 H 869.151 2.92684 0.560385 0
M  V30 9015 H 866.688 1.44692 0.265053 0
M  V30 9016 H 868.646 2.85787 3.03943 0
M  V30 9017 H 867.276 1.768 2.70077 0
M  V30 9018 H 866.328 3.62594 1.1502 0
M  V30 9019 H 867.64 4.68358 1.71588 0
M  V30 9020 H 866.794 4.50404 4.06474 0
M  V30 9021 H 865.533 3.35145 3.54301 0
M  V30 9022 H 864.538 5.1034 2.04532 0
M  V30 9023 H 865.763 6.27543 2.59551 0
M  V30 9024 H 863.709 4.89632 4.36574 0
M  V30 9025 H 863.626 6.53359 3.80339 0
M  V30 9026 H 864.894 6.06522 4.89644 0
M  V30 9027 N 869.123 -0.277682 1.55134 0
M  V30 9028 C 870.4 -1.0309 1.66228 0
M  V30 9029 C 870.78 -2.0445 0.525701 0
M  V30 9030 O 870.128 -2.23512 -0.474816 0
M  V30 9031 C 870.338 -1.6919 3.05247 0
M  V30 9032 C 871.686 -2.20526 3.62841 0
M  V30 9033 O 872.71 -1.79185 3.07849 0
M  V30 9034 O 871.569 -2.96342 4.59177 0
M  V30 9035 H 868.663 -0.4779 0.674937 0
M  V30 9036 H 871.209 -0.273912 1.67475 0
M  V30 9037 H 869.981 -0.957163 3.79413 0
M  V30 9038 H 869.604 -2.51587 3.07879 0
M  V30 9039 N 870.601 -1.47988 -0.541979 0
M  V30 9040 C 871.878 -1.45878 -1.30303 0
M  V30 9041 C 872.258 -0.163931 -2.10463 0
M  V30 9042 O 871.606 0.854479 -2.11922 0
M  V30 9043 C 871.816 -2.71359 -2.19466 0
M  V30 9044 C 873.164 -3.19199 -2.79995 0
M  V30 9045 O 874.188 -2.72193 -2.2976 0
M  V30 9046 O 873.047 -4.00961 -3.71339 0
M  V30 9047 H 870.141 -0.582043 -0.587498 0
M  V30 9048 H 872.687 -1.60207 -0.559623 0
M  V30 9049 H 871.459 -3.57122 -1.59936 0
M  V30 9050 H 871.082 -2.59692 -3.01075 0
M  V30 9051 N 872.079 0.78992 -1.36375 0
M  V30 9052 C 873.026 1.90254 -1.3066 0
M  V30 9053 C 873.996 1.65171 -0.17539 0
M  V30 9054 O 875.181 1.87338 -0.361824 0
M  V30 9055 C 872.321 3.27057 -1.10125 0
M  V30 9056 C 871.434 3.64215 -2.32317 0
M  V30 9057 C 870.569 4.90134 -2.04798 0
M  V30 9058 C 869.608 5.19969 -3.22953 0
M  V30 9059 N 868.745 6.37071 -2.95102 0
M  V30 9060 H 873.585 1.94474 -2.25796 0
M  V30 9061 H 871.122 0.951022 -1.12223 0
M  V30 9062 H 873.08 4.05947 -0.962453 0
M  V30 9063 H 871.71 3.22261 -0.186444 0
M  V30 9064 H 870.762 2.80454 -2.57002 0
M  V30 9065 H 872.074 3.82212 -3.20492 0
M  V30 9066 H 871.228 5.76888 -1.87845 0
M  V30 9067 H 869.967 4.74205 -1.13932 0
M  V30 9068 H 868.972 4.31699 -3.40465 0
M  V30 9069 H 870.197 5.37817 -4.14644 0
M  V30 9070 H 868.143 6.22535 -2.06848 0
M  V30 9071 H 868.06 6.55398 -3.76815 0
M  V30 9072 H 869.328 7.26808 -2.81727 0
M  V30 9073 N 873.557 1.20646 1.01402 0
M  V30 9074 C 874.467 0.973385 2.13453 0
M  V30 9075 C 875.483 -0.0715865 1.73853 0
M  V30 9076 O 876.659 0.116438 2.01063 0
M  V30 9077 C 873.724 0.531285 3.42605 0
M  V30 9078 C 872.785 1.64741 3.96433 0
M  V30 9079 C 872.018 1.22631 5.1942 0
M  V30 9080 O 872.241 0.0960891 5.70319 0
M  V30 9081 O 871.175 2.03474 5.66465 0
M  V30 9082 H 875.001 1.91164 2.35987 0
M  V30 9083 H 872.586 0.990553 1.11841 0
M  V30 9084 H 874.468 0.294095 4.20373 0
M  V30 9085 H 873.143 -0.378358 3.21481 0
M  V30 9086 H 872.05 1.93891 3.19933 0
M  V30 9087 H 873.383 2.53415 4.2195 0
M  V30 9088 N 875.035 -1.20752 1.01276 0
M  V30 9089 C 875.965 -2.25658 0.600064 0
M  V30 9090 C 876.946 -1.65733 -0.38298 0
M  V30 9091 O 878.131 -1.92324 -0.269256 0
M  V30 9092 C 875.261 -3.47237 -0.0663197 0
M  V30 9093 C 874.215 -4.1973 0.83731 0
M  V30 9094 C 873.541 -5.34687 0.0369102 0
M  V30 9095 C 874.841 -4.76286 2.14357 0
M  V30 9096 H 876.535 -2.60432 1.477 0
M  V30 9097 H 874.081 -1.25187 0.711634 0
M  V30 9098 H 876.034 -4.19803 -0.366563 0
M  V30 9099 H 874.758 -3.11615 -0.977944 0
M  V30 9100 H 873.417 -3.49024 1.1215 0
M  V30 9101 H 873.065 -4.95309 -0.876244 0
M  V30 9102 H 872.765 -5.84119 0.63865 0
M  V30 9103 H 874.289 -6.10059 -0.256968 0
M  V30 9104 H 875.703 -5.40691 1.90595 0
M  V30 9105 H 874.1 -5.36139 2.69583 0
M  V30 9106 H 875.17 -3.9524 2.80916 0
M  V30 9107 N 876.513 -0.788492 -1.36457 0
M  V30 9108 C 877.753 -0.365855 -2.01099 0
M  V30 9109 C 878.117 1.04262 -1.61225 0
M  V30 9110 O 879.318 1.56628 -2.18451 0
M  V30 9111 C 877.589 -0.523344 -3.53548 0
M  V30 9112 S 879.148 -0.188448 -4.38395 0
M  V30 9113 H 875.966 -0.139832 -0.697114 0
M  V30 9114 H 878.568 -1.02678 -1.66365 0
M  V30 9115 H 877.272 -1.54874 -3.80055 0
M  V30 9116 H 876.803 0.153547 -3.931 0
M  V30 9117 H 878.818 1.0103 -4.85806 0
M  V30 9118 N 877.991 1.48044 -0.54043 0
M  V30 9119 C 878.941 2.26768 0.236657 0
M  V30 9120 C 879.925 1.33341 0.900505 0
M  V30 9121 O 881.117 1.57809 0.801584 0
M  V30 9122 C 878.246 3.18685 1.27651 0
M  V30 9123 C 877.332 4.19589 0.616923 0
M  V30 9124 N 877.723 5.04889 -0.303377 0
M  V30 9125 C 876.021 4.37375 0.872879 0
M  V30 9126 C 876.722 5.77654 -0.684905 0
M  V30 9127 N 875.698 5.43583 -0.0435728 0
M  V30 9128 H 879.5 2.90098 -0.471183 0
M  V30 9129 H 877.014 1.58378 -0.359183 0
M  V30 9130 H 879.011 3.73752 1.84702 0
M  V30 9131 H 877.671 2.56911 1.98562 0
M  V30 9132 H 878.682 5.13461 -0.676591 0
M  V30 9133 H 875.359 3.86784 1.57177 0
M  V30 9134 H 876.749 6.56285 -1.44015 0
M  V30 9135 N 879.47 0.276058 1.55163 0
M  V30 9136 C 880.716 -0.340959 1.99913 0
M  V30 9137 C 881.049 -1.55434 1.16422 0
M  V30 9138 O 880.324 -1.93081 0.234517 0
M  V30 9139 C 880.607 -0.722211 3.52783 0
M  V30 9140 C 880.46 0.498575 4.47028 0
M  V30 9141 C 881.779 -1.5583 4.11589 0
M  V30 9142 H 878.898 -0.122455 0.726756 0
M  V30 9143 H 881.54 0.38319 1.86096 0
M  V30 9144 H 879.69 -1.33919 3.64689 0
M  V30 9145 H 881.362 1.13713 4.47065 0
M  V30 9146 H 879.605 1.13646 4.18649 0
M  V30 9147 H 880.276 0.188041 5.5168 0
M  V30 9148 H 882.752 -1.03722 4.02965 0
M  V30 9149 H 881.628 -1.79387 5.1876 0
M  V30 9150 H 881.889 -2.53963 3.61877 0
M  V30 9151 N 880.948 -1.576 0.00335426 0
M  V30 9152 C 882.188 -1.92571 -0.685253 0
M  V30 9153 C 882.552 -0.877961 -1.70751 0
M  V30 9154 O 883.753 -1.11303 -2.44673 0
M  V30 9155 C 882.024 -3.3258 -1.30863 0
M  V30 9156 S 883.583 -3.89442 -2.02189 0
M  V30 9157 H 880.401 -0.674035 -0.226268 0
M  V30 9158 H 883.003 -1.95405 0.0608461 0
M  V30 9159 H 881.707 -4.06673 -0.551837 0
M  V30 9160 H 881.238 -3.33128 -2.09259 0
M  V30 9161 H 883.253 -3.70789 -3.29742 0
M  V30 9162 N 882.426 0.269451 -1.5528 0
M  V30 9163 C 883.666 1.00819 -1.77806 0
M  V30 9164 C 884.03 1.83369 -0.569198 0
M  V30 9165 O 885.231 2.60244 -0.672783 0
M  V30 9166 C 883.502 1.86447 -3.04913 0
M  V30 9167 S 885.061 2.66538 -3.48573 0
M  V30 9168 H 881.879 0.339508 -0.624704 0
M  V30 9169 H 884.481 0.278256 -1.9351 0
M  V30 9170 H 883.185 1.24733 -3.90986 0
M  V30 9171 H 882.716 2.63755 -2.91885 0
M  V30 9172 H 884.731 3.88938 -3.08126 0
M  V30 9173 N 883.904 1.48273 0.534124 0
M  V30 9174 C 884.837 1.57053 1.65559 0
M  V30 9175 C 885.815 0.421213 1.5705 0
M  V30 9176 O 886.999 0.632242 1.77581 0
M  V30 9177 C 884.126 1.49465 3.03937 0
M  V30 9178 C 883.172 2.69186 3.30819 0
M  V30 9179 S 884.005 4.31192 3.17543 0
M  V30 9180 C 885.161 4.26197 4.58375 0
M  V30 9181 H 885.394 2.51927 1.57861 0
M  V30 9182 H 882.927 1.36755 0.716763 0
M  V30 9183 H 884.885 1.45775 3.83745 0
M  V30 9184 H 883.546 0.559357 3.09079 0
M  V30 9185 H 882.739 2.60005 4.31756 0
M  V30 9186 H 882.341 2.70118 2.58674 0
M  V30 9187 H 884.633 3.95874 5.49809 0
M  V30 9188 H 885.576 5.27299 4.72611 0
M  V30 9189 H 885.984 3.56723 4.37503 0
M  V30 9190 N 885.382 -0.782676 1.36792 0
M  V30 9191 C 886.329 -1.89558 1.31667 0
M  V30 9192 C 887.299 -1.65076 0.184147 0
M  V30 9193 O 888.484 -1.87143 0.371753 0
M  V30 9194 C 885.624 -3.26469 1.11858 0
M  V30 9195 C 884.737 -3.62978 2.34245 0
M  V30 9196 C 883.872 -4.89041 2.07394 0
M  V30 9197 C 882.911 -5.18249 3.25706 0
M  V30 9198 N 882.048 -6.35497 2.98476 0
M  V30 9199 H 886.888 -1.93274 2.26824 0
M  V30 9200 H 884.425 -0.945057 1.12726 0
M  V30 9201 H 886.383 -4.05431 0.983968 0
M  V30 9202 H 885.013 -3.22158 0.203531 0
M  V30 9203 H 884.065 -2.79087 2.58485 0
M  V30 9204 H 885.377 -3.80507 3.22514 0
M  V30 9205 H 884.531 -5.75883 1.90901 0
M  V30 9206 H 883.27 -4.73594 1.16446 0
M  V30 9207 H 882.275 -4.29887 3.4275 0
M  V30 9208 H 883.5 -5.35611 4.1749 0
M  V30 9209 H 881.446 -6.21429 2.10146 0
M  V30 9210 H 881.363 -6.5339 3.80286 0
M  V30 9211 H 882.631 -7.25304 2.85577 0
M  V30 9212 N 886.86 -1.21182 -1.00761 0
M  V30 9213 C 887.807 -0.968741 -2.09485 0
M  V30 9214 C 888.777 0.104325 -1.65772 0
M  V30 9215 O 889.962 -0.0422587 -1.90753 0
M  V30 9216 C 887.102 -0.536686 -3.40901 0
M  V30 9217 C 886.215 -1.6789 -3.98041 0
M  V30 9218 C 885.35 -1.19627 -5.17555 0
M  V30 9219 C 884.389 -2.31099 -5.66798 0
M  V30 9220 N 883.526 -1.83988 -6.77564 0
M  V30 9221 H 888.366 -1.89952 -2.29613 0
M  V30 9222 H 885.903 -0.946688 -1.12589 0
M  V30 9223 H 887.861 -0.26745 -4.16342 0
M  V30 9224 H 886.491 0.357092 -3.20819 0
M  V30 9225 H 885.543 -2.06284 -3.19611 0
M  V30 9226 H 886.855 -2.51794 -4.30582 0
M  V30 9227 H 886.009 -0.883539 -6.00232 0
M  V30 9228 H 884.748 -0.327244 -4.86601 0
M  V30 9229 H 883.753 -2.63178 -4.82719 0
M  V30 9230 H 884.978 -3.18493 -5.99782 0
M  V30 9231 H 882.924 -0.994257 -6.48422 0
M  V30 9232 H 882.841 -2.61466 -7.09346 0
M  V30 9233 H 884.109 -1.55741 -7.63783 0
M  V30 9234 N 888.338 1.20213 -1.01915 0
M  V30 9235 C 889.271 2.2181 -0.536243 0
M  V30 9236 C 890.249 1.57144 0.417689 0
M  V30 9237 O 891.433 1.85461 0.337088 0
M  V30 9238 C 888.56 3.37989 0.219303 0
M  V30 9239 C 887.606 4.2097 -0.684571 0
M  V30 9240 S 888.439 4.90216 -2.15519 0
M  V30 9241 C 889.595 6.09814 -1.40988 0
M  V30 9242 H 889.828 2.62429 -1.39709 0
M  V30 9243 H 887.361 1.30305 -0.828254 0
M  V30 9244 H 889.319 4.05335 0.649112 0
M  V30 9245 H 887.98 2.95825 1.05575 0
M  V30 9246 H 887.173 5.03897 -0.101833 0
M  V30 9247 H 886.775 3.58892 -1.05227 0
M  V30 9248 H 889.067 6.73964 -0.691243 0
M  V30 9249 H 890.01 6.72552 -2.21539 0
M  V30 9250 H 890.418 5.5709 -0.911645 0
M  V30 9251 N 889.816 0.795718 1.36037 0
M  V30 9252 C 891.093 0.294743 1.93367 0
M  V30 9253 C 891.473 -1.21406 1.72696 0
M  V30 9254 O 890.821 -2.00849 1.08959 0
M  V30 9255 C 891.031 0.694254 3.42025 0
M  V30 9256 C 892.379 0.677566 4.19159 0
M  V30 9257 O 893.403 0.635119 3.50492 0
M  V30 9258 O 892.262 0.726127 5.41655 0
M  V30 9259 H 889.356 0.0745459 0.823633 0
M  V30 9260 H 891.902 0.878685 1.4518 0
M  V30 9261 H 890.674 1.73458 3.50753 0
M  V30 9262 H 890.297 0.0845338 3.9751 0
M  V30 9263 N 891.294 -1.47756 0.548274 0
M  V30 9264 C 892.705 -1.8636 0.112547 0
M  V30 9265 C 893.056 -1.45589 -1.31523 0
M  V30 9266 O 892.181 -0.854874 -1.98799 0
M  V30 9267 C 892.776 -3.38224 0.197473 0
M  V30 9268 C 891.335 -3.75954 -0.183163 0
M  V30 9269 C 890.482 -2.7181 0.549059 0
M  V30 9270 H 893.433 -1.394 0.758506 0
M  V30 9271 H 893.454 -3.75957 -0.586217 0
M  V30 9272 H 892.966 -3.67868 1.23673 0
M  V30 9273 H 891.067 -3.51926 -1.22387 0
M  V30 9274 H 891.18 -4.78801 0.169178 0
M  V30 9275 H 889.544 -2.54699 -0.00682862 0
M  V30 9276 H 890.327 -3.04296 1.5893 0
M  V30 9277 N 892.772 -0.284283 -1.55015 0
M  V30 9278 C 893.997 0.335799 -2.04664 0
M  V30 9279 C 894.422 1.47999 -1.16094 0
M  V30 9280 O 893.78 1.8058 -0.161454 0
M  V30 9281 C 893.828 0.785615 -3.51938 0
M  V30 9282 O 892.932 1.89202 -3.66437 0
M  V30 9283 H 892.273 0.0680233 -0.660506 0
M  V30 9284 H 894.803 -0.421255 -2.00216 0
M  V30 9285 H 894.813 1.07892 -3.93476 0
M  V30 9286 H 893.488 -0.0514675 -4.15868 0
M  V30 9287 H 892.065 1.60055 -3.36804 0
M  V30 9288 N 894.251 1.57596 -0.0117121 0
M  V30 9289 C 895.479 1.9536 0.681334 0
M  V30 9290 C 895.894 0.887255 1.66653 0
M  V30 9291 O 895.251 -0.132692 1.82017 0
M  V30 9292 C 895.302 3.33165 1.40298 0
M  V30 9293 O 895.023 4.35707 0.45728 0
M  V30 9294 C 896.524 3.85458 2.18946 0
M  V30 9295 H 893.744 0.643826 0.189023 0
M  V30 9296 H 896.288 2.04392 -0.066311 0
M  V30 9297 H 894.443 3.25404 2.10216 0
M  V30 9298 H 894.857 5.15495 0.96773 0
M  V30 9299 H 896.331 4.84275 2.64918 0
M  V30 9300 H 896.808 3.18781 3.02118 0
M  V30 9301 H 897.414 3.96431 1.5402 0
M  V30 9302 N 895.729 -0.261212 1.5542 0
M  V30 9303 C 896.969 -0.998748 1.78338 0
M  V30 9304 C 897.333 -1.83064 0.578914 0
M  V30 9305 O 898.534 -2.59884 0.686575 0
M  V30 9306 C 896.805 -1.84828 3.05898 0
M  V30 9307 S 898.364 -2.64686 3.49981 0
M  V30 9308 H 895.182 -0.33619 0.626496 0
M  V30 9309 H 897.784 -0.26799 1.93655 0
M  V30 9310 H 896.488 -1.22658 3.91642 0
M  V30 9311 H 896.019 -2.62203 2.9328 0
M  V30 9312 H 898.034 -3.87299 3.10184 0
M  V30 9313 N 897.207 -1.48554 -0.526253 0
M  V30 9314 C 898.17 -1.62868 -1.61266 0
M  V30 9315 C 899.17 -0.501762 -1.52771 0
M  V30 9316 O 900.36 -0.76764 -1.56374 0
M  V30 9317 C 897.492 -1.60238 -3.00893 0
M  V30 9318 H 898.685 -2.59742 -1.49913 0
M  V30 9319 H 896.238 -1.37207 -0.748595 0
M  V30 9320 H 896.973 -0.648545 -3.17749 0
M  V30 9321 H 896.758 -2.42054 -3.08468 0
M  V30 9322 H 898.248 -1.73455 -3.79872 0
M  V30 9323 N 898.685 0.775411 -1.37205 0
M  V30 9324 C 899.91 1.5696 -1.35567 0
M  V30 9325 C 900.335 1.88012 0.0575554 0
M  V30 9326 O 899.693 1.48954 1.03355 0
M  V30 9327 C 899.741 2.85886 -2.19776 0
M  V30 9328 O 898.845 3.80103 -1.59987 0
M  V30 9329 H 898.186 0.475583 -0.463375 0
M  V30 9330 H 900.716 0.96001 -1.80679 0
M  V30 9331 H 900.726 3.35024 -2.32859 0
M  V30 9332 H 899.401 2.62613 -3.22502 0
M  V30 9333 H 897.978 3.38736 -1.55924 0
M  V30 9334 N 900.163 1.21714 1.00117 0
M  V30 9335 C 901.391 1.06278 1.77518 0
M  V30 9336 C 901.806 -0.387193 1.84787 0
M  V30 9337 O 901.163 -1.26854 1.31203 0
M  V30 9338 C 901.214 1.65795 3.21239 0
M  V30 9339 O 900.935 3.05119 3.14378 0
M  V30 9340 C 902.436 1.55521 4.15124 0
M  V30 9341 H 899.656 0.373013 0.557765 0
M  V30 9342 H 902.2 1.61133 1.25922 0
M  V30 9343 H 900.355 1.15022 3.69931 0
M  V30 9344 H 900.769 3.33643 4.04701 0
M  V30 9345 H 902.243 2.01902 5.13751 0
M  V30 9346 H 902.72 0.510307 4.36225 0
M  V30 9347 H 903.326 2.0556 3.72324 0
M  V30 9348 N 901.641 -1.19671 1.02551 0
M  V30 9349 C 902.889 -1.88894 0.71858 0
M  V30 9350 C 903.21 -1.79797 -0.754856 0
M  V30 9351 O 902.48 -1.20621 -1.54362 0
M  V30 9352 H 901.06 -0.699244 0.262806 0
M  V30 9353 H 903.722 -1.45298 1.29902 0
M  V30 9354 H 902.818 -2.95309 1.00989 0
M  V30 9355 N 903.119 -0.802921 -1.35613 0
M  V30 9356 C 904.344 -0.392846 -2.03645 0
M  V30 9357 C 904.769 0.987075 -1.6012 0
M  V30 9358 O 904.127 1.63849 -0.776101 0
M  V30 9359 C 904.175 -0.480208 -3.57388 0
M  V30 9360 O 903.279 0.507751 -4.09262 0
M  V30 9361 H 902.62 -0.16464 -0.643265 0
M  V30 9362 H 905.15 -1.08779 -1.73287 0
M  V30 9363 H 905.16 -0.348683 -4.06507 0
M  V30 9364 H 903.835 -1.48675 -3.88418 0
M  V30 9365 H 902.412 0.336769 -3.71376 0
M  V30 9366 N 904.597 1.47463 -0.556102 0
M  V30 9367 C 905.843 2.02775 -0.0316806 0
M  V30 9368 C 906.176 1.42967 1.3143 0
M  V30 9369 O 905.451 0.584847 1.85499 0
M  V30 9370 C 905.734 3.60046 0.0625742 0
M  V30 9371 C 905.587 4.30288 -1.31043 0
M  V30 9372 C 906.906 4.33195 0.776553 0
M  V30 9373 H 904.025 0.736886 -0.0129869 0
M  V30 9374 H 906.667 1.75904 -0.718177 0
M  V30 9375 H 904.817 3.83071 0.647231 0
M  V30 9376 H 906.489 4.18607 -1.9382 0
M  V30 9377 H 904.732 3.90685 -1.8854 0
M  V30 9378 H 905.403 5.38861 -1.1972 0
M  V30 9379 H 907.879 4.15156 0.280147 0
M  V30 9380 H 906.755 5.42869 0.81146 0
M  V30 9381 H 907.016 4.02336 1.83244 0
M  V30 9382 N 906.075 0.2925 1.54862 0
M  V30 9383 C 907.007 -0.620889 2.2063 0
M  V30 9384 C 908.02 -1.10412 1.19637 0
M  V30 9385 O 909.209 -1.02304 1.46274 0
M  V30 9386 C 906.309 -1.861 2.83232 0
M  V30 9387 C 905.482 -1.52168 4.10078 0
M  V30 9388 C 904.541 -2.61605 4.56562 0
M  V30 9389 O 903.567 -2.27056 5.21952 0
M  V30 9390 N 904.769 -3.9199 4.28163 0
M  V30 9391 H 907.534 -0.0579028 2.99644 0
M  V30 9392 H 905.095 0.114333 1.61496 0
M  V30 9393 H 907.087 -2.58642 3.11266 0
M  V30 9394 H 905.657 -2.33259 2.08108 0
M  V30 9395 H 904.877 -0.629283 3.89145 0
M  V30 9396 H 906.165 -1.27023 4.92689 0
M  V30 9397 H 905.563 -4.22872 3.7576 0
M  V30 9398 H 904.12 -4.60857 4.60928 0
M  V30 9399 N 907.553 -1.57587 0.0200696 0
M  V30 9400 C 908.799 -1.92539 -0.655764 0
M  V30 9401 C 909.154 -0.896187 -1.70253 0
M  V30 9402 O 908.447 0.0890022 -1.91393 0
M  V30 9403 C 908.641 -3.32002 -1.32323 0
M  V30 9404 C 908.47 -4.48393 -0.342632 0
M  V30 9405 C 907.24 -5.05271 0.0542423 0
M  V30 9406 C 909.438 -5.12747 0.399388 0
M  V30 9407 N 907.42 -6.05181 1.03095 0
M  V30 9408 C 908.791 -6.07674 1.23014 0
M  V30 9409 C 910.846 -4.95761 0.461065 0
M  V30 9410 C 909.549 -6.87442 2.11698 0
M  V30 9411 C 911.575 -5.7613 1.33521 0
M  V30 9412 C 910.937 -6.70666 2.15376 0
M  V30 9413 H 907.036 -0.75256 -0.212549 0
M  V30 9414 H 909.62 -1.94514 0.0851247 0
M  V30 9415 H 907.791 -3.30863 -2.0343 0
M  V30 9416 H 909.523 -3.54327 -1.95537 0
M  V30 9417 H 906.278 -4.72529 -0.318327 0
M  V30 9418 H 906.702 -6.59824 1.51528 0
M  V30 9419 H 911.344 -4.22506 -0.15752 0
M  V30 9420 H 909.062 -7.60008 2.74616 0
M  V30 9421 H 912.648 -5.65023 1.38711 0
M  V30 9422 H 911.528 -7.31772 2.81922 0
M  V30 9423 N 909.032 0.252966 -1.55557 0
M  V30 9424 C 910.257 1.0038 -1.8149 0
M  V30 9425 C 910.682 1.78397 -0.596318 0
M  V30 9426 O 910.04 1.7551 0.454535 0
M  V30 9427 C 910.088 1.9222 -3.05096 0
M  V30 9428 O 909.192 3.01302 -2.81587 0
M  V30 9429 H 908.533 0.285949 -0.599274 0
M  V30 9430 H 911.063 0.275795 -2.02733 0
M  V30 9431 H 911.073 2.338 -3.34368 0
M  V30 9432 H 909.748 1.34852 -3.93431 0
M  V30 9433 H 908.325 2.63894 -2.63466 0
M  V30 9434 N 910.51 1.48831 0.518367 0
M  V30 9435 C 911.926 1.35209 0.847979 0
M  V30 9436 C 912.126 0.371927 1.98038 0
M  V30 9437 O 911.182 -0.202681 2.51685 0
M  V30 9438 C 912.495 2.7552 1.20455 0
M  V30 9439 C 914.043 2.84094 1.31377 0
M  V30 9440 C 914.518 4.25132 1.70372 0
M  V30 9441 N 916.009 4.27861 1.77453 0
M  V30 9442 C 916.744 5.3394 2.09035 0
M  V30 9443 N 916.24 6.50285 2.3896 0
M  V30 9444 N 918.033 5.21343 2.10139 0
M  V30 9445 H 910.184 2.11166 -0.228624 0
M  V30 9446 H 912.447 0.94717 -0.0396599 0
M  V30 9447 H 912.153 3.48861 0.445991 0
M  V30 9448 H 912.027 3.09785 2.15204 0
M  V30 9449 H 914.414 2.11001 2.06307 0
M  V30 9450 H 914.495 2.53433 0.347203 0
M  V30 9451 H 914.139 4.98745 0.959975 0
M  V30 9452 H 914.069 4.53245 2.68098 0
M  V30 9453 H 916.56 3.43945 1.56557 0
M  V30 9454 H 916.873 7.26961 2.62196 0
M  V30 9455 H 915.218 6.5354 2.36454 0
M  V30 9456 H 918.409 4.29462 1.86225 0
M  V30 9457 H 918.582 6.04112 2.34419 0
M  V30 9458 N 911.988 -0.768124 1.37614 0
M  V30 9459 C 912.938 -1.8718 1.30184 0
M  V30 9460 C 913.922 -1.59787 0.188943 0
M  V30 9461 O 915.114 -1.71855 0.423656 0
M  V30 9462 C 912.243 -3.24698 1.11471 0
M  V30 9463 C 911.329 -3.58031 2.27321 0
M  V30 9464 N 911.72 -3.6252 3.52722 0
M  V30 9465 C 910.018 -3.88216 2.19554 0
M  V30 9466 C 910.719 -3.92704 4.29137 0
M  V30 9467 N 909.695 -4.08789 3.58319 0
M  V30 9468 H 913.497 -1.88907 2.25147 0
M  V30 9469 H 911.011 -0.964753 1.30638 0
M  V30 9470 H 913.008 -4.0366 1.04233 0
M  V30 9471 H 911.668 -3.24232 0.174281 0
M  V30 9472 H 912.679 -3.44636 3.86583 0
M  V30 9473 H 909.356 -3.95551 1.33588 0
M  V30 9474 H 910.746 -4.02922 5.37683 0
M  V30 9475 N 913.466 -1.22244 -0.994698 0
M  V30 9476 C 914.713 -1.04591 -1.73398 0
M  V30 9477 C 915.041 0.419223 -1.89928 0
M  V30 9478 O 914.296 1.32714 -1.43824 0
M  V30 9479 C 914.595 -1.70014 -3.14372 0
M  V30 9480 C 914.261 -3.19903 -3.17762 0
M  V30 9481 C 912.923 -3.60803 -3.18394 0
M  V30 9482 C 915.275 -4.15851 -3.14194 0
M  V30 9483 C 912.603 -4.96135 -3.13157 0
M  V30 9484 C 914.955 -5.51157 -3.10498 0
M  V30 9485 C 913.619 -5.91439 -3.09445 0
M  V30 9486 H 912.889 -0.382725 -0.63451 0
M  V30 9487 H 915.536 -1.51981 -1.16508 0
M  V30 9488 H 913.841 -1.14945 -3.7456 0
M  V30 9489 H 915.538 -1.53848 -3.70313 0
M  V30 9490 H 912.128 -2.87336 -3.18019 0
M  V30 9491 H 916.312 -3.85272 -3.12857 0
M  V30 9492 H 911.568 -5.26578 -3.10685 0
M  V30 9493 H 915.742 -6.2523 -3.06692 0
M  V30 9494 H 913.369 -6.96271 -3.05141 0
M  V30 9495 N 914.944 1.19125 -1.03184 0
M  V30 9496 C 916.169 1.93379 -0.749628 0
M  V30 9497 C 916.594 1.75153 0.685785 0
M  V30 9498 O 915.952 1.05579 1.47386 0
M  V30 9499 C 916 3.43101 -1.1097 0
M  V30 9500 O 915.104 4.11758 -0.230053 0
M  V30 9501 H 914.445 0.603605 -0.276689 0
M  V30 9502 H 916.975 1.51116 -1.37931 0
M  V30 9503 H 916.985 3.93778 -1.06785 0
M  V30 9504 H 915.66 3.55688 -2.15544 0
M  V30 9505 H 914.237 3.7143 -0.330748 0
M  V30 9506 N 916.422 0.810101 1.35185 0
M  V30 9507 C 917.67 0.391343 1.98275 0
M  V30 9508 C 917.991 -1.04592 1.64577 0
M  V30 9509 O 917.261 -1.72417 0.93001 0
M  V30 9510 H 915.841 0.141715 0.733434 0
M  V30 9511 H 918.503 1.03672 1.6504 0
M  V30 9512 H 917.599 0.49991 3.0807 0
M  V30 9513 N 917.9 -1.47166 0.563914 0
M  V30 9514 C 919.316 -1.58018 0.224173 0
M  V30 9515 C 919.516 -1.56163 -1.27339 0
M  V30 9516 O 918.572 -1.4686 -2.05398 0
M  V30 9517 C 919.885 -2.88236 0.856762 0
M  V30 9518 C 921.433 -3.01833 0.82861 0
M  V30 9519 C 921.908 -4.34761 1.44039 0
M  V30 9520 N 923.399 -4.41413 1.40388 0
M  V30 9521 C 924.134 -5.42845 1.84681 0
M  V30 9522 N 923.63 -6.51052 2.3686 0
M  V30 9523 N 925.423 -5.33931 1.75711 0
M  V30 9524 H 917.574 -1.46615 1.53681 0
M  V30 9525 H 919.837 -0.698195 0.64127 0
M  V30 9526 H 919.543 -2.95349 1.90949 0
M  V30 9527 H 919.417 -3.75537 0.353766 0
M  V30 9528 H 921.804 -2.94312 -0.215451 0
M  V30 9529 H 921.885 -2.16056 1.36943 0
M  V30 9530 H 921.529 -4.43037 2.48355 0
M  V30 9531 H 921.459 -5.1928 0.874953 0
M  V30 9532 H 923.95 -3.63811 1.02227 0
M  V30 9533 H 924.263 -7.24633 2.68564 0
M  V30 9534 H 922.608 -6.51924 2.40875 0
M  V30 9535 H 925.799 -4.48295 1.34718 0
M  V30 9536 H 925.972 -6.12841 2.10547 0
M  V30 9537 N 919.378 -0.300708 -1.54705 0
M  V30 9538 C 920.606 0.31127 -2.04545 0
M  V30 9539 C 921.021 1.47542 -1.178 0
M  V30 9540 O 920.378 1.81361 -0.203571 0
M  V30 9541 C 920.429 0.767783 -3.53253 0
M  V30 9542 O 920.15 -0.350027 -4.36699 0
M  V30 9543 C 921.651 1.44494 -4.1909 0
M  V30 9544 H 918.871 0.067668 -0.667579 0
M  V30 9545 H 921.415 -0.440254 -1.99705 0
M  V30 9546 H 919.57 1.46933 -3.58454 0
M  V30 9547 H 919.984 0.00534038 -5.245 0
M  V30 9548 H 921.458 1.71553 -5.24665 0
M  V30 9549 H 921.935 2.3849 -3.68808 0
M  V30 9550 H 922.541 0.786581 -4.17963 0
M  V30 9551 N 920.856 1.57574 -0.0284266 0
M  V30 9552 C 922.105 1.9095 0.649704 0
M  V30 9553 C 922.418 0.906421 1.7333 0
M  V30 9554 O 923.624 1.1314 2.46803 0
M  V30 9555 C 922.08 3.39061 1.20687 0
M  V30 9556 C 921.688 4.47726 0.156597 0
M  V30 9557 C 923.432 3.81505 1.86156 0
M  V30 9558 C 921.339 5.86935 0.725365 0
M  V30 9559 H 920.269 0.712589 0.24644 0
M  V30 9560 H 922.92 1.83261 -0.0936143 0
M  V30 9561 H 921.302 3.41679 2.00178 0
M  V30 9562 H 922.476 4.56667 -0.6158 0
M  V30 9563 H 920.791 4.14481 -0.399288 0
M  V30 9564 H 923.388 4.82865 2.29665 0
M  V30 9565 H 923.731 3.16529 2.70398 0
M  V30 9566 H 924.264 3.81307 1.13356 0
M  V30 9567 H 921.003 6.55453 -0.0789081 0
M  V30 9568 H 920.523 5.81602 1.46627 0
M  V30 9569 H 922.202 6.35483 1.21532 0
M  V30 9570 N 922.334 -0.244713 1.55689 0
M  V30 9571 C 923.562 -0.989944 1.8168 0
M  V30 9572 C 923.977 -1.78863 0.604449 0
M  V30 9573 O 923.334 -1.77437 -0.426907 0
M  V30 9574 C 923.385 -1.92607 3.05916 0
M  V30 9575 O 923.106 -1.1597 4.22472 0
M  V30 9576 C 924.607 -2.78711 3.44724 0
M  V30 9577 H 921.827 -0.2912 0.604519 0
M  V30 9578 H 924.371 -0.266938 2.0275 0
M  V30 9579 H 922.526 -2.60333 2.8689 0
M  V30 9580 H 922.94 -1.79311 4.92898 0
M  V30 9581 H 924.414 -3.40141 4.34751 0
M  V30 9582 H 924.891 -3.49935 2.6541 0
M  V30 9583 H 925.497 -2.16435 3.66109 0
M  V30 9584 N 923.813 -1.49104 -0.510467 0
M  V30 9585 C 924.743 -1.67981 -1.62187 0
M  V30 9586 C 925.724 -0.528529 -1.6168 0
M  V30 9587 O 926.909 -0.763305 -1.7857 0
M  V30 9588 C 924.039 -1.73755 -3.0071 0
M  V30 9589 C 922.993 -2.88579 -3.1608 0
M  V30 9590 C 922.319 -2.79457 -4.5586 0
M  V30 9591 C 923.619 -4.29638 -2.97 0
M  V30 9592 H 925.313 -2.61029 -1.46643 0
M  V30 9593 H 922.859 -1.25615 -0.704042 0
M  V30 9594 H 924.812 -1.85548 -3.78352 0
M  V30 9595 H 923.536 -0.772996 -3.17321 0
M  V30 9596 H 922.195 -2.76372 -2.40861 0
M  V30 9597 H 921.843 -1.80929 -4.69333 0
M  V30 9598 H 921.543 -3.56518 -4.67086 0
M  V30 9599 H 923.067 -2.93245 -5.35574 0
M  V30 9600 H 924.481 -4.42575 -3.64418 0
M  V30 9601 H 922.878 -5.07847 -3.19704 0
M  V30 9602 H 923.948 -4.44741 -1.93219 0
M  V30 9603 N 925.291 0.760815 -1.38019 0
M  V30 9604 C 926.223 1.88387 -1.30549 0
M  V30 9605 C 927.236 1.61319 -0.219119 0
M  V30 9606 O 928.425 1.72033 -0.476122 0
M  V30 9607 C 925.525 3.23863 -0.998291 0
M  V30 9608 C 924.698 3.78492 -2.19232 0
M  V30 9609 C 923.757 4.92468 -1.85368 0
M  V30 9610 O 922.783 5.0748 -2.57785 0
M  V30 9611 N 923.985 5.74901 -0.804319 0
M  V30 9612 H 926.75 1.95308 -2.27322 0
M  V30 9613 H 924.311 0.940423 -1.31786 0
M  V30 9614 H 926.303 3.97644 -0.7524 0
M  V30 9615 H 924.873 3.12374 -0.11877 0
M  V30 9616 H 924.093 2.96361 -2.5993 0
M  V30 9617 H 925.381 4.11722 -2.98935 0
M  V30 9618 H 924.779 5.65333 -0.203628 0
M  V30 9619 H 923.336 6.48861 -0.618301 0
M  V30 9620 N 926.769 1.22769 0.988202 0
M  V30 9621 C 928.18 1.0512 1.54294 0
M  V30 9622 C 928.531 -0.383904 1.92407 0
M  V30 9623 O 927.656 -1.26955 1.75246 0
M  V30 9624 C 928.251 1.90198 2.80375 0
M  V30 9625 C 926.81 1.76831 3.32276 0
M  V30 9626 C 925.957 1.86377 2.05326 0
M  V30 9627 H 928.908 1.36546 0.808758 0
M  V30 9628 H 928.929 1.42216 3.52923 0
M  V30 9629 H 928.441 2.9464 2.52605 0
M  V30 9630 H 926.542 0.751412 3.64945 0
M  V30 9631 H 926.655 2.59771 4.02562 0
M  V30 9632 H 925.019 1.2987 2.19103 0
M  V30 9633 H 925.802 2.9236 1.79946 0
M  V30 9634 N 928.247 -1.18576 1.03814 0
M  V30 9635 C 929.495 -1.88121 0.738574 0
M  V30 9636 C 929.816 -1.80587 -0.735744 0
M  V30 9637 O 929.086 -1.22251 -1.53074 0
M  V30 9638 H 927.666 -0.696417 0.270208 0
M  V30 9639 H 930.328 -1.43912 1.31435 0
M  V30 9640 H 929.424 -2.94222 1.04115 0
M  V30 9641 N 929.725 -0.817259 -1.34754 0
M  V30 9642 C 930.95 -0.414423 -2.03217 0
M  V30 9643 C 931.375 0.970037 -1.61158 0
M  V30 9644 O 930.733 1.63016 -0.793436 0
M  V30 9645 C 930.781 -0.518087 -3.56859 0
M  V30 9646 O 929.885 0.464314 -4.09778 0
M  V30 9647 H 929.226 -0.171454 -0.641482 0
M  V30 9648 H 931.756 -1.10611 -1.72123 0
M  V30 9649 H 931.766 -0.391779 -4.06115 0
M  V30 9650 H 930.441 -1.52786 -3.86819 0
M  V30 9651 H 929.018 0.297361 -3.71712 0
M  V30 9652 N 931.203 1.46865 -0.571711 0
M  V30 9653 C 932.614 1.86158 -0.142181 0
M  V30 9654 C 932.965 1.47663 1.2919 0
M  V30 9655 O 932.09 0.886393 1.97413 0
M  V30 9656 C 932.685 3.37867 -0.251256 0
M  V30 9657 C 931.244 3.76198 0.123329 0
M  V30 9658 C 930.391 2.70902 -0.592232 0
M  V30 9659 H 933.342 1.38176 -0.780587 0
M  V30 9660 H 933.363 3.76842 0.526331 0
M  V30 9661 H 932.875 3.65853 -1.2951 0
M  V30 9662 H 930.976 3.53829 1.16773 0
M  V30 9663 H 931.089 4.78471 -0.24533 0
M  V30 9664 H 929.453 2.54678 -0.0336927 0
M  V30 9665 H 930.236 3.01729 -1.63751 0
M  V30 9666 N 932.681 0.308908 1.54543 0
M  V30 9667 C 933.921 -0.298811 2.02204 0
M  V30 9668 C 934.285 -1.50484 1.19242 0
M  V30 9669 O 935.486 -2.18445 1.56637 0
M  V30 9670 C 933.757 -0.638849 3.51644 0
M  V30 9671 S 935.316 -1.22831 4.21258 0
M  V30 9672 H 932.134 -0.0912638 0.705118 0
M  V30 9673 H 934.736 0.438622 1.90516 0
M  V30 9674 H 933.44 0.24726 4.09654 0
M  V30 9675 H 932.971 -1.40687 3.67384 0
M  V30 9676 H 934.986 -2.51579 4.27694 0
M  V30 9677 N 934.159 -1.57557 0.0367827 0
M  V30 9678 C 935.107 -2.11844 -0.960454 0
M  V30 9679 C 936.101 -1.04681 -1.33185 0
M  V30 9680 O 937.307 -1.23108 -1.31318 0
M  V30 9681 H 933.682 -0.676921 -0.32754 0
M  V30 9682 H 935.653 -2.94557 -0.477346 0
M  V30 9683 C 934.402 -2.66683 -2.23105 0
M  V30 9684 H 933.725 -3.48795 -1.95403 0
M  V30 9685 H 935.165 -3.08305 -2.91074 0
M  V30 9686 C 933.624 -1.59782 -2.96599 0
M  V30 9687 O 934.154 -1.00214 -3.88999 0
M  V30 9688 N 932.36 -1.31644 -2.59072 0
M  V30 9689 H 931.907 -1.80272 -1.8401 0
M  V30 9690 H 931.865 -0.603457 -3.08554 0
M  V30 9691 N 935.637 0.236453 -1.55816 0
M  V30 9692 C 936.914 0.986463 -1.68903 0
M  V30 9693 C 937.294 2.02984 -0.579722 0
M  V30 9694 O 936.642 2.24693 0.415389 0
M  V30 9695 C 936.852 1.61038 -3.09625 0
M  V30 9696 C 938.2 2.10829 -3.6856 0
M  V30 9697 O 939.224 1.7096 -3.12492 0
M  V30 9698 O 938.083 2.84064 -4.66873 0
M  V30 9699 H 935.177 0.459837 -0.687371 0
M  V30 9700 H 937.723 0.229412 -1.68142 0
M  V30 9701 H 936.495 0.856232 -3.81817 0
M  V30 9702 H 936.118 2.43336 -3.14441 0
M  V30 9703 N 937.115 1.49373 0.502552 0
M  V30 9704 C 938.362 1.58781 1.25678 0
M  V30 9705 C 938.69 0.273819 1.92563 0
M  V30 9706 O 937.945 -0.738141 1.81246 0
M  V30 9707 C 938.244 2.69508 2.34735 0
M  V30 9708 C 937.91 4.11057 1.85318 0
M  V30 9709 C 936.572 4.49578 1.7156 0
M  V30 9710 C 938.924 4.99653 1.48312 0
M  V30 9711 C 936.252 5.74469 1.19172 0
M  V30 9712 C 938.604 6.2506 0.97377 0
M  V30 9713 C 937.268 6.62412 0.822573 0
M  V30 9714 H 936.538 0.581021 0.459887 0
M  V30 9715 H 939.185 1.83197 0.557767 0
M  V30 9716 H 937.49 2.39057 3.10418 0
M  V30 9717 H 939.187 2.73997 2.92791 0
M  V30 9718 H 935.777 3.80651 1.96985 0
M  V30 9719 H 939.961 4.70549 1.57789 0
M  V30 9720 H 935.217 6.0211 1.06176 0
M  V30 9721 H 939.391 6.93089 0.678233 0
M  V30 9722 H 937.018 7.59069 0.414453 0
M  V30 9723 N 938.594 -0.753485 1.38421 0
M  V30 9724 C 940.01 -1.05656 1.1962 0
M  V30 9725 C 940.21 -2.0145 0.0449443 0
M  V30 9726 O 939.266 -2.45039 -0.609253 0
M  V30 9727 C 940.579 -1.63655 2.52265 0
M  V30 9728 C 942.127 -1.75825 2.58949 0
M  V30 9729 C 942.602 -2.37236 3.91769 0
M  V30 9730 N 944.093 -2.44666 3.9331 0
M  V30 9731 C 944.828 -2.93077 4.92842 0
M  V30 9732 N 944.324 -3.41523 6.02772 0
M  V30 9733 N 946.117 -2.92118 4.80232 0
M  V30 9734 H 938.268 -0.117799 2.12073 0
M  V30 9735 H 940.531 -0.114889 0.941012 0
M  V30 9736 H 940.237 -1.00734 3.36965 0
M  V30 9737 H 940.111 -2.62715 2.70667 0
M  V30 9738 H 942.498 -2.37873 1.74644 0
M  V30 9739 H 942.579 -0.754693 2.44414 0
M  V30 9740 H 942.223 -1.75822 4.76497 0
M  V30 9741 H 942.153 -3.38233 4.03616 0
M  V30 9742 H 944.644 -2.10403 3.1391 0
M  V30 9743 H 944.957 -3.76919 6.74649 0
M  V30 9744 H 943.302 -3.3958 6.06391 0
M  V30 9745 H 946.493 -2.53582 3.93464 0
M  V30 9746 H 946.666 -3.29535 5.57952 0
M  V30 9747 N 940.072 -1.23292 -0.981677 0
M  V30 9748 C 941.32 -1.06214 -1.71939 0
M  V30 9749 C 941.641 0.401989 -1.90812 0
M  V30 9750 O 940.911 1.28825 -1.47584 0
M  V30 9751 H 939.491 -0.390042 -0.637084 0
M  V30 9752 H 942.153 -1.54988 -1.18173 0
M  V30 9753 H 941.249 -1.54904 -2.70945 0
M  V30 9754 N 941.55 1.18024 -1.04442 0
M  V30 9755 C 942.78 1.91753 -0.769044 0
M  V30 9756 C 943.188 1.76629 0.678141 0
M  V30 9757 O 942.531 1.09589 1.47431 0
M  V30 9758 C 942.593 3.43505 -1.0604 0
M  V30 9759 C 942.257 3.82409 -2.50225 0
M  V30 9760 C 943.254 3.8588 -3.48414 0
M  V30 9761 C 940.939 4.13594 -2.85036 0
M  V30 9762 C 942.933 4.19993 -4.79463 0
M  V30 9763 C 940.62 4.47377 -4.1629 0
M  V30 9764 C 941.618 4.50553 -5.13314 0
M  V30 9765 O 941.306 4.83546 -6.42214 0
M  V30 9766 H 941.038 0.615466 -0.279603 0
M  V30 9767 H 943.592 1.5065 -1.3962 0
M  V30 9768 H 941.822 3.84866 -0.376125 0
M  V30 9769 H 943.511 3.98486 -0.772235 0
M  V30 9770 H 944.277 3.6192 -3.2286 0
M  V30 9771 H 940.156 4.10297 -2.10185 0
M  V30 9772 H 943.7 4.22387 -5.55189 0
M  V30 9773 H 939.597 4.70798 -4.4161 0
M  V30 9774 H 940.365 5.01433 -6.46921 0
M  V30 9775 N 943.028 0.824394 1.34319 0
M  V30 9776 C 944.268 0.419044 2.00058 0
M  V30 9777 C 944.632 -0.999504 1.63933 0
M  V30 9778 O 945.833 -1.50781 2.22527 0
M  V30 9779 C 944.104 0.616897 3.52036 0
M  V30 9780 S 945.663 0.304614 4.37741 0
M  V30 9781 H 942.481 0.158265 0.693162 0
M  V30 9782 H 945.083 1.07053 1.63585 0
M  V30 9783 H 943.787 1.64896 3.75816 0
M  V30 9784 H 943.318 -0.0492693 3.93369 0
M  V30 9785 H 945.333 -0.88114 4.88314 0
M  V30 9786 N 944.506 -1.46559 0.579492 0
M  V30 9787 C 945.783 -1.956 -0.00287136 0
M  V30 9788 C 946.163 -1.52215 -1.46266 0
M  V30 9789 O 945.511 -0.771335 -2.15088 0
M  V30 9790 C 945.721 -3.48606 0.165824 0
M  V30 9791 C 947.069 -4.24588 0.0319807 0
M  V30 9792 O 948.093 -3.56075 0.094496 0
M  V30 9793 O 946.952 -5.46396 -0.106386 0
M  V30 9794 H 944.046 -0.825387 -0.0516274 0
M  V30 9795 H 946.592 -1.56858 0.647584 0
M  V30 9796 H 945.364 -3.7306 1.18076 0
M  V30 9797 H 944.987 -3.94169 -0.521212 0
M  V30 9798 N 945.984 -0.3171 -1.54377 0
M  V30 9799 C 947.23 0.287836 -2.00747 0
M  V30 9800 C 947.563 1.52292 -1.20502 0
M  V30 9801 O 946.838 1.92391 -0.285626 0
M  V30 9802 C 947.121 0.628423 -3.54574 0
M  V30 9803 C 946.974 -0.616922 -4.45549 0
M  V30 9804 C 948.293 1.44862 -4.15575 0
M  V30 9805 H 945.412 0.103144 -0.729747 0
M  V30 9806 H 948.054 -0.432396 -1.85014 0
M  V30 9807 H 946.204 1.24203 -3.68111 0
M  V30 9808 H 947.876 -1.25526 -4.43893 0
M  V30 9809 H 946.119 -1.24706 -4.15489 0
M  V30 9810 H 946.79 -0.334243 -5.50987 0
M  V30 9811 H 949.266 0.930015 -4.05574 0
M  V30 9812 H 948.142 1.6557 -5.23333 0
M  V30 9813 H 948.403 2.44279 -3.68484 0
M  V30 9814 N 947.462 1.57535 -0.0451378 0
M  V30 9815 C 948.709 1.92451 0.629987 0
M  V30 9816 C 949.037 0.92298 1.71206 0
M  V30 9817 O 948.292 -0.0656626 1.9559 0
M  V30 9818 C 948.591 3.34065 1.27024 0
M  V30 9819 C 948.257 4.49785 0.316971 0
M  V30 9820 C 946.919 4.81169 0.0546406 0
M  V30 9821 C 949.271 5.20111 -0.336693 0
M  V30 9822 C 946.599 5.8023 -0.86889 0
M  V30 9823 C 948.951 6.2016 -1.24838 0
M  V30 9824 C 947.615 6.49976 -1.51944 0
M  V30 9825 H 946.885 0.704228 0.230529 0
M  V30 9826 H 949.532 1.91182 -0.110328 0
M  V30 9827 H 947.837 3.31672 2.08568 0
M  V30 9828 H 949.534 3.58359 1.79945 0
M  V30 9829 H 946.124 4.2529 0.531614 0
M  V30 9830 H 950.308 4.96082 -0.147105 0
M  V30 9831 H 945.564 6.0167 -1.08643 0
M  V30 9832 H 949.738 6.73767 -1.76098 0
M  V30 9833 H 947.365 7.26551 -2.2367 0
M  V30 9834 N 948.94 -0.228186 1.55939 0
M  V30 9835 C 949.873 -1.30971 1.86874 0
M  V30 9836 C 950.851 -1.45517 0.725496 0
M  V30 9837 O 952.035 -1.61436 0.973181 0
M  V30 9838 C 949.162 -2.68089 2.06992 0
M  V30 9839 C 948.208 -2.70594 3.29669 0
M  V30 9840 S 949.041 -2.25325 4.85787 0
M  V30 9841 C 950.197 -3.64331 5.08934 0
M  V30 9842 H 950.43 -1.04536 2.78315 0
M  V30 9843 H 947.963 -0.430103 1.48288 0
M  V30 9844 H 949.921 -3.47033 2.19267 0
M  V30 9845 H 948.582 -2.91752 1.16359 0
M  V30 9846 H 947.775 -3.71338 3.4077 0
M  V30 9847 H 947.377 -1.99708 3.16216 0
M  V30 9848 H 949.669 -4.59972 4.97425 0
M  V30 9849 H 950.612 -3.58151 6.10847 0
M  V30 9850 H 951.02 -3.57711 4.36695 0
M  V30 9851 N 950.418 -1.49637 -0.494624 0
M  V30 9852 C 951.834 -1.36541 -0.826361 0
M  V30 9853 C 952.034 -0.403386 -1.97421 0
M  V30 9854 O 951.09 0.162614 -2.51976 0
M  V30 9855 C 952.403 -2.77401 -1.16057 0
M  V30 9856 C 953.951 -2.86148 -1.26841 0
M  V30 9857 C 954.426 -4.27789 -1.63587 0
M  V30 9858 N 955.917 -4.3063 -1.70624 0
M  V30 9859 C 956.652 -5.37198 -2.00514 0
M  V30 9860 N 956.148 -6.54004 -2.28584 0
M  V30 9861 N 957.941 -5.2462 -2.01818 0
M  V30 9862 H 950.092 -2.10776 0.26219 0
M  V30 9863 H 952.355 -0.946419 0.0547235 0
M  V30 9864 H 952.061 -3.49526 -0.390434 0
M  V30 9865 H 951.935 -3.1317 -2.10249 0
M  V30 9866 H 954.322 -2.14256 -2.02925 0
M  V30 9867 H 954.403 -2.53953 -0.30684 0
M  V30 9868 H 954.047 -5.00209 -0.880507 0
M  V30 9869 H 953.977 -4.57453 -2.60854 0
M  V30 9870 H 956.468 -3.46393 -1.51065 0
M  V30 9871 H 956.781 -7.31041 -2.50598 0
M  V30 9872 H 955.126 -6.57219 -2.26027 0
M  V30 9873 H 958.317 -4.32371 -1.79369 0
M  V30 9874 H 958.49 -6.07765 -2.24778 0
M  V30 9875 N 951.896 0.746133 -1.38819 0
M  V30 9876 C 953.136 1.51821 -1.36857 0
M  V30 9877 C 953.5 1.9196 0.0391461 0
M  V30 9878 O 954.701 2.68172 0.183689 0
M  V30 9879 C 952.972 2.73214 -2.3041 0
M  V30 9880 S 954.531 3.62995 -2.46536 0
M  V30 9881 H 951.349 0.51945 -0.485482 0
M  V30 9882 H 953.951 0.875244 -1.74813 0
M  V30 9883 H 952.655 2.41847 -3.31569 0
M  V30 9884 H 952.186 3.42449 -1.9363 0
M  V30 9885 H 954.201 4.66353 -1.69498 0
M  V30 9886 N 953.375 1.23811 0.975125 0
M  V30 9887 C 954.791 1.0019 1.24234 0
M  V30 9888 C 954.991 -0.293811 1.99346 0
M  V30 9889 O 954.047 -1.01189 2.31337 0
M  V30 9890 C 955.36 2.21218 2.03674 0
M  V30 9891 C 956.908 2.25764 2.16793 0
M  V30 9892 C 957.383 3.46394 2.99626 0
M  V30 9893 N 958.874 3.46665 3.07209 0
M  V30 9894 C 959.609 4.3666 3.71639 0
M  V30 9895 N 959.105 5.36899 4.37849 0
M  V30 9896 N 960.898 4.2439 3.68578 0
M  V30 9897 H 953.049 2.07087 0.472076 0
M  V30 9898 H 955.312 0.90838 0.271201 0
M  V30 9899 H 955.018 3.15277 1.55862 0
M  V30 9900 H 954.892 2.22733 3.04417 0
M  V30 9901 H 957.279 1.32242 2.63811 0
M  V30 9902 H 957.36 2.28279 1.15422 0
M  V30 9903 H 957.004 4.40227 2.53304 0
M  V30 9904 H 956.934 3.41121 4.01178 0
M  V30 9905 H 959.425 2.74142 2.60105 0
M  V30 9906 H 959.738 6.01816 4.84807 0
M  V30 9907 H 958.083 5.40793 4.36541 0
M  V30 9908 H 961.274 3.4532 3.16025 0
M  V30 9909 H 961.447 4.94727 4.18508 0
M  V30 9910 N 954.853 -1.17469 1.05066 0
M  V30 9911 C 955.783 -2.23635 0.671552 0
M  V30 9912 C 956.764 -1.66867 -0.33006 0
M  V30 9913 O 957.949 -1.93084 -0.207933 0
M  V30 9914 C 955.079 -3.47272 0.0441845 0
M  V30 9915 C 954.033 -4.16854 0.97042 0
M  V30 9916 C 953.359 -5.34299 0.206998 0
M  V30 9917 C 954.659 -4.69225 2.29401 0
M  V30 9918 H 956.353 -2.55602 1.55911 0
M  V30 9919 H 953.899 -1.2286 0.751101 0
M  V30 9920 H 955.852 -4.20756 -0.23282 0
M  V30 9921 H 954.576 -3.14568 -0.878311 0
M  V30 9922 H 953.235 -3.4528 1.23197 0
M  V30 9923 H 952.883 -4.97846 -0.718222 0
M  V30 9924 H 952.583 -5.81792 0.82416 0
M  V30 9925 H 954.107 -6.10568 -0.0627525 0
M  V30 9926 H 955.521 -5.34353 2.077 0
M  V30 9927 H 953.918 -5.27291 2.86503 0
M  V30 9928 H 954.988 -3.86102 2.93348 0
M  V30 9929 N 956.331 -0.831506 -1.3388 0
M  V30 9930 C 957.577 -0.424302 -1.98312 0
M  V30 9931 C 957.91 1.01211 -1.65741 0
M  V30 9932 O 957.185 1.70636 -0.933464 0
M  V30 9933 C 957.468 -0.636815 -3.54424 0
M  V30 9934 C 957.321 -2.11997 -3.96708 0
M  V30 9935 C 958.64 -0.0782411 -4.4003 0
M  V30 9936 H 955.759 -0.155637 -0.720379 0
M  V30 9937 H 958.401 -1.04566 -1.58638 0
M  V30 9938 H 956.551 -0.107907 -3.8835 0
M  V30 9939 H 958.223 -2.71317 -3.73075 0
M  V30 9940 H 956.466 -2.60723 -3.46707 0
M  V30 9941 H 957.137 -2.21944 -5.05416 0
M  V30 9942 H 959.613 -0.530243 -4.12708 0
M  V30 9943 H 958.489 -0.256676 -5.483 0
M  V30 9944 H 958.75 1.01745 -4.30233 0
M  V30 9945 N 957.809 1.4625 -0.587256 0
M  V30 9946 C 959.086 1.95599 -0.00750181 0
M  V30 9947 C 959.466 1.52989 1.45457 0
M  V30 9948 O 958.814 0.782731 2.14676 0
M  V30 9949 C 959.024 3.48513 -0.184309 0
M  V30 9950 C 960.372 4.24565 -0.0544972 0
M  V30 9951 O 961.396 3.5602 -0.113378 0
M  V30 9952 O 960.255 5.46445 0.0774075 0
M  V30 9953 H 957.349 0.825649 0.0472495 0
M  V30 9954 H 959.895 1.56512 -0.655893 0
M  V30 9955 H 958.667 3.72428 -1.20053 0
M  V30 9956 H 958.29 3.9444 0.500301 0
M  V30 9957 N 959.287 0.325282 1.54207 0
M  V30 9958 C 960.25 -0.527228 2.23054 0
M  V30 9959 C 961.25 -1.04217 1.22456 0
M  V30 9960 O 962.44 -0.934325 1.47024 0
M  V30 9961 C 959.572 -1.7325 2.93594 0
M  V30 9962 H 960.765 0.0746423 2.99807 0
M  V30 9963 H 958.318 0.0763872 1.56113 0
M  V30 9964 H 959.053 -2.37356 2.20981 0
M  V30 9965 H 958.838 -1.37065 3.67363 0
M  V30 9966 H 960.328 -2.3376 3.46043 0
M  V30 9967 N 960.765 -1.57509 0.0534917 0
M  V30 9968 C 962.042 -1.84137 -0.659767 0
M  V30 9969 C 962.422 -0.942362 -1.88899 0
M  V30 9970 O 961.77 -0.00398566 -2.285 0
M  V30 9971 C 961.98 -3.33919 -1.01486 0
M  V30 9972 C 963.328 -4.00989 -1.39616 0
M  V30 9973 O 964.352 -3.38557 -1.10713 0
M  V30 9974 O 963.211 -5.11071 -1.93567 0
M  V30 9975 H 960.305 -0.760081 -0.325893 0
M  V30 9976 H 962.851 -1.69497 0.0830315 0
M  V30 9977 H 961.623 -3.91046 -0.141041 0
M  V30 9978 H 961.246 -3.53755 -1.81503 0
M  V30 9979 N 962.243 0.219913 -1.56058 0
M  V30 9980 C 963.491 0.942199 -1.78793 0
M  V30 9981 C 963.812 1.84804 -0.622284 0
M  V30 9982 O 963.082 1.9255 0.360735 0
M  V30 9983 H 961.662 0.350895 -0.659455 0
M  V30 9984 H 964.324 0.231376 -1.93522 0
M  V30 9985 H 963.42 1.54804 -2.71002 0
M  V30 9986 N 963.721 1.49897 0.486681 0
M  V30 9987 C 965.132 1.53142 1.06792 0
M  V30 9988 C 965.483 0.325856 1.93475 0
M  V30 9989 O 964.608 -0.562893 2.08951 0
M  V30 9990 C 965.203 2.77514 1.94348 0
M  V30 9991 C 963.762 2.83491 2.47609 0
M  V30 9992 C 962.909 2.47239 1.2557 0
M  V30 9993 H 965.86 1.56387 0.269962 0
M  V30 9994 H 965.881 2.58487 2.79221 0
M  V30 9995 H 965.393 3.65239 1.31232 0
M  V30 9996 H 963.494 2.0008 3.14323 0
M  V30 9997 H 963.607 3.86011 2.83782 0
M  V30 9998 H 961.971 1.99332 1.58552 0
M  V30 9999 H 962.754 3.37255 0.641404 0
M  V30 10000 N 965.199 -0.738761 1.39212 0
M  V30 10001 C 966.129 -1.86602 1.40364 0
M  V30 10002 C 967.11 -1.67984 0.267495 0
M  V30 10003 O 968.295 -1.88358 0.472765 0
M  V30 10004 C 965.425 -3.24308 1.24265 0
M  V30 10005 C 964.379 -3.57557 2.35239 0
M  V30 10006 C 963.705 -4.94159 2.04233 0
M  V30 10007 C 965.005 -3.60914 3.77543 0
M  V30 10008 H 966.699 -1.85896 2.34698 0
M  V30 10009 H 964.245 -0.892959 1.1297 0
M  V30 10010 H 966.198 -4.02838 1.23692 0
M  V30 10011 H 964.922 -3.25531 0.263974 0
M  V30 10012 H 963.581 -2.81354 2.35022 0
M  V30 10013 H 963.229 -4.91959 1.04813 0
M  V30 10014 H 962.929 -5.17373 2.78567 0
M  V30 10015 H 964.453 -5.7505 2.05303 0
M  V30 10016 H 965.867 -4.29528 3.79709 0
M  V30 10017 H 964.264 -3.95644 4.51205 0
M  V30 10018 H 965.334 -2.60803 4.08791 0
M  V30 10019 N 966.677 -1.24326 -0.968545 0
M  V30 10020 C 967.64 -1.03591 -2.04454 0
M  V30 10021 C 968.64 0.0064809 -1.60799 0
M  V30 10022 O 969.83 -0.234404 -1.72616 0
M  V30 10023 C 966.962 -0.56992 -3.36102 0
M  V30 10024 H 968.155 -1.99092 -2.24282 0
M  V30 10025 H 965.708 -1.06537 -1.14366 0
M  V30 10026 H 966.443 0.388325 -3.21967 0
M  V30 10027 H 966.228 -1.32227 -3.69132 0
M  V30 10028 H 967.718 -0.445854 -4.15213 0
M  V30 10029 N 968.156 1.1691 -1.05688 0
M  V30 10030 C 969.572 1.39288 -0.779167 0
M  V30 10031 C 969.772 1.91587 0.624231 0
M  V30 10032 O 968.828 2.11072 1.38582 0
M  V30 10033 C 970.141 2.37914 -1.83895 0
M  V30 10034 C 971.689 2.51611 -1.86175 0
M  V30 10035 C 972.164 3.53514 -2.9119 0
M  V30 10036 N 973.655 3.61036 -2.90184 0
M  V30 10037 C 974.39 4.39657 -3.68088 0
M  V30 10038 N 973.886 5.21752 -4.55793 0
M  V30 10039 N 975.679 4.3458 -3.56507 0
M  V30 10040 H 967.83 0.81296 -1.96226 0
M  V30 10041 H 970.093 0.419818 -0.849975 0
M  V30 10042 H 969.799 2.06568 -2.84645 0
M  V30 10043 H 969.673 3.37483 -1.68479 0
M  V30 10044 H 972.06 2.82264 -0.86087 0
M  V30 10045 H 972.141 1.52099 -2.05668 0
M  V30 10046 H 971.785 3.23599 -3.91467 0
M  V30 10047 H 971.715 4.52742 -2.68947 0
M  V30 10048 H 974.206 3.02428 -2.26596 0
M  V30 10049 H 974.519 5.78939 -5.11907 0
M  V30 10050 H 972.864 5.21116 -4.59851 0
M  V30 10051 H 976.055 3.69501 -2.87379 0
M  V30 10052 H 976.228 4.95607 -4.17466 0
M  V30 10053 N 969.634 0.838594 1.33437 0
M  V30 10054 C 970.564 0.286672 2.31734 0
M  V30 10055 C 971.545 -0.605451 1.5896 0
M  V30 10056 O 972.73 -0.529059 1.86854 0
M  V30 10057 C 969.86 -0.539311 3.43087 0
M  V30 10058 C 968.814 0.256997 4.27228 0
M  V30 10059 C 968.14 -0.692718 5.30194 0
M  V30 10060 C 969.44 1.47391 5.01072 0
M  V30 10061 H 971.134 1.10798 2.78144 0
M  V30 10062 H 968.68 0.534235 1.33723 0
M  V30 10063 H 970.633 -0.935724 4.1088 0
M  V30 10064 H 969.357 -1.39383 2.95364 0
M  V30 10065 H 968.016 0.634967 3.61059 0
M  V30 10066 H 967.664 -1.54363 4.78729 0
M  V30 10067 H 967.364 -0.164023 5.87371 0
M  V30 10068 H 968.888 -1.08665 6.00853 0
M  V30 10069 H 970.302 1.15067 5.61634 0
M  V30 10070 H 968.699 1.93937 5.67898 0
M  V30 10071 H 969.769 2.24382 4.29861 0
M  V30 10072 N 971.112 -1.45937 0.595003 0
M  V30 10073 C 972.059 -2.30427 -0.131165 0
M  V30 10074 C 973.029 -1.41355 -0.872232 0
M  V30 10075 O 974.214 -1.70296 -0.860467 0
M  V30 10076 C 971.354 -3.26045 -1.13087 0
M  V30 10077 C 970.467 -4.30218 -0.391982 0
M  V30 10078 C 969.602 -5.12953 -1.3803 0
M  V30 10079 C 968.641 -6.08865 -0.628505 0
M  V30 10080 N 967.778 -6.84425 -1.56548 0
M  V30 10081 H 972.618 -2.91992 0.595359 0
M  V30 10082 H 970.155 -1.43895 0.305405 0
M  V30 10083 H 972.113 -3.79937 -1.72348 0
M  V30 10084 H 970.743 -2.66261 -1.82496 0
M  V30 10085 H 969.795 -3.79086 0.315895 0
M  V30 10086 H 971.107 -4.98418 0.195173 0
M  V30 10087 H 970.261 -5.71184 -2.04534 0
M  V30 10088 H 969 -4.44743 -2.00138 0
M  V30 10089 H 968.005 -5.49777 0.0502431 0
M  V30 10090 H 969.23 -6.79099 -0.012641 0
M  V30 10091 H 967.176 -6.18913 -2.17444 0
M  V30 10092 H 967.093 -7.48931 -1.03145 0
M  V30 10093 H 968.361 -7.47204 -2.22049 0
M  V30 10094 N 972.59 -0.333456 -1.54032 0
M  V30 10095 C 973.537 0.527981 -2.2468 0
M  V30 10096 C 974.507 1.10371 -1.24127 0
M  V30 10097 O 975.692 1.14221 -1.52834 0
M  V30 10098 C 972.832 1.67808 -3.01553 0
M  V30 10099 C 971.945 1.13064 -4.16942 0
M  V30 10100 C 971.08 2.24722 -4.81325 0
M  V30 10101 C 970.119 1.67277 -5.88799 0
M  V30 10102 N 969.256 2.72638 -6.47003 0
M  V30 10103 H 974.096 -0.0810308 -2.9789 0
M  V30 10104 H 971.633 -0.051761 -1.47009 0
M  V30 10105 H 973.591 2.35502 -3.44376 0
M  V30 10106 H 972.221 2.25823 -2.30659 0
M  V30 10107 H 971.273 0.344948 -3.78833 0
M  V30 10108 H 972.585 0.670373 -4.94275 0
M  V30 10109 H 971.739 3.00301 -5.27166 0
M  V30 10110 H 970.478 2.74089 -4.03394 0
M  V30 10111 H 969.483 0.902002 -5.4235 0
M  V30 10112 H 970.708 1.18775 -6.68632 0
M  V30 10113 H 968.654 3.21277 -5.71941 0
M  V30 10114 H 968.571 2.31204 -7.19778 0
M  V30 10115 H 969.839 3.48015 -6.97499 0
M  V30 10116 N 974.068 1.57479 -0.061844 0
M  V30 10117 C 975.031 2.1104 0.894127 0
M  V30 10118 C 976.031 1.03227 1.23292 0
M  V30 10119 O 977.221 1.29256 1.16784 0
M  V30 10120 C 974.353 2.6035 2.20069 0
M  V30 10121 H 975.546 2.96807 0.429619 0
M  V30 10122 H 973.099 1.55181 0.18672 0
M  V30 10123 H 973.834 1.78008 2.71079 0
M  V30 10124 H 973.619 3.39146 1.9678 0
M  V30 10125 H 975.109 3.019 2.88525 0
M  V30 10126 N 975.546 -0.211634 1.56173 0
M  V30 10127 C 976.795 -0.932647 1.78842 0
M  V30 10128 C 977.108 -1.85103 0.63217 0
M  V30 10129 O 978.314 -2.61143 0.742746 0
M  V30 10130 C 976.77 -1.70866 3.16753 0
M  V30 10131 C 976.378 -0.835934 4.40132 0
M  V30 10132 C 978.122 -2.4203 3.48743 0
M  V30 10133 C 976.029 -1.60987 5.69067 0
M  V30 10134 H 974.959 -0.351983 0.666801 0
M  V30 10135 H 977.61 -0.186284 1.82552 0
M  V30 10136 H 975.992 -2.4983 3.07247 0
M  V30 10137 H 977.166 -0.0861298 4.60719 0
M  V30 10138 H 975.481 -0.235941 4.15731 0
M  V30 10139 H 978.078 -3.00453 4.42303 0
M  V30 10140 H 978.421 -3.15406 2.71707 0
M  V30 10141 H 978.954 -1.70048 3.59623 0
M  V30 10142 H 975.693 -0.9192 6.49023 0
M  V30 10143 H 975.213 -2.33403 5.52524 0
M  V30 10144 H 976.892 -2.16798 6.09596 0
M  V30 10145 N 977.024 -1.50153 -0.478725 0
M  V30 10146 C 978.271 -1.6076 -1.23136 0
M  V30 10147 C 978.599 -0.30442 -1.92103 0
M  V30 10148 O 977.854 0.709213 -1.82397 0
M  V30 10149 C 978.153 -2.73208 -2.30417 0
M  V30 10150 C 977.819 -4.13953 -1.78755 0
M  V30 10151 C 976.481 -4.52251 -1.64386 0
M  V30 10152 C 978.833 -5.01949 -1.40344 0
M  V30 10153 C 976.161 -5.76292 -1.10018 0
M  V30 10154 C 978.513 -6.2653 -0.874206 0
M  V30 10155 C 977.177 -6.63637 -0.717085 0
M  V30 10156 H 976.447 -0.588264 -0.450585 0
M  V30 10157 H 979.094 -1.84061 -0.528551 0
M  V30 10158 H 977.399 -2.43965 -3.06575 0
M  V30 10159 H 979.096 -2.7862 -2.88395 0
M  V30 10160 H 975.686 -3.83736 -1.90904 0
M  V30 10161 H 979.87 -4.73 -1.50283 0
M  V30 10162 H 975.126 -6.03723 -0.965838 0
M  V30 10163 H 979.3 -6.94081 -0.567883 0
M  V30 10164 H 976.927 -7.59633 -0.293639 0
M  V30 10165 N 978.502 0.731368 -1.39602 0
M  V30 10166 C 979.727 1.52567 -1.40492 0
M  V30 10167 C 980.152 1.881 -0.00228828 0
M  V30 10168 O 979.51 1.52167 0.985643 0
M  V30 10169 C 979.558 2.78749 -2.2876 0
M  V30 10170 O 978.662 3.7482 -1.71999 0
M  V30 10171 H 978.003 0.460601 -0.478271 0
M  V30 10172 H 980.533 0.902042 -1.83642 0
M  V30 10173 H 980.543 3.27446 -2.43399 0
M  V30 10174 H 979.218 2.5222 -3.30693 0
M  V30 10175 H 977.795 3.33604 -1.66622 0
M  V30 10176 N 979.98 1.24838 0.961938 0
M  V30 10177 C 981.391 1.08369 1.5203 0
M  V30 10178 C 981.742 -0.343005 1.93178 0
M  V30 10179 O 980.867 -1.2321 1.779 0
M  V30 10180 C 981.462 1.96102 2.76278 0
M  V30 10181 C 980.021 1.8384 3.28451 0
M  V30 10182 C 979.168 1.9069 2.01327 0
M  V30 10183 H 982.119 1.38231 0.779613 0
M  V30 10184 H 982.14 1.4967 3.49827 0
M  V30 10185 H 981.652 2.99931 2.46298 0
M  V30 10186 H 979.753 0.828653 3.63269 0
M  V30 10187 H 979.866 2.68251 3.96961 0
M  V30 10188 H 978.23 1.34488 2.16299 0
M  V30 10189 H 979.013 2.96111 1.73705 0
M  V30 10190 N 981.458 -1.16348 1.06306 0
M  V30 10191 C 982.368 -2.24375 0.685059 0
M  V30 10192 C 983.384 -1.71413 -0.298956 0
M  V30 10193 O 984.56 -2.00854 -0.148239 0
M  V30 10194 C 981.625 -3.46614 0.0774088 0
M  V30 10195 C 980.686 -4.14613 1.11331 0
M  V30 10196 C 979.919 -5.31016 0.534559 0
M  V30 10197 O 980.142 -5.66654 -0.65265 0
M  V30 10198 O 979.076 -5.88256 1.27431 0
M  V30 10199 H 982.902 -2.59018 1.58566 0
M  V30 10200 H 980.487 -1.23865 0.835332 0
M  V30 10201 H 982.369 -4.20599 -0.259716 0
M  V30 10202 H 981.044 -3.13743 -0.796677 0
M  V30 10203 H 979.951 -3.42597 1.50261 0
M  V30 10204 H 981.284 -4.51538 1.95893 0
M  V30 10205 N 982.937 -0.845659 -1.3299 0
M  V30 10206 C 983.867 -0.298957 -2.31578 0
M  V30 10207 C 984.848 0.597012 -1.59279 0
M  V30 10208 O 986.033 0.519142 -1.87132 0
M  V30 10209 C 983.163 0.521109 -3.43368 0
M  V30 10210 C 982.117 -0.279651 -4.27085 0
M  V30 10211 C 981.443 0.664591 -5.30554 0
M  V30 10212 C 982.743 -1.50046 -5.00283 0
M  V30 10213 H 984.437 -1.12272 -2.77552 0
M  V30 10214 H 981.983 -0.54132 -1.33438 0
M  V30 10215 H 983.936 0.913921 -4.1137 0
M  V30 10216 H 982.66 1.37815 -2.96099 0
M  V30 10217 H 981.319 -0.654106 -3.60717 0
M  V30 10218 H 980.967 1.51822 -4.79541 0
M  V30 10219 H 980.667 0.132871 -5.8745 0
M  V30 10220 H 982.191 1.05477 -6.01421 0
M  V30 10221 H 983.605 -1.18044 -5.61016 0
M  V30 10222 H 982.002 -1.96946 -5.66862 0
M  V30 10223 H 983.072 -2.26659 -4.28665 0
M  V30 10224 N 984.415 1.45619 -0.602734 0
M  V30 10225 C 985.645 2.06348 -0.102105 0
M  V30 10226 C 986.053 1.44884 1.21677 0
M  V30 10227 O 985.396 0.555559 1.75098 0
M  V30 10228 C 985.458 3.59309 0.117026 0
M  V30 10229 C 985.122 4.43081 -1.11931 0
M  V30 10230 C 986.119 4.78364 -2.03627 0
M  V30 10231 C 983.804 4.83908 -1.34677 0
M  V30 10232 C 985.798 5.53325 -3.16403 0
M  V30 10233 C 983.485 5.58624 -2.47754 0
M  V30 10234 C 984.483 5.93249 -3.38445 0
M  V30 10235 O 984.171 6.6645 -4.49555 0
M  V30 10236 H 983.903 0.672988 -0.0637478 0
M  V30 10237 H 986.457 1.87928 -0.828983 0
M  V30 10238 H 984.687 3.76111 0.898742 0
M  V30 10239 H 986.376 4.01897 0.568649 0
M  V30 10240 H 987.142 4.47384 -1.87277 0
M  V30 10241 H 983.021 4.56396 -0.649875 0
M  V30 10242 H 986.565 5.80268 -3.87214 0
M  V30 10243 H 982.462 5.89019 -2.64059 0
M  V30 10244 H 983.23 6.84895 -4.48175 0
M  V30 10245 N 985.893 0.34162 1.53853 0
M  V30 10246 C 986.803 -0.524555 2.2866 0
M  V30 10247 C 987.819 -1.1136 1.33697 0
M  V30 10248 O 988.995 -1.1297 1.66732 0
M  V30 10249 C 986.06 -1.66065 3.04341 0
M  V30 10250 C 985.121 -1.10158 4.14926 0
M  V30 10251 C 984.354 -2.18353 4.86988 0
M  V30 10252 O 984.577 -3.39038 4.58704 0
M  V30 10253 O 983.511 -1.82756 5.73484 0
M  V30 10254 H 987.337 0.0835014 3.03585 0
M  V30 10255 H 984.922 0.106727 1.49018 0
M  V30 10256 H 986.804 -2.3217 3.51674 0
M  V30 10257 H 985.479 -2.25456 2.32275 0
M  V30 10258 H 984.386 -0.405109 3.719 0
M  V30 10259 H 985.719 -0.552567 4.89088 0
M  V30 10260 N 987.371 -1.57444 0.0701946 0
M  V30 10261 C 988.319 -2.13834 -0.915302 0
M  V30 10262 C 989.313 -1.07483 -1.30934 0
M  V30 10263 O 990.519 -1.25865 -1.28678 0
M  V30 10264 H 986.894 -0.683716 -0.313108 0
M  V30 10265 H 988.865 -2.95503 -0.414758 0
M  V30 10266 C 987.614 -2.71355 -2.17398 0
M  V30 10267 H 986.937 -3.52861 -1.87961 0
M  V30 10268 H 988.377 -3.1441 -2.84469 0
M  V30 10269 C 986.836 -1.66038 -2.93143 0
M  V30 10270 O 987.366 -1.08443 -3.86786 0
M  V30 10271 N 985.572 -1.3711 -2.56221 0
M  V30 10272 H 985.119 -1.84135 -1.80145 0
M  V30 10273 H 985.077 -0.66877 -3.07205 0
M  V30 10274 N 988.849 0.203349 -1.56283 0
M  V30 10275 C 990.098 0.92315 -1.79334 0
M  V30 10276 C 990.411 1.84765 -0.641977 0
M  V30 10277 O 991.617 2.60745 -0.756584 0
M  V30 10278 C 990.073 1.69184 -3.17655 0
M  V30 10279 C 989.681 0.812581 -4.40569 0
M  V30 10280 C 991.425 2.40177 -3.50022 0
M  V30 10281 C 989.332 1.57967 -5.69913 0
M  V30 10282 H 988.262 0.348442 -0.668659 0
M  V30 10283 H 990.913 0.1766 -1.82648 0
M  V30 10284 H 989.295 2.48197 -3.08568 0
M  V30 10285 H 990.469 0.0616956 -4.60759 0
M  V30 10286 H 988.784 0.21389 -4.1585 0
M  V30 10287 H 991.381 2.98103 -4.4389 0
M  V30 10288 H 991.724 3.13961 -2.73376 0
M  V30 10289 H 992.257 1.68138 -3.6052 0
M  V30 10290 H 988.996 0.884767 -6.49501 0
M  V30 10291 H 988.516 2.3047 -5.53754 0
M  V30 10292 H 990.195 2.13562 -6.10737 0
M  V30 10293 N 990.327 1.50405 0.470755 0
M  V30 10294 C 991.29 1.68741 1.5511 0
M  V30 10295 C 992.29 0.558116 1.50804 0
M  V30 10296 O 993.48 0.825149 1.53418 0
M  V30 10297 C 990.612 1.71295 2.94739 0
M  V30 10298 H 991.805 2.65127 1.40169 0
M  V30 10299 H 989.358 1.39891 0.697156 0
M  V30 10300 H 990.093 0.766029 3.15123 0
M  V30 10301 H 989.878 2.53336 2.99271 0
M  V30 10302 H 991.368 1.87434 3.73173 0
M  V30 10303 N 991.805 -0.723954 1.39988 0
M  V30 10304 C 992.715 -1.86829 1.41887 0
M  V30 10305 C 993.731 -1.71173 0.312401 0
M  V30 10306 O 994.907 -1.93583 0.555651 0
M  V30 10307 C 991.972 -3.22541 1.27154 0
M  V30 10308 C 991.033 -3.50512 2.47871 0
M  V30 10309 C 990.266 -4.79749 2.33831 0
M  V30 10310 O 990.489 -5.54251 1.34765 0
M  V30 10311 O 989.423 -5.07868 3.23039 0
M  V30 10312 H 993.249 -1.88183 2.38371 0
M  V30 10313 H 990.834 -0.873259 1.21221 0
M  V30 10314 H 992.716 -4.0362 1.21114 0
M  V30 10315 H 991.391 -3.21933 0.337715 0
M  V30 10316 H 990.298 -2.69475 2.59488 0
M  V30 10317 H 991.631 -3.55909 3.39985 0
M  V30 10318 N 993.283 -1.25346 -0.955304 0
M  V30 10319 C 994.529 -1.11226 -1.70295 0
M  V30 10320 C 994.884 0.343362 -1.89311 0
M  V30 10321 O 994.177 1.24953 -1.45249 0
M  V30 10322 C 994.371 -1.7993 -3.08804 0
M  V30 10323 C 994.2 -3.32023 -3.033 0
M  V30 10324 C 992.97 -4.01274 -3.07094 0
M  V30 10325 C 995.168 -4.28431 -2.84519 0
M  V30 10326 N 993.15 -5.40149 -2.91741 0
M  V30 10327 C 994.521 -5.54386 -2.7759 0
M  V30 10328 C 996.576 -4.18854 -2.69194 0
M  V30 10329 C 995.279 -6.71859 -2.56902 0
M  V30 10330 C 997.305 -5.36018 -2.49876 0
M  V30 10331 C 996.667 -6.60913 -2.43667 0
M  V30 10332 H 992.766 -0.461707 -0.631151 0
M  V30 10333 H 995.35 -1.58437 -1.13162 0
M  V30 10334 H 993.521 -1.35214 -3.64104 0
M  V30 10335 H 995.253 -1.58557 -3.72346 0
M  V30 10336 H 992.008 -3.52529 -3.1626 0
M  V30 10337 H 992.432 -6.13029 -2.8727 0
M  V30 10338 H 997.074 -3.23043 -2.7277 0
M  V30 10339 H 994.792 -7.67781 -2.52068 0
M  V30 10340 H 998.378 -5.30468 -2.38944 0
M  V30 10341 H 997.258 -7.50045 -2.28914 0
M  V30 10342 N 994.761 1.15782 -1.06922 0
M  V30 10343 C 996.01 1.85807 -0.784774 0
M  V30 10344 C 996.323 1.82967 0.691551 0
M  V30 10345 O 997.529 2.48632 1.0906 0
M  V30 10346 C 995.985 3.33469 -1.35375 0
M  V30 10347 C 995.593 3.44766 -2.86077 0
M  V30 10348 C 997.337 4.08707 -1.14713 0
M  V30 10349 C 995.244 4.86551 -3.36187 0
M  V30 10350 H 994.174 0.696046 -0.28989 0
M  V30 10351 H 996.825 1.30629 -1.28873 0
M  V30 10352 H 995.207 3.88292 -0.77754 0
M  V30 10353 H 996.381 3.00073 -3.49704 0
M  V30 10354 H 994.696 2.82969 -3.05479 0
M  V30 10355 H 997.293 5.13336 -1.49633 0
M  V30 10356 H 997.636 4.16211 -0.0858868 0
M  V30 10357 H 998.169 3.60142 -1.68946 0
M  V30 10358 H 994.908 4.84229 -4.41818 0
M  V30 10359 H 994.428 5.31844 -2.77312 0
M  V30 10360 H 996.107 5.55392 -3.31887 0
M  V30 10361 N 996.239 0.8527 1.3254 0
M  V30 10362 C 997.485 0.455798 1.97612 0
M  V30 10363 C 997.818 -0.985616 1.6733 0
M  V30 10364 O 997.093 -1.69129 0.960493 0
M  V30 10365 C 997.376 0.69312 3.53366 0
M  V30 10366 C 997.229 2.18281 3.93285 0
M  V30 10367 C 998.548 0.148236 4.3985 0
M  V30 10368 H 995.667 0.167078 0.717812 0
M  V30 10369 H 998.309 1.07076 1.56954 0
M  V30 10370 H 996.459 0.169677 3.88129 0
M  V30 10371 H 998.131 2.77218 3.68711 0
M  V30 10372 H 996.374 2.66206 3.42515 0
M  V30 10373 H 997.045 2.29957 5.01821 0
M  V30 10374 H 999.521 0.595834 4.11812 0
M  V30 10375 H 998.397 0.343873 5.47822 0
M  V30 10376 H 998.658 -0.948872 4.31797 0
M  V30 10377 N 997.718 -1.45297 0.610449 0
M  V30 10378 C 998.681 -2.28995 -0.0968194 0
M  V30 10379 C 999.681 -1.39923 -0.792353 0
M  V30 10380 O 1000.87 -1.62014 -0.64008 0
M  V30 10381 C 998.003 -3.21013 -1.14731 0
M  V30 10382 H 999.196 -2.93012 0.639082 0
M  V30 10383 H 996.749 -1.51867 0.369624 0
M  V30 10384 H 997.484 -2.61803 -1.91388 0
M  V30 10385 H 997.269 -3.86628 -0.652753 0
M  V30 10386 H 998.759 -3.8394 -1.64256 0
M  V30 10387 N 999.196 -0.349774 -1.5367 0
M  V30 10388 C 1000.15 0.52023 -2.21986 0
M  V30 10389 C 1001.13 1.06119 -1.20944 0
M  V30 10390 O 1002.32 0.993857 -1.46463 0
M  V30 10391 C 999.451 1.66751 -3.00082 0
M  V30 10392 C 998.537 1.14019 -4.08486 0
M  V30 10393 N 998.928 0.334588 -5.04692 0
M  V30 10394 C 997.226 1.4165 -4.22908 0
M  V30 10395 C 997.927 0.0476906 -5.8168 0
M  V30 10396 N 996.903 0.641032 -5.39807 0
M  V30 10397 H 1000.7 -0.102261 -2.93722 0
M  V30 10398 H 998.219 -0.15696 -1.6164 0
M  V30 10399 H 1000.22 2.30281 -3.47529 0
M  V30 10400 H 998.876 2.29322 -2.29873 0
M  V30 10401 H 999.887 -0.0248665 -5.17894 0
M  V30 10402 H 996.564 2.04615 -3.63922 0
M  V30 10403 H 997.954 -0.602565 -6.69193 0
M  V30 10404 N 1000.67 1.57404 -0.0785433 0
M  V30 10405 C 1001.92 1.9484 0.583853 0
M  V30 10406 C 1002.27 0.958758 1.6681 0
M  V30 10407 O 1001.57 -0.0179065 1.91592 0
M  V30 10408 C 1001.76 3.36684 1.1991 0
M  V30 10409 C 1001.59 4.49356 0.175978 0
M  V30 10410 C 1000.36 5.04721 -0.241733 0
M  V30 10411 C 1002.56 5.10911 -0.589415 0
M  V30 10412 N 1000.54 6.00938 -1.25485 0
M  V30 10413 C 1001.91 6.0269 -1.45483 0
M  V30 10414 C 1003.97 4.93708 -0.644746 0
M  V30 10415 C 1002.67 6.79111 -2.37066 0
M  V30 10416 C 1004.7 5.70778 -1.54812 0
M  V30 10417 C 1004.06 6.6221 -2.40119 0
M  V30 10418 H 1000.16 0.75993 0.184472 0
M  V30 10419 H 1002.74 1.94064 -0.157259 0
M  V30 10420 H 1000.91 3.38186 1.91011 0
M  V30 10421 H 1002.64 3.6134 1.82251 0
M  V30 10422 H 999.399 4.73385 0.142732 0
M  V30 10423 H 999.823 6.53746 -1.75912 0
M  V30 10424 H 1004.46 4.228 0.000601434 0
M  V30 10425 H 1002.18 7.49292 -3.02634 0
M  V30 10426 H 1005.77 5.59485 -1.59586 0
M  V30 10427 H 1004.65 7.20804 -3.08887 0
M  V30 10428 N 1002.15 -0.195058 1.56388 0
M  V30 10429 C 1003.4 -0.912248 1.81795 0
M  V30 10430 C 1003.75 -1.80886 0.655596 0
M  V30 10431 O 1003.05 -1.88391 -0.34922 0
M  V30 10432 C 1003.24 -1.7637 3.10851 0
M  V30 10433 C 1003.07 -0.951012 4.39529 0
M  V30 10434 C 1001.84 -0.635425 5.01289 0
M  V30 10435 C 1004.04 -0.303702 5.13403 0
M  V30 10436 N 1002.02 0.195887 6.13587 0
M  V30 10437 C 1003.39 0.38981 6.18773 0
M  V30 10438 C 1005.44 -0.219433 4.97416 0
M  V30 10439 C 1004.15 1.15957 7.09892 0
M  V30 10440 C 1006.17 0.536925 5.88958 0
M  V30 10441 C 1005.54 1.21888 6.93774 0
M  V30 10442 H 1001.63 -0.313208 0.716537 0
M  V30 10443 H 1004.22 -0.180977 1.93857 0
M  V30 10444 H 1002.39 -2.46657 3.00025 0
M  V30 10445 H 1004.12 -2.42037 3.24346 0
M  V30 10446 H 1000.88 -0.959855 4.63771 0
M  V30 10447 H 1001.3 0.601155 6.74326 0
M  V30 10448 H 1005.94 -0.732323 4.16409 0
M  V30 10449 H 1003.66 1.68389 7.90361 0
M  V30 10450 H 1007.25 0.603485 5.78662 0
M  V30 10451 H 1006.13 1.79478 7.63385 0
M  V30 10452 N 1003.63 -1.50653 -0.462772 0
M  V30 10453 C 1004.59 -1.69561 -1.54213 0
M  V30 10454 C 1005.59 -0.566106 -1.50505 0
M  V30 10455 O 1006.78 -0.833273 -1.52978 0
M  V30 10456 C 1003.91 -1.72856 -2.93826 0
M  V30 10457 H 1005.11 -2.65867 -1.38761 0
M  V30 10458 H 1002.66 -1.40259 -0.689728 0
M  V30 10459 H 1003.4 -0.78273 -3.14712 0
M  V30 10460 H 1003.18 -2.54919 -2.97924 0
M  V30 10461 H 1004.67 -1.89411 -3.72174 0
M  V30 10462 N 1005.11 0.71652 -1.4037 0
M  V30 10463 C 1006.35 1.47857 -1.38803 0
M  V30 10464 C 1006.69 1.94197 0.0100536 0
M  V30 10465 O 1005.96 1.68093 0.978521 0
M  V30 10466 C 1006.25 2.7053 -2.37667 0
M  V30 10467 C 1006.1 2.3009 -3.86496 0
M  V30 10468 C 1007.42 3.72684 -2.34082 0
M  V30 10469 H 1004.54 0.53632 -0.505499 0
M  V30 10470 H 1007.18 0.817824 -1.71498 0
M  V30 10471 H 1005.33 3.26906 -2.09916 0
M  V30 10472 H 1007 1.79202 -4.2507 0
M  V30 10473 H 1005.24 1.62102 -4.02375 0
M  V30 10474 H 1005.91 3.18018 -4.51186 0
M  V30 10475 H 1008.39 3.25935 -2.58661 0
M  V30 10476 H 1007.27 4.56157 -3.05306 0
M  V30 10477 H 1007.53 4.20916 -1.35213 0
M  V30 10478 N 1006.59 1.25851 0.948643 0
M  V30 10479 C 1007.52 1.09248 2.06367 0
M  V30 10480 C 1008.5 -0.000205168 1.701 0
M  V30 10481 O 1009.68 0.170442 1.93451 0
M  V30 10482 C 1006.81 0.716777 3.39823 0
M  V30 10483 C 1005.77 1.76036 3.90122 0
M  V30 10484 C 1005.09 1.23918 5.20143 0
M  V30 10485 C 1006.39 3.16039 4.15833 0
M  V30 10486 H 1008.09 2.02518 2.20515 0
M  V30 10487 H 1005.63 0.975093 1.05962 0
M  V30 10488 H 1007.59 0.587531 4.17284 0
M  V30 10489 H 1006.31 -0.251626 3.25629 0
M  V30 10490 H 1004.97 1.87815 3.14835 0
M  V30 10491 H 1004.62 0.260836 5.02323 0
M  V30 10492 H 1004.32 1.93673 5.54765 0
M  V30 10493 H 1005.84 1.12245 6.00194 0
M  V30 10494 H 1007.25 3.0738 4.83933 0
M  V30 10495 H 1005.65 3.83317 4.61723 0
M  V30 10496 H 1006.72 3.62652 3.21887 0
M  V30 10497 N 1008.06 -1.15214 1.07534 0
M  V30 10498 C 1008.99 -2.2216 0.718837 0
M  V30 10499 C 1009.98 -1.6753 -0.29459 0
M  V30 10500 O 1011.16 -1.93481 -0.166931 0
M  V30 10501 C 1008.29 -3.471 0.117836 0
M  V30 10502 C 1007.24 -4.14701 1.05862 0
M  V30 10503 C 1006.57 -5.3374 0.320284 0
M  V30 10504 C 1007.87 -4.64254 2.39302 0
M  V30 10505 H 1009.56 -2.52237 1.61297 0
M  V30 10506 H 1007.11 -1.21239 0.776992 0
M  V30 10507 H 1009.06 -4.21156 -0.143519 0
M  V30 10508 H 1007.79 -3.16361 -0.811389 0
M  V30 10509 H 1006.45 -3.42589 1.30493 0
M  V30 10510 H 1006.09 -4.99257 -0.61246 0
M  V30 10511 H 1005.79 -5.79912 0.947381 0
M  V30 10512 H 1007.32 -6.10563 0.0667721 0
M  V30 10513 H 1008.73 -5.29827 2.18988 0
M  V30 10514 H 1007.13 -5.21095 2.97623 0
M  V30 10515 H 1008.2 -3.79793 3.01472 0
M  V30 10516 N 1009.54 -0.859717 -1.32086 0
M  V30 10517 C 1010.48 -0.252764 -2.26796 0
M  V30 10518 C 1011.45 0.612178 -1.50636 0
M  V30 10519 O 1012.64 0.567865 -1.79743 0
M  V30 10520 C 1009.76 0.643017 -3.3254 0
M  V30 10521 C 1008.81 -0.149211 -4.26239 0
M  V30 10522 S 1009.64 -1.52097 -5.13446 0
M  V30 10523 C 1010.8 -0.631035 -6.22711 0
M  V30 10524 H 1011.03 -1.05563 -2.77928 0
M  V30 10525 H 1008.57 -0.657639 -1.39694 0
M  V30 10526 H 1010.52 1.15418 -3.9394 0
M  V30 10527 H 1009.18 1.41974 -2.80183 0
M  V30 10528 H 1008.38 0.53328 -5.01171 0
M  V30 10529 H 1007.98 -0.592128 -3.69283 0
M  V30 10530 H 1010.27 0.162638 -6.77305 0
M  V30 10531 H 1011.21 -1.35116 -6.95089 0
M  V30 10532 H 1011.62 -0.203131 -5.64134 0
M  V30 10533 N 1011.02 1.44971 -0.618145 0
M  V30 10534 C 1012.27 2.0176 -0.11725 0
M  V30 10535 C 1012.59 1.48773 1.26062 0
M  V30 10536 O 1011.86 0.686152 1.83491 0
M  V30 10537 H 1010.44 0.745909 -0.0403545 0
M  V30 10538 H 1013.1 1.77638 -0.801923 0
M  V30 10539 H 1012.2 3.1201 -0.0750477 0
M  V30 10540 N 1012.5 0.357919 1.53482 0
M  V30 10541 C 1013.75 -0.235241 2.00324 0
M  V30 10542 C 1014.06 -1.50494 1.24944 0
M  V30 10543 O 1015.27 -2.17623 1.62335 0
M  V30 10544 C 1013.72 -0.469748 3.56821 0
M  V30 10545 C 1013.33 0.784877 4.41071 0
M  V30 10546 C 1015.07 -1.02098 4.12039 0
M  V30 10547 C 1012.98 0.520377 5.89106 0
M  V30 10548 H 1011.91 -0.0916816 0.748405 0
M  V30 10549 H 1014.56 0.475474 1.77233 0
M  V30 10550 H 1012.94 -1.24153 3.76035 0
M  V30 10551 H 1014.12 1.55886 4.33631 0
M  V30 10552 H 1012.43 1.25878 3.96918 0
M  V30 10553 H 1015.03 -1.23406 5.20264 0
M  V30 10554 H 1015.37 -1.98084 3.66154 0
M  V30 10555 H 1015.91 -0.309554 3.96594 0
M  V30 10556 H 1012.65 1.45035 6.39254 0
M  V30 10557 H 1012.17 -0.215254 5.99414 0
M  V30 10558 H 1013.84 0.143006 6.46842 0
M  V30 10559 N 1013.98 -1.5736 0.0868897 0
M  V30 10560 C 1014.94 -2.12436 -0.860439 0
M  V30 10561 C 1015.94 -1.05175 -1.21634 0
M  V30 10562 O 1017.13 -1.31098 -1.14713 0
M  V30 10563 C 1014.26 -2.63818 -2.159 0
M  V30 10564 H 1015.45 -2.97453 -0.382346 0
M  V30 10565 H 1013.01 -1.55458 -0.162009 0
M  V30 10566 H 1013.74 -1.82298 -2.68212 0
M  V30 10567 H 1013.53 -3.42234 -1.91359 0
M  V30 10568 H 1015.02 -3.06452 -2.83685 0
M  V30 10569 N 1015.45 0.186762 -1.56489 0
M  V30 10570 C 1016.38 1.23395 -1.98232 0
M  V30 10571 C 1017.37 1.4702 -0.855526 0
M  V30 10572 O 1018.55 1.58616 -1.12048 0
M  V30 10573 C 1015.68 2.57635 -2.32898 0
M  V30 10574 C 1014.63 2.48607 -3.48394 0
M  V30 10575 C 1013.96 3.87196 -3.68759 0
M  V30 10576 C 1015.26 2.00398 -4.82325 0
M  V30 10577 H 1016.95 0.887026 -2.85958 0
M  V30 10578 H 1014.5 0.42525 -1.37578 0
M  V30 10579 H 1016.45 3.31082 -2.60696 0
M  V30 10580 H 1015.18 2.94084 -1.42064 0
M  V30 10581 H 1013.84 1.77615 -3.207 0
M  V30 10582 H 1013.48 4.21012 -2.75241 0
M  V30 10583 H 1013.18 3.82029 -4.46462 0
M  V30 10584 H 1014.71 4.62253 -3.98941 0
M  V30 10585 H 1016.12 2.6361 -5.091 0
M  V30 10586 H 1014.52 2.06214 -5.63556 0
M  V30 10587 H 1015.59 0.957562 -4.75351 0
M  V30 10588 N 1016.93 1.50896 0.454776 0
M  V30 10589 C 1018.18 1.61936 1.20248 0
M  V30 10590 C 1018.49 0.332983 1.92745 0
M  V30 10591 O 1019.7 0.322512 2.69578 0
M  V30 10592 C 1018.16 2.85916 2.18587 0
M  V30 10593 C 1017.76 4.21492 1.51818 0
M  V30 10594 C 1019.51 3.06307 2.93898 0
M  V30 10595 C 1017.42 5.3664 2.48539 0
M  V30 10596 H 1016.35 0.603098 0.452536 0
M  V30 10597 H 1019 1.77345 0.471257 0
M  V30 10598 H 1017.38 2.64101 2.95071 0
M  V30 10599 H 1018.55 4.53623 0.810123 0
M  V30 10600 H 1016.87 4.06837 0.887265 0
M  V30 10601 H 1019.46 3.89507 3.66317 0
M  V30 10602 H 1019.81 2.18683 3.54236 0
M  V30 10603 H 1020.34 3.2838 2.24525 0
M  V30 10604 H 1017.08 6.26469 1.92916 0
M  V30 10605 H 1016.6 5.08907 3.17449 0
M  V30 10606 H 1018.28 5.67881 3.10033 0
M  V30 10607 N 1018.41 -0.709066 1.40748 0
M  V30 10608 C 1019.34 -1.83293 1.35937 0
M  V30 10609 C 1020.32 -1.60983 0.22871 0
M  V30 10610 O 1021.51 -1.8391 0.413435 0
M  V30 10611 C 1018.63 -3.19746 1.11714 0
M  V30 10612 C 1017.68 -3.60872 2.27319 0
M  V30 10613 S 1018.51 -3.67233 3.89743 0
M  V30 10614 C 1019.67 -5.06434 3.67797 0
M  V30 10615 H 1019.9 -1.87095 2.31047 0
M  V30 10616 H 1017.43 -0.876479 1.27111 0
M  V30 10617 H 1019.39 -3.98526 0.984245 0
M  V30 10618 H 1018.05 -3.1357 0.182472 0
M  V30 10619 H 1017.25 -4.59965 2.06029 0
M  V30 10620 H 1016.85 -2.89366 2.36946 0
M  V30 10621 H 1019.14 -5.93544 3.26668 0
M  V30 10622 H 1020.08 -5.32761 4.66445 0
M  V30 10623 H 1020.49 -4.77336 3.01348 0
M  V30 10624 N 1019.89 -1.26353 -0.941956 0
M  V30 10625 C 1020.82 -1.10341 -2.05784 0
M  V30 10626 C 1021.8 -0.00881565 -1.70098 0
M  V30 10627 O 1022.99 -0.180699 -1.93357 0
M  V30 10628 C 1020.12 -0.734788 -3.39438 0
M  V30 10629 C 1019.07 -1.78103 -3.89183 0
M  V30 10630 C 1018.4 -1.26675 -5.19478 0
M  V30 10631 C 1019.7 -3.1824 -4.14151 0
M  V30 10632 H 1021.39 -2.03684 -2.19438 0
M  V30 10633 H 1018.94 -0.980698 -1.05443 0
M  V30 10634 H 1020.89 -0.609653 -4.16967 0
M  V30 10635 H 1019.61 0.234354 -3.25758 0
M  V30 10636 H 1018.27 -1.89482 -3.13835 0
M  V30 10637 H 1017.92 -0.287472 -5.02178 0
M  V30 10638 H 1017.62 -1.96612 -5.53731 0
M  V30 10639 H 1019.14 -1.15427 -5.99591 0
M  V30 10640 H 1020.56 -3.09942 -4.82296 0
M  V30 10641 H 1018.95 -3.8576 -4.59684 0
M  V30 10642 H 1020.02 -3.64354 -3.19959 0
M  V30 10643 N 1021.37 1.14642 -1.08144 0
M  V30 10644 C 1022.3 2.18656 -0.653066 0
M  V30 10645 C 1023.28 1.59137 0.333803 0
M  V30 10646 O 1024.46 1.86988 0.238305 0
M  V30 10647 C 1021.59 3.38677 0.0398337 0
M  V30 10648 C 1020.64 4.1675 -0.906755 0
M  V30 10649 S 1021.47 4.78103 -2.41201 0
M  V30 10650 C 1022.62 6.01483 -1.73115 0
M  V30 10651 H 1022.86 2.54654 -1.53423 0
M  V30 10652 H 1020.39 1.25731 -0.896162 0
M  V30 10653 H 1022.35 4.08206 0.43334 0
M  V30 10654 H 1021.01 3.01006 0.897457 0
M  V30 10655 H 1020.2 5.02649 -0.368795 0
M  V30 10656 H 1019.8 3.52809 -1.24103 0
M  V30 10657 H 1022.1 6.69353 -1.04752 0
M  V30 10658 H 1023.04 6.59863 -2.56878 0
M  V30 10659 H 1023.45 5.51474 -1.20566 0
M  V30 10660 N 1022.85 0.866709 1.31628 0
M  V30 10661 C 1023.81 0.325041 2.26883 0
M  V30 10662 C 1024.81 -0.522133 1.52087 0
M  V30 10663 O 1026 -0.331908 1.71009 0
M  V30 10664 C 1023.13 -0.538756 3.36616 0
M  V30 10665 H 1024.32 1.16592 2.76308 0
M  V30 10666 H 1021.88 0.642029 1.42505 0
M  V30 10667 H 1022.61 -1.40096 2.92478 0
M  V30 10668 H 1022.4 0.0678115 3.92041 0
M  V30 10669 H 1023.89 -0.910123 4.07562 0
M  V30 10670 N 1024.32 -1.44642 0.625825 0
M  V30 10671 C 1025.57 -2.01695 0.127948 0
M  V30 10672 C 1025.89 -1.49439 -1.25271 0
M  V30 10673 O 1025.16 -0.695873 -1.83124 0
M  V30 10674 H 1023.74 -0.745685 0.0443096 0
M  V30 10675 H 1026.4 -1.7721 0.811332 0
M  V30 10676 H 1025.5 -3.11966 0.0915933 0
M  V30 10677 N 1025.8 -0.366053 -1.5329 0
M  V30 10678 C 1027.05 0.223493 -2.01263 0
M  V30 10679 C 1027.38 1.48736 -1.25331 0
M  V30 10680 O 1026.63 1.92805 -0.335341 0
M  V30 10681 C 1026.93 0.560906 -3.52971 0
M  V30 10682 C 1026.6 -0.60869 -4.46773 0
M  V30 10683 C 1025.26 -0.929609 -4.72135 0
M  V30 10684 C 1027.61 -1.39225 -5.02261 0
M  V30 10685 C 1024.94 -2.03606 -5.50238 0
M  V30 10686 C 1027.29 -2.48912 -5.81572 0
M  V30 10687 C 1025.95 -2.81538 -6.05221 0
M  V30 10688 H 1025.22 0.0817818 -0.736473 0
M  V30 10689 H 1027.87 -0.498613 -1.84895 0
M  V30 10690 H 1026.18 1.36403 -3.67289 0
M  V30 10691 H 1027.87 1.02931 -3.87564 0
M  V30 10692 H 1024.46 -0.348529 -4.27181 0
M  V30 10693 H 1028.65 -1.15757 -4.82612 0
M  V30 10694 H 1023.9 -2.29281 -5.6678 0
M  V30 10695 H 1028.08 -3.10044 -6.23575 0
M  V30 10696 H 1025.7 -3.67396 -6.65525 0
M  V30 10697 N 1027.28 1.57312 -0.0952337 0
M  V30 10698 C 1028.53 1.93533 0.568131 0
M  V30 10699 C 1028.84 0.979121 1.6933 0
M  V30 10700 O 1030.05 1.23506 2.41782 0
M  V30 10701 C 1028.5 3.43875 1.06198 0
M  V30 10702 C 1028.11 4.47988 -0.0334397 0
M  V30 10703 C 1029.86 3.89057 1.69807 0
M  V30 10704 C 1027.76 5.89483 0.475774 0
M  V30 10705 H 1026.69 0.7224 0.215995 0
M  V30 10706 H 1029.34 1.82699 -0.171257 0
M  V30 10707 H 1027.73 3.49862 1.85506 0
M  V30 10708 H 1028.9 4.53644 -0.808934 0
M  V30 10709 H 1027.21 4.12415 -0.574725 0
M  V30 10710 H 1029.81 4.92171 2.08978 0
M  V30 10711 H 1030.15 3.27713 2.5673 0
M  V30 10712 H 1030.69 3.85772 0.970815 0
M  V30 10713 H 1027.43 6.54528 -0.356837 0
M  V30 10714 H 1026.95 5.87297 1.21827 0
M  V30 10715 H 1028.63 6.40066 0.944697 0
M  V30 10716 N 1028.76 -0.17846 1.56586 0
M  V30 10717 C 1029.7 -1.22104 1.95855 0
M  V30 10718 C 1030.67 -1.44366 0.821447 0
M  V30 10719 O 1031.86 -1.57224 1.08098 0
M  V30 10720 C 1029 -2.55701 2.31757 0
M  V30 10721 C 1028.11 -2.40879 3.5861 0
M  V30 10722 C 1027.25 -3.67293 3.83757 0
M  V30 10723 C 1026.29 -3.47373 5.03982 0
M  V30 10724 N 1025.42 -4.65839 5.25298 0
M  V30 10725 H 1030.26 -0.879168 2.84736 0
M  V30 10726 H 1027.8 -0.422721 1.40895 0
M  V30 10727 H 1029.76 -3.33556 2.50592 0
M  V30 10728 H 1028.39 -2.87898 1.45995 0
M  V30 10729 H 1027.44 -1.54236 3.47729 0
M  V30 10730 H 1028.75 -2.22102 4.46623 0
M  V30 10731 H 1027.91 -4.53584 4.02922 0
M  V30 10732 H 1026.65 -3.89041 2.94107 0
M  V30 10733 H 1025.65 -2.59467 4.84723 0
M  V30 10734 H 1026.88 -3.27055 5.95157 0
M  V30 10735 H 1024.82 -4.8782 4.38598 0
M  V30 10736 H 1024.74 -4.4995 6.0752 0
M  V30 10737 H 1026.01 -5.53435 5.48936 0
M  V30 10738 N 1030.24 -1.51135 -0.446768 0
M  V30 10739 C 1031.48 -1.62571 -1.19388 0
M  V30 10740 C 1031.8 -0.3432 -1.92566 0
M  V30 10741 O 1033 -0.336804 -2.69403 0
M  V30 10742 C 1031.46 -2.87071 -2.17068 0
M  V30 10743 C 1031.07 -4.22291 -1.49581 0
M  V30 10744 C 1032.81 -3.07862 -2.9227 0
M  V30 10745 C 1030.72 -5.3795 -2.45689 0
M  V30 10746 H 1029.65 -0.60549 -0.449331 0
M  V30 10747 H 1032.3 -1.77593 -0.461846 0
M  V30 10748 H 1030.68 -2.65662 -2.93666 0
M  V30 10749 H 1031.86 -4.54046 -0.786054 0
M  V30 10750 H 1030.17 -4.07302 -0.865677 0
M  V30 10751 H 1032.77 -3.91444 -3.64246 0
M  V30 10752 H 1033.11 -2.20559 -3.53072 0
M  V30 10753 H 1033.64 -3.29566 -2.2278 0
M  V30 10754 H 1030.38 -6.27484 -1.89591 0
M  V30 10755 H 1029.9 -5.10583 -3.14746 0
M  V30 10756 H 1031.58 -5.69517 -3.07017 0
M  V30 10757 N 1031.71 0.701592 -1.41122 0
M  V30 10758 C 1032.95 1.4739 -1.41618 0
M  V30 10759 C 1033.32 1.91987 -0.0219443 0
M  V30 10760 O 1034.52 2.6862 0.0982793 0
M  V30 10761 C 1032.79 2.65745 -2.38986 0
M  V30 10762 S 1034.35 3.54968 -2.5796 0
M  V30 10763 H 1031.17 0.503742 -0.501762 0
M  V30 10764 H 1033.77 0.819186 -1.77509 0
M  V30 10765 H 1032.47 2.31176 -3.39096 0
M  V30 10766 H 1032 3.36115 -2.04426 0
M  V30 10767 H 1034.02 4.60724 -1.84249 0
M  V30 10768 N 1033.19 1.2685 0.935242 0
M  V30 10769 C 1034.42 1.15645 1.72165 0
M  V30 10770 C 1034.84 -0.283909 1.85945 0
M  V30 10771 O 1034.2 -1.20567 1.354 0
M  V30 10772 C 1034.25 1.83689 3.10307 0
M  V30 10773 O 1033.35 1.12972 3.96625 0
M  V30 10774 H 1032.69 0.402629 0.528002 0
M  V30 10775 H 1035.22 1.67781 1.17093 0
M  V30 10776 H 1035.23 1.90749 3.60664 0
M  V30 10777 H 1033.91 2.88472 2.99595 0
M  V30 10778 H 1032.48 1.13929 3.5507 0
M  V30 10779 N 1034.67 -1.14067 1.0875 0
M  V30 10780 C 1035.92 -1.85459 0.82053 0
M  V30 10781 C 1036.25 -1.82923 -0.65213 0
M  V30 10782 O 1035.52 -1.26241 -1.47965 0
M  V30 10783 C 1035.81 -3.33937 1.34752 0
M  V30 10784 C 1035.66 -3.45026 2.88578 0
M  V30 10785 C 1036.98 -4.2915 0.975636 0
M  V30 10786 H 1034.1 -0.673384 0.299538 0
M  V30 10787 H 1036.74 -1.33927 1.34772 0
M  V30 10788 H 1034.89 -3.77953 0.899086 0
M  V30 10789 H 1036.56 -3.09771 3.41818 0
M  V30 10790 H 1034.81 -2.86124 3.26061 0
M  V30 10791 H 1035.48 -4.49408 3.20526 0
M  V30 10792 H 1037.95 -3.93168 1.36228 0
M  V30 10793 H 1036.83 -5.31489 1.37152 0
M  V30 10794 H 1037.09 -4.41945 -0.116956 0
M  V30 10795 N 1036.15 -0.873678 -1.31166 0
M  V30 10796 C 1037.1 -0.303699 -2.25968 0
M  V30 10797 C 1038.08 0.561387 -1.50789 0
M  V30 10798 O 1039.27 0.407658 -1.72242 0
M  V30 10799 C 1036.4 0.490612 -3.39776 0
M  V30 10800 C 1035.49 -0.387927 -4.22322 0
M  V30 10801 N 1035.88 -1.48313 -4.83567 0
M  V30 10802 C 1034.18 -0.18102 -4.45632 0
M  V30 10803 C 1034.88 -2.0252 -5.45308 0
M  V30 10804 N 1033.86 -1.32169 -5.27288 0
M  V30 10805 H 1037.66 -1.14071 -2.7086 0
M  V30 10806 H 1035.17 -0.721843 -1.45476 0
M  V30 10807 H 1037.17 0.9155 -4.06724 0
M  V30 10808 H 1035.83 1.32519 -2.96427 0
M  V30 10809 H 1036.84 -1.86604 -4.83114 0
M  V30 10810 H 1033.52 0.617304 -4.12911 0
M  V30 10811 H 1034.91 -2.94429 -6.03955 0
M  V30 10812 N 1037.63 1.44308 -0.633487 0
M  V30 10813 C 1038.85 2.06384 -0.146063 0
M  V30 10814 C 1039.27 1.47357 1.18031 0
M  V30 10815 O 1038.63 0.597334 1.72448 0
M  V30 10816 C 1038.68 3.61489 -0.0276722 0
M  V30 10817 O 1038.4 4.18318 -1.3016 0
M  V30 10818 C 1039.9 4.40604 0.488168 0
M  V30 10819 H 1037.12 0.666122 -0.0807632 0
M  V30 10820 H 1039.66 1.85139 -0.868557 0
M  V30 10821 H 1037.82 3.81988 0.645273 0
M  V30 10822 H 1038.23 5.11783 -1.14797 0
M  V30 10823 H 1039.71 5.49545 0.520013 0
M  V30 10824 H 1040.18 4.12218 1.51568 0
M  V30 10825 H 1040.79 4.2503 -0.151608 0
M  V30 10826 N 1039.1 0.374177 1.53094 0
M  V30 10827 C 1040.52 -0.103172 1.86415 0
M  V30 10828 C 1040.87 -1.47439 1.29446 0
M  V30 10829 O 1039.99 -2.07333 0.619853 0
M  V30 10830 C 1040.59 -0.193988 3.38244 0
M  V30 10831 C 1039.15 -0.615605 3.71332 0
M  V30 10832 C 1038.29 0.23186 2.76329 0
M  V30 10833 H 1041.24 0.592644 1.47219 0
M  V30 10834 H 1041.26 -1.01597 3.66686 0
M  V30 10835 H 1040.78 0.80414 3.79678 0
M  V30 10836 H 1038.88 -1.62165 3.3546 0
M  V30 10837 H 1038.99 -0.38425 4.77557 0
M  V30 10838 H 1037.35 -0.300579 2.5292 0
M  V30 10839 H 1038.14 1.22769 3.20597 0
M  V30 10840 N 1040.58 -1.57259 0.103575 0
M  V30 10841 C 1041.81 -1.99424 -0.569638 0
M  V30 10842 C 1042.23 -0.982475 -1.60403 0
M  V30 10843 O 1041.59 0.0479231 -1.81237 0
M  V30 10844 C 1041.64 -3.40527 -1.18633 0
M  V30 10845 O 1040.74 -3.42167 -2.30208 0
M  V30 10846 H 1040.08 -0.648251 -0.143759 0
M  V30 10847 H 1042.61 -2.03739 0.187493 0
M  V30 10848 H 1042.62 -3.78404 -1.5256 0
M  V30 10849 H 1041.3 -4.13686 -0.428582 0
M  V30 10850 H 1039.88 -3.16093 -1.97837 0
M  V30 10851 N 1042.06 0.170153 -1.56679 0
M  V30 10852 C 1043.29 0.90618 -1.86556 0
M  V30 10853 C 1043.71 1.74986 -0.690044 0
M  V30 10854 O 1043.07 1.77672 0.360862 0
M  V30 10855 C 1043.12 1.75777 -3.14857 0
M  V30 10856 O 1042.22 2.85952 -2.97162 0
M  V30 10857 H 1041.56 0.253781 -0.613589 0
M  V30 10858 H 1044.09 0.167943 -2.0391 0
M  V30 10859 H 1044.1 2.15747 -3.46291 0
M  V30 10860 H 1042.78 1.13807 -4.00026 0
M  V30 10861 H 1041.35 2.49557 -2.77084 0
M  V30 10862 N 1043.54 1.5137 0.438746 0
M  V30 10863 C 1044.49 1.73154 1.55308 0
M  V30 10864 C 1045.48 0.597825 1.58501 0
M  V30 10865 O 1046.69 0.77917 1.62262 0
M  V30 10866 H 1043.06 0.547083 0.51595 0
M  V30 10867 H 1045.03 2.66566 1.34108 0
M  V30 10868 C 1043.78 1.87242 2.92977 0
M  V30 10869 H 1043.1 2.73884 2.91252 0
M  V30 10870 H 1044.54 2.06497 3.70317 0
M  V30 10871 C 1043 0.631887 3.30921 0
M  V30 10872 O 1043.53 -0.214099 4.01129 0
M  V30 10873 N 1041.74 0.47639 2.86669 0
M  V30 10874 H 1041.29 1.16589 2.29706 0
M  V30 10875 H 1041.24 -0.352403 3.12419 0
M  V30 10876 N 1045.02 -0.694098 1.41492 0
M  V30 10877 C 1046.43 -1.27407 1.36471 0
M  V30 10878 C 1046.78 -1.9614 0.0485209 0
M  V30 10879 O 1045.9 -1.98871 -0.853188 0
M  V30 10880 C 1046.5 -2.31698 2.47188 0
M  V30 10881 C 1045.06 -2.85268 2.45559 0
M  V30 10882 C 1044.2 -1.59325 2.2696 0
M  V30 10883 H 1047.16 -0.488756 1.50986 0
M  V30 10884 H 1047.18 -3.1302 2.1633 0
M  V30 10885 H 1046.69 -1.81644 3.42968 0
M  V30 10886 H 1044.79 -3.39494 1.5354 0
M  V30 10887 H 1044.9 -3.35598 3.41922 0
M  V30 10888 H 1043.27 -1.85188 1.74864 0
M  V30 10889 H 1044.05 -1.11265 3.24769 0
M  V30 10890 N 1046.49 -1.27344 -0.928501 0
M  V30 10891 C 1047.44 -1.10001 -2.029 0
M  V30 10892 C 1048.41 -0.00131084 -1.661 0
M  V30 10893 O 1049.6 -0.163485 -1.90098 0
M  V30 10894 C 1046.74 -0.7524 -3.36798 0
M  V30 10895 C 1045.85 -1.92865 -3.86558 0
M  V30 10896 C 1044.98 -1.52299 -5.08899 0
M  V30 10897 C 1044.02 -2.66677 -5.50953 0
M  V30 10898 N 1043.16 -2.26706 -6.64491 0
M  V30 10899 H 1048 -2.0417 -2.17068 0
M  V30 10900 H 1045.54 -1.01637 -1.0634 0
M  V30 10901 H 1047.5 -0.531687 -4.13798 0
M  V30 10902 H 1046.13 0.15234 -3.2244 0
M  V30 10903 H 1045.18 -2.26192 -3.05845 0
M  V30 10904 H 1046.49 -2.78668 -4.13698 0
M  V30 10905 H 1045.64 -1.26348 -5.93398 0
M  V30 10906 H 1044.38 -0.636042 -4.83535 0
M  V30 10907 H 1043.39 -2.93344 -4.65004 0
M  V30 10908 H 1044.61 -3.55992 -5.78313 0
M  V30 10909 H 1042.56 -1.40462 -6.40786 0
M  V30 10910 H 1042.48 -3.06049 -6.91281 0
M  V30 10911 H 1043.74 -2.04 -7.52333 0
M  V30 10912 N 1047.97 1.13488 -1.09353 0
M  V30 10913 C 1048.9 2.20988 -0.75409 0
M  V30 10914 C 1049.88 1.67977 0.267901 0
M  V30 10915 O 1051.07 1.93722 0.136128 0
M  V30 10916 C 1048.2 3.46869 -0.173042 0
M  V30 10917 C 1047.15 4.12965 -1.12446 0
M  V30 10918 C 1046.48 5.33163 -0.405157 0
M  V30 10919 C 1047.78 4.60388 -2.46658 0
M  V30 10920 H 1049.47 2.49639 -1.6529 0
M  V30 10921 H 1047.02 1.19987 -0.796182 0
M  V30 10922 H 1048.97 4.21331 0.0764988 0
M  V30 10923 H 1047.7 3.17611 0.760956 0
M  V30 10924 H 1046.35 3.40469 -1.35927 0
M  V30 10925 H 1046 5.00169 0.532955 0
M  V30 10926 H 1045.7 5.78332 -1.03952 0
M  V30 10927 H 1047.23 6.1038 -0.163899 0
M  V30 10928 H 1048.64 5.26276 -2.27389 0
M  V30 10929 H 1047.04 5.16294 -3.05876 0
M  V30 10930 H 1048.11 3.74949 -3.07476 0
M  V30 10931 N 1049.45 0.880621 1.30701 0
M  V30 10932 C 1050.86 0.547993 1.78477 0
M  V30 10933 C 1051.21 -0.935633 1.72454 0
M  V30 10934 O 1050.34 -1.73094 1.29874 0
M  V30 10935 C 1050.93 0.98795 3.24076 0
M  V30 10936 C 1049.49 0.706805 3.69704 0
M  V30 10937 C 1048.64 1.17335 2.51252 0
M  V30 10938 H 1051.59 1.06528 1.17633 0
M  V30 10939 H 1051.61 0.31508 3.79193 0
M  V30 10940 H 1051.12 2.06778 3.28427 0
M  V30 10941 H 1049.22 -0.36122 3.70845 0
M  V30 10942 H 1049.34 1.2913 4.6137 0
M  V30 10943 H 1047.7 0.592808 2.47705 0
M  V30 10944 H 1048.48 2.26083 2.58343 0
M  V30 10945 N 1050.93 -1.4397 0.641131 0
M  V30 10946 C 1052.34 -1.85267 0.230838 0
M  V30 10947 C 1052.69 -1.53659 -1.21998 0
M  V30 10948 O 1051.82 -0.979572 -1.92959 0
M  V30 10949 C 1052.41 -3.36284 0.412171 0
M  V30 10950 C 1050.97 -3.76358 0.0563004 0
M  V30 10951 C 1050.12 -2.67768 0.720809 0
M  V30 10952 H 1053.07 -1.34294 0.845624 0
M  V30 10953 H 1053.09 -3.78924 -0.345936 0
M  V30 10954 H 1052.6 -3.59258 1.46818 0
M  V30 10955 H 1050.7 -3.58997 -0.997582 0
M  V30 10956 H 1050.82 -4.76756 0.473335 0
M  V30 10957 H 1049.18 -2.54227 0.155164 0
M  V30 10958 H 1049.96 -2.93573 1.77961 0
M  V30 10959 N 1052.41 -0.382291 -1.52893 0
M  V30 10960 C 1053.82 0.0932841 -1.86467 0
M  V30 10961 C 1054.17 1.4675 -1.30226 0
M  V30 10962 O 1053.29 2.07001 -0.63084 0
M  V30 10963 C 1053.89 0.176048 -3.38342 0
M  V30 10964 C 1052.45 0.595904 -3.71653 0
M  V30 10965 C 1051.6 -0.246511 -2.76202 0
M  V30 10966 H 1054.55 -0.600443 -1.46903 0
M  V30 10967 H 1054.57 0.996512 -3.67219 0
M  V30 10968 H 1054.08 -0.824264 -3.79246 0
M  V30 10969 H 1052.18 1.60384 -3.36315 0
M  V30 10970 H 1052.29 0.358919 -4.77754 0
M  V30 10971 H 1050.66 0.287162 -2.53076 0
M  V30 10972 H 1051.44 -1.24467 -3.19942 0
M  V30 10973 N 1053.89 1.57202 -0.111913 0
M  V30 10974 C 1054.83 2.14936 0.840908 0
M  V30 10975 C 1055.8 1.07242 1.2684 0
M  V30 10976 O 1056.99 1.35114 1.34718 0
M  V30 10977 C 1054.13 2.74743 2.0883 0
M  V30 10978 C 1053.24 3.96723 1.70982 0
M  V30 10979 C 1052.38 4.4464 2.90634 0
M  V30 10980 C 1051.41 5.59169 2.48992 0
M  V30 10981 N 1050.55 6.01862 3.61534 0
M  V30 10982 H 1055.39 2.96034 0.341735 0
M  V30 10983 H 1052.93 1.4626 0.156993 0
M  V30 10984 H 1054.89 3.07546 2.81907 0
M  V30 10985 H 1053.52 1.96346 2.56218 0
M  V30 10986 H 1052.57 3.70127 0.878072 0
M  V30 10987 H 1053.88 4.79795 1.36373 0
M  V30 10988 H 1053.03 4.79315 3.71944 0
M  V30 10989 H 1051.77 3.60503 3.28464 0
M  V30 10990 H 1050.78 5.24106 1.66113 0
M  V30 10991 H 1052 6.45067 2.12287 0
M  V30 10992 H 1049.95 5.20667 3.99051 0
M  V30 10993 H 1049.87 6.79772 3.30827 0
M  V30 10994 H 1051.13 6.41172 4.43305 0
M  V30 10995 N 1055.36 -0.161842 1.56767 0
M  V30 10996 C 1056.77 -0.723385 1.72116 0
M  V30 10997 C 1057.13 -1.82355 0.723961 0
M  V30 10998 O 1056.25 -2.16107 -0.112643 0
M  V30 10999 C 1056.85 -1.31895 3.12072 0
M  V30 11000 C 1055.4 -1.82722 3.29074 0
M  V30 11001 C 1054.55 -0.709863 2.6806 0
M  V30 11002 H 1057.5 0.0636647 1.58572 0
M  V30 11003 H 1057.52 -2.18871 3.11249 0
M  V30 11004 H 1057.04 -0.51801 3.84627 0
M  V30 11005 H 1055.14 -2.6543 2.61491 0
M  V30 11006 H 1055.25 -1.96614 4.36898 0
M  V30 11007 H 1053.61 -1.13273 2.28126 0
M  V30 11008 H 1054.4 0.0793884 3.43208 0
M  V30 11009 N 1056.84 -1.516 -0.430713 0
M  V30 11010 C 1057.77 -1.76342 -1.53054 0
M  V30 11011 C 1058.75 -0.61349 -1.58652 0
M  V30 11012 O 1059.94 -0.856888 -1.74273 0
M  V30 11013 C 1057.07 -1.8945 -2.91077 0
M  V30 11014 C 1056.02 -3.04928 -3.00339 0
M  V30 11015 C 1055.35 -3.03228 -4.40405 0
M  V30 11016 C 1056.65 -4.44777 -2.73808 0
M  V30 11017 H 1058.34 -2.68435 -1.326 0
M  V30 11018 H 1055.89 -1.29171 -0.636466 0
M  V30 11019 H 1057.84 -2.05343 -3.67984 0
M  V30 11020 H 1056.56 -0.940114 -3.12777 0
M  V30 11021 H 1055.22 -2.88751 -2.25872 0
M  V30 11022 H 1054.87 -2.05553 -4.59083 0
M  V30 11023 H 1054.57 -3.80776 -4.47531 0
M  V30 11024 H 1056.1 -3.21222 -5.19277 0
M  V30 11025 H 1057.51 -4.6127 -3.40445 0
M  V30 11026 H 1055.91 -5.2408 -2.92335 0
M  V30 11027 H 1056.98 -4.54358 -1.69372 0
M  V30 11028 N 1058.32 0.686584 -1.41858 0
M  V30 11029 C 1059.73 1.26682 -1.37145 0
M  V30 11030 C 1060.08 1.96112 -0.058922 0
M  V30 11031 O 1059.21 1.99321 0.842629 0
M  V30 11032 C 1059.8 2.30383 -2.48413 0
M  V30 11033 C 1058.36 2.83961 -2.47069 0
M  V30 11034 C 1057.51 1.58119 -2.27802 0
M  V30 11035 H 1060.46 0.480742 -1.51243 0
M  V30 11036 H 1060.48 3.11868 -2.17987 0
M  V30 11037 H 1059.99 1.79822 -3.43927 0
M  V30 11038 H 1058.09 3.38675 -1.55338 0
M  V30 11039 H 1058.21 3.3378 -3.43697 0
M  V30 11040 H 1056.57 1.84258 -1.75844 0
M  V30 11041 H 1057.35 1.09541 -3.25355 0
M  V30 11042 N 1059.8 1.27835 0.921735 0
M  V30 11043 C 1061.05 1.14296 1.66676 0
M  V30 11044 C 1061.37 -0.310493 1.92512 0
M  V30 11045 O 1060.64 -1.21637 1.53562 0
M  V30 11046 H 1059.22 0.419994 0.617749 0
M  V30 11047 H 1061.88 1.60449 1.10644 0
M  V30 11048 H 1060.97 1.67654 2.63246 0
M  V30 11049 N 1061.28 -1.12907 1.09954 0
M  V30 11050 C 1062.5 -1.88138 0.860905 0
M  V30 11051 C 1062.92 -1.79402 -0.588256 0
M  V30 11052 O 1062.28 -1.16442 -1.40526 0
M  V30 11053 C 1062.33 -3.37537 1.29425 0
M  V30 11054 O 1062.05 -3.46056 2.68658 0
M  V30 11055 C 1063.55 -4.29721 1.08879 0
M  V30 11056 H 1060.77 -0.595437 0.309347 0
M  V30 11057 H 1063.31 -1.42894 1.46292 0
M  V30 11058 H 1061.47 -3.80344 0.736009 0
M  V30 11059 H 1061.88 -4.38969 2.87065 0
M  V30 11060 H 1063.36 -5.32854 1.4412 0
M  V30 11061 H 1063.83 -4.39192 0.0270053 0
M  V30 11062 H 1064.44 -3.9269 1.63325 0
M  V30 11063 N 1062.75 -0.88754 -1.30232 0
M  V30 11064 C 1063.68 -0.372481 -2.3051 0
M  V30 11065 C 1064.66 0.546037 -1.61098 0
M  V30 11066 O 1065.85 0.459345 -1.88689 0
M  V30 11067 C 1062.98 0.411605 -3.44852 0
M  V30 11068 C 1061.93 -0.415383 -4.2598 0
M  V30 11069 C 1061.26 0.495463 -5.324 0
M  V30 11070 C 1062.56 -1.65886 -4.95257 0
M  V30 11071 H 1064.25 -1.21045 -2.7384 0
M  V30 11072 H 1061.8 -0.583498 -1.31648 0
M  V30 11073 H 1063.75 0.782584 -4.1407 0
M  V30 11074 H 1062.48 1.28325 -3.00334 0
M  V30 11075 H 1061.14 -0.768534 -3.58454 0
M  V30 11076 H 1060.78 1.36489 -4.84128 0
M  V30 11077 H 1060.48 -0.0540885 -5.87575 0
M  V30 11078 H 1062.01 0.862901 -6.04472 0
M  V30 11079 H 1063.42 -1.35832 -5.56976 0
M  V30 11080 H 1061.82 -2.14881 -5.60309 0
M  V30 11081 H 1062.89 -2.40181 -4.21237 0
M  V30 11082 N 1064.23 1.43628 -0.648757 0
M  V30 11083 C 1065.18 2.30755 0.0455536 0
M  V30 11084 C 1066.15 1.44495 0.819168 0
M  V30 11085 O 1067.33 1.73372 0.79667 0
M  V30 11086 C 1064.47 3.30017 1.00908 0
M  V30 11087 C 1063.59 4.31376 0.232039 0
M  V30 11088 C 1062.72 5.17723 1.18897 0
M  V30 11089 C 1061.76 6.10778 0.402096 0
M  V30 11090 N 1060.9 6.89763 1.31038 0
M  V30 11091 H 1065.74 2.89581 -0.70332 0
M  V30 11092 H 1063.28 1.42662 -0.3586 0
M  V30 11093 H 1065.23 3.86072 1.58128 0
M  V30 11094 H 1063.86 2.72851 1.72488 0
M  V30 11095 H 1062.92 3.77652 -0.456373 0
M  V30 11096 H 1064.23 4.9735 -0.380023 0
M  V30 11097 H 1063.38 5.78381 1.83194 0
M  V30 11098 H 1062.12 4.51864 1.83494 0
M  V30 11099 H 1061.13 5.49212 -0.254255 0
M  V30 11100 H 1062.35 6.78678 -0.239411 0
M  V30 11101 H 1060.3 6.26557 1.94324 0
M  V30 11102 H 1060.21 7.52243 0.752774 0
M  V30 11103 H 1061.48 7.54931 1.94164 0
M  V30 11104 N 1065.71 0.390394 1.52688 0
M  V30 11105 C 1067.13 0.0404028 1.59549 0
M  V30 11106 C 1067.33 -1.44503 1.40432 0
M  V30 11107 O 1066.38 -2.20968 1.22187 0
M  V30 11108 C 1067.7 0.518561 2.96195 0
M  V30 11109 C 1069.24 0.474913 3.09376 0
M  V30 11110 C 1069.72 0.929278 4.48473 0
M  V30 11111 N 1071.21 0.885335 4.5466 0
M  V30 11112 C 1071.94 1.2083 5.60524 0
M  V30 11113 N 1071.44 1.6018 6.74028 0
M  V30 11114 N 1073.23 1.12949 5.50635 0
M  V30 11115 H 1065.38 1.35743 1.63363 0
M  V30 11116 H 1067.65 0.556453 0.767505 0
M  V30 11117 H 1067.35 1.55606 3.15404 0
M  V30 11118 H 1067.23 -0.081779 3.77111 0
M  V30 11119 H 1069.61 -0.553503 2.89863 0
M  V30 11120 H 1069.7 1.11107 2.3041 0
M  V30 11121 H 1069.34 1.95593 4.68728 0
M  V30 11122 H 1069.27 0.270121 5.25907 0
M  V30 11123 H 1071.76 0.595787 3.73174 0
M  V30 11124 H 1072.07 1.83184 7.50775 0
M  V30 11125 H 1070.42 1.64067 6.75357 0
M  V30 11126 H 1073.61 0.821074 4.60843 0
M  V30 11127 H 1073.78 1.3845 6.33037 0
M  V30 11128 N 1067.19 -1.57141 0.120249 0
M  V30 11129 C 1068.6 -1.5784 -0.236335 0
M  V30 11130 C 1068.8 -1.13304 -1.66626 0
M  V30 11131 O 1067.86 -0.821004 -2.3878 0
M  V30 11132 C 1069.17 -3.007 -0.00188211 0
M  V30 11133 C 1070.72 -3.12927 -0.0676838 0
M  V30 11134 C 1071.2 -4.57789 0.139092 0
M  V30 11135 N 1072.69 -4.63122 0.085104 0
M  V30 11136 C 1073.42 -5.72978 0.219983 0
M  V30 11137 N 1072.92 -6.91579 0.411102 0
M  V30 11138 N 1074.71 -5.61874 0.159469 0
M  V30 11139 H 1066.86 -1.84391 1.05422 0
M  V30 11140 H 1069.13 -0.852228 0.415225 0
M  V30 11141 H 1068.83 -3.37575 0.986718 0
M  V30 11142 H 1068.71 -3.70005 -0.733203 0
M  V30 11143 H 1071.09 -2.75909 -1.04681 0
M  V30 11144 H 1071.17 -2.46162 0.695538 0
M  V30 11145 H 1070.82 -4.95506 1.1152 0
M  V30 11146 H 1070.75 -5.22646 -0.644131 0
M  V30 11147 H 1073.24 -3.77854 -0.0590479 0
M  V30 11148 H 1073.55 -7.71149 0.504851 0
M  V30 11149 H 1071.9 -6.9356 0.447091 0
M  V30 11150 H 1075.09 -4.68099 0.0111131 0
M  V30 11151 H 1075.26 -6.47445 0.268028 0
M  V30 11152 N 1068.67 0.153526 -1.5685 0
M  V30 11153 C 1070.08 0.505939 -1.51368 0
M  V30 11154 C 1070.28 1.83721 -0.82757 0
M  V30 11155 O 1069.34 2.49385 -0.395364 0
M  V30 11156 C 1070.65 0.522269 -2.9613 0
M  V30 11157 C 1072.2 0.608238 -3.07033 0
M  V30 11158 C 1072.67 0.655292 -4.53288 0
M  V30 11159 N 1074.17 0.717695 -4.57606 0
M  V30 11160 C 1074.9 0.774977 -5.68139 0
M  V30 11161 N 1074.4 0.792003 -6.88258 0
M  V30 11162 N 1076.19 0.81536 -5.56155 0
M  V30 11163 H 1068.34 -0.71919 -1.99853 0
M  V30 11164 H 1070.6 -0.261466 -0.91123 0
M  V30 11165 H 1070.31 -0.387595 -3.49558 0
M  V30 11166 H 1070.18 1.3625 -3.51733 0
M  V30 11167 H 1072.57 1.50852 -2.53629 0
M  V30 11168 H 1072.65 -0.259014 -2.54485 0
M  V30 11169 H 1072.3 -0.240809 -5.07329 0
M  V30 11170 H 1072.23 1.53894 -5.03611 0
M  V30 11171 H 1074.72 0.7121 -3.7113 0
M  V30 11172 H 1075.03 0.837378 -7.6825 0
M  V30 11173 H 1073.37 0.759986 -6.90832 0
M  V30 11174 H 1076.57 0.799183 -4.61227 0
M  V30 11175 H 1076.74 0.856537 -6.42314 0
M  V30 11176 N 1070.14 1.51827 0.422667 0
M  V30 11177 C 1071.56 1.57533 1.00201 0
M  V30 11178 C 1071.91 0.407623 1.91919 0
M  V30 11179 O 1071.03 -0.473763 2.1115 0
M  V30 11180 C 1071.63 2.85508 1.82403 0
M  V30 11181 C 1070.19 2.93737 2.35362 0
M  V30 11182 C 1069.33 2.52343 1.14971 0
M  V30 11183 H 1072.28 1.57391 0.20339 0
M  V30 11184 H 1072.3 2.70097 2.68007 0
M  V30 11185 H 1071.82 3.70477 1.15623 0
M  V30 11186 H 1069.92 2.13231 3.05554 0
M  V30 11187 H 1070.03 3.977 2.67155 0
M  V30 11188 H 1068.39 2.05878 1.49955 0
M  V30 11189 H 1069.18 3.39672 0.497786 0
M  V30 11190 N 1071.62 -0.679052 1.4222 0
M  V30 11191 C 1073.03 -1.25953 1.37815 0
M  V30 11192 C 1073.38 -1.96077 0.0693215 0
M  V30 11193 O 1072.51 -1.99765 -0.832047 0
M  V30 11194 C 1073.1 -2.29063 2.49631 0
M  V30 11195 C 1071.66 -2.82647 2.48571 0
M  V30 11196 C 1070.81 -1.56909 2.28637 0
M  V30 11197 H 1073.76 -0.472714 1.51496 0
M  V30 11198 H 1073.78 -3.10708 2.19638 0
M  V30 11199 H 1073.29 -1.77996 3.44876 0
M  V30 11200 H 1071.4 -3.37846 1.57132 0
M  V30 11201 H 1071.51 -3.31952 3.45463 0
M  V30 11202 H 1069.87 -1.83323 1.76819 0
M  V30 11203 H 1070.66 -1.07814 3.25931 0
M  V30 11204 N 1073.1 -1.28322 -0.914942 0
M  V30 11205 C 1074.03 -1.07947 -2.02188 0
M  V30 11206 C 1075.05 -0.0315743 -1.62769 0
M  V30 11207 O 1076.23 -0.274503 -1.76377 0
M  V30 11208 C 1073.33 -0.61805 -3.33217 0
M  V30 11209 C 1072.51 -1.74109 -4.01254 0
M  V30 11210 C 1071.57 -1.27325 -5.10563 0
M  V30 11211 O 1070.59 -1.97526 -5.33828 0
M  V30 11212 N 1071.79 -0.1358 -5.80341 0
M  V30 11213 H 1074.56 -2.03275 -2.20225 0
M  V30 11214 H 1072.12 -1.20059 -1.08616 0
M  V30 11215 H 1074.11 -0.288693 -4.03669 0
M  V30 11216 H 1072.68 0.242348 -3.11659 0
M  V30 11217 H 1071.9 -2.2401 -3.24366 0
M  V30 11218 H 1073.19 -2.49448 -4.43456 0
M  V30 11219 H 1072.59 0.449846 -5.63909 0
M  V30 11220 H 1071.15 0.134289 -6.51662 0
M  V30 11221 N 1074.58 1.12322 -1.10551 0
M  V30 11222 C 1075.99 1.6539 -0.8662 0
M  V30 11223 C 1076.34 1.86695 0.603284 0
M  V30 11224 O 1075.47 1.59432 1.46323 0
M  V30 11225 C 1076.06 3.00443 -1.56587 0
M  V30 11226 C 1074.62 3.50456 -1.37323 0
M  V30 11227 C 1073.77 2.25454 -1.61449 0
M  V30 11228 H 1076.72 0.960866 -1.26305 0
M  V30 11229 H 1076.74 3.66972 -1.00557 0
M  V30 11230 H 1076.25 2.84905 -2.63535 0
M  V30 11231 H 1074.35 3.71176 -0.325431 0
M  V30 11232 H 1074.46 4.29839 -2.11601 0
M  V30 11233 H 1072.83 2.32621 -1.03729 0
M  V30 11234 H 1073.61 2.12469 -2.69651 0
M  V30 11235 N 1076.06 0.894434 1.2976 0
M  V30 11236 C 1077.31 0.513673 1.95049 0
M  V30 11237 C 1077.62 -0.943744 1.71327 0
M  V30 11238 O 1078.82 -1.43179 2.30678 0
M  V30 11239 C 1077.28 0.867751 3.49282 0
M  V30 11240 C 1076.89 2.34358 3.81812 0
M  V30 11241 C 1078.63 0.556645 4.20835 0
M  V30 11242 C 1076.54 2.63879 5.29265 0
M  V30 11243 H 1075.47 0.188375 0.73009 0
M  V30 11244 H 1078.12 1.09071 1.47566 0
M  V30 11245 H 1076.5 0.2197 3.9539 0
M  V30 11246 H 1077.68 3.03674 3.46581 0
M  V30 11247 H 1075.99 2.62318 3.23386 0
M  V30 11248 H 1078.59 0.754123 5.29355 0
M  V30 11249 H 1078.93 -0.504526 4.13231 0
M  V30 11250 H 1079.46 1.1623 3.80441 0
M  V30 11251 H 1076.2 3.68774 5.41928 0
M  V30 11252 H 1075.72 1.99182 5.65762 0
M  V30 11253 H 1077.4 2.49871 5.96803 0
M  V30 11254 N 1077.53 -1.43282 0.656365 0
M  V30 11255 C 1078.47 -2.29087 -0.0720378 0
M  V30 11256 C 1079.48 -1.4268 -0.783982 0
M  V30 11257 O 1080.67 -1.66585 -0.641213 0
M  V30 11258 C 1077.77 -3.19676 -1.12519 0
M  V30 11259 C 1076.94 -4.34638 -0.490756 0
M  V30 11260 C 1076 -5.06079 -1.44121 0
M  V30 11261 O 1075.03 -5.6124 -0.948595 0
M  V30 11262 N 1076.23 -5.09872 -2.77509 0
M  V30 11263 H 1078.99 -2.92241 0.664456 0
M  V30 11264 H 1076.55 -1.54006 0.499383 0
M  V30 11265 H 1078.55 -3.64334 -1.76189 0
M  V30 11266 H 1077.12 -2.581 -1.76362 0
M  V30 11267 H 1076.34 -3.92857 0.3251 0
M  V30 11268 H 1077.62 -5.08777 -0.0480061 0
M  V30 11269 H 1077.02 -4.66433 -3.20088 0
M  V30 11270 H 1075.58 -5.58237 -3.36474 0
M  V30 11271 N 1079.01 -0.398486 -1.52479 0
M  V30 11272 C 1079.95 0.467426 -2.24383 0
M  V30 11273 C 1080.96 1.01908 -1.26959 0
M  V30 11274 O 1082.15 0.919843 -1.52974 0
M  V30 11275 C 1079.25 1.66146 -2.95379 0
M  V30 11276 C 1078.42 1.23557 -4.19586 0
M  V30 11277 C 1077.48 2.29532 -4.73499 0
M  V30 11278 O 1076.51 1.90561 -5.36354 0
M  V30 11279 N 1077.71 3.61564 -4.5415 0
M  V30 11280 H 1080.47 -0.148653 -2.99331 0
M  V30 11281 H 1078.03 -0.225313 -1.60325 0
M  V30 11282 H 1080.03 2.36585 -3.28344 0
M  V30 11283 H 1078.6 2.18369 -2.23682 0
M  V30 11284 H 1077.82 0.359715 -3.92555 0
M  V30 11285 H 1079.1 0.927812 -5.00269 0
M  V30 11286 H 1078.5 3.95983 -4.03998 0
M  V30 11287 H 1077.06 4.2801 -4.9158 0
M  V30 11288 N 1080.49 1.57075 -0.12858 0
M  V30 11289 C 1081.9 1.82468 0.39526 0
M  V30 11290 C 1082.25 1.0463 1.65973 0
M  V30 11291 O 1081.38 0.285835 2.14504 0
M  V30 11292 C 1081.97 3.30976 0.723889 0
M  V30 11293 C 1080.53 3.57016 1.19232 0
M  V30 11294 C 1079.68 2.76534 0.205907 0
M  V30 11295 H 1082.63 1.54711 -0.353571 0
M  V30 11296 H 1082.65 3.46127 1.58039 0
M  V30 11297 H 1082.16 3.87602 -0.196595 0
M  V30 11298 H 1080.26 3.05758 2.12938 0
M  V30 11299 H 1080.38 4.65558 1.13103 0
M  V30 11300 H 1078.74 2.45038 0.694872 0
M  V30 11301 H 1079.52 3.35923 -0.707842 0
M  V30 11302 N 1081.97 -0.145205 1.5693 0
M  V30 11303 C 1082.9 -1.20438 1.95006 0
M  V30 11304 C 1083.91 -1.39085 0.846114 0
M  V30 11305 O 1085.1 -1.38625 1.12452 0
M  V30 11306 C 1082.2 -2.56892 2.21043 0
M  V30 11307 C 1081.38 -2.59197 3.52329 0
M  V30 11308 C 1080.44 -3.77204 3.66884 0
M  V30 11309 O 1079.46 -3.61995 4.39259 0
M  V30 11310 N 1080.66 -4.9473 3.03682 0
M  V30 11311 H 1083.43 -0.880709 2.86467 0
M  V30 11312 H 1080.99 -0.334751 1.58401 0
M  V30 11313 H 1082.98 -3.34349 2.2802 0
M  V30 11314 H 1081.55 -2.81544 1.35838 0
M  V30 11315 H 1080.77 -1.67644 3.56776 0
M  V30 11316 H 1082.06 -2.57771 4.3867 0
M  V30 11317 H 1081.46 -5.09989 2.44801 0
M  V30 11318 H 1080.01 -5.69956 3.16218 0
M  V30 11319 N 1083.45 -1.52049 -0.414609 0
M  V30 11320 C 1084.86 -1.40729 -0.752822 0
M  V30 11321 C 1085.06 -0.507468 -1.95005 0
M  V30 11322 O 1084.12 0.0288189 -2.52484 0
M  V30 11323 C 1085.43 -2.83163 -1.01189 0
M  V30 11324 C 1086.98 -2.92469 -1.11494 0
M  V30 11325 C 1087.46 -4.35859 -1.4068 0
M  V30 11326 N 1088.95 -4.39069 -1.47557 0
M  V30 11327 C 1089.68 -5.47072 -1.71756 0
M  V30 11328 N 1089.18 -6.65201 -1.93595 0
M  V30 11329 N 1090.97 -5.3458 -1.73726 0
M  V30 11330 H 1083.12 -2.09089 0.373549 0
M  V30 11331 H 1085.38 -0.942188 0.104814 0
M  V30 11332 H 1085.09 -3.51104 -0.204609 0
M  V30 11333 H 1084.96 -3.23874 -1.93353 0
M  V30 11334 H 1087.35 -2.24711 -1.91282 0
M  V30 11335 H 1087.43 -2.55222 -0.171794 0
M  V30 11336 H 1087.08 -5.04174 -0.614119 0
M  V30 11337 H 1087.01 -4.70637 -2.36238 0
M  V30 11338 H 1089.5 -3.53913 -1.32491 0
M  V30 11339 H 1089.81 -7.43297 -2.11495 0
M  V30 11340 H 1088.16 -6.68276 -1.90871 0
M  V30 11341 H 1091.35 -4.41271 -1.56198 0
M  V30 11342 H 1091.52 -6.18826 -1.92246 0
M  V30 11343 N 1084.93 0.6715 -1.42579 0
M  V30 11344 C 1085.86 1.79703 -1.42266 0
M  V30 11345 C 1086.87 1.59599 -0.321268 0
M  V30 11346 O 1088.06 1.68657 -0.584564 0
M  V30 11347 C 1085.16 3.16859 -1.20224 0
M  V30 11348 C 1084.33 3.63783 -2.42859 0
M  V30 11349 C 1083.39 4.79683 -2.16312 0
M  V30 11350 O 1082.42 4.90058 -2.89537 0
M  V30 11351 N 1083.62 5.68622 -1.16831 0
M  V30 11352 H 1086.38 1.80455 -2.39282 0
M  V30 11353 H 1083.95 0.854708 -1.375 0
M  V30 11354 H 1085.94 3.92054 -1.00376 0
M  V30 11355 H 1084.51 3.10987 -0.317188 0
M  V30 11356 H 1083.73 2.7923 -2.78252 0
M  V30 11357 H 1085.02 3.91877 -3.24514 0
M  V30 11358 H 1084.41 5.62894 -0.562746 0
M  V30 11359 H 1082.97 6.43615 -1.0297 0
M  V30 11360 N 1086.4 1.28806 0.908124 0
M  V30 11361 C 1087.82 1.06634 1.18749 0
M  V30 11362 C 1088.02 -0.187729 2.00624 0
M  V30 11363 O 1087.08 -0.88784 2.36376 0
M  V30 11364 C 1088.39 2.31703 1.91661 0
M  V30 11365 C 1089.94 2.36939 2.04521 0
M  V30 11366 C 1090.41 3.61789 2.80843 0
M  V30 11367 N 1091.9 3.62462 2.88402 0
M  V30 11368 C 1092.64 4.55746 3.47971 0
M  V30 11369 N 1092.13 5.59353 4.08774 0
M  V30 11370 N 1093.93 4.43331 3.45564 0
M  V30 11371 H 1086.08 2.09299 0.36164 0
M  V30 11372 H 1088.34 0.921479 0.222668 0
M  V30 11373 H 1088.05 3.23096 1.38931 0
M  V30 11374 H 1087.92 2.38556 2.92183 0
M  V30 11375 H 1090.31 1.4604 2.5643 0
M  V30 11376 H 1090.39 2.34077 1.03159 0
M  V30 11377 H 1090.03 4.53035 2.29612 0
M  V30 11378 H 1089.96 3.61907 3.82532 0
M  V30 11379 H 1092.45 2.87544 2.45208 0
M  V30 11380 H 1092.77 6.26668 4.52224 0
M  V30 11381 H 1091.11 5.63173 4.07261 0
M  V30 11382 H 1094.3 3.61587 2.97276 0
M  V30 11383 H 1094.48 5.16216 3.91695 0
M  V30 11384 N 1087.88 -1.11734 1.11145 0
M  V30 11385 C 1089.29 -1.64928 0.874959 0
M  V30 11386 C 1089.64 -1.87012 -0.593375 0
M  V30 11387 O 1088.77 -1.60206 -1.45475 0
M  V30 11388 C 1089.36 -2.99608 1.58178 0
M  V30 11389 C 1087.92 -3.49723 1.39179 0
M  V30 11390 C 1087.07 -2.24595 1.62642 0
M  V30 11391 H 1090.02 -0.954154 1.26813 0
M  V30 11392 H 1090.04 -3.66434 1.02501 0
M  V30 11393 H 1089.55 -2.83504 2.65042 0
M  V30 11394 H 1087.65 -3.70998 0.345111 0
M  V30 11395 H 1087.77 -4.28711 2.13878 0
M  V30 11396 H 1086.13 -2.32067 1.04961 0
M  V30 11397 H 1086.91 -2.11036 2.70774 0
M  V30 11398 N 1089.36 -0.901303 -1.29284 0
M  V30 11399 C 1090.78 -0.597634 -1.47988 0
M  V30 11400 C 1090.98 0.860434 -1.82205 0
M  V30 11401 O 1090.03 1.64049 -1.91948 0
M  V30 11402 C 1091.34 -1.52484 -2.5917 0
M  V30 11403 C 1092.89 -1.53021 -2.73045 0
M  V30 11404 C 1093.37 -2.44373 -3.87357 0
M  V30 11405 N 1094.86 -2.42429 -3.94693 0
M  V30 11406 C 1095.59 -3.09817 -4.82495 0
M  V30 11407 N 1095.09 -3.86489 -5.74976 0
M  V30 11408 N 1096.88 -2.98966 -4.76 0
M  V30 11409 H 1089.03 -1.84432 -1.0535 0
M  V30 11410 H 1091.3 -0.790367 -0.523473 0
M  V30 11411 H 1091 -2.56378 -2.40756 0
M  V30 11412 H 1090.88 -1.24657 -3.56006 0
M  V30 11413 H 1093.26 -0.498709 -2.90855 0
M  V30 11414 H 1093.34 -1.84886 -1.76779 0
M  V30 11415 H 1092.99 -3.47618 -3.70302 0
M  V30 11416 H 1092.92 -2.09817 -4.82995 0
M  V30 11417 H 1095.41 -1.86724 -3.28546 0
M  V30 11418 H 1095.72 -4.34959 -6.38773 0
M  V30 11419 H 1094.07 -3.90596 -5.74857 0
M  V30 11420 H 1097.26 -2.38581 -4.02737 0
M  V30 11421 H 1097.43 -3.51758 -5.44215 0
M  V30 11422 N 1090.84 1.42931 -0.663954 0
M  V30 11423 C 1091.75 2.3459 0.0214234 0
M  V30 11424 C 1092.76 1.54487 0.800611 0
M  V30 11425 O 1093.94 1.87098 0.74541 0
M  V30 11426 C 1091 3.32896 0.968556 0
M  V30 11427 C 1090.07 4.28901 0.185108 0
M  V30 11428 C 1089.3 5.2251 1.08713 0
M  V30 11429 O 1089.52 5.20795 2.32655 0
M  V30 11430 O 1088.46 5.99347 0.553758 0
M  V30 11431 H 1092.28 2.94714 -0.733308 0
M  V30 11432 H 1089.87 1.43252 -0.424159 0
M  V30 11433 H 1091.75 3.93318 1.51257 0
M  V30 11434 H 1090.42 2.75261 1.70333 0
M  V30 11435 H 1089.33 3.71926 -0.402752 0
M  V30 11436 H 1090.66 4.89547 -0.510319 0
M  V30 11437 N 1092.32 0.406567 1.52266 0
M  V30 11438 C 1093.54 -0.172101 2.06685 0
M  V30 11439 C 1093.97 -1.38306 1.27488 0
M  V30 11440 O 1093.32 -1.78726 0.304441 0
M  V30 11441 C 1093.37 -0.503463 3.57068 0
M  V30 11442 O 1092.48 -1.59485 3.80314 0
M  V30 11443 H 1091.82 -0.0153209 0.663823 0
M  V30 11444 H 1094.35 0.579025 1.96236 0
M  V30 11445 H 1094.36 -0.762833 4.00805 0
M  V30 11446 H 1093.03 0.381775 4.14144 0
M  V30 11447 H 1091.61 -1.32784 3.48458 0
M  V30 11448 N 1093.79 -1.57004 0.136909 0
M  V30 11449 C 1095.02 -1.99866 -0.523177 0
M  V30 11450 C 1095.43 -1.01584 -1.59616 0
M  V30 11451 O 1094.78 -0.00326426 -1.837 0
M  V30 11452 C 1094.84 -3.39157 -1.19217 0
M  V30 11453 C 1094.5 -4.56231 -0.265 0
M  V30 11454 C 1095.5 -5.17457 0.503412 0
M  V30 11455 C 1093.18 -5.02009 -0.170846 0
M  V30 11456 C 1095.18 -6.22863 1.35353 0
M  V30 11457 C 1092.86 -6.07273 0.682884 0
M  V30 11458 C 1093.86 -6.67568 1.44369 0
M  V30 11459 O 1093.55 -7.70795 2.28321 0
M  V30 11460 H 1093.28 -0.661005 -0.141593 0
M  V30 11461 H 1095.84 -2.04159 0.225445 0
M  V30 11462 H 1094.07 -3.31672 -1.98823 0
M  V30 11463 H 1095.76 -3.66191 -1.75096 0
M  V30 11464 H 1096.52 -4.82994 0.440648 0
M  V30 11465 H 1092.4 -4.54813 -0.752744 0
M  V30 11466 H 1095.94 -6.69855 1.94783 0
M  V30 11467 H 1091.84 -6.41163 0.746978 0
M  V30 11468 H 1092.61 -7.87971 2.21458 0
M  V30 11469 N 1095.27 0.136881 -1.57004 0
M  V30 11470 C 1096.2 1.19402 -1.95642 0
M  V30 11471 C 1097.22 1.38635 -0.853478 0
M  V30 11472 O 1098.41 1.38027 -1.13185 0
M  V30 11473 C 1095.51 2.55716 -2.22402 0
M  V30 11474 C 1094.68 2.57325 -3.53698 0
M  V30 11475 C 1093.74 3.75253 -3.68879 0
M  V30 11476 O 1092.76 3.5966 -4.41173 0
M  V30 11477 N 1093.97 4.93112 -3.06302 0
M  V30 11478 H 1096.73 0.865504 -2.8693 0
M  V30 11479 H 1094.29 0.326346 -1.58577 0
M  V30 11480 H 1096.28 3.33135 -2.29789 0
M  V30 11481 H 1094.85 2.80819 -1.37329 0
M  V30 11482 H 1094.07 1.65749 -3.5766 0
M  V30 11483 H 1095.36 2.55441 -4.40031 0
M  V30 11484 H 1094.76 5.08684 -2.47502 0
M  V30 11485 H 1093.32 5.68271 -3.19236 0
M  V30 11486 N 1096.75 1.52266 0.40654 0
M  V30 11487 C 1097.68 1.70519 1.51653 0
M  V30 11488 C 1098.66 0.552798 1.52915 0
M  V30 11489 O 1099.85 0.780468 1.71584 0
M  V30 11490 C 1096.97 1.74686 2.90176 0
M  V30 11491 C 1096.02 2.96255 3.06815 0
M  V30 11492 S 1096.85 4.56553 2.79856 0
M  V30 11493 C 1098.01 4.63511 4.20605 0
M  V30 11494 H 1098.24 2.64399 1.35942 0
M  V30 11495 H 1095.77 1.42337 0.598284 0
M  V30 11496 H 1097.73 1.77773 3.7001 0
M  V30 11497 H 1096.39 0.819291 3.03227 0
M  V30 11498 H 1095.59 2.95661 4.08167 0
M  V30 11499 H 1095.19 2.91069 2.34851 0
M  V30 11500 H 1097.48 4.41047 5.1428 0
M  V30 11501 H 1098.42 5.65456 4.26222 0
M  V30 11502 H 1098.83 3.92518 4.05697 0
M  V30 11503 N 1098.23 -0.663929 1.42933 0
M  V30 11504 C 1099.48 -1.42111 1.43697 0
M  V30 11505 C 1099.8 -1.94913 0.0583858 0
M  V30 11506 O 1099.07 -1.73757 -0.904719 0
M  V30 11507 H 1097.65 -0.527391 0.529026 0
M  V30 11508 H 1100.31 -0.783766 1.78446 0
M  V30 11509 H 1099.41 -2.26877 2.1432 0
M  V30 11510 N 1099.71 -1.29285 -0.901281 0
M  V30 11511 C 1100.66 -1.10907 -1.99208 0
M  V30 11512 C 1101.64 -0.0289641 -1.60874 0
M  V30 11513 O 1102.83 -0.2505 -1.75218 0
M  V30 11514 C 1099.96 -0.785997 -3.34181 0
M  V30 11515 C 1099.05 -1.90556 -3.78879 0
M  V30 11516 N 1099.44 -3.14888 -3.95827 0
M  V30 11517 C 1097.74 -1.79824 -4.08141 0
M  V30 11518 C 1098.44 -3.87919 -4.33467 0
M  V30 11519 N 1097.41 -3.15852 -4.42424 0
M  V30 11520 H 1101.22 -2.05227 -2.10379 0
M  V30 11521 H 1098.73 -1.20387 -1.08999 0
M  V30 11522 H 1100.73 -0.635381 -4.1203 0
M  V30 11523 H 1099.39 0.149302 -3.24357 0
M  V30 11524 H 1100.4 -3.5036 -3.81403 0
M  V30 11525 H 1097.07 -0.935548 -4.06883 0
M  V30 11526 H 1098.46 -4.94909 -4.54439 0
M  V30 11527 N 1101.18 1.11143 -1.11736 0
M  V30 11528 C 1102.12 2.16467 -0.722299 0
M  V30 11529 C 1103.1 1.60118 0.283006 0
M  V30 11530 O 1104.28 1.87651 0.178696 0
M  V30 11531 C 1101.41 3.38632 -0.0679339 0
M  V30 11532 C 1100.45 4.13654 -1.03888 0
M  V30 11533 S 1101.29 4.70187 -2.5629 0
M  V30 11534 C 1102.44 5.95671 -1.92163 0
M  V30 11535 H 1102.67 2.49644 -1.61447 0
M  V30 11536 H 1100.21 1.22816 -0.935708 0
M  V30 11537 H 1102.17 4.09378 0.303253 0
M  V30 11538 H 1100.83 3.03709 0.80124 0
M  V30 11539 H 1100.02 5.01221 -0.528522 0
M  V30 11540 H 1099.62 3.48683 -1.35265 0
M  V30 11541 H 1101.91 6.65681 -1.25994 0
M  V30 11542 H 1102.86 6.51357 -2.77741 0
M  V30 11543 H 1103.26 5.47359 -1.3805 0
M  V30 11544 N 1102.66 0.908147 1.28804 0
M  V30 11545 C 1104.08 0.605474 1.47669 0
M  V30 11546 C 1104.28 -0.850759 1.82659 0
M  V30 11547 O 1103.33 -1.63029 1.92816 0
M  V30 11548 C 1104.65 1.53856 2.58358 0
M  V30 11549 C 1106.2 1.54467 2.7223 0
M  V30 11550 C 1106.67 2.46424 3.86056 0
M  V30 11551 N 1108.16 2.44519 3.93402 0
M  V30 11552 C 1108.9 3.12371 4.80845 0
M  V30 11553 N 1108.39 3.89533 5.72919 0
M  V30 11554 N 1110.19 3.01486 4.74407 0
M  V30 11555 H 1102.34 1.84988 1.04371 0
M  V30 11556 H 1104.6 0.793132 0.519274 0
M  V30 11557 H 1104.31 2.57651 2.39393 0
M  V30 11558 H 1104.18 1.26543 3.5534 0
M  V30 11559 H 1106.57 0.514127 2.90587 0
M  V30 11560 H 1106.65 1.85821 1.75796 0
M  V30 11561 H 1106.29 3.49577 3.68454 0
M  V30 11562 H 1106.22 2.12375 4.81876 0
M  V30 11563 H 1108.71 1.88464 3.27551 0
M  V30 11564 H 1109.03 4.3834 6.36457 0
M  V30 11565 H 1107.37 3.93639 5.72777 0
M  V30 11566 H 1110.56 2.40713 4.01466 0
M  V30 11567 H 1110.73 3.5464 5.42342 0
M  V30 11568 N 1104.14 -1.42577 0.671525 0
M  V30 11569 C 1105.56 -1.5592 0.340769 0
M  V30 11570 C 1105.76 -1.65179 -1.15405 0
M  V30 11571 O 1104.81 -1.61691 -1.93939 0
M  V30 11572 C 1106.13 -2.81087 1.06821 0
M  V30 11573 C 1107.67 -2.94855 1.05022 0
M  V30 11574 C 1108.15 -4.22878 1.75892 0
M  V30 11575 N 1109.64 -4.29783 1.72744 0
M  V30 11576 C 1110.37 -5.2765 2.24439 0
M  V30 11577 N 1109.87 -6.31689 2.84501 0
M  V30 11578 N 1111.66 -5.19426 2.14832 0
M  V30 11579 H 1103.81 -1.34811 1.64133 0
M  V30 11580 H 1106.08 -0.648704 0.691294 0
M  V30 11581 H 1105.78 -2.80371 2.12332 0
M  V30 11582 H 1105.66 -3.71879 0.631356 0
M  V30 11583 H 1108.04 -2.951 0.00345633 0
M  V30 11584 H 1108.13 -2.05303 1.52592 0
M  V30 11585 H 1107.77 -4.23394 2.80535 0
M  V30 11586 H 1107.7 -5.1136 1.25773 0
M  V30 11587 H 1110.19 -3.55225 1.28932 0
M  V30 11588 H 1110.5 -7.02715 3.21575 0
M  V30 11589 H 1108.85 -6.3226 2.88569 0
M  V30 11590 H 1112.04 -4.37067 1.676 0
M  V30 11591 H 1112.21 -5.95535 2.55426 0
M  V30 11592 O 1105.66 -0.556764 -1.51599 0
M  V30 11593 H 1106.35 -0.0541661 -1.93624 0
M  V30 END ATOM
M  V30 BEGIN BOND
M  V30 END BOND
M  V30 END CTAB
M  END
$$$$
