drugbank_target|O14746 Telomerase reverse transcriptase (DB00495; DB05036; DB12747)
 OpenBabel12092120213D

  0  0  0     0  0            999 V3000
M  V30 BEGIN CTAB
M  V30 COUNTS 18128 18359 0 0 0
M  V30 BEGIN ATOM
M  V30 1 H -0.908 1.98254 -0.117106 0
M  V30 2 N 0 1.576 0 0
M  V30 3 C 0.933 2.03868 1.02534 0
M  V30 4 C 1.911 0.928543 1.3348 0
M  V30 5 O 3.095 1.19667 1.45644 0
M  V30 6 C 0.222 2.43627 2.35294 0
M  V30 7 C -0.732 3.65373 2.2001 0
M  V30 8 S 0.101 5.13292 1.52614 0
M  V30 9 C 1.257 5.56322 2.86805 0
M  V30 10 H 1.49 2.90518 0.631377 0
M  V30 11 H -0.977 1.52953 0.210867 0
M  V30 12 H 0.981 2.67203 3.11629 0
M  V30 13 H -0.358 1.57376 2.7183 0
M  V30 14 H -1.165 3.90944 3.18086 0
M  V30 15 H -1.563 3.418 1.51819 0
M  V30 16 H 0.729 5.58782 3.83104 0
M  V30 17 H 1.672 6.56266 2.65933 0
M  V30 18 H 2.08 4.83886 2.90714 0
M  V30 19 N 1.4781 -0.272755 1.55222 0
M  V30 20 C 2.8891 -0.84378 1.66545 0
M  V30 21 C 3.2401 -1.87035 0.592641 0
M  V30 22 O 2.3651 -2.14761 -0.265818 0
M  V30 23 C 2.9601 -1.53723 3.01918 0
M  V30 24 C 1.5191 -2.05628 3.15268 0
M  V30 25 C 0.6661 -0.898424 2.62343 0
M  V30 26 H 3.6171 -0.0490998 1.58624 0
M  V30 27 H 3.6381 -2.40421 2.94921 0
M  V30 28 H 3.1501 -0.78983 3.79978 0
M  V30 29 H 1.2511 -2.83329 2.41983 0
M  V30 30 H 1.3641 -2.27142 4.21833 0
M  V30 31 H -0.2719 -1.29186 2.19506 0
M  V30 32 H 0.5111 -0.164528 3.42906 0
M  V30 33 N 2.9562 -1.48159 -0.537278 0
M  V30 34 C 4.3722 -1.34118 -0.865129 0
M  V30 35 C 4.5722 -0.346678 -1.98495 0
M  V30 36 O 3.6282 0.234715 -2.51407 0
M  V30 37 C 4.9412 -2.73963 -1.23954 0
M  V30 38 C 6.4892 -2.82397 -1.34984 0
M  V30 39 C 6.9642 -4.22928 -1.75772 0
M  V30 40 N 8.4552 -4.25566 -1.82887 0
M  V30 41 C 9.1902 -5.31235 -2.15817 0
M  V30 42 N 8.6862 -6.47189 -2.47222 0
M  V30 43 N 10.4792 -5.18624 -2.16761 0
M  V30 44 H 2.6302 -2.1144 0.201715 0
M  V30 45 H 4.8932 -0.947598 0.0275949 0
M  V30 46 H 4.5992 -3.48264 -0.490381 0
M  V30 47 H 4.4732 -3.0702 -2.19132 0
M  V30 48 H 6.8602 -2.08356 -2.08978 0
M  V30 49 H 6.9412 -2.5297 -0.379448 0
M  V30 50 H 6.5852 -4.97482 -1.02341 0
M  V30 51 H 6.5152 -4.49794 -2.73848 0
M  V30 52 H 9.0062 -3.41924 -1.60924 0
M  V30 53 H 9.3192 -7.23564 -2.71433 0
M  V30 54 H 7.6642 -6.50476 -2.44757 0
M  V30 55 H 10.8552 -4.27056 -1.91679 0
M  V30 56 H 11.0282 -6.01078 -2.42093 0
M  V30 57 N 4.4343 0.785586 -1.36625 0
M  V30 58 C 5.3973 1.87999 -1.31107 0
M  V30 59 C 6.3973 1.59316 -0.217959 0
M  V30 60 O 7.5873 1.67656 -0.472977 0
M  V30 61 C 4.7193 3.24861 -1.03334 0
M  V30 62 H 5.9123 1.94307 -2.2844 0
M  V30 63 H 3.4653 0.983813 -1.21453 0
M  V30 64 H 4.2003 3.24235 -0.0647432 0
M  V30 65 H 3.9853 3.4707 -1.82441 0
M  V30 66 H 5.4753 4.04929 -1.02088 0
M  V30 67 N 5.9124 1.20967 1.01018 0
M  V30 68 C 7.3234 1.02319 1.56165 0
M  V30 69 C 7.6744 -0.418546 1.91684 0
M  V30 70 O 6.7994 -1.30096 1.72928 0
M  V30 71 C 7.3944 1.85109 2.8376 0
M  V30 72 C 5.9534 1.70809 3.35412 0
M  V30 73 C 5.1004 1.82643 2.08655 0
M  V30 74 H 8.0514 1.35065 0.833255 0
M  V30 75 H 8.0724 1.35827 3.55431 0
M  V30 76 H 7.5844 2.90035 2.57878 0
M  V30 77 H 5.6854 0.685464 3.66241 0
M  V30 78 H 5.7984 2.52467 4.07182 0
M  V30 79 H 4.1624 1.25896 2.21409 0
M  V30 80 H 4.9454 2.89066 1.85191 0
M  V30 81 N 7.3905 -1.2043 1.01659 0
M  V30 82 C 8.8065 -1.41852 0.731442 0
M  V30 83 C 9.0065 -1.89358 -0.688898 0
M  V30 84 O 8.0625 -2.06247 -1.45666 0
M  V30 85 C 9.3755 -2.44019 1.75714 0
M  V30 86 C 10.9235 -2.57785 1.77527 0
M  V30 87 C 11.3985 -3.63194 2.79023 0
M  V30 88 N 12.8895 -3.70678 2.77763 0
M  V30 89 C 13.6245 -4.51897 3.52954 0
M  V30 90 N 13.1205 -5.36921 4.37821 0
M  V30 91 N 14.9135 -4.4643 3.41551 0
M  V30 92 H 7.0645 -0.879093 1.93354 0
M  V30 93 H 9.3275 -0.448425 0.835236 0
M  V30 94 H 9.0335 -2.1611 2.77469 0
M  V30 95 H 8.9075 -3.43007 1.56927 0
M  V30 96 H 11.2945 -2.85023 0.764569 0
M  V30 97 H 11.3755 -1.58992 2.00387 0
M  V30 98 H 11.0195 -3.36699 3.80258 0
M  V30 99 H 10.9495 -4.61609 2.53425 0
M  V30 100 H 13.4405 -3.09944 2.16201 0
M  V30 101 H 13.7535 -5.95981 4.91962 0
M  V30 102 H 12.0985 -5.36424 4.41899 0
M  V30 103 H 15.2895 -3.79042 2.74672 0
M  V30 104 H 15.4625 -5.09491 4.00404 0
M  V30 105 N 8.8686 -0.792821 -1.36206 0
M  V30 106 C 10.1086 -0.372238 -2.00982 0
M  V30 107 C 10.4726 1.03749 -1.61555 0
M  V30 108 O 11.6736 1.55934 -2.18948 0
M  V30 109 C 9.9446 -0.534566 -3.5338 0
M  V30 110 S 11.5036 -0.202365 -4.38333 0
M  V30 111 H 8.3216 -0.142044 -0.696667 0
M  V30 112 H 10.9236 -1.03206 -1.66039 0
M  V30 113 H 9.6276 -1.5608 -3.79562 0
M  V30 114 H 9.1586 0.141065 -3.93147 0
M  V30 115 H 11.1736 0.994869 -4.86124 0
M  V30 116 N 10.3467 1.47872 -0.545128 0
M  V30 117 C 11.7627 1.5829 -0.204032 0
M  V30 118 C 11.9627 1.54529 1.29317 0
M  V30 119 O 11.0187 1.44232 2.07252 0
M  V30 120 C 12.3317 2.89304 -0.819987 0
M  V30 121 C 13.8797 3.02864 -0.790105 0
M  V30 122 C 14.3547 4.3656 -1.38491 0
M  V30 123 N 15.8457 4.43165 -1.34755 0
M  V30 124 C 16.5807 5.45153 -1.77753 0
M  V30 125 N 16.0767 6.54016 -2.2855 0
M  V30 126 N 17.8697 5.36125 -1.68897 0
M  V30 127 H 10.0207 1.4856 -1.51802 0
M  V30 128 H 12.2837 0.706305 -0.632327 0
M  V30 129 H 11.9897 2.97757 -1.87173 0
M  V30 130 H 11.8637 3.75957 -0.305915 0
M  V30 131 H 14.2507 2.94014 0.252913 0
M  V30 132 H 14.3317 2.17782 -1.34181 0
M  V30 133 H 13.9757 4.46164 -2.42693 0
M  V30 134 H 13.9057 5.20353 -0.808754 0
M  V30 135 H 16.3967 3.65083 -0.975855 0
M  V30 136 H 16.7097 7.27994 -2.59314 0
M  V30 137 H 15.0547 6.54938 -2.32553 0
M  V30 138 H 18.2457 4.49975 -1.28998 0
M  V30 139 H 18.4187 6.15472 -2.02726 0
M  V30 140 N 11.8248 0.280983 1.55075 0
M  V30 141 C 12.7878 -0.590896 2.21452 0
M  V30 142 C 13.7878 -1.07682 1.19421 0
M  V30 143 O 14.9778 -0.97605 1.44288 0
M  V30 144 C 12.1098 -1.81587 2.88511 0
M  V30 145 H 13.3028 -0.0112554 2.99898 0
M  V30 146 H 10.8558 0.0316438 1.56268 0
M  V30 147 H 11.5908 -2.43587 2.14093 0
M  V30 148 H 11.3758 -1.4753 3.63287 0
M  V30 149 H 12.8658 -2.43575 3.39206 0
M  V30 150 N 13.3029 -1.57598 0.00835791 0
M  V30 151 C 14.5489 -1.91211 -0.675732 0
M  V30 152 C 14.8819 -0.883139 -1.72958 0
M  V30 153 O 14.1569 0.097016 -1.94258 0
M  V30 154 C 14.4399 -3.35379 -1.31123 0
M  V30 155 C 14.2929 -4.48999 -0.268356 0
M  V30 156 C 15.6119 -3.7912 -2.23508 0
M  V30 157 H 12.7309 -0.695374 -0.244179 0
M  V30 158 H 15.3729 -1.89901 0.0613655 0
M  V30 159 H 13.5229 -3.36626 -1.93946 0
M  V30 160 H 15.1949 -4.59887 0.360844 0
M  V30 161 H 13.4379 -4.31873 0.408482 0
M  V30 162 H 14.1089 -5.46851 -0.752218 0
M  V30 163 H 16.5849 -3.79477 -1.70693 0
M  V30 164 H 15.4609 -4.80729 -2.64936 0
M  V30 165 H 15.7219 -3.13455 -3.11766 0
M  V30 166 N 14.781 0.264519 -1.55364 0
M  V30 167 C 16.197 0.61215 -1.47394 0
M  V30 168 C 16.397 1.89134 -0.695018 0
M  V30 169 O 15.453 2.51563 -0.217275 0
M  V30 170 C 16.766 0.731235 -2.91674 0
M  V30 171 C 18.314 0.82473 -3.01939 0
M  V30 172 C 18.789 0.975522 -4.4749 0
M  V30 173 N 20.28 1.04083 -4.51354 0
M  V30 174 C 21.015 1.17646 -5.61201 0
M  V30 175 N 20.511 1.27874 -6.80896 0
M  V30 176 N 22.304 1.20823 -5.48961 0
M  V30 177 H 14.455 -0.575456 -2.04456 0
M  V30 178 H 16.718 -0.196099 -0.927496 0
M  V30 179 H 16.424 -0.138392 -3.51428 0
M  V30 180 H 16.298 1.60883 -3.41169 0
M  V30 181 H 18.685 1.68482 -2.42276 0
M  V30 182 H 18.766 -0.0776479 -2.55682 0
M  V30 183 H 18.41 0.120058 -5.07758 0
M  V30 184 H 18.34 1.89268 -4.91412 0
M  V30 185 H 20.831 0.973846 -3.65136 0
M  V30 186 H 21.144 1.38081 -7.60364 0
M  V30 187 H 19.489 1.24863 -6.83692 0
M  V30 188 H 22.68 1.12469 -4.54388 0
M  V30 189 H 22.853 1.31049 -6.3461 0
M  V30 190 N 16.2591 1.48442 0.529413 0
M  V30 191 C 17.4841 1.60406 1.31471 0
M  V30 192 C 17.9091 0.264738 1.86228 0
M  V30 193 O 17.2671 -0.763668 1.64432 0
M  V30 194 C 17.3151 2.65419 2.44101 0
M  V30 195 O 16.4191 2.22618 3.47153 0
M  V30 196 H 15.7601 0.537863 0.389357 0
M  V30 197 H 18.2901 1.94432 0.636965 0
M  V30 198 H 18.3001 2.86709 2.90279 0
M  V30 199 H 16.9751 3.62652 2.03608 0
M  V30 200 H 15.5521 2.11543 3.0709 0
M  V30 201 N 17.7372 -0.778329 1.37039 0
M  V30 202 C 18.6672 -1.90546 1.34962 0
M  V30 203 C 19.6482 -1.68681 0.219274 0
M  V30 204 O 20.8332 -1.89634 0.418624 0
M  V30 205 C 17.9632 -3.27734 1.14925 0
M  V30 206 C 16.9172 -3.64147 2.24902 0
M  V30 207 C 16.2432 -4.99806 1.89996 0
M  V30 208 C 17.5432 -3.71579 3.67051 0
M  V30 209 H 19.2372 -1.92541 2.29277 0
M  V30 210 H 16.7832 -0.924948 1.10366 0
M  V30 211 H 18.7362 -4.06215 1.12104 0
M  V30 212 H 17.4602 -3.26154 0.170631 0
M  V30 213 H 16.1192 -2.8797 2.26868 0
M  V30 214 H 15.7672 -4.94759 0.906796 0
M  V30 215 H 15.4672 -5.25139 2.63634 0
M  V30 216 H 16.9912 -5.80694 1.88749 0
M  V30 217 H 18.4052 -4.40227 3.67251 0
M  V30 218 H 16.8022 -4.08405 4.39688 0
M  V30 219 H 17.8722 -2.72404 4.01154 0
M  V30 220 N 19.2153 -1.21501 -1.00376 0
M  V30 221 C 20.1453 -0.999478 -2.11028 0
M  V30 222 C 21.1263 0.0759671 -1.6993 0
M  V30 223 O 22.3113 -0.0841106 -1.94018 0
M  V30 224 C 19.4413 -0.564709 -3.42678 0
M  V30 225 C 18.3953 -1.58486 -3.97576 0
M  V30 226 C 17.7213 -1.00628 -5.25146 0
M  V30 227 C 19.0213 -2.97204 -4.29496 0
M  V30 228 H 20.7153 -1.92495 -2.29317 0
M  V30 229 H 18.2613 -0.92693 -1.102 0
M  V30 230 H 20.2143 -0.401091 -4.19487 0
M  V30 231 H 18.9383 0.396411 -3.24185 0
M  V30 232 H 17.5973 -1.73606 -3.22888 0
M  V30 233 H 17.2453 -0.0368439 -5.02987 0
M  V30 234 H 16.9453 -1.68771 -5.62841 0
M  V30 235 H 18.4693 -0.854015 -6.04598 0
M  V30 236 H 19.8833 -2.8552 -4.97143 0
M  V30 237 H 18.2803 -3.62372 -4.78338 0
M  V30 238 H 19.3503 -3.47956 -3.3772 0
M  V30 239 N 20.6934 1.19889 -1.02296 0
M  V30 240 C 22.1094 1.41462 -0.738954 0
M  V30 241 C 22.3094 1.89721 0.678846 0
M  V30 242 O 21.3654 2.07016 1.4457 0
M  V30 243 C 22.6784 2.43083 -1.77005 0
M  V30 244 C 24.2264 2.5684 -1.78892 0
M  V30 245 C 24.7014 3.61709 -2.80945 0
M  V30 246 N 26.1924 3.69199 -2.79725 0
M  V30 247 C 26.9274 4.50019 -3.55345 0
M  V30 248 N 26.4234 5.34592 -4.40662 0
M  V30 249 N 28.2164 4.44612 -3.43914 0
M  V30 250 H 20.3674 0.868827 -1.93817 0
M  V30 251 H 22.6304 0.44399 -0.837602 0
M  V30 252 H 22.3364 2.14636 -2.78612 0
M  V30 253 H 22.2104 3.4217 -1.58744 0
M  V30 254 H 24.5974 2.84614 -0.779674 0
M  V30 255 H 24.6784 1.57927 -2.01228 0
M  V30 256 H 24.3224 3.34678 -3.82038 0
M  V30 257 H 24.2524 4.60259 -2.5587 0
M  V30 258 H 26.7434 3.08794 -2.17842 0
M  V30 259 H 27.0564 5.93363 -4.95116 0
M  V30 260 H 25.4014 5.34073 -4.44737 0
M  V30 261 H 28.5924 3.7758 -2.76679 0
M  V30 262 H 28.7654 5.0736 -4.031 0
M  V30 263 N 22.1715 0.800033 1.35784 0
M  V30 264 C 23.3965 0.388511 2.03729 0
M  V30 265 C 23.8215 -0.990481 1.5991 0
M  V30 266 O 23.1795 -1.64013 0.772612 0
M  V30 267 C 23.2275 0.4726 3.5749 0
M  V30 268 O 22.3315 -0.51646 4.09153 0
M  V30 269 H 21.6725 0.163271 0.643614 0
M  V30 270 H 24.2025 1.0841 1.73518 0
M  V30 271 H 24.2125 0.34003 4.06581 0
M  V30 272 H 22.8875 1.47848 3.88734 0
M  V30 273 H 21.4645 -0.344673 3.71304 0
M  V30 274 N 23.6496 -1.47581 0.552962 0
M  V30 275 C 24.5996 -2.26961 -0.217423 0
M  V30 276 C 25.5836 -1.34099 -0.889168 0
M  V30 277 O 26.7756 -1.58483 -0.788176 0
M  V30 278 C 23.9046 -3.19756 -1.24944 0
M  V30 279 C 22.9906 -4.20097 -0.581327 0
M  V30 280 N 23.3816 -5.04614 0.346171 0
M  V30 281 C 21.6796 -4.38099 -0.835767 0
M  V30 282 C 22.3806 -5.77052 0.733854 0
M  V30 283 N 21.3566 -5.43526 0.0896567 0
M  V30 284 H 25.1586 -2.89688 0.495761 0
M  V30 285 H 22.6726 -1.58068 0.372597 0
M  V30 286 H 24.6696 -3.75305 -1.81527 0
M  V30 287 H 23.3296 -2.58585 -1.96376 0
M  V30 288 H 24.3406 -5.12869 0.720098 0
M  V30 289 H 21.0176 -3.88102 -1.53892 0
M  V30 290 H 22.4076 -6.5504 1.49574 0
M  V30 291 N 25.1277 -0.289203 -1.54924 0
M  V30 292 C 26.3577 0.325989 -2.04012 0
M  V30 293 C 26.7657 1.48961 -1.1665 0
M  V30 294 O 26.1087 1.82794 -0.1822 0
M  V30 295 C 26.1707 0.856112 -3.49158 0
M  V30 296 C 25.8347 -0.180697 -4.56643 0
M  V30 297 C 26.8317 -1.0051 -5.10092 0
M  V30 298 C 24.5167 -0.318998 -5.01286 0
M  V30 299 C 26.5107 -1.95385 -6.06715 0
M  V30 300 C 24.1977 -1.27121 -5.97732 0
M  V30 301 C 25.1957 -2.08713 -6.50329 0
M  V30 302 O 24.8837 -3.02322 -7.44887 0
M  V30 303 H 24.6157 0.0765276 -0.671654 0
M  V30 304 H 27.1697 -0.423254 -2.00992 0
M  V30 305 H 25.3997 1.65567 -3.49463 0
M  V30 306 H 27.0887 1.38591 -3.81507 0
M  V30 307 H 27.8547 -0.90906 -4.76404 0
M  V30 308 H 23.7337 0.306108 -4.59983 0
M  V30 309 H 27.2777 -2.59111 -6.47694 0
M  V30 310 H 23.1747 -1.36801 -6.30837 0
M  V30 311 H 23.9427 -2.97165 -7.6265 0
M  V30 312 N 26.6058 1.57591 -0.0167156 0
M  V30 313 C 28.0218 1.55946 0.339557 0
M  V30 314 C 28.2218 1.02109 1.73713 0
M  V30 315 O 27.2778 0.662303 2.43659 0
M  V30 316 C 28.5908 3.00037 0.199499 0
M  V30 317 C 30.1388 3.11805 0.273193 0
M  V30 318 C 30.6138 4.57713 0.162068 0
M  V30 319 N 32.1048 4.6268 0.219444 0
M  V30 320 C 32.8398 5.73185 0.157054 0
M  V30 321 N 32.3358 6.92786 0.0442936 0
M  V30 322 N 34.1288 5.61707 0.21014 0
M  V30 323 H 26.2798 1.90921 -0.930758 0
M  V30 324 H 28.5428 0.877674 -0.358319 0
M  V30 325 H 28.2488 3.4333 -0.76273 0
M  V30 326 H 28.1228 3.64387 0.974786 0
M  V30 327 H 30.5098 2.68433 1.22587 0
M  V30 328 H 30.5908 2.50201 -0.532256 0
M  V30 329 H 30.2348 5.01763 -0.78714 0
M  V30 330 H 30.1648 5.17283 0.986222 0
M  V30 331 H 32.6558 3.76649 0.307246 0
M  V30 332 H 32.9688 7.728 0.00304069 0
M  V30 333 H 31.3138 6.94999 0.00968457 0
M  V30 334 H 34.5048 4.6716 0.296546 0
M  V30 335 H 34.6778 6.47807 0.158054 0
M  V30 336 N 28.0839 -0.256276 1.55502 0
M  V30 337 C 28.9939 -1.33882 1.92647 0
M  V30 338 C 30.0099 -1.53159 0.825727 0
M  V30 339 O 31.1859 -1.66963 1.12629 0
M  V30 340 C 28.2509 -2.6751 2.20543 0
M  V30 341 C 27.3119 -2.56836 3.43997 0
M  V30 342 C 26.5449 -3.84092 3.70553 0
M  V30 343 O 26.7679 -4.85545 2.99336 0
M  V30 344 O 25.7019 -3.83288 4.64084 0
M  V30 345 H 29.5279 -1.05374 2.84833 0
M  V30 346 H 27.1129 -0.456237 1.42263 0
M  V30 347 H 28.9949 -3.46492 2.39835 0
M  V30 348 H 27.6699 -2.9577 1.31536 0
M  V30 349 H 26.5769 -1.76172 3.30021 0
M  V30 350 H 27.9099 -2.33523 4.33275 0
M  V30 351 N 29.562 -1.4872 -0.521534 0
M  V30 352 C 30.808 -1.574 -1.27879 0
M  V30 353 C 31.141 -0.250817 -1.92573 0
M  V30 354 O 30.416 0.743934 -1.79711 0
M  V30 355 C 30.699 -2.71843 -2.36164 0
M  V30 356 C 30.552 -4.13893 -1.76105 0
M  V30 357 C 31.871 -2.82008 -3.37875 0
M  V30 358 H 28.99 -0.572941 -0.463581 0
M  V30 359 H 31.632 -1.80927 -0.580119 0
M  V30 360 H 29.782 -2.51914 -2.95756 0
M  V30 361 H 31.454 -4.45284 -1.20499 0
M  V30 362 H 29.697 -4.20498 -1.06601 0
M  V30 363 H 30.368 -4.89804 -2.5455 0
M  V30 364 H 32.844 -3.00086 -2.88249 0
M  V30 365 H 31.72 -3.63796 -4.11028 0
M  V30 366 H 31.981 -1.90511 -3.98946 0
M  V30 367 N 31.0401 0.771051 -1.3745 0
M  V30 368 C 31.9701 1.89827 -1.3597 0
M  V30 369 C 32.9511 1.68562 -0.228216 0
M  V30 370 O 34.1361 1.8941 -0.428675 0
M  V30 371 C 31.2661 3.2712 -1.16662 0
M  V30 372 C 30.2201 3.6295 -2.2683 0
M  V30 373 C 29.5461 4.98791 -1.92644 0
M  V30 374 C 30.8461 3.69627 -3.69017 0
M  V30 375 H 32.5401 1.91323 -2.30295 0
M  V30 376 H 30.0861 0.919082 -1.10855 0
M  V30 377 H 32.0391 4.05615 -1.14256 0
M  V30 378 H 30.7631 3.26059 -0.187926 0
M  V30 379 H 29.4221 2.86763 -2.28392 0
M  V30 380 H 29.0701 4.94271 -0.933021 0
M  V30 381 H 28.7701 5.23733 -2.66416 0
M  V30 382 H 30.2941 5.79685 -1.91826 0
M  V30 383 H 31.7081 4.38273 -3.69581 0
M  V30 384 H 30.1051 4.06067 -4.41848 0
M  V30 385 H 31.1751 2.70273 -4.02592 0
M  V30 386 N 32.5182 1.22032 0.997298 0
M  V30 387 C 33.9292 1.0397 1.55071 0
M  V30 388 C 34.2802 -0.398192 1.92117 0
M  V30 389 O 33.4052 -1.28254 1.74298 0
M  V30 390 C 34.0002 1.88109 2.81781 0
M  V30 391 C 32.5592 1.74357 3.33581 0
M  V30 392 C 31.7062 1.84846 2.06706 0
M  V30 393 H 34.6572 1.35941 0.818883 0
M  V30 394 H 34.6782 1.39589 3.53971 0
M  V30 395 H 34.1902 2.92754 2.54787 0
M  V30 396 H 32.2912 0.72427 3.65493 0
M  V30 397 H 32.4042 2.56772 4.04481 0
M  V30 398 H 30.7682 1.28238 2.20062 0
M  V30 399 H 31.5512 2.91014 1.82114 0
M  V30 400 N 33.9963 -1.19345 1.0293 0
M  V30 401 C 34.9263 -2.2481 0.631105 0
M  V30 402 C 35.9073 -1.66245 -0.360104 0
M  V30 403 O 37.0923 -1.92677 -0.242726 0
M  V30 404 C 34.2223 -3.47295 -0.0184607 0
M  V30 405 C 33.1763 -4.18536 0.895073 0
M  V30 406 C 32.5023 -5.34586 0.110592 0
M  V30 407 C 33.8023 -4.73287 2.209 0
M  V30 408 H 35.4963 -2.58372 1.51275 0
M  V30 409 H 33.0423 -1.24194 0.728818 0
M  V30 410 H 34.9953 -4.20268 -0.308675 0
M  V30 411 H 33.7193 -3.12933 -0.934907 0
M  V30 412 H 32.3783 -3.47446 1.16949 0
M  V30 413 H 32.0263 -4.96469 -0.807902 0
M  V30 414 H 31.7263 -5.83183 0.719087 0
M  V30 415 H 33.2503 -6.10355 -0.172871 0
M  V30 416 H 34.6643 -5.38013 1.98028 0
M  V30 417 H 33.0613 -5.32373 2.76946 0
M  V30 418 H 34.1313 -3.91331 2.86336 0
M  V30 419 N 35.4744 -0.807222 -1.35358 0
M  V30 420 C 36.4374 -0.223665 -2.28106 0
M  V30 421 C 37.4374 0.589354 -1.4961 0
M  V30 422 O 38.6274 0.407745 -1.69361 0
M  V30 423 C 35.7594 0.688149 -3.33882 0
M  V30 424 H 36.9524 -1.04169 -2.81227 0
M  V30 425 H 34.5054 -0.577921 -1.45223 0
M  V30 426 H 35.2404 1.52984 -2.85948 0
M  V30 427 H 35.0254 0.10687 -3.91954 0
M  V30 428 H 36.5154 1.09075 -4.03104 0
M  V30 429 N 36.9525 1.47285 -0.560781 0
M  V30 430 C 38.1805 2.06855 -0.0430262 0
M  V30 431 C 38.5955 1.41291 1.25229 0
M  V30 432 O 37.9525 0.510648 1.7521 0
M  V30 433 C 38.0035 3.61178 0.152518 0
M  V30 434 O 37.7245 4.24285 -1.0915 0
M  V30 435 C 39.2255 4.37624 0.707145 0
M  V30 436 H 36.4455 0.669319 -0.0474652 0
M  V30 437 H 38.9895 1.89237 -0.77521 0
M  V30 438 H 37.1445 3.78298 0.834843 0
M  V30 439 H 37.5585 5.16868 -0.891482 0
M  V30 440 H 39.0325 5.46271 0.793244 0
M  V30 441 H 39.5095 4.04152 1.71923 0
M  V30 442 H 40.1155 4.25257 0.0604027 0
M  V30 443 N 38.4306 0.297415 1.54768 0
M  V30 444 C 39.6776 -0.312913 2.00068 0
M  V30 445 C 40.0056 -1.54171 1.18582 0
M  V30 446 O 39.2606 -1.94108 0.249133 0
M  V30 447 C 39.5596 -0.717561 3.50123 0
M  V30 448 C 39.2256 0.409095 4.4904 0
M  V30 449 C 37.8876 0.718399 4.75807 0
M  V30 450 C 40.2396 1.16717 5.07963 0
M  V30 451 C 37.5676 1.78896 5.5876 0
M  V30 452 C 39.9196 2.22762 5.92081 0
M  V30 453 C 38.5836 2.54303 6.1716 0
M  V30 454 H 37.8536 -0.114503 0.7321 0
M  V30 455 H 40.5006 0.415767 1.86932 0
M  V30 456 H 38.8056 -1.52627 3.60849 0
M  V30 457 H 40.5026 -1.20091 3.82595 0
M  V30 458 H 37.0926 0.157918 4.28309 0
M  V30 459 H 41.2766 0.941466 4.87289 0
M  V30 460 H 36.5326 2.0381 5.7643 0
M  V30 461 H 40.7066 2.81962 6.36765 0
M  V30 462 H 38.3336 3.3739 6.81229 0
M  V30 463 N 39.9087 -1.5758 0.0250728 0
M  V30 464 C 41.1547 -1.91917 -0.655413 0
M  V30 465 C 41.4877 -0.901433 -1.72011 0
M  V30 466 O 40.7627 0.0764069 -1.9435 0
M  V30 467 C 41.0457 -3.36751 -1.27558 0
M  V30 468 C 40.8987 -4.49258 -0.220719 0
M  V30 469 C 42.2177 -3.81469 -2.19475 0
M  V30 470 H 39.3367 -0.697925 -0.23679 0
M  V30 471 H 41.9787 -1.89825 0.0815036 0
M  V30 472 H 40.1287 -3.38664 -1.90365 0
M  V30 473 H 41.8007 -4.59478 0.409601 0
M  V30 474 H 40.0437 -4.31415 0.454264 0
M  V30 475 H 40.7147 -5.47618 -0.694175 0
M  V30 476 H 43.1907 -3.81266 -1.66659 0
M  V30 477 H 42.0667 -4.83512 -2.59822 0
M  V30 478 H 42.3277 -3.16744 -3.08424 0
M  V30 479 N 41.3868 0.248026 -1.55636 0
M  V30 480 C 42.8028 0.596483 -1.48035 0
M  V30 481 C 43.0028 1.88386 -0.715039 0
M  V30 482 O 42.0588 2.51319 -0.243944 0
M  V30 483 C 43.3718 0.700258 -2.92433 0
M  V30 484 C 44.9198 0.792659 -3.02797 0
M  V30 485 C 45.3948 0.928005 -4.485 0
M  V30 486 N 46.8858 0.992903 -4.52433 0
M  V30 487 C 47.6208 1.11687 -5.62418 0
M  V30 488 N 47.1168 1.20645 -6.82214 0
M  V30 489 N 48.9098 1.14994 -5.50212 0
M  V30 490 H 41.0608 -0.597109 -2.03834 0
M  V30 491 H 43.3238 -0.205925 -0.925364 0
M  V30 492 H 43.0298 -0.175658 -3.51261 0
M  V30 493 H 42.9038 1.57255 -3.42857 0
M  V30 494 H 45.2908 1.65903 -2.4405 0
M  V30 495 H 45.3718 -0.104762 -2.55585 0
M  V30 496 H 45.0158 0.0661971 -5.07857 0
M  V30 497 H 44.9458 1.84045 -4.93391 0
M  V30 498 H 47.4368 0.935064 -3.66149 0
M  V30 499 H 47.7498 1.30008 -7.61786 0
M  V30 500 H 46.0948 1.17605 -6.84977 0
M  V30 501 H 49.2858 1.07643 -4.55555 0
M  V30 502 H 49.4588 1.24311 -6.35965 0
M  V30 503 N 42.8649 1.48995 0.513639 0
M  V30 504 C 44.2809 1.35478 0.843682 0
M  V30 505 C 44.4809 0.378213 1.97919 0
M  V30 506 O 43.5369 -0.194689 2.51748 0
M  V30 507 C 44.8499 2.75901 1.1958 0
M  V30 508 C 46.3979 2.84509 1.30474 0
M  V30 509 C 46.8729 4.25671 1.69021 0
M  V30 510 N 48.3639 4.28422 1.76094 0
M  V30 511 C 49.0989 5.34601 2.07338 0
M  V30 512 N 48.5949 6.5104 2.36894 0
M  V30 513 N 50.3879 5.22007 2.08483 0
M  V30 514 H 42.5389 2.11092 -0.235328 0
M  V30 515 H 44.8019 0.947039 -0.0426669 0
M  V30 516 H 44.5079 3.49001 0.434913 0
M  V30 517 H 44.3819 3.10467 2.1422 0
M  V30 518 H 46.7689 2.11655 2.05637 0
M  V30 519 H 46.8499 2.53542 0.339155 0
M  V30 520 H 46.4939 4.99048 0.944135 0
M  V30 521 H 46.4239 4.54094 2.66658 0
M  V30 522 H 48.9149 3.44441 1.55464 0
M  V30 523 H 49.2279 7.2779 2.59887 0
M  V30 524 H 47.5729 6.54287 2.34378 0
M  V30 525 H 50.7639 4.30051 1.84861 0
M  V30 526 H 50.9369 6.04854 2.325 0
M  V30 527 N 44.343 -0.763751 1.37857 0
M  V30 528 C 45.273 -1.89103 1.36975 0
M  V30 529 C 46.254 -1.68439 0.237152 0
M  V30 530 O 47.439 -1.8918 0.438713 0
M  V30 531 C 44.569 -3.26496 1.18395 0
M  V30 532 C 43.523 -3.61741 2.28751 0
M  V30 533 C 42.849 -4.97762 1.95286 0
M  V30 534 C 44.149 -3.67665 3.70972 0
M  V30 535 H 45.843 -1.90099 2.31307 0
M  V30 536 H 43.389 -0.91319 1.11341 0
M  V30 537 H 45.342 -4.05003 1.16406 0
M  V30 538 H 44.066 -3.25955 0.205215 0
M  V30 539 H 42.725 -2.85547 2.29909 0
M  V30 540 H 42.373 -4.93769 0.959221 0
M  V30 541 H 42.073 -5.22313 2.69189 0
M  V30 542 H 43.597 -5.7866 1.94898 0
M  V30 543 H 45.011 -4.36307 3.719 0
M  V30 544 H 43.408 -4.03718 4.43995 0
M  V30 545 H 44.478 -2.68134 4.0402 0
M  V30 546 N 45.8211 -1.22559 -0.990812 0
M  V30 547 C 47.0691 -1.04933 -1.72724 0
M  V30 548 C 47.3901 0.416158 -1.90508 0
M  V30 549 O 46.6601 1.29918 -1.46622 0
M  V30 550 H 45.2401 -0.385296 -0.639965 0
M  V30 551 H 47.9021 -1.54105 -1.19322 0
M  V30 552 H 46.9981 -1.52886 -2.72089 0
M  V30 553 N 47.2992 1.18797 -1.03562 0
M  V30 554 C 48.7102 1.70322 -0.764676 0
M  V30 555 C 49.0612 1.82708 0.714996 0
M  V30 556 O 48.1862 1.50299 1.55689 0
M  V30 557 C 48.7812 3.09356 -1.38145 0
M  V30 558 C 47.3402 3.58114 -1.15895 0
M  V30 559 C 46.4872 2.34798 -1.4753 0
M  V30 560 H 49.4382 1.03543 -1.20268 0
M  V30 561 H 49.4592 3.72378 -0.781977 0
M  V30 562 H 48.9712 3.00309 -2.45837 0
M  V30 563 H 47.0722 3.72464 -0.100544 0
M  V30 564 H 47.1852 4.4184 -1.8524 0
M  V30 565 H 45.5492 2.38464 -0.894829 0
M  V30 566 H 46.3322 2.28375 -2.56319 0
M  V30 567 N 48.7773 0.814389 1.34928 0
M  V30 568 C 49.7093 0.187834 2.28429 0
M  V30 569 C 50.7223 -0.617374 1.5064 0
M  V30 570 O 51.9113 -0.448454 1.72775 0
M  V30 571 C 49.0113 -0.755962 3.30361 0
M  V30 572 C 48.1843 0.00456686 4.374 0
M  V30 573 C 47.2433 -0.858876 5.19143 0
M  V30 574 O 46.2693 -0.306968 5.68372 0
M  V30 575 N 47.4713 -2.17988 5.38016 0
M  V30 576 H 50.2363 0.991105 2.82838 0
M  V30 577 H 47.7973 0.670561 1.4736 0
M  V30 578 H 49.7893 -1.338 3.81942 0
M  V30 579 H 48.3593 -1.46001 2.7641 0
M  V30 580 H 47.5793 0.767865 3.86649 0
M  V30 581 H 48.8673 0.528422 5.06049 0
M  V30 582 H 48.2653 -2.65212 4.99679 0
M  V30 583 H 46.8223 -2.71098 5.92747 0
M  V30 584 N 50.2554 -1.46986 0.568584 0
M  V30 585 C 51.5034 -2.02041 0.0487022 0
M  V30 586 C 51.8244 -1.44408 -1.31039 0
M  V30 587 O 51.0944 -0.623477 -1.85714 0
M  V30 588 H 49.6744 -0.746849 0.015014 0
M  V30 589 H 52.3364 -1.80257 0.741168 0
M  V30 590 H 51.4324 -3.12085 -0.0308961 0
M  V30 591 N 51.7335 -0.305618 -1.54608 0
M  V30 592 C 52.9795 0.295595 -2.01241 0
M  V30 593 C 53.3345 1.51171 -1.19018 0
M  V30 594 O 52.6275 1.89832 -0.259684 0
M  V30 595 C 52.8215 0.698983 -3.50498 0
M  V30 596 C 52.6505 -0.476491 -4.47168 0
M  V30 597 C 51.4205 -0.969963 -4.95903 0
M  V30 598 C 53.6185 -1.32294 -4.96994 0
M  V30 599 N 51.6005 -2.11172 -5.76437 0
M  V30 600 C 52.9715 -2.31212 -5.75275 0
M  V30 601 C 55.0265 -1.35278 -4.7917 0
M  V30 602 C 53.7295 -3.32896 -6.37631 0
M  V30 603 C 55.7555 -2.35823 -5.42348 0
M  V30 604 C 55.1175 -3.33469 -6.20466 0
M  V30 605 H 51.2165 0.0724992 -0.778632 0
M  V30 606 H 53.8005 -0.436583 -1.89742 0
M  V30 607 H 51.9715 1.40032 -3.62278 0
M  V30 608 H 53.7035 1.28013 -3.8392 0
M  V30 609 H 50.4585 -0.544178 -4.70463 0
M  V30 610 H 50.8825 -2.68714 -6.21387 0
M  V30 611 H 55.5245 -0.61157 -4.18354 0
M  V30 612 H 53.2425 -4.07933 -6.97579 0
M  V30 613 H 56.8285 -2.38911 -5.30484 0
M  V30 614 H 55.7085 -4.09996 -6.68485 0
M  V30 615 N 53.2116 1.57565 -0.0334293 0
M  V30 616 C 54.6276 1.56297 0.322997 0
M  V30 617 C 54.8276 1.03945 1.7262 0
M  V30 618 O 53.8836 0.688109 2.42943 0
M  V30 619 C 55.1966 3.00232 0.167664 0
M  V30 620 C 56.7446 3.12078 0.240107 0
M  V30 621 C 57.2196 4.57859 0.113513 0
M  V30 622 N 58.7106 4.62887 0.170359 0
M  V30 623 C 59.4456 5.73319 0.0962517 0
M  V30 624 N 58.9416 6.92794 -0.0291881 0
M  V30 625 N 60.7346 5.61898 0.150551 0
M  V30 626 H 52.8856 1.89923 -0.950956 0
M  V30 627 H 55.1486 0.873824 -0.367608 0
M  V30 628 H 54.8546 3.42501 -0.799102 0
M  V30 629 H 54.7286 3.654 0.936083 0
M  V30 630 H 57.1156 2.69718 1.19733 0
M  V30 631 H 57.1966 2.49623 -0.558763 0
M  V30 632 H 56.8406 5.009 -0.840314 0
M  V30 633 H 56.7706 5.18299 0.931302 0
M  V30 634 H 59.2616 3.76954 0.26728 0
M  V30 635 H 59.5746 7.7276 -0.0789252 0
M  V30 636 H 57.9196 6.94971 -0.0640299 0
M  V30 637 H 61.1106 4.67448 0.246981 0
M  V30 638 H 61.2836 6.47938 0.0893365 0
M  V30 639 N 54.6897 -0.239769 1.55765 0
M  V30 640 C 55.6197 -1.30052 1.9393 0
M  V30 641 C 56.6007 -1.49839 0.805132 0
M  V30 642 O 57.7857 -1.62328 1.06599 0
M  V30 643 C 54.9157 -2.65391 2.2402 0
M  V30 644 C 53.8697 -2.60289 3.39755 0
M  V30 645 C 53.1957 -3.99489 3.55405 0
M  V30 646 C 54.4957 -2.16654 4.75246 0
M  V30 647 H 56.1897 -0.983573 2.82783 0
M  V30 648 H 53.7357 -0.471701 1.36055 0
M  V30 649 H 55.6887 -3.3974 2.49308 0
M  V30 650 H 54.4127 -2.98736 1.32 0
M  V30 651 H 53.0717 -1.88398 3.14487 0
M  V30 652 H 52.7197 -4.30112 2.60793 0
M  V30 653 H 52.4197 -3.96962 4.33238 0
M  V30 654 H 53.9437 -4.75528 3.83022 0
M  V30 655 H 55.3577 -2.80737 4.99859 0
M  V30 656 H 53.7547 -2.25223 5.56232 0
M  V30 657 H 54.8247 -1.11835 4.71827 0
M  V30 658 N 56.1678 -1.49265 -0.50573 0
M  V30 659 C 57.4138 -1.58748 -1.26202 0
M  V30 660 C 57.7468 -0.271227 -1.92297 0
M  V30 661 O 57.0218 0.724831 -1.80489 0
M  V30 662 C 57.3048 -2.74332 -2.33268 0
M  V30 663 C 57.1578 -4.15737 -1.71705 0
M  V30 664 C 58.4768 -2.85576 -3.34865 0
M  V30 665 H 55.5958 -0.577826 -0.457478 0
M  V30 666 H 58.2378 -1.81532 -0.560897 0
M  V30 667 H 56.3878 -2.55036 -2.93068 0
M  V30 668 H 58.0598 -4.46537 -1.15769 0
M  V30 669 H 56.3028 -4.21605 -1.02135 0
M  V30 670 H 56.9738 -4.92477 -2.49341 0
M  V30 671 H 59.4498 -3.03127 -2.8505 0
M  V30 672 H 58.3258 -3.68135 -4.07146 0
M  V30 673 H 58.5868 -1.94732 -3.96903 0
M  V30 674 N 57.6459 0.756429 -1.3826 0
M  V30 675 C 58.5779 1.87971 -1.31147 0
M  V30 676 C 59.5909 1.61248 -0.224239 0
M  V30 677 O 60.7799 1.71881 -0.481581 0
M  V30 678 C 57.8799 3.23545 -1.00857 0
M  V30 679 C 57.0529 3.77794 -2.20432 0
M  V30 680 C 56.1119 4.91877 -1.86931 0
M  V30 681 O 55.1379 5.06659 -2.59395 0
M  V30 682 N 56.3399 5.74643 -0.822568 0
M  V30 683 H 59.1049 1.94585 -2.2794 0
M  V30 684 H 56.6659 0.936234 -1.32084 0
M  V30 685 H 58.6579 3.97403 -0.765021 0
M  V30 686 H 57.2279 3.12335 -0.128687 0
M  V30 687 H 56.4479 2.95534 -2.6087 0
M  V30 688 H 57.7359 4.10771 -3.00241 0
M  V30 689 H 57.1339 5.65266 -0.221575 0
M  V30 690 H 55.6909 6.48661 -0.638899 0
M  V30 691 N 59.124 1.23083 0.984299 0
M  V30 692 C 60.54 0.992637 1.24975 0
M  V30 693 C 60.74 -0.308618 1.99123 0
M  V30 694 O 59.796 -1.02905 2.30579 0
M  V30 695 C 61.109 2.19698 2.05312 0
M  V30 696 C 62.657 2.24147 2.18465 0
M  V30 697 C 63.132 3.44157 3.02192 0
M  V30 698 N 64.623 3.44372 3.09777 0
M  V30 699 C 65.358 4.33886 3.74874 0
M  V30 700 N 64.854 5.3363 4.41827 0
M  V30 701 N 66.647 4.21639 3.71721 0
M  V30 702 H 58.798 2.06731 0.487453 0
M  V30 703 H 61.061 0.906339 0.277944 0
M  V30 704 H 60.767 3.1411 1.58201 0
M  V30 705 H 60.641 2.20465 3.06064 0
M  V30 706 H 63.028 1.30277 2.64786 0
M  V30 707 H 63.109 2.27415 1.17115 0
M  V30 708 H 62.753 4.38332 2.56568 0
M  V30 709 H 62.683 3.3813 4.03702 0
M  V30 710 H 65.174 2.72201 2.62135 0
M  V30 711 H 65.487 5.98196 4.89266 0
M  V30 712 H 63.832 5.37534 4.40548 0
M  V30 713 H 67.023 3.42962 3.18582 0
M  V30 714 H 67.196 4.91604 4.22173 0
M  V30 715 N 60.6021 -1.18246 1.0419 0
M  V30 716 C 61.8501 -1.87886 0.744543 0
M  V30 717 C 62.1711 -1.8082 -0.730006 0
M  V30 718 O 61.4411 -1.22736 -1.52685 0
M  V30 719 H 60.0211 -0.695556 0.272417 0
M  V30 720 H 62.6831 -1.43494 1.31892 0
M  V30 721 H 61.7791 -2.9389 1.05049 0
M  V30 722 N 62.0802 -0.821533 -1.34494 0
M  V30 723 C 63.3572 -0.33159 -1.92769 0
M  V30 724 C 63.7372 1.18088 -1.74981 0
M  V30 725 O 63.0852 1.98733 -1.12772 0
M  V30 726 C 63.2952 -0.759398 -3.40638 0
M  V30 727 C 64.6432 -0.757433 -4.1779 0
M  V30 728 O 65.6672 -0.70189 -3.49216 0
M  V30 729 O 64.5262 -0.829361 -5.4017 0
M  V30 730 H 61.6202 -0.0902502 -0.822061 0
M  V30 731 H 64.1662 -0.906231 -1.43477 0
M  V30 732 H 62.9382 -1.8012 -3.47379 0
M  V30 733 H 62.5612 -0.160378 -3.97276 0
M  V30 734 N 63.5583 1.46682 -0.576371 0
M  V30 735 C 64.9693 1.86112 -0.148091 0
M  V30 736 C 65.3203 1.48073 1.2872 0
M  V30 737 O 64.4453 0.892656 1.97131 0
M  V30 738 C 65.0403 3.37786 -0.261982 0
M  V30 739 C 63.5993 3.76235 0.111384 0
M  V30 740 C 62.7463 2.70713 -0.60083 0
M  V30 741 H 65.6973 1.37927 -0.78497 0
M  V30 742 H 65.7183 3.77007 0.514364 0
M  V30 743 H 65.2303 3.6544 -1.30671 0
M  V30 744 H 63.3313 3.54198 1.15649 0
M  V30 745 H 63.4443 4.78391 -0.26052 0
M  V30 746 H 61.8083 2.54666 -0.0417783 0
M  V30 747 H 62.5913 3.01208 -1.64708 0
M  V30 748 N 65.0364 0.313813 1.54444 0
M  V30 749 C 65.9994 -0.54379 2.22656 0
M  V30 750 C 66.9994 -1.05124 1.21678 0
M  V30 751 O 68.1894 -0.945225 1.46325 0
M  V30 752 C 65.3214 -1.75427 2.92298 0
M  V30 753 H 66.5144 0.0523599 2.99854 0
M  V30 754 H 64.0674 0.0647834 1.56166 0
M  V30 755 H 64.8024 -2.38991 2.19211 0
M  V30 756 H 64.5874 -1.39791 3.66334 0
M  V30 757 H 66.0774 -2.36325 3.44297 0
M  V30 758 N 66.5145 -1.57545 0.0417849 0
M  V30 759 C 67.4775 -2.09885 -0.92093 0
M  V30 760 C 68.4775 -1.01648 -1.24596 0
M  V30 761 O 69.6675 -1.27759 -1.1842 0
M  V30 762 C 66.7995 -2.57527 -2.23367 0
M  V30 763 H 67.9925 -2.96236 -0.467382 0
M  V30 764 H 65.5455 -1.5493 -0.206467 0
M  V30 765 H 66.2805 -1.74542 -2.73323 0
M  V30 766 H 66.0655 -3.36613 -2.01083 0
M  V30 767 H 67.5555 -2.98201 -2.92346 0
M  V30 768 N 67.9926 0.231505 -1.5589 0
M  V30 769 C 69.2396 0.957352 -1.78441 0
M  V30 770 C 69.5676 1.84726 -0.60882 0
M  V30 771 O 68.8226 1.91416 0.40725 0
M  V30 772 C 69.1216 1.83577 -3.0665 0
M  V30 773 C 68.7876 1.09993 -4.37278 0
M  V30 774 C 67.4496 0.896629 -4.72773 0
M  V30 775 C 69.8016 0.579558 -5.17968 0
M  V30 776 C 67.1296 0.160896 -5.86479 0
M  V30 777 C 69.4816 -0.142783 -6.32439 0
M  V30 778 C 68.1456 -0.357427 -6.66542 0
M  V30 779 H 67.4156 0.35032 -0.65296 0
M  V30 780 H 70.0626 0.226259 -1.90159 0
M  V30 781 H 68.3676 2.63441 -2.90011 0
M  V30 782 H 70.0646 2.39934 -3.21298 0
M  V30 783 H 66.6546 1.26835 -4.09403 0
M  V30 784 H 70.8386 0.724125 -4.90989 0
M  V30 785 H 66.0946 -0.0157293 -6.11398 0
M  V30 786 H 70.2686 -0.553559 -6.94196 0
M  V30 787 H 67.8956 -0.929466 -7.54497 0
M  V30 788 N 69.4707 1.49531 0.497807 0
M  V30 789 C 70.8867 1.36365 0.829266 0
M  V30 790 C 71.0867 0.399184 1.97506 0
M  V30 791 O 70.1427 -0.167977 2.51941 0
M  V30 792 C 71.4557 2.77153 1.16647 0
M  V30 793 C 73.0037 2.85877 1.27449 0
M  V30 794 C 73.4787 4.2744 1.64497 0
M  V30 795 N 74.9697 4.30265 1.7154 0
M  V30 796 C 75.7047 5.3677 2.01656 0
M  V30 797 N 75.2007 6.53516 2.29976 0
M  V30 798 N 76.9937 5.24189 2.02934 0
M  V30 799 H 69.1447 2.10831 -0.257703 0
M  V30 800 H 71.4077 0.946534 -0.0527091 0
M  V30 801 H 71.1137 3.49442 0.397872 0
M  V30 802 H 70.9877 3.12722 2.10915 0
M  V30 803 H 73.3747 2.13824 2.0338 0
M  V30 804 H 73.4557 2.53887 0.312244 0
M  V30 805 H 73.0997 5.00021 0.891151 0
M  V30 806 H 73.0297 4.56896 2.61827 0
M  V30 807 H 75.5207 3.4607 1.51802 0
M  V30 808 H 75.8337 7.30506 2.52153 0
M  V30 809 H 74.1787 6.56737 2.27425 0
M  V30 810 H 77.3697 4.31988 1.80289 0
M  V30 811 H 77.5427 6.07286 2.26071 0
M  V30 812 N 70.9488 -0.749086 1.3866 0
M  V30 813 C 71.9118 -1.84457 1.36045 0
M  V30 814 C 72.9118 -1.58682 0.260122 0
M  V30 815 O 74.1018 -1.66343 0.517261 0
M  V30 816 C 71.2338 -3.22008 1.11911 0
M  V30 817 H 72.4268 -1.88182 2.33512 0
M  V30 818 H 69.9798 -0.951266 1.24019 0
M  V30 819 H 70.7148 -3.2395 0.150686 0
M  V30 820 H 70.4998 -3.42111 1.91579 0
M  V30 821 H 71.9898 -4.0208 1.12788 0
M  V30 822 N 72.4269 -1.23603 -0.977757 0
M  V30 823 C 73.3569 -1.04401 -2.0886 0
M  V30 824 C 74.3379 0.0399052 -1.70053 0
M  V30 825 O 75.5229 -0.125246 -1.93796 0
M  V30 826 C 72.6529 -0.637269 -3.41403 0
M  V30 827 C 71.6069 -1.66883 -3.94124 0
M  V30 828 C 70.9329 -1.11745 -5.22893 0
M  V30 829 C 72.2329 -3.06247 -4.23096 0
M  V30 830 H 73.9269 -1.97316 -2.25182 0
M  V30 831 H 71.4729 -0.950096 -1.08209 0
M  V30 832 H 73.4259 -0.48998 -4.18542 0
M  V30 833 H 72.1499 0.327557 -3.24953 0
M  V30 834 H 70.8089 -1.80416 -3.19133 0
M  V30 835 H 70.4569 -0.143527 -5.02795 0
M  V30 836 H 70.1569 -1.80672 -5.59134 0
M  V30 837 H 71.6809 -0.982067 -6.02651 0
M  V30 838 H 73.0949 -2.96001 -4.90975 0
M  V30 839 H 71.4919 -3.72436 -4.70544 0
M  V30 840 H 72.5619 -3.55041 -3.30263 0
M  V30 841 N 73.905 1.17692 -1.04816 0
M  V30 842 C 75.151 1.88137 -0.75711 0
M  V30 843 C 75.484 1.80604 0.713841 0
M  V30 844 O 74.759 1.21146 1.52164 0
M  V30 845 C 75.042 3.38318 -1.2334 0
M  V30 846 C 74.895 3.54622 -2.76701 0
M  V30 847 C 76.214 4.32214 -0.829415 0
M  V30 848 H 73.333 0.683163 -0.27651 0
M  V30 849 H 75.975 1.38424 -1.30149 0
M  V30 850 H 74.125 3.80787 -0.770286 0
M  V30 851 H 75.797 3.21194 -3.31107 0
M  V30 852 H 74.04 2.97026 -3.16161 0
M  V30 853 H 74.711 4.60028 -3.05088 0
M  V30 854 H 77.187 3.97565 -1.22805 0
M  V30 855 H 76.063 5.35838 -1.19033 0
M  V30 856 H 76.324 4.41294 0.266891 0
M  V30 857 N 75.3831 0.828654 1.34056 0
M  V30 858 C 76.3461 0.259927 2.27721 0
M  V30 859 C 77.3461 -0.565478 1.50529 0
M  V30 860 O 78.5361 -0.38075 1.69988 0
M  V30 861 C 75.6681 -0.634944 3.34935 0
M  V30 862 H 76.8611 1.0863 2.79534 0
M  V30 863 H 74.4141 0.600951 1.44285 0
M  V30 864 H 75.1491 -1.48416 2.88346 0
M  V30 865 H 74.9341 -0.0444999 3.92075 0
M  V30 866 H 76.4241 -1.02648 4.04788 0
M  V30 867 N 76.8612 -1.46375 0.584142 0
M  V30 868 C 77.7932 -2.28443 -0.186119 0
M  V30 869 C 78.8062 -1.38596 -0.854115 0
M  V30 870 O 79.9952 -1.63183 -0.723438 0
M  V30 871 C 77.0952 -3.13671 -1.28311 0
M  V30 872 C 76.2682 -4.31652 -0.706758 0
M  V30 873 C 75.3272 -4.98267 -1.69163 0
M  V30 874 O 74.3532 -5.55815 -1.22712 0
M  V30 875 N 75.5552 -4.95408 -3.02575 0
M  V30 876 H 78.3202 -2.9519 0.517986 0
M  V30 877 H 75.8812 -1.56303 0.42201 0
M  V30 878 H 77.8732 -3.55101 -1.94128 0
M  V30 879 H 76.4432 -2.48989 -1.89005 0
M  V30 880 H 75.6632 -3.93989 0.128908 0
M  V30 881 H 76.9512 -5.07906 -0.301506 0
M  V30 882 H 76.3492 -4.49902 -3.42936 0
M  V30 883 H 74.9062 -5.40774 -3.63877 0
M  V30 884 N 78.3393 -0.321999 -1.54275 0
M  V30 885 C 79.5793 0.281657 -2.0245 0
M  V30 886 C 79.9433 1.49468 -1.20513 0
M  V30 887 O 81.1443 2.17109 -1.58484 0
M  V30 888 C 79.4153 0.609014 -3.52173 0
M  V30 889 S 80.9743 1.19255 -4.22284 0
M  V30 890 H 77.7923 0.0852825 -0.705867 0
M  V30 891 H 80.3943 -0.454758 -1.90137 0
M  V30 892 H 79.0983 -0.281982 -4.0943 0
M  V30 893 H 78.6293 1.37567 -3.68563 0
M  V30 894 H 80.6443 2.47944 -4.29812 0
M  V30 895 N 79.8174 1.5752 -0.0501392 0
M  V30 896 C 80.7474 2.14502 0.922566 0
M  V30 897 C 81.7284 1.06642 1.3252 0
M  V30 898 O 82.9134 1.34577 1.4001 0
M  V30 899 C 80.0434 2.68916 2.19776 0
M  V30 900 C 78.9974 3.8175 1.93523 0
M  V30 901 C 78.3234 4.22677 3.27487 0
M  V30 902 C 79.6234 5.06932 1.25765 0
M  V30 903 H 81.3174 2.9603 0.447952 0
M  V30 904 H 78.8634 1.42401 0.214024 0
M  V30 905 H 80.8164 3.07419 2.88222 0
M  V30 906 H 79.5404 1.84578 2.69441 0
M  V30 907 H 78.1994 3.43718 1.27489 0
M  V30 908 H 77.8474 3.35291 3.74952 0
M  V30 909 H 77.5474 4.98725 3.1072 0
M  V30 910 H 79.0714 4.63779 3.97166 0
M  V30 911 H 80.4854 5.42888 1.84244 0
M  V30 912 H 78.8824 5.88116 1.19328 0
M  V30 913 H 79.9524 4.84337 0.233536 0
M  V30 914 N 81.2955 -0.223234 1.56011 0
M  V30 915 C 82.5415 -0.949279 1.79211 0
M  V30 916 C 82.8745 -1.84054 0.619494 0
M  V30 917 O 82.1495 -1.90726 -0.381317 0
M  V30 918 C 82.4325 -1.78965 3.12479 0
M  V30 919 C 82.2855 -0.924997 4.40186 0
M  V30 920 C 83.6045 -2.76774 3.42175 0
M  V30 921 H 80.7235 -0.343676 0.651963 0
M  V30 922 H 83.3655 -0.218253 1.88742 0
M  V30 923 H 81.5155 -2.41291 3.04485 0
M  V30 924 H 83.1875 -0.318615 4.60198 0
M  V30 925 H 81.4305 -0.230344 4.33188 0
M  V30 926 H 82.1015 -1.54735 5.29869 0
M  V30 927 H 84.5775 -2.24584 3.50287 0
M  V30 928 H 83.4535 -3.32678 4.36597 0
M  V30 929 H 83.7145 -3.54429 2.64258 0
M  V30 930 N 82.7736 -1.49793 -0.48987 0
M  V30 931 C 84.0136 -1.61466 -1.25332 0
M  V30 932 C 84.3776 -0.299688 -1.89647 0
M  V30 933 O 85.5786 -0.291687 -2.67213 0
M  V30 934 C 83.8496 -2.74944 -2.28343 0
M  V30 935 S 85.4086 -3.06637 -3.13878 0
M  V30 936 H 82.2266 -0.569411 -0.425784 0
M  V30 937 H 84.8286 -1.875 -0.553541 0
M  V30 938 H 83.5326 -3.68994 -1.79643 0
M  V30 939 H 83.0636 -2.50938 -3.02975 0
M  V30 940 H 85.0786 -2.49015 -4.29192 0
M  V30 941 N 84.2517 0.741722 -1.39055 0
M  V30 942 C 85.4977 1.50336 -1.36113 0
M  V30 943 C 85.8307 1.94148 0.0450796 0
M  V30 944 O 85.1057 1.66301 1.00868 0
M  V30 945 C 85.3887 2.74773 -2.32749 0
M  V30 946 C 85.2417 2.37023 -3.82283 0
M  V30 947 C 86.5607 3.76846 -2.27322 0
M  V30 948 H 83.6797 0.545351 -0.495743 0
M  V30 949 H 86.3217 0.848624 -1.69995 0
M  V30 950 H 84.4717 3.30639 -2.03986 0
M  V30 951 H 86.1437 1.8684 -4.21768 0
M  V30 952 H 84.3867 1.69334 -3.99385 0
M  V30 953 H 85.0577 3.26104 -4.45376 0
M  V30 954 H 87.5337 3.30548 -2.5274 0
M  V30 955 H 86.4097 4.6159 -2.97028 0
M  V30 956 H 86.6707 4.23286 -1.27599 0
M  V30 957 N 85.7298 1.2412 0.971189 0
M  V30 958 C 87.1408 1.07236 1.52831 0
M  V30 959 C 87.4918 -0.357352 1.92918 0
M  V30 960 O 86.6168 -1.24528 1.76979 0
M  V30 961 C 87.2118 1.94043 2.77728 0
M  V30 962 C 85.7708 1.81394 3.29808 0
M  V30 963 C 84.9178 1.89189 2.02738 0
M  V30 964 H 87.8688 1.37648 0.789864 0
M  V30 965 H 87.8898 1.47066 3.5093 0
M  V30 966 H 87.4018 2.98093 2.4852 0
M  V30 967 H 85.5028 0.801634 3.63874 0
M  V30 968 H 85.6158 2.65294 3.98944 0
M  V30 969 H 83.9798 1.32877 2.17292 0
M  V30 970 H 84.7628 2.94812 1.759 0
M  V30 971 N 87.2079 -1.17134 1.05439 0
M  V30 972 C 88.4539 -1.87979 0.776872 0
M  V30 973 C 88.8089 -1.7965 -0.688751 0
M  V30 974 O 88.1019 -1.19535 -1.4974 0
M  V30 975 C 88.2959 -3.36833 1.19491 0
M  V30 976 C 88.1249 -3.59653 2.69963 0
M  V30 977 C 86.8949 -3.76234 3.37307 0
M  V30 978 C 89.0929 -3.59091 3.68182 0
M  V30 979 N 87.0749 -3.86922 4.76618 0
M  V30 980 C 88.4459 -3.75659 4.93235 0
M  V30 981 C 90.5009 -3.42255 3.61616 0
M  V30 982 C 89.2039 -3.77133 6.12506 0
M  V30 983 C 91.2299 -3.45018 4.8033 0
M  V30 984 C 90.5919 -3.62096 6.04207 0
M  V30 985 H 86.6909 -0.705876 0.336546 0
M  V30 986 H 89.2749 -1.40602 1.34682 0
M  V30 987 H 87.4459 -3.82873 0.652884 0
M  V30 988 H 89.1779 -3.95305 0.866966 0
M  V30 989 H 85.9329 -3.76193 2.87708 0
M  V30 990 H 86.3569 -3.96055 5.49062 0
M  V30 991 H 90.9989 -3.27986 2.66805 0
M  V30 992 H 88.7169 -3.90186 7.07659 0
M  V30 993 H 92.3029 -3.33246 4.76905 0
M  V30 994 H 91.1829 -3.64142 6.94529 0
M  V30 995 N 88.686 -0.835752 -1.33615 0
M  V30 996 C 89.963 -0.352017 -1.92406 0
M  V30 997 C 90.343 1.16225 -1.76224 0
M  V30 998 O 89.691 1.97526 -1.14873 0
M  V30 999 C 89.901 -0.795485 -3.39813 0
M  V30 1000 C 91.249 -0.801703 -4.16963 0
M  V30 1001 O 92.273 -0.738889 -3.48452 0
M  V30 1002 O 91.132 -0.886607 -5.3926 0
M  V30 1003 H 88.226 -0.0989641 -0.821057 0
M  V30 1004 H 90.772 -0.921397 -1.42507 0
M  V30 1005 H 89.544 -1.83795 -3.45449 0
M  V30 1006 H 89.167 -0.202505 -3.97084 0
M  V30 1007 N 90.1641 1.46063 -0.591896 0
M  V30 1008 C 91.1271 2.28854 0.125973 0
M  V30 1009 C 92.1271 1.38903 0.810107 0
M  V30 1010 O 93.3171 1.61186 0.66066 0
M  V30 1011 C 90.4491 3.19526 1.1881 0
M  V30 1012 H 91.6421 2.93802 -0.601717 0
M  V30 1013 H 89.1951 1.52325 -0.350254 0
M  V30 1014 H 89.9301 2.59345 1.94707 0
M  V30 1015 H 89.7151 3.85766 0.701936 0
M  V30 1016 H 91.2051 3.81817 1.69132 0
M  V30 1017 N 91.6422 0.330177 1.54103 0
M  V30 1018 C 93.0582 -0.0222371 1.59585 0
M  V30 1019 C 93.2582 -1.49902 1.34654 0
M  V30 1020 O 92.3142 -2.25592 1.13421 0
M  V30 1021 C 93.6272 0.401932 2.98002 0
M  V30 1022 C 95.1752 0.353145 3.11001 0
M  V30 1023 C 95.6502 0.752576 4.51775 0
M  V30 1024 N 97.1412 0.706239 4.57784 0
M  V30 1025 C 97.8762 0.987417 5.64834 0
M  V30 1026 N 97.3722 1.33607 6.79795 0
M  V30 1027 N 99.1652 0.91254 5.54643 0
M  V30 1028 H 91.3162 1.29228 1.68564 0
M  V30 1029 H 93.5792 0.525906 0.78875 0
M  V30 1030 H 93.2852 1.4311 3.21267 0
M  V30 1031 H 93.1592 -0.229699 3.765 0
M  V30 1032 H 95.5462 -0.666822 2.87467 0
M  V30 1033 H 95.6272 1.0198 2.34593 0
M  V30 1034 H 95.2712 1.77049 4.76042 0
M  V30 1035 H 95.2012 0.0635409 5.26562 0
M  V30 1036 H 97.6922 0.44889 3.75224 0
M  V30 1037 H 98.0052 1.53582 7.57385 0
M  V30 1038 H 96.3502 1.37439 6.81275 0
M  V30 1039 H 99.5412 0.639601 4.6371 0
M  V30 1040 H 99.7142 1.13503 6.37982 0
M  V30 1041 N 93.1203 -1.57491 0.0584922 0
M  V30 1042 C 94.5313 -1.80526 -0.476138 0
M  V30 1043 C 94.8823 -0.971334 -1.70469 0
M  V30 1044 O 94.0073 -0.190012 -2.15564 0
M  V30 1045 C 94.6023 -3.27424 -0.870587 0
M  V30 1046 C 93.1613 -3.51351 -1.35015 0
M  V30 1047 C 92.3083 -2.75343 -0.32887 0
M  V30 1048 H 95.2593 -1.56133 0.284312 0
M  V30 1049 H 95.2803 -3.38745 -1.73299 0
M  V30 1050 H 94.7923 -3.88093 0.0237627 0
M  V30 1051 H 92.8933 -2.95971 -2.26345 0
M  V30 1052 H 93.0063 -4.60059 -1.33726 0
M  V30 1053 H 91.3703 -2.417 -0.803321 0
M  V30 1054 H 92.1533 -3.38743 0.557521 0
M  V30 1055 N 94.5984 0.214957 -1.56127 0
M  V30 1056 C 96.0094 0.781386 -1.69562 0
M  V30 1057 C 96.3604 1.84707 -0.66165 0
M  V30 1058 O 95.4854 2.156 0.185927 0
M  V30 1059 C 96.0804 1.42411 -3.07416 0
M  V30 1060 C 94.6394 1.93786 -3.22683 0
M  V30 1061 C 93.7864 0.800438 -2.65496 0
M  V30 1062 H 96.7374 -0.00980633 -1.58697 0
M  V30 1063 H 96.7584 2.29309 -3.0364 0
M  V30 1064 H 96.2704 0.64826 -3.82648 0
M  V30 1065 H 94.3714 2.74152 -2.52332 0
M  V30 1066 H 94.4844 2.1133 -4.29973 0
M  V30 1067 H 92.8484 1.2095 -2.2415 0
M  V30 1068 H 93.6314 0.0371471 -3.4328 0
M  V30 1069 N 96.0765 1.50051 0.48192 0
M  V30 1070 C 97.4875 1.5348 1.06305 0
M  V30 1071 C 97.8385 0.331997 1.93371 0
M  V30 1072 O 96.9635 -0.556256 2.09129 0
M  V30 1073 C 97.5585 2.7813 1.93466 0
M  V30 1074 C 96.1175 2.84275 2.46707 0
M  V30 1075 C 95.2645 2.47637 1.24785 0
M  V30 1076 H 98.2155 1.56472 0.264995 0
M  V30 1077 H 98.2365 2.59372 2.78399 0
M  V30 1078 H 97.7485 3.65654 1.30072 0
M  V30 1079 H 95.8495 2.01077 3.13686 0
M  V30 1080 H 95.9625 3.8691 2.82555 0
M  V30 1081 H 94.3265 1.99835 1.57918 0
M  V30 1082 H 95.1095 3.37457 0.630694 0
M  V30 1083 N 97.5546 -0.734337 1.39446 0
M  V30 1084 C 98.5176 -1.83004 1.37994 0
M  V30 1085 C 99.5176 -1.58397 0.276938 0
M  V30 1086 O 100.708 -1.65785 0.534875 0
M  V30 1087 C 97.8396 -3.20802 1.1532 0
M  V30 1088 H 99.0326 -1.85694 2.35494 0
M  V30 1089 H 96.5856 -0.938059 1.25021 0
M  V30 1090 H 97.3206 -3.23772 0.185036 0
M  V30 1091 H 97.1056 -3.4006 1.95197 0
M  V30 1092 H 98.5956 -4.00862 1.17046 0
M  V30 1093 N 99.0327 -1.24633 -0.964593 0
M  V30 1094 C 99.9957 -1.0424 -2.04124 0
M  V30 1095 C 100.996 0.00137563 -1.608 0
M  V30 1096 O 102.186 -0.239883 -1.7254 0
M  V30 1097 C 99.3177 -0.580588 -3.3592 0
M  V30 1098 H 100.511 -1.99803 -2.23649 0
M  V30 1099 H 98.0637 -1.06899 -1.14027 0
M  V30 1100 H 98.7987 0.3781 -3.22088 0
M  V30 1101 H 98.5837 -1.33398 -3.6871 0
M  V30 1102 H 100.074 -0.459034 -4.15069 0
M  V30 1103 N 100.511 1.16574 -1.06058 0
M  V30 1104 C 101.922 1.68662 -0.800632 0
M  V30 1105 C 102.273 1.84184 0.67608 0
M  V30 1106 O 101.398 1.53568 1.52466 0
M  V30 1107 C 101.993 3.06356 -1.44676 0
M  V30 1108 C 100.552 3.55575 -1.23465 0
M  V30 1109 C 99.6988 2.31616 -1.52477 0
M  V30 1110 H 102.65 1.00969 -1.22438 0
M  V30 1111 H 102.671 3.70636 -0.860788 0
M  V30 1112 H 102.183 2.95027 -2.52152 0
M  V30 1113 H 100.284 3.72167 -0.179527 0
M  V30 1114 H 100.397 4.37812 -1.94571 0
M  V30 1115 H 98.7608 2.36512 -0.945209 0
M  V30 1116 H 99.5438 2.22887 -2.61106 0
M  V30 1117 N 101.989 0.842826 1.3317 0
M  V30 1118 C 103.214 0.453129 2.02389 0
M  V30 1119 C 103.639 -0.939105 1.6298 0
M  V30 1120 O 102.997 -1.61472 0.8244 0
M  V30 1121 C 103.045 0.586094 3.55805 0
M  V30 1122 O 102.149 -0.386029 4.10589 0
M  V30 1123 H 101.49 0.183664 0.638094 0
M  V30 1124 H 104.02 1.13875 1.69981 0
M  V30 1125 H 104.03 0.469209 4.05293 0
M  V30 1126 H 102.705 1.6014 3.83833 0
M  V30 1127 H 101.282 -0.226371 3.72212 0
M  V30 1128 N 103.467 -1.45747 0.599634 0
M  V30 1129 C 104.714 -2.02292 0.0917284 0
M  V30 1130 C 105.042 -1.46906 -1.27472 0
M  V30 1131 O 104.297 -0.630652 -1.8526 0
M  V30 1132 C 104.596 -3.57399 -0.00602758 0
M  V30 1133 C 104.262 -4.31902 1.29503 0
M  V30 1134 C 102.924 -4.51974 1.65144 0
M  V30 1135 C 105.276 -4.74551 2.15525 0
M  V30 1136 C 102.604 -5.11949 2.86574 0
M  V30 1137 C 104.956 -5.35868 3.36196 0
M  V30 1138 C 103.62 -5.54165 3.72099 0
M  V30 1139 H 102.89 -0.740239 0.0335658 0
M  V30 1140 H 105.537 -1.7491 0.779661 0
M  V30 1141 H 103.842 -3.84014 -0.777183 0
M  V30 1142 H 105.539 -3.98846 -0.415038 0
M  V30 1143 H 102.129 -4.16588 1.00761 0
M  V30 1144 H 106.313 -4.58784 1.8929 0
M  V30 1145 H 101.569 -5.24305 3.14507 0
M  V30 1146 H 105.743 -5.6787 4.03109 0
M  V30 1147 H 103.37 -6.00406 4.6628 0
M  V30 1148 N 104.945 -0.338344 -1.53925 0
M  V30 1149 C 106.361 0.0137736 -1.59594 0
M  V30 1150 C 106.561 1.49186 -1.35447 0
M  V30 1151 O 105.617 2.24987 -1.14616 0
M  V30 1152 C 106.93 -0.41773 -2.97784 0
M  V30 1153 C 108.478 -0.369633 -3.1081 0
M  V30 1154 C 108.953 -0.776524 -4.51369 0
M  V30 1155 N 110.444 -0.730506 -4.57403 0
M  V30 1156 C 111.179 -1.01736 -5.64303 0
M  V30 1157 N 110.675 -1.3721 -6.79077 0
M  V30 1158 N 112.468 -0.941942 -5.54151 0
M  V30 1159 H 104.619 -1.3012 -1.67876 0
M  V30 1160 H 106.882 -0.530082 -0.78595 0
M  V30 1161 H 106.588 -1.44811 -3.20504 0
M  V30 1162 H 106.462 0.209729 -3.76616 0
M  V30 1163 H 108.849 0.651568 -2.87817 0
M  V30 1164 H 108.93 -1.03223 -2.34049 0
M  V30 1165 H 108.574 -1.79571 -4.75096 0
M  V30 1166 H 108.504 -0.0914649 -5.26521 0
M  V30 1167 H 110.995 -0.468783 -3.74981 0
M  V30 1168 H 111.308 -1.57597 -7.5656 0
M  V30 1169 H 109.653 -1.4105 -6.80536 0
M  V30 1170 H 112.844 -0.664184 -4.63364 0
M  V30 1171 H 113.017 -1.16884 -6.37371 0
M  V30 1172 N 106.423 1.57458 -0.0668435 0
M  V30 1173 C 107.355 2.09413 0.931601 0
M  V30 1174 C 108.368 1.02522 1.26464 0
M  V30 1175 O 109.557 1.30049 1.22269 0
M  V30 1176 C 106.657 2.53537 2.24882 0
M  V30 1177 C 105.83 3.83944 2.09537 0
M  V30 1178 C 104.889 4.14214 3.2452 0
M  V30 1179 O 103.915 4.83891 2.9973 0
M  V30 1180 N 105.117 3.67367 4.49469 0
M  V30 1181 H 107.882 2.95699 0.488048 0
M  V30 1182 H 105.443 1.61462 0.119009 0
M  V30 1183 H 107.435 2.70853 3.00701 0
M  V30 1184 H 106.005 1.72415 2.60753 0
M  V30 1185 H 105.225 3.76057 1.18215 0
M  V30 1186 H 106.513 4.69312 1.96529 0
M  V30 1187 H 105.911 3.11068 4.72497 0
M  V30 1188 H 104.468 3.89891 5.2233 0
M  V30 1189 N 107.901 -0.206675 1.56239 0
M  V30 1190 C 109.147 -0.930218 1.80208 0
M  V30 1191 C 109.48 -1.83387 0.638981 0
M  V30 1192 O 108.755 -1.91119 -0.361066 0
M  V30 1193 C 109.038 -1.75641 3.1436 0
M  V30 1194 C 108.891 -0.878257 4.41142 0
M  V30 1195 C 110.21 -2.73129 3.45092 0
M  V30 1196 H 107.329 -0.336742 0.655571 0
M  V30 1197 H 109.971 -0.198222 1.88963 0
M  V30 1198 H 108.121 -2.38048 3.07027 0
M  V30 1199 H 109.793 -0.269787 4.6051 0
M  V30 1200 H 108.036 -0.184385 4.33408 0
M  V30 1201 H 108.707 -1.49106 5.3148 0
M  V30 1202 H 111.183 -2.20856 3.52649 0
M  V30 1203 H 110.059 -3.28028 4.40101 0
M  V30 1204 H 110.32 -3.51606 2.68003 0
M  V30 1205 N 109.379 -1.50304 -0.473955 0
M  V30 1206 C 110.604 -1.65175 -1.25427 0
M  V30 1207 C 111.029 -0.333673 -1.85117 0
M  V30 1208 O 110.387 0.702114 -1.67153 0
M  V30 1209 C 110.435 -2.74295 -2.34082 0
M  V30 1210 O 109.539 -2.35349 -3.38651 0
M  V30 1211 H 108.88 -0.551944 -0.369126 0
M  V30 1212 H 111.41 -1.96662 -0.564364 0
M  V30 1213 H 111.42 -2.97285 -2.79438 0
M  V30 1214 H 110.095 -3.69959 -1.90008 0
M  V30 1215 H 108.672 -2.22794 -2.99027 0
M  V30 1216 N 110.857 0.726932 -1.39834 0
M  V30 1217 C 112.097 1.4992 -1.38936 0
M  V30 1218 C 112.461 1.91996 0.0126883 0
M  V30 1219 O 113.662 2.68399 0.146715 0
M  V30 1220 C 111.933 2.70013 -2.34153 0
M  V30 1221 S 113.492 3.59563 -2.51515 0
M  V30 1222 H 110.31 0.51271 -0.492595 0
M  V30 1223 H 112.912 0.85107 -1.76003 0
M  V30 1224 H 111.616 2.37254 -3.34871 0
M  V30 1225 H 111.147 3.39748 -1.98331 0
M  V30 1226 H 113.162 4.63973 -1.75909 0
M  V30 1227 N 112.336 1.25143 0.95797 0
M  V30 1228 C 113.266 1.07711 2.07173 0
M  V30 1229 C 114.247 -0.0128462 1.70095 0
M  V30 1230 O 115.432 0.156061 1.93572 0
M  V30 1231 C 112.562 0.691503 3.40346 0
M  V30 1232 C 111.516 1.73132 3.9142 0
M  V30 1233 C 110.842 1.20049 5.21049 0
M  V30 1234 C 112.142 3.1294 4.1817 0
M  V30 1235 H 113.836 2.00873 2.22014 0
M  V30 1236 H 111.382 0.967191 1.06684 0
M  V30 1237 H 113.335 0.556505 4.17709 0
M  V30 1238 H 112.059 -0.275819 3.25433 0
M  V30 1239 H 110.718 1.8547 3.16222 0
M  V30 1240 H 110.366 0.223499 5.02503 0
M  V30 1241 H 110.066 1.89545 5.56189 0
M  V30 1242 H 111.59 1.07782 6.01012 0
M  V30 1243 H 113.004 3.03775 4.86203 0
M  V30 1244 H 111.401 3.79875 4.64559 0
M  V30 1245 H 112.471 3.6025 3.24573 0
M  V30 1246 N 113.814 -1.1601 1.06675 0
M  V30 1247 C 114.761 -2.20525 0.680967 0
M  V30 1248 C 115.731 -1.62904 -0.324283 0
M  V30 1249 O 116.916 -1.89615 -0.212294 0
M  V30 1250 C 114.056 -3.45013 0.0776551 0
M  V30 1251 C 113.169 -4.16863 1.13355 0
M  V30 1252 C 112.304 -5.2888 0.49597 0
M  V30 1253 C 111.343 -5.92537 1.53513 0
M  V30 1254 N 110.48 -6.96038 0.920631 0
M  V30 1255 H 115.32 -2.52876 1.57663 0
M  V30 1256 H 112.857 -1.24199 0.788223 0
M  V30 1257 H 114.815 -4.16193 -0.289704 0
M  V30 1258 H 113.445 -3.132 -0.781393 0
M  V30 1259 H 112.497 -3.44248 1.61857 0
M  V30 1260 H 113.809 -4.60294 1.92174 0
M  V30 1261 H 112.963 -6.06653 0.0758604 0
M  V30 1262 H 111.702 -4.86622 -0.324062 0
M  V30 1263 H 110.707 -5.13482 1.9651 0
M  V30 1264 H 111.932 -6.36873 2.35733 0
M  V30 1265 H 109.878 -6.55888 0.12138 0
M  V30 1266 H 109.795 -7.3786 1.64616 0
M  V30 1267 H 111.063 -7.77725 0.525795 0
M  V30 1268 N 115.292 -0.849877 -1.32721 0
M  V30 1269 C 116.202 -0.293791 -2.32753 0
M  V30 1270 C 117.218 0.585906 -1.63839 0
M  V30 1271 O 118.394 0.487413 -1.95413 0
M  V30 1272 C 115.459 0.512752 -3.42887 0
M  V30 1273 C 114.52 -0.39252 -4.27502 0
M  V30 1274 C 113.753 0.375625 -5.32377 0
M  V30 1275 O 113.976 1.60613 -5.4732 0
M  V30 1276 O 112.91 -0.256094 -6.01355 0
M  V30 1277 H 116.736 -1.12242 -2.82197 0
M  V30 1278 H 114.321 -0.612685 -1.36259 0
M  V30 1279 H 116.203 0.970704 -4.10067 0
M  V30 1280 H 114.878 1.31826 -2.95641 0
M  V30 1281 H 113.785 -0.898547 -3.63149 0
M  V30 1282 H 115.118 -1.16309 -4.7826 0
M  V30 1283 N 116.77 1.45427 -0.607355 0
M  V30 1284 C 117.7 2.3329 0.0989352 0
M  V30 1285 C 118.681 1.46816 0.859007 0
M  V30 1286 O 119.866 1.75588 0.829604 0
M  V30 1287 C 116.996 3.29518 1.09705 0
M  V30 1288 C 115.95 4.25626 0.450206 0
M  V30 1289 C 115.276 5.11542 1.55655 0
M  V30 1290 C 116.576 5.18505 -0.628455 0
M  V30 1291 H 118.27 2.92595 -0.634716 0
M  V30 1292 H 115.816 1.40696 -0.306681 0
M  V30 1293 H 117.769 3.89855 1.59971 0
M  V30 1294 H 116.493 2.68372 1.86129 0
M  V30 1295 H 115.152 3.66586 -0.0315886 0
M  V30 1296 H 114.8 4.46765 2.31107 0
M  V30 1297 H 114.5 5.76647 1.12925 0
M  V30 1298 H 116.024 5.74748 2.06148 0
M  V30 1299 H 117.438 5.72916 -0.209877 0
M  V30 1300 H 115.835 5.92085 -0.977489 0
M  V30 1301 H 116.905 4.60948 -1.50514 0
M  V30 1302 N 118.248 0.346503 1.53744 0
M  V30 1303 C 119.494 -0.249473 2.0126 0
M  V30 1304 C 119.827 -1.49965 1.23386 0
M  V30 1305 O 119.102 -1.91811 0.32229 0
M  V30 1306 C 119.385 -0.560643 3.55709 0
M  V30 1307 C 119.238 0.701836 4.44291 0
M  V30 1308 C 120.557 -1.36905 4.18264 0
M  V30 1309 H 117.676 -0.0891987 0.731582 0
M  V30 1310 H 120.318 0.467624 1.84156 0
M  V30 1311 H 118.468 -1.17156 3.70414 0
M  V30 1312 H 120.14 1.33974 4.41417 0
M  V30 1313 H 118.383 1.32612 4.13033 0
M  V30 1314 H 119.054 0.43933 5.50249 0
M  V30 1315 H 121.53 -0.852448 4.07275 0
M  V30 1316 H 120.406 -1.55553 5.26398 0
M  V30 1317 H 120.667 -2.37203 3.73078 0
M  V30 1318 N 119.726 -1.57421 0.075193 0
M  V30 1319 C 120.689 -2.11791 -0.876203 0
M  V30 1320 C 121.689 -1.04268 -1.22412 0
M  V30 1321 O 122.879 -1.30242 -1.15684 0
M  V30 1322 C 120.011 -2.62207 -2.17854 0
M  V30 1323 H 121.204 -2.9716 -0.40444 0
M  V30 1324 H 118.757 -1.55333 -0.173557 0
M  V30 1325 H 119.492 -1.803 -2.6956 0
M  V30 1326 H 119.277 -3.40802 -1.93897 0
M  V30 1327 H 120.767 -3.04335 -2.85955 0
M  V30 1328 N 121.204 0.198386 -1.56346 0
M  V30 1329 C 122.62 0.549085 -1.49857 0
M  V30 1330 C 122.82 1.86016 -0.774611 0
M  V30 1331 O 121.876 2.50416 -0.323776 0
M  V30 1332 C 123.189 0.606868 -2.94512 0
M  V30 1333 C 124.737 0.695925 -3.05165 0
M  V30 1334 C 125.212 0.784848 -4.51225 0
M  V30 1335 N 126.703 0.848463 -4.55363 0
M  V30 1336 C 127.438 0.937378 -5.65686 0
M  V30 1337 N 126.934 0.9888 -6.85707 0
M  V30 1338 N 128.727 0.974312 -5.53592 0
M  V30 1339 H 120.878 -0.661655 -2.01831 0
M  V30 1340 H 123.141 -0.235261 -0.918344 0
M  V30 1341 H 122.847 -0.28732 -3.50524 0
M  V30 1342 H 122.721 1.46268 -3.47686 0
M  V30 1343 H 125.108 1.58055 -2.49204 0
M  V30 1344 H 125.189 -0.186022 -2.55123 0
M  V30 1345 H 124.833 -0.0954072 -5.0781 0
M  V30 1346 H 124.763 1.68255 -4.98997 0
M  V30 1347 H 127.254 0.818103 -3.68938 0
M  V30 1348 H 127.567 1.05707 -7.65536 0
M  V30 1349 H 125.912 0.957534 -6.88372 0
M  V30 1350 H 129.103 0.930954 -4.58749 0
M  V30 1351 H 129.276 1.04015 -6.39597 0
M  V30 1352 N 122.682 1.50554 0.465978 0
M  V30 1353 C 123.928 1.62038 1.21949 0
M  V30 1354 C 124.261 0.322116 1.9151 0
M  V30 1355 O 123.536 -0.676723 1.82348 0
M  V30 1356 C 123.819 2.80421 2.25912 0
M  V30 1357 C 123.672 4.20144 1.60622 0
M  V30 1358 C 124.991 2.94354 3.27176 0
M  V30 1359 H 122.11 0.589752 0.441998 0
M  V30 1360 H 124.752 1.82956 0.51257 0
M  V30 1361 H 122.902 2.62717 2.86203 0
M  V30 1362 H 124.574 4.49449 1.03889 0
M  V30 1363 H 122.817 4.24165 0.909211 0
M  V30 1364 H 123.488 4.98914 2.36196 0
M  V30 1365 H 125.964 3.10578 2.76913 0
M  V30 1366 H 124.84 3.788 3.97242 0
M  V30 1367 H 125.101 2.05186 3.916 0
M  V30 1368 N 124.16 -0.719506 1.40217 0
M  V30 1369 C 125.09 -1.8465 1.42922 0
M  V30 1370 C 126.071 -1.67599 0.29062 0
M  V30 1371 O 127.256 -1.87688 0.498677 0
M  V30 1372 C 124.386 -3.22565 1.28722 0
M  V30 1373 C 123.34 -3.54281 2.40144 0
M  V30 1374 C 122.666 -4.91298 2.11023 0
M  V30 1375 C 123.966 -3.55676 3.82481 0
M  V30 1376 H 125.66 -1.82644 2.37237 0
M  V30 1377 H 123.206 -0.877305 1.1419 0
M  V30 1378 H 125.159 -4.01095 1.29232 0
M  V30 1379 H 123.883 -3.25137 0.308811 0
M  V30 1380 H 122.542 -2.78088 2.38877 0
M  V30 1381 H 122.19 -4.90468 1.11582 0
M  V30 1382 H 121.89 -5.13485 2.8567 0
M  V30 1383 H 123.414 -5.72166 2.13209 0
M  V30 1384 H 124.828 -4.24254 3.85592 0
M  V30 1385 H 123.225 -3.89388 4.56614 0
M  V30 1386 H 124.295 -2.55144 4.12346 0
M  V30 1387 N 125.638 -1.25649 -0.95132 0
M  V30 1388 C 126.57 -1.02112 -2.05197 0
M  V30 1389 C 127.583 0.0150571 -1.62793 0
M  V30 1390 O 128.772 -0.223874 -1.77091 0
M  V30 1391 C 125.872 -0.522361 -3.3485 0
M  V30 1392 C 125.045 -1.62546 -4.06076 0
M  V30 1393 C 124.104 -1.12649 -5.14001 0
M  V30 1394 O 123.13 -1.82156 -5.39266 0
M  V30 1395 N 124.332 0.03047 -5.80492 0
M  V30 1396 H 127.097 -1.96885 -2.25957 0
M  V30 1397 H 124.658 -1.16899 -1.1201 0
M  V30 1398 H 126.65 -0.172961 -4.0433 0
M  V30 1399 H 125.22 0.33151 -3.10837 0
M  V30 1400 H 124.44 -2.14628 -3.30649 0
M  V30 1401 H 125.728 -2.36644 -4.50419 0
M  V30 1402 H 125.126 0.611169 -5.62389 0
M  V30 1403 H 123.683 0.320875 -6.5101 0
M  V30 1404 N 127.117 1.15442 -1.07289 0
M  V30 1405 C 128.533 1.38201 -0.798288 0
M  V30 1406 C 128.733 1.92429 0.597769 0
M  V30 1407 O 127.789 2.12962 1.3566 0
M  V30 1408 C 129.102 2.35357 -1.87156 0
M  V30 1409 C 130.65 2.49021 -1.89624 0
M  V30 1410 C 131.125 3.49468 -2.96034 0
M  V30 1411 N 132.616 3.57003 -2.95132 0
M  V30 1412 C 133.351 4.34543 -3.74112 0
M  V30 1413 N 132.847 5.15421 -4.6294 0
M  V30 1414 N 134.64 4.29625 -3.62462 0
M  V30 1415 H 126.791 0.78584 -1.97328 0
M  V30 1416 H 129.054 0.408065 -0.855679 0
M  V30 1417 H 128.76 2.02626 -2.87464 0
M  V30 1418 H 128.634 3.35129 -1.73114 0
M  V30 1419 H 131.021 2.81051 -0.899687 0
M  V30 1420 H 131.102 1.4925 -2.07745 0
M  V30 1421 H 130.746 3.18173 -3.95889 0
M  V30 1422 H 130.676 4.48992 -2.75161 0
M  V30 1423 H 133.167 2.99276 -2.30743 0
M  V30 1424 H 133.48 5.7183 -5.19837 0
M  V30 1425 H 131.825 5.14729 -4.66989 0
M  V30 1426 H 135.016 3.65505 -2.92444 0
M  V30 1427 H 135.189 4.89807 -4.24256 0
M  V30 1428 N 128.595 0.856903 1.32268 0
M  V30 1429 C 129.525 0.31858 2.31316 0
M  V30 1430 C 130.506 -0.583487 1.59779 0
M  V30 1431 O 131.691 -0.503259 1.87566 0
M  V30 1432 C 128.821 -0.491979 3.43798 0
M  V30 1433 C 127.775 0.315849 4.26833 0
M  V30 1434 C 127.101 -0.619586 5.31098 0
M  V30 1435 C 128.401 1.54282 4.98993 0
M  V30 1436 H 130.095 1.14621 2.76591 0
M  V30 1437 H 127.641 0.552613 1.32974 0
M  V30 1438 H 129.594 -0.879012 4.1213 0
M  V30 1439 H 128.318 -1.35299 2.97257 0
M  V30 1440 H 126.977 0.684664 3.6015 0
M  V30 1441 H 126.625 -1.47751 4.8081 0
M  V30 1442 H 126.325 -0.0830621 5.87541 0
M  V30 1443 H 127.849 -1.00375 6.02293 0
M  V30 1444 H 129.263 1.22796 5.59995 0
M  V30 1445 H 127.66 2.01745 5.65172 0
M  V30 1446 H 128.73 2.30285 4.26728 0
M  V30 1447 N 130.073 -1.45103 0.615059 0
M  V30 1448 C 131.313 -2.04069 0.116282 0
M  V30 1449 C 131.677 -1.4721 -1.2326 0
M  V30 1450 O 132.878 -1.97577 -1.82255 0
M  V30 1451 C 131.149 -3.57298 0.085482 0
M  V30 1452 S 132.708 -4.37394 -0.351015 0
M  V30 1453 H 129.526 -0.709006 0.0532183 0
M  V30 1454 H 132.128 -1.77709 0.81484 0
M  V30 1455 H 130.832 -3.9619 1.0706 0
M  V30 1456 H 130.363 -3.88244 -0.634835 0
M  V30 1457 H 132.378 -4.69734 -1.59889 0
M  V30 1458 N 131.551 -0.354651 -1.53558 0
M  V30 1459 C 132.461 0.50515 -2.29097 0
M  V30 1460 C 133.477 1.10223 -1.34636 0
M  V30 1461 O 134.653 1.11553 -1.67684 0
M  V30 1462 C 131.718 1.63479 -3.05738 0
M  V30 1463 C 130.779 1.06636 -4.15845 0
M  V30 1464 C 130.012 2.14217 -4.88822 0
M  V30 1465 O 130.235 3.35137 -4.61562 0
M  V30 1466 O 129.169 1.77887 -5.75013 0
M  V30 1467 H 132.995 -0.109237 -3.03503 0
M  V30 1468 H 130.58 -0.119357 -1.48922 0
M  V30 1469 H 132.462 2.2918 -3.5363 0
M  V30 1470 H 131.137 2.23478 -2.34178 0
M  V30 1471 H 130.044 0.373565 -3.7223 0
M  V30 1472 H 131.377 0.511081 -4.89539 0
M  V30 1473 N 133.029 1.57378 -0.0835403 0
M  V30 1474 C 134.445 1.57246 0.273109 0
M  V30 1475 C 134.645 1.09385 1.69225 0
M  V30 1476 O 133.701 0.765051 2.40631 0
M  V30 1477 C 135.014 3.00614 0.0720628 0
M  V30 1478 C 136.562 3.12684 0.1407 0
M  V30 1479 C 137.037 4.57989 -0.0322094 0
M  V30 1480 N 138.528 4.63194 0.0230085 0
M  V30 1481 C 139.263 5.73335 -0.0861941 0
M  V30 1482 N 138.759 6.9235 -0.24958 0
M  V30 1483 N 140.552 5.62093 -0.0282886 0
M  V30 1484 H 132.703 1.86801 -1.0109 0
M  V30 1485 H 134.966 0.861687 -0.395222 0
M  V30 1486 H 134.672 3.39786 -0.907662 0
M  V30 1487 H 134.546 3.68193 0.81936 0
M  V30 1488 H 136.933 2.73391 1.11092 0
M  V30 1489 H 137.014 2.47719 -0.637896 0
M  V30 1490 H 136.658 4.97973 -0.999247 0
M  V30 1491 H 136.588 5.21 0.765937 0
M  V30 1492 H 139.079 3.77613 0.14722 0
M  V30 1493 H 139.392 7.72117 -0.324733 0
M  V30 1494 H 137.737 6.94415 -0.285097 0
M  V30 1495 H 140.928 4.67997 0.0981408 0
M  V30 1496 H 141.101 6.47895 -0.116845 0
M  V30 1497 N 134.507 -0.190092 1.56449 0
M  V30 1498 C 135.755 -0.907908 1.80559 0
M  V30 1499 C 136.076 -1.83583 0.657438 0
M  V30 1500 O 135.346 -1.93203 -0.323924 0
M  V30 1501 H 133.926 -0.338247 0.666032 0
M  V30 1502 H 136.588 -0.194403 1.93928 0
M  V30 1503 H 135.684 -1.49604 2.73907 0
M  V30 1504 N 135.985 -1.50799 -0.457987 0
M  V30 1505 C 136.948 -1.7005 -1.53674 0
M  V30 1506 C 137.948 -0.570881 -1.50325 0
M  V30 1507 O 139.138 -0.838126 -1.52712 0
M  V30 1508 C 136.27 -1.73788 -2.93276 0
M  V30 1509 H 137.463 -2.66306 -1.37917 0
M  V30 1510 H 135.016 -1.40477 -0.685271 0
M  V30 1511 H 135.751 -0.792717 -3.14462 0
M  V30 1512 H 135.536 -2.55864 -2.97113 0
M  V30 1513 H 137.026 -1.90591 -3.71571 0
M  V30 1514 N 137.463 0.71206 -1.40597 0
M  V30 1515 C 138.41 1.82613 -1.41142 0
M  V30 1516 C 139.38 1.63925 -0.267903 0
M  V30 1517 O 140.565 1.85009 -0.466495 0
M  V30 1518 C 137.705 3.20354 -1.28324 0
M  V30 1519 C 136.818 3.50589 -2.52411 0
M  V30 1520 C 135.953 4.77855 -2.32009 0
M  V30 1521 C 134.992 5.01005 -3.51654 0
M  V30 1522 N 134.129 6.19487 -3.30425 0
M  V30 1523 H 138.969 1.81482 -2.36365 0
M  V30 1524 H 136.506 0.886475 -1.17388 0
M  V30 1525 H 138.464 3.99899 -1.18899 0
M  V30 1526 H 137.094 3.20705 -0.367189 0
M  V30 1527 H 136.146 2.65573 -2.72351 0
M  V30 1528 H 137.458 3.63604 -3.41458 0
M  V30 1529 H 136.612 5.65424 -2.19956 0
M  V30 1530 H 135.351 4.67056 -1.40392 0
M  V30 1531 H 134.356 4.1189 -3.64179 0
M  V30 1532 H 135.581 5.13674 -4.44202 0
M  V30 1533 H 133.527 6.09932 -2.41494 0
M  V30 1534 H 133.444 6.33194 -4.13039 0
M  V30 1535 H 134.712 7.09834 -3.22113 0
M  V30 1536 N 138.941 1.26152 0.944643 0
M  V30 1537 C 139.889 1.07215 2.06417 0
M  V30 1538 C 140.883 9.2007e-05 1.694 0
M  V30 1539 O 142.089 0.1565 1.79318 0
M  V30 1540 H 138.464 0.329837 0.675805 0
M  V30 1541 H 140.435 2.02099 2.19541 0
M  V30 1542 C 139.184 0.718197 3.40202 0
M  V30 1543 H 138.507 1.53497 3.69159 0
M  V30 1544 H 139.947 0.625459 4.19361 0
M  V30 1545 C 138.406 -0.576435 3.31932 0
M  V30 1546 O 138.936 -1.61574 3.67773 0
M  V30 1547 N 137.142 -0.565781 2.85039 0
M  V30 1548 H 136.689 0.280367 2.5607 0
M  V30 1549 H 136.647 -1.43213 2.79888 0
M  V30 1550 N 140.419 -1.14872 1.07899 0
M  V30 1551 C 141.665 -1.86064 0.806725 0
M  V30 1552 C 141.998 -1.82434 -0.665706 0
M  V30 1553 O 141.273 -1.25138 -1.48899 0
M  V30 1554 C 141.556 -3.34929 1.32267 0
M  V30 1555 C 141.409 -3.47161 2.86006 0
M  V30 1556 C 142.728 -4.29863 0.943717 0
M  V30 1557 H 139.847 -0.675591 0.294526 0
M  V30 1558 H 142.489 -1.34925 1.33773 0
M  V30 1559 H 140.639 -3.78611 0.870974 0
M  V30 1560 H 142.311 -3.12302 3.39507 0
M  V30 1561 H 140.554 -2.88539 3.23925 0
M  V30 1562 H 141.225 -4.51777 3.17177 0
M  V30 1563 H 143.701 -3.9417 1.33302 0
M  V30 1564 H 142.577 -5.32494 1.33198 0
M  V30 1565 H 142.838 -4.41846 -0.149796 0
M  V30 1566 N 141.898 -0.863906 -1.31812 0
M  V30 1567 C 142.828 -0.330843 -2.31144 0
M  V30 1568 C 143.809 0.575005 -1.60087 0
M  V30 1569 O 144.994 0.493304 -1.8783 0
M  V30 1570 C 142.124 0.47374 -3.44054 0
M  V30 1571 C 141.078 -0.338481 -4.26659 0
M  V30 1572 C 140.404 0.591412 -5.31419 0
M  V30 1573 C 141.704 -1.56926 -4.98168 0
M  V30 1574 H 143.398 -1.16086 -2.75979 0
M  V30 1575 H 140.944 -0.559657 -1.32679 0
M  V30 1576 H 142.897 0.857143 -4.12591 0
M  V30 1577 H 141.621 1.33721 -2.9797 0
M  V30 1578 H 140.28 -0.703754 -3.59782 0
M  V30 1579 H 139.928 1.45199 -4.81587 0
M  V30 1580 H 139.628 0.0519022 -5.87577 0
M  V30 1581 H 141.152 0.97179 -6.02817 0
M  V30 1582 H 142.566 -1.25764 -5.59336 0
M  V30 1583 H 140.963 -2.04739 -5.64094 0
M  V30 1584 H 142.033 -2.32544 -4.25501 0
M  V30 1585 N 143.376 1.44774 -0.622745 0
M  V30 1586 C 144.339 2.29069 0.0774015 0
M  V30 1587 C 145.339 1.4059 0.780461 0
M  V30 1588 O 146.529 1.62551 0.626322 0
M  V30 1589 C 143.661 3.21974 1.12006 0
M  V30 1590 H 144.854 2.92459 -0.663901 0
M  V30 1591 H 142.407 1.51548 -0.382486 0
M  V30 1592 H 143.142 2.63417 1.89162 0
M  V30 1593 H 142.927 3.87168 0.619951 0
M  V30 1594 H 144.417 3.85318 1.60995 0
M  V30 1595 N 144.854 0.36279 1.53368 0
M  V30 1596 C 146.101 -0.227776 2.01215 0
M  V30 1597 C 146.429 -1.49003 1.25014 0
M  V30 1598 O 145.684 -1.92876 0.331236 0
M  V30 1599 C 145.983 -0.568417 3.52851 0
M  V30 1600 C 145.649 0.59918 4.46901 0
M  V30 1601 C 144.311 0.919559 4.72332 0
M  V30 1602 C 146.663 1.38156 5.02556 0
M  V30 1603 C 143.991 2.02434 5.5067 0
M  V30 1604 C 146.343 2.47674 5.821 0
M  V30 1605 C 145.007 2.8025 6.05819 0
M  V30 1606 H 144.277 -0.083349 0.736297 0
M  V30 1607 H 146.924 0.494677 1.85001 0
M  V30 1608 H 145.229 -1.37185 3.66998 0
M  V30 1609 H 146.926 -1.03756 3.87344 0
M  V30 1610 H 143.516 0.339437 4.27254 0
M  V30 1611 H 147.7 1.14729 4.82857 0
M  V30 1612 H 142.956 2.28075 5.67267 0
M  V30 1613 H 147.13 3.08716 6.24234 0
M  V30 1614 H 144.757 3.65979 6.66306 0
M  V30 1615 N 146.332 -1.57332 0.0918853 0
M  V30 1616 C 147.58 -1.93853 -0.571446 0
M  V30 1617 C 147.901 -0.974212 -1.6892 0
M  V30 1618 O 147.171 -0.0257254 -1.95883 0
M  V30 1619 H 145.751 -0.715666 -0.214082 0
M  V30 1620 H 148.413 -1.94287 0.154464 0
M  V30 1621 H 147.509 -2.96191 -0.983729 0
M  V30 1622 N 147.81 0.181792 -1.56548 0
M  V30 1623 C 149.057 0.900097 -1.81396 0
M  V30 1624 C 149.385 1.82695 -0.667281 0
M  V30 1625 O 148.64 1.92614 0.346146 0
M  V30 1626 C 148.939 1.73728 -3.12335 0
M  V30 1627 C 148.605 0.960255 -4.40556 0
M  V30 1628 C 147.267 0.745766 -4.75386 0
M  V30 1629 C 149.619 0.414477 -5.19549 0
M  V30 1630 C 146.947 -0.0257694 -5.86694 0
M  V30 1631 C 149.299 -0.343916 -6.31664 0
M  V30 1632 C 147.963 -0.569301 -6.65068 0
M  V30 1633 H 147.233 0.329369 -0.663775 0
M  V30 1634 H 149.88 0.165647 -1.90782 0
M  V30 1635 H 148.185 2.54081 -2.98245 0
M  V30 1636 H 149.882 2.29591 -3.28769 0
M  V30 1637 H 146.472 1.13746 -4.13231 0
M  V30 1638 H 150.656 0.567554 -4.93044 0
M  V30 1639 H 145.912 -0.210233 -6.11038 0
M  V30 1640 H 150.086 -0.774133 -6.92084 0
M  V30 1641 H 147.713 -1.16903 -7.51158 0
M  V30 1642 N 149.288 1.51039 0.449983 0
M  V30 1643 C 150.251 1.70863 1.5277 0
M  V30 1644 C 151.251 0.578846 1.5002 0
M  V30 1645 O 152.441 0.846213 1.52266 0
M  V30 1646 C 149.573 1.75341 2.9235 0
M  V30 1647 H 150.766 2.67034 1.36502 0
M  V30 1648 H 148.319 1.40838 0.677812 0
M  V30 1649 H 149.054 0.809383 3.14037 0
M  V30 1650 H 148.839 2.57436 2.95752 0
M  V30 1651 H 150.329 1.92559 3.70555 0
M  V30 1652 N 150.766 -0.704594 1.40972 0
M  V30 1653 C 151.696 -1.83124 1.44872 0
M  V30 1654 C 152.677 -1.67281 0.30838 0
M  V30 1655 O 153.862 -1.87149 0.518556 0
M  V30 1656 C 150.992 -3.21181 1.32136 0
M  V30 1657 C 149.946 -3.51714 2.43888 0
M  V30 1658 C 149.272 -4.89032 2.16222 0
M  V30 1659 C 150.572 -3.516 3.86232 0
M  V30 1660 H 152.266 -1.80117 2.39161 0
M  V30 1661 H 149.812 -0.865145 1.15114 0
M  V30 1662 H 151.765 -3.99702 1.33479 0
M  V30 1663 H 150.489 -3.24791 0.343279 0
M  V30 1664 H 149.148 -2.75539 2.41813 0
M  V30 1665 H 148.796 -4.89256 1.16778 0
M  V30 1666 H 148.496 -5.10426 2.911 0
M  V30 1667 H 150.02 -5.69873 2.19265 0
M  V30 1668 H 151.434 -4.2014 3.9007 0
M  V30 1669 H 149.831 -3.84523 4.60719 0
M  V30 1670 H 150.901 -2.50757 4.15029 0
M  V30 1671 N 152.244 -1.26651 -0.937939 0
M  V30 1672 C 153.174 -1.10993 -2.05433 0
M  V30 1673 C 154.155 -0.0142161 -1.70094 0
M  V30 1674 O 155.34 -0.186837 -1.93299 0
M  V30 1675 C 152.47 -0.745561 -3.39203 0
M  V30 1676 C 151.424 -1.79337 -3.88616 0
M  V30 1677 C 150.75 -1.28324 -5.19073 0
M  V30 1678 C 152.05 -3.19553 -4.13138 0
M  V30 1679 H 153.744 -2.0438 -2.1879 0
M  V30 1680 H 151.29 -0.984041 -1.05131 0
M  V30 1681 H 153.243 -0.622888 -4.16771 0
M  V30 1682 H 151.967 0.22401 -3.25831 0
M  V30 1683 H 150.626 -1.90477 -3.13231 0
M  V30 1684 H 150.274 -0.303414 -5.02084 0
M  V30 1685 H 149.974 -1.98369 -5.53103 0
M  V30 1686 H 151.498 -1.1733 -5.99221 0
M  V30 1687 H 152.912 -3.11471 -4.81309 0
M  V30 1688 H 151.309 -3.87218 -4.58457 0
M  V30 1689 H 152.379 -3.65368 -3.18801 0
M  V30 1690 N 153.722 1.14298 -1.08507 0
M  V30 1691 C 154.999 1.81544 -0.728088 0
M  V30 1692 C 155.379 1.95838 0.78808 0
M  V30 1693 O 154.727 1.51904 1.70697 0
M  V30 1694 C 154.937 3.17169 -1.45619 0
M  V30 1695 C 156.285 3.9265 -1.61591 0
M  V30 1696 O 157.309 3.26762 -1.41793 0
M  V30 1697 O 156.168 5.10807 -1.94263 0
M  V30 1698 H 153.262 0.78491 -0.260471 0
M  V30 1699 H 155.808 1.21307 -1.18671 0
M  V30 1700 H 154.58 3.01934 -2.489 0
M  V30 1701 H 154.203 3.851 -0.989124 0
M  V30 1702 N 155.201 0.870884 1.31352 0
M  V30 1703 C 156.449 0.48132 1.96285 0
M  V30 1704 C 156.77 -0.969813 1.69173 0
M  V30 1705 O 156.04 -1.67998 1.00764 0
M  V30 1706 H 154.62 0.175002 0.726212 0
M  V30 1707 H 157.282 1.11087 1.60143 0
M  V30 1708 H 156.378 0.639825 3.05471 0
M  V30 1709 N 156.679 -1.44442 0.630414 0
M  V30 1710 C 157.642 -2.29107 -0.0652523 0
M  V30 1711 C 158.642 -1.41002 -0.772995 0
M  V30 1712 O 159.832 -1.62881 -0.617692 0
M  V30 1713 C 156.964 -3.22564 -1.10296 0
M  V30 1714 H 158.157 -2.92103 0.679401 0
M  V30 1715 H 155.71 -1.51343 0.390517 0
M  V30 1716 H 156.445 -2.64416 -1.87762 0
M  V30 1717 H 156.23 -3.87491 -0.59941 0
M  V30 1718 H 157.72 -3.86167 -1.5895 0
M  V30 1719 N 158.157 -0.370918 -1.53173 0
M  V30 1720 C 159.573 -0.0200818 -1.59587 0
M  V30 1721 C 159.773 1.46279 -1.38581 0
M  V30 1722 O 158.829 2.22506 -1.19363 0
M  V30 1723 C 160.142 -0.4808 -2.96831 0
M  V30 1724 C 161.69 -0.435477 -3.09956 0
M  V30 1725 C 162.165 -0.872092 -4.4962 0
M  V30 1726 N 163.656 -0.827364 -4.55751 0
M  V30 1727 C 164.391 -1.13683 -5.62018 0
M  V30 1728 N 163.887 -1.51584 -6.76014 0
M  V30 1729 N 165.68 -1.05927 -5.52029 0
M  V30 1730 H 157.831 -1.33652 -1.65079 0
M  V30 1731 H 160.094 -0.546634 -0.774529 0
M  V30 1732 H 159.8 -1.51577 -3.1736 0
M  V30 1733 H 159.674 0.129796 -3.76977 0
M  V30 1734 H 162.061 0.590371 -2.89134 0
M  V30 1735 H 162.142 -1.08164 -2.31806 0
M  V30 1736 H 161.786 -1.89608 -4.71181 0
M  V30 1737 H 161.716 -0.203127 -5.26208 0
M  V30 1738 H 164.207 -0.548216 -3.73902 0
M  V30 1739 H 164.52 -1.73609 -7.53047 0
M  V30 1740 H 162.865 -1.55454 -6.77391 0
M  V30 1741 H 166.056 -0.762321 -4.61851 0
M  V30 1742 H 166.229 -1.30378 -6.34749 0
M  V30 1743 N 159.635 1.57281 -0.100228 0
M  V30 1744 C 160.883 1.94153 0.561157 0
M  V30 1745 C 161.204 0.983157 1.68401 0
M  V30 1746 O 160.474 0.0361132 1.95867 0
M  V30 1747 H 159.054 0.716791 0.210283 0
M  V30 1748 H 161.716 1.94202 -0.164765 0
M  V30 1749 H 160.812 2.96709 0.968008 0
M  V30 1750 N 161.113 -0.173488 1.56642 0
M  V30 1751 C 162.361 -0.888706 1.81512 0
M  V30 1752 C 162.682 -1.82875 0.676872 0
M  V30 1753 O 161.952 -1.93536 -0.303414 0
M  V30 1754 H 160.532 -0.331164 0.669582 0
M  V30 1755 H 163.194 -0.173823 1.94123 0
M  V30 1756 H 162.29 -1.46691 2.75478 0
M  V30 1757 N 162.591 -1.51276 -0.441967 0
M  V30 1758 C 164.002 -1.56244 -1.02199 0
M  V30 1759 C 164.353 -0.383149 -1.92422 0
M  V30 1760 O 163.478 0.500613 -2.1053 0
M  V30 1761 C 164.073 -2.83162 -1.86024 0
M  V30 1762 C 162.632 -2.90716 -2.39084 0
M  V30 1763 C 161.779 -2.50858 -1.18175 0
M  V30 1764 H 164.73 -1.5712 -0.223416 0
M  V30 1765 H 164.751 -2.66663 -2.71425 0
M  V30 1766 H 164.263 -3.68974 -1.20331 0
M  V30 1767 H 162.364 -2.09323 -3.08244 0
M  V30 1768 H 162.477 -3.94266 -2.72198 0
M  V30 1769 H 160.841 -2.03951 -1.52565 0
M  V30 1770 H 161.624 -3.3901 -0.541001 0
M  V30 1771 N 164.069 0.697108 -1.41344 0
M  V30 1772 C 165.48 1.27697 -1.36199 0
M  V30 1773 C 165.831 1.9615 -0.0443463 0
M  V30 1774 O 164.956 1.98689 0.857419 0
M  V30 1775 C 165.551 2.32223 -2.46694 0
M  V30 1776 C 164.11 2.8579 -2.44952 0
M  V30 1777 C 163.257 1.59807 -2.26621 0
M  V30 1778 H 166.208 0.491968 -1.50882 0
M  V30 1779 H 166.229 3.1348 -2.15664 0
M  V30 1780 H 165.741 1.82373 -3.42581 0
M  V30 1781 H 163.842 3.3982 -1.52817 0
M  V30 1782 H 163.955 3.36325 -3.41207 0
M  V30 1783 H 162.319 1.8556 -1.7447 0
M  V30 1784 H 163.102 1.11956 -3.24532 0
M  V30 1785 N 165.547 1.27147 0.931209 0
M  V30 1786 C 166.457 1.11372 2.06478 0
M  V30 1787 C 167.473 0.044645 1.73943 0
M  V30 1788 O 168.649 0.250417 1.99837 0
M  V30 1789 C 165.714 0.758838 3.38294 0
M  V30 1790 C 164.775 1.90841 3.84549 0
M  V30 1791 C 164.008 1.57036 5.10074 0
M  V30 1792 O 164.231 0.476645 5.68405 0
M  V30 1793 O 163.165 2.40839 5.51616 0
M  V30 1794 H 166.991 2.06493 2.22698 0
M  V30 1795 H 164.576 1.06301 1.04978 0
M  V30 1796 H 166.458 0.574098 4.17471 0
M  V30 1797 H 165.133 -0.162879 3.2329 0
M  V30 1798 H 164.04 2.14819 3.06274 0
M  V30 1799 H 165.373 2.81021 4.04089 0
M  V30 1800 N 167.025 -1.13721 1.09112 0
M  V30 1801 C 167.988 -2.17222 0.731241 0
M  V30 1802 C 168.988 -1.59035 -0.237566 0
M  V30 1803 O 170.178 -1.74192 -0.0161704 0
M  V30 1804 C 167.31 -3.40804 0.0808443 0
M  V30 1805 H 168.503 -2.50573 1.64783 0
M  V30 1806 H 166.056 -1.28493 0.889897 0
M  V30 1807 H 166.791 -3.1304 -0.847127 0
M  V30 1808 H 166.576 -3.84306 0.777896 0
M  V30 1809 H 168.066 -4.1731 -0.155657 0
M  V30 1810 N 168.503 -0.877838 -1.30888 0
M  V30 1811 C 169.75 -0.492696 -1.96415 0
M  V30 1812 C 170.078 0.956671 -1.69346 0
M  V30 1813 O 169.333 1.68993 -0.986913 0
M  V30 1814 C 169.632 -0.705748 -3.50363 0
M  V30 1815 C 169.298 -2.1291 -3.97467 0
M  V30 1816 C 167.96 -2.51834 -4.1004 0
M  V30 1817 C 170.312 -3.05702 -4.22132 0
M  V30 1818 C 167.64 -3.82775 -4.44635 0
M  V30 1819 C 169.992 -4.36166 -4.58194 0
M  V30 1820 C 168.656 -4.74993 -4.68975 0
M  V30 1821 H 167.926 -0.18029 -0.718733 0
M  V30 1822 H 170.573 -1.11233 -1.55883 0
M  V30 1823 H 168.878 -0.00303058 -3.918 0
M  V30 1824 H 170.575 -0.387456 -3.99124 0
M  V30 1825 H 167.165 -1.81694 -3.88182 0
M  V30 1826 H 171.349 -2.76853 -4.11906 0
M  V30 1827 H 166.605 -4.12609 -4.51181 0
M  V30 1828 H 170.779 -5.08111 -4.76231 0
M  V30 1829 H 168.406 -5.76495 -4.95537 0
M  V30 1830 N 169.982 1.44106 -0.638065 0
M  V30 1831 C 171.21 2.06336 -0.152615 0
M  V30 1832 C 171.625 1.47731 1.17563 0
M  V30 1833 O 170.982 0.602806 1.72257 0
M  V30 1834 C 171.033 3.61479 -0.0391491 0
M  V30 1835 O 170.754 4.17903 -1.31487 0
M  V30 1836 C 172.255 4.40757 0.474176 0
M  V30 1837 H 169.475 0.665862 -0.0828776 0
M  V30 1838 H 172.019 1.84862 -0.87443 0
M  V30 1839 H 170.174 3.82191 0.633142 0
M  V30 1840 H 170.588 5.11416 -1.16421 0
M  V30 1841 H 172.062 5.49707 0.502562 0
M  V30 1842 H 172.539 4.12697 1.50258 0
M  V30 1843 H 173.145 4.24979 -0.165102 0
M  V30 1844 N 171.46 0.379036 1.52974 0
M  V30 1845 C 172.688 -0.20679 2.05864 0
M  V30 1846 C 173.103 -1.41356 1.25155 0
M  V30 1847 O 172.46 -1.8009 0.295588 0
M  V30 1848 C 172.511 -0.587045 3.56702 0
M  V30 1849 O 172.232 0.571776 4.34353 0
M  V30 1850 C 173.733 -1.22983 4.25899 0
M  V30 1851 H 170.953 -0.0336123 0.670158 0
M  V30 1852 H 173.497 0.541298 1.97206 0
M  V30 1853 H 171.652 -1.28504 3.65466 0
M  V30 1854 H 172.066 0.261544 5.23847 0
M  V30 1855 H 173.54 -1.44635 5.32715 0
M  V30 1856 H 174.017 -2.19416 3.80465 0
M  V30 1857 H 174.623 -0.572892 4.21424 0
M  V30 1858 N 172.938 -1.57226 0.108567 0
M  V30 1859 C 174.163 -1.99604 -0.563303 0
M  V30 1860 C 174.588 -0.987563 -1.6009 0
M  V30 1861 O 173.946 0.0421687 -1.81251 0
M  V30 1862 C 173.994 -3.40902 -1.17552 0
M  V30 1863 O 173.098 -3.42896 -2.2912 0
M  V30 1864 H 172.439 -0.648704 -0.1417 0
M  V30 1865 H 174.969 -2.03679 0.193961 0
M  V30 1866 H 174.979 -3.78886 -1.51357 0
M  V30 1867 H 173.654 -4.1382 -0.415445 0
M  V30 1868 H 172.231 -3.1672 -1.96832 0
M  V30 1869 N 174.416 0.165178 -1.56732 0
M  V30 1870 C 175.662 0.882112 -1.82611 0
M  V30 1871 C 175.995 1.81628 -0.687378 0
M  V30 1872 O 175.27 1.92009 0.310267 0
M  V30 1873 C 175.553 1.67245 -3.18906 0
M  V30 1874 C 175.406 0.760987 -4.43316 0
M  V30 1875 C 176.725 2.63884 -3.52212 0
M  V30 1876 H 173.844 0.319242 -0.664269 0
M  V30 1877 H 176.486 0.148052 -1.89422 0
M  V30 1878 H 174.636 2.29824 -3.1323 0
M  V30 1879 H 176.308 0.147596 -4.61064 0
M  V30 1880 H 174.551 0.0694102 -4.33744 0
M  V30 1881 H 175.222 1.34962 -5.35247 0
M  V30 1882 H 177.698 2.11429 -3.58381 0
M  V30 1883 H 176.574 3.16245 -4.48643 0
M  V30 1884 H 176.835 3.44377 -2.77231 0
M  V30 1885 N 175.894 1.51508 0.433938 0
M  V30 1886 C 177.31 1.39759 0.770682 0
M  V30 1887 C 177.51 0.482594 1.95636 0
M  V30 1888 O 176.566 -0.0609691 2.52426 0
M  V30 1889 C 177.879 2.81851 1.04787 0
M  V30 1890 C 179.427 2.91025 1.1521 0
M  V30 1891 C 179.902 4.34032 1.46219 0
M  V30 1892 N 181.393 4.37154 1.53136 0
M  V30 1893 C 182.128 5.4484 1.78709 0
M  V30 1894 N 181.624 6.62682 2.02051 0
M  V30 1895 N 183.417 5.32324 1.80519 0
M  V30 1896 H 175.568 2.09548 -0.346892 0
M  V30 1897 H 177.831 0.943446 -0.0928074 0
M  V30 1898 H 177.537 3.50815 0.249304 0
M  V30 1899 H 177.411 3.21386 1.97461 0
M  V30 1900 H 179.798 2.22257 1.94128 0
M  V30 1901 H 179.879 2.54983 0.204281 0
M  V30 1902 H 179.523 5.03351 0.678274 0
M  V30 1903 H 179.453 4.6759 2.42212 0
M  V30 1904 H 181.944 3.52197 1.36987 0
M  V30 1905 H 182.257 7.40543 2.20943 0
M  V30 1906 H 180.602 6.65791 1.99366 0
M  V30 1907 H 183.793 4.39246 1.61805 0
M  V30 1908 H 183.966 6.16328 2.00111 0
M  V30 1909 N 177.372 -0.689602 1.41712 0
M  V30 1910 C 178.597 -1.48329 1.44959 0
M  V30 1911 C 179.022 -1.8801 0.0581283 0
M  V30 1912 O 178.38 -1.55026 -0.940035 0
M  V30 1913 C 178.428 -2.71835 2.36935 0
M  V30 1914 O 177.532 -3.69549 1.8305 0
M  V30 1915 H 176.873 -0.446199 0.491734 0
M  V30 1916 H 179.403 -0.847127 1.86239 0
M  V30 1917 H 179.413 -3.20076 2.53013 0
M  V30 1918 H 178.088 -2.42291 3.38035 0
M  V30 1919 H 176.665 -3.2851 1.76452 0
M  V30 1920 N 178.85 -1.27639 -0.924453 0
M  V30 1921 C 180.08 -1.16819 -1.70402 0
M  V30 1922 C 180.488 0.277191 -1.87158 0
M  V30 1923 O 179.831 1.20025 -1.39067 0
M  V30 1924 C 179.893 -1.78305 -3.12166 0
M  V30 1925 C 179.557 -3.27502 -3.18734 0
M  V30 1926 C 180.554 -4.2409 -3.00738 0
M  V30 1927 C 178.239 -3.68269 -3.4159 0
M  V30 1928 C 180.233 -5.59422 -3.05492 0
M  V30 1929 C 177.92 -5.0373 -3.45977 0
M  V30 1930 C 178.918 -5.99116 -3.27946 0
M  V30 1931 O 178.606 -7.32108 -3.32074 0
M  V30 1932 H 178.338 -0.406931 -0.539799 0
M  V30 1933 H 180.892 -1.69078 -1.16626 0
M  V30 1934 H 179.122 -1.20528 -3.67437 0
M  V30 1935 H 180.811 -1.62154 -3.72103 0
M  V30 1936 H 181.577 -3.93931 -2.82919 0
M  V30 1937 H 177.456 -2.94496 -3.54673 0
M  V30 1938 H 181 -6.33852 -2.91337 0
M  V30 1939 H 176.897 -5.33543 -3.63321 0
M  V30 1940 H 177.665 -7.40598 -3.48507 0
M  V30 1941 N 180.328 1.1314 -1.09713 0
M  V30 1942 C 181.258 2.20748 -0.761102 0
M  V30 1943 C 182.239 1.68061 0.262566 0
M  V30 1944 O 183.424 1.93765 0.129977 0
M  V30 1945 C 180.554 3.46812 -0.184054 0
M  V30 1946 C 179.508 4.12606 -1.13757 0
M  V30 1947 C 178.834 5.33031 -0.422083 0
M  V30 1948 C 180.134 4.59603 -2.48118 0
M  V30 1949 H 181.828 2.49113 -1.66082 0
M  V30 1950 H 179.374 1.19734 -0.799987 0
M  V30 1951 H 181.327 4.21353 0.0631215 0
M  V30 1952 H 180.051 3.17851 0.750868 0
M  V30 1953 H 178.71 3.40036 -1.37007 0
M  V30 1954 H 178.358 5.00335 0.517072 0
M  V30 1955 H 178.058 5.77999 -1.05788 0
M  V30 1956 H 179.582 6.10325 -0.183277 0
M  V30 1957 H 180.996 5.25552 -2.29059 0
M  V30 1958 H 179.393 5.15321 -3.07514 0
M  V30 1959 H 180.463 3.73971 -3.08665 0
M  V30 1960 N 181.806 0.884767 1.30421 0
M  V30 1961 C 183.217 0.553656 1.78302 0
M  V30 1962 C 183.568 -0.930153 1.7275 0
M  V30 1963 O 182.693 -1.72681 1.30423 0
M  V30 1964 C 183.288 0.998234 3.2376 0
M  V30 1965 C 181.847 0.71854 3.69478 0
M  V30 1966 C 180.994 1.18132 2.50879 0
M  V30 1967 H 183.945 1.06901 1.17294 0
M  V30 1968 H 183.966 0.327118 3.79091 0
M  V30 1969 H 183.478 2.0782 3.27769 0
M  V30 1970 H 181.579 -0.349444 3.70958 0
M  V30 1971 H 181.692 1.30595 4.60958 0
M  V30 1972 H 180.056 0.600669 2.47516 0
M  V30 1973 H 180.839 2.26902 2.57624 0
M  V30 1974 N 183.284 -1.43765 0.645699 0
M  V30 1975 C 184.232 -2.32516 -0.0624849 0
M  V30 1976 C 185.226 -1.48183 -0.820855 0
M  V30 1977 O 186.432 -1.64439 -0.732106 0
M  V30 1978 H 182.807 -0.750989 -0.0389864 0
M  V30 1979 H 184.778 -2.89979 0.703892 0
M  V30 1980 C 183.527 -3.32389 -1.02044 0
M  V30 1981 H 182.85 -3.97301 -0.446312 0
M  V30 1982 H 184.29 -3.97138 -1.48517 0
M  V30 1983 C 182.749 -2.62416 -2.11281 0
M  V30 1984 O 183.279 -2.434 -3.19561 0
M  V30 1985 N 181.485 -2.21913 -1.87624 0
M  V30 1986 H 181.032 -2.37578 -0.995703 0
M  V30 1987 H 180.99 -1.75424 -2.6091 0
M  V30 1988 N 184.763 -0.387143 -1.52771 0
M  V30 1989 C 185.991 0.195869 -2.05971 0
M  V30 1990 C 186.406 1.40691 -1.25903 0
M  V30 1991 O 185.763 1.79931 -0.305134 0
M  V30 1992 C 185.814 0.56812 -3.57008 0
M  V30 1993 O 185.535 -0.594803 -4.34043 0
M  V30 1994 C 187.036 1.20723 -4.26545 0
M  V30 1995 H 184.256 0.0300578 -0.670326 0
M  V30 1996 H 186.8 -0.551749 -1.96916 0
M  V30 1997 H 184.955 1.26564 -3.66143 0
M  V30 1998 H 185.369 -0.289322 -5.23701 0
M  V30 1999 H 186.843 1.41807 -5.33474 0
M  V30 2000 H 187.32 2.17395 -3.81623 0
M  V30 2001 H 187.926 0.550535 -4.21722 0
M  V30 2002 N 186.241 1.57166 -0.116904 0
M  V30 2003 C 187.487 1.95412 0.542405 0
M  V30 2004 C 187.82 1.00019 1.66463 0
M  V30 2005 O 187.095 0.0370346 1.94465 0
M  V30 2006 C 187.378 3.43615 1.07708 0
M  V30 2007 C 187.231 4.49781 -0.0415868 0
M  V30 2008 C 188.55 3.93616 1.96861 0
M  V30 2009 H 185.669 0.710543 0.195696 0
M  V30 2010 H 188.311 1.89027 -0.192038 0
M  V30 2011 H 186.461 3.49187 1.70296 0
M  V30 2012 H 188.133 4.56308 -0.676793 0
M  V30 2013 H 186.376 4.28033 -0.705019 0
M  V30 2014 H 187.047 5.50733 0.373717 0
M  V30 2015 H 189.523 3.90335 1.44146 0
M  V30 2016 H 188.399 4.97838 2.3119 0
M  V30 2017 H 188.66 3.34188 2.89432 0
M  V30 2018 N 187.719 -0.156864 1.56817 0
M  V30 2019 C 188.947 -0.886316 1.86955 0
M  V30 2020 C 189.362 -1.75185 0.703975 0
M  V30 2021 O 188.719 -1.79555 -0.326552 0
M  V30 2022 C 188.77 -1.75117 3.16253 0
M  V30 2023 O 188.491 -0.920537 4.2832 0
M  V30 2024 C 189.992 -2.58905 3.59837 0
M  V30 2025 H 187.212 -0.25678 0.619923 0
M  V30 2026 H 189.756 -0.152615 2.0393 0
M  V30 2027 H 187.911 -2.43805 3.01062 0
M  V30 2028 H 188.325 -1.51337 5.02192 0
M  V30 2029 H 189.799 -3.1518 4.53172 0
M  V30 2030 H 190.276 -3.34472 2.84649 0
M  V30 2031 H 190.882 -1.95526 3.7769 0
M  V30 2032 N 189.197 -1.51736 -0.425897 0
M  V30 2033 C 190.474 -1.55519 -1.1863 0
M  V30 2034 C 190.854 -0.326219 -2.08564 0
M  V30 2035 O 190.202 0.688012 -2.17896 0
M  V30 2036 C 190.412 -2.87521 -1.9782 0
M  V30 2037 C 191.76 -3.39899 -2.54468 0
M  V30 2038 O 192.784 -2.89148 -2.08019 0
M  V30 2039 O 191.643 -4.2848 -3.39215 0
M  V30 2040 H 188.737 -0.625739 -0.540721 0
M  V30 2041 H 191.283 -1.64055 -0.434038 0
M  V30 2042 H 190.055 -3.68422 -1.31836 0
M  V30 2043 H 189.678 -2.822 -2.80088 0
M  V30 2044 N 190.675 0.682077 -1.42076 0
M  V30 2045 C 191.638 1.77756 -1.44691 0
M  V30 2046 C 192.638 1.5726 -0.335535 0
M  V30 2047 O 193.828 1.63686 -0.596037 0
M  V30 2048 C 190.96 3.16301 -1.27146 0
M  V30 2049 H 192.153 1.76826 -2.42224 0
M  V30 2050 H 189.706 0.891012 -1.28416 0
M  V30 2051 H 190.441 3.22862 -0.305075 0
M  V30 2052 H 190.226 3.32581 -2.07683 0
M  V30 2053 H 191.716 3.96241 -1.31843 0
M  V30 2054 N 192.153 1.28127 0.917671 0
M  V30 2055 C 193.083 1.14248 2.03641 0
M  V30 2056 C 194.064 0.0412748 1.7005 0
M  V30 2057 O 195.249 0.217566 1.92977 0
M  V30 2058 C 192.379 0.799431 3.37974 0
M  V30 2059 C 191.333 1.85497 3.85713 0
M  V30 2060 C 190.659 1.36565 5.16966 0
M  V30 2061 C 191.959 3.26085 4.08002 0
M  V30 2062 H 193.653 2.07835 2.15511 0
M  V30 2063 H 191.199 1.00064 1.03553 0
M  V30 2064 H 193.152 0.689114 4.15727 0
M  V30 2065 H 191.876 -0.172145 3.26146 0
M  V30 2066 H 190.535 1.95437 3.10161 0
M  V30 2067 H 190.183 0.383253 5.01538 0
M  V30 2068 H 189.883 2.07143 5.49878 0
M  V30 2069 H 191.407 1.26848 5.97279 0
M  V30 2070 H 192.821 3.19089 4.76293 0
M  V30 2071 H 191.218 3.94462 4.52238 0
M  V30 2072 H 192.288 3.70394 3.12948 0
M  V30 2073 N 193.631 -1.12557 1.10312 0
M  V30 2074 C 195.047 -1.36036 0.834649 0
M  V30 2075 C 195.247 -1.93946 -0.546539 0
M  V30 2076 O 194.303 -2.16484 -1.29966 0
M  V30 2077 C 195.616 -2.30312 1.9333 0
M  V30 2078 C 197.164 -2.43906 1.9616 0
M  V30 2079 C 197.639 -3.41496 3.05195 0
M  V30 2080 N 199.13 -3.49053 3.04494 0
M  V30 2081 C 199.865 -4.24471 3.85502 0
M  V30 2082 N 199.361 -5.02966 4.76442 0
M  V30 2083 N 201.154 -4.19864 3.73725 0
M  V30 2084 H 193.305 -0.733246 1.99342 0
M  V30 2085 H 195.568 -0.385234 0.866198 0
M  V30 2086 H 195.274 -1.94933 2.92735 0
M  V30 2087 H 195.148 -3.30421 1.81939 0
M  V30 2088 H 197.535 -2.78567 0.973886 0
M  V30 2089 H 197.616 -1.4369 2.11629 0
M  V30 2090 H 197.26 -3.07565 4.04186 0
M  V30 2091 H 197.19 -4.41539 2.86968 0
M  V30 2092 H 199.681 -2.93053 2.38596 0
M  V30 2093 H 199.994 -5.57846 5.34815 0
M  V30 2094 H 198.339 -5.02167 4.80472 0
M  V30 2095 H 201.53 -3.57623 3.02032 0
M  V30 2096 H 201.703 -4.78386 4.37093 0
M  V30 2097 N 195.109 -0.891671 -1.2995 0
M  V30 2098 C 196.357 -0.512486 -1.95494 0
M  V30 2099 C 196.678 0.942776 -1.70695 0
M  V30 2100 O 195.948 1.66374 -1.03424 0
M  V30 2101 H 194.528 -0.186533 -0.723336 0
M  V30 2102 H 197.19 -1.13621 -1.58355 0
M  V30 2103 H 196.286 -0.688342 -3.04415 0
M  V30 2104 N 196.587 1.43421 -0.653314 0
M  V30 2105 C 197.812 2.06678 -0.172846 0
M  V30 2106 C 198.237 1.48648 1.15262 0
M  V30 2107 O 197.595 0.596457 1.71208 0
M  V30 2108 C 197.643 3.60474 -0.0953184 0
M  V30 2109 O 196.747 4.01487 0.942442 0
M  V30 2110 H 196.088 0.657181 -0.0949155 0
M  V30 2111 H 198.618 1.83925 -0.896265 0
M  V30 2112 H 198.628 4.07905 0.0879728 0
M  V30 2113 H 197.303 4.02088 -1.06291 0
M  V30 2114 H 195.88 3.65646 0.731932 0
M  V30 2115 N 198.065 0.39524 1.52563 0
M  V30 2116 C 199.313 -0.184678 2.01254 0
M  V30 2117 C 199.634 -1.46822 1.28329 0
M  V30 2118 O 198.904 -1.91666 0.405094 0
M  V30 2119 H 197.484 -0.0712355 0.743596 0
M  V30 2120 H 200.146 0.528293 1.87603 0
M  V30 2121 H 199.242 -0.390681 3.09645 0
M  V30 2122 N 199.544 -1.57102 0.125237 0
M  V30 2123 C 200.507 -2.14471 -0.80838 0
M  V30 2124 C 201.507 -1.0811 -1.19033 0
M  V30 2125 O 202.697 -1.33856 -1.11482 0
M  V30 2126 C 199.829 -2.69005 -2.09402 0
M  V30 2127 H 201.022 -2.98297 -0.309696 0
M  V30 2128 H 198.575 -1.55807 -0.124051 0
M  V30 2129 H 199.31 -1.88785 -2.63687 0
M  V30 2130 H 199.095 -3.46799 -1.82957 0
M  V30 2131 H 200.585 -3.13278 -2.76128 0
M  V30 2132 N 201.022 0.148545 -1.56898 0
M  V30 2133 C 202.268 0.857877 -1.84424 0
M  V30 2134 C 202.623 1.7886 -0.709006 0
M  V30 2135 O 201.916 1.89344 0.293139 0
M  V30 2136 C 202.11 1.67064 -3.1595 0
M  V30 2137 C 201.939 0.82011 -4.42159 0
M  V30 2138 C 200.709 0.486328 -5.02954 0
M  V30 2139 C 202.907 0.151155 -5.14078 0
M  V30 2140 N 200.889 -0.377956 -6.12735 0
M  V30 2141 C 202.26 -0.573333 -6.17343 0
M  V30 2142 C 204.315 0.0716685 -4.97848 0
M  V30 2143 C 203.018 -1.3698 -7.06137 0
M  V30 2144 C 205.044 -0.711532 -5.87104 0
M  V30 2145 C 204.406 -1.42431 -6.8985 0
M  V30 2146 H 200.505 0.291798 -0.725519 0
M  V30 2147 H 203.089 0.123347 -1.94309 0
M  V30 2148 H 201.26 2.37642 -3.07215 0
M  V30 2149 H 202.992 2.32302 -3.31388 0
M  V30 2150 H 199.747 0.821753 -4.66416 0
M  V30 2151 H 200.171 -0.801077 -6.72244 0
M  V30 2152 H 204.813 0.608381 -4.184 0
M  V30 2153 H 202.531 -1.91778 -7.85014 0
M  V30 2154 H 206.117 -0.775005 -5.76615 0
M  V30 2155 H 204.997 -2.02061 -7.57721 0
M  V30 2156 N 202.5 1.5196 0.417844 0
M  V30 2157 C 203.748 1.65263 1.16329 0
M  V30 2158 C 204.069 0.380634 1.91249 0
M  V30 2159 O 203.339 -0.604214 1.86349 0
M  V30 2160 H 201.919 0.60912 0.432414 0
M  V30 2161 H 204.581 1.88969 0.477162 0
M  V30 2162 H 203.677 2.4896 1.88217 0
M  V30 2163 N 203.978 -0.674533 1.42435 0
M  V30 2164 C 204.908 -1.80009 1.48724 0
M  V30 2165 C 205.889 -1.6659 0.343793 0
M  V30 2166 O 207.074 -1.86007 0.558137 0
M  V30 2167 C 204.204 -3.18306 1.38919 0
M  V30 2168 C 203.158 -3.46461 2.51294 0
M  V30 2169 C 202.484 -4.84335 2.26547 0
M  V30 2170 C 203.784 -3.43328 3.93603 0
M  V30 2171 H 205.478 -1.75004 2.42928 0
M  V30 2172 H 203.024 -0.840533 1.16923 0
M  V30 2173 H 204.977 -3.9678 1.41927 0
M  V30 2174 H 203.701 -3.2399 0.412094 0
M  V30 2175 H 202.36 -2.70348 2.47604 0
M  V30 2176 H 202.008 -4.86669 1.2713 0
M  V30 2177 H 201.708 -5.04136 3.01861 0
M  V30 2178 H 203.232 -5.65094 2.31304 0
M  V30 2179 H 204.646 -4.11772 3.98894 0
M  V30 2180 H 203.043 -3.74664 4.68771 0
M  V30 2181 H 204.113 -2.41897 4.20255 0
M  V30 2182 N 205.456 -1.28612 -0.910864 0
M  V30 2183 C 206.386 -1.15326 -2.03032 0
M  V30 2184 C 207.367 -0.0502924 -1.70026 0
M  V30 2185 O 208.552 -0.227797 -1.92859 0
M  V30 2186 C 205.682 -0.817343 -3.37545 0
M  V30 2187 C 204.636 -1.8754 -3.84724 0
M  V30 2188 C 203.962 -1.39305 -5.16235 0
M  V30 2189 C 205.262 -3.28244 -4.06267 0
M  V30 2190 H 206.956 -2.08975 -2.14406 0
M  V30 2191 H 204.502 -1.00612 -1.03021 0
M  V30 2192 H 206.455 -0.711151 -4.15356 0
M  V30 2193 H 205.179 0.154846 -3.26233 0
M  V30 2194 H 203.838 -1.97079 -3.09121 0
M  V30 2195 H 203.486 -0.409846 -5.01328 0
M  V30 2196 H 203.186 -2.10057 -5.48771 0
M  V30 2197 H 204.71 -1.30014 -5.96598 0
M  V30 2198 H 206.124 -3.21611 -4.74594 0
M  V30 2199 H 204.521 -3.96855 -4.5014 0
M  V30 2200 H 205.591 -3.72048 -3.10979 0
M  V30 2201 N 206.934 1.1197 -1.10907 0
M  V30 2202 C 207.864 2.19928 -0.784473 0
M  V30 2203 C 208.845 1.6833 0.244726 0
M  V30 2204 O 210.03 1.93892 0.109418 0
M  V30 2205 C 207.16 3.46597 -0.220827 0
M  V30 2206 C 206.114 4.11376 -1.18127 0
M  V30 2207 C 205.44 5.32554 -0.478594 0
M  V30 2208 C 206.74 4.56945 -2.52979 0
M  V30 2209 H 208.434 2.47337 -1.68715 0
M  V30 2210 H 205.98 1.18879 -0.812642 0
M  V30 2211 H 207.933 4.21396 0.0184278 0
M  V30 2212 H 206.657 3.1863 0.717113 0
M  V30 2213 H 205.316 3.38564 -1.40606 0
M  V30 2214 H 204.964 5.00856 0.463976 0
M  V30 2215 H 204.664 5.76844 -1.11912 0
M  V30 2216 H 206.188 6.10096 -0.248 0
M  V30 2217 H 207.602 5.23093 -2.3462 0
M  V30 2218 H 205.999 5.1203 -3.12962 0
M  V30 2219 H 207.069 3.70676 -3.12614 0
M  V30 2220 N 208.412 0.89855 1.29475 0
M  V30 2221 C 209.828 0.594483 1.48115 0
M  V30 2222 C 210.028 -0.86431 1.82022 0
M  V30 2223 O 209.084 -1.64457 1.91599 0
M  V30 2224 C 210.397 1.51932 2.59494 0
M  V30 2225 C 211.945 1.5244 2.7337 0
M  V30 2226 C 212.42 2.43548 3.87877 0
M  V30 2227 N 213.911 2.41589 3.95208 0
M  V30 2228 C 214.646 3.08789 4.83153 0
M  V30 2229 N 214.142 3.85265 5.75798 0
M  V30 2230 N 215.935 2.97952 4.76635 0
M  V30 2231 H 208.086 1.84207 1.05742 0
M  V30 2232 H 210.349 0.789251 0.525154 0
M  V30 2233 H 210.055 2.55865 2.41301 0
M  V30 2234 H 209.929 1.23899 3.56271 0
M  V30 2235 H 212.316 0.492518 2.90961 0
M  V30 2236 H 212.397 1.8451 1.77172 0
M  V30 2237 H 212.041 3.46829 3.71041 0
M  V30 2238 H 211.971 2.08788 4.83441 0
M  V30 2239 H 214.462 1.86025 3.28943 0
M  V30 2240 H 214.775 4.33598 6.39697 0
M  V30 2241 H 213.12 3.89371 5.75687 0
M  V30 2242 H 216.311 2.37723 4.03244 0
M  V30 2243 H 216.484 3.50599 5.44962 0
M  V30 2244 N 209.89 -1.43072 0.660911 0
M  V30 2245 C 211.306 -1.56169 0.329173 0
M  V30 2246 C 211.506 -1.64317 -1.16629 0
M  V30 2247 O 210.562 -1.60245 -1.95135 0
M  V30 2248 C 211.875 -2.81873 1.04729 0
M  V30 2249 C 213.423 -2.95627 1.02828 0
M  V30 2250 C 213.898 -4.24174 1.72744 0
M  V30 2251 N 215.389 -4.31055 1.69545 0
M  V30 2252 C 216.124 -5.29304 2.20511 0
M  V30 2253 N 215.62 -6.33786 2.79799 0
M  V30 2254 N 217.413 -5.21008 2.10966 0
M  V30 2255 H 209.564 -1.36027 1.63127 0
M  V30 2256 H 211.827 -0.653823 0.686454 0
M  V30 2257 H 211.533 -2.81942 2.10242 0
M  V30 2258 H 211.407 -3.72338 0.603702 0
M  V30 2259 H 213.794 -2.95094 -0.0184742 0
M  V30 2260 H 213.875 -2.06431 1.51063 0
M  V30 2261 H 213.519 -4.25467 2.7738 0
M  V30 2262 H 213.449 -5.1228 1.2197 0
M  V30 2263 H 215.94 -3.56174 1.26288 0
M  V30 2264 H 216.253 -7.05086 3.16344 0
M  V30 2265 H 214.598 -6.34387 2.83863 0
M  V30 2266 H 217.789 -4.38301 1.64347 0
M  V30 2267 H 217.962 -5.97416 2.50993 0
M  V30 2268 N 211.368 -0.403325 -1.52352 0
M  V30 2269 C 212.614 0.174605 -2.02047 0
M  V30 2270 C 212.947 1.45282 -1.28867 0
M  V30 2271 O 212.222 1.90483 -0.393257 0
M  V30 2272 C 212.505 0.428238 -3.57545 0
M  V30 2273 C 212.358 -0.866248 -4.4138 0
M  V30 2274 C 213.677 1.21287 -4.23057 0
M  V30 2275 H 210.796 0.0619851 -0.734389 0
M  V30 2276 H 213.438 -0.53565 -1.82293 0
M  V30 2277 H 211.588 1.03327 -3.74507 0
M  V30 2278 H 213.26 -1.50265 -4.3614 0
M  V30 2279 H 211.503 -1.47851 -4.07827 0
M  V30 2280 H 212.174 -0.643249 -5.48239 0
M  V30 2281 H 214.65 0.700703 -4.10158 0
M  V30 2282 H 213.526 1.35909 -5.31808 0
M  V30 2283 H 213.787 2.23193 -3.81625 0
M  V30 2284 N 212.846 1.57033 -0.133567 0
M  V30 2285 C 214.094 1.953 0.519848 0
M  V30 2286 C 214.415 1.01866 1.66278 0
M  V30 2287 O 213.685 0.0776513 1.95746 0
M  V30 2288 H 212.265 0.721091 0.195032 0
M  V30 2289 H 214.927 1.93809 -0.205921 0
M  V30 2290 H 214.023 2.98695 0.904854 0
M  V30 2291 N 214.325 -0.140222 1.56975 0
M  V30 2292 C 215.602 -0.880769 1.74648 0
M  V30 2293 C 215.982 -1.99036 0.703404 0
M  V30 2294 O 215.33 -2.26821 -0.27648 0
M  V30 2295 C 215.54 -1.417 3.18939 0
M  V30 2296 C 216.888 -1.87774 3.80823 0
M  V30 2297 O 217.912 -1.51427 3.2241 0
M  V30 2298 O 216.771 -2.54827 4.83452 0
M  V30 2299 H 213.865 -0.416713 0.714338 0
M  V30 2300 H 216.411 -0.125618 1.69234 0
M  V30 2301 H 215.183 -0.619902 3.86359 0
M  V30 2302 H 214.806 -2.23546 3.28805 0
M  V30 2303 N 215.803 -1.52179 -0.40978 0
M  V30 2304 C 217.08 -1.56769 -1.16974 0
M  V30 2305 C 217.46 -0.348322 -2.08206 0
M  V30 2306 O 216.808 0.664862 -2.18613 0
M  V30 2307 C 217.018 -2.89603 -1.9476 0
M  V30 2308 C 218.366 -3.42579 -2.50849 0
M  V30 2309 O 219.39 -2.91338 -2.04941 0
M  V30 2310 O 218.249 -4.32054 -3.34652 0
M  V30 2311 H 215.343 -0.631439 -0.534054 0
M  V30 2312 H 217.889 -1.64507 -0.416613 0
M  V30 2313 H 216.661 -3.698 -1.27921 0
M  V30 2314 H 216.284 -2.85155 -2.77079 0
M  V30 2315 N 217.281 0.66697 -1.42791 0
M  V30 2316 C 218.527 1.4291 -1.43891 0
M  V30 2317 C 218.86 1.94114 -0.0578972 0
M  V30 2318 O 218.135 1.71414 0.91911 0
M  V30 2319 C 218.418 2.62049 -2.46987 0
M  V30 2320 C 218.271 2.16426 -3.94309 0
M  V30 2321 C 219.59 3.64266 -2.46978 0
M  V30 2322 H 216.709 0.518306 -0.523954 0
M  V30 2323 H 219.351 0.757321 -1.74255 0
M  V30 2324 H 217.501 3.19361 -2.21225 0
M  V30 2325 H 219.173 1.64221 -4.31079 0
M  V30 2326 H 217.416 1.47925 -4.078 0
M  V30 2327 H 218.087 3.02038 -4.62036 0
M  V30 2328 H 220.563 3.16686 -2.69906 0
M  V30 2329 H 219.439 4.45196 -3.21079 0
M  V30 2330 H 219.7 4.15927 -1.49857 0
M  V30 2331 N 218.759 1.29093 0.90403 0
M  V30 2332 C 219.689 1.16401 2.02418 0
M  V30 2333 C 220.67 0.0593085 1.69997 0
M  V30 2334 O 221.855 0.238021 1.92736 0
M  V30 2335 C 218.985 0.835233 3.37107 0
M  V30 2336 C 217.939 1.89578 3.83724 0
M  V30 2337 C 217.265 1.42041 5.15489 0
M  V30 2338 C 218.565 3.30394 4.04521 0
M  V30 2339 H 220.259 2.10109 2.13295 0
M  V30 2340 H 217.805 1.01157 1.02486 0
M  V30 2341 H 219.758 0.733169 4.14973 0
M  V30 2342 H 218.482 -0.137543 3.2631 0
M  V30 2343 H 217.141 1.98715 3.08071 0
M  V30 2344 H 216.789 0.436426 5.01103 0
M  V30 2345 H 216.489 2.12964 5.4765 0
M  V30 2346 H 218.013 1.33176 5.959 0
M  V30 2347 H 219.427 3.24123 4.72882 0
M  V30 2348 H 217.824 3.99237 4.48029 0
M  V30 2349 H 218.894 3.73692 3.09002 0
M  V30 2350 N 220.237 -1.11381 1.11499 0
M  V30 2351 C 221.483 -1.83403 0.865512 0
M  V30 2352 C 221.816 -1.84459 -0.607329 0
M  V30 2353 O 221.091 -1.29811 -1.44842 0
M  V30 2354 C 221.374 -3.30552 1.42855 0
M  V30 2355 C 221.227 -3.37886 2.96906 0
M  V30 2356 C 222.546 -4.26643 1.08 0
M  V30 2357 H 219.665 -0.665879 0.31587 0
M  V30 2358 H 222.307 -1.30601 1.37998 0
M  V30 2359 H 220.457 -3.75648 0.990985 0
M  V30 2360 H 222.129 -3.01343 3.49271 0
M  V30 2361 H 220.372 -2.78088 3.32941 0
M  V30 2362 H 221.043 -4.41458 3.31389 0
M  V30 2363 H 223.519 -3.89729 1.45775 0
M  V30 2364 H 222.395 -5.27986 1.50072 0
M  V30 2365 H 222.656 -4.42099 -0.00915037 0
M  V30 2366 N 221.715 -0.905404 -1.28997 0
M  V30 2367 C 222.665 -0.358713 -2.25161 0
M  V30 2368 C 223.649 0.524449 -1.52113 0
M  V30 2369 O 224.841 0.365534 -1.73184 0
M  V30 2370 C 221.97 0.407609 -3.40872 0
M  V30 2371 C 221.056 -0.490797 -4.21251 0
M  V30 2372 N 221.447 -1.60061 -4.79806 0
M  V30 2373 C 219.745 -0.289636 -4.45059 0
M  V30 2374 C 220.446 -2.15757 -5.40207 0
M  V30 2375 N 219.422 -1.44988 -5.23908 0
M  V30 2376 H 223.224 -1.20642 -2.67998 0
M  V30 2377 H 220.738 -0.757103 -1.43672 0
M  V30 2378 H 222.735 0.816046 -4.08835 0
M  V30 2379 H 221.395 1.25251 -2.9957 0
M  V30 2380 H 222.406 -1.98329 -4.7842 0
M  V30 2381 H 219.083 0.51643 -4.14294 0
M  V30 2382 H 220.473 -3.09069 -5.96595 0
M  V30 2383 N 223.193 1.4272 -0.668489 0
M  V30 2384 C 224.123 2.335 -0.000100175 0
M  V30 2385 C 225.104 1.50328 0.795964 0
M  V30 2386 O 226.289 1.78949 0.754385 0
M  V30 2387 C 223.419 3.33874 0.956302 0
M  V30 2388 C 222.373 4.27152 0.269278 0
M  V30 2389 C 221.699 5.17684 1.33818 0
M  V30 2390 C 222.999 5.15373 -0.847805 0
M  V30 2391 H 224.693 2.89639 -0.758244 0
M  V30 2392 H 222.239 1.39269 -0.366079 0
M  V30 2393 H 224.192 3.9629 1.43292 0
M  V30 2394 H 222.916 2.76025 1.74579 0
M  V30 2395 H 221.575 3.66123 -0.187042 0
M  V30 2396 H 221.223 4.56165 2.1195 0
M  V30 2397 H 220.923 5.80918 0.883659 0
M  V30 2398 H 222.447 5.82974 1.81586 0
M  V30 2399 H 223.861 5.7151 -0.452681 0
M  V30 2400 H 222.258 5.87407 -1.22773 0
M  V30 2401 H 223.328 4.5415 -1.69929 0
M  V30 2402 N 224.671 0.411399 1.52136 0
M  V30 2403 C 225.601 -0.404015 2.29978 0
M  V30 2404 C 226.582 -1.04412 1.34284 0
M  V30 2405 O 227.767 -1.0527 1.63192 0
M  V30 2406 C 224.897 -1.5197 3.12286 0
M  V30 2407 C 223.851 -1.00448 4.16046 0
M  V30 2408 C 223.177 -2.21393 4.86712 0
M  V30 2409 C 224.477 -0.0569336 5.22269 0
M  V30 2410 H 226.171 0.245529 2.98392 0
M  V30 2411 H 223.717 0.119525 1.43503 0
M  V30 2412 H 225.67 -2.09715 3.6551 0
M  V30 2413 H 224.394 -2.19716 2.41646 0
M  V30 2414 H 223.053 -0.449421 3.63835 0
M  V30 2415 H 222.701 -2.87699 4.12599 0
M  V30 2416 H 222.401 -1.87571 5.56858 0
M  V30 2417 H 223.925 -2.7974 5.4275 0
M  V30 2418 H 225.339 -0.54325 5.7072 0
M  V30 2419 H 223.736 0.192594 5.99791 0
M  V30 2420 H 224.806 0.887663 4.76706 0
M  V30 2421 N 226.149 -1.5696 0.141893 0
M  V30 2422 C 227.112 -2.15316 -0.785587 0
M  V30 2423 C 228.112 -1.09366 -1.1788 0
M  V30 2424 O 229.302 -1.35031 -1.10056 0
M  V30 2425 C 226.434 -2.71211 -2.06537 0
M  V30 2426 H 227.627 -2.98608 -0.278041 0
M  V30 2427 H 225.18 -1.5593 -0.107519 0
M  V30 2428 H 225.915 -1.91571 -2.6167 0
M  V30 2429 H 225.7 -3.4872 -1.79268 0
M  V30 2430 H 227.19 -3.16189 -2.72789 0
M  V30 2431 N 227.627 0.131896 -1.57047 0
M  V30 2432 C 229.043 0.485031 -1.52051 0
M  V30 2433 C 229.243 1.82563 -0.85281 0
M  V30 2434 O 228.299 2.48817 -0.429694 0
M  V30 2435 C 229.612 0.481409 -2.96821 0
M  V30 2436 C 231.16 0.565868 -3.07842 0
M  V30 2437 C 231.635 0.592762 -4.54148 0
M  V30 2438 N 233.126 0.654564 -4.58552 0
M  V30 2439 C 233.861 0.696608 -5.69153 0
M  V30 2440 N 233.357 0.697078 -6.89284 0
M  V30 2441 N 235.15 0.738639 -5.57226 0
M  V30 2442 H 227.301 -0.746664 -1.98843 0
M  V30 2443 H 229.564 -0.273999 -0.90754 0
M  V30 2444 H 229.27 -0.435731 -3.4899 0
M  V30 2445 H 229.144 1.3139 -3.53577 0
M  V30 2446 H 231.531 1.47343 -2.55684 0
M  V30 2447 H 231.612 -0.29406 -2.54104 0
M  V30 2448 H 231.256 -0.310701 -5.06949 0
M  V30 2449 H 231.186 1.46939 -5.05684 0
M  V30 2450 H 233.677 0.660887 -3.72076 0
M  V30 2451 H 233.99 0.731426 -7.69331 0
M  V30 2452 H 232.335 0.66471 -6.91814 0
M  V30 2453 H 235.526 0.735545 -4.62285 0
M  V30 2454 H 235.699 0.767938 -6.43434 0
M  V30 2455 N 229.106 1.52395 0.401703 0
M  V30 2456 C 230.346 1.68498 1.15705 0
M  V30 2457 C 230.71 0.409748 1.87577 0
M  V30 2458 O 231.911 0.446983 2.65058 0
M  V30 2459 C 230.182 2.87789 2.11924 0
M  V30 2460 S 231.741 3.24415 2.95466 0
M  V30 2461 H 228.559 0.593267 0.391862 0
M  V30 2462 H 231.161 1.90408 0.443282 0
M  V30 2463 H 229.865 3.7884 1.57824 0
M  V30 2464 H 229.396 2.68175 2.87829 0
M  V30 2465 H 231.411 2.73614 4.13944 0
M  V30 2466 N 230.584 -0.659388 1.43143 0
M  V30 2467 C 231.547 -1.75432 1.47501 0
M  V30 2468 C 232.547 -1.56707 0.360512 0
M  V30 2469 O 233.737 -1.62717 0.622002 0
M  V30 2470 C 230.869 -3.14239 1.32162 0
M  V30 2471 H 232.062 -1.7295 2.45006 0
M  V30 2472 H 229.615 -0.870469 1.29817 0
M  V30 2473 H 230.35 -3.22336 0.356401 0
M  V30 2474 H 230.135 -3.29235 2.12948 0
M  V30 2475 H 231.625 -3.94094 1.3813 0
M  V30 2476 N 232.062 -1.29571 -0.897171 0
M  V30 2477 C 232.992 -1.17473 -2.01798 0
M  V30 2478 C 233.973 -0.068323 -1.69963 0
M  V30 2479 O 235.158 -0.248239 -1.92607 0
M  V30 2480 C 232.288 -0.853099 -3.36659 0
M  V30 2481 C 231.242 -1.9161 -3.82713 0
M  V30 2482 C 230.568 -1.44773 -5.14728 0
M  V30 2483 C 231.868 -3.32535 -4.02763 0
M  V30 2484 H 233.562 -2.11237 -2.12177 0
M  V30 2485 H 231.108 -1.01699 -1.01948 0
M  V30 2486 H 233.061 -0.755165 -4.14578 0
M  V30 2487 H 231.785 0.120236 -3.26379 0
M  V30 2488 H 230.444 -2.00346 -3.07013 0
M  V30 2489 H 230.092 -0.462995 -5.00865 0
M  V30 2490 H 229.792 -2.15865 -5.46513 0
M  V30 2491 H 231.316 -1.36334 -5.95185 0
M  V30 2492 H 232.73 -3.26626 -4.71156 0
M  V30 2493 H 231.127 -4.01607 -4.45905 0
M  V30 2494 H 232.197 -3.75326 -3.07016 0
M  V30 2495 N 233.54 1.10788 -1.12088 0
M  V30 2496 C 234.787 1.82671 -0.873931 0
M  V30 2497 C 235.115 1.85004 0.600311 0
M  V30 2498 O 234.37 1.30365 1.45957 0
M  V30 2499 C 234.669 3.29294 -1.38926 0
M  V30 2500 C 234.335 3.47113 -2.87791 0
M  V30 2501 C 232.997 3.51684 -3.28439 0
M  V30 2502 C 235.349 3.52808 -3.83635 0
M  V30 2503 C 232.677 3.59513 -4.63646 0
M  V30 2504 C 235.029 3.62169 -5.18668 0
M  V30 2505 C 233.693 3.65003 -5.58864 0
M  V30 2506 H 232.963 0.668441 -0.319794 0
M  V30 2507 H 235.61 1.30613 -1.40045 0
M  V30 2508 H 233.915 3.83894 -0.783122 0
M  V30 2509 H 235.612 3.83416 -1.17443 0
M  V30 2510 H 232.202 3.4423 -2.5535 0
M  V30 2511 H 236.386 3.4853 -3.53328 0
M  V30 2512 H 231.642 3.59987 -4.94185 0
M  V30 2513 H 235.816 3.6552 -5.92763 0
M  V30 2514 H 233.443 3.70822 -6.63623 0
M  V30 2515 N 235.018 0.912232 1.28515 0
M  V30 2516 C 236.264 0.545405 1.95328 0
M  V30 2517 C 236.597 -0.908313 1.71649 0
M  V30 2518 O 235.872 -1.64575 1.03659 0
M  V30 2519 C 236.155 0.853483 3.4984 0
M  V30 2520 C 236.008 2.35982 3.82926 0
M  V30 2521 C 237.327 0.348589 4.38717 0
M  V30 2522 H 234.446 0.199626 0.709449 0
M  V30 2523 H 237.088 1.1412 1.5191 0
M  V30 2524 H 235.238 0.34643 3.86952 0
M  V30 2525 H 236.91 2.93738 3.55691 0
M  V30 2526 H 235.153 2.81543 3.30024 0
M  V30 2527 H 235.824 2.52593 4.90816 0
M  V30 2528 H 238.3 0.78294 4.08668 0
M  V30 2529 H 237.176 0.593242 5.45685 0
M  V30 2530 H 237.437 -0.751049 4.35674 0
M  V30 2531 N 236.496 -1.42363 0.676048 0
M  V30 2532 C 237.426 -2.33497 0.0124832 0
M  V30 2533 C 238.407 -1.50748 -0.787981 0
M  V30 2534 O 239.592 -1.79346 -0.744884 0
M  V30 2535 C 236.722 -3.34377 -0.938582 0
M  V30 2536 C 235.676 -4.27289 -0.246622 0
M  V30 2537 C 235.002 -5.18386 -1.31071 0
M  V30 2538 C 236.302 -5.14916 0.875125 0
M  V30 2539 H 237.996 -2.89233 0.773593 0
M  V30 2540 H 235.542 -1.39073 0.37346 0
M  V30 2541 H 237.495 -3.97044 -1.41188 0
M  V30 2542 H 236.219 -2.76947 -1.73113 0
M  V30 2543 H 234.878 -3.66018 0.206456 0
M  V30 2544 H 234.526 -4.57282 -2.09528 0
M  V30 2545 H 234.226 -5.81378 -0.852839 0
M  V30 2546 H 235.75 -5.83929 -1.78492 0
M  V30 2547 H 237.164 -5.71262 0.482983 0
M  V30 2548 H 235.561 -5.86747 1.25887 0
M  V30 2549 H 236.631 -4.53242 1.72335 0
M  V30 2550 N 237.974 -0.419461 -1.51915 0
M  V30 2551 C 239.22 0.153166 -2.02221 0
M  V30 2552 C 239.553 1.43907 -1.30401 0
M  V30 2553 O 238.828 1.90055 -0.413438 0
M  V30 2554 C 239.111 0.390291 -3.57979 0
M  V30 2555 C 238.964 -0.913014 -4.40436 0
M  V30 2556 C 240.283 1.16794 -4.2432 0
M  V30 2557 H 237.402 0.0541924 -0.735005 0
M  V30 2558 H 240.044 -0.554955 -1.81715 0
M  V30 2559 H 238.194 0.993491 -3.75582 0
M  V30 2560 H 239.866 -1.54882 -4.34522 0
M  V30 2561 H 238.109 -1.52168 -4.06236 0
M  V30 2562 H 238.78 -0.701361 -5.47526 0
M  V30 2563 H 241.256 0.657161 -4.10878 0
M  V30 2564 H 240.132 1.3026 -5.3322 0
M  V30 2565 H 240.393 2.19132 -3.83971 0
M  V30 2566 N 239.452 1.56882 -0.150215 0
M  V30 2567 C 240.415 2.1573 0.774157 0
M  V30 2568 C 241.415 1.0999 1.17298 0
M  V30 2569 O 242.605 1.35613 1.09338 0
M  V30 2570 C 239.737 2.72302 2.05096 0
M  V30 2571 H 240.93 2.98752 0.262201 0
M  V30 2572 H 238.483 1.55985 0.099248 0
M  V30 2573 H 239.218 1.92956 2.6065 0
M  V30 2574 H 239.003 3.49665 1.77416 0
M  V30 2575 H 240.493 3.17632 2.71109 0
M  V30 2576 N 240.93 -0.123565 1.57115 0
M  V30 2577 C 242.341 -0.681198 1.73829 0
M  V30 2578 C 242.692 -1.80535 0.768214 0
M  V30 2579 O 241.817 -2.16317 -0.0599103 0
M  V30 2580 C 242.412 -1.24246 3.15196 0
M  V30 2581 C 240.971 -1.74643 3.33432 0
M  V30 2582 C 240.118 -0.644284 2.69711 0
M  V30 2583 H 243.069 0.102315 1.5837 0
M  V30 2584 H 243.09 -2.11216 3.16493 0
M  V30 2585 H 242.602 -0.424062 3.85776 0
M  V30 2586 H 240.703 -2.58974 2.67886 0
M  V30 2587 H 240.816 -1.85902 4.41562 0
M  V30 2588 H 239.18 -1.07676 2.3082 0
M  V30 2589 H 239.963 0.163058 3.42913 0
M  V30 2590 N 242.408 -1.52605 -0.393616 0
M  V30 2591 C 243.633 -1.71592 -1.16495 0
M  V30 2592 C 244.058 -0.43133 -1.83088 0
M  V30 2593 O 243.416 0.612523 -1.7064 0
M  V30 2594 C 243.464 -2.86318 -2.19213 0
M  V30 2595 O 242.568 -2.52969 -3.257 0
M  V30 2596 H 241.909 -0.570734 -0.33935 0
M  V30 2597 H 244.439 -1.99377 -0.459324 0
M  V30 2598 H 244.449 -3.1168 -2.63286 0
M  V30 2599 H 243.124 -3.79511 -1.7013 0
M  V30 2600 H 241.701 -2.38332 -2.86797 0
M  V30 2601 N 243.887 0.651787 -1.4349 0
M  V30 2602 C 245.127 1.42345 -1.46688 0
M  V30 2603 C 245.491 1.91793 -0.0891023 0
M  V30 2604 O 246.692 2.688 0.00423594 0
M  V30 2605 C 244.963 2.57221 -2.48137 0
M  V30 2606 S 246.522 3.45725 -2.70221 0
M  V30 2607 H 243.34 0.485878 -0.51908 0
M  V30 2608 H 245.942 0.756578 -1.80267 0
M  V30 2609 H 244.646 2.1917 -3.46976 0
M  V30 2610 H 244.177 3.28757 -2.16061 0
M  V30 2611 H 246.192 4.53996 -2.00255 0
M  V30 2612 N 245.365 1.30045 0.890287 0
M  V30 2613 C 246.328 1.15963 1.977 0
M  V30 2614 C 247.328 0.0923777 1.60534 0
M  V30 2615 O 248.518 0.340071 1.70848 0
M  V30 2616 C 245.65 0.775451 3.31963 0
M  V30 2617 H 246.843 2.12502 2.11619 0
M  V30 2618 H 244.396 1.13366 1.07601 0
M  V30 2619 H 245.131 -0.189671 3.23745 0
M  V30 2620 H 244.916 1.54668 3.60306 0
M  V30 2621 H 246.406 0.700251 4.11687 0
M  V30 2622 N 246.843 -1.10192 1.12674 0
M  V30 2623 C 248.073 -1.85713 0.905213 0
M  V30 2624 C 248.481 -1.81056 -0.549108 0
M  V30 2625 O 247.824 -1.19927 -1.39151 0
M  V30 2626 C 247.886 -3.34972 1.30516 0
M  V30 2627 C 247.55 -3.63385 2.77129 0
M  V30 2628 C 248.547 -3.59772 3.75313 0
M  V30 2629 C 246.232 -3.91981 3.14096 0
M  V30 2630 C 248.226 -3.84354 5.08479 0
M  V30 2631 C 245.913 -4.16218 4.47443 0
M  V30 2632 C 246.911 -4.12395 5.44444 0
M  V30 2633 O 246.599 -4.36014 6.75387 0
M  V30 2634 H 246.331 -0.593719 0.323223 0
M  V30 2635 H 248.885 -1.40198 1.50112 0
M  V30 2636 H 247.115 -3.81156 0.652463 0
M  V30 2637 H 248.804 -3.91886 1.05736 0
M  V30 2638 H 249.57 -3.37716 3.48099 0
M  V30 2639 H 245.449 -3.94085 2.39202 0
M  V30 2640 H 248.993 -3.81285 5.84181 0
M  V30 2641 H 244.89 -4.37754 4.74386 0
M  V30 2642 H 245.658 -4.53516 6.8137 0
M  V30 2643 N 248.321 -0.919034 -1.28029 0
M  V30 2644 C 249.253 -0.368762 -2.26214 0
M  V30 2645 C 250.266 0.495716 -1.55069 0
M  V30 2646 O 251.455 0.30974 -1.75792 0
M  V30 2647 C 248.555 0.491049 -3.35324 0
M  V30 2648 C 247.728 -0.352133 -4.3598 0
M  V30 2649 C 246.787 0.443622 -5.24327 0
M  V30 2650 O 245.813 -0.14566 -5.69014 0
M  V30 2651 N 247.015 1.74545 -5.53637 0
M  V30 2652 H 249.78 -1.21273 -2.74068 0
M  V30 2653 H 247.341 -0.785541 -1.41566 0
M  V30 2654 H 249.333 1.03026 -3.91366 0
M  V30 2655 H 247.903 1.23574 -2.87138 0
M  V30 2656 H 247.123 -1.07269 -3.79324 0
M  V30 2657 H 248.411 -0.928883 -5.00249 0
M  V30 2658 H 247.809 2.24666 -5.19174 0
M  V30 2659 H 246.366 2.23138 -6.12416 0
M  V30 2660 N 249.799 1.42003 -0.683588 0
M  V30 2661 C 251.045 2.01712 -0.209825 0
M  V30 2662 C 251.378 1.53968 1.18353 0
M  V30 2663 O 250.653 0.745661 1.79639 0
M  V30 2664 C 250.936 3.59202 -0.254197 0
M  V30 2665 C 250.789 4.17102 -1.68363 0
M  V30 2666 C 252.108 4.38344 0.392709 0
M  V30 2667 H 249.227 0.732891 -0.0777189 0
M  V30 2668 H 251.869 1.68909 -0.87004 0
M  V30 2669 H 250.019 3.87278 0.307954 0
M  V30 2670 H 251.691 3.99946 -2.29871 0
M  V30 2671 H 249.934 3.72597 -2.22157 0
M  V30 2672 H 250.605 5.26249 -1.6663 0
M  V30 2673 H 253.081 4.16011 -0.0859162 0
M  V30 2674 H 251.957 5.47901 0.331063 0
M  V30 2675 H 252.218 4.16887 1.47164 0
M  V30 2676 N 251.277 0.427512 1.51691 0
M  V30 2677 C 252.517 -0.141524 2.03909 0
M  V30 2678 C 252.881 -1.40811 1.30523 0
M  V30 2679 O 254.082 -2.05676 1.73063 0
M  V30 2680 C 252.353 -0.364962 3.55532 0
M  V30 2681 S 253.912 -0.898812 4.29496 0
M  V30 2682 H 250.73 -0.0364542 0.710065 0
M  V30 2683 H 253.332 0.584659 1.86553 0
M  V30 2684 H 252.036 0.56336 4.06515 0
M  V30 2685 H 251.567 -1.1185 3.77164 0
M  V30 2686 H 253.582 -2.17747 4.45871 0
M  V30 2687 N 252.755 -1.56801 0.158532 0
M  V30 2688 C 254.003 -1.96102 -0.488712 0
M  V30 2689 C 254.324 -1.04498 -1.64636 0
M  V30 2690 O 253.594 -0.108783 -1.95598 0
M  V30 2691 H 252.174 -0.724102 -0.183535 0
M  V30 2692 H 254.836 -1.93457 0.236728 0
M  V30 2693 H 253.932 -3.00097 -0.857219 0
M  V30 2694 N 254.233 0.115231 -1.57178 0
M  V30 2695 C 255.644 0.67197 -1.74188 0
M  V30 2696 C 255.995 1.80125 -0.777777 0
M  V30 2697 O 255.12 2.16346 0.0484376 0
M  V30 2698 C 255.715 1.22573 -3.1585 0
M  V30 2699 C 254.274 1.72872 -3.34353 0
M  V30 2700 C 253.421 0.629972 -2.70049 0
M  V30 2701 H 256.372 -0.110712 -1.58313 0
M  V30 2702 H 256.393 2.09535 -3.17609 0
M  V30 2703 H 255.905 0.403598 -3.85996 0
M  V30 2704 H 254.006 2.5755 -2.69256 0
M  V30 2705 H 254.119 1.83557 -4.42542 0
M  V30 2706 H 252.483 1.0645 -2.31388 0
M  V30 2707 H 253.266 -0.181241 -3.42821 0
M  V30 2708 N 255.711 1.52812 0.385517 0
M  V30 2709 C 257.122 1.5993 0.963293 0
M  V30 2710 C 257.473 0.454302 1.90868 0
M  V30 2711 O 256.598 -0.422132 2.12243 0
M  V30 2712 C 257.193 2.89871 1.75387 0
M  V30 2713 C 255.752 2.99389 2.28129 0
M  V30 2714 C 254.899 2.55071 1.08783 0
M  V30 2715 H 257.85 1.5784 0.164948 0
M  V30 2716 H 257.871 2.76553 2.61341 0
M  V30 2717 H 257.383 3.73186 1.06554 0
M  V30 2718 H 255.484 2.20619 3.00263 0
M  V30 2719 H 255.597 4.04096 2.57377 0
M  V30 2720 H 253.961 2.09473 1.4489 0
M  V30 2721 H 254.744 3.40785 0.414807 0
M  V30 2722 N 257.189 -0.644168 1.43834 0
M  V30 2723 C 258.119 -1.76814 1.52509 0
M  V30 2724 C 259.1 -1.65823 0.379052 0
M  V30 2725 O 260.285 -1.84781 0.597466 0
M  V30 2726 C 257.415 -3.15288 1.4564 0
M  V30 2727 C 256.369 -3.41053 2.58586 0
M  V30 2728 C 255.695 -4.79421 2.36769 0
M  V30 2729 C 256.995 -3.34902 4.00797 0
M  V30 2730 H 258.689 -1.69812 2.46586 0
M  V30 2731 H 256.235 -0.815542 1.1868 0
M  V30 2732 H 258.188 -3.93681 1.50311 0
M  V30 2733 H 256.912 -3.23043 0.480725 0
M  V30 2734 H 255.571 -2.65035 2.53282 0
M  V30 2735 H 255.219 -4.83863 1.37424 0
M  V30 2736 H 254.919 -4.9762 3.12487 0
M  V30 2737 H 256.443 -5.6006 2.43238 0
M  V30 2738 H 257.857 -4.03218 4.07539 0
M  V30 2739 H 256.254 -3.64637 4.76613 0
M  V30 2740 H 257.324 -2.32928 4.25291 0
M  V30 2741 N 258.668 -1.30515 -0.883378 0
M  V30 2742 C 259.898 -1.22182 -1.66599 0
M  V30 2743 C 260.306 0.217507 -1.87946 0
M  V30 2744 O 259.649 1.1554 -1.42815 0
M  V30 2745 C 259.711 -1.88146 -3.06335 0
M  V30 2746 C 259.375 -3.37476 -3.08154 0
M  V30 2747 C 260.372 -4.33443 -2.87094 0
M  V30 2748 C 258.057 -3.7895 -3.29701 0
M  V30 2749 C 260.051 -5.68858 -2.8754 0
M  V30 2750 C 257.738 -5.14482 -3.29776 0
M  V30 2751 C 258.736 -6.09246 -3.0872 0
M  V30 2752 O 258.424 -7.42302 -3.08615 0
M  V30 2753 H 258.156 -0.423898 -0.52658 0
M  V30 2754 H 260.71 -1.72703 -1.11188 0
M  V30 2755 H 258.94 -1.32157 -3.63416 0
M  V30 2756 H 260.629 -1.7391 -3.66756 0
M  V30 2757 H 261.395 -4.02733 -2.70243 0
M  V30 2758 H 257.274 -3.05631 -3.45124 0
M  V30 2759 H 260.818 -6.428 -2.71024 0
M  V30 2760 H 256.715 -5.44832 -3.46163 0
M  V30 2761 H 257.483 -7.5131 -3.24769 0
M  V30 2762 N 260.146 1.09593 -1.13257 0
M  V30 2763 C 261.078 2.16015 -0.766167 0
M  V30 2764 C 262.091 1.61423 0.211303 0
M  V30 2765 O 263.28 1.78498 -0.00863946 0
M  V30 2766 C 260.38 3.38706 -0.114662 0
M  V30 2767 C 259.553 4.22717 -1.12379 0
M  V30 2768 C 258.612 5.23835 -0.498301 0
M  V30 2769 O 257.638 5.573 -1.15781 0
M  V30 2770 N 258.84 5.75886 0.730417 0
M  V30 2771 H 261.605 2.48055 -1.68193 0
M  V30 2772 H 259.166 1.25292 -1.02535 0
M  V30 2773 H 261.158 4.03464 0.315991 0
M  V30 2774 H 259.728 3.04569 0.704011 0
M  V30 2775 H 258.948 3.54122 -1.73179 0
M  V30 2776 H 260.236 4.75673 -1.80589 0
M  V30 2777 H 259.634 5.50911 1.28504 0
M  V30 2778 H 258.191 6.42387 1.10376 0
M  V30 2779 N 261.624 0.925811 1.2754 0
M  V30 2780 C 262.554 0.440748 2.29303 0
M  V30 2781 C 263.535 -0.497971 1.62648 0
M  V30 2782 O 264.72 -0.403126 1.8997 0
M  V30 2783 C 261.85 -0.309048 3.45922 0
M  V30 2784 C 260.804 0.54166 4.24559 0
M  V30 2785 C 260.13 -0.337191 5.33636 0
M  V30 2786 C 261.43 1.80516 4.90114 0
M  V30 2787 H 263.124 1.29121 2.70126 0
M  V30 2788 H 260.67 0.622323 1.29858 0
M  V30 2789 H 262.623 -0.659315 4.1621 0
M  V30 2790 H 261.347 -1.19352 3.04011 0
M  V30 2791 H 260.006 0.874609 3.56014 0
M  V30 2792 H 259.654 -1.22056 4.87966 0
M  V30 2793 H 259.354 0.228497 5.87156 0
M  V30 2794 H 260.878 -0.683072 6.06767 0
M  V30 2795 H 262.292 1.52307 5.52698 0
M  V30 2796 H 260.689 2.3142 5.53683 0
M  V30 2797 H 261.759 2.52581 4.13921 0
M  V30 2798 N 263.102 -1.41638 0.69111 0
M  V30 2799 C 264.35 -2.00902 0.219758 0
M  V30 2800 C 264.671 -1.54994 -1.18329 0
M  V30 2801 O 263.941 -0.778628 -1.79762 0
M  V30 2802 H 262.521 -0.74289 0.0782558 0
M  V30 2803 H 265.183 -1.73327 0.891271 0
M  V30 2804 H 264.279 -3.11224 0.233708 0
M  V30 2805 N 264.58 -0.43555 -1.51462 0
M  V30 2806 C 265.543 0.365137 -2.26273 0
M  V30 2807 C 266.543 0.951227 -1.29647 0
M  V30 2808 O 267.733 0.825958 -1.53374 0
M  V30 2809 C 264.865 1.51645 -3.05314 0
M  V30 2810 H 266.058 -0.290474 -2.9849 0
M  V30 2811 H 263.611 -0.188676 -1.55157 0
M  V30 2812 H 264.346 2.20816 -2.3751 0
M  V30 2813 H 264.131 1.10238 -3.76284 0
M  V30 2814 H 265.621 2.08218 -3.61987 0
M  V30 2815 N 266.058 1.56714 -0.166846 0
M  V30 2816 C 267.021 2.16539 0.751232 0
M  V30 2817 C 268.021 1.11228 1.16125 0
M  V30 2818 O 269.211 1.36765 1.07894 0
M  V30 2819 C 266.343 2.74462 2.02196 0
M  V30 2820 H 267.536 2.99013 0.230499 0
M  V30 2821 H 265.089 1.56081 0.0826982 0
M  V30 2822 H 265.824 1.95709 2.58589 0
M  V30 2823 H 265.609 3.51527 1.73698 0
M  V30 2824 H 267.099 3.20489 2.67725 0
M  V30 2825 N 267.536 -0.106894 1.57237 0
M  V30 2826 C 268.764 -0.826389 1.8968 0
M  V30 2827 C 269.179 -1.72856 0.759353 0
M  V30 2828 O 268.536 -1.80503 -0.269263 0
M  V30 2829 C 268.587 -1.64967 3.21665 0
M  V30 2830 O 268.308 -0.783804 4.31031 0
M  V30 2831 C 269.809 -2.47326 3.67892 0
M  V30 2832 H 267.029 -0.236927 0.627779 0
M  V30 2833 H 269.573 -0.0876593 2.04312 0
M  V30 2834 H 267.728 -2.34103 3.08666 0
M  V30 2835 H 268.142 -1.35284 5.06753 0
M  V30 2836 H 269.616 -3.00604 4.6297 0
M  V30 2837 H 270.093 -3.25247 2.95146 0
M  V30 2838 H 270.699 -1.83411 3.83719 0
M  V30 2839 N 269.014 -1.53014 -0.377408 0
M  V30 2840 C 269.946 -1.74884 -1.48149 0
M  V30 2841 C 270.959 -0.629433 -1.5014 0
M  V30 2842 O 272.148 -0.905416 -1.53833 0
M  V30 2843 C 269.248 -1.80299 -2.86959 0
M  V30 2844 C 268.421 -3.09776 -3.08801 0
M  V30 2845 C 267.48 -3.06586 -4.27658 0
M  V30 2846 O 266.506 -3.80419 -4.23403 0
M  V30 2847 N 267.708 -2.26578 -5.34455 0
M  V30 2848 H 270.473 -2.70147 -1.29771 0
M  V30 2849 H 268.034 -1.51646 -0.56703 0
M  V30 2850 H 270.026 -1.75657 -3.64591 0
M  V30 2851 H 268.596 -0.92372 -2.98641 0
M  V30 2852 H 267.816 -3.27815 -2.18931 0
M  V30 2853 H 269.104 -3.95366 -3.20255 0
M  V30 2854 H 268.502 -1.66081 -5.40771 0
M  V30 2855 H 267.059 -2.27766 -6.10709 0
M  V30 2856 N 270.492 0.636531 -1.44174 0
M  V30 2857 C 271.455 1.73063 -1.50273 0
M  V30 2858 C 272.455 1.56113 -0.385397 0
M  V30 2859 O 273.645 1.61707 -0.64781 0
M  V30 2860 C 270.777 3.12096 -1.37145 0
M  V30 2861 H 271.97 1.69031 -2.47727 0
M  V30 2862 H 269.523 0.849706 -1.31186 0
M  V30 2863 H 270.258 3.21728 -0.407636 0
M  V30 2864 H 270.043 3.25805 -2.18159 0
M  V30 2865 H 271.533 3.91846 -1.44382 0
M  V30 2866 N 271.97 1.30982 0.876444 0
M  V30 2867 C 273.386 1.09498 1.16113 0
M  V30 2868 C 273.586 -0.13875 2.01022 0
M  V30 2869 O 272.642 -0.829935 2.38471 0
M  V30 2870 C 273.955 2.36308 1.85954 0
M  V30 2871 C 275.503 2.41856 1.98683 0
M  V30 2872 C 275.978 3.6853 2.71937 0
M  V30 2873 N 277.469 3.69387 2.79477 0
M  V30 2874 C 278.204 4.64096 3.36753 0
M  V30 2875 N 277.7 5.69155 3.95012 0
M  V30 2876 N 279.493 4.51626 3.3465 0
M  V30 2877 H 271.644 2.10118 0.310494 0
M  V30 2878 H 273.907 0.926634 0.200131 0
M  V30 2879 H 273.613 3.26388 1.31011 0
M  V30 2880 H 273.487 2.4561 2.86278 0
M  V30 2881 H 275.874 1.52249 2.52793 0
M  V30 2882 H 275.955 2.36523 0.9742 0
M  V30 2883 H 275.599 4.58499 2.18496 0
M  V30 2884 H 275.529 3.71127 3.73593 0
M  V30 2885 H 278.02 2.93438 2.38123 0
M  V30 2886 H 278.333 6.3751 4.36808 0
M  V30 2887 H 276.678 5.72937 3.93406 0
M  V30 2888 H 279.869 3.68728 2.8837 0
M  V30 2889 H 280.042 5.25614 3.7899 0
M  V30 2890 N 273.449 -1.08991 1.13837 0
M  V30 2891 C 274.86 -1.62746 0.914917 0
M  V30 2892 C 275.211 -1.88403 -0.547594 0
M  V30 2893 O 274.336 -1.63706 -1.41525 0
M  V30 2894 C 274.931 -2.95662 1.65437 0
M  V30 2895 C 273.49 -3.46225 1.47666 0
M  V30 2896 C 272.637 -2.20562 1.6807 0
M  V30 2897 H 275.588 -0.922946 1.29102 0
M  V30 2898 H 275.609 -3.63825 1.11407 0
M  V30 2899 H 275.121 -2.76956 2.71877 0
M  V30 2900 H 273.222 -3.70046 0.435478 0
M  V30 2901 H 273.335 -4.23368 2.24268 0
M  V30 2902 H 271.699 -2.29439 1.10589 0
M  V30 2903 H 272.482 -2.0437 2.7584 0
M  V30 2904 N 274.927 -0.932562 -1.27047 0
M  V30 2905 C 276.338 -0.619451 -1.76124 0
M  V30 2906 C 276.689 0.865397 -1.76083 0
M  V30 2907 O 275.814 1.67722 -1.36742 0
M  V30 2908 C 276.409 -1.11771 -3.19832 0
M  V30 2909 C 274.968 -0.855174 -3.66557 0
M  V30 2910 C 274.115 -1.27362 -2.46321 0
M  V30 2911 H 277.066 -1.11181 -1.13245 0
M  V30 2912 H 277.087 -0.46759 -3.77616 0
M  V30 2913 H 276.599 -2.19842 -3.1983 0
M  V30 2914 H 274.7 0.211524 -3.71999 0
M  V30 2915 H 274.813 -1.47613 -4.55793 0
M  V30 2916 H 273.177 -0.692119 -2.45116 0
M  V30 2917 H 273.96 -2.36307 -2.49025 0
M  V30 2918 N 276.405 1.4127 -0.698611 0
M  V30 2919 C 277.816 1.84187 -0.305289 0
M  V30 2920 C 278.167 1.58449 1.15708 0
M  V30 2921 O 277.292 1.05651 1.88856 0
M  V30 2922 C 277.887 3.3435 -0.547314 0
M  V30 2923 C 276.446 3.75826 -0.207878 0
M  V30 2924 C 275.593 2.64647 -0.828099 0
M  V30 2925 H 278.544 1.30778 -0.89904 0
M  V30 2926 H 278.565 3.8001 0.192998 0
M  V30 2927 H 278.077 3.53051 -1.61172 0
M  V30 2928 H 276.178 3.62725 0.852143 0
M  V30 2929 H 276.291 4.74462 -0.665021 0
M  V30 2930 H 274.655 2.53395 -0.257458 0
M  V30 2931 H 275.438 2.86165 -1.89643 0
M  V30 2932 N 277.883 0.443576 1.51229 0
M  V30 2933 C 278.833 -0.382787 2.24764 0
M  V30 2934 C 279.817 -0.984836 1.27239 0
M  V30 2935 O 281.009 -0.901943 1.52296 0
M  V30 2936 C 278.138 -1.47989 3.09765 0
M  V30 2937 C 277.224 -0.886931 4.14722 0
M  V30 2938 N 277.615 -0.0237103 5.05794 0
M  V30 2939 C 275.913 -1.15385 4.30816 0
M  V30 2940 C 276.614 0.309971 5.80874 0
M  V30 2941 N 275.59 -0.307989 5.42727 0
M  V30 2942 H 279.392 0.282624 2.92538 0
M  V30 2943 H 276.906 0.256027 1.60369 0
M  V30 2944 H 278.903 -2.08482 3.61027 0
M  V30 2945 H 277.563 -2.14758 2.43535 0
M  V30 2946 H 278.574 0.34318 5.16762 0
M  V30 2947 H 275.251 -1.81857 3.75812 0
M  V30 2948 H 276.641 1.01279 6.64223 0
M  V30 2949 N 279.361 -1.56624 0.175154 0
M  V30 2950 C 280.324 -2.16934 -0.739738 0
M  V30 2951 C 281.324 -1.11842 -1.15533 0
M  V30 2952 O 282.514 -1.37335 -1.07167 0
M  V30 2953 C 279.646 -2.75531 -2.00738 0
M  V30 2954 H 280.839 -2.99131 -0.214639 0
M  V30 2955 H 278.392 -1.56123 -0.0744197 0
M  V30 2956 H 279.127 -1.97078 -2.57548 0
M  V30 2957 H 278.912 -3.52444 -1.71831 0
M  V30 2958 H 280.402 -3.21904 -2.66021 0
M  V30 2959 N 280.839 0.0985539 -1.57292 0
M  V30 2960 C 282.064 0.820196 -1.90493 0
M  V30 2961 C 282.489 1.71658 -0.769094 0
M  V30 2962 O 281.847 1.79133 0.279495 0
M  V30 2963 C 281.895 1.61242 -3.22542 0
M  V30 2964 O 280.999 2.72108 -3.09888 0
M  V30 2965 H 280.34 0.225547 -0.62452 0
M  V30 2966 H 282.87 0.0748159 -2.04463 0
M  V30 2967 H 282.88 1.99737 -3.55766 0
M  V30 2968 H 281.555 0.954535 -4.04798 0
M  V30 2969 H 280.132 2.36667 -2.88172 0
M  V30 2970 N 282.317 1.53212 0.369288 0
M  V30 2971 C 283.565 1.68881 1.11012 0
M  V30 2972 C 283.886 0.441285 1.89941 0
M  V30 2973 O 283.156 -0.544623 1.88177 0
M  V30 2974 H 281.736 0.622569 0.412816 0
M  V30 2975 H 284.398 1.90391 0.416802 0
M  V30 2976 H 283.494 2.54822 1.80201 0
M  V30 2977 N 283.795 -0.628877 1.44509 0
M  V30 2978 C 285.206 -1.21054 1.42137 0
M  V30 2979 C 285.557 -1.95715 0.137881 0
M  V30 2980 O 284.682 -2.02554 -0.761645 0
M  V30 2981 C 285.277 -2.20189 2.57493 0
M  V30 2982 C 283.836 -2.73777 2.58308 0
M  V30 2983 C 282.983 -1.48813 2.33987 0
M  V30 2984 H 285.934 -0.41942 1.53057 0
M  V30 2985 H 285.955 -3.02833 2.30375 0
M  V30 2986 H 285.467 -1.6582 3.50892 0
M  V30 2987 H 283.568 -3.32142 1.68856 0
M  V30 2988 H 283.681 -3.19662 3.56865 0
M  V30 2989 H 282.045 -1.77024 1.83124 0
M  V30 2990 H 282.828 -0.963442 3.29504 0
M  V30 2991 N 285.273 -1.31445 -0.869486 0
M  V30 2992 C 286.689 -1.10113 -1.15531 0
M  V30 2993 C 286.889 0.128087 -2.01092 0
M  V30 2994 O 285.945 0.817276 -2.38908 0
M  V30 2995 C 287.258 -2.37291 -1.84698 0
M  V30 2996 C 288.806 -2.42906 -1.97397 0
M  V30 2997 C 289.281 -3.69967 -2.69979 0
M  V30 2998 N 290.772 -3.70864 -2.77514 0
M  V30 2999 C 291.507 -4.65875 -3.34287 0
M  V30 3000 N 291.003 -5.71242 -3.91988 0
M  V30 3001 N 292.796 -4.53394 -3.3225 0
M  V30 3002 H 284.947 -2.1028 -0.299347 0
M  V30 3003 H 287.21 -0.927683 -0.195214 0
M  V30 3004 H 286.916 -3.27078 -1.29278 0
M  V30 3005 H 286.79 -2.47125 -2.84972 0
M  V30 3006 H 289.177 -1.53588 -2.51982 0
M  V30 3007 H 289.258 -2.37036 -0.961643 0
M  V30 3008 H 288.902 -4.59652 -2.16062 0
M  V30 3009 H 288.832 -3.73103 -3.7162 0
M  V30 3010 H 291.323 -2.94697 -2.36563 0
M  V30 3011 H 291.636 -6.39817 -4.33421 0
M  V30 3012 H 289.981 -5.75015 -3.90362 0
M  V30 3013 H 293.172 -3.70252 -2.8641 0
M  V30 3014 H 293.345 -5.27617 -3.76197 0
M  V30 3015 N 286.751 1.08385 -1.14413 0
M  V30 3016 C 288.167 1.32844 -0.884563 0
M  V30 3017 C 288.367 1.95841 0.474181 0
M  V30 3018 O 287.423 2.21158 1.21842 0
M  V30 3019 C 288.736 2.22978 -2.01745 0
M  V30 3020 C 290.284 2.36458 -2.05077 0
M  V30 3021 C 290.759 3.29934 -3.1766 0
M  V30 3022 N 292.25 3.37511 -3.17239 0
M  V30 3023 C 292.985 4.09871 -4.0099 0
M  V30 3024 N 292.481 4.84936 -4.94781 0
M  V30 3025 N 294.274 4.05704 -3.89051 0
M  V30 3026 H 286.425 0.658756 -2.01926 0
M  V30 3027 H 288.688 0.352821 -0.879899 0
M  V30 3028 H 288.394 1.83934 -2.99769 0
M  V30 3029 H 288.268 3.23441 -1.94077 0
M  V30 3030 H 290.655 2.7476 -1.0766 0
M  V30 3031 H 290.736 1.35736 -2.16816 0
M  V30 3032 H 290.38 2.92352 -4.15322 0
M  V30 3033 H 290.31 4.30584 -3.03158 0
M  V30 3034 H 292.801 2.83996 -2.49308 0
M  V30 3035 H 293.114 5.37612 -5.55151 0
M  V30 3036 H 291.459 4.83988 -4.98779 0
M  V30 3037 H 294.65 3.46167 -3.15097 0
M  V30 3038 H 294.823 4.61834 -4.54547 0
M  V30 3039 N 288.23 0.939286 1.26551 0
M  V30 3040 C 289.646 0.641304 1.46149 0
M  V30 3041 C 289.846 -0.805964 1.84679 0
M  V30 3042 O 288.902 -1.58278 1.96734 0
M  V30 3043 C 290.215 1.6011 2.54529 0
M  V30 3044 C 291.763 1.6106 2.68382 0
M  V30 3045 C 292.238 2.55765 3.79932 0
M  V30 3046 N 293.729 2.5404 3.87322 0
M  V30 3047 C 294.464 3.24004 4.73085 0
M  V30 3048 N 293.96 4.03388 5.63249 0
M  V30 3049 N 295.753 3.12965 4.66914 0
M  V30 3050 H 287.904 1.87478 0.998285 0
M  V30 3051 H 290.167 0.805559 0.499779 0
M  V30 3052 H 289.873 2.63412 2.33039 0
M  V30 3053 H 289.747 1.35171 3.52149 0
M  V30 3054 H 292.134 0.584835 2.89247 0
M  V30 3055 H 292.215 1.90053 1.71212 0
M  V30 3056 H 291.859 3.58458 3.5982 0
M  V30 3057 H 291.789 2.24063 4.76554 0
M  V30 3058 H 294.28 1.96396 3.22858 0
M  V30 3059 H 294.593 4.5373 6.25579 0
M  V30 3060 H 292.938 4.07489 5.63008 0
M  V30 3061 H 296.129 2.50432 3.95476 0
M  V30 3062 H 296.302 3.67759 5.33533 0
M  V30 3063 N 289.708 -1.40897 0.706093 0
M  V30 3064 C 290.638 -2.33418 0.0620085 0
M  V30 3065 C 291.619 -1.52385 -0.755827 0
M  V30 3066 O 292.804 -1.80886 -0.706674 0
M  V30 3067 C 289.934 -3.36293 -0.867445 0
M  V30 3068 C 288.888 -4.27716 -0.155932 0
M  V30 3069 C 288.214 -5.2105 -1.20046 0
M  V30 3070 C 289.514 -5.12944 0.984149 0
M  V30 3071 H 291.208 -2.87527 0.83477 0
M  V30 3072 H 288.754 -1.38249 0.402875 0
M  V30 3073 H 290.707 -3.99949 -1.32735 0
M  V30 3074 H 289.431 -2.80556 -1.67199 0
M  V30 3075 H 288.09 -3.65498 0.284047 0
M  V30 3076 H 287.738 -4.61624 -1.99781 0
M  V30 3077 H 287.438 -5.83056 -0.729328 0
M  V30 3078 H 288.962 -5.87584 -1.66066 0
M  V30 3079 H 290.376 -5.70109 0.604048 0
M  V30 3080 H 288.773 -5.83945 1.38304 0
M  V30 3081 H 289.843 -4.49485 1.81911 0
M  V30 3082 N 291.186 -0.45159 -1.50991 0
M  V30 3083 C 292.434 0.109857 -2.01801 0
M  V30 3084 C 292.755 1.41958 -1.3369 0
M  V30 3085 O 292.025 1.9003 -0.475951 0
M  V30 3086 H 290.605 0.0435884 -0.745727 0
M  V30 3087 H 293.267 -0.597557 -1.85514 0
M  V30 3088 H 292.363 0.275489 -3.10882 0
M  V30 3089 N 292.664 1.56529 -0.183458 0
M  V30 3090 C 293.904 1.99141 0.460667 0
M  V30 3091 C 294.268 1.06736 1.59597 0
M  V30 3092 O 295.469 1.38538 2.30349 0
M  V30 3093 C 293.74 3.45358 0.919939 0
M  V30 3094 S 295.299 4.09999 1.56354 0
M  V30 3095 H 292.117 0.695479 0.147748 0
M  V30 3096 H 294.719 1.93429 -0.283782 0
M  V30 3097 H 293.423 4.10315 0.0834208 0
M  V30 3098 H 292.954 3.54862 1.69814 0
M  V30 3099 H 294.969 4.06046 2.85203 0
M  V30 3100 N 294.142 -0.090211 1.57342 0
M  V30 3101 C 295.052 -1.12735 2.05738 0
M  V30 3102 C 296.068 -1.43557 0.983231 0
M  V30 3103 O 297.244 -1.54101 1.29672 0
M  V30 3104 C 294.309 -2.42659 2.47624 0
M  V30 3105 C 293.37 -2.18975 3.69254 0
M  V30 3106 C 292.603 -3.42704 4.09133 0
M  V30 3107 O 292.826 -4.51127 3.49057 0
M  V30 3108 O 291.76 -3.32003 5.02053 0
M  V30 3109 H 295.586 -0.746279 2.94388 0
M  V30 3110 H 293.171 -0.303064 1.46294 0
M  V30 3111 H 295.053 -3.19155 2.7517 0
M  V30 3112 H 293.728 -2.80182 1.62109 0
M  V30 3113 H 292.635 -1.40244 3.46818 0
M  V30 3114 H 293.968 -1.86342 4.55563 0
M  V30 3115 N 295.62 -1.53406 -0.361157 0
M  V30 3116 C 297.036 -1.43277 -0.703124 0
M  V30 3117 C 297.236 -0.575384 -1.9311 0
M  V30 3118 O 296.292 -0.0595362 -2.5243 0
M  V30 3119 C 297.605 -2.8653 -0.9122 0
M  V30 3120 C 299.153 -2.96191 -1.01193 0
M  V30 3121 C 299.628 -4.40514 -1.25345 0
M  V30 3122 N 301.119 -4.43962 -1.32105 0
M  V30 3123 C 301.854 -5.52746 -1.5251 0
M  V30 3124 N 301.35 -6.71567 -1.70203 0
M  V30 3125 N 303.143 -5.40331 -1.54916 0
M  V30 3126 H 295.294 -2.07654 0.446475 0
M  V30 3127 H 297.557 -0.937944 0.137715 0
M  V30 3128 H 297.263 -3.51605 -0.0816414 0
M  V30 3129 H 297.137 -3.30441 -1.81903 0
M  V30 3130 H 299.524 -2.31266 -1.83303 0
M  V30 3131 H 299.605 -2.55667 -0.0823929 0
M  V30 3132 H 299.249 -5.06014 -0.437346 0
M  V30 3133 H 299.179 -4.78614 -2.19627 0
M  V30 3134 H 301.67 -3.58332 -1.20028 0
M  V30 3135 H 301.983 -7.50241 -1.85359 0
M  V30 3136 H 300.328 -6.74545 -1.67373 0
M  V30 3137 H 303.519 -4.46465 -1.40663 0
M  V30 3138 H 303.692 -6.25173 -1.70477 0
M  V30 3139 N 297.098 0.621204 -1.44841 0
M  V30 3140 C 298.061 1.71459 -1.521 0
M  V30 3141 C 299.061 1.55696 -0.401933 0
M  V30 3142 O 300.251 1.61011 -0.664925 0
M  V30 3143 C 297.383 3.10624 -1.40447 0
M  V30 3144 H 298.576 1.66394 -2.49506 0
M  V30 3145 H 296.129 0.835745 -1.3208 0
M  V30 3146 H 296.864 3.21277 -0.441737 0
M  V30 3147 H 296.649 3.23473 -2.21602 0
M  V30 3148 H 298.139 3.90293 -1.4853 0
M  V30 3149 N 298.576 1.31904 0.862503 0
M  V30 3150 C 299.822 1.23207 1.61838 0
M  V30 3151 C 300.177 -0.206062 1.91293 0
M  V30 3152 O 299.47 -1.14162 1.53875 0
M  V30 3153 C 299.664 2.01713 2.95037 0
M  V30 3154 C 299.493 3.53014 2.78588 0
M  V30 3155 C 298.263 4.22359 2.77382 0
M  V30 3156 C 300.461 4.47819 2.52909 0
M  V30 3157 N 298.443 5.59766 2.52062 0
M  V30 3158 C 299.814 5.72947 2.36922 0
M  V30 3159 C 301.869 4.37162 2.38314 0
M  V30 3160 C 300.572 6.88623 2.07823 0
M  V30 3161 C 302.598 5.5263 2.10604 0
M  V30 3162 C 301.96 6.76752 1.95411 0
M  V30 3163 H 298.059 0.505984 0.596242 0
M  V30 3164 H 300.643 1.66179 1.01452 0
M  V30 3165 H 298.814 1.61098 3.53415 0
M  V30 3166 H 300.546 1.84975 3.59953 0
M  V30 3167 H 297.301 3.74401 2.90036 0
M  V30 3168 H 297.725 6.32135 2.42352 0
M  V30 3169 H 302.367 3.41857 2.48784 0
M  V30 3170 H 300.085 7.83948 1.9609 0
M  V30 3171 H 303.671 5.46307 2.00101 0
M  V30 3172 H 302.551 7.6459 1.74274 0
M  V30 3173 N 300.054 -1.07777 1.14986 0
M  V30 3174 C 301.002 -2.16964 0.838406 0
M  V30 3175 C 301.996 -1.68372 -0.186386 0
M  V30 3176 O 303.202 -1.79951 -0.0418465 0
M  V30 3177 H 299.577 -0.708006 0.253439 0
M  V30 3178 H 301.548 -2.40454 1.76704 0
M  V30 3179 C 300.297 -3.4604 0.339335 0
M  V30 3180 H 299.62 -3.83813 1.11927 0
M  V30 3181 H 301.06 -4.23698 0.160021 0
M  V30 3182 C 299.519 -3.23569 -0.938325 0
M  V30 3183 O 300.049 -3.47752 -2.01077 0
M  V30 3184 N 298.255 -2.77079 -0.876117 0
M  V30 3185 H 297.802 -2.576 -0.00322037 0
M  V30 3186 H 297.76 -2.62422 -1.73153 0
M  V30 3187 N 301.532 -0.945985 -1.26051 0
M  V30 3188 C 302.482 -0.430164 -2.23905 0
M  V30 3189 C 303.466 0.47579 -1.53704 0
M  V30 3190 O 304.658 0.310252 -1.7426 0
M  V30 3191 C 301.787 0.298957 -3.41996 0
M  V30 3192 C 300.873 -0.624566 -4.19476 0
M  V30 3193 N 301.264 -1.75245 -4.74471 0
M  V30 3194 C 299.562 -0.431082 -4.43912 0
M  V30 3195 C 300.263 -2.32834 -5.3307 0
M  V30 3196 N 299.239 -1.61583 -5.1903 0
M  V30 3197 H 303.041 -1.29107 -2.64024 0
M  V30 3198 H 300.555 -0.802428 -1.41191 0
M  V30 3199 H 302.552 0.685565 -4.11225 0
M  V30 3200 H 301.212 1.15657 -3.03403 0
M  V30 3201 H 302.223 -2.13449 -4.71868 0
M  V30 3202 H 298.9 0.384364 -4.15727 0
M  V30 3203 H 300.29 -3.27893 -5.86461 0
M  V30 3204 N 303.011 1.40521 -0.713556 0
M  V30 3205 C 304.236 2.05759 -0.26035 0
M  V30 3206 C 304.661 1.53403 1.08854 0
M  V30 3207 O 304.019 0.668535 1.68524 0
M  V30 3208 C 304.067 3.59745 -0.248122 0
M  V30 3209 O 303.171 4.05123 0.77131 0
M  V30 3210 H 302.512 0.652564 -0.122703 0
M  V30 3211 H 305.042 1.79958 -0.973467 0
M  V30 3212 H 305.052 4.07911 -0.0851129 0
M  V30 3213 H 303.727 3.97218 -1.2325 0
M  V30 3214 H 302.304 3.68422 0.57619 0
M  V30 3215 N 304.489 0.459591 1.5075 0
M  V30 3216 C 305.735 -0.0994966 2.02556 0
M  V30 3217 C 306.068 -1.40399 1.3417 0
M  V30 3218 O 305.343 -1.88892 0.463683 0
M  V30 3219 C 305.626 -0.295242 3.58888 0
M  V30 3220 C 305.479 1.02947 4.37861 0
M  V30 3221 C 306.798 -1.05502 4.27267 0
M  V30 3222 H 303.917 -0.034686 0.736183 0
M  V30 3223 H 306.559 0.602938 1.8018 0
M  V30 3224 H 304.709 -0.893563 3.78084 0
M  V30 3225 H 306.381 1.66348 4.30263 0
M  V30 3226 H 304.624 1.62885 4.02058 0
M  V30 3227 H 305.295 0.846281 5.45474 0
M  V30 3228 H 307.771 -0.547993 4.12476 0
M  V30 3229 H 306.647 -1.16077 5.36486 0
M  V30 3230 H 306.908 -2.08875 3.89645 0
M  V30 3231 N 305.967 -1.56429 0.191757 0
M  V30 3232 C 307.383 -1.58754 -0.164137 0
M  V30 3233 C 307.583 -1.20782 -1.61288 0
M  V30 3234 O 306.639 -0.928999 -2.34789 0
M  V30 3235 C 307.952 -3.00396 0.135195 0
M  V30 3236 C 309.5 -3.1291 0.0750351 0
M  V30 3237 C 309.975 -4.56679 0.347632 0
M  V30 3238 N 311.466 -4.62252 0.296131 0
M  V30 3239 C 312.201 -5.71379 0.480948 0
M  V30 3240 N 311.697 -6.88986 0.725933 0
M  V30 3241 N 313.49 -5.60563 0.415435 0
M  V30 3242 H 305.641 -1.79393 1.13718 0
M  V30 3243 H 307.904 -0.832414 0.453643 0
M  V30 3244 H 307.61 -3.32726 1.13958 0
M  V30 3245 H 307.484 -3.72963 -0.563773 0
M  V30 3246 H 309.871 -2.80394 -0.919948 0
M  V30 3247 H 309.952 -2.42736 0.807029 0
M  V30 3248 H 309.596 -4.89907 1.33992 0
M  V30 3249 H 309.526 -5.25039 -0.405212 0
M  V30 3250 H 312.017 -3.7773 0.113259 0
M  V30 3251 H 312.33 -7.68046 0.855857 0
M  V30 3252 H 310.675 -6.90801 0.762788 0
M  V30 3253 H 313.866 -4.67561 0.224486 0
M  V30 3254 H 314.039 -6.45551 0.562889 0
M  V30 3255 N 307.445 0.0818655 -1.57387 0
M  V30 3256 C 308.355 1.11642 -2.06333 0
M  V30 3257 C 309.371 1.43033 -0.99083 0
M  V30 3258 O 310.547 1.53411 -1.30488 0
M  V30 3259 C 307.612 2.41342 -2.48907 0
M  V30 3260 C 306.673 2.17014 -3.7041 0
M  V30 3261 C 305.906 3.4053 -4.10944 0
M  V30 3262 O 306.129 4.4927 -3.51444 0
M  V30 3263 O 305.063 3.29336 -5.03807 0
M  V30 3264 H 308.889 0.730657 -2.9478 0
M  V30 3265 H 306.474 0.295301 -1.46452 0
M  V30 3266 H 308.356 3.17691 -2.76858 0
M  V30 3267 H 307.031 2.79319 -1.63593 0
M  V30 3268 H 305.938 1.38403 -3.47556 0
M  V30 3269 H 307.271 1.83923 -4.56545 0
M  V30 3270 N 308.923 1.53595 0.353017 0
M  V30 3271 C 309.886 1.80232 1.41594 0
M  V30 3272 C 310.886 0.673081 1.46035 0
M  V30 3273 O 312.076 0.941335 1.46576 0
M  V30 3274 C 309.208 1.93578 2.80607 0
M  V30 3275 H 310.401 2.75174 1.19244 0
M  V30 3276 H 307.954 1.44864 0.586872 0
M  V30 3277 H 308.689 1.00746 3.08254 0
M  V30 3278 H 308.474 2.75724 2.78781 0
M  V30 3279 H 309.964 2.15735 3.57558 0
M  V30 3280 N 310.401 -0.613514 1.45168 0
M  V30 3281 C 311.649 -1.36997 1.48581 0
M  V30 3282 C 311.97 -1.94589 0.126545 0
M  V30 3283 O 311.24 -1.76816 -0.843372 0
M  V30 3284 H 309.82 -0.508558 0.547154 0
M  V30 3285 H 312.482 -0.720853 1.81079 0
M  V30 3286 H 311.578 -2.1924 2.22127 0
M  V30 3287 N 311.879 -1.3236 -0.855495 0
M  V30 3288 C 313.125 -1.23054 -1.612 0
M  V30 3289 C 313.458 0.207404 -1.93089 0
M  V30 3290 O 312.733 1.14432 -1.57275 0
M  V30 3291 C 313.016 -2.08937 -2.93287 0
M  V30 3292 C 312.869 -3.61105 -2.68185 0
M  V30 3293 C 314.188 -1.94986 -3.94549 0
M  V30 3294 H 311.307 -0.448364 -0.584926 0
M  V30 3295 H 313.949 -1.62297 -0.987917 0
M  V30 3296 H 312.099 -1.75599 -3.46551 0
M  V30 3297 H 313.771 -4.04652 -2.21483 0
M  V30 3298 H 312.014 -3.83813 -2.02164 0
M  V30 3299 H 312.685 -4.16522 -3.62234 0
M  V30 3300 H 315.161 -2.24189 -3.5054 0
M  V30 3301 H 314.037 -2.57356 -4.84829 0
M  V30 3302 H 314.298 -0.917263 -4.3248 0
M  V30 3303 N 313.357 1.07166 -1.15556 0
M  V30 3304 C 314.768 1.6127 -0.940693 0
M  V30 3305 C 315.119 1.89251 0.517551 0
M  V30 3306 O 314.244 1.65937 1.38903 0
M  V30 3307 C 314.839 2.92993 -1.7012 0
M  V30 3308 C 313.398 3.43832 -1.53156 0
M  V30 3309 C 312.545 2.1786 -1.71558 0
M  V30 3310 H 315.496 0.90229 -1.30554 0
M  V30 3311 H 315.517 3.62007 -1.17181 0
M  V30 3312 H 315.029 2.72596 -2.76248 0
M  V30 3313 H 313.13 3.69307 -0.494294 0
M  V30 3314 H 313.243 4.19747 -2.30975 0
M  V30 3315 H 311.607 2.2765 -1.14225 0
M  V30 3316 H 312.39 1.99956 -2.79056 0
M  V30 3317 N 314.835 0.952656 1.25548 0
M  V30 3318 C 315.765 0.489287 2.28316 0
M  V30 3319 C 316.746 -0.463359 1.63667 0
M  V30 3320 O 317.931 -0.36274 1.90782 0
M  V30 3321 C 315.061 -0.235603 3.465 0
M  V30 3322 C 314.015 0.631593 4.23314 0
M  V30 3323 C 313.341 -0.223923 5.34231 0
M  V30 3324 C 314.641 1.90871 4.86174 0
M  V30 3325 H 316.335 1.34822 2.67326 0
M  V30 3326 H 313.881 0.649728 1.28509 0
M  V30 3327 H 315.834 -0.570882 4.17515 0
M  V30 3328 H 314.558 -1.12877 3.06474 0
M  V30 3329 H 313.217 0.949929 3.54079 0
M  V30 3330 H 312.865 -1.11678 4.90446 0
M  V30 3331 H 312.565 0.35299 5.86539 0
M  V30 3332 H 314.089 -0.554214 6.0808 0
M  V30 3333 H 315.503 1.63997 5.49343 0
M  V30 3334 H 313.9 2.43112 5.4865 0
M  V30 3335 H 314.97 2.61304 4.08471 0
M  V30 3336 N 316.313 -1.40141 0.720998 0
M  V30 3337 C 317.561 -2.0039 0.262323 0
M  V30 3338 C 317.882 -1.57469 -1.15015 0
M  V30 3339 O 317.152 -0.816582 -1.78069 0
M  V30 3340 H 315.732 -0.741063 0.093996 0
M  V30 3341 H 318.394 -1.71398 0.927835 0
M  V30 3342 H 317.49 -3.10658 0.299671 0
M  V30 3343 N 317.792 -0.46758 -1.50504 0
M  V30 3344 C 318.722 0.318381 -2.31319 0
M  V30 3345 C 319.703 0.993564 -1.38066 0
M  V30 3346 O 320.888 0.991411 -1.66987 0
M  V30 3347 C 318.018 1.40275 -3.17711 0
M  V30 3348 C 316.972 0.849373 -4.19487 0
M  V30 3349 C 316.298 2.03177 -4.94594 0
M  V30 3350 C 317.598 -0.136942 -5.2212 0
M  V30 3351 H 319.292 -0.356106 -2.97275 0
M  V30 3352 H 316.838 -0.172703 -1.42961 0
M  V30 3353 H 318.791 1.96004 -3.73042 0
M  V30 3354 H 317.515 2.10596 -2.49634 0
M  V30 3355 H 316.174 0.314076 -3.65252 0
M  V30 3356 H 315.822 2.72187 -4.22993 0
M  V30 3357 H 315.522 1.66774 -5.63436 0
M  V30 3358 H 317.046 2.59403 -5.52759 0
M  V30 3359 H 318.46 0.331056 -5.72343 0
M  V30 3360 H 316.857 -0.41507 -5.98663 0
M  V30 3361 H 317.927 -1.06398 -4.73083 0
M  V30 3362 N 319.27 1.56325 -0.20005 0
M  V30 3363 C 320.681 1.8408 0.31167 0
M  V30 3364 C 321.032 1.12087 1.61031 0
M  V30 3365 O 320.157 0.38332 2.12978 0
M  V30 3366 C 320.752 3.33932 0.57226 0
M  V30 3367 C 319.311 3.6208 1.02834 0
M  V30 3368 C 318.458 2.77186 0.079634 0
M  V30 3369 H 321.409 1.52939 -0.423729 0
M  V30 3370 H 321.43 3.52971 1.42096 0
M  V30 3371 H 320.942 3.86303 -0.37308 0
M  V30 3372 H 319.043 3.15147 1.98778 0
M  V30 3373 H 319.156 4.7023 0.917624 0
M  V30 3374 H 317.52 2.47951 0.582448 0
M  V30 3375 H 318.303 3.32347 -0.860238 0
M  V30 3376 N 320.748 -0.0735177 1.57428 0
M  V30 3377 C 321.711 -1.07192 2.02589 0
M  V30 3378 C 322.711 -1.31695 0.922661 0
M  V30 3379 O 323.901 -1.27445 1.18758 0
M  V30 3380 C 321.033 -2.41599 2.40506 0
M  V30 3381 H 322.226 -0.682727 2.92025 0
M  V30 3382 H 319.779 -0.319193 1.53006 0
M  V30 3383 H 320.514 -2.85354 1.5409 0
M  V30 3384 H 320.299 -2.25156 3.21009 0
M  V30 3385 H 321.789 -3.13367 2.76027 0
M  V30 3386 N 322.226 -1.5378 -0.344866 0
M  V30 3387 C 323.637 -1.62428 -0.920552 0
M  V30 3388 C 323.988 -0.504747 -1.89596 0
M  V30 3389 O 323.113 0.365711 -2.13287 0
M  V30 3390 C 323.708 -2.94419 -1.67639 0
M  V30 3391 C 322.267 -3.05333 -2.20111 0
M  V30 3392 C 321.414 -2.57866 -1.01982 0
M  V30 3393 H 324.365 -1.58222 -0.123042 0
M  V30 3394 H 324.386 -2.83384 -2.53917 0
M  V30 3395 H 323.898 -3.7588 -0.966224 0
M  V30 3396 H 321.999 -2.28502 -2.94308 0
M  V30 3397 H 322.112 -4.10778 -2.46573 0
M  V30 3398 H 320.476 -2.13241 -1.39285 0
M  V30 3399 H 321.259 -3.41765 -0.324308 0
M  V30 3400 N 323.704 0.605807 -1.45491 0
M  V30 3401 C 324.952 1.36207 -1.49305 0
M  V30 3402 C 325.273 1.94519 -0.136863 0
M  V30 3403 O 324.543 1.77261 0.833983 0
M  V30 3404 H 323.123 0.50565 -0.549843 0
M  V30 3405 H 325.785 0.711239 -1.81459 0
M  V30 3406 H 324.881 2.18058 -2.23287 0
M  V30 3407 N 325.182 1.32811 0.848464 0
M  V30 3408 C 326.145 1.22194 1.9391 0
M  V30 3409 C 327.145 0.143404 1.60159 0
M  V30 3410 O 328.335 0.394253 1.6968 0
M  V30 3411 C 325.467 0.88067 3.29328 0
M  V30 3412 H 326.66 2.19127 2.04752 0
M  V30 3413 H 324.213 1.16731 1.0394 0
M  V30 3414 H 324.948 -0.0865776 3.24184 0
M  V30 3415 H 324.733 1.66052 3.55203 0
M  V30 3416 H 326.223 0.830871 4.09251 0
M  V30 3417 N 326.66 -1.06551 1.16123 0
M  V30 3418 C 328.076 -1.3142 0.905585 0
M  V30 3419 C 328.276 -1.96571 -0.442964 0
M  V30 3420 O 327.332 -2.23068 -1.18308 0
M  V30 3421 C 328.645 -2.19741 2.05267 0
M  V30 3422 C 330.193 -2.33165 2.08813 0
M  V30 3423 C 330.668 -3.24838 3.22868 0
M  V30 3424 N 332.159 -3.32421 3.22568 0
M  V30 3425 C 332.894 -4.0344 4.0746 0
M  V30 3426 N 332.39 -4.77003 5.02434 0
M  V30 3427 N 334.183 -3.99464 3.95456 0
M  V30 3428 H 326.334 -0.626548 2.02949 0
M  V30 3429 H 328.597 -0.338777 0.8854 0
M  V30 3430 H 328.303 -1.79142 3.02657 0
M  V30 3431 H 328.177 -3.20313 1.99198 0
M  V30 3432 H 330.564 -2.73013 1.12018 0
M  V30 3433 H 330.645 -1.3227 2.18948 0
M  V30 3434 H 330.289 -2.85708 4.19921 0
M  V30 3435 H 330.219 -4.25707 3.0997 0
M  V30 3436 H 332.71 -2.79994 2.53795 0
M  V30 3437 H 333.023 -5.28712 5.63634 0
M  V30 3438 H 331.368 -4.75992 5.06415 0
M  V30 3439 H 334.559 -3.4111 3.20564 0
M  V30 3440 H 334.732 -4.54544 4.61837 0
M  V30 3441 N 328.138 -0.959301 -1.25041 0
M  V30 3442 C 329.554 -0.664474 -1.4511 0
M  V30 3443 C 329.754 0.776481 -1.85938 0
M  V30 3444 O 328.81 1.55128 -1.99227 0
M  V30 3445 C 330.123 -1.64139 -2.5195 0
M  V30 3446 C 331.671 -1.65309 -2.65786 0
M  V30 3447 C 332.146 -2.61777 -3.75815 0
M  V30 3448 N 333.637 -2.60169 -3.83231 0
M  V30 3449 C 334.372 -3.31489 -4.6787 0
M  V30 3450 N 333.868 -4.12298 -5.56761 0
M  V30 3451 N 335.661 -3.20354 -4.61876 0
M  V30 3452 H 327.812 -1.89043 -0.968332 0
M  V30 3453 H 330.075 -0.813408 -0.4869 0
M  V30 3454 H 329.781 -2.67086 -2.28819 0
M  V30 3455 H 329.655 -1.40756 -3.49954 0
M  V30 3456 H 332.042 -0.630778 -2.8828 0
M  V30 3457 H 332.123 -1.92753 -1.68167 0
M  V30 3458 H 331.767 -3.64137 -3.54071 0
M  V30 3459 H 331.697 -2.31616 -4.72929 0
M  V30 3460 H 334.188 -2.01507 -3.19692 0
M  V30 3461 H 334.501 -4.63625 -6.18281 0
M  V30 3462 H 332.846 -4.16395 -5.56454 0
M  V30 3463 H 336.037 -2.56692 -3.91442 0
M  V30 3464 H 336.21 -3.76201 -5.27614 0
M  V30 3465 N 329.616 1.39756 -0.72842 0
M  V30 3466 C 331.032 1.5442 -0.403308 0
M  V30 3467 C 331.232 1.69694 1.08656 0
M  V30 3468 O 330.288 1.69373 1.87267 0
M  V30 3469 C 331.601 2.76555 -1.18058 0
M  V30 3470 C 333.149 2.90384 -1.16815 0
M  V30 3471 C 333.624 4.15449 -1.92785 0
M  V30 3472 N 335.115 4.22475 -1.89918 0
M  V30 3473 C 335.85 5.1818 -2.45514 0
M  V30 3474 N 335.346 6.19714 -3.09719 0
M  V30 3475 N 337.139 5.1035 -2.35584 0
M  V30 3476 H 329.29 1.28089 -1.69431 0
M  V30 3477 H 331.553 0.620327 -0.716867 0
M  V30 3478 H 331.259 2.7159 -2.23455 0
M  V30 3479 H 331.133 3.69033 -0.780662 0
M  V30 3480 H 333.52 2.94846 -0.12234 0
M  V30 3481 H 333.601 1.98988 -1.6074 0
M  V30 3482 H 333.245 4.11749 -2.97364 0
M  V30 3483 H 333.175 5.05877 -1.46272 0
M  V30 3484 H 335.666 3.49743 -1.43138 0
M  V30 3485 H 335.979 6.8919 -3.49625 0
M  V30 3486 H 334.324 6.20121 -3.13807 0
M  V30 3487 H 337.515 4.2996 -1.85072 0
M  V30 3488 H 337.688 5.84761 -2.79211 0
M  V30 3489 N 331.094 0.475555 1.50254 0
M  V30 3490 C 332.342 -0.077738 2.0195 0
M  V30 3491 C 332.663 -1.39813 1.35931 0
M  V30 3492 O 331.933 -1.89249 0.506123 0
M  V30 3493 H 330.513 -0.031719 0.746326 0
M  V30 3494 H 333.175 0.626995 1.84539 0
M  V30 3495 H 332.271 -0.225995 3.11281 0
M  V30 3496 N 332.573 -1.56217 0.208337 0
M  V30 3497 C 333.821 -1.97558 -0.426076 0
M  V30 3498 C 334.142 -1.09683 -1.61229 0
M  V30 3499 O 333.412 -0.170956 -1.95153 0
M  V30 3500 H 331.992 -0.729575 -0.160405 0
M  V30 3501 H 334.654 -1.92606 0.298155 0
M  V30 3502 H 333.75 -3.02672 -0.761312 0
M  V30 3503 N 334.051 0.0651679 -1.57465 0
M  V30 3504 C 335.276 0.779605 -1.9219 0
M  V30 3505 C 335.701 1.69988 -0.805333 0
M  V30 3506 O 335.059 1.79685 0.241435 0
M  V30 3507 C 335.107 1.54364 -3.2589 0
M  V30 3508 O 334.211 2.65474 -3.1559 0
M  V30 3509 H 333.552 0.212249 -0.629163 0
M  V30 3510 H 336.082 0.0314294 -2.04576 0
M  V30 3511 H 336.092 1.92146 -3.59922 0
M  V30 3512 H 334.767 0.868457 -4.06732 0
M  V30 3513 H 333.344 2.30501 -2.93128 0
M  V30 3514 N 335.529 1.53961 0.336706 0
M  V30 3515 C 336.492 1.81724 1.39675 0
M  V30 3516 C 337.492 0.688532 1.45313 0
M  V30 3517 O 338.682 0.956829 1.45569 0
M  V30 3518 C 335.814 1.96543 2.78538 0
M  V30 3519 H 337.007 2.76424 1.16318 0
M  V30 3520 H 334.56 1.45478 0.571474 0
M  V30 3521 H 335.295 1.0401 3.07168 0
M  V30 3522 H 335.08 2.78665 2.75841 0
M  V30 3523 H 336.57 2.19516 3.5525 0
M  V30 3524 N 337.007 -0.598083 1.45811 0
M  V30 3525 C 338.232 -1.3881 1.54099 0
M  V30 3526 C 338.657 -1.8726 0.177578 0
M  V30 3527 O 338.015 -1.6069 -0.839541 0
M  V30 3528 C 338.063 -2.56217 2.53743 0
M  V30 3529 O 337.167 -3.5716 2.06182 0
M  V30 3530 H 336.508 -0.414024 0.519115 0
M  V30 3531 H 339.038 -0.726971 1.91249 0
M  V30 3532 H 339.048 -3.03337 2.72856 0
M  V30 3533 H 337.723 -2.20303 3.5276 0
M  V30 3534 H 336.3 -3.16624 1.96987 0
M  V30 3535 N 338.485 -1.33259 -0.841409 0
M  V30 3536 C 339.901 -1.12538 -1.13169 0
M  V30 3537 C 340.101 0.0854037 -2.01319 0
M  V30 3538 O 339.157 0.766417 -2.40587 0
M  V30 3539 C 340.47 -2.41156 -1.79623 0
M  V30 3540 C 342.018 -2.47038 -1.922 0
M  V30 3541 C 342.493 -3.7561 -2.6207 0
M  V30 3542 N 343.984 -3.76667 -2.69585 0
M  V30 3543 C 344.719 -4.72861 -3.2433 0
M  V30 3544 N 344.215 -5.79428 -3.79783 0
M  V30 3545 N 346.008 -4.6034 -3.22558 0
M  V30 3546 H 338.159 -2.10868 -0.254676 0
M  V30 3547 H 340.422 -0.931615 -0.175493 0
M  V30 3548 H 340.128 -3.29747 -1.22311 0
M  V30 3549 H 340.002 -2.53114 -2.79666 0
M  V30 3550 H 342.389 -1.58898 -2.48667 0
M  V30 3551 H 342.47 -2.39022 -0.911148 0
M  V30 3552 H 342.114 -4.64131 -2.06263 0
M  V30 3553 H 342.044 -3.80902 -3.63622 0
M  V30 3554 H 344.535 -2.99648 -2.30259 0
M  V30 3555 H 344.848 -6.48867 -4.19752 0
M  V30 3556 H 343.193 -5.83166 -3.78078 0
M  V30 3557 H 346.384 -3.76244 -2.78492 0
M  V30 3558 H 346.557 -5.35478 -3.64921 0
M  V30 3559 N 339.963 1.05934 -1.16686 0
M  V30 3560 C 341.188 1.83029 -0.975455 0
M  V30 3561 C 341.613 1.82096 0.471452 0
M  V30 3562 O 340.971 1.22443 1.33706 0
M  V30 3563 C 341.019 3.27372 -1.51195 0
M  V30 3564 O 340.123 4.06054 -0.720701 0
M  V30 3565 H 339.464 0.566194 -0.346872 0
M  V30 3566 H 341.994 1.33541 -1.55009 0
M  V30 3567 H 342.004 3.78186 -1.53099 0
M  V30 3568 H 340.679 3.27366 -2.56523 0
M  V30 3569 H 339.256 3.64812 -0.772458 0
M  V30 3570 N 341.441 0.965919 1.2453 0
M  V30 3571 C 342.371 0.513476 2.27784 0
M  V30 3572 C 343.352 -0.445974 1.6415 0
M  V30 3573 O 344.537 -0.342485 1.91156 0
M  V30 3574 C 341.667 -0.198839 3.4673 0
M  V30 3575 C 340.621 0.676456 4.2262 0
M  V30 3576 C 339.947 -0.167248 5.34438 0
M  V30 3577 C 341.247 1.96017 4.84123 0
M  V30 3578 H 342.941 1.3765 2.65881 0
M  V30 3579 H 340.487 0.663321 1.27813 0
M  V30 3580 H 342.44 -0.526567 4.18097 0
M  V30 3581 H 341.164 -1.0962 3.07654 0
M  V30 3582 H 339.823 0.98743 3.53052 0
M  V30 3583 H 339.471 -1.0647 4.91603 0
M  V30 3584 H 339.171 0.415181 5.86131 0
M  V30 3585 H 340.695 -0.489688 6.08633 0
M  V30 3586 H 342.109 1.69814 5.47573 0
M  V30 3587 H 340.506 2.48918 5.4604 0
M  V30 3588 H 341.576 2.65622 4.05676 0
M  V30 3589 N 342.919 -1.39368 0.735821 0
M  V30 3590 C 344.33 -1.83313 0.354015 0
M  V30 3591 C 344.681 -1.61461 -1.11466 0
M  V30 3592 O 343.806 -1.10621 -1.85989 0
M  V30 3593 C 344.401 -3.32781 0.635769 0
M  V30 3594 C 342.96 -3.75142 0.307448 0
M  V30 3595 C 342.107 -2.62358 0.897974 0
M  V30 3596 H 345.058 -1.28349 0.933398 0
M  V30 3597 H 345.079 -3.80388 -0.0921773 0
M  V30 3598 H 344.591 -3.48654 1.70476 0
M  V30 3599 H 342.692 -3.64857 -0.755674 0
M  V30 3600 H 342.805 -4.72532 0.790583 0
M  V30 3601 H 341.169 -2.52624 0.324551 0
M  V30 3602 H 341.952 -2.81036 1.97164 0
M  V30 3603 N 344.397 -0.483516 -1.5 0
M  V30 3604 C 345.327 0.293829 -2.31644 0
M  V30 3605 C 346.308 0.978864 -1.39112 0
M  V30 3606 O 347.493 0.973644 -1.68029 0
M  V30 3607 C 344.623 1.36897 -3.19181 0
M  V30 3608 C 343.577 0.804833 -4.20365 0
M  V30 3609 C 342.903 1.9792 -4.96721 0
M  V30 3610 C 344.203 -0.192313 -5.21946 0
M  V30 3611 H 345.897 -0.387616 -2.9688 0
M  V30 3612 H 343.443 -0.187856 -1.42769 0
M  V30 3613 H 345.396 1.92037 -3.751 0
M  V30 3614 H 344.12 2.07936 -2.51853 0
M  V30 3615 H 342.779 0.275319 -3.65565 0
M  V30 3616 H 342.427 2.67686 -4.25856 0
M  V30 3617 H 342.127 1.60789 -5.65173 0
M  V30 3618 H 343.651 2.53526 -5.55479 0
M  V30 3619 H 345.065 0.270333 -5.72662 0
M  V30 3620 H 343.462 -0.478543 -5.98189 0
M  V30 3621 H 344.532 -1.11409 -4.71928 0
M  V30 3622 N 345.875 1.56104 -0.216619 0
M  V30 3623 C 347.286 1.844 0.292128 0
M  V30 3624 C 347.637 1.13788 1.59833 0
M  V30 3625 O 346.762 0.405888 2.12559 0
M  V30 3626 C 347.357 3.3452 0.53681 0
M  V30 3627 C 345.916 3.63151 0.989876 0
M  V30 3628 C 345.063 2.77255 0.0502302 0
M  V30 3629 H 348.014 1.52481 -0.439926 0
M  V30 3630 H 348.035 3.54459 1.38345 0
M  V30 3631 H 347.547 3.85885 -0.414031 0
M  V30 3632 H 345.648 3.17238 1.95425 0
M  V30 3633 H 345.761 4.71177 0.867698 0
M  V30 3634 H 344.125 2.48555 0.556117 0
M  V30 3635 H 344.908 3.31416 -0.89544 0
M  V30 3636 N 347.353 -0.0568162 1.57498 0
M  V30 3637 C 348.3 -1.06591 2.04712 0
M  V30 3638 C 349.27 -1.3758 0.930644 0
M  V30 3639 O 350.455 -1.48392 1.19935 0
M  V30 3640 C 347.595 -2.3701 2.50839 0
M  V30 3641 C 346.708 -2.12421 3.76167 0
M  V30 3642 C 345.843 -3.36511 4.11015 0
M  V30 3643 C 344.882 -3.07353 5.2934 0
M  V30 3644 N 344.019 -4.23816 5.59754 0
M  V30 3645 H 348.859 -0.65631 2.90683 0
M  V30 3646 H 346.396 -0.312481 1.43743 0
M  V30 3647 H 348.354 -3.13175 2.7564 0
M  V30 3648 H 346.984 -2.75744 1.67825 0
M  V30 3649 H 346.036 -1.2688 3.58616 0
M  V30 3650 H 347.348 -1.86894 4.62463 0
M  V30 3651 H 346.502 -4.21062 4.36797 0
M  V30 3652 H 345.241 -3.65128 3.23315 0
M  V30 3653 H 344.246 -2.212 5.03339 0
M  V30 3654 H 345.471 -2.80043 6.1867 0
M  V30 3655 H 343.417 -4.52436 4.75014 0
M  V30 3656 H 343.334 -4.01614 6.40501 0
M  V30 3657 H 344.602 -5.0932 5.90096 0
M  V30 3658 N 348.832 -1.54138 -0.328536 0
M  V30 3659 C 350.248 -1.44736 -0.672574 0
M  V30 3660 C 350.448 -0.616217 -1.91846 0
M  V30 3661 O 349.504 -0.113067 -2.52247 0
M  V30 3662 C 350.817 -2.884 -0.851217 0
M  V30 3663 C 352.365 -2.98271 -0.948877 0
M  V30 3664 C 352.84 -4.43074 -1.15973 0
M  V30 3665 N 354.331 -4.46665 -1.22658 0
M  V30 3666 C 355.066 -5.55857 -1.40751 0
M  V30 3667 N 354.562 -6.75026 -1.5592 0
M  V30 3668 N 356.355 -5.43495 -1.4342 0
M  V30 3669 H 348.506 -2.06661 0.490421 0
M  V30 3670 H 350.769 -0.934812 0.157579 0
M  V30 3671 H 350.475 -3.51699 -0.00704236 0
M  V30 3672 H 350.349 -3.34225 -1.74853 0
M  V30 3673 H 352.736 -2.35102 -1.78356 0
M  V30 3674 H 352.817 -2.55785 -0.0281435 0
M  V30 3675 H 352.461 -5.06827 -0.329915 0
M  V30 3676 H 352.391 -4.83165 -2.09426 0
M  V30 3677 H 354.882 -3.60797 -1.124 0
M  V30 3678 H 355.195 -7.54004 -1.69404 0
M  V30 3679 H 353.54 -6.77944 -1.53027 0
M  V30 3680 H 356.731 -4.49349 -1.31162 0
M  V30 3681 H 356.904 -6.28649 -1.57178 0
M  V30 3682 N 350.31 0.590341 -1.46126 0
M  V30 3683 C 351.721 1.17243 -1.45296 0
M  V30 3684 C 352.072 1.95281 -0.189723 0
M  V30 3685 O 351.197 2.04502 0.707674 0
M  V30 3686 C 351.792 2.13284 -2.6324 0
M  V30 3687 C 350.351 2.66832 -2.65476 0
M  V30 3688 C 349.498 1.42557 -2.3785 0
M  V30 3689 H 352.449 0.378692 -1.54116 0
M  V30 3690 H 352.47 2.96619 -2.38323 0
M  V30 3691 H 351.982 1.56459 -3.55165 0
M  V30 3692 H 350.083 3.27548 -1.77603 0
M  V30 3693 H 350.196 3.10088 -3.65215 0
M  V30 3694 H 348.56 1.72107 -1.87753 0
M  V30 3695 H 349.343 0.875741 -3.31942 0
M  V30 3696 N 351.788 1.33704 0.83433 0
M  V30 3697 C 353.204 1.13137 1.12571 0
M  V30 3698 C 353.404 -0.0747261 2.01361 0
M  V30 3699 O 352.46 -0.753647 2.4099 0
M  V30 3700 C 353.773 2.42105 1.78342 0
M  V30 3701 C 355.321 2.48054 1.90888 0
M  V30 3702 C 355.796 3.76995 2.60075 0
M  V30 3703 N 357.287 3.78092 2.67584 0
M  V30 3704 C 358.022 4.74574 3.21818 0
M  V30 3705 N 357.518 5.81434 3.76705 0
M  V30 3706 N 359.311 4.62044 3.20112 0
M  V30 3707 H 351.462 2.11 0.243489 0
M  V30 3708 H 353.725 0.932532 0.17055 0
M  V30 3709 H 353.431 3.30391 1.20561 0
M  V30 3710 H 353.305 2.54594 2.7832 0
M  V30 3711 H 355.692 1.60215 2.47821 0
M  V30 3712 H 355.773 2.39502 0.898459 0
M  V30 3713 H 355.417 4.65219 2.03799 0
M  V30 3714 H 355.347 3.82825 3.61597 0
M  V30 3715 H 357.838 3.00865 2.28667 0
M  V30 3716 H 358.151 6.51084 4.16305 0
M  V30 3717 H 356.496 5.85163 3.7498 0
M  V30 3718 H 359.687 3.77716 2.76493 0
M  V30 3719 H 359.86 5.37406 3.62076 0
M  V30 3720 N 353.266 -1.05314 1.17247 0
M  V30 3721 C 354.682 -1.30452 0.919473 0
M  V30 3722 C 354.882 -1.9703 -0.42209 0
M  V30 3723 O 353.938 -2.24311 -1.15935 0
M  V30 3724 C 355.251 -2.17551 2.07586 0
M  V30 3725 C 356.799 -2.30937 2.11275 0
M  V30 3726 C 357.274 -3.21396 3.26296 0
M  V30 3727 N 358.765 -3.28981 3.26076 0
M  V30 3728 C 359.5 -3.99095 4.11716 0
M  V30 3729 N 358.996 -4.71648 5.07465 0
M  V30 3730 N 360.789 -3.95247 3.9967 0
M  V30 3731 H 352.94 -0.604988 2.03602 0
M  V30 3732 H 355.203 -0.329368 0.888944 0
M  V30 3733 H 354.909 -1.75921 3.0454 0
M  V30 3734 H 354.783 -3.18182 2.02584 0
M  V30 3735 H 357.17 -2.71809 1.14907 0
M  V30 3736 H 357.251 -1.2994 2.20339 0
M  V30 3737 H 356.895 -2.81238 4.22927 0
M  V30 3738 H 356.825 -4.22395 3.14467 0
M  V30 3739 H 359.316 -2.77286 2.5675 0
M  V30 3740 H 359.629 -5.22705 5.6921 0
M  V30 3741 H 357.974 -4.70594 5.11435 0
M  V30 3742 H 361.165 -3.37691 3.24164 0
M  V30 3743 H 361.338 -4.4962 4.66632 0
M  V30 3744 N 354.744 -0.972509 -1.24016 0
M  V30 3745 C 355.992 -0.635776 -1.91839 0
M  V30 3746 C 356.313 0.832312 -1.76345 0
M  V30 3747 O 355.583 1.5946 -1.13795 0
M  V30 3748 H 354.163 -0.232157 -0.710009 0
M  V30 3749 H 356.825 -1.23462 -1.50809 0
M  V30 3750 H 355.921 -0.880545 -2.99421 0
M  V30 3751 N 356.222 1.38976 -0.743202 0
M  V30 3752 C 357.185 2.28901 -0.117014 0
M  V30 3753 C 358.185 1.46698 0.658503 0
M  V30 3754 O 359.375 1.67274 0.486305 0
M  V30 3755 C 356.507 3.30309 0.84315 0
M  V30 3756 H 357.7 2.8578 -0.909373 0
M  V30 3757 H 355.253 1.47761 -0.509547 0
M  V30 3758 H 355.988 2.785 1.66157 0
M  V30 3759 H 355.773 3.91029 0.289594 0
M  V30 3760 H 357.263 3.97577 1.2776 0
M  V30 3761 N 357.7 0.491464 1.49741 0
M  V30 3762 C 358.663 -0.280906 2.27472 0
M  V30 3763 C 359.663 -0.902454 1.33088 0
M  V30 3764 O 360.853 -0.768465 1.56334 0
M  V30 3765 C 357.985 -1.40209 3.10732 0
M  V30 3766 H 359.178 0.401056 2.97206 0
M  V30 3767 H 356.731 0.246131 1.5435 0
M  V30 3768 H 357.466 -2.11849 2.45541 0
M  V30 3769 H 357.251 -0.961969 3.80117 0
M  V30 3770 H 358.741 -1.9464 3.69466 0
M  V30 3771 N 359.178 -1.55987 0.224894 0
M  V30 3772 C 360.589 -1.84553 -0.282345 0
M  V30 3773 C 360.94 -1.14634 -1.59227 0
M  V30 3774 O 360.065 -0.417155 -2.12341 0
M  V30 3775 C 360.66 -3.348 -0.519062 0
M  V30 3776 C 359.219 -3.63671 -0.970604 0
M  V30 3777 C 358.366 -2.77277 -0.0355261 0
M  V30 3778 H 361.317 -1.52245 0.448006 0
M  V30 3779 H 361.338 -3.55187 -1.36463 0
M  V30 3780 H 360.85 -3.8566 0.43449 0
M  V30 3781 H 358.951 -3.1827 -1.9374 0
M  V30 3782 H 359.064 -4.71631 -0.842698 0
M  V30 3783 H 357.428 -2.48846 -0.542927 0
M  V30 3784 H 358.211 -3.30937 0.913003 0
M  V30 3785 N 360.656 0.0484629 -1.57525 0
M  V30 3786 C 361.566 1.07241 -2.08654 0
M  V30 3787 C 362.582 1.409 -1.02095 0
M  V30 3788 O 363.758 1.50609 -1.33712 0
M  V30 3789 C 360.823 2.36008 -2.5397 0
M  V30 3790 C 359.884 2.09108 -3.7493 0
M  V30 3791 C 359.117 3.31736 -4.18075 0
M  V30 3792 O 359.34 4.41714 -3.60895 0
M  V30 3793 O 358.274 3.18576 -5.10679 0
M  V30 3794 H 362.1 0.667965 -2.96263 0
M  V30 3795 H 359.685 0.26417 -1.47046 0
M  V30 3796 H 361.567 3.11747 -2.83535 0
M  V30 3797 H 360.242 2.75786 -1.69481 0
M  V30 3798 H 359.149 1.31 -3.50414 0
M  V30 3799 H 360.482 1.74198 -4.60343 0
M  V30 3800 N 362.134 1.5431 0.320358 0
M  V30 3801 C 363.545 1.63872 0.894594 0
M  V30 3802 C 363.896 0.534847 1.88769 0
M  V30 3803 O 363.021 -0.331732 2.13842 0
M  V30 3804 C 363.616 2.97049 1.62934 0
M  V30 3805 C 362.175 3.08796 2.15226 0
M  V30 3806 C 361.322 2.59456 0.978671 0
M  V30 3807 H 364.273 1.58398 0.0978544 0
M  V30 3808 H 364.294 2.87388 2.49376 0
M  V30 3809 H 363.806 3.7737 0.906302 0
M  V30 3810 H 361.907 2.33156 2.90636 0
M  V30 3811 H 362.02 4.14649 2.40006 0
M  V30 3812 H 360.384 2.1543 1.35875 0
M  V30 3813 H 361.167 3.42237 0.269895 0
M  V30 3814 N 363.613 -0.582584 1.46437 0
M  V30 3815 C 364.523 -1.71949 1.59595 0
M  V30 3816 C 365.539 -1.67264 0.479443 0
M  V30 3817 O 366.715 -1.87171 0.743579 0
M  V30 3818 C 363.78 -3.08452 1.58298 0
M  V30 3819 C 362.841 -3.244 2.81182 0
M  V30 3820 C 362.074 -4.54391 2.79937 0
M  V30 3821 O 362.297 -5.38287 1.8869 0
M  V30 3822 O 361.231 -4.73588 3.71481 0
M  V30 3823 H 365.057 -1.63795 2.55744 0
M  V30 3824 H 362.642 -0.749643 1.29231 0
M  V30 3825 H 364.524 -3.89732 1.60271 0
M  V30 3826 H 363.199 -3.17043 0.653094 0
M  V30 3827 H 362.106 -2.42613 2.84763 0
M  V30 3828 H 363.439 -3.20699 3.7338 0
M  V30 3829 N 365.091 -1.34144 -0.827227 0
M  V30 3830 C 366.507 -1.13732 -1.11969 0
M  V30 3831 C 366.707 0.0640463 -2.01398 0
M  V30 3832 O 365.763 0.740856 -2.41387 0
M  V30 3833 C 367.076 -2.43047 -1.77055 0
M  V30 3834 C 368.624 -2.49063 -1.89569 0
M  V30 3835 C 369.099 -3.78369 -2.58072 0
M  V30 3836 N 370.59 -3.79505 -2.65575 0
M  V30 3837 C 371.325 -4.76274 -3.19297 0
M  V30 3838 N 370.821 -5.83424 -3.73616 0
M  V30 3839 N 372.614 -4.63735 -3.17658 0
M  V30 3840 H 364.765 -2.11126 -0.232296 0
M  V30 3841 H 367.028 -0.933424 -0.165602 0
M  V30 3842 H 366.734 -3.31025 -1.18807 0
M  V30 3843 H 366.608 -2.56066 -2.76966 0
M  V30 3844 H 368.995 -1.61527 -2.46968 0
M  V30 3845 H 369.076 -2.39975 -0.885745 0
M  V30 3846 H 368.72 -4.66293 -2.01329 0
M  V30 3847 H 368.65 -3.84737 -3.59562 0
M  V30 3848 H 371.141 -3.02074 -2.27068 0
M  V30 3849 H 371.454 -6.53282 -4.12846 0
M  V30 3850 H 369.799 -5.87143 -3.71871 0
M  V30 3851 H 372.99 -3.79177 -2.74486 0
M  V30 3852 H 373.163 -5.39318 -3.59221 0
M  V30 3853 N 366.569 1.04691 -1.17803 0
M  V30 3854 C 367.797 1.81446 -0.99423 0
M  V30 3855 C 368.212 1.83174 0.457459 0
M  V30 3856 O 367.569 1.26265 1.31771 0
M  V30 3857 C 367.62 3.27334 -1.5341 0
M  V30 3858 O 367.341 3.25798 -2.92895 0
M  V30 3859 C 368.842 4.20759 -1.39559 0
M  V30 3860 H 366.062 0.571599 -0.351447 0
M  V30 3861 H 368.606 1.31982 -1.56208 0
M  V30 3862 H 366.761 3.74052 -1.00815 0
M  V30 3863 H 367.175 4.17144 -3.17949 0
M  V30 3864 H 368.649 5.21084 -1.82141 0
M  V30 3865 H 369.126 4.37856 -0.343394 0
M  V30 3866 H 369.732 3.79901 -1.91195 0
M  V30 3867 N 368.047 0.979072 1.23499 0
M  V30 3868 C 369.458 0.684391 1.73704 0
M  V30 3869 C 369.809 -0.799448 1.79174 0
M  V30 3870 O 368.934 -1.62531 1.42873 0
M  V30 3871 C 369.529 1.23564 3.15464 0
M  V30 3872 C 368.088 0.99063 3.6313 0
M  V30 3873 C 367.235 1.36416 2.41425 0
M  V30 3874 H 370.186 1.15307 1.09041 0
M  V30 3875 H 370.207 0.607417 3.7562 0
M  V30 3876 H 369.719 2.31561 3.1145 0
M  V30 3877 H 367.82 -0.0733136 3.72528 0
M  V30 3878 H 367.933 1.64427 4.5 0
M  V30 3879 H 366.297 0.782616 2.42378 0
M  V30 3880 H 367.08 2.45387 2.40083 0
M  V30 3881 N 369.525 -1.3858 0.750561 0
M  V30 3882 C 370.771 -2.00481 0.305825 0
M  V30 3883 C 371.104 -1.5944 -1.10872 0
M  V30 3884 O 370.379 -0.83052 -1.75877 0
M  V30 3885 C 370.662 -3.5758 0.425287 0
M  V30 3886 C 370.515 -4.08594 1.88072 0
M  V30 3887 C 371.834 -4.39719 -0.183122 0
M  V30 3888 H 368.953 -0.728348 0.112598 0
M  V30 3889 H 371.595 -1.64566 0.949638 0
M  V30 3890 H 369.745 -3.88306 -0.122828 0
M  V30 3891 H 371.417 -3.88523 2.48691 0
M  V30 3892 H 369.66 -3.61574 2.39681 0
M  V30 3893 H 370.331 -5.177 1.91548 0
M  V30 3894 H 372.807 -4.15128 0.284303 0
M  V30 3895 H 371.683 -5.48856 -0.0692757 0
M  V30 3896 H 371.944 -4.23434 -1.27106 0
M  V30 3897 N 371.003 -0.499398 -1.49478 0
M  V30 3898 C 372.251 0.0455996 -2.02049 0
M  V30 3899 C 372.572 1.37633 -1.38138 0
M  V30 3900 O 371.842 1.8842 -0.536166 0
M  V30 3901 H 370.422 0.0198416 -0.746736 0
M  V30 3902 H 373.084 -0.656274 -1.83519 0
M  V30 3903 H 372.18 0.176445 -3.11601 0
M  V30 3904 N 372.481 1.55866 -0.233164 0
M  V30 3905 C 373.413 2.18099 0.704668 0
M  V30 3906 C 374.426 1.15334 1.14899 0
M  V30 3907 O 375.615 1.42262 1.07814 0
M  V30 3908 C 372.715 2.7592 1.96777 0
M  V30 3909 C 371.888 4.03969 1.67713 0
M  V30 3910 C 370.947 4.46242 2.78845 0
M  V30 3911 O 369.973 5.12903 2.46818 0
M  V30 3912 N 371.175 4.12886 4.08051 0
M  V30 3913 H 373.94 2.99205 0.172258 0
M  V30 3914 H 371.501 1.61815 -0.0525945 0
M  V30 3915 H 373.493 3.01165 2.70337 0
M  V30 3916 H 372.063 1.99051 2.41034 0
M  V30 3917 H 371.283 3.86459 0.777391 0
M  V30 3918 H 372.571 4.8748 1.4574 0
M  V30 3919 H 371.969 3.59342 4.3691 0
M  V30 3920 H 370.526 4.42997 4.78118 0
M  V30 3921 N 373.959 -0.0401083 1.57549 0
M  V30 3922 C 375.207 -0.731677 1.8839 0
M  V30 3923 C 375.528 -1.76481 0.829425 0
M  V30 3924 O 374.798 -1.95411 -0.1383 0
M  V30 3925 H 373.378 -0.273225 0.695239 0
M  V30 3926 H 376.04 -0.00867725 1.94898 0
M  V30 3927 H 375.136 -1.22816 2.86919 0
M  V30 3928 N 375.437 -1.54477 -0.31217 0
M  V30 3929 C 376.662 -1.77526 -1.07235 0
M  V30 3930 C 377.087 -0.527775 -1.80544 0
M  V30 3931 O 376.445 0.52121 -1.73646 0
M  V30 3932 C 376.493 -2.97535 -2.03728 0
M  V30 3933 O 375.597 -2.69878 -3.11833 0
M  V30 3934 H 374.938 -0.58792 -0.30862 0
M  V30 3935 H 377.468 -2.01532 -0.352993 0
M  V30 3936 H 377.478 -3.25198 -2.46395 0
M  V30 3937 H 376.153 -3.87996 -1.49774 0
M  V30 3938 H 374.73 -2.53199 -2.7376 0
M  V30 3939 N 376.915 0.57481 -1.46744 0
M  V30 3940 C 378.161 1.33251 -1.53674 0
M  V30 3941 C 378.516 1.91468 -0.189125 0
M  V30 3942 O 377.809 1.73954 0.803151 0
M  V30 3943 C 378.003 2.476 -2.57738 0
M  V30 3944 C 377.832 2.00586 -4.02487 0
M  V30 3945 C 376.602 1.85237 -4.70123 0
M  V30 3946 C 378.8 1.56078 -4.90045 0
M  V30 3947 N 376.782 1.32377 -5.99458 0
M  V30 3948 C 378.153 1.14863 -6.09267 0
M  V30 3949 C 380.208 1.43968 -4.76632 0
M  V30 3950 C 378.911 0.627435 -7.16558 0
M  V30 3951 C 380.937 0.932512 -5.84002 0
M  V30 3952 C 380.299 0.53019 -7.02402 0
M  V30 3953 H 376.398 0.480284 -0.617131 0
M  V30 3954 H 378.982 0.653592 -1.83402 0
M  V30 3955 H 377.153 3.13045 -2.29907 0
M  V30 3956 H 378.885 3.14567 -2.54616 0
M  V30 3957 H 375.64 2.07423 -4.25761 0
M  V30 3958 H 376.064 1.08085 -6.68316 0
M  V30 3959 H 380.706 1.73689 -3.85476 0
M  V30 3960 H 378.424 0.317821 -8.07475 0
M  V30 3961 H 382.01 0.842611 -5.75666 0
M  V30 3962 H 380.89 0.14381 -7.84068 0
M  V30 3963 N 378.394 1.34581 0.820102 0
M  V30 3964 C 379.357 1.2628 1.91275 0
M  V30 3965 C 380.357 0.177344 1.59819 0
M  V30 3966 O 381.547 0.430156 1.68806 0
M  V30 3967 C 378.679 0.950327 3.27386 0
M  V30 3968 H 379.872 2.23421 2.00057 0
M  V30 3969 H 377.425 1.1891 1.0144 0
M  V30 3970 H 378.16 -0.0177938 3.24295 0
M  V30 3971 H 377.945 1.73549 3.51601 0
M  V30 3972 H 379.435 0.917492 4.07396 0
M  V30 3973 N 379.872 -1.04064 1.18357 0
M  V30 3974 C 380.822 -2.10393 0.878561 0
M  V30 3975 C 381.806 -1.60183 -0.151713 0
M  V30 3976 O 382.998 -1.76923 0.0523303 0
M  V30 3977 C 380.127 -3.4089 0.406096 0
M  V30 3978 C 379.213 -3.97866 1.46844 0
M  V30 3979 N 379.604 -4.28657 2.68489 0
M  V30 3980 C 377.902 -4.2574 1.32896 0
M  V30 3981 C 378.603 -4.74253 3.36836 0
M  V30 3982 N 377.579 -4.75068 2.64219 0
M  V30 3983 H 381.381 -2.32076 1.80327 0
M  V30 3984 H 378.895 -1.21818 1.07397 0
M  V30 3985 H 380.892 -4.16557 0.169088 0
M  V30 3986 H 379.552 -3.20633 -0.512275 0
M  V30 3987 H 380.563 -4.18304 3.05356 0
M  V30 3988 H 377.24 -4.1481 0.473134 0
M  V30 3989 H 378.63 -5.07096 4.40798 0
M  V30 3990 N 381.35 -0.985608 -1.22978 0
M  V30 3991 C 382.761 -0.693593 -1.73338 0
M  V30 3992 C 383.112 0.789935 -1.79595 0
M  V30 3993 O 382.237 1.61771 -1.43733 0
M  V30 3994 C 382.832 -1.25235 -3.14804 0
M  V30 3995 C 381.391 -1.00987 -3.626 0
M  V30 3996 C 380.538 -1.37695 -2.40698 0
M  V30 3997 H 383.489 -1.15884 -1.08428 0
M  V30 3998 H 383.51 -0.627329 -3.75293 0
M  V30 3999 H 383.022 -2.33209 -3.10218 0
M  V30 4000 H 381.123 0.0535565 -3.72562 0
M  V30 4001 H 381.236 -1.66812 -4.49122 0
M  V30 4002 H 379.6 -0.795459 -2.4196 0
M  V30 4003 H 380.383 -2.46657 -2.38779 0
M  V30 4004 N 382.828 1.3818 -0.7579 0
M  V30 4005 C 384.076 1.99624 -0.315361 0
M  V30 4006 C 384.397 1.60464 1.10799 0
M  V30 4007 O 383.667 0.863507 1.75842 0
M  V30 4008 H 382.247 0.73831 -0.113611 0
M  V30 4009 H 384.909 1.68878 -0.972952 0
M  V30 4010 H 384.005 3.09754 -0.381931 0
M  V30 4011 N 384.306 0.507319 1.49211 0
M  V30 4012 C 385.722 0.163682 1.58758 0
M  V30 4013 C 385.922 -1.33208 1.51188 0
M  V30 4014 O 384.978 -2.10855 1.38911 0
M  V30 4015 C 386.291 0.746095 2.91297 0
M  V30 4016 C 387.839 0.712773 3.04776 0
M  V30 4017 C 388.314 1.27336 4.39943 0
M  V30 4018 N 389.805 1.23433 4.46451 0
M  V30 4019 C 390.54 1.63821 5.495 0
M  V30 4020 N 390.036 2.11832 6.5962 0
M  V30 4021 N 391.829 1.55198 5.4025 0
M  V30 4022 H 383.98 1.47972 1.52375 0
M  V30 4023 H 386.243 0.614147 0.722168 0
M  V30 4024 H 385.949 1.79534 3.02424 0
M  V30 4025 H 385.823 0.210137 3.76614 0
M  V30 4026 H 388.21 -0.327656 2.93275 0
M  V30 4027 H 388.291 1.28595 2.21127 0
M  V30 4028 H 387.935 2.3126 4.52196 0
M  V30 4029 H 387.865 0.676066 5.22242 0
M  V30 4030 H 390.356 0.882627 3.67448 0
M  V30 4031 H 390.669 2.40703 7.34358 0
M  V30 4032 H 389.014 2.1581 6.60644 0
M  V30 4033 H 392.205 1.17505 4.53112 0
M  V30 4034 H 392.378 1.86997 6.20432 0
M  V30 4035 N 385.784 -1.5574 0.241426 0
M  V30 4036 C 387.012 -2.03208 -0.389134 0
M  V30 4037 C 387.427 -1.12082 -1.51931 0
M  V30 4038 O 386.784 -0.134183 -1.82006 0
M  V30 4039 C 386.835 -3.50064 -0.902087 0
M  V30 4040 O 386.556 -4.37717 0.18305 0
M  V30 4041 C 388.057 -4.13268 -1.60389 0
M  V30 4042 H 385.277 -0.664509 -0.0931053 0
M  V30 4043 H 387.821 -2.0124 0.36369 0
M  V30 4044 H 385.976 -3.52583 -1.60511 0
M  V30 4045 H 386.39 -5.24097 -0.205579 0
M  V30 4046 H 387.864 -5.17733 -1.91458 0
M  V30 4047 H 388.341 -3.59434 -2.52397 0
M  V30 4048 H 388.947 -4.14655 -0.945576 0
M  V30 4049 N 387.262 0.0317525 -1.57568 0
M  V30 4050 C 388.678 0.38735 -1.54828 0
M  V30 4051 C 388.878 1.7677 -0.967187 0
M  V30 4052 O 387.934 2.45581 -0.587063 0
M  V30 4053 C 389.247 0.291667 -2.99282 0
M  V30 4054 C 390.795 0.368946 -3.10818 0
M  V30 4055 C 391.27 0.302741 -4.56998 0
M  V30 4056 N 392.761 0.361617 -4.61786 0
M  V30 4057 C 393.496 0.333238 -5.72431 0
M  V30 4058 N 392.992 0.257308 -6.92322 0
M  V30 4059 N 394.785 0.382769 -5.60795 0
M  V30 4060 H 386.936 -0.871609 -1.93692 0
M  V30 4061 H 389.199 -0.331161 -0.888277 0
M  V30 4062 H 388.905 -0.656794 -3.45513 0
M  V30 4063 H 388.779 1.08638 -3.61217 0
M  V30 4064 H 391.166 1.30784 -2.64536 0
M  V30 4065 H 391.247 -0.455066 -2.5172 0
M  V30 4066 H 390.891 -0.632473 -5.03947 0
M  V30 4067 H 390.821 1.14482 -5.14005 0
M  V30 4068 H 393.312 0.422923 -3.75526 0
M  V30 4069 H 393.625 0.24068 -7.72425 0
M  V30 4070 H 391.97 0.223396 -6.94641 0
M  V30 4071 H 395.161 0.44006 -4.66027 0
M  V30 4072 H 395.334 0.357184 -6.47015 0
M  V30 4073 N 388.74 1.54641 0.303973 0
M  V30 4074 C 389.988 1.73437 1.0375 0
M  V30 4075 C 390.309 0.521449 1.87899 0
M  V30 4076 O 389.579 -0.46432 1.90318 0
M  V30 4077 H 388.159 0.639518 0.386039 0
M  V30 4078 H 390.821 1.91988 0.335675 0
M  V30 4079 H 389.917 2.62235 1.69231 0
M  V30 4080 N 390.218 -0.567019 1.47046 0
M  V30 4081 C 391.629 -1.14916 1.47143 0
M  V30 4082 C 391.98 -1.94954 0.220767 0
M  V30 4083 O 391.105 -2.05602 -0.67505 0
M  V30 4084 C 391.7 -2.09069 2.666 0
M  V30 4085 C 390.259 -2.62575 2.69687 0
M  V30 4086 C 389.406 -1.38755 2.40088 0
M  V30 4087 H 392.357 -0.354126 1.54699 0
M  V30 4088 H 392.378 -2.92789 2.43011 0
M  V30 4089 H 391.89 -1.50789 3.57609 0
M  V30 4090 H 389.991 -3.24681 1.82792 0
M  V30 4091 H 390.104 -3.04239 3.70102 0
M  V30 4092 H 388.468 -1.69098 1.90468 0
M  V30 4093 H 389.251 -0.822822 3.33293 0
M  V30 4094 N 391.696 -1.35014 -0.812953 0
M  V30 4095 C 392.921 -1.31187 -1.60639 0
M  V30 4096 C 393.346 0.109382 -1.87782 0
M  V30 4097 O 392.704 1.07424 -1.46047 0
M  V30 4098 C 392.752 -2.11809 -2.91838 0
M  V30 4099 O 391.856 -1.49444 -3.8437 0
M  V30 4100 H 391.197 -0.450084 -0.488181 0
M  V30 4101 H 393.727 -1.77963 -1.00947 0
M  V30 4102 H 393.737 -2.23531 -3.41318 0
M  V30 4103 H 392.412 -3.15137 -2.71407 0
M  V30 4104 H 390.989 -1.46524 -3.42907 0
M  V30 4105 N 393.175 1.03435 -1.18907 0
M  V30 4106 C 394.452 1.73778 -0.89781 0
M  V30 4107 C 394.832 2.02458 0.597832 0
M  V30 4108 O 394.18 1.67482 1.55441 0
M  V30 4109 C 394.39 3.01845 -1.75187 0
M  V30 4110 C 395.738 3.7546 -1.9828 0
M  V30 4111 O 396.762 3.11759 -1.72293 0
M  V30 4112 O 395.621 4.89966 -2.42065 0
M  V30 4113 H 392.715 0.75651 -0.334098 0
M  V30 4114 H 395.261 1.09444 -1.29693 0
M  V30 4115 H 394.033 2.76836 -2.76545 0
M  V30 4116 H 393.656 3.73919 -1.35167 0
M  V30 4117 N 394.653 0.992116 1.22453 0
M  V30 4118 C 396.069 0.702713 1.43297 0
M  V30 4119 C 396.269 -0.726909 1.87932 0
M  V30 4120 O 395.325 -1.49792 2.0327 0
M  V30 4121 C 396.638 1.70762 2.47509 0
M  V30 4122 C 398.186 1.72298 2.61309 0
M  V30 4123 C 398.661 2.71649 3.68742 0
M  V30 4124 N 400.152 2.70239 3.76199 0
M  V30 4125 C 400.887 3.43778 4.58917 0
M  V30 4126 N 400.383 4.26914 5.45633 0
M  V30 4127 N 402.176 3.32487 4.5322 0
M  V30 4128 H 394.327 1.91543 0.917871 0
M  V30 4129 H 396.59 0.826031 0.465162 0
M  V30 4130 H 396.296 2.73059 2.21657 0
M  V30 4131 H 396.17 1.49985 3.46099 0
M  V30 4132 H 398.557 0.706989 2.86506 0
M  V30 4133 H 398.638 1.97143 1.62997 0
M  V30 4134 H 398.282 3.73397 3.44292 0
M  V30 4135 H 398.212 2.44074 4.66622 0
M  V30 4136 H 400.703 2.09912 3.14237 0
M  V30 4137 H 401.016 4.79855 6.05771 0
M  V30 4138 H 399.361 4.31002 5.45218 0
M  V30 4139 H 402.552 2.6698 3.84499 0
M  V30 4140 H 402.725 3.90058 5.17454 0
M  V30 4141 N 396.131 -1.37776 0.765217 0
M  V30 4142 C 397.379 -1.99454 0.325943 0
M  V30 4143 C 397.7 -1.61049 -1.09947 0
M  V30 4144 O 396.97 -0.872821 -1.75381 0
M  V30 4145 H 395.55 -0.737697 0.117525 0
M  V30 4146 H 398.212 -1.68359 0.981895 0
M  V30 4147 H 397.308 -3.09547 0.398353 0
M  V30 4148 N 397.609 -0.515225 -1.4894 0
M  V30 4149 C 398.856 0.024215 -2.02486 0
M  V30 4150 C 399.184 1.35671 -1.39368 0
M  V30 4151 O 398.439 1.88566 -0.523574 0
M  V30 4152 C 398.738 0.210595 -3.56779 0
M  V30 4153 C 398.404 -1.04569 -4.38607 0
M  V30 4154 C 397.066 -1.39002 -4.60686 0
M  V30 4155 C 399.418 -1.88008 -4.86109 0
M  V30 4156 C 396.746 -2.568 -5.27514 0
M  V30 4157 C 399.098 -3.04972 -5.54234 0
M  V30 4158 C 397.762 -3.39768 -5.74555 0
M  V30 4159 H 397.032 0.00886088 -0.740947 0
M  V30 4160 H 399.679 -0.678263 -1.79086 0
M  V30 4161 H 397.984 0.99572 -3.78936 0
M  V30 4162 H 399.681 0.642659 -3.95817 0
M  V30 4163 H 396.271 -0.767497 -4.21672 0
M  V30 4164 H 400.455 -1.62719 -4.68867 0
M  V30 4165 H 395.711 -2.8398 -5.41447 0
M  V30 4166 H 399.885 -3.69943 -5.90013 0
M  V30 4167 H 397.512 -4.31148 -6.26112 0
M  V30 4168 N 399.087 1.5561 -0.249682 0
M  V30 4169 C 400.327 2.00916 0.37579 0
M  V30 4170 C 400.691 1.13409 1.54927 0
M  V30 4171 O 401.892 1.48183 2.24266 0
M  V30 4172 C 400.163 3.48949 0.772633 0
M  V30 4173 S 401.722 4.16261 1.38824 0
M  V30 4174 H 398.54 0.70112 0.118117 0
M  V30 4175 H 401.142 1.92052 -0.365567 0
M  V30 4176 H 399.846 4.103 -0.090683 0
M  V30 4177 H 399.377 3.61745 1.5461 0
M  V30 4178 H 401.392 4.17778 2.67724 0
M  V30 4179 N 400.565 -0.0233959 1.57583 0
M  V30 4180 C 401.811 -0.714119 1.89811 0
M  V30 4181 C 402.144 -1.74702 0.848113 0
M  V30 4182 O 401.419 -1.94023 -0.136135 0
M  V30 4183 C 401.702 -1.37853 3.32669 0
M  V30 4184 C 401.555 -0.358764 4.48367 0
M  V30 4185 C 402.874 -2.31101 3.7454 0
M  V30 4186 H 399.993 -0.25814 0.690314 0
M  V30 4187 H 402.635 0.0230927 1.89986 0
M  V30 4188 H 400.785 -2.00689 3.3265 0
M  V30 4189 H 402.457 0.268115 4.6052 0
M  V30 4190 H 400.7 0.321387 4.32608 0
M  V30 4191 H 401.371 -0.862242 5.45224 0
M  V30 4192 H 403.847 -1.78304 3.75961 0
M  V30 4193 H 402.723 -2.74567 4.75294 0
M  V30 4194 H 402.984 -3.18018 3.0711 0
M  V30 4195 N 402.043 -1.548 -0.295768 0
M  V30 4196 C 403.289 -1.74588 -1.03184 0
M  V30 4197 C 403.622 -0.532962 -1.86744 0
M  V30 4198 O 402.897 0.469872 -1.88739 0
M  V30 4199 C 403.18 -3.03791 -1.93347 0
M  V30 4200 C 403.033 -4.35392 -1.12933 0
M  V30 4201 C 404.352 -3.28892 -2.92435 0
M  V30 4202 H 401.471 -0.635221 -0.373715 0
M  V30 4203 H 404.113 -1.87519 -0.30606 0
M  V30 4204 H 402.263 -2.92898 -2.55232 0
M  V30 4205 H 403.935 -4.58211 -0.532943 0
M  V30 4206 H 402.178 -4.31642 -0.432168 0
M  V30 4207 H 402.849 -5.22074 -1.79284 0
M  V30 4208 H 405.325 -3.39429 -2.4068 0
M  V30 4209 H 404.201 -4.20603 -3.52682 0
M  V30 4210 H 404.462 -2.47437 -3.6637 0
M  V30 4211 N 403.521 0.559213 -1.47345 0
M  V30 4212 C 404.746 1.34676 -1.57725 0
M  V30 4213 C 405.171 1.86723 -0.227164 0
M  V30 4214 O 404.529 1.6286 0.796642 0
M  V30 4215 C 404.577 2.49399 -2.60447 0
M  V30 4216 O 403.681 3.51567 -2.15578 0
M  V30 4217 H 403.022 0.400115 -0.52991 0
M  V30 4218 H 405.552 0.676009 -1.93109 0
M  V30 4219 H 405.562 2.95996 -2.80803 0
M  V30 4220 H 404.237 2.10873 -3.58477 0
M  V30 4221 H 402.814 3.11289 -2.05313 0
M  V30 4222 N 404.999 1.35443 0.805782 0
M  V30 4223 C 406.41 1.25768 1.37983 0
M  V30 4224 C 406.761 -0.10958 1.95894 0
M  V30 4225 O 405.886 -1.01056 1.91355 0
M  V30 4226 C 406.481 2.27727 2.5085 0
M  V30 4227 C 405.04 2.2179 3.04115 0
M  V30 4228 C 404.187 2.13393 1.77084 0
M  V30 4229 H 407.138 1.4656 0.608752 0
M  V30 4230 H 407.159 1.90422 3.29424 0
M  V30 4231 H 406.671 3.27227 2.08671 0
M  V30 4232 H 404.772 1.25703 3.50756 0
M  V30 4233 H 404.885 3.13788 3.62042 0
M  V30 4234 H 403.249 1.59384 1.98668 0
M  V30 4235 H 404.032 3.14755 1.37056 0
M  V30 4236 N 406.477 -1.02803 1.19454 0
M  V30 4237 C 407.44 -2.09264 0.934955 0
M  V30 4238 C 408.44 -1.60576 -0.0849015 0
M  V30 4239 O 409.63 -1.73554 0.149933 0
M  V30 4240 C 406.762 -3.38482 0.40531 0
M  V30 4241 H 407.955 -2.33726 1.87916 0
M  V30 4242 H 405.508 -1.19426 1.00832 0
M  V30 4243 H 406.243 -3.19689 -0.544899 0
M  V30 4244 H 406.028 -3.75142 1.14065 0
M  V30 4245 H 407.518 -4.16894 0.242806 0
M  V30 4246 N 407.956 -0.998596 -1.21925 0
M  V30 4247 C 409.372 -0.710303 -1.42923 0
M  V30 4248 C 409.572 0.716933 -1.88314 0
M  V30 4249 O 408.628 1.48712 -2.04062 0
M  V30 4250 C 409.941 -1.72072 -2.466 0
M  V30 4251 C 411.489 -1.73681 -2.60392 0
M  V30 4252 C 411.964 -2.73601 -3.67296 0
M  V30 4253 N 413.455 -2.7223 -3.7476 0
M  V30 4254 C 414.19 -3.46206 -4.57087 0
M  V30 4255 N 413.686 -4.29802 -5.43362 0
M  V30 4256 N 415.479 -3.34886 -4.51451 0
M  V30 4257 H 407.63 -1.92028 -0.9077 0
M  V30 4258 H 409.893 -0.828487 -0.460775 0
M  V30 4259 H 409.599 -2.74231 -2.20206 0
M  V30 4260 H 409.473 -1.51818 -3.45299 0
M  V30 4261 H 411.86 -0.722173 -2.86127 0
M  V30 4262 H 411.941 -1.98005 -1.61949 0
M  V30 4263 H 411.585 -3.75217 -3.42307 0
M  V30 4264 H 411.515 -2.46545 -4.65321 0
M  V30 4265 H 414.006 -2.11576 -3.1312 0
M  V30 4266 H 414.319 -4.83061 -6.03218 0
M  V30 4267 H 412.664 -4.33887 -5.42925 0
M  V30 4268 H 415.855 -2.69015 -3.83078 0
M  V30 4269 H 416.028 -3.92796 -5.15379 0
M  V30 4270 N 409.434 1.37368 -0.772513 0
M  V30 4271 C 410.845 1.8231 -0.402493 0
M  V30 4272 C 411.196 1.6436 1.07146 0
M  V30 4273 O 410.321 1.15514 1.82991 0
M  V30 4274 C 410.916 3.30979 -0.723776 0
M  V30 4275 C 409.475 3.74195 -0.406802 0
M  V30 4276 C 408.622 2.59885 -0.967218 0
M  V30 4277 H 411.573 1.25829 -0.967099 0
M  V30 4278 H 411.594 3.80499 -0.00870832 0
M  V30 4279 H 411.106 3.44011 -1.7966 0
M  V30 4280 H 409.207 3.66732 0.658673 0
M  V30 4281 H 409.32 4.7027 -0.915588 0
M  V30 4282 H 407.684 2.51674 -0.391416 0
M  V30 4283 H 408.467 2.7571 -2.04546 0
M  V30 4284 N 410.912 0.523116 1.48665 0
M  V30 4285 C 411.875 -0.232592 2.28017 0
M  V30 4286 C 412.875 -0.874021 1.34972 0
M  V30 4287 O 414.065 -0.735132 1.57929 0
M  V30 4288 C 411.197 -1.33586 3.13636 0
M  V30 4289 H 412.39 0.464008 2.96289 0
M  V30 4290 H 409.943 0.278816 1.53793 0
M  V30 4291 H 410.678 -2.06593 2.4998 0
M  V30 4292 H 410.463 -0.881125 3.82071 0
M  V30 4293 H 411.953 -1.86759 3.73511 0
M  V30 4294 N 412.39 -1.55475 0.257931 0
M  V30 4295 C 413.3 -2.2549 -0.647425 0
M  V30 4296 C 414.316 -1.2748 -1.18427 0
M  V30 4297 O 415.492 -1.6038 -1.2182 0
M  V30 4298 C 412.557 -2.94916 -1.82278 0
M  V30 4299 C 411.618 -4.08363 -1.32432 0
M  V30 4300 C 410.851 -4.74469 -2.44366 0
M  V30 4301 O 411.074 -4.39701 -3.63344 0
M  V30 4302 O 410.008 -5.62763 -2.13497 0
M  V30 4303 H 413.834 -3.03593 -0.0807707 0
M  V30 4304 H 411.419 -1.49377 0.0259962 0
M  V30 4305 H 413.301 -3.38606 -2.50846 0
M  V30 4306 H 411.976 -2.19744 -2.37685 0
M  V30 4307 H 410.883 -3.69166 -0.605605 0
M  V30 4308 H 412.216 -4.85385 -0.816211 0
M  V30 4309 N 413.868 0.0150385 -1.57593 0
M  V30 4310 C 414.778 1.02791 -2.10882 0
M  V30 4311 C 415.794 1.38702 -1.0506 0
M  V30 4312 O 416.97 1.47739 -1.36877 0
M  V30 4313 C 414.035 2.30568 -2.58919 0
M  V30 4314 C 413.096 2.01108 -3.79281 0
M  V30 4315 C 412.329 3.22794 -4.25018 0
M  V30 4316 O 412.552 4.33959 -3.70183 0
M  V30 4317 O 411.486 3.07672 -5.17322 0
M  V30 4318 H 415.312 0.604973 -2.97613 0
M  V30 4319 H 412.897 0.23292 -1.47573 0
M  V30 4320 H 414.779 3.05662 -2.90084 0
M  V30 4321 H 413.454 2.72129 -1.75293 0
M  V30 4322 H 412.361 1.23537 -3.53114 0
M  V30 4323 H 413.694 1.64394 -4.63935 0
M  V30 4324 N 415.346 1.54954 0.287554 0
M  V30 4325 C 416.309 1.86076 1.33823 0
M  V30 4326 C 417.309 0.734414 1.43049 0
M  V30 4327 O 418.499 1.00266 1.42452 0
M  V30 4328 C 415.631 2.05305 2.72144 0
M  V30 4329 H 416.824 2.79984 1.07465 0
M  V30 4330 H 414.377 1.47223 0.524902 0
M  V30 4331 H 415.112 1.1373 3.03704 0
M  V30 4332 H 414.897 2.873 2.66836 0
M  V30 4333 H 416.387 2.30706 3.48087 0
M  V30 4334 N 416.824 -0.551391 1.4764 0
M  V30 4335 C 418.052 -1.33357 1.58189 0
M  V30 4336 C 418.467 -1.87342 0.234199 0
M  V30 4337 O 417.824 -1.65301 -0.77343 0
M  V30 4338 C 417.875 -2.49942 2.61173 0
M  V30 4339 O 417.596 -1.98187 3.90709 0
M  V30 4340 C 419.097 -3.42072 2.8196 0
M  V30 4341 H 416.317 -0.40631 0.533998 0
M  V30 4342 H 418.861 -0.667367 1.93304 0
M  V30 4343 H 417.016 -3.12489 2.28975 0
M  V30 4344 H 417.43 -2.74342 4.47031 0
M  V30 4345 H 418.904 -4.20278 3.57869 0
M  V30 4346 H 419.381 -3.95978 1.89995 0
M  V30 4347 H 419.987 -2.85336 3.15378 0
M  V30 4348 N 418.302 -1.35869 -0.798587 0
M  V30 4349 C 419.527 -1.32883 -1.59238 0
M  V30 4350 C 419.952 0.0894587 -1.87887 0
M  V30 4351 O 419.31 1.05869 -1.47178 0
M  V30 4352 C 419.358 -2.14892 -2.89575 0
M  V30 4353 O 418.462 -1.53512 -3.82763 0
M  V30 4354 H 417.803 -0.455236 -0.48338 0
M  V30 4355 H 420.333 -1.79024 -0.990539 0
M  V30 4356 H 420.343 -2.27139 -3.38928 0
M  V30 4357 H 419.018 -3.17998 -2.68049 0
M  V30 4358 H 417.595 -1.50153 -3.41334 0
M  V30 4359 N 419.78 1.02168 -1.19998 0
M  V30 4360 C 420.71 2.12488 -0.96804 0
M  V30 4361 C 421.691 1.69799 0.101185 0
M  V30 4362 O 422.876 1.94121 -0.0552993 0
M  V30 4363 C 420.006 3.43479 -0.513776 0
M  V30 4364 C 418.96 3.99884 -1.52566 0
M  V30 4365 C 418.286 5.26582 -0.928214 0
M  V30 4366 C 419.586 4.33861 -2.90795 0
M  V30 4367 H 421.28 2.32149 -1.89069 0
M  V30 4368 H 418.826 1.11564 -0.910468 0
M  V30 4369 H 420.779 4.20036 -0.338774 0
M  V30 4370 H 419.503 3.23561 0.444493 0
M  V30 4371 H 418.162 3.25429 -1.68794 0
M  V30 4372 H 417.81 5.02986 0.0378289 0
M  V30 4373 H 417.51 5.65284 -1.60397 0
M  V30 4374 H 419.034 6.05799 -0.764167 0
M  V30 4375 H 420.448 5.01327 -2.78109 0
M  V30 4376 H 418.845 4.83664 -3.55231 0
M  V30 4377 H 419.915 3.42848 -3.42904 0
M  V30 4378 N 421.258 1.00505 1.21394 0
M  V30 4379 C 422.168 0.574806 2.27449 0
M  V30 4380 C 423.184 -0.382206 1.6975 0
M  V30 4381 O 424.36 -0.246027 1.99892 0
M  V30 4382 C 421.425 -0.0917414 3.46579 0
M  V30 4383 C 420.486 0.909758 4.1955 0
M  V30 4384 C 419.719 0.274924 5.32991 0
M  V30 4385 O 419.942 -0.928254 5.62796 0
M  V30 4386 O 418.876 0.985877 5.93771 0
M  V30 4387 H 422.702 1.45744 2.66444 0
M  V30 4388 H 420.287 0.773923 1.27792 0
M  V30 4389 H 422.169 -0.464551 4.18832 0
M  V30 4390 H 420.844 -0.948755 3.09484 0
M  V30 4391 H 419.751 1.33372 3.49518 0
M  V30 4392 H 421.084 1.73636 4.60555 0
M  V30 4393 N 422.737 -1.36956 0.779787 0
M  V30 4394 C 423.985 -1.99097 0.347079 0
M  V30 4395 C 424.306 -1.62206 -1.08232 0
M  V30 4396 O 423.576 -0.891373 -1.74446 0
M  V30 4397 H 422.156 -0.736409 0.125342 0
M  V30 4398 H 424.818 -1.67308 0.999696 0
M  V30 4399 H 423.914 -3.09107 0.431162 0
M  V30 4400 N 424.215 -0.530993 -1.48385 0
M  V30 4401 C 425.178 0.220497 -2.28137 0
M  V30 4402 C 426.178 0.866851 -1.35434 0
M  V30 4403 O 427.368 0.726746 -1.58316 0
M  V30 4404 C 424.5 1.31921 -3.1434 0
M  V30 4405 H 425.693 -0.479714 -2.96038 0
M  V30 4406 H 423.246 -0.286968 -1.53643 0
M  V30 4407 H 423.981 2.05264 -2.51072 0
M  V30 4408 H 423.766 0.86085 -3.82533 0
M  V30 4409 H 425.256 1.84776 -3.74497 0
M  V30 4410 N 425.693 1.55336 -0.266172 0
M  V30 4411 C 426.623 2.25146 0.618981 0
M  V30 4412 C 427.604 1.23845 1.16604 0
M  V30 4413 O 428.789 1.52544 1.20183 0
M  V30 4414 C 425.919 2.96572 1.80728 0
M  V30 4415 C 424.873 4.04726 1.39215 0
M  V30 4416 C 424.199 4.63678 2.66283 0
M  V30 4417 C 425.499 5.19407 0.548942 0
M  V30 4418 H 427.193 2.99377 0.0368116 0
M  V30 4419 H 424.739 1.43991 0.0162651 0
M  V30 4420 H 426.692 3.44116 2.43232 0
M  V30 4421 H 425.416 2.19861 2.41514 0
M  V30 4422 H 424.075 3.57979 0.790351 0
M  V30 4423 H 423.723 3.83646 3.25308 0
M  V30 4424 H 423.423 5.367 2.39222 0
M  V30 4425 H 424.947 5.13967 3.29651 0
M  V30 4426 H 426.361 5.63059 1.07876 0
M  V30 4427 H 424.758 5.98936 0.373593 0
M  V30 4428 H 425.828 4.8295 -0.434394 0
M  V30 4429 N 427.171 -0.0066808 1.57599 0
M  V30 4430 C 428.396 -0.707738 1.94951 0
M  V30 4431 C 428.821 -1.66882 0.867868 0
M  V30 4432 O 428.179 -1.80457 -0.17458 0
M  V30 4433 C 428.227 -1.42162 3.31394 0
M  V30 4434 O 427.331 -2.53578 3.25226 0
M  V30 4435 H 426.672 -0.188752 0.636607 0
M  V30 4436 H 429.202 0.0445193 2.04552 0
M  V30 4437 H 429.212 -1.78655 3.66806 0
M  V30 4438 H 427.887 -0.716903 4.09675 0
M  V30 4439 H 426.464 -2.19463 3.01481 0
M  V30 4440 N 428.649 -1.55105 -0.279332 0
M  V30 4441 C 429.897 -1.75066 -1.00977 0
M  V30 4442 C 430.218 -0.551276 -1.87045 0
M  V30 4443 O 429.488 0.433984 -1.91032 0
M  V30 4444 H 428.068 -0.645578 -0.375816 0
M  V30 4445 H 430.73 -1.92497 -0.305089 0
M  V30 4446 H 429.826 -2.64894 -1.65038 0
M  V30 4447 N 430.127 0.543554 -1.4793 0
M  V30 4448 C 431.355 1.32516 -1.58894 0
M  V30 4449 C 431.77 1.87215 -0.244131 0
M  V30 4450 O 431.127 1.65709 0.764652 0
M  V30 4451 C 431.178 2.48554 -2.62494 0
M  V30 4452 O 430.899 1.96112 -3.91755 0
M  V30 4453 C 432.4 3.40572 -2.8377 0
M  V30 4454 H 429.62 0.403472 -0.536145 0
M  V30 4455 H 432.164 0.657106 -1.93655 0
M  V30 4456 H 430.319 3.1127 -2.30629 0
M  V30 4457 H 430.733 2.71967 -4.4848 0
M  V30 4458 H 432.207 4.18375 -3.60093 0
M  V30 4459 H 432.684 3.94965 -1.92092 0
M  V30 4460 H 433.29 2.8366 -3.16887 0
M  V30 4461 N 431.605 1.3629 0.791371 0
M  V30 4462 C 433.021 1.16661 1.08914 0
M  V30 4463 C 433.221 -0.0106266 2.01497 0
M  V30 4464 O 432.277 -0.676596 2.43266 0
M  V30 4465 C 433.59 2.47656 1.70549 0
M  V30 4466 C 435.138 2.54002 1.82899 0
M  V30 4467 C 435.613 3.85078 2.47949 0
M  V30 4468 N 437.104 3.86413 2.5542 0
M  V30 4469 C 437.839 4.84572 3.06557 0
M  V30 4470 N 437.335 5.93124 3.58016 0
M  V30 4471 N 439.128 4.71994 3.05251 0
M  V30 4472 H 431.279 2.11668 0.176238 0
M  V30 4473 H 433.542 0.937486 0.140796 0
M  V30 4474 H 433.248 3.34059 1.09989 0
M  V30 4475 H 433.122 2.63319 2.70079 0
M  V30 4476 H 435.509 1.68018 2.42598 0
M  V30 4477 H 435.59 2.42239 0.821808 0
M  V30 4478 H 435.234 4.71467 1.88895 0
M  V30 4479 H 435.164 3.94135 3.49235 0
M  V30 4480 H 437.655 3.07988 2.18979 0
M  V30 4481 H 437.968 6.63999 3.95381 0
M  V30 4482 H 436.313 5.96796 3.56173 0
M  V30 4483 H 439.504 3.86321 2.64336 0
M  V30 4484 H 439.677 5.48653 3.44796 0
M  V30 4485 N 433.083 -1.0153 1.20538 0
M  V30 4486 C 434.033 -2.08482 0.922991 0
M  V30 4487 C 435.017 -1.60469 -0.117702 0
M  V30 4488 O 436.209 -1.76772 0.0898465 0
M  V30 4489 C 433.338 -3.39952 0.478312 0
M  V30 4490 C 432.424 -3.94662 1.5525 0
M  V30 4491 N 432.815 -4.22866 2.77521 0
M  V30 4492 C 431.113 -4.22825 1.41897 0
M  V30 4493 C 431.814 -4.67002 3.4682 0
M  V30 4494 N 430.79 -4.69356 2.74237 0
M  V30 4495 H 434.592 -2.28199 1.85209 0
M  V30 4496 H 432.106 -1.19512 1.09957 0
M  V30 4497 H 434.103 -4.16105 0.257408 0
M  V30 4498 H 432.763 -3.21648 -0.444148 0
M  V30 4499 H 433.774 -4.11732 3.1416 0
M  V30 4500 H 430.451 -4.13714 0.561015 0
M  V30 4501 H 431.841 -4.97632 4.51455 0
M  V30 4502 N 434.561 -1.01147 -1.20859 0
M  V30 4503 C 435.786 -0.716698 -1.94623 0
M  V30 4504 C 436.211 0.715415 -1.73964 0
M  V30 4505 O 435.569 1.49157 -1.03062 0
M  V30 4506 C 435.617 -1.0513 -3.44935 0
M  V30 4507 O 434.721 -0.160131 -4.12089 0
M  V30 4508 H 434.062 -0.266404 -0.608214 0
M  V30 4509 H 436.592 -1.35346 -1.53436 0
M  V30 4510 H 436.602 -1.00086 -3.95533 0
M  V30 4511 H 435.277 -2.09475 -3.59295 0
M  V30 4512 H 433.854 -0.267657 -3.71938 0
M  V30 4513 N 436.039 1.36541 -0.78704 0
M  V30 4514 C 436.989 2.27459 -0.156957 0
M  V30 4515 C 437.973 1.46843 0.657709 0
M  V30 4516 O 439.165 1.69245 0.518173 0
M  V30 4517 C 436.294 3.35893 0.709278 0
M  V30 4518 C 435.38 4.23947 -0.114049 0
M  V30 4519 N 435.771 4.92145 -1.16736 0
M  V30 4520 C 434.069 4.4587 0.107497 0
M  V30 4521 C 434.77 5.57261 -1.66837 0
M  V30 4522 N 433.746 5.3473 -0.977992 0
M  V30 4523 H 437.548 2.77669 -0.963185 0
M  V30 4524 H 435.062 1.49839 -0.62627 0
M  V30 4525 H 437.059 3.99953 1.17656 0
M  V30 4526 H 435.719 2.87238 1.51408 0
M  V30 4527 H 436.73 4.94169 -1.54976 0
M  V30 4528 H 433.407 4.08056 0.882994 0
M  V30 4529 H 434.797 6.21728 -2.54762 0
M  V30 4530 N 437.518 0.538854 1.48102 0
M  V30 4531 C 438.929 0.100679 1.86428 0
M  V30 4532 C 439.28 -1.32447 1.44749 0
M  V30 4533 O 438.405 -1.99339 0.842199 0
M  V30 4534 C 439 0.175933 3.38343 0
M  V30 4535 C 437.559 -0.207098 3.7583 0
M  V30 4536 C 436.706 0.531741 2.72154 0
M  V30 4537 H 439.657 0.749614 1.3988 0
M  V30 4538 H 439.678 -0.610144 3.75576 0
M  V30 4539 H 439.19 1.21328 3.68648 0
M  V30 4540 H 437.291 -1.24626 3.5114 0
M  V30 4541 H 437.404 0.138687 4.78899 0
M  V30 4542 H 435.768 -0.0230462 2.5469 0
M  V30 4543 H 436.551 1.56989 3.05302 0
M  V30 4544 N 438.996 -1.55193 0.274407 0
M  V30 4545 C 440.221 -2.04446 -0.348824 0
M  V30 4546 C 440.646 -1.15149 -1.48735 0
M  V30 4547 O 440.004 -0.149952 -1.80679 0
M  V30 4548 C 440.052 -3.51431 -0.808009 0
M  V30 4549 O 439.156 -3.65225 -1.91531 0
M  V30 4550 H 438.497 -0.66006 -0.0722276 0
M  V30 4551 H 441.027 -2.00481 0.408498 0
M  V30 4552 H 441.037 -3.92781 -1.10395 0
M  V30 4553 H 439.712 -4.15892 0.0249865 0
M  V30 4554 H 438.289 -3.35778 -1.62196 0
M  V30 4555 N 440.474 -0.00167713 -1.576 0
M  V30 4556 C 441.72 0.683832 -1.90923 0
M  V30 4557 C 442.053 1.7333 -0.875799 0
M  V30 4558 O 441.328 1.94215 0.10525 0
M  V30 4559 C 441.611 1.32543 -3.3482 0
M  V30 4560 C 441.464 0.287387 -4.48881 0
M  V30 4561 C 442.783 2.25114 -3.78169 0
M  V30 4562 H 439.902 0.247125 -0.694333 0
M  V30 4563 H 442.544 -0.0533149 -1.89925 0
M  V30 4564 H 440.694 1.95372 -3.35801 0
M  V30 4565 H 442.366 -0.341346 -4.60035 0
M  V30 4566 H 440.609 -0.39017 -4.32042 0
M  V30 4567 H 441.28 0.775393 -5.46527 0
M  V30 4568 H 443.756 1.723 -3.7875 0
M  V30 4569 H 442.632 2.66971 -4.79602 0
M  V30 4570 H 442.893 3.13092 -3.12131 0
M  V30 4571 N 441.952 1.55251 0.271103 0
M  V30 4572 C 443.2 1.75599 1.00047 0
M  V30 4573 C 443.521 0.561188 1.8675 0
M  V30 4574 O 442.791 -0.423846 1.9126 0
M  V30 4575 H 441.371 0.647562 0.372387 0
M  V30 4576 H 444.033 1.92656 0.294876 0
M  V30 4577 H 443.129 2.65766 1.6363 0
M  V30 4578 N 443.43 -0.535701 1.48216 0
M  V30 4579 C 444.846 -0.863701 1.3421 0
M  V30 4580 C 445.046 -1.98458 0.34879 0
M  V30 4581 O 444.102 -2.51432 -0.23204 0
M  V30 4582 C 445.415 -1.23662 2.74095 0
M  V30 4583 C 446.963 -1.34683 2.82541 0
M  V30 4584 C 447.438 -1.75322 4.23115 0
M  V30 4585 N 448.929 -1.82434 4.2576 0
M  V30 4586 C 449.664 -2.15252 5.31464 0
M  V30 4587 N 449.16 -2.46533 6.47452 0
M  V30 4588 N 450.953 -2.16209 5.18855 0
M  V30 4589 H 443.104 0.203965 2.11418 0
M  V30 4590 H 445.367 0.0286033 0.947568 0
M  V30 4591 H 445.073 -0.486674 3.48316 0
M  V30 4592 H 444.947 -2.18805 3.07253 0
M  V30 4593 H 447.334 -2.08756 2.08579 0
M  V30 4594 H 447.415 -0.376756 2.5301 0
M  V30 4595 H 447.059 -1.01812 4.97591 0
M  V30 4596 H 446.989 -2.7337 4.50085 0
M  V30 4597 H 449.48 -1.6056 3.42095 0
M  V30 4598 H 449.793 -2.70662 7.23852 0
M  V30 4599 H 448.138 -2.44065 6.50736 0
M  V30 4600 H 451.329 -1.91224 4.2726 0
M  V30 4601 H 451.502 -2.41453 6.01335 0
M  V30 4602 N 444.908 -1.36708 -0.784132 0
M  V30 4603 C 445.84 -1.27333 -1.90575 0
M  V30 4604 C 446.853 -0.191706 -1.61667 0
M  V30 4605 O 448.042 -0.446854 -1.72816 0
M  V30 4606 C 445.142 -0.943177 -3.25511 0
M  V30 4607 C 444.315 -2.12776 -3.82158 0
M  V30 4608 C 443.374 -1.76983 -4.95544 0
M  V30 4609 O 442.4 -2.49134 -5.11782 0
M  V30 4610 N 443.602 -0.706624 -5.76183 0
M  V30 4611 H 446.367 -2.23974 -1.99138 0
M  V30 4612 H 443.928 -1.30171 -0.962656 0
M  V30 4613 H 445.92 -0.684799 -3.98864 0
M  V30 4614 H 444.49 -0.0657333 -3.12531 0
M  V30 4615 H 443.71 -2.54863 -3.0073 0
M  V30 4616 H 444.998 -2.91904 -4.16737 0
M  V30 4617 H 444.396 -0.107643 -5.65598 0
M  V30 4618 H 442.953 -0.50808 -6.49817 0
M  V30 4619 N 446.386 1.0089 -1.21074 0
M  V30 4620 C 447.336 2.0799 -0.934034 0
M  V30 4621 C 448.32 1.60529 0.10919 0
M  V30 4622 O 449.512 1.76722 -0.0992198 0
M  V30 4623 C 446.641 3.39693 -0.496334 0
M  V30 4624 C 445.727 3.93833 -1.57341 0
M  V30 4625 N 446.118 4.21388 -2.7976 0
M  V30 4626 C 444.416 4.22067 -1.44137 0
M  V30 4627 C 445.117 4.65156 -3.49292 0
M  V30 4628 N 444.093 4.67895 -2.76722 0
M  V30 4629 H 447.895 2.27213 -1.86417 0
M  V30 4630 H 445.409 1.18927 -1.10589 0
M  V30 4631 H 447.406 4.15962 -0.279471 0
M  V30 4632 H 446.066 3.21879 0.427084 0
M  V30 4633 H 447.077 4.10061 -3.1634 0
M  V30 4634 H 443.754 4.1341 -0.582947 0
M  V30 4635 H 445.144 4.95231 -4.54088 0
M  V30 4636 N 447.864 1.01787 1.20321 0
M  V30 4637 C 448.814 0.559976 2.21016 0
M  V30 4638 C 449.798 -0.385366 1.56217 0
M  V30 4639 O 450.99 -0.208126 1.75772 0
M  V30 4640 C 448.119 -0.0990553 3.43157 0
M  V30 4641 C 447.205 0.86807 4.15121 0
M  V30 4642 N 447.596 2.0261 4.63447 0
M  V30 4643 C 445.894 0.689162 4.40643 0
M  V30 4644 C 446.595 2.63518 5.18588 0
M  V30 4645 N 445.571 1.91569 5.08726 0
M  V30 4646 H 449.373 1.44281 2.56048 0
M  V30 4647 H 446.887 0.883381 1.36272 0
M  V30 4648 H 448.884 -0.444643 4.14522 0
M  V30 4649 H 447.544 -0.977709 3.0963 0
M  V30 4650 H 448.555 2.40598 4.58621 0
M  V30 4651 H 445.232 -0.14133 4.17261 0
M  V30 4652 H 446.622 3.61527 5.66346 0
M  V30 4653 N 449.342 -1.36122 0.79427 0
M  V30 4654 C 450.305 -2.28309 0.201889 0
M  V30 4655 C 451.305 -1.49041 -0.603603 0
M  V30 4656 O 452.495 -1.68964 -0.423888 0
M  V30 4657 C 449.627 -3.3321 -0.719978 0
M  V30 4658 H 450.82 -2.82208 1.01481 0
M  V30 4659 H 448.373 -1.45768 0.564037 0
M  V30 4660 H 449.108 -2.84475 -1.55706 0
M  V30 4661 H 448.893 -3.91835 -0.144266 0
M  V30 4662 H 450.383 -4.02044 -1.12916 0
M  V30 4663 N 450.82 -0.546701 -1.47814 0
M  V30 4664 C 452.068 -0.0187037 -2.02091 0
M  V30 4665 C 452.389 1.33168 -1.42447 0
M  V30 4666 O 451.659 1.86619 -0.595839 0
M  V30 4667 H 450.239 -0.00392531 -0.74699 0
M  V30 4668 H 452.901 -0.714327 -1.81338 0
M  V30 4669 H 451.997 0.0772219 -3.12004 0
M  V30 4670 N 452.299 1.55045 -0.282633 0
M  V30 4671 C 453.71 1.85473 0.213655 0
M  V30 4672 C 454.061 1.20465 1.54863 0
M  V30 4673 O 453.186 0.495676 2.10647 0
M  V30 4674 C 453.781 3.36496 0.394445 0
M  V30 4675 C 452.34 3.67022 0.834961 0
M  V30 4676 C 451.487 2.77218 -0.0674081 0
M  V30 4677 H 454.438 1.50478 -0.504202 0
M  V30 4678 H 454.459 3.60007 1.23186 0
M  V30 4679 H 453.971 3.83782 -0.577326 0
M  V30 4680 H 452.072 3.25241 1.81794 0
M  V30 4681 H 452.185 4.74433 0.667075 0
M  V30 4682 H 450.549 2.5069 0.450196 0
M  V30 4683 H 451.332 3.2732 -1.0352 0
M  V30 4684 N 453.777 0.010035 1.57597 0
M  V30 4685 C 455.188 -0.531426 1.78977 0
M  V30 4686 C 455.539 -1.73375 0.918454 0
M  V30 4687 O 454.664 -2.16047 0.123635 0
M  V30 4688 C 455.259 -0.97086 3.24592 0
M  V30 4689 C 453.818 -1.45756 3.47033 0
M  V30 4690 C 452.965 -0.413384 2.74201 0
M  V30 4691 H 455.916 0.236166 1.56933 0
M  V30 4692 H 455.937 -1.83633 3.33255 0
M  V30 4693 H 455.449 -0.0955893 3.87982 0
M  V30 4694 H 453.55 -2.35339 2.88871 0
M  V30 4695 H 453.663 -1.4781 4.55729 0
M  V30 4696 H 452.027 -0.877266 2.39115 0
M  V30 4697 H 452.81 0.453092 3.40297 0
M  V30 4698 N 455.255 -1.55392 -0.262866 0
M  V30 4699 C 456.48 -1.80847 -1.01533 0
M  V30 4700 C 456.905 -0.584946 -1.78774 0
M  V30 4701 O 456.263 0.465701 -1.75217 0
M  V30 4702 C 456.311 -3.03866 -1.94159 0
M  V30 4703 O 455.415 -2.79662 -3.03089 0
M  V30 4704 H 454.756 -0.597441 -0.289759 0
M  V30 4705 H 457.286 -2.02553 -0.288698 0
M  V30 4706 H 457.296 -3.32872 -2.35924 0
M  V30 4707 H 455.971 -3.92564 -1.37354 0
M  V30 4708 H 454.548 -2.61781 -2.65566 0
M  V30 4709 N 456.733 0.527833 -1.48498 0
M  V30 4710 C 457.961 1.30823 -1.6029 0
M  V30 4711 C 458.376 1.86945 -0.263974 0
M  V30 4712 O 457.733 1.6651 0.747034 0
M  V30 4713 C 457.784 2.45756 -2.65116 0
M  V30 4714 O 457.505 1.91946 -3.93813 0
M  V30 4715 C 459.006 3.37543 -2.87367 0
M  V30 4716 H 456.226 0.397763 -0.540394 0
M  V30 4717 H 458.77 0.636529 -1.94341 0
M  V30 4718 H 456.925 3.08806 -2.33917 0
M  V30 4719 H 457.339 2.67195 -4.51339 0
M  V30 4720 H 458.813 4.14532 -3.6451 0
M  V30 4721 H 459.29 3.92905 -1.9627 0
M  V30 4722 H 459.896 2.80283 -3.19878 0
M  V30 4723 N 458.211 1.37122 0.776871 0
M  V30 4724 C 459.436 1.354 1.57104 0
M  V30 4725 C 459.861 -0.0595562 1.88006 0
M  V30 4726 O 459.219 -1.03514 1.48844 0
M  V30 4727 C 459.267 2.19472 2.8612 0
M  V30 4728 O 458.371 1.59582 3.80273 0
M  V30 4729 H 457.712 0.462869 0.476076 0
M  V30 4730 H 460.242 1.80577 0.961932 0
M  V30 4731 H 460.252 2.32502 3.35271 0
M  V30 4732 H 458.927 3.22222 2.62956 0
M  V30 4733 H 457.504 1.55564 3.38902 0
M  V30 4734 N 459.689 -1.00246 1.21608 0
M  V30 4735 C 461.105 -1.26435 0.973975 0
M  V30 4736 C 461.305 -1.98642 -0.338143 0
M  V30 4737 O 460.361 -2.29026 -1.06317 0
M  V30 4738 C 461.674 -2.08551 2.16626 0
M  V30 4739 C 463.222 -2.21769 2.20879 0
M  V30 4740 C 463.697 -3.07267 3.39633 0
M  V30 4741 N 465.188 -3.14855 3.39736 0
M  V30 4742 C 465.923 -3.81274 4.28273 0
M  V30 4743 N 465.419 -4.497 5.27012 0
M  V30 4744 N 467.212 -3.7794 4.16074 0
M  V30 4745 H 459.363 -0.518089 2.05984 0
M  V30 4746 H 461.626 -0.291368 0.902113 0
M  V30 4747 H 461.332 -1.62847 3.11727 0
M  V30 4748 H 461.206 -3.09303 2.15897 0
M  V30 4749 H 463.593 -2.66691 1.26332 0
M  V30 4750 H 463.674 -1.20478 2.25652 0
M  V30 4751 H 463.318 -2.63047 4.34475 0
M  V30 4752 H 463.248 -4.08678 3.321 0
M  V30 4753 H 465.739 -2.66147 2.6828 0
M  V30 4754 H 466.052 -4.98092 5.90867 0
M  V30 4755 H 464.397 -4.48479 5.30935 0
M  V30 4756 H 467.588 -3.23638 3.38195 0
M  V30 4757 H 467.761 -4.29424 4.85282 0
M  V30 4758 N 461.167 -1.02423 -1.1978 0
M  V30 4759 C 462.578 -0.748389 -1.71044 0
M  V30 4760 C 462.929 0.732398 -1.82017 0
M  V30 4761 O 462.054 1.57116 -1.48807 0
M  V30 4762 C 462.649 -1.35187 -3.1066 0
M  V30 4763 C 461.208 -1.12472 -3.59203 0
M  V30 4764 C 460.355 -1.45283 -2.36195 0
M  V30 4765 H 463.306 -1.19275 -1.04686 0
M  V30 4766 H 463.327 -0.746408 -3.73107 0
M  V30 4767 H 462.839 -2.4296 -3.02642 0
M  V30 4768 H 460.94 -0.0649983 -3.72543 0
M  V30 4769 H 461.053 -1.81016 -4.43588 0
M  V30 4770 H 459.417 -0.872034 -2.39307 0
M  V30 4771 H 460.2 -2.54129 -2.30811 0
M  V30 4772 N 462.645 1.35699 -0.801477 0
M  V30 4773 C 464.056 1.81415 -0.441073 0
M  V30 4774 C 464.407 1.66595 1.03636 0
M  V30 4775 O 463.532 1.19369 1.80499 0
M  V30 4776 C 464.127 3.29369 -0.793819 0
M  V30 4777 C 462.686 3.73248 -0.486083 0
M  V30 4778 C 461.833 2.57775 -1.02213 0
M  V30 4779 H 464.784 1.23749 -0.993572 0
M  V30 4780 H 464.805 3.80395 -0.0894158 0
M  V30 4781 H 464.317 3.40123 -1.86917 0
M  V30 4782 H 462.418 3.68046 0.580735 0
M  V30 4783 H 462.531 4.68222 -1.01513 0
M  V30 4784 H 460.895 2.50788 -0.444712 0
M  V30 4785 H 461.678 2.71309 -2.10348 0
M  V30 4786 N 464.123 0.554532 1.47522 0
M  V30 4787 C 465.539 0.214107 1.58157 0
M  V30 4788 C 465.739 -1.28331 1.55349 0
M  V30 4789 O 464.795 -2.06329 1.45549 0
M  V30 4790 C 466.108 0.838391 2.88776 0
M  V30 4791 C 467.656 0.809374 3.02354 0
M  V30 4792 C 468.131 1.41268 4.35669 0
M  V30 4793 N 469.622 1.37574 4.42298 0
M  V30 4794 C 470.357 1.8122 5.4401 0
M  V30 4795 N 469.853 2.3271 6.52547 0
M  V30 4796 N 471.646 1.72307 5.35039 0
M  V30 4797 H 463.797 1.52744 1.4759 0
M  V30 4798 H 466.06 0.636812 0.702264 0
M  V30 4799 H 465.766 1.89065 2.96559 0
M  V30 4800 H 465.64 0.329847 3.75755 0
M  V30 4801 H 468.027 -0.234187 2.94169 0
M  V30 4802 H 468.108 1.35565 2.16924 0
M  V30 4803 H 467.752 2.45529 4.4461 0
M  V30 4804 H 467.682 0.841871 5.19827 0
M  V30 4805 H 470.173 0.999081 3.64454 0
M  V30 4806 H 470.486 2.63944 7.26329 0
M  V30 4807 H 468.831 2.36719 6.53444 0
M  V30 4808 H 472.022 1.3186 4.49144 0
M  V30 4809 H 472.195 2.06641 6.14169 0
M  V30 4810 N 465.601 -1.54893 0.290851 0
M  V30 4811 C 467.012 -1.85584 -0.203816 0
M  V30 4812 C 467.363 -1.21285 -1.54222 0
M  V30 4813 O 466.488 -0.506841 -2.10381 0
M  V30 4814 C 467.083 -3.367 -0.376595 0
M  V30 4815 C 465.642 -3.6746 -0.815485 0
M  V30 4816 C 464.789 -2.77178 0.0821087 0
M  V30 4817 H 467.74 -1.50208 0.512175 0
M  V30 4818 H 467.761 -3.60656 -1.21275 0
M  V30 4819 H 467.273 -3.8347 0.59767 0
M  V30 4820 H 465.374 -3.26201 -1.80066 0
M  V30 4821 H 465.487 -4.7478 -0.641905 0
M  V30 4822 H 463.851 -2.50925 -0.436895 0
M  V30 4823 H 464.634 -3.26767 1.05254 0
M  V30 4824 N 467.08 -0.0183926 -1.57589 0
M  V30 4825 C 468.326 0.657813 -1.92469 0
M  V30 4826 C 468.681 1.70349 -0.894375 0
M  V30 4827 O 467.974 1.91384 0.0910389 0
M  V30 4828 C 468.168 1.32676 -3.31861 0
M  V30 4829 C 467.997 0.347403 -4.48356 0
M  V30 4830 C 466.767 -0.0488653 -5.05276 0
M  V30 4831 C 468.965 -0.393931 -5.12789 0
M  V30 4832 N 466.947 -1.02451 -6.05291 0
M  V30 4833 C 468.318 -1.22367 -6.07804 0
M  V30 4834 C 470.373 -0.455789 -4.95809 0
M  V30 4835 C 469.076 -2.10966 -6.87667 0
M  V30 4836 C 471.102 -1.32908 -5.76272 0
M  V30 4837 C 470.464 -2.14662 -6.70894 0
M  V30 4838 H 466.563 0.21335 -0.752334 0
M  V30 4839 H 469.147 -0.0830547 -1.94523 0
M  V30 4840 H 467.318 2.03782 -3.30647 0
M  V30 4841 H 469.05 1.95913 -3.54119 0
M  V30 4842 H 465.805 0.323356 -4.72495 0
M  V30 4843 H 466.229 -1.50826 -6.59985 0
M  V30 4844 H 470.871 0.162017 -4.22489 0
M  V30 4845 H 468.589 -2.73807 -7.603 0
M  V30 4846 H 472.175 -1.38109 -5.6517 0
M  V30 4847 H 471.055 -2.81143 -7.32071 0
M  V30 4848 N 468.558 1.5553 0.254621 0
M  V30 4849 C 469.835 1.6774 1.00611 0
M  V30 4850 C 470.215 0.555993 2.03647 0
M  V30 4851 O 469.563 -0.441583 2.24193 0
M  V30 4852 C 469.773 3.07725 1.6464 0
M  V30 4853 C 471.121 3.66074 2.15116 0
M  V30 4854 O 472.145 3.10476 1.74595 0
M  V30 4855 O 471.004 4.63526 2.89493 0
M  V30 4856 H 468.098 0.681958 0.467828 0
M  V30 4857 H 470.644 1.67863 0.24902 0
M  V30 4858 H 469.416 3.80792 0.900734 0
M  V30 4859 H 469.039 3.1158 2.46989 0
M  V30 4860 N 470.036 -0.519951 1.48776 0
M  V30 4861 C 471.264 -1.29971 1.60982 0
M  V30 4862 C 471.679 -1.86803 0.273885 0
M  V30 4863 O 471.036 -1.66904 -0.738193 0
M  V30 4864 C 471.087 -2.44346 2.66415 0
M  V30 4865 O 470.808 -1.89855 3.94825 0
M  V30 4866 C 472.309 -3.36014 2.89153 0
M  V30 4867 H 469.529 -0.394891 0.542496 0
M  V30 4868 H 472.073 -0.626214 1.94676 0
M  V30 4869 H 470.228 -3.07562 2.35552 0
M  V30 4870 H 470.642 -2.64798 4.5275 0
M  V30 4871 H 472.116 -4.12593 3.66703 0
M  V30 4872 H 472.593 -3.91859 1.98351 0
M  V30 4873 H 473.199 -2.78582 3.21359 0
M  V30 4874 N 471.514 -1.37532 -0.769588 0
M  V30 4875 C 472.925 -1.29382 -1.346 0
M  V30 4876 C 473.276 0.0576039 -1.96115 0
M  V30 4877 O 472.401 0.95947 -1.93967 0
M  V30 4878 C 472.996 -2.34298 -2.44724 0
M  V30 4879 C 471.555 -2.29776 -2.98128 0
M  V30 4880 C 470.702 -2.18013 -1.71364 0
M  V30 4881 H 473.653 -1.48123 -0.56968 0
M  V30 4882 H 473.674 -1.99089 -3.24259 0
M  V30 4883 H 473.186 -3.32645 -1.99922 0
M  V30 4884 H 471.287 -1.34959 -3.47299 0
M  V30 4885 H 471.4 -3.23276 -3.53595 0
M  V30 4886 H 469.764 -1.64595 -1.94372 0
M  V30 4887 H 470.547 -3.18278 -1.28662 0
M  V30 4888 N 472.992 0.995999 -1.22138 0
M  V30 4889 C 474.232 1.75032 -1.05561 0
M  V30 4890 C 474.596 1.87729 0.402698 0
M  V30 4891 O 475.797 2.59813 0.689234 0
M  V30 4892 C 474.068 3.11973 -1.74379 0
M  V30 4893 S 475.627 4.03182 -1.73175 0
M  V30 4894 H 472.445 0.602137 -0.37809 0
M  V30 4895 H 475.047 1.19107 -1.55028 0
M  V30 4896 H 473.751 3.00371 -2.79652 0
M  V30 4897 H 473.282 3.7297 -1.25128 0
M  V30 4898 H 475.297 4.90043 -0.77923 0
M  V30 4899 N 474.47 1.03057 1.19235 0
M  V30 4900 C 475.881 0.757449 1.70645 0
M  V30 4901 C 476.232 -0.722735 1.82403 0
M  V30 4902 O 475.357 -1.56325 1.49638 0
M  V30 4903 C 475.952 1.36833 3.09939 0
M  V30 4904 C 474.511 1.14375 3.58602 0
M  V30 4905 C 473.658 1.46533 2.35422 0
M  V30 4906 H 476.609 1.19828 1.04052 0
M  V30 4907 H 476.63 0.766184 3.72706 0
M  V30 4908 H 476.142 2.44562 3.01349 0
M  V30 4909 H 474.243 0.0847542 3.72504 0
M  V30 4910 H 474.356 1.83366 4.42622 0
M  V30 4911 H 472.72 0.884712 2.38841 0
M  V30 4912 H 473.503 2.55349 2.2946 0
M  V30 4913 N 475.948 -1.35272 0.808662 0
M  V30 4914 C 477.359 -1.81179 0.450688 0
M  V30 4915 C 477.71 -1.67143 -1.02751 0
M  V30 4916 O 476.835 -1.20325 -1.79864 0
M  V30 4917 C 477.43 -3.28943 0.811275 0
M  V30 4918 C 475.989 -3.72985 0.505871 0
M  V30 4919 C 475.136 -2.57229 1.03578 0
M  V30 4920 H 478.087 -1.2322 1.00012 0
M  V30 4921 H 478.108 -3.80342 0.109588 0
M  V30 4922 H 477.62 -3.39127 1.88718 0
M  V30 4923 H 475.721 -3.68349 -0.561209 0
M  V30 4924 H 475.834 -4.67677 1.03995 0
M  V30 4925 H 474.198 -2.50548 0.458005 0
M  V30 4926 H 474.981 -2.7019 2.11784 0
M  V30 4927 N 477.426 -0.562348 -1.47226 0
M  V30 4928 C 478.672 -0.0402761 -2.0276 0
M  V30 4929 C 479.005 1.30823 -1.43523 0
M  V30 4930 O 478.28 1.85249 -0.592705 0
M  V30 4931 C 478.563 0.047311 -3.60069 0
M  V30 4932 C 478.416 -1.32865 -4.29729 0
M  V30 4933 C 479.735 0.758182 -4.3352 0
M  V30 4934 H 476.854 -0.0161105 -0.736824 0
M  V30 4935 H 479.496 -0.725628 -1.75598 0
M  V30 4936 H 477.646 0.630986 -3.83342 0
M  V30 4937 H 479.318 -1.95593 -4.17781 0
M  V30 4938 H 477.561 -1.90195 -3.89882 0
M  V30 4939 H 478.232 -1.22004 -5.38349 0
M  V30 4940 H 480.708 0.262546 -4.15271 0
M  V30 4941 H 479.584 0.78844 -5.43208 0
M  V30 4942 H 479.845 1.81537 -4.03109 0
M  V30 4943 N 478.904 1.54736 -0.299062 0
M  V30 4944 C 480.134 2.04215 0.312992 0
M  V30 4945 C 480.542 1.17596 1.48215 0
M  V30 4946 O 479.885 0.193835 1.82674 0
M  V30 4947 C 479.947 3.49696 0.833862 0
M  V30 4948 C 479.611 4.56518 -0.20977 0
M  V30 4949 C 480.608 5.09442 -1.03756 0
M  V30 4950 C 478.293 5.01073 -0.35091 0
M  V30 4951 C 480.287 6.05459 -1.99244 0
M  V30 4952 C 477.974 5.9691 -1.30924 0
M  V30 4953 C 478.972 6.48987 -2.1285 0
M  V30 4954 O 478.66 7.42947 -3.07059 0
M  V30 4955 H 478.392 0.672128 0.0722494 0
M  V30 4956 H 480.946 2.00718 -0.436043 0
M  V30 4957 H 479.176 3.5051 1.63339 0
M  V30 4958 H 480.865 3.82381 1.36159 0
M  V30 4959 H 481.631 4.75816 -0.939376 0
M  V30 4960 H 477.51 4.60168 0.276813 0
M  V30 4961 H 481.054 6.46031 -2.63229 0
M  V30 4962 H 476.951 6.29953 -1.40815 0
M  V30 4963 H 477.719 7.60743 -3.02015 0
M  V30 4964 N 480.382 0.0267497 1.57577 0
M  V30 4965 C 481.345 -0.940916 2.08996 0
M  V30 4966 C 482.345 -1.25561 1.00455 0
M  V30 4967 O 483.535 -1.19634 1.26623 0
M  V30 4968 C 480.667 -2.25814 2.55384 0
M  V30 4969 H 481.86 -0.495628 2.95776 0
M  V30 4970 H 479.413 -0.221241 1.54726 0
M  V30 4971 H 480.148 -2.74976 1.71926 0
M  V30 4972 H 479.933 -2.04285 3.34679 0
M  V30 4973 H 481.423 -2.95178 2.95398 0
M  V30 4974 N 481.861 -1.55662 -0.24637 0
M  V30 4975 C 482.771 -1.93495 -1.32653 0
M  V30 4976 C 483.787 -0.835462 -1.5263 0
M  V30 4977 O 484.963 -1.1369 -1.66242 0
M  V30 4978 C 482.028 -2.22242 -2.66101 0
M  V30 4979 C 481.089 -3.45625 -2.54641 0
M  V30 4980 C 480.322 -3.72991 -3.81724 0
M  V30 4981 O 480.545 -3.02421 -4.8363 0
M  V30 4982 O 479.479 -4.66515 -3.80325 0
M  V30 4983 H 483.305 -2.85498 -1.03559 0
M  V30 4984 H 480.89 -1.42551 -0.44717 0
M  V30 4985 H 482.772 -2.42037 -3.44958 0
M  V30 4986 H 481.447 -1.33417 -2.94926 0
M  V30 4987 H 480.354 -3.31136 -1.74067 0
M  V30 4988 H 481.687 -4.34754 -2.3076 0
M  V30 4989 N 483.339 0.512053 -1.4905 0
M  V30 4990 C 484.567 1.29116 -1.61669 0
M  V30 4991 C 484.982 1.86655 -0.283787 0
M  V30 4992 O 484.339 1.67293 0.729331 0
M  V30 4993 C 484.39 2.4293 -2.67707 0
M  V30 4994 O 484.111 1.87758 -3.95826 0
M  V30 4995 C 485.612 3.34476 -2.90931 0
M  V30 4996 H 482.832 0.392009 -0.544583 0
M  V30 4997 H 485.376 0.615881 -1.95006 0
M  V30 4998 H 483.531 3.06308 -2.37179 0
M  V30 4999 H 483.945 2.62393 -4.54148 0
M  V30 5000 H 485.419 4.10642 -3.68886 0
M  V30 5001 H 485.896 3.90801 -2.00427 0
M  V30 5002 H 486.502 2.76874 -3.22832 0
M  V30 5003 N 484.817 1.37938 0.762283 0
M  V30 5004 C 485.764 1.34467 1.87583 0
M  V30 5005 C 486.734 0.208633 1.64785 0
M  V30 5006 O 487.919 0.399494 1.86571 0
M  V30 5007 C 485.059 1.16692 3.24772 0
M  V30 5008 C 484.172 2.39608 3.59461 0
M  V30 5009 C 483.307 2.14631 4.85908 0
M  V30 5010 C 482.346 3.33364 5.13357 0
M  V30 5011 N 481.483 3.07877 6.30996 0
M  V30 5012 H 486.323 2.29669 1.89885 0
M  V30 5013 H 483.86 1.14116 0.928219 0
M  V30 5014 H 485.818 1.04405 4.03925 0
M  V30 5015 H 484.448 0.251333 3.2182 0
M  V30 5016 H 483.5 2.626 2.75219 0
M  V30 5017 H 484.812 3.28128 3.75678 0
M  V30 5018 H 483.966 1.99429 5.72986 0
M  V30 5019 H 482.705 1.23463 4.71814 0
M  V30 5020 H 481.71 3.49094 4.24751 0
M  V30 5021 H 482.935 4.25395 5.29354 0
M  V30 5022 H 480.881 2.19348 6.18241 0
M  V30 5023 H 480.798 3.89944 6.47673 0
M  V30 5024 H 482.066 2.96313 7.20985 0
M  V30 5025 N 486.295 -0.989507 1.22664 0
M  V30 5026 C 487.245 -2.06478 0.967005 0
M  V30 5027 C 488.229 -1.60682 -0.0836374 0
M  V30 5028 O 489.421 -1.76541 0.127322 0
M  V30 5029 C 486.55 -3.38861 0.550313 0
M  V30 5030 C 485.636 -3.9128 1.63587 0
M  V30 5031 N 486.027 -4.16884 2.86429 0
M  V30 5032 C 484.325 -4.1972 1.50834 0
M  V30 5033 C 485.026 -4.5954 3.56648 0
M  V30 5034 N 484.002 -4.63434 2.84131 0
M  V30 5035 H 487.804 -2.24219 1.90008 0
M  V30 5036 H 485.318 -1.17153 1.12467 0
M  V30 5037 H 487.315 -4.15465 0.345612 0
M  V30 5038 H 485.975 -3.22518 -0.375822 0
M  V30 5039 H 486.986 -4.04976 3.22823 0
M  V30 5040 H 483.663 -4.1243 0.648643 0
M  V30 5041 H 485.053 -4.87944 4.61909 0
M  V30 5042 N 487.773 -1.03688 -1.18687 0
M  V30 5043 C 489.02 -0.73803 -1.88572 0
M  V30 5044 C 489.348 0.733973 -1.8012 0
M  V30 5045 O 488.603 1.55098 -1.19344 0
M  V30 5046 C 488.902 -1.14477 -3.3857 0
M  V30 5047 C 488.568 -2.61641 -3.67226 0
M  V30 5048 C 487.23 -3.01846 -3.74757 0
M  V30 5049 C 489.582 -3.56812 -3.79914 0
M  V30 5050 C 486.91 -4.36118 -3.92451 0
M  V30 5051 C 489.262 -4.90799 -3.99123 0
M  V30 5052 C 487.926 -5.3068 -4.04888 0
M  V30 5053 H 487.196 -0.270064 -0.690034 0
M  V30 5054 H 489.843 -1.3012 -1.40503 0
M  V30 5055 H 488.148 -0.500337 -3.88592 0
M  V30 5056 H 489.845 -0.89095 -3.90977 0
M  V30 5057 H 486.435 -2.29498 -3.61979 0
M  V30 5058 H 490.619 -3.26899 -3.73431 0
M  V30 5059 H 485.875 -4.66542 -3.95157 0
M  V30 5060 H 490.049 -5.64451 -4.07882 0
M  V30 5061 H 487.676 -6.34733 -4.18351 0
M  V30 5062 N 489.251 1.34841 -0.815825 0
M  V30 5063 C 490.181 2.32187 -0.247298 0
M  V30 5064 C 491.162 1.5791 0.632344 0
M  V30 5065 O 492.347 1.8593 0.560698 0
M  V30 5066 C 489.477 3.42122 0.597466 0
M  V30 5067 C 488.431 4.27602 -0.184446 0
M  V30 5068 C 487.757 5.28942 0.782609 0
M  V30 5069 C 489.057 5.03502 -1.38865 0
M  V30 5070 H 490.751 2.79985 -1.06061 0
M  V30 5071 H 488.297 1.34611 -0.511461 0
M  V30 5072 H 490.25 4.09232 1.00533 0
M  V30 5073 H 488.974 2.92956 1.44376 0
M  V30 5074 H 487.633 3.62085 -0.573592 0
M  V30 5075 H 487.281 4.7604 1.62466 0
M  V30 5076 H 486.981 5.87008 0.263695 0
M  V30 5077 H 488.505 5.98922 1.18848 0
M  V30 5078 H 489.919 5.63506 -1.05518 0
M  V30 5079 H 488.316 5.71108 -1.8427 0
M  V30 5080 H 489.386 4.33608 -2.17054 0
M  V30 5081 N 490.729 0.570148 1.46925 0
M  V30 5082 C 491.959 0.0561151 2.06524 0
M  V30 5083 C 492.367 -1.24874 1.42137 0
M  V30 5084 O 491.71 -1.76292 0.516417 0
M  V30 5085 C 491.772 -0.197035 3.5896 0
M  V30 5086 C 491.436 1.02033 4.45464 0
M  V30 5087 C 492.433 1.92921 4.82781 0
M  V30 5088 C 490.118 1.23864 4.86788 0
M  V30 5089 C 492.112 3.03999 5.60235 0
M  V30 5090 C 489.799 2.35249 5.64004 0
M  V30 5091 C 490.797 3.25146 6.0064 0
M  V30 5092 O 490.485 4.34598 6.76299 0
M  V30 5093 H 490.217 0.0487409 0.674241 0
M  V30 5094 H 492.771 0.786915 1.89728 0
M  V30 5095 H 491.001 -0.982299 3.74016 0
M  V30 5096 H 492.69 -0.658032 4.00531 0
M  V30 5097 H 493.456 1.77265 4.51444 0
M  V30 5098 H 489.335 0.54805 4.57731 0
M  V30 5099 H 492.879 3.74192 5.8875 0
M  V30 5100 H 488.776 2.50873 5.94755 0
M  V30 5101 H 489.544 4.32808 6.94708 0
M  V30 5102 N 492.207 -1.54576 0.307264 0
M  V30 5103 C 493.432 -2.05139 -0.305379 0
M  V30 5104 C 493.857 -1.18278 -1.46259 0
M  V30 5105 O 493.215 -0.188243 -1.8032 0
M  V30 5106 C 493.263 -3.53066 -0.733283 0
M  V30 5107 O 492.367 -3.69206 -1.83741 0
M  V30 5108 H 491.708 -0.661444 -0.0582105 0
M  V30 5109 H 494.238 -1.99569 0.450931 0
M  V30 5110 H 494.248 -3.95034 -1.02039 0
M  V30 5111 H 492.923 -4.15746 0.113198 0
M  V30 5112 H 491.5 -3.39143 -1.55037 0
M  V30 5113 N 493.685 -0.035106 -1.57561 0
M  V30 5114 C 494.91 0.655802 -1.96759 0
M  V30 5115 C 495.335 1.64523 -0.911809 0
M  V30 5116 O 494.693 1.80857 0.126673 0
M  V30 5117 C 494.741 1.33326 -3.35047 0
M  V30 5118 O 493.845 2.44866 -3.31835 0
M  V30 5119 H 493.186 0.171807 -0.641388 0
M  V30 5120 H 495.716 -0.0987369 -2.04362 0
M  V30 5121 H 495.726 1.68867 -3.71413 0
M  V30 5122 H 494.401 0.608033 -4.11431 0
M  V30 5123 H 492.978 2.11392 -3.07193 0
M  V30 5124 N 495.163 1.55791 0.238111 0
M  V30 5125 C 496.411 1.77681 0.963001 0
M  V30 5126 C 496.732 0.600674 1.85518 0
M  V30 5127 O 496.002 -0.383182 1.92116 0
M  V30 5128 H 494.582 0.655315 0.358568 0
M  V30 5129 H 497.244 1.93239 0.253945 0
M  V30 5130 H 496.34 2.69177 1.57956 0
M  V30 5131 N 496.642 -0.504142 1.49319 0
M  V30 5132 C 497.919 -1.26548 1.49147 0
M  V30 5133 C 498.299 -2.09977 0.21744 0
M  V30 5134 O 497.647 -2.14028 -0.800269 0
M  V30 5135 C 497.857 -2.12489 2.76857 0
M  V30 5136 C 499.205 -2.7178 3.26222 0
M  V30 5137 O 500.229 -2.22758 2.77952 0
M  V30 5138 O 499.088 -3.61015 4.10281 0
M  V30 5139 H 496.182 -0.572495 0.596806 0
M  V30 5140 H 498.728 -0.51867 1.61579 0
M  V30 5141 H 497.5 -1.50796 3.61077 0
M  V30 5142 H 497.123 -2.94368 2.6727 0
M  V30 5143 N 498.12 -1.38341 -0.754957 0
M  V30 5144 C 499.067 -1.3546 -1.86867 0
M  V30 5145 C 500.037 -0.217369 -1.64672 0
M  V30 5146 O 501.222 -0.409383 -1.86356 0
M  V30 5147 C 498.362 -1.18413 -3.24149 0
M  V30 5148 C 497.475 -2.41511 -3.58185 0
M  V30 5149 C 496.61 -2.17205 -4.84763 0
M  V30 5150 C 495.649 -3.36081 -5.11582 0
M  V30 5151 N 494.786 -3.11219 -6.29354 0
M  V30 5152 H 499.626 -2.30672 -1.88664 0
M  V30 5153 H 497.163 -1.14607 -0.922154 0
M  V30 5154 H 499.121 -1.06545 -4.03366 0
M  V30 5155 H 497.751 -0.268397 -3.21682 0
M  V30 5156 H 496.803 -2.64056 -2.73822 0
M  V30 5157 H 498.115 -3.30115 -3.73932 0
M  V30 5158 H 497.269 -2.02465 -5.7192 0
M  V30 5159 H 496.008 -1.25964 -4.71152 0
M  V30 5160 H 495.013 -3.51341 -4.22894 0
M  V30 5161 H 496.238 -4.28196 -5.27091 0
M  V30 5162 H 494.184 -2.22624 -6.17069 0
M  V30 5163 H 494.101 -3.93373 -6.45596 0
M  V30 5164 H 495.369 -3.00132 -7.19403 0
M  V30 5165 N 499.598 0.982988 -1.23187 0
M  V30 5166 C 500.508 2.10907 -1.02739 0
M  V30 5167 C 501.524 1.73979 0.0273188 0
M  V30 5168 O 502.7 2.00702 -0.16757 0
M  V30 5169 C 499.765 3.41142 -0.618304 0
M  V30 5170 C 498.826 3.92112 -1.74777 0
M  V30 5171 C 498.059 5.16131 -1.3581 0
M  V30 5172 O 498.282 5.6989 -0.241201 0
M  V30 5173 O 497.216 5.61103 -2.17824 0
M  V30 5174 H 501.042 2.31046 -1.97108 0
M  V30 5175 H 498.627 1.09284 -1.01869 0
M  V30 5176 H 500.509 4.19488 -0.400982 0
M  V30 5177 H 499.184 3.2234 0.296421 0
M  V30 5178 H 498.091 3.14895 -2.0197 0
M  V30 5179 H 499.424 4.15364 -2.64071 0
M  V30 5180 N 501.076 1.04316 1.18135 0
M  V30 5181 C 502.008 0.594444 2.21357 0
M  V30 5182 C 503.021 -0.337215 1.59269 0
M  V30 5183 O 504.21 -0.131337 1.78016 0
M  V30 5184 C 501.31 -0.151251 3.38562 0
M  V30 5185 C 500.483 0.788907 4.30227 0
M  V30 5186 C 499.542 0.0860572 5.2613 0
M  V30 5187 O 498.568 0.717302 5.64662 0
M  V30 5188 N 499.77 -1.17969 5.68387 0
M  V30 5189 H 502.535 1.48227 2.60478 0
M  V30 5190 H 500.096 0.92396 1.32946 0
M  V30 5191 H 502.088 -0.631352 3.99745 0
M  V30 5192 H 500.658 -0.940639 2.98112 0
M  V30 5193 H 499.878 1.44882 3.6661 0
M  V30 5194 H 501.166 1.42738 4.88368 0
M  V30 5195 H 500.564 -1.71302 5.3914 0
M  V30 5196 H 499.121 -1.60402 6.31755 0
M  V30 5197 N 502.554 -1.34406 0.822964 0
M  V30 5198 C 503.484 -2.32052 0.259608 0
M  V30 5199 C 504.465 -1.58243 -0.623961 0
M  V30 5200 O 505.65 -1.86224 -0.55083 0
M  V30 5201 C 502.78 -3.42434 -0.579314 0
M  V30 5202 C 501.734 -4.27499 0.20712 0
M  V30 5203 C 501.06 -5.29349 -0.754547 0
M  V30 5204 C 502.36 -5.02758 1.41533 0
M  V30 5205 H 504.054 -2.79418 1.07545 0
M  V30 5206 H 501.6 -1.34338 0.518593 0
M  V30 5207 H 503.553 -4.0976 -0.983612 0
M  V30 5208 H 502.277 -2.93717 -1.4282 0
M  V30 5209 H 500.936 -3.61776 0.592787 0
M  V30 5210 H 500.584 -4.76895 -1.59939 0
M  V30 5211 H 500.284 -5.8714 -0.232561 0
M  V30 5212 H 501.808 -5.99544 -1.1567 0
M  V30 5213 H 503.222 -5.62938 1.08504 0
M  V30 5214 H 501.619 -5.70123 1.87296 0
M  V30 5215 H 502.689 -4.32451 2.1935 0
M  V30 5216 N 504.032 -0.577932 -1.46621 0
M  V30 5217 C 505.448 -0.239242 -1.57797 0
M  V30 5218 C 505.648 1.25843 -1.57371 0
M  V30 5219 O 504.704 2.03988 -1.48813 0
M  V30 5220 C 506.017 -0.884227 -2.87405 0
M  V30 5221 C 507.565 -0.857373 -3.01028 0
M  V30 5222 C 508.04 -1.48181 -4.33366 0
M  V30 5223 N 509.531 -1.44593 -4.40053 0
M  V30 5224 C 510.266 -1.89852 -5.41058 0
M  V30 5225 N 509.762 -2.43062 -6.48762 0
M  V30 5226 N 511.555 -1.80797 -5.3223 0
M  V30 5227 H 503.706 -1.55073 -1.45142 0
M  V30 5228 H 505.969 -0.647903 -0.692044 0
M  V30 5229 H 505.675 -1.93759 -2.93514 0
M  V30 5230 H 505.549 -0.389585 -3.75183 0
M  V30 5231 H 507.936 0.187357 -2.94505 0
M  V30 5232 H 508.017 -1.38999 -2.14739 0
M  V30 5233 H 507.661 -2.52572 -4.40647 0
M  V30 5234 H 507.591 -0.924464 -5.18422 0
M  V30 5235 H 510.082 -1.05694 -3.62819 0
M  V30 5236 H 510.395 -2.75466 -7.22038 0
M  V30 5237 H 508.74 -2.47085 -6.49595 0
M  V30 5238 H 511.931 -1.38989 -4.46989 0
M  V30 5239 H 512.104 -2.16385 -6.10804 0
M  V30 5240 N 505.51 1.54411 -0.315457 0
M  V30 5241 C 506.921 1.85885 0.174265 0
M  V30 5242 C 507.272 1.23723 1.52273 0
M  V30 5243 O 506.397 0.540246 2.09548 0
M  V30 5244 C 506.992 3.37257 0.322981 0
M  V30 5245 C 505.551 3.68711 0.756922 0
M  V30 5246 C 504.698 2.77013 -0.126195 0
M  V30 5247 H 507.649 1.49374 -0.536007 0
M  V30 5248 H 507.67 3.62539 1.15522 0
M  V30 5249 H 507.182 3.82471 -0.658602 0
M  V30 5250 H 505.283 3.29024 1.74854 0
M  V30 5251 H 505.396 4.75741 0.566291 0
M  V30 5252 H 503.76 2.51588 0.39692 0
M  V30 5253 H 504.543 3.25051 -1.1044 0
M  V30 5254 N 506.988 0.0434614 1.5754 0
M  V30 5255 C 508.213 -0.645358 1.97104 0
M  V30 5256 C 508.638 -1.64037 0.920521 0
M  V30 5257 O 507.996 -1.80922 -0.11708 0
M  V30 5258 C 508.044 -1.31547 3.35749 0
M  V30 5259 O 507.148 -2.43103 3.33129 0
M  V30 5260 H 506.489 -0.168403 0.64229 0
M  V30 5261 H 509.019 0.109573 2.04306 0
M  V30 5262 H 509.029 -1.66895 3.72304 0
M  V30 5263 H 507.704 -0.586205 4.11748 0
M  V30 5264 H 506.281 -2.0976 3.0831 0
M  V30 5265 N 508.466 -1.55915 -0.229846 0
M  V30 5266 C 509.713 -1.78542 -0.955452 0
M  V30 5267 C 510.041 -0.610785 -1.84661 0
M  V30 5268 O 509.296 0.405213 -1.91459 0
M  V30 5269 C 509.595 -3.06845 -1.8325 0
M  V30 5270 C 509.261 -4.37395 -1.09528 0
M  V30 5271 C 507.923 -4.72868 -0.891598 0
M  V30 5272 C 510.275 -5.18029 -0.574046 0
M  V30 5273 C 507.603 -5.86496 -0.154655 0
M  V30 5274 C 509.955 -6.32423 0.149513 0
M  V30 5275 C 508.619 -6.66504 0.364519 0
M  V30 5276 H 507.889 -0.653333 -0.349625 0
M  V30 5277 H 510.536 -1.90183 -0.224235 0
M  V30 5278 H 508.841 -2.90291 -2.63132 0
M  V30 5279 H 510.538 -3.21553 -2.39592 0
M  V30 5280 H 507.128 -4.09538 -1.26399 0
M  V30 5281 H 511.312 -4.91066 -0.718899 0
M  V30 5282 H 506.568 -6.11396 0.0222356 0
M  V30 5283 H 510.742 -6.94137 0.560947 0
M  V30 5284 H 508.369 -7.54397 0.937495 0
M  V30 5285 N 509.944 0.496216 -1.49584 0
M  V30 5286 C 510.874 1.60576 -1.69521 0
M  V30 5287 C 511.855 1.61169 -0.543933 0
M  V30 5288 O 513.04 1.77834 -0.78031 0
M  V30 5289 C 510.17 2.99038 -1.76616 0
M  V30 5290 C 509.124 3.13312 -2.91581 0
M  V30 5291 C 508.45 4.53172 -2.83794 0
M  V30 5292 C 509.75 2.92886 -4.32452 0
M  V30 5293 H 511.444 1.44146 -2.62416 0
M  V30 5294 H 508.99 0.692024 -1.26282 0
M  V30 5295 H 510.943 3.76564 -1.8915 0
M  V30 5296 H 509.667 3.16568 -0.80324 0
M  V30 5297 H 508.326 2.38213 -2.78658 0
M  V30 5298 H 507.974 4.67585 -1.854 0
M  V30 5299 H 507.674 4.63662 -3.60958 0
M  V30 5300 H 509.198 5.32752 -2.98342 0
M  V30 5301 H 510.612 3.60178 -4.46032 0
M  V30 5302 H 509.009 3.14844 -5.10875 0
M  V30 5303 H 510.079 1.88966 -4.46565 0
M  V30 5304 N 511.423 1.38739 0.74761 0
M  V30 5305 C 512.353 1.39173 1.87492 0
M  V30 5306 C 513.334 0.256794 1.6815 0
M  V30 5307 O 514.519 0.460762 1.88655 0
M  V30 5308 C 511.649 1.22197 3.25093 0
M  V30 5309 C 510.603 2.32957 3.59047 0
M  V30 5310 C 509.929 2.01082 4.95449 0
M  V30 5311 C 511.229 3.75237 3.6331 0
M  V30 5312 H 512.923 2.3351 1.87386 0
M  V30 5313 H 510.469 1.12399 0.900134 0
M  V30 5314 H 512.422 1.21124 4.03617 0
M  V30 5315 H 511.146 0.243241 3.25693 0
M  V30 5316 H 509.805 2.33226 2.82845 0
M  V30 5317 H 509.453 1.01678 4.92616 0
M  V30 5318 H 509.153 2.75267 5.19136 0
M  V30 5319 H 510.677 2.01638 5.76346 0
M  V30 5320 H 512.091 3.76966 4.31937 0
M  V30 5321 H 510.488 4.48677 3.98509 0
M  V30 5322 H 511.558 4.07122 2.634 0
M  V30 5323 N 512.901 -0.976442 1.23707 0
M  V30 5324 C 514.126 -1.75875 1.09922 0
M  V30 5325 C 514.551 -1.84911 -0.34489 0
M  V30 5326 O 513.909 -1.31363 -1.24954 0
M  V30 5327 C 513.957 -3.16179 1.73388 0
M  V30 5328 O 513.061 -4.00124 0.99871 0
M  V30 5329 H 512.402 -0.540954 0.385052 0
M  V30 5330 H 514.932 -1.22546 1.6384 0
M  V30 5331 H 514.942 -3.66741 1.78788 0
M  V30 5332 H 513.617 -3.08917 2.78466 0
M  V30 5333 H 512.194 -3.58624 1.02193 0
M  V30 5334 N 514.379 -1.04941 -1.1758 0
M  V30 5335 C 515.604 -0.778253 -1.92245 0
M  V30 5336 C 516.029 0.659707 -1.76152 0
M  V30 5337 O 515.387 1.45803 -1.07755 0
M  V30 5338 C 515.435 -1.16051 -3.41416 0
M  V30 5339 O 514.539 -0.291153 -4.11371 0
M  V30 5340 H 513.88 -0.285619 -0.599431 0
M  V30 5341 H 516.41 -1.40159 -1.49052 0
M  V30 5342 H 516.42 -1.12619 -3.92149 0
M  V30 5343 H 515.095 -2.208 -3.52449 0
M  V30 5344 H 513.672 -0.385851 -3.70898 0
M  V30 5345 N 515.857 1.33968 -0.830081 0
M  V30 5346 C 516.787 2.31911 -0.271911 0
M  V30 5347 C 517.768 1.58571 0.61556 0
M  V30 5348 O 518.953 1.86514 0.540946 0
M  V30 5349 C 516.083 3.42737 0.561146 0
M  V30 5350 C 515.037 4.27383 -0.229789 0
M  V30 5351 C 514.363 5.29742 0.726463 0
M  V30 5352 C 515.663 5.02 -1.44197 0
M  V30 5353 H 517.357 2.78844 -1.09025 0
M  V30 5354 H 514.903 1.34061 -0.52571 0
M  V30 5355 H 516.856 4.10276 0.961867 0
M  V30 5356 H 515.58 2.94471 1.41261 0
M  V30 5357 H 514.239 3.61456 -0.611964 0
M  V30 5358 H 513.887 4.77736 1.57408 0
M  V30 5359 H 513.587 5.87255 0.20142 0
M  V30 5360 H 515.111 6.00149 1.12489 0
M  V30 5361 H 516.525 5.62355 -1.11488 0
M  V30 5362 H 514.922 5.69122 -1.90317 0
M  V30 5363 H 515.992 4.31281 -2.2164 0
M  V30 5364 N 517.335 0.585699 1.46312 0
M  V30 5365 C 518.751 0.247607 1.57668 0
M  V30 5366 C 518.951 -1.25007 1.58037 0
M  V30 5367 O 518.007 -2.03196 1.49893 0
M  V30 5368 C 519.32 0.899456 2.86933 0
M  V30 5369 C 520.868 0.873326 3.00569 0
M  V30 5370 C 521.343 1.50477 4.32574 0
M  V30 5371 N 522.834 1.46925 4.3928 0
M  V30 5372 C 523.569 1.92719 5.40044 0
M  V30 5373 N 523.065 2.46499 6.47464 0
M  V30 5374 N 524.858 1.83617 5.31264 0
M  V30 5375 H 517.009 1.55841 1.44317 0
M  V30 5376 H 519.272 0.651564 0.688599 0
M  V30 5377 H 518.978 1.95313 2.92482 0
M  V30 5378 H 518.852 0.409476 3.74971 0
M  V30 5379 H 521.239 -0.171736 2.946 0
M  V30 5380 H 521.32 1.40136 2.13999 0
M  V30 5381 H 520.964 2.54905 4.39302 0
M  V30 5382 H 520.894 0.951944 5.17924 0
M  V30 5383 H 523.385 1.07616 3.62253 0
M  V30 5384 H 523.698 2.79291 7.20567 0
M  V30 5385 H 522.043 2.50526 6.48276 0
M  V30 5386 H 525.234 1.41358 4.46246 0
M  V30 5387 H 525.407 2.19622 6.09648 0
M  V30 5388 N 518.813 -1.54241 0.323641 0
M  V30 5389 C 520.224 -1.85975 -0.164405 0
M  V30 5390 C 520.575 -1.24529 -1.51615 0
M  V30 5391 O 519.7 -0.551351 -2.09258 0
M  V30 5392 C 520.295 -3.37424 -0.305091 0
M  V30 5393 C 518.854 -3.69107 -0.737358 0
M  V30 5394 C 518.001 -2.76942 0.140884 0
M  V30 5395 H 520.952 -1.49088 0.543922 0
M  V30 5396 H 520.973 -3.63147 -1.13598 0
M  V30 5397 H 520.485 -3.82116 0.678876 0
M  V30 5398 H 518.586 -3.29947 -1.73107 0
M  V30 5399 H 518.699 -4.76035 -0.541053 0
M  V30 5400 H 517.063 -2.51795 -0.383572 0
M  V30 5401 H 517.846 -3.24461 1.12162 0
M  V30 5402 N 520.291 -0.0518155 -1.57515 0
M  V30 5403 C 521.516 0.634896 -1.97443 0
M  V30 5404 C 521.941 1.63546 -0.929207 0
M  V30 5405 O 521.299 1.80981 0.107484 0
M  V30 5406 C 521.347 1.29765 -3.36442 0
M  V30 5407 O 520.451 2.41333 -3.34413 0
M  V30 5408 H 519.792 0.164994 -0.643174 0
M  V30 5409 H 522.322 -0.120407 -2.04245 0
M  V30 5410 H 522.332 1.64918 -3.73184 0
M  V30 5411 H 521.007 0.564361 -4.12053 0
M  V30 5412 H 519.584 2.08122 -3.09418 0
M  V30 5413 N 521.769 1.56035 0.221574 0
M  V30 5414 C 522.699 1.95434 1.2778 0
M  V30 5415 C 523.68 0.822564 1.48889 0
M  V30 5416 O 524.865 1.08486 1.61072 0
M  V30 5417 C 521.995 2.27102 2.62759 0
M  V30 5418 C 520.949 3.4277 2.56306 0
M  V30 5419 C 520.275 3.60043 3.95314 0
M  V30 5420 C 521.575 4.77742 2.11093 0
M  V30 5421 H 523.269 2.83912 0.950504 0
M  V30 5422 H 520.815 1.36596 0.455791 0
M  V30 5423 H 522.768 2.53256 3.36807 0
M  V30 5424 H 521.492 1.35478 2.97176 0
M  V30 5425 H 520.151 3.16664 1.84715 0
M  V30 5426 H 519.799 2.65794 4.27039 0
M  V30 5427 H 519.499 4.37841 3.91879 0
M  V30 5428 H 521.023 3.88545 4.71025 0
M  V30 5429 H 522.437 5.03102 2.74885 0
M  V30 5430 H 520.834 5.58823 2.18716 0
M  V30 5431 H 521.904 4.731 1.06321 0
M  V30 5432 N 523.247 -0.488276 1.49845 0
M  V30 5433 C 524.475 -1.26527 1.63702 0
M  V30 5434 C 524.89 -1.8618 0.313447 0
M  V30 5435 O 524.247 -1.68432 -0.702624 0
M  V30 5436 C 524.298 -2.3864 2.71538 0
M  V30 5437 O 524.019 -1.81437 3.98763 0
M  V30 5438 C 525.52 -3.29805 2.96215 0
M  V30 5439 H 522.74 -0.383295 0.55075 0
M  V30 5440 H 525.284 -0.584779 1.95961 0
M  V30 5441 H 523.439 -3.02496 2.42023 0
M  V30 5442 H 523.853 -2.55135 4.58265 0
M  V30 5443 H 525.327 -4.04722 3.75372 0
M  V30 5444 H 525.804 -3.87563 2.06619 0
M  V30 5445 H 526.41 -2.71703 3.27196 0
M  V30 5446 N 524.725 -1.39134 -0.740242 0
M  V30 5447 C 525.973 -1.35803 -1.49673 0
M  V30 5448 C 526.294 0.0470897 -1.94943 0
M  V30 5449 O 525.564 0.997347 -1.68611 0
M  V30 5450 H 524.144 -0.499736 -0.555224 0
M  V30 5451 H 526.806 -1.73947 -0.879107 0
M  V30 5452 H 525.902 -2.0174 -2.38133 0
M  V30 5453 N 526.204 0.969867 -1.24223 0
M  V30 5454 C 527.167 2.04564 -1.03373 0
M  V30 5455 C 528.167 1.60798 0.00819206 0
M  V30 5456 O 529.357 1.72641 -0.232567 0
M  V30 5457 C 526.489 3.36163 -0.566343 0
M  V30 5458 H 527.682 2.24494 -1.98853 0
M  V30 5459 H 525.235 1.1448 -1.06415 0
M  V30 5460 H 525.97 3.21925 0.391751 0
M  V30 5461 H 525.755 3.69273 -1.31834 0
M  V30 5462 H 527.245 4.1526 -0.441435 0
M  V30 5463 N 527.682 1.05563 1.17022 0
M  V30 5464 C 529.098 0.777684 1.39371 0
M  V30 5465 C 529.298 -0.626269 1.91521 0
M  V30 5466 O 528.354 -1.38806 2.10924 0
M  V30 5467 C 529.667 1.83642 2.3811 0
M  V30 5468 C 531.215 1.85907 2.51809 0
M  V30 5469 C 531.69 2.90813 3.53824 0
M  V30 5470 N 533.181 2.898 3.61345 0
M  V30 5471 C 533.916 3.6762 4.40049 0
M  V30 5472 N 533.412 4.55237 5.22237 0
M  V30 5473 N 535.205 3.56044 4.34959 0
M  V30 5474 H 527.356 1.9614 0.815047 0
M  V30 5475 H 529.619 0.849527 0.420722 0
M  V30 5476 H 529.325 2.84425 2.06871 0
M  V30 5477 H 529.199 1.6812 3.37662 0
M  V30 5478 H 531.586 0.857865 2.82356 0
M  V30 5479 H 531.667 2.05506 1.52318 0
M  V30 5480 H 531.311 3.91122 3.24015 0
M  V30 5481 H 531.241 2.68465 4.53028 0
M  V30 5482 H 533.732 2.26274 3.02669 0
M  V30 5483 H 534.045 5.11291 5.79484 0
M  V30 5484 H 532.39 4.59296 5.21605 0
M  V30 5485 H 535.581 2.86986 3.69806 0
M  V30 5486 H 535.754 4.16938 4.96051 0
M  V30 5487 N 529.16 -1.33526 0.837174 0
M  V30 5488 C 530.576 -1.50727 0.524743 0
M  V30 5489 C 530.776 -1.77792 -0.948279 0
M  V30 5490 O 529.832 -1.83719 -1.73216 0
M  V30 5491 C 531.145 -2.66299 1.39661 0
M  V30 5492 C 532.693 -2.80183 1.39521 0
M  V30 5493 C 533.168 -3.98815 2.25189 0
M  V30 5494 N 534.659 -4.06047 2.2289 0
M  V30 5495 C 535.394 -4.97032 2.85915 0
M  V30 5496 N 534.89 -5.93143 3.57985 0
M  V30 5497 N 536.683 -4.90015 2.75394 0
M  V30 5498 H 528.834 -1.1422 1.79074 0
M  V30 5499 H 531.097 -0.561399 0.763894 0
M  V30 5500 H 530.803 -2.52974 2.4433 0
M  V30 5501 H 530.677 -3.61663 1.07145 0
M  V30 5502 H 533.064 -2.92942 0.356253 0
M  V30 5503 H 533.145 -1.85586 1.76044 0
M  V30 5504 H 532.789 -3.86817 3.29143 0
M  V30 5505 H 532.719 -4.92654 1.86009 0
M  V30 5506 H 535.21 -3.37262 1.70478 0
M  V30 5507 H 535.523 -6.59227 4.03286 0
M  V30 5508 H 533.868 -5.93223 3.62093 0
M  V30 5509 H 537.059 -4.13894 2.18654 0
M  V30 5510 H 537.232 -5.60724 3.24796 0
M  V30 5511 N 530.638 -0.59345 -1.46 0
M  V30 5512 C 531.568 0.121192 -2.33185 0
M  V30 5513 C 532.549 0.872977 -1.4599 0
M  V30 5514 O 533.734 0.846321 -1.74789 0
M  V30 5515 C 530.864 1.12844 -3.28456 0
M  V30 5516 C 529.818 0.4908 -4.25177 0
M  V30 5517 C 529.144 1.60529 -5.10034 0
M  V30 5518 C 530.444 -0.578949 -5.19081 0
M  V30 5519 H 532.138 -0.606767 -2.93187 0
M  V30 5520 H 529.684 -0.293242 -1.40983 0
M  V30 5521 H 531.637 1.63684 -3.88311 0
M  V30 5522 H 530.361 1.88681 -2.66584 0
M  V30 5523 H 529.02 0.00339328 -3.666 0
M  V30 5524 H 528.668 2.35359 -4.44539 0
M  V30 5525 H 528.368 1.18422 -5.75543 0
M  V30 5526 H 529.892 2.11623 -5.72755 0
M  V30 5527 H 531.306 -0.155199 -5.7309 0
M  V30 5528 H 529.703 -0.920947 -5.92991 0
M  V30 5529 H 530.773 -1.46109 -4.62364 0
M  V30 5530 N 532.116 1.54067 -0.331816 0
M  V30 5531 C 533.362 2.01012 0.268667 0
M  V30 5532 C 533.695 1.2195 1.51136 0
M  V30 5533 O 532.97 0.303972 1.9211 0
M  V30 5534 C 533.253 3.55158 0.59456 0
M  V30 5535 C 533.106 4.4494 -0.659409 0
M  V30 5536 C 534.425 4.16939 1.4089 0
M  V30 5537 H 531.544 0.730698 0.0961756 0
M  V30 5538 H 534.186 1.84593 -0.450031 0
M  V30 5539 H 532.336 3.6928 1.20685 0
M  V30 5540 H 534.008 4.42675 -1.29756 0
M  V30 5541 H 532.251 4.1428 -1.28665 0
M  V30 5542 H 532.922 5.50643 -0.386804 0
M  V30 5543 H 535.398 4.06443 0.891272 0
M  V30 5544 H 534.274 5.24889 1.60569 0
M  V30 5545 H 534.535 3.70798 2.40752 0
M  V30 5546 N 533.594 0.0601682 1.57485 0
M  V30 5547 C 534.504 -0.926121 2.15546 0
M  V30 5548 C 535.52 -1.33532 1.11558 0
M  V30 5549 O 536.696 -1.4104 1.4377 0
M  V30 5550 C 533.761 -2.17952 2.69625 0
M  V30 5551 C 532.822 -1.82783 3.88444 0
M  V30 5552 C 532.055 -3.02148 4.39935 0
M  V30 5553 O 532.278 -4.15803 3.90466 0
M  V30 5554 O 531.212 -2.82639 5.31412 0
M  V30 5555 H 535.038 -0.462289 3.00161 0
M  V30 5556 H 532.623 -0.162246 1.48516 0
M  V30 5557 H 534.505 -2.91474 3.04337 0
M  V30 5558 H 533.18 -2.63456 1.88077 0
M  V30 5559 H 532.087 -1.06549 3.58606 0
M  V30 5560 H 533.42 -1.42072 4.7125 0
M  V30 5561 N 535.072 -1.5615 -0.213296 0
M  V30 5562 C 536.3 -1.83638 -0.953139 0
M  V30 5563 C 536.715 -0.640362 -1.77609 0
M  V30 5564 O 536.072 0.391071 -1.78261 0
M  V30 5565 C 536.123 -3.09735 -1.86405 0
M  V30 5566 O 535.844 -4.24723 -1.07435 0
M  V30 5567 C 537.345 -3.5027 -2.71709 0
M  V30 5568 H 534.565 -0.610263 -0.278962 0
M  V30 5569 H 537.109 -2.03247 -0.226035 0
M  V30 5570 H 535.264 -2.92077 -2.545 0
M  V30 5571 H 535.678 -4.9641 -1.69343 0
M  V30 5572 H 537.152 -4.41515 -3.31313 0
M  V30 5573 H 537.629 -2.72406 -3.44516 0
M  V30 5574 H 538.235 -3.70396 -2.09015 0
M  V30 5575 N 536.55 0.480323 -1.50102 0
M  V30 5576 C 537.799 1.22979 -1.59872 0
M  V30 5577 C 538.112 1.93282 -0.30022 0
M  V30 5578 O 539.318 2.70086 -0.276709 0
M  V30 5579 C 537.774 2.23408 -2.82164 0
M  V30 5580 C 537.382 1.5895 -4.18854 0
M  V30 5581 C 539.126 2.99055 -3.01275 0
M  V30 5582 C 537.033 2.57611 -5.32344 0
M  V30 5583 H 535.963 0.462707 -0.59533 0
M  V30 5584 H 538.614 0.501291 -1.7652 0
M  V30 5585 H 536.996 2.99511 -2.59055 0
M  V30 5586 H 538.17 0.887 -4.52182 0
M  V30 5587 H 536.485 0.956191 -4.05273 0
M  V30 5588 H 539.082 3.72876 -3.83233 0
M  V30 5589 H 539.425 3.57897 -2.12639 0
M  V30 5590 H 539.958 2.30066 -3.24522 0
M  V30 5591 H 536.697 2.03521 -6.23105 0
M  V30 5592 H 536.217 3.26041 -5.03445 0
M  V30 5593 H 537.896 3.19627 -5.62537 0
M  V30 5594 N 538.028 1.39524 0.732853 0
M  V30 5595 C 539.275 1.36865 1.49246 0
M  V30 5596 C 539.603 -0.0347118 1.94469 0
M  V30 5597 O 538.858 -1.01596 1.67262 0
M  V30 5598 C 539.157 2.28916 2.74468 0
M  V30 5599 C 538.823 3.76506 2.481 0
M  V30 5600 C 537.485 4.16721 2.40619 0
M  V30 5601 C 539.837 4.69846 2.25598 0
M  V30 5602 C 537.165 5.48334 2.08679 0
M  V30 5603 C 539.517 6.01739 1.95174 0
M  V30 5604 C 538.181 6.41015 1.86163 0
M  V30 5605 H 537.451 0.500824 0.546129 0
M  V30 5606 H 540.098 1.72047 0.840958 0
M  V30 5607 H 538.403 1.86859 3.4437 0
M  V30 5608 H 540.1 2.2415 3.32502 0
M  V30 5609 H 536.69 3.44635 2.54803 0
M  V30 5610 H 540.874 4.39608 2.30344 0
M  V30 5611 H 536.13 5.77685 2.00226 0
M  V30 5612 H 540.304 6.73591 1.76771 0
M  V30 5613 H 537.931 7.42917 1.61179 0
M  V30 5614 N 539.506 -0.963266 1.24736 0
M  V30 5615 C 540.436 -2.07628 1.06832 0
M  V30 5616 C 541.417 -1.70088 -0.0200566 0
M  V30 5617 O 542.602 -1.93636 0.147854 0
M  V30 5618 C 539.732 -3.40636 0.677069 0
M  V30 5619 C 538.686 -3.9215 1.71471 0
M  V30 5620 C 538.012 -5.21553 1.1784 0
M  V30 5621 C 539.312 -4.19493 3.11164 0
M  V30 5622 H 541.006 -2.22864 1.9993 0
M  V30 5623 H 538.552 -1.07093 0.96266 0
M  V30 5624 H 540.505 -4.17941 0.538792 0
M  V30 5625 H 539.229 -3.25313 -0.289612 0
M  V30 5626 H 537.888 -3.17005 1.84128 0
M  V30 5627 H 537.536 -5.02593 0.202195 0
M  V30 5628 H 537.236 -5.56988 1.87185 0
M  V30 5629 H 538.76 -6.01463 1.05233 0
M  V30 5630 H 540.174 -4.87487 3.01711 0
M  V30 5631 H 538.571 -4.66165 3.77902 0
M  V30 5632 H 539.641 -3.26097 3.58871 0
M  V30 5633 N 540.985 -1.06182 -1.16461 0
M  V30 5634 C 542.233 -0.776326 -1.86595 0
M  V30 5635 C 542.554 0.69921 -1.82033 0
M  V30 5636 O 541.824 1.50579 -1.2531 0
M  V30 5637 H 540.404 -0.284184 -0.690832 0
M  V30 5638 H 543.066 -1.34308 -1.41235 0
M  V30 5639 H 542.162 -1.10022 -2.92064 0
M  V30 5640 N 542.463 1.3308 -0.844243 0
M  V30 5641 C 543.688 2.02341 -0.455282 0
M  V30 5642 C 544.113 1.6308 0.93737 0
M  V30 5643 O 543.471 0.826118 1.61385 0
M  V30 5644 C 543.519 3.55743 -0.58988 0
M  V30 5645 O 542.623 4.1063 0.38166 0
M  V30 5646 H 541.964 0.637898 -0.184343 0
M  V30 5647 H 544.494 1.6986 -1.14056 0
M  V30 5648 H 544.504 4.05243 -0.473522 0
M  V30 5649 H 543.179 3.83662 -1.60549 0
M  V30 5650 H 541.756 3.72236 0.22241 0
M  V30 5651 N 543.941 0.601185 1.45683 0
M  V30 5652 C 545.357 0.264315 1.57396 0
M  V30 5653 C 545.557 -1.23324 1.59353 0
M  V30 5654 O 544.613 -2.01594 1.52039 0
M  V30 5655 C 545.926 0.929839 2.85962 0
M  V30 5656 C 547.474 0.905156 2.99626 0
M  V30 5657 C 547.949 1.55057 4.30954 0
M  V30 5658 N 549.44 1.51576 4.37697 0
M  V30 5659 C 550.175 1.98436 5.37969 0
M  V30 5660 N 549.671 2.53352 6.44813 0
M  V30 5661 N 551.464 1.89242 5.29286 0
M  V30 5662 H 543.615 1.57363 1.42656 0
M  V30 5663 H 545.878 0.658831 0.681649 0
M  V30 5664 H 545.584 1.98404 2.90394 0
M  V30 5665 H 545.458 0.449224 3.74515 0
M  V30 5666 H 547.845 -0.14048 2.94765 0
M  V30 5667 H 547.926 1.42397 2.12501 0
M  V30 5668 H 547.57 2.5955 4.36573 0
M  V30 5669 H 547.5 1.00682 5.16886 0
M  V30 5670 H 549.991 1.11452 3.61091 0
M  V30 5671 H 550.304 2.86918 7.17564 0
M  V30 5672 H 548.649 2.57388 6.45582 0
M  V30 5673 H 551.84 1.46083 4.44722 0
M  V30 5674 H 552.013 2.26075 6.07284 0
M  V30 5675 N 545.419 -1.53889 0.339982 0
M  V30 5676 C 546.83 -1.86139 -0.144671 0
M  V30 5677 C 547.181 -1.2613 -1.50285 0
M  V30 5678 O 546.306 -0.573515 -2.08662 0
M  V30 5679 C 546.901 -3.37728 -0.269285 0
M  V30 5680 C 545.46 -3.69868 -0.698168 0
M  V30 5681 C 544.607 -2.76777 0.170249 0
M  V30 5682 H 547.558 -1.48503 0.559704 0
M  V30 5683 H 547.579 -3.64331 -1.0974 0
M  V30 5684 H 547.091 -3.81375 0.719366 0
M  V30 5685 H 545.192 -3.31764 -1.69597 0
M  V30 5686 H 545.305 -4.76582 -0.490533 0
M  V30 5687 H 543.669 -2.52188 -0.356844 0
M  V30 5688 H 544.452 -3.23253 1.15597 0
M  V30 5689 N 546.897 -0.0685191 -1.57451 0
M  V30 5690 C 548.143 0.596247 -1.94465 0
M  V30 5691 C 548.498 1.67417 -0.948117 0
M  V30 5692 O 547.791 1.91576 0.0301056 0
M  V30 5693 C 547.985 1.22051 -3.35914 0
M  V30 5694 C 547.814 0.204586 -4.49234 0
M  V30 5695 C 546.584 -0.20959 -5.04865 0
M  V30 5696 C 548.782 -0.556872 -5.11276 0
M  V30 5697 N 546.764 -1.21656 -6.01725 0
M  V30 5698 C 548.135 -1.41642 -6.03604 0
M  V30 5699 C 550.19 -0.613297 -4.94108 0
M  V30 5700 C 548.893 -2.32737 -6.80607 0
M  V30 5701 C 550.919 -1.51174 -5.71752 0
M  V30 5702 C 550.281 -2.35898 -6.63726 0
M  V30 5703 H 546.38 0.189307 -0.75874 0
M  V30 5704 H 548.964 -0.144899 -1.9416 0
M  V30 5705 H 547.135 1.9316 -3.36963 0
M  V30 5706 H 548.867 1.84548 -3.60172 0
M  V30 5707 H 545.622 0.172871 -4.73284 0
M  V30 5708 H 546.046 -1.71746 -6.54853 0
M  V30 5709 H 550.688 0.0275228 -4.22791 0
M  V30 5710 H 548.406 -2.97856 -7.51204 0
M  V30 5711 H 551.992 -1.5602 -5.6049 0
M  V30 5712 H 550.872 -3.04291 -7.22756 0
M  V30 5713 N 548.375 1.56261 0.205012 0
M  V30 5714 C 549.308 1.88797 1.28183 0
M  V30 5715 C 550.286 0.747018 1.44424 0
M  V30 5716 O 551.47 0.997039 1.59973 0
M  V30 5717 C 548.597 2.10949 2.64987 0
M  V30 5718 C 547.643 3.33649 2.6567 0
M  V30 5719 S 548.476 4.89078 2.18088 0
M  V30 5720 C 549.632 5.14286 3.56736 0
M  V30 5721 H 549.865 2.79837 1.00393 0
M  V30 5722 H 547.398 1.48911 0.408042 0
M  V30 5723 H 549.356 2.24395 3.4374 0
M  V30 5724 H 548.017 1.20678 2.89993 0
M  V30 5725 H 547.21 3.46245 3.66239 0
M  V30 5726 H 546.812 3.19146 1.94992 0
M  V30 5727 H 549.104 5.04198 4.52537 0
M  V30 5728 H 550.047 6.16096 3.49043 0
M  V30 5729 H 550.455 4.41957 3.51189 0
M  V30 5730 N 549.853 -0.472356 1.50355 0
M  V30 5731 C 551.264 -1.05326 1.54154 0
M  V30 5732 C 551.615 -1.93155 0.344303 0
M  V30 5733 O 550.74 -2.09479 -0.542928 0
M  V30 5734 C 551.335 -1.91691 2.79356 0
M  V30 5735 C 549.894 -2.44892 2.8584 0
M  V30 5736 C 549.041 -1.23205 2.48426 0
M  V30 5737 H 551.992 -0.255027 1.56637 0
M  V30 5738 H 552.013 -2.76742 2.6114 0
M  V30 5739 H 551.525 -1.27741 3.66475 0
M  V30 5740 H 549.626 -3.12399 2.0307 0
M  V30 5741 H 549.739 -2.80086 3.88701 0
M  V30 5742 H 548.103 -1.56643 2.00836 0
M  V30 5743 H 548.886 -0.609194 3.37852 0
M  V30 5744 N 551.331 -1.39911 -0.725443 0
M  V30 5745 C 552.579 -1.37382 -1.48224 0
M  V30 5746 C 552.9 0.0264107 -1.94982 0
M  V30 5747 O 552.17 0.979408 -1.6966 0
M  V30 5748 H 550.75 -0.505596 -0.549892 0
M  V30 5749 H 553.412 -1.7487 -0.860608 0
M  V30 5750 H 552.508 -2.04254 -2.3598 0
M  V30 5751 N 552.809 0.956637 -1.25245 0
M  V30 5752 C 554.037 1.73571 -1.12608 0
M  V30 5753 C 554.452 1.86063 0.320324 0
M  V30 5754 O 553.809 1.35691 1.22042 0
M  V30 5755 C 553.86 3.15053 -1.77268 0
M  V30 5756 O 553.581 3.03174 -3.16255 0
M  V30 5757 C 555.082 4.09248 -1.70386 0
M  V30 5758 H 552.302 0.543955 -0.392879 0
M  V30 5759 H 554.846 1.20031 -1.65568 0
M  V30 5760 H 553.001 3.65543 -1.28284 0
M  V30 5761 H 553.415 3.9241 -3.48015 0
M  V30 5762 H 554.889 5.06138 -2.20291 0
M  V30 5763 H 555.366 4.34102 -0.667239 0
M  V30 5764 H 555.972 3.64672 -2.18849 0
M  V30 5765 N 554.287 1.06798 1.15896 0
M  V30 5766 C 555.698 0.811355 1.68149 0
M  V30 5767 C 556.049 -0.664339 1.8461 0
M  V30 5768 O 555.174 -1.51485 1.54535 0
M  V30 5769 C 555.769 1.46624 3.05429 0
M  V30 5770 C 554.328 1.25726 3.54781 0
M  V30 5771 C 553.475 1.53949 2.3064 0
M  V30 5772 H 556.426 1.23078 1.00187 0
M  V30 5773 H 556.447 0.88437 3.7008 0
M  V30 5774 H 555.959 2.54025 2.93416 0
M  V30 5775 H 554.06 0.20322 3.72045 0
M  V30 5776 H 554.173 1.97354 4.36564 0
M  V30 5777 H 552.537 0.96025 2.35905 0
M  V30 5778 H 553.32 2.6252 2.2122 0
M  V30 5779 N 555.766 -1.3263 0.851289 0
M  V30 5780 C 557.182 -1.50162 0.5407 0
M  V30 5781 C 557.382 -1.78788 -0.929369 0
M  V30 5782 O 556.438 -1.85545 -1.71258 0
M  V30 5783 C 557.751 -2.64803 1.42478 0
M  V30 5784 C 559.299 -2.78688 1.42485 0
M  V30 5785 C 559.774 -3.96405 2.29407 0
M  V30 5786 N 561.265 -4.0366 2.27184 0
M  V30 5787 C 562 -4.93971 2.9117 0
M  V30 5788 N 561.496 -5.89313 3.64256 0
M  V30 5789 N 563.289 -4.87066 2.80576 0
M  V30 5790 H 555.44 -1.12315 1.80275 0
M  V30 5791 H 557.703 -0.553266 0.769806 0
M  V30 5792 H 557.409 -2.50368 2.46999 0
M  V30 5793 H 557.283 -3.60506 1.10974 0
M  V30 5794 H 559.67 -2.92547 0.387304 0
M  V30 5795 H 559.751 -1.83708 1.78002 0
M  V30 5796 H 559.395 -3.83304 3.33228 0
M  V30 5797 H 559.325 -4.90654 1.91224 0
M  V30 5798 H 561.816 -3.35435 1.74045 0
M  V30 5799 H 562.129 -6.54913 4.10255 0
M  V30 5800 H 560.474 -5.8935 3.68364 0
M  V30 5801 H 563.665 -4.11552 2.23031 0
M  V30 5802 H 563.838 -5.57248 3.30725 0
M  V30 5803 N 557.244 -0.608902 -1.45362 0
M  V30 5804 C 558.66 -0.272659 -1.57254 0
M  V30 5805 C 558.86 1.22477 -1.60005 0
M  V30 5806 O 557.916 2.00785 -1.53106 0
M  V30 5807 C 559.229 -0.944991 -2.85465 0
M  V30 5808 C 560.777 -0.921033 -2.99142 0
M  V30 5809 C 561.252 -1.5734 -4.30126 0
M  V30 5810 N 562.743 -1.53895 -4.36887 0
M  V30 5811 C 563.478 -2.01286 -5.36909 0
M  V30 5812 N 562.974 -2.56768 -6.43461 0
M  V30 5813 N 564.767 -1.92046 -5.28275 0
M  V30 5814 H 556.918 -1.58117 -1.4182 0
M  V30 5815 H 559.181 -0.662437 -0.678146 0
M  V30 5816 H 558.887 -1.99941 -2.89338 0
M  V30 5817 H 558.761 -0.469079 -3.74272 0
M  V30 5818 H 561.148 0.124846 -2.94836 0
M  V30 5819 H 561.229 -1.43522 -2.11743 0
M  V30 5820 H 560.873 -2.61862 -4.35191 0
M  V30 5821 H 560.803 -1.03422 -5.16344 0
M  V30 5822 H 563.294 -1.13366 -3.60495 0
M  V30 5823 H 563.607 -2.9072 -7.16032 0
M  V30 5824 H 561.952 -2.60808 -6.44208 0
M  V30 5825 H 565.143 -1.48439 -4.43941 0
M  V30 5826 H 565.316 -2.29293 -6.06077 0
M  V30 5827 N 558.722 1.53707 -0.348139 0
M  V30 5828 C 559.652 2.28111 0.498766 0
M  V30 5829 C 560.633 1.29851 1.09876 0
M  V30 5830 O 561.818 1.587 1.11928 0
M  V30 5831 C 558.948 3.05735 1.64753 0
M  V30 5832 C 557.902 4.11537 1.17565 0
M  V30 5833 C 557.228 4.77142 2.4133 0
M  V30 5834 C 558.528 5.21587 0.272844 0
M  V30 5835 H 560.222 2.99152 -0.121934 0
M  V30 5836 H 557.768 1.43875 -0.0600842 0
M  V30 5837 H 559.721 3.56526 2.24649 0
M  V30 5838 H 558.445 2.32354 2.2952 0
M  V30 5839 H 557.104 3.61665 0.599483 0
M  V30 5840 H 556.752 4.0035 3.04514 0
M  V30 5841 H 556.452 5.48626 2.10436 0
M  V30 5842 H 557.976 5.30719 3.01943 0
M  V30 5843 H 559.39 5.67986 0.778779 0
M  V30 5844 H 557.787 6.00074 0.0555849 0
M  V30 5845 H 558.857 4.79969 -0.689785 0
M  V30 5846 N 560.2 0.0768682 1.57412 0
M  V30 5847 C 561.611 -0.455037 1.8107 0
M  V30 5848 C 561.962 -1.69323 0.991162 0
M  V30 5849 O 561.087 -2.15328 0.215156 0
M  V30 5850 C 561.682 -0.832316 3.28417 0
M  V30 5851 C 560.241 -1.30906 3.52903 0
M  V30 5852 C 559.388 -0.296714 2.75708 0
M  V30 5853 H 562.339 0.302514 1.5579 0
M  V30 5854 H 562.36 -1.69333 3.40744 0
M  V30 5855 H 561.872 0.0690532 3.88039 0
M  V30 5856 H 559.973 -2.22875 2.98592 0
M  V30 5857 H 560.086 -1.28348 4.61588 0
M  V30 5858 H 558.45 -0.775059 2.42621 0
M  V30 5859 H 559.233 0.597015 3.38069 0
M  V30 5860 N 561.678 -1.56367 -0.196722 0
M  V30 5861 C 563.094 -1.49916 -0.54749 0
M  V30 5862 C 563.294 -0.77659 -1.85934 0
M  V30 5863 O 562.35 -0.32644 -2.50381 0
M  V30 5864 C 563.663 -2.94577 -0.603734 0
M  V30 5865 C 565.211 -3.05239 -0.692677 0
M  V30 5866 C 565.686 -4.51308 -0.780046 0
M  V30 5867 N 567.177 -4.55453 -0.843616 0
M  V30 5868 C 567.912 -5.65786 -0.931358 0
M  V30 5869 N 567.408 -6.85812 -0.981503 0
M  V30 5870 N 569.201 -5.53695 -0.968421 0
M  V30 5871 H 561.352 -2.01761 0.663803 0
M  V30 5872 H 563.615 -0.918094 0.236238 0
M  V30 5873 H 563.321 -3.50494 0.29105 0
M  V30 5874 H 563.195 -3.47841 -1.45898 0
M  V30 5875 H 565.582 -2.49372 -1.57789 0
M  V30 5876 H 565.663 -2.55103 0.188736 0
M  V30 5877 H 565.307 -5.078 0.100811 0
M  V30 5878 H 565.237 -4.99176 -1.67724 0
M  V30 5879 H 567.728 -3.69025 -0.814176 0
M  V30 5880 H 568.041 -7.65648 -1.04892 0
M  V30 5881 H 566.386 -6.88474 -0.950208 0
M  V30 5882 H 569.577 -4.58848 -0.926072 0
M  V30 5883 H 569.75 -6.39708 -1.03334 0
M  V30 5884 N 563.156 0.464375 -1.50603 0
M  V30 5885 C 564.086 1.56944 -1.72889 0
M  V30 5886 C 565.067 1.59979 -0.577997 0
M  V30 5887 O 566.252 1.76138 -0.817855 0
M  V30 5888 C 563.382 2.95225 -1.8292 0
M  V30 5889 C 562.336 3.07056 -2.98162 0
M  V30 5890 C 561.662 4.47051 -2.93343 0
M  V30 5891 C 562.962 2.83648 -4.38567 0
M  V30 5892 H 564.656 1.38547 -2.65415 0
M  V30 5893 H 562.202 0.665082 -1.27721 0
M  V30 5894 H 564.155 3.72467 -1.97095 0
M  V30 5895 H 562.879 3.14793 -0.870209 0
M  V30 5896 H 561.538 2.32248 -2.83648 0
M  V30 5897 H 561.186 4.63547 -1.95276 0
M  V30 5898 H 560.886 4.55902 -3.70712 0
M  V30 5899 H 562.41 5.26304 -3.09575 0
M  V30 5900 H 563.824 3.50636 -4.53572 0
M  V30 5901 H 562.221 3.03937 -5.17438 0
M  V30 5902 H 563.291 1.79451 -4.50472 0
M  V30 5903 N 564.634 1.40294 0.718013 0
M  V30 5904 C 566.045 1.34289 1.29705 0
M  V30 5905 C 566.396 0.0152228 1.96194 0
M  V30 5906 O 565.521 -0.88682 1.97394 0
M  V30 5907 C 566.116 2.43219 2.3586 0
M  V30 5908 C 564.675 2.40682 2.89394 0
M  V30 5909 C 563.822 2.24223 1.63154 0
M  V30 5910 H 566.773 1.50135 0.514312 0
M  V30 5911 H 566.794 2.10986 3.16647 0
M  V30 5912 H 566.306 3.39836 1.87439 0
M  V30 5913 H 564.407 1.47756 3.42051 0
M  V30 5914 H 564.52 3.36177 3.41353 0
M  V30 5915 H 562.884 1.71696 1.88129 0
M  V30 5916 H 563.667 3.22834 1.16761 0
M  V30 5917 N 566.112 -0.949982 1.2575 0
M  V30 5918 C 567.044 -2.05088 1.02331 0
M  V30 5919 C 568.057 -1.62795 -0.0133247 0
M  V30 5920 O 569.246 -1.77067 0.225759 0
M  V30 5921 C 566.346 -3.34794 0.525924 0
M  V30 5922 C 565.519 -4.05903 1.62978 0
M  V30 5923 C 564.578 -5.1388 1.13196 0
M  V30 5924 O 563.604 -5.39072 1.82729 0
M  V30 5925 N 564.806 -5.80495 -0.0242926 0
M  V30 5926 H 567.571 -2.25747 1.97125 0
M  V30 5927 H 565.132 -1.11886 1.17018 0
M  V30 5928 H 567.124 -4.04312 0.177263 0
M  V30 5929 H 565.694 -3.10872 -0.328202 0
M  V30 5930 H 564.914 -3.3042 2.1498 0
M  V30 5931 H 566.202 -4.50166 2.37124 0
M  V30 5932 H 565.6 -5.62454 -0.605184 0
M  V30 5933 H 564.157 -6.51043 -0.313947 0
M  V30 5934 N 567.59 -1.07411 -1.15328 0
M  V30 5935 C 569.006 -0.799759 -1.38116 0
M  V30 5936 C 569.206 0.59572 -1.92493 0
M  V30 5937 O 568.262 1.35433 -2.13106 0
M  V30 5938 C 569.575 -1.87407 -2.35158 0
M  V30 5939 C 571.123 -1.89889 -2.48819 0
M  V30 5940 C 571.598 -2.96406 -3.49153 0
M  V30 5941 N 573.089 -2.95512 -3.56689 0
M  V30 5942 C 573.824 -3.74575 -4.34144 0
M  V30 5943 N 573.32 -4.63488 -5.14928 0
M  V30 5944 N 575.113 -3.62919 -4.29239 0
M  V30 5945 H 567.264 -1.97411 -0.78374 0
M  V30 5946 H 569.527 -0.856113 -0.407154 0
M  V30 5947 H 569.233 -2.8768 -2.0232 0
M  V30 5948 H 569.107 -1.73471 -3.34944 0
M  V30 5949 H 571.494 -0.902677 -2.80955 0
M  V30 5950 H 571.575 -2.07904 -1.49029 0
M  V30 5951 H 571.219 -3.96227 -3.17752 0
M  V30 5952 H 571.149 -2.75638 -4.48699 0
M  V30 5953 H 573.64 -2.31061 -2.99031 0
M  V30 5954 H 573.953 -5.20445 -5.71276 0
M  V30 5955 H 572.298 -4.67537 -5.14232 0
M  V30 5956 H 575.489 -2.92833 -3.65194 0
M  V30 5957 H 575.662 -4.24777 -4.89355 0
M  V30 5958 N 569.068 1.32177 -0.85831 0
M  V30 5959 C 570.298 2.01021 -0.476889 0
M  V30 5960 C 570.706 1.64653 0.931995 0
M  V30 5961 O 570.049 0.865713 1.62022 0
M  V30 5962 C 570.111 3.55413 -0.540528 0
M  V30 5963 C 569.775 4.1522 -1.90895 0
M  V30 5964 C 570.772 4.3318 -2.87491 0
M  V30 5965 C 568.457 4.51212 -2.20709 0
M  V30 5966 C 570.451 4.86306 -4.1205 0
M  V30 5967 C 568.138 5.04042 -3.45521 0
M  V30 5968 C 569.136 5.21538 -4.41007 0
M  V30 5969 O 568.824 5.73238 -5.63608 0
M  V30 5970 H 568.556 0.650059 -0.18547 0
M  V30 5971 H 571.11 1.69648 -1.15796 0
M  V30 5972 H 569.34 3.86196 0.19741 0
M  V30 5973 H 571.029 4.05526 -0.174191 0
M  V30 5974 H 571.795 4.05704 -2.65762 0
M  V30 5975 H 567.674 4.36878 -1.4717 0
M  V30 5976 H 571.218 4.99877 -4.86589 0
M  V30 5977 H 567.115 5.30952 -3.67098 0
M  V30 5978 H 567.883 5.91625 -5.65617 0
M  V30 5979 N 570.547 0.616602 1.45037 0
M  V30 5980 C 571.793 0.123965 2.03022 0
M  V30 5981 C 572.148 -1.23508 1.47525 0
M  V30 5982 O 571.441 -1.80453 0.643981 0
M  V30 5983 C 571.635 0.0356829 3.57382 0
M  V30 5984 C 571.464 1.38462 4.27853 0
M  V30 5985 C 570.234 1.96766 4.65415 0
M  V30 5986 C 572.432 2.31536 4.59234 0
M  V30 5987 N 570.414 3.25046 5.20786 0
M  V30 5988 C 571.785 3.4442 5.15533 0
M  V30 5989 C 573.84 2.30796 4.41178 0
M  V30 5990 C 572.543 4.56742 5.55679 0
M  V30 5991 C 574.569 3.42171 4.82362 0
M  V30 5992 C 573.931 4.53778 5.38762 0
M  V30 5993 H 570.03 0.0889428 0.776925 0
M  V30 5994 H 572.614 0.816925 1.76733 0
M  V30 5995 H 570.785 -0.62652 3.83314 0
M  V30 5996 H 572.517 -0.464443 4.02026 0
M  V30 5997 H 569.272 1.4987 4.49261 0
M  V30 5998 H 569.696 3.90592 5.52962 0
M  V30 5999 H 574.338 1.45765 3.96878 0
M  V30 6000 H 572.056 5.42491 5.9894 0
M  V30 6001 H 575.642 3.42757 4.70116 0
M  V30 6002 H 574.522 5.38536 5.70043 0
M  V30 6003 N 572.025 -1.5352 0.356285 0
M  V30 6004 C 572.957 -2.23009 -0.529127 0
M  V30 6005 C 573.97 -1.241 -1.05371 0
M  V30 6006 O 575.159 -1.50379 -0.961679 0
M  V30 6007 C 572.259 -2.90685 -1.74229 0
M  V30 6008 C 571.432 -4.16019 -1.35081 0
M  V30 6009 C 570.491 -4.66989 -2.42502 0
M  V30 6010 O 569.517 -5.30895 -2.05279 0
M  V30 6011 N 570.719 -4.44006 -3.7395 0
M  V30 6012 H 573.484 -2.99627 0.0660501 0
M  V30 6013 H 571.045 -1.60885 0.181014 0
M  V30 6014 H 573.037 -3.21695 -2.4555 0
M  V30 6015 H 571.607 -2.17575 -2.24454 0
M  V30 6016 H 570.827 -3.91414 -0.467833 0
M  V30 6017 H 572.115 -4.9752 -1.06542 0
M  V30 6018 H 571.513 -3.92924 -4.06973 0
M  V30 6019 H 570.07 -4.7959 -4.41403 0
M  V30 6020 N 573.503 -0.0852151 -1.57369 0
M  V30 6021 C 574.436 0.913608 -2.09113 0
M  V30 6022 C 575.414 1.28264 -0.999358 0
M  V30 6023 O 576.598 1.3896 -1.27367 0
M  V30 6024 C 573.725 2.21777 -2.55993 0
M  V30 6025 C 572.771 1.99932 -3.76735 0
M  V30 6026 S 573.604 1.24637 -5.20794 0
M  V30 6027 C 574.76 2.56304 -5.71016 0
M  V30 6028 H 574.993 0.473369 -2.93507 0
M  V30 6029 H 572.526 0.127856 -1.5387 0
M  V30 6030 H 574.484 2.96726 -2.83662 0
M  V30 6031 H 573.145 2.62923 -1.71843 0
M  V30 6032 H 572.338 2.96482 -4.07571 0
M  V30 6033 H 571.94 1.33116 -3.49509 0
M  V30 6034 H 574.232 3.5233 -5.78679 0
M  V30 6035 H 575.175 2.3006 -6.69685 0
M  V30 6036 H 575.583 2.64125 -4.98897 0
M  V30 6037 N 574.981 1.5647 0.188427 0
M  V30 6038 C 576.397 1.50204 0.539532 0
M  V30 6039 C 576.597 0.78644 1.85519 0
M  V30 6040 O 575.653 0.339714 2.50204 0
M  V30 6041 C 576.966 2.94893 0.588103 0
M  V30 6042 C 578.514 3.05602 0.67648 0
M  V30 6043 C 578.989 4.51716 0.756101 0
M  V30 6044 N 580.48 4.55894 0.819451 0
M  V30 6045 C 581.215 5.66272 0.90134 0
M  V30 6046 N 580.711 6.86323 0.945118 0
M  V30 6047 N 582.504 5.54201 0.939043 0
M  V30 6048 H 574.655 2.01406 -0.674493 0
M  V30 6049 H 576.918 0.916828 -0.241103 0
M  V30 6050 H 576.624 3.50334 -0.309633 0
M  V30 6051 H 576.498 3.4861 1.44051 0
M  V30 6052 H 578.885 2.50206 1.56465 0
M  V30 6053 H 578.966 2.54999 -0.202262 0
M  V30 6054 H 578.61 5.07739 -0.12774 0
M  V30 6055 H 578.54 5.00058 1.65074 0
M  V30 6056 H 581.031 3.69452 0.794594 0
M  V30 6057 H 581.344 7.66194 1.0083 0
M  V30 6058 H 579.689 6.88968 0.913683 0
M  V30 6059 H 582.88 4.59333 0.901725 0
M  V30 6060 H 583.053 6.40247 0.999402 0
M  V30 6061 N 576.459 -0.456382 1.50847 0
M  V30 6062 C 577.87 -1.03685 1.55262 0
M  V30 6063 C 578.221 -1.92779 0.364771 0
M  V30 6064 O 577.346 -2.10043 -0.52068 0
M  V30 6065 C 577.941 -1.88718 2.81374 0
M  V30 6066 C 576.5 -2.41847 2.88422 0
M  V30 6067 C 575.647 -1.20564 2.49719 0
M  V30 6068 H 578.598 -0.238399 1.56899 0
M  V30 6069 H 578.619 -2.73957 2.6406 0
M  V30 6070 H 578.131 -1.23847 3.67809 0
M  V30 6071 H 576.232 -3.10228 2.06372 0
M  V30 6072 H 576.345 -2.75947 3.9165 0
M  V30 6073 H 574.709 -1.54504 2.02486 0
M  V30 6074 H 575.492 -0.573326 3.38479 0
M  V30 6075 N 577.937 -1.40673 -0.710563 0
M  V30 6076 C 578.867 -1.44095 -1.83736 0
M  V30 6077 C 579.848 -0.301286 -1.67411 0
M  V30 6078 O 581.033 -0.510618 -1.87367 0
M  V30 6079 C 578.163 -1.30773 -3.21738 0
M  V30 6080 C 577.117 -2.42395 -3.52745 0
M  V30 6081 C 576.443 -2.14147 -4.89944 0
M  V30 6082 C 577.743 -3.84738 -3.53234 0
M  V30 6083 H 579.437 -2.38396 -1.81129 0
M  V30 6084 H 576.983 -1.14746 -0.870017 0
M  V30 6085 H 578.936 -1.31783 -4.00264 0
M  V30 6086 H 577.66 -0.329507 -3.24934 0
M  V30 6087 H 576.319 -2.40643 -2.76562 0
M  V30 6088 H 575.967 -1.14703 -4.89747 0
M  V30 6089 H 575.667 -2.88934 -5.11655 0
M  V30 6090 H 577.191 -2.16848 -5.70797 0
M  V30 6091 H 578.605 -3.88286 -4.2179 0
M  V30 6092 H 577.002 -4.59085 -3.86473 0
M  V30 6093 H 578.072 -4.13962 -2.52514 0
M  V30 6094 N 579.415 0.9433 -1.26252 0
M  V30 6095 C 580.662 1.68925 -1.11672 0
M  V30 6096 C 580.99 1.91499 0.340329 0
M  V30 6097 O 580.245 1.49189 1.26653 0
M  V30 6098 C 580.544 3.07073 -1.82868 0
M  V30 6099 C 580.21 3.04262 -3.32769 0
M  V30 6100 C 578.872 3.03203 -3.7366 0
M  V30 6101 C 581.224 2.96729 -4.28487 0
M  V30 6102 C 578.552 2.92373 -5.0866 0
M  V30 6103 C 580.904 2.87442 -5.63525 0
M  V30 6104 C 579.568 2.84724 -6.03729 0
M  V30 6105 H 578.838 0.618141 -0.408635 0
M  V30 6106 H 581.485 1.10124 -1.56668 0
M  V30 6107 H 579.79 3.69486 -1.30335 0
M  V30 6108 H 581.487 3.63635 -1.69029 0
M  V30 6109 H 578.077 3.05865 -3.00241 0
M  V30 6110 H 582.261 2.96658 -3.97879 0
M  V30 6111 H 577.517 2.88645 -5.38975 0
M  V30 6112 H 581.691 2.80576 -6.37377 0
M  V30 6113 H 579.318 2.76089 -7.08293 0
M  V30 6114 N 580.893 1.08022 1.14757 0
M  V30 6115 C 581.823 0.728248 2.21853 0
M  V30 6116 C 582.804 -0.287486 1.67653 0
M  V30 6117 O 583.989 -0.158727 1.9355 0
M  V30 6118 C 581.119 0.132549 3.47047 0
M  V30 6119 C 580.073 1.07619 4.14249 0
M  V30 6120 C 579.399 0.342907 5.33599 0
M  V30 6121 C 580.699 2.41268 4.63235 0
M  V30 6122 H 582.393 1.62365 2.51551 0
M  V30 6123 H 579.939 0.782125 1.20908 0
M  V30 6124 H 581.892 -0.125665 4.21213 0
M  V30 6125 H 580.616 -0.797971 3.16702 0
M  V30 6126 H 579.275 1.31944 3.42033 0
M  V30 6127 H 578.923 -0.59129 4.99513 0
M  V30 6128 H 578.623 0.971955 5.79506 0
M  V30 6129 H 580.147 0.0926538 6.1053 0
M  V30 6130 H 581.561 2.21232 5.28894 0
M  V30 6131 H 579.958 2.9983 5.19829 0
M  V30 6132 H 581.028 3.03079 3.78512 0
M  V30 6133 N 582.371 -1.3172 0.865308 0
M  V30 6134 C 583.281 -2.32394 0.320935 0
M  V30 6135 C 584.297 -1.64511 -0.566746 0
M  V30 6136 O 585.473 -1.95969 -0.464575 0
M  V30 6137 C 582.538 -3.43462 -0.472701 0
M  V30 6138 C 581.599 -4.27015 0.442385 0
M  V30 6139 C 580.832 -5.32779 -0.313469 0
M  V30 6140 O 581.055 -5.49158 -1.54214 0
M  V30 6141 O 579.989 -6.01015 0.326257 0
M  V30 6142 H 583.815 -2.80868 1.15528 0
M  V30 6143 H 581.4 -1.35535 0.628545 0
M  V30 6144 H 583.282 -4.11172 -0.922781 0
M  V30 6145 H 581.957 -2.97159 -1.28367 0
M  V30 6146 H 580.864 -3.62075 0.940866 0
M  V30 6147 H 582.197 -4.76871 1.21882 0
M  V30 6148 N 583.85 -0.624285 -1.44708 0
M  V30 6149 C 584.779 0.0717025 -2.3339 0
M  V30 6150 C 585.76 0.841814 -1.47809 0
M  V30 6151 O 586.946 0.809056 -1.76544 0
M  V30 6152 C 584.076 1.05852 -3.30776 0
M  V30 6153 C 583.029 0.400503 -4.26122 0
M  V30 6154 C 582.356 1.49674 -5.13324 0
M  V30 6155 C 583.656 -0.688924 -5.17737 0
M  V30 6156 H 585.35 -0.668819 -2.91834 0
M  V30 6157 H 582.896 -0.32308 -1.40329 0
M  V30 6158 H 584.849 1.5541 -3.91696 0
M  V30 6159 H 583.572 1.82984 -2.70526 0
M  V30 6160 H 582.231 -0.0743687 -3.66525 0
M  V30 6161 H 581.88 2.25877 -4.49431 0
M  V30 6162 H 581.58 1.06188 -5.77926 0
M  V30 6163 H 583.104 1.99427 -5.77115 0
M  V30 6164 H 584.518 -0.276724 -5.72632 0
M  V30 6165 H 582.915 -1.04652 -5.90904 0
M  V30 6166 H 583.985 -1.55884 -4.5916 0
M  V30 6167 N 585.328 1.53329 -0.364422 0
M  V30 6168 C 586.258 2.28627 0.474543 0
M  V30 6169 C 587.239 1.31009 1.08492 0
M  V30 6170 O 588.424 1.59878 1.10239 0
M  V30 6171 C 585.554 3.07465 1.61501 0
M  V30 6172 C 584.508 4.1276 1.13194 0
M  V30 6173 C 583.834 4.79674 2.36255 0
M  V30 6174 C 585.134 5.21847 0.217507 0
M  V30 6175 H 586.828 2.99005 -0.153656 0
M  V30 6176 H 584.374 1.43803 -0.0753406 0
M  V30 6177 H 586.327 3.58889 2.20855 0
M  V30 6178 H 585.051 2.34775 2.27042 0
M  V30 6179 H 583.71 3.62281 0.56109 0
M  V30 6180 H 583.358 4.03557 3.00251 0
M  V30 6181 H 583.058 5.50827 2.04606 0
M  V30 6182 H 584.582 5.33892 2.96297 0
M  V30 6183 H 585.996 5.6878 0.718493 0
M  V30 6184 H 584.393 6.00099 -0.00806408 0
M  V30 6185 H 585.463 4.7921 -0.740653 0
M  V30 6186 N 586.806 0.0935595 1.57322 0
M  V30 6187 C 588.054 -0.569383 1.93913 0
M  V30 6188 C 588.375 -1.68817 0.976009 0
M  V30 6189 O 587.645 -1.9588 0.0278099 0
M  V30 6190 H 586.225 -0.21332 0.715894 0
M  V30 6191 H 588.887 0.156531 1.9427 0
M  V30 6192 H 587.983 -0.980577 2.96296 0
M  V30 6193 N 588.284 -1.56567 -0.180126 0
M  V30 6194 C 589.232 -1.96632 -1.24251 0
M  V30 6195 C 590.226 -0.853818 -1.46309 0
M  V30 6196 O 591.432 -1.0389 -1.46993 0
M  V30 6197 H 587.807 -0.625476 -0.417473 0
M  V30 6198 H 589.778 -2.85201 -0.877679 0
M  V30 6199 C 588.527 -2.33486 -2.57642 0
M  V30 6200 H 587.85 -3.18626 -2.4149 0
M  V30 6201 H 589.29 -2.65371 -3.30688 0
M  V30 6202 C 587.749 -1.17499 -3.15746 0
M  V30 6203 O 588.279 -0.457956 -3.99081 0
M  V30 6204 N 586.485 -0.94786 -2.74707 0
M  V30 6205 H 586.032 -1.53269 -2.07042 0
M  V30 6206 H 585.99 -0.173626 -3.1392 0
M  V30 6207 N 589.762 0.448376 -1.51087 0
M  V30 6208 C 590.712 1.54156 -1.67988 0
M  V30 6209 C 591.696 1.5178 -0.534015 0
M  V30 6210 O 592.888 1.58419 -0.789448 0
M  V30 6211 C 590.017 2.92437 -1.79822 0
M  V30 6212 C 589.103 2.99611 -3.00157 0
M  V30 6213 N 589.494 2.7655 -4.23502 0
M  V30 6214 C 587.792 3.30764 -2.99184 0
M  V30 6215 C 588.493 2.89281 -5.0467 0
M  V30 6216 N 587.469 3.20473 -4.39088 0
M  V30 6217 H 591.271 1.35061 -2.61028 0
M  V30 6218 H 588.785 0.655504 -1.48583 0
M  V30 6219 H 590.782 3.71068 -1.90037 0
M  V30 6220 H 589.442 3.1256 -0.879554 0
M  V30 6221 H 590.453 2.5169 -4.52628 0
M  V30 6222 H 587.13 3.56732 -2.16907 0
M  V30 6223 H 588.52 2.75499 -6.12821 0
M  V30 6224 N 591.24 1.41047 0.703093 0
M  V30 6225 C 592.203 1.42036 1.79884 0
M  V30 6226 C 593.203 0.312153 1.57741 0
M  V30 6227 O 594.393 0.571672 1.64553 0
M  V30 6228 C 591.525 1.22437 3.18154 0
M  V30 6229 H 592.718 2.39572 1.80403 0
M  V30 6230 H 590.271 1.27079 0.909977 0
M  V30 6231 H 591.006 0.257112 3.23279 0
M  V30 6232 H 590.791 2.02723 3.35627 0
M  V30 6233 H 592.281 1.25946 3.98155 0
M  V30 6234 N 592.718 -0.936591 1.26751 0
M  V30 6235 C 593.65 -2.03991 1.045 0
M  V30 6236 C 594.663 -1.628 0.00394261 0
M  V30 6237 O 595.852 -1.76817 0.244526 0
M  V30 6238 C 592.952 -3.34218 0.561403 0
M  V30 6239 C 592.125 -4.04151 1.67274 0
M  V30 6240 C 591.184 -5.12651 1.1864 0
M  V30 6241 O 590.21 -5.37104 1.88437 0
M  V30 6242 N 591.412 -5.80488 0.037278 0
M  V30 6243 H 594.177 -2.23644 1.99508 0
M  V30 6244 H 591.738 -1.10638 1.18198 0
M  V30 6245 H 593.73 -4.04101 0.220136 0
M  V30 6246 H 592.3 -3.11203 -0.295211 0
M  V30 6247 H 591.52 -3.28121 2.18472 0
M  V30 6248 H 592.808 -4.47626 2.41885 0
M  V30 6249 H 592.206 -5.63064 -0.545494 0
M  V30 6250 H 590.763 -6.5134 -0.244877 0
M  V30 6251 N 594.196 -1.08629 -1.14182 0
M  V30 6252 C 595.436 -0.826884 -1.86928 0
M  V30 6253 C 595.8 0.635808 -1.81167 0
M  V30 6254 O 597.001 1.0108 -2.49071 0
M  V30 6255 C 595.272 -1.33721 -3.31442 0
M  V30 6256 S 596.831 -1.21045 -4.21774 0
M  V30 6257 H 593.649 -0.299286 -0.644941 0
M  V30 6258 H 596.251 -1.38802 -1.37674 0
M  V30 6259 H 594.955 -2.39617 -3.33184 0
M  V30 6260 H 594.486 -0.771839 -3.85754 0
M  V30 6261 H 596.501 -0.156168 -4.95954 0
M  V30 6262 N 595.674 1.31259 -0.872281 0
M  V30 6263 C 597.085 1.78822 -0.536617 0
M  V30 6264 C 597.436 1.71855 0.946594 0
M  V30 6265 O 596.561 1.28769 1.73918 0
M  V30 6266 C 597.156 3.24698 -0.967294 0
M  V30 6267 C 595.715 3.70147 -0.683251 0
M  V30 6268 C 594.862 2.51994 -1.15733 0
M  V30 6269 H 597.813 1.18308 -1.05777 0
M  V30 6270 H 597.834 3.79386 -0.290929 0
M  V30 6271 H 597.346 3.29737 -2.04683 0
M  V30 6272 H 595.447 3.70607 0.384825 0
M  V30 6273 H 595.56 4.62183 -1.2619 0
M  V30 6274 H 593.924 2.48078 -0.577024 0
M  V30 6275 H 594.707 2.59778 -2.24434 0
M  V30 6276 N 597.152 0.631951 1.44375 0
M  V30 6277 C 598.382 0.143658 2.061 0
M  V30 6278 C 598.79 -1.18733 1.47306 0
M  V30 6279 O 598.133 -1.73943 0.590724 0
M  V30 6280 C 598.195 -0.0446102 3.59472 0
M  V30 6281 C 597.859 1.20835 4.40736 0
M  V30 6282 C 598.856 2.13224 4.74164 0
M  V30 6283 C 596.541 1.44399 4.81097 0
M  V30 6284 C 598.535 3.27487 5.46838 0
M  V30 6285 C 596.222 2.58959 5.53519 0
M  V30 6286 C 597.22 3.50329 5.86309 0
M  V30 6287 O 596.908 4.62891 6.57257 0
M  V30 6288 H 596.64 0.0772939 0.671567 0
M  V30 6289 H 599.194 0.866677 1.8622 0
M  V30 6290 H 597.424 -0.822783 3.77845 0
M  V30 6291 H 599.113 -0.487561 4.02961 0
M  V30 6292 H 599.879 1.96253 4.4352 0
M  V30 6293 H 595.758 0.741696 4.54994 0
M  V30 6294 H 599.302 3.98826 5.72349 0
M  V30 6295 H 595.199 2.75873 5.83579 0
M  V30 6296 H 595.967 4.61883 6.75726 0
M  V30 6297 N 598.631 -1.53133 0.372548 0
M  V30 6298 C 599.879 -2.00958 -0.214534 0
M  V30 6299 C 600.2 -1.26135 -1.48711 0
M  V30 6300 O 599.47 -0.376597 -1.92246 0
M  V30 6301 H 598.05 -0.742456 -0.0822664 0
M  V30 6302 H 600.712 -1.88367 0.500385 0
M  V30 6303 H 599.808 -3.09031 -0.436605 0
M  V30 6304 N 600.109 -0.101901 -1.5727 0
M  V30 6305 C 601.355 0.561027 -1.94885 0
M  V30 6306 C 601.688 1.6741 -0.984258 0
M  V30 6307 O 600.963 1.94491 -0.0184767 0
M  V30 6308 C 601.246 1.10982 -3.42571 0
M  V30 6309 C 601.099 0.00133418 -4.498 0
M  V30 6310 C 602.418 2.00608 -3.9172 0
M  V30 6311 H 599.537 0.202467 -0.708644 0
M  V30 6312 H 602.179 -0.173992 -1.89202 0
M  V30 6313 H 600.329 1.73621 -3.47546 0
M  V30 6314 H 602.001 -0.63322 -4.56933 0
M  V30 6315 H 600.244 -0.664143 -4.28686 0
M  V30 6316 H 600.915 0.426253 -5.50352 0
M  V30 6317 H 603.391 1.47864 -3.88941 0
M  V30 6318 H 602.267 2.3593 -4.95609 0
M  V30 6319 H 602.528 2.92608 -3.3141 0
M  V30 6320 N 601.587 1.56661 0.17182 0
M  V30 6321 C 602.517 1.99401 1.21498 0
M  V30 6322 C 603.498 0.869516 1.46197 0
M  V30 6323 O 604.683 1.13556 1.57539 0
M  V30 6324 C 601.813 2.35346 2.55401 0
M  V30 6325 C 600.767 3.5075 2.45272 0
M  V30 6326 C 600.093 3.72437 3.8366 0
M  V30 6327 C 601.393 4.84216 1.95787 0
M  V30 6328 H 603.087 2.86792 0.859699 0
M  V30 6329 H 600.633 1.37977 0.412103 0
M  V30 6330 H 602.586 2.63843 3.2858 0
M  V30 6331 H 601.31 1.44864 2.92715 0
M  V30 6332 H 599.969 3.2238 1.74547 0
M  V30 6333 H 599.617 2.79246 4.18367 0
M  V30 6334 H 599.317 4.50087 3.77751 0
M  V30 6335 H 600.841 4.03334 4.58426 0
M  V30 6336 H 602.255 5.11592 2.5874 0
M  V30 6337 H 600.652 5.65498 2.00827 0
M  V30 6338 H 601.722 4.76243 0.912159 0
M  V30 6339 N 603.065 -0.440357 1.51323 0
M  V30 6340 C 603.995 -1.54174 1.75364 0
M  V30 6341 C 604.976 -1.59039 0.603375 0
M  V30 6342 O 606.161 -1.74815 0.845774 0
M  V30 6343 C 603.291 -2.92277 1.87593 0
M  V30 6344 C 602.245 -3.02274 3.03009 0
M  V30 6345 C 601.571 -4.42327 3.00418 0
M  V30 6346 C 602.871 -2.76634 4.43024 0
M  V30 6347 H 604.565 -1.34307 2.67585 0
M  V30 6348 H 602.111 -0.644678 1.28763 0
M  V30 6349 H 604.064 -3.69284 2.02995 0
M  V30 6350 H 602.788 -3.13369 0.920179 0
M  V30 6351 H 601.447 -2.27706 2.87307 0
M  V30 6352 H 601.095 -4.60382 2.02626 0
M  V30 6353 H 600.795 -4.49946 3.77918 0
M  V30 6354 H 602.319 -5.21312 3.17909 0
M  V30 6355 H 603.733 -3.43376 4.59093 0
M  V30 6356 H 602.13 -2.95666 5.22208 0
M  V30 6357 H 603.2 -1.72262 4.5327 0
M  V30 6358 N 604.543 -1.41418 -0.695603 0
M  V30 6359 C 605.49 -1.43264 -1.80954 0
M  V30 6360 C 606.46 -0.287016 -1.63601 0
M  V30 6361 O 607.645 -0.488054 -1.84452 0
M  V30 6362 C 604.785 -1.32054 -3.18835 0
M  V30 6363 C 603.898 -2.56485 -3.4762 0
M  V30 6364 C 603.033 -2.3757 -4.75115 0
M  V30 6365 C 602.072 -3.57477 -4.96867 0
M  V30 6366 N 601.209 -3.37632 -6.15588 0
M  V30 6367 H 606.049 -2.38467 -1.78711 0
M  V30 6368 H 603.586 -1.18415 -0.872715 0
M  V30 6369 H 605.544 -1.23558 -3.98484 0
M  V30 6370 H 604.174 -0.404592 -3.20254 0
M  V30 6371 H 603.226 -2.75432 -2.62376 0
M  V30 6372 H 604.538 -3.45678 -3.59594 0
M  V30 6373 H 603.692 -2.2654 -5.62818 0
M  V30 6374 H 602.431 -1.45834 -4.65386 0
M  V30 6375 H 601.436 -3.68961 -4.07612 0
M  V30 6376 H 602.661 -4.50167 -5.08455 0
M  V30 6377 H 600.607 -2.48596 -6.07072 0
M  V30 6378 H 600.524 -4.20401 -6.2833 0
M  V30 6379 H 601.792 -3.30375 -7.06026 0
M  V30 6380 N 606.021 0.929856 -1.27246 0
M  V30 6381 C 607.249 1.71144 -1.16265 0
M  V30 6382 C 607.664 1.867 0.280786 0
M  V30 6383 O 607.021 1.38249 1.19136 0
M  V30 6384 C 607.072 3.11222 -1.83911 0
M  V30 6385 O 606.793 2.96398 -3.22614 0
M  V30 6386 C 608.294 4.05541 -1.79028 0
M  V30 6387 H 605.514 0.535499 -0.404328 0
M  V30 6388 H 608.058 1.16492 -1.68077 0
M  V30 6389 H 606.213 3.6274 -1.36009 0
M  V30 6390 H 606.627 3.8494 -3.56261 0
M  V30 6391 H 608.101 5.01351 -2.30978 0
M  V30 6392 H 608.578 4.32589 -0.759168 0
M  V30 6393 H 609.184 3.59947 -2.26535 0
M  V30 6394 N 607.499 1.09233 1.13605 0
M  V30 6395 C 608.449 0.6994 2.17008 0
M  V30 6396 C 609.433 -0.285238 1.58352 0
M  V30 6397 O 610.625 -0.09592 1.7674 0
M  V30 6398 C 607.754 0.11938 3.43092 0
M  V30 6399 C 606.84 1.13031 4.0876 0
M  V30 6400 N 607.231 2.31673 4.49623 0
M  V30 6401 C 605.529 0.967999 4.35369 0
M  V30 6402 C 606.23 2.95964 5.00779 0
M  V30 6403 N 605.206 2.23534 4.95513 0
M  V30 6404 H 609.008 1.60272 2.46354 0
M  V30 6405 H 606.522 0.968257 1.30378 0
M  V30 6406 H 608.519 -0.180122 4.16511 0
M  V30 6407 H 607.179 -0.778816 3.15221 0
M  V30 6408 H 608.19 2.69277 4.42391 0
M  V30 6409 H 604.867 0.124319 4.17315 0
M  V30 6410 H 606.257 3.96813 5.42208 0
M  V30 6411 N 608.977 -1.30795 0.87923 0
M  V30 6412 C 610.217 -1.98155 0.50141 0
M  V30 6413 C 610.581 -1.67925 -0.930863 0
M  V30 6414 O 611.782 -2.28572 -1.41451 0
M  V30 6415 C 610.053 -3.49184 0.761937 0
M  V30 6416 S 611.612 -4.36107 0.485361 0
M  V30 6417 H 608.43 -0.686025 0.186792 0
M  V30 6418 H 611.032 -1.59018 1.13726 0
M  V30 6419 H 609.736 -3.68676 1.80295 0
M  V30 6420 H 609.267 -3.93236 0.113432 0
M  V30 6421 H 611.282 -4.9154 -0.678467 0
M  V30 6422 N 610.455 -0.639598 -1.44038 0
M  V30 6423 C 611.866 -0.228866 -1.85292 0
M  V30 6424 C 612.217 1.22161 -1.53529 0
M  V30 6425 O 611.342 1.93064 -0.977518 0
M  V30 6426 C 611.937 -0.408592 -3.36327 0
M  V30 6427 C 610.496 -0.0522953 -3.76364 0
M  V30 6428 C 609.643 -0.717959 -2.67844 0
M  V30 6429 H 612.594 -0.844194 -1.34384 0
M  V30 6430 H 612.615 0.349968 -3.78887 0
M  V30 6431 H 612.127 -1.46435 -3.59414 0
M  V30 6432 H 610.228 1.0014 -3.58891 0
M  V30 6433 H 610.341 -0.468261 -4.76806 0
M  V30 6434 H 608.705 -0.152459 -2.54243 0
M  V30 6435 H 609.488 -1.77648 -2.93762 0
M  V30 6436 N 611.933 1.52934 -0.380664 0
M  V30 6437 C 612.863 2.29118 0.450268 0
M  V30 6438 C 613.844 1.32153 1.07096 0
M  V30 6439 O 615.029 1.61038 1.08537 0
M  V30 6440 C 612.159 3.09161 1.58231 0
M  V30 6441 C 611.113 4.13938 1.0881 0
M  V30 6442 C 610.439 4.82153 2.31155 0
M  V30 6443 C 611.739 5.22048 0.162146 0
M  V30 6444 H 613.433 2.98826 -0.185361 0
M  V30 6445 H 610.979 1.43715 -0.0905886 0
M  V30 6446 H 612.932 3.61211 2.17036 0
M  V30 6447 H 611.656 2.3717 2.2454 0
M  V30 6448 H 610.315 3.62855 0.522633 0
M  V30 6449 H 609.963 4.06719 2.95953 0
M  V30 6450 H 609.663 5.52966 1.98752 0
M  V30 6451 H 611.187 5.37004 2.90618 0
M  V30 6452 H 612.601 5.6951 0.658126 0
M  V30 6453 H 610.998 6.00057 -0.0717122 0
M  V30 6454 H 612.068 4.78398 -0.791438 0
M  V30 6455 N 613.412 0.11024 1.57214 0
M  V30 6456 C 614.828 -0.24638 1.57687 0
M  V30 6457 C 615.028 -1.67344 1.12241 0
M  V30 6458 O 614.084 -2.39298 0.805783 0
M  V30 6459 C 615.397 -0.0210288 3.00693 0
M  V30 6460 C 616.945 -0.0876077 3.12877 0
M  V30 6461 C 617.42 0.10994 4.57868 0
M  V30 6462 N 618.911 0.0556135 4.63167 0
M  V30 6463 C 619.646 0.183495 5.73106 0
M  V30 6464 N 619.142 0.367058 6.91827 0
M  V30 6465 N 620.935 0.123689 5.61964 0
M  V30 6466 H 613.086 1.04246 1.85058 0
M  V30 6467 H 615.349 0.40979 0.854854 0
M  V30 6468 H 615.055 0.965203 3.38196 0
M  V30 6469 H 614.929 -0.756748 3.69531 0
M  V30 6470 H 617.316 -1.06436 2.75237 0
M  V30 6471 H 617.397 0.67985 2.466 0
M  V30 6472 H 617.041 1.08362 4.96206 0
M  V30 6473 H 616.971 -0.677397 5.22225 0
M  V30 6474 H 619.462 -0.0831062 3.77809 0
M  V30 6475 H 619.775 0.455739 7.71455 0
M  V30 6476 H 618.12 0.40292 6.93831 0
M  V30 6477 H 621.311 -0.0186928 4.68096 0
M  V30 6478 H 621.484 0.226797 6.47603 0
M  V30 6479 N 614.89 -1.56749 -0.16351 0
M  V30 6480 C 615.853 -1.96121 -1.18613 0
M  V30 6481 C 616.853 -0.845765 -1.36761 0
M  V30 6482 O 618.043 -1.11268 -1.34033 0
M  V30 6483 C 615.175 -2.26282 -2.54969 0
M  V30 6484 H 616.368 -2.87639 -0.848764 0
M  V30 6485 H 613.921 -1.50928 -0.406251 0
M  V30 6486 H 614.656 -1.37504 -2.93706 0
M  V30 6487 H 614.441 -3.07595 -2.43162 0
M  V30 6488 H 615.931 -2.57638 -3.28653 0
M  V30 6489 N 616.368 0.432326 -1.51554 0
M  V30 6490 C 617.331 1.50765 -1.72634 0
M  V30 6491 C 618.331 1.49334 -0.596314 0
M  V30 6492 O 619.521 1.51268 -0.863925 0
M  V30 6493 C 616.653 2.90284 -1.7874 0
M  V30 6494 H 617.846 1.33377 -2.68609 0
M  V30 6495 H 615.399 0.661329 -1.4162 0
M  V30 6496 H 616.134 3.13071 -0.845977 0
M  V30 6497 H 615.919 2.92727 -2.6087 0
M  V30 6498 H 617.409 3.68282 -1.96871 0
M  V30 6499 N 617.846 1.41785 0.688094 0
M  V30 6500 C 619.092 1.41753 1.4503 0
M  V30 6501 C 619.425 0.0290745 1.94178 0
M  V30 6502 O 618.7 -0.944456 1.7003 0
M  V30 6503 C 618.983 2.43069 2.65686 0
M  V30 6504 C 618.836 3.91053 2.22256 0
M  V30 6505 C 620.155 2.41543 3.67893 0
M  V30 6506 H 617.274 0.516202 0.526027 0
M  V30 6507 H 619.916 1.73111 0.783105 0
M  V30 6508 H 618.066 2.1646 3.2261 0
M  V30 6509 H 619.738 4.28594 1.70602 0
M  V30 6510 H 617.981 4.05559 1.53963 0
M  V30 6511 H 618.652 4.57501 3.08863 0
M  V30 6512 H 621.128 2.65175 3.20658 0
M  V30 6513 H 620.004 3.14434 4.49914 0
M  V30 6514 H 620.265 1.43666 4.18106 0
M  V30 6515 N 619.324 -0.923095 1.27737 0
M  V30 6516 C 620.552 -1.70525 1.17171 0
M  V30 6517 C 620.967 -1.86847 -0.270881 0
M  V30 6518 O 620.324 -1.38879 -1.18401 0
M  V30 6519 C 620.375 -3.10242 1.85559 0
M  V30 6520 O 620.096 -2.94683 3.24182 0
M  V30 6521 C 621.597 -4.04586 1.81176 0
M  V30 6522 H 618.817 -0.533347 0.407163 0
M  V30 6523 H 621.361 -1.15599 1.68692 0
M  V30 6524 H 619.516 -3.62014 1.3793 0
M  V30 6525 H 619.93 -3.83045 3.58297 0
M  V30 6526 H 621.404 -5.00119 2.33633 0
M  V30 6527 H 621.881 -4.3218 0.782099 0
M  V30 6528 H 622.487 -3.58741 2.2844 0
M  V30 6529 N 620.802 -1.09834 -1.13024 0
M  V30 6530 C 622.213 -0.855651 -1.65938 0
M  V30 6531 C 622.564 0.615159 -1.86307 0
M  V30 6532 O 621.689 1.47335 -1.58497 0
M  V30 6533 C 622.284 -1.5467 -3.01434 0
M  V30 6534 C 620.843 -1.35088 -3.51323 0
M  V30 6535 C 619.99 -1.6001 -2.26478 0
M  V30 6536 H 622.941 -1.25691 -0.968889 0
M  V30 6537 H 622.962 -0.982179 -3.67605 0
M  V30 6538 H 622.474 -2.61715 -2.86578 0
M  V30 6539 H 620.575 -0.30179 -3.71376 0
M  V30 6540 H 620.688 -2.0886 -4.31178 0
M  V30 6541 H 619.052 -1.02246 -2.33276 0
M  V30 6542 H 619.835 -2.68293 -2.14182 0
M  V30 6543 N 622.28 1.30327 -0.886154 0
M  V30 6544 C 623.243 2.26376 -0.358687 0
M  V30 6545 C 624.243 1.52845 0.499498 0
M  V30 6546 O 625.433 1.71483 0.306485 0
M  V30 6547 C 622.565 3.37379 0.488726 0
M  V30 6548 H 623.758 2.74547 -1.20681 0
M  V30 6549 H 621.311 1.41536 -0.663113 0
M  V30 6550 H 622.046 2.94526 1.35739 0
M  V30 6551 H 621.831 3.91897 -0.126003 0
M  V30 6552 H 623.321 4.08868 0.84952 0
M  V30 6553 N 623.758 0.647228 1.43697 0
M  V30 6554 C 624.721 -0.0385101 2.29168 0
M  V30 6555 C 625.721 -0.756487 1.41894 0
M  V30 6556 O 626.911 -0.598641 1.63591 0
M  V30 6557 C 624.043 -1.06524 3.23829 0
M  V30 6558 H 625.236 0.713445 2.9129 0
M  V30 6559 H 622.789 0.408153 1.50877 0
M  V30 6560 H 623.524 -1.84664 2.66589 0
M  V30 6561 H 623.309 -0.554147 3.88164 0
M  V30 6562 H 624.799 -1.54432 3.87996 0
M  V30 6563 N 625.236 -1.5273 0.388769 0
M  V30 6564 C 626.484 -2.01174 -0.193208 0
M  V30 6565 C 626.805 -1.27705 -1.47365 0
M  V30 6566 O 626.075 -0.396966 -1.91836 0
M  V30 6567 H 624.655 -0.743287 -0.0743871 0
M  V30 6568 H 627.317 -1.87826 0.520336 0
M  V30 6569 H 626.413 -3.09477 -0.403803 0
M  V30 6570 N 626.714 -0.118576 -1.57153 0
M  V30 6571 C 627.96 0.540326 -1.95469 0
M  V30 6572 C 628.293 1.66356 -1.00196 0
M  V30 6573 O 627.568 1.94461 -0.039104 0
M  V30 6574 C 627.851 1.07342 -3.43729 0
M  V30 6575 C 627.704 -0.0463732 -4.49776 0
M  V30 6576 C 629.023 1.96442 -3.93826 0
M  V30 6577 H 626.142 0.19494 -0.710751 0
M  V30 6578 H 628.784 -0.19405 -1.89006 0
M  V30 6579 H 626.934 1.69925 -3.49368 0
M  V30 6580 H 628.606 -0.681648 -4.56236 0
M  V30 6581 H 626.849 -0.709574 -4.27957 0
M  V30 6582 H 627.52 0.367856 -5.50773 0
M  V30 6583 H 629.996 1.43731 -3.90488 0
M  V30 6584 H 628.872 2.3066 -4.98084 0
M  V30 6585 H 629.133 2.89077 -3.34495 0
M  V30 6586 N 628.193 1.56834 0.155195 0
M  V30 6587 C 629.433 1.84701 0.875488 0
M  V30 6588 C 629.797 0.701747 1.78716 0
M  V30 6589 O 630.998 0.861263 2.54629 0
M  V30 6590 C 629.269 3.1773 1.63654 0
M  V30 6591 S 630.828 3.67128 2.40338 0
M  V30 6592 H 627.646 0.647856 0.292923 0
M  V30 6593 H 630.248 1.95026 0.136024 0
M  V30 6594 H 628.952 3.99059 0.958117 0
M  V30 6595 H 628.483 3.10388 2.41708 0
M  V30 6596 H 630.498 3.35739 3.65368 0
M  V30 6597 N 629.671 -0.424282 1.51781 0
M  V30 6598 C 630.634 -1.49848 1.73431 0
M  V30 6599 C 631.634 -1.49016 0.604225 0
M  V30 6600 O 632.824 -1.50808 0.871935 0
M  V30 6601 C 629.956 -2.89332 1.80277 0
M  V30 6602 H 631.149 -1.3195 2.69312 0
M  V30 6603 H 628.702 -0.653809 1.41968 0
M  V30 6604 H 629.437 -3.12618 0.862568 0
M  V30 6605 H 629.222 -2.9134 2.62419 0
M  V30 6606 H 630.712 -3.67233 1.98821 0
M  V30 6607 N 631.149 -1.42148 -0.680565 0
M  V30 6608 C 632.565 -1.24947 -0.992995 0
M  V30 6609 C 632.765 -0.149527 -2.00944 0
M  V30 6610 O 631.821 0.481145 -2.47873 0
M  V30 6611 C 633.134 -2.60426 -1.5033 0
M  V30 6612 C 634.682 -2.67733 -1.62137 0
M  V30 6613 C 635.157 -4.03564 -2.16565 0
M  V30 6614 N 636.648 -4.05488 -2.23905 0
M  V30 6615 C 637.383 -5.07401 -2.67081 0
M  V30 6616 N 636.879 -6.19698 -3.09751 0
M  V30 6617 N 638.672 -4.94758 -2.66778 0
M  V30 6618 H 630.823 -2.12399 -0.0074788 0
M  V30 6619 H 633.086 -0.94571 -0.0658529 0
M  V30 6620 H 632.792 -3.41743 -0.830947 0
M  V30 6621 H 632.666 -2.83949 -2.483 0
M  V30 6622 H 635.053 -1.86765 -2.2848 0
M  V30 6623 H 635.134 -2.48004 -0.626713 0
M  V30 6624 H 634.778 -4.84987 -1.50833 0
M  V30 6625 H 634.708 -4.20641 -3.1681 0
M  V30 6626 H 637.199 -3.24415 -1.93812 0
M  V30 6627 H 637.512 -6.93318 -3.41365 0
M  V30 6628 H 635.857 -6.23212 -3.07623 0
M  V30 6629 H 639.048 -4.06105 -2.32801 0
M  V30 6630 H 639.221 -5.74317 -3.00107 0
M  V30 6631 N 632.627 0.916307 -1.28225 0
M  V30 6632 C 633.537 2.05165 -1.13775 0
M  V30 6633 C 634.553 1.73879 -0.0649418 0
M  V30 6634 O 635.729 1.99531 -0.273722 0
M  V30 6635 C 632.794 3.37385 -0.798267 0
M  V30 6636 C 631.855 3.82296 -1.95316 0
M  V30 6637 C 631.088 5.08206 -1.62978 0
M  V30 6638 O 631.311 5.6781 -0.542948 0
M  V30 6639 O 630.245 5.48768 -2.47261 0
M  V30 6640 H 634.071 2.20273 -2.09078 0
M  V30 6641 H 631.656 1.0373 -1.07519 0
M  V30 6642 H 633.538 4.16773 -0.62278 0
M  V30 6643 H 632.213 3.23458 0.125139 0
M  V30 6644 H 631.12 3.03746 -2.18378 0
M  V30 6645 H 632.453 4.00782 -2.85718 0
M  V30 6646 N 634.105 1.10431 1.1244 0
M  V30 6647 C 635.052 0.753103 2.18167 0
M  V30 6648 C 636.022 -0.270549 1.63882 0
M  V30 6649 O 637.207 -0.149837 1.90211 0
M  V30 6650 C 634.347 0.191046 3.44571 0
M  V30 6651 C 633.46 1.26999 4.12911 0
M  V30 6652 C 632.595 0.669586 5.26963 0
M  V30 6653 C 631.634 1.72912 5.87169 0
M  V30 6654 N 630.771 1.14898 6.92635 0
M  V30 6655 H 635.611 1.65892 2.47556 0
M  V30 6656 H 633.148 0.828631 1.21541 0
M  V30 6657 H 635.106 -0.152712 4.1692 0
M  V30 6658 H 633.736 -0.677997 3.15599 0
M  V30 6659 H 632.788 1.73087 3.3874 0
M  V30 6660 H 634.1 2.07204 4.53727 0
M  V30 6661 H 633.254 0.275274 6.06075 0
M  V30 6662 H 631.993 -0.163895 4.87425 0
M  V30 6663 H 630.998 2.13286 5.06744 0
M  V30 6664 H 632.223 2.56544 6.28778 0
M  V30 6665 H 630.169 0.336956 6.55134 0
M  V30 6666 H 630.086 1.88786 7.32049 0
M  V30 6667 H 631.354 0.78121 7.75576 0
M  V30 6668 N 635.583 -1.29855 0.893053 0
M  V30 6669 C 636.994 -1.77946 0.564998 0
M  V30 6670 C 637.345 -1.73339 -0.919134 0
M  V30 6671 O 636.47 -1.3152 -1.71847 0
M  V30 6672 C 637.065 -3.23118 1.01883 0
M  V30 6673 C 635.624 -3.69013 0.742051 0
M  V30 6674 C 634.771 -2.50121 1.19727 0
M  V30 6675 H 637.722 -1.16611 1.07646 0
M  V30 6676 H 637.743 -3.78875 0.351249 0
M  V30 6677 H 637.255 -3.26439 2.09903 0
M  V30 6678 H 635.356 -3.71173 -0.325816 0
M  V30 6679 H 635.469 -4.60117 1.33527 0
M  V30 6680 H 633.833 -2.47128 0.616418 0
M  V30 6681 H 634.616 -2.56174 2.28538 0
M  V30 6682 N 637.061 -0.65484 -1.43351 0
M  V30 6683 C 637.993 0.0744757 -2.29079 0
M  V30 6684 C 639.006 0.7855 -1.42596 0
M  V30 6685 O 640.195 0.642986 -1.66517 0
M  V30 6686 C 637.295 1.12859 -3.19556 0
M  V30 6687 C 636.468 0.495381 -4.34586 0
M  V30 6688 C 635.527 1.44659 -5.05925 0
M  V30 6689 O 634.553 0.954567 -5.61139 0
M  V30 6690 N 635.755 2.78051 -5.09576 0
M  V30 6691 H 638.52 -0.661346 -2.92312 0
M  V30 6692 H 636.081 -0.497744 -1.54059 0
M  V30 6693 H 638.073 1.76577 -3.64147 0
M  V30 6694 H 636.643 1.76636 -2.57912 0
M  V30 6695 H 635.863 -0.32092 -3.92892 0
M  V30 6696 H 637.151 0.0534203 -5.08772 0
M  V30 6697 H 636.549 3.20584 -4.66093 0
M  V30 6698 H 635.106 3.37068 -5.57878 0
M  V30 6699 N 638.539 1.52521 -0.396863 0
M  V30 6700 C 639.787 2.01274 0.182536 0
M  V30 6701 C 640.108 1.28485 1.46685 0
M  V30 6702 O 639.378 0.407134 1.91623 0
M  V30 6703 H 637.958 0.743671 0.0704442 0
M  V30 6704 H 640.62 1.87547 -0.530289 0
M  V30 6705 H 639.716 3.09687 0.387385 0
M  V30 6706 N 640.017 0.126909 1.57088 0
M  V30 6707 C 641.242 -0.53997 2.00248 0
M  V30 6708 C 641.667 -1.58927 1.00618 0
M  V30 6709 O 641.025 -1.81288 -0.0210131 0
M  V30 6710 C 641.073 -1.13565 3.4225 0
M  V30 6711 O 640.177 -2.25103 3.45547 0
M  V30 6712 H 639.518 -0.13412 0.650314 0
M  V30 6713 H 642.048 0.217718 2.03438 0
M  V30 6714 H 642.058 -1.46925 3.80627 0
M  V30 6715 H 640.733 -0.367122 4.14277 0
M  V30 6716 H 639.31 -1.93123 3.18995 0
M  V30 6717 N 641.495 -1.56914 -0.146875 0
M  V30 6718 C 642.741 -1.83628 -0.860741 0
M  V30 6719 C 643.074 -0.708528 -1.80813 0
M  V30 6720 O 642.349 0.287838 -1.92358 0
M  V30 6721 C 642.632 -3.20836 -1.63511 0
M  V30 6722 C 642.485 -4.44174 -0.709199 0
M  V30 6723 C 643.804 -3.55268 -2.59756 0
M  V30 6724 H 640.923 -0.667949 -0.311468 0
M  V30 6725 H 643.565 -1.89582 -0.125936 0
M  V30 6726 H 641.715 -3.15891 -2.26153 0
M  V30 6727 H 643.387 -4.61205 -0.0937781 0
M  V30 6728 H 641.63 -4.33796 -0.0187856 0
M  V30 6729 H 642.301 -5.36785 -1.28707 0
M  V30 6730 H 644.777 -3.60824 -2.07232 0
M  V30 6731 H 643.653 -4.52303 -3.10987 0
M  V30 6732 H 643.914 -2.81231 -3.41118 0
M  V30 6733 N 642.974 0.416227 -1.52004 0
M  V30 6734 C 643.937 1.48926 -1.74223 0
M  V30 6735 C 644.937 1.48693 -0.612119 0
M  V30 6736 O 646.127 1.50343 -0.879921 0
M  V30 6737 C 643.259 2.88372 -1.81809 0
M  V30 6738 H 644.452 1.3052 -2.70008 0
M  V30 6739 H 642.005 0.646271 -1.42313 0
M  V30 6740 H 642.74 3.12157 -0.879135 0
M  V30 6741 H 642.525 2.89944 -2.6396 0
M  V30 6742 H 644.015 3.66173 -2.00766 0
M  V30 6743 N 644.452 1.42507 0.673017 0
M  V30 6744 C 645.415 1.4582 1.76831 0
M  V30 6745 C 646.415 0.345542 1.57043 0
M  V30 6746 O 647.605 0.606447 1.63303 0
M  V30 6747 C 644.737 1.29158 3.15485 0
M  V30 6748 H 645.93 2.43345 1.7528 0
M  V30 6749 H 643.483 1.28981 0.882817 0
M  V30 6750 H 644.218 0.325626 3.22661 0
M  V30 6751 H 644.003 2.09797 3.31252 0
M  V30 6752 H 645.493 1.34363 3.95394 0
M  V30 6753 N 645.93 -0.909495 1.28709 0
M  V30 6754 C 647.341 -1.47419 1.14563 0
M  V30 6755 C 647.692 -1.94432 -0.262832 0
M  V30 6756 O 646.817 -1.82842 -1.15748 0
M  V30 6757 C 647.412 -2.67933 2.07358 0
M  V30 6758 C 645.971 -3.20568 1.97264 0
M  V30 6759 C 645.118 -1.93269 1.98852 0
M  V30 6760 H 648.069 -0.721787 1.41336 0
M  V30 6761 H 648.09 -3.43339 1.64007 0
M  V30 6762 H 647.602 -2.33685 3.09859 0
M  V30 6763 H 645.703 -3.59531 0.978157 0
M  V30 6764 H 645.816 -3.85529 2.84436 0
M  V30 6765 H 644.18 -2.10553 1.43317 0
M  V30 6766 H 644.963 -1.61312 3.0304 0
M  V30 6767 N 647.408 -1.11026 -1.11852 0
M  V30 6768 C 648.318 -0.777252 -2.2135 0
M  V30 6769 C 649.334 0.227821 -1.72502 0
M  V30 6770 O 650.51 0.0650587 -2.01295 0
M  V30 6771 C 647.575 -0.220668 -3.45997 0
M  V30 6772 C 646.636 -1.2838 -4.09655 0
M  V30 6773 C 645.869 -0.753678 -5.28352 0
M  V30 6774 O 646.092 0.417779 -5.68868 0
M  V30 6775 O 645.026 -1.51647 -5.82483 0
M  V30 6776 H 648.852 -1.69141 -2.5224 0
M  V30 6777 H 646.437 -0.885836 -1.20305 0
M  V30 6778 H 648.319 0.0855756 -4.21313 0
M  V30 6779 H 646.994 0.666262 -3.16769 0
M  V30 6780 H 645.901 -1.64299 -3.3609 0
M  V30 6781 H 647.234 -2.14396 -4.43052 0
M  V30 6782 N 648.886 1.2938 -0.899927 0
M  V30 6783 C 649.796 2.31462 -0.382437 0
M  V30 6784 C 650.812 1.65956 0.522929 0
M  V30 6785 O 651.988 1.97131 0.412454 0
M  V30 6786 C 649.053 3.44595 0.381472 0
M  V30 6787 C 648.114 4.25692 -0.555444 0
M  V30 6788 C 647.347 5.33422 0.172102 0
M  V30 6789 O 647.57 5.53053 1.396 0
M  V30 6790 O 646.504 5.99939 -0.485491 0
M  V30 6791 H 650.33 2.77706 -1.22934 0
M  V30 6792 H 647.915 1.33821 -0.664259 0
M  V30 6793 H 649.797 4.13474 0.813442 0
M  V30 6794 H 648.472 3.00458 1.20443 0
M  V30 6795 H 647.379 3.59453 -1.03653 0
M  V30 6796 H 648.712 4.73471 -1.34483 0
M  V30 6797 N 650.364 0.662433 1.43002 0
M  V30 6798 C 651.274 -0.0239199 2.34588 0
M  V30 6799 C 652.29 -0.802255 1.54402 0
M  V30 6800 O 653.466 -0.747401 1.87018 0
M  V30 6801 C 650.531 -0.972098 3.32793 0
M  V30 6802 C 649.592 -0.189673 4.28881 0
M  V30 6803 C 648.825 -1.09269 5.22395 0
M  V30 6804 O 649.048 -2.33209 5.20547 0
M  V30 6805 O 647.982 -0.560136 5.99288 0
M  V30 6806 H 651.808 0.730171 2.94792 0
M  V30 6807 H 649.393 0.422635 1.43297 0
M  V30 6808 H 651.275 -1.51676 3.93157 0
M  V30 6809 H 649.95 -1.70626 2.75079 0
M  V30 6810 H 648.857 0.398794 3.71968 0
M  V30 6811 H 650.19 0.50511 4.89601 0
M  V30 6812 N 651.842 -1.52309 0.404946 0
M  V30 6813 C 653.119 -1.94237 -0.230544 0
M  V30 6814 C 653.499 -1.34154 -1.6299 0
M  V30 6815 O 652.847 -0.515713 -2.22604 0
M  V30 6816 C 653.057 -3.48166 -0.241106 0
M  V30 6817 C 654.405 -4.22074 -0.462488 0
M  V30 6818 O 655.429 -3.54754 -0.320644 0
M  V30 6819 O 654.288 -5.41443 -0.741708 0
M  V30 6820 H 651.382 -0.813766 -0.147358 0
M  V30 6821 H 653.928 -1.6333 0.460587 0
M  V30 6822 H 652.7 -3.84269 0.738467 0
M  V30 6823 H 652.323 -3.85422 -0.97651 0
M  V30 6824 N 653.32 -0.135238 -1.57019 0
M  V30 6825 C 654.548 0.526066 -2.001 0
M  V30 6826 C 654.963 1.59184 -1.01519 0
M  V30 6827 O 654.32 1.82497 -0.0104258 0
M  V30 6828 C 654.371 1.13744 -3.43139 0
M  V30 6829 O 654.092 0.114259 -4.37951 0
M  V30 6830 C 655.593 1.8805 -4.01438 0
M  V30 6831 H 652.813 0.137962 -0.656664 0
M  V30 6832 H 655.357 -0.226359 -2.03243 0
M  V30 6833 H 653.512 1.84056 -3.40885 0
M  V30 6834 H 653.926 0.56058 -5.21496 0
M  V30 6835 H 655.4 2.26133 -5.03555 0
M  V30 6836 H 655.877 2.76194 -3.41487 0
M  V30 6837 H 656.483 1.22464 -4.07287 0
M  V30 6838 N 654.798 1.5699 0.138552 0
M  V30 6839 C 656.075 1.74741 0.87891 0
M  V30 6840 C 656.455 0.705522 1.98961 0
M  V30 6841 O 655.803 -0.274066 2.2685 0
M  V30 6842 C 656.013 3.1909 1.4136 0
M  V30 6843 C 657.361 3.81023 1.87368 0
M  V30 6844 O 658.385 3.22571 1.51084 0
M  V30 6845 O 657.244 4.83722 2.54312 0
M  V30 6846 H 654.338 0.714781 0.415953 0
M  V30 6847 H 656.884 1.69248 0.123817 0
M  V30 6848 H 655.656 3.86424 0.61579 0
M  V30 6849 H 655.279 3.29043 2.23196 0
M  V30 6850 N 656.276 -0.40816 1.52223 0
M  V30 6851 C 657.687 -0.986929 1.58482 0
M  V30 6852 C 658.038 -1.91521 0.425917 0
M  V30 6853 O 657.163 -2.11593 -0.453593 0
M  V30 6854 C 657.758 -1.7967 2.87235 0
M  V30 6855 C 656.317 -2.32549 2.9597 0
M  V30 6856 C 655.464 -1.12558 2.53428 0
M  V30 6857 H 658.415 -0.188362 1.57578 0
M  V30 6858 H 658.436 -2.65417 2.72642 0
M  V30 6859 H 657.948 -1.12082 3.71563 0
M  V30 6860 H 656.049 -3.03505 2.16137 0
M  V30 6861 H 656.162 -2.63348 4.00231 0
M  V30 6862 H 654.526 -1.47984 2.07299 0
M  V30 6863 H 655.309 -0.465351 3.40131 0
M  V30 6864 N 657.755 -1.42862 -0.66545 0
M  V30 6865 C 659.171 -1.25993 -0.979687 0
M  V30 6866 C 659.371 -0.170831 -2.00775 0
M  V30 6867 O 658.427 0.454827 -2.4837 0
M  V30 6868 C 659.74 -2.62005 -1.47559 0
M  V30 6869 C 661.288 -2.69437 -1.59288 0
M  V30 6870 C 661.763 -4.05838 -2.12272 0
M  V30 6871 N 663.254 -4.0784 -2.19592 0
M  V30 6872 C 663.989 -5.10205 -2.61684 0
M  V30 6873 N 663.485 -6.22949 -3.03161 0
M  V30 6874 N 665.278 -4.9756 -2.61516 0
M  V30 6875 H 657.429 -2.12395 0.0150493 0
M  V30 6876 H 659.692 -0.946355 -0.0558187 0
M  V30 6877 H 659.398 -3.42605 -0.794654 0
M  V30 6878 H 659.272 -2.86566 -2.45275 0
M  V30 6879 H 661.659 -1.89178 -2.26486 0
M  V30 6880 H 661.74 -2.48655 -0.600374 0
M  V30 6881 H 661.384 -4.86559 -1.4568 0
M  V30 6882 H 661.314 -4.23977 -3.12331 0
M  V30 6883 H 663.805 -3.26452 -1.90361 0
M  V30 6884 H 664.118 -6.96899 -3.33993 0
M  V30 6885 H 662.463 -6.2644 -3.00995 0
M  V30 6886 H 665.654 -4.08551 -2.28481 0
M  V30 6887 H 665.827 -5.77468 -2.93999 0
M  V30 6888 N 659.233 0.902656 -1.29189 0
M  V30 6889 C 660.649 1.18296 -1.07137 0
M  V30 6890 C 660.849 2.00701 0.179223 0
M  V30 6891 O 659.905 2.3675 0.877812 0
M  V30 6892 C 661.218 1.90677 -2.32514 0
M  V30 6893 C 662.766 2.03515 -2.37804 0
M  V30 6894 C 663.241 2.79307 -3.62976 0
M  V30 6895 N 664.732 2.86862 -3.63681 0
M  V30 6896 C 665.467 3.46035 -4.57217 0
M  V30 6897 N 664.963 4.06399 -5.61081 0
M  V30 6898 N 666.756 3.43681 -4.44792 0
M  V30 6899 H 658.907 0.352765 -2.0945 0
M  V30 6900 H 661.17 0.21876 -0.922414 0
M  V30 6901 H 660.876 1.3756 -3.23682 0
M  V30 6902 H 660.75 2.91169 -2.39793 0
M  V30 6903 H 663.137 2.55809 -1.47125 0
M  V30 6904 H 663.218 1.02166 -2.34512 0
M  V30 6905 H 662.862 2.2769 -4.54004 0
M  V30 6906 H 662.792 3.80995 -3.63525 0
M  V30 6907 H 665.283 2.43987 -2.88581 0
M  V30 6908 H 665.596 4.49564 -6.2858 0
M  V30 6909 H 663.941 4.0487 -5.64894 0
M  V30 6910 H 667.132 2.9574 -3.62843 0
M  V30 6911 H 667.305 3.89503 -5.17872 0
M  V30 6912 N 660.711 1.11618 1.11262 0
M  V30 6913 C 661.641 0.79846 2.19424 0
M  V30 6914 C 662.622 -0.234003 1.68483 0
M  V30 6915 O 663.807 -0.0970704 1.93957 0
M  V30 6916 C 660.937 0.242892 3.4645 0
M  V30 6917 C 659.891 1.20744 4.10615 0
M  V30 6918 C 659.217 0.512494 5.32238 0
M  V30 6919 C 660.517 2.55884 4.55325 0
M  V30 6920 H 662.211 1.70286 2.46258 0
M  V30 6921 H 659.757 0.820195 1.18359 0
M  V30 6922 H 661.71 0.00840447 4.21399 0
M  V30 6923 H 660.434 -0.696811 3.1908 0
M  V30 6924 H 659.093 1.42759 3.37662 0
M  V30 6925 H 658.741 -0.432075 5.01141 0
M  V30 6926 H 658.441 1.15583 5.7612 0
M  V30 6927 H 659.965 0.286842 6.09926 0
M  V30 6928 H 661.379 2.37946 5.21588 0
M  V30 6929 H 659.776 3.16216 5.10027 0
M  V30 6930 H 660.846 3.14968 3.68678 0
M  V30 6931 N 662.189 -1.289 0.906776 0
M  V30 6932 C 663.435 -1.95558 0.53712 0
M  V30 6933 C 663.768 -1.71262 -0.915582 0
M  V30 6934 O 663.043 -1.02961 -1.65013 0
M  V30 6935 C 663.326 -3.50198 0.838645 0
M  V30 6936 C 663.179 -3.83923 2.34357 0
M  V30 6937 C 664.498 -4.38861 0.329988 0
M  V30 6938 H 661.617 -0.710289 0.196617 0
M  V30 6939 H 664.259 -1.52392 1.13475 0
M  V30 6940 H 662.409 -3.87096 0.330024 0
M  V30 6941 H 664.081 -3.56933 2.92227 0
M  V30 6942 H 662.324 -3.31215 2.80141 0
M  V30 6943 H 662.995 -4.91883 2.5051 0
M  V30 6944 H 665.471 -4.08996 0.765609 0
M  V30 6945 H 664.347 -5.45931 0.570105 0
M  V30 6946 H 664.608 -4.35352 -0.769511 0
M  V30 6947 N 663.667 -0.670007 -1.42649 0
M  V30 6948 C 664.599 0.0501746 -2.29145 0
M  V30 6949 C 665.612 0.770331 -1.43422 0
M  V30 6950 O 666.801 0.625288 -1.6719 0
M  V30 6951 C 663.901 1.09463 -3.20735 0
M  V30 6952 C 663.074 0.44926 -4.35087 0
M  V30 6953 C 662.133 1.39285 -5.07431 0
M  V30 6954 O 661.159 0.894997 -5.6212 0
M  V30 6955 N 662.361 2.72631 -5.12496 0
M  V30 6956 H 665.126 -0.692312 -2.91594 0
M  V30 6957 H 662.687 -0.514056 -1.53522 0
M  V30 6958 H 664.679 1.72705 -3.65999 0
M  V30 6959 H 663.249 1.73891 -2.59771 0
M  V30 6960 H 662.469 -0.362573 -3.92529 0
M  V30 6961 H 663.757 -0.000544776 -5.088 0
M  V30 6962 H 663.155 3.15623 -4.69467 0
M  V30 6963 H 661.712 3.31132 -5.61422 0
M  V30 6964 N 665.145 1.52092 -0.413018 0
M  V30 6965 C 666.075 2.30021 0.401567 0
M  V30 6966 C 667.056 1.34395 1.04269 0
M  V30 6967 O 668.241 1.63304 1.05097 0
M  V30 6968 C 665.371 3.12447 1.51638 0
M  V30 6969 C 664.325 4.16153 1.00005 0
M  V30 6970 C 663.651 4.86948 2.20875 0
M  V30 6971 C 664.951 5.22275 0.0513757 0
M  V30 6972 H 666.645 2.98365 -0.248704 0
M  V30 6973 H 664.191 1.4349 -0.121052 0
M  V30 6974 H 666.144 3.65733 2.09326 0
M  V30 6975 H 664.868 2.41879 2.19458 0
M  V30 6976 H 663.527 3.63882 0.445549 0
M  V30 6977 H 663.175 4.12905 2.8726 0
M  V30 6978 H 662.875 5.57057 1.86978 0
M  V30 6979 H 664.399 5.43048 2.79162 0
M  V30 6980 H 665.813 5.70778 0.537176 0
M  V30 6981 H 664.21 5.9977 -0.198977 0
M  V30 6982 H 665.28 4.76611 -0.892736 0
M  V30 6983 N 666.623 0.143563 1.56945 0
M  V30 6984 C 667.553 -0.7936 2.196 0
M  V30 6985 C 668.534 -1.25955 1.14321 0
M  V30 6986 O 669.719 -1.31773 1.42651 0
M  V30 6987 C 666.849 -2.03424 2.81489 0
M  V30 6988 C 665.803 -1.70519 3.92565 0
M  V30 6989 C 665.129 -3.01817 4.41373 0
M  V30 6990 C 666.429 -0.95449 5.13504 0
M  V30 6991 H 668.123 -0.271423 2.98167 0
M  V30 6992 H 665.669 -0.12911 1.4342 0
M  V30 6993 H 667.622 -2.69463 3.23987 0
M  V30 6994 H 666.346 -2.58008 2.00248 0
M  V30 6995 H 665.005 -1.06859 3.5068 0
M  V30 6996 H 664.653 -3.54386 3.56959 0
M  V30 6997 H 664.353 -2.80565 5.16292 0
M  V30 6998 H 665.877 -3.68934 4.86539 0
M  V30 6999 H 667.291 -1.5169 5.52868 0
M  V30 7000 H 665.688 -0.842035 5.94163 0
M  V30 7001 H 666.758 0.0544033 4.84869 0
M  V30 7002 N 668.101 -1.57061 -0.130224 0
M  V30 7003 C 669.517 -1.52103 -0.483413 0
M  V30 7004 C 669.717 -0.854752 -1.82473 0
M  V30 7005 O 668.773 -0.432342 -2.48771 0
M  V30 7006 C 670.086 -2.96872 -0.47825 0
M  V30 7007 C 671.634 -3.07902 -0.562592 0
M  V30 7008 C 672.109 -4.54211 -0.587929 0
M  V30 7009 N 673.6 -4.58621 -0.649684 0
M  V30 7010 C 674.335 -5.69227 -0.690551 0
M  V30 7011 N 673.831 -6.89358 -0.689743 0
M  V30 7012 N 675.624 -5.57304 -0.732708 0
M  V30 7013 H 667.775 -1.98764 0.748779 0
M  V30 7014 H 670.038 -0.907248 0.274965 0
M  V30 7015 H 669.744 -3.48944 0.439444 0
M  V30 7016 H 669.618 -3.53716 -1.31013 0
M  V30 7017 H 672.005 -2.5584 -1.47071 0
M  V30 7018 H 672.086 -2.54073 0.296764 0
M  V30 7019 H 671.73 -5.06915 0.316096 0
M  V30 7020 H 671.66 -5.0584 -1.46401 0
M  V30 7021 H 674.151 -3.72146 -0.656927 0
M  V30 7022 H 674.464 -7.69408 -0.723239 0
M  V30 7023 H 672.809 -6.91884 -0.657347 0
M  V30 7024 H 676 -4.62363 -0.730625 0
M  V30 7025 H 676.173 -6.43515 -0.76109 0
M  V30 7026 N 669.579 0.400081 -1.52437 0
M  V30 7027 C 670.511 1.50729 -1.72666 0
M  V30 7028 C 671.524 1.51058 -0.607075 0
M  V30 7029 O 672.713 1.5516 -0.88248 0
M  V30 7030 C 669.813 2.89604 -1.76019 0
M  V30 7031 C 668.986 3.13365 -3.05157 0
M  V30 7032 C 668.045 4.32163 -3.00203 0
M  V30 7033 O 667.071 4.29004 -3.74092 0
M  V30 7034 N 668.273 5.3776 -2.18619 0
M  V30 7035 H 671.038 1.33767 -2.68191 0
M  V30 7036 H 668.599 0.58948 -1.50787 0
M  V30 7037 H 670.591 3.67159 -1.70225 0
M  V30 7038 H 669.161 2.99979 -0.879284 0
M  V30 7039 H 668.381 2.23774 -3.24529 0
M  V30 7040 H 669.669 3.26089 -3.90568 0
M  V30 7041 H 669.067 5.43177 -1.58035 0
M  V30 7042 H 667.624 6.14023 -2.18674 0
M  V30 7043 N 671.057 1.43213 0.657864 0
M  V30 7044 C 672.007 1.44459 1.76396 0
M  V30 7045 C 672.991 0.313641 1.57814 0
M  V30 7046 O 674.183 0.557094 1.68004 0
M  V30 7047 C 671.312 1.36586 3.14959 0
M  V30 7048 C 670.398 2.54692 3.39106 0
M  V30 7049 N 670.789 3.80059 3.33749 0
M  V30 7050 C 669.087 2.49316 3.69807 0
M  V30 7051 C 669.788 4.58606 3.57849 0
M  V30 7052 N 668.764 3.89267 3.79437 0
M  V30 7053 H 672.566 2.39265 1.70673 0
M  V30 7054 H 670.08 1.378 0.859357 0
M  V30 7055 H 672.077 1.35561 3.94245 0
M  V30 7056 H 670.737 0.427956 3.21867 0
M  V30 7057 H 671.748 4.12414 3.13266 0
M  V30 7058 H 668.425 1.6419 3.83859 0
M  V30 7059 H 669.815 5.67619 3.59525 0
M  V30 7060 N 672.536 -0.895792 1.29666 0
M  V30 7061 C 673.761 -1.68528 1.20885 0
M  V30 7062 C 674.186 -1.8673 -0.226595 0
M  V30 7063 O 673.544 -1.39044 -1.16347 0
M  V30 7064 C 673.592 -3.04512 1.93144 0
M  V30 7065 O 672.696 -3.92963 1.25115 0
M  V30 7066 H 672.037 -0.515371 0.418675 0
M  V30 7067 H 674.567 -1.11878 1.71302 0
M  V30 7068 H 674.577 -3.54628 2.0175 0
M  V30 7069 H 673.252 -2.90582 2.97548 0
M  V30 7070 H 671.829 -3.51399 1.24794 0
M  V30 7071 N 674.014 -1.12206 -1.10668 0
M  V30 7072 C 675.239 -0.898938 -1.86906 0
M  V30 7073 C 675.664 0.546346 -1.79991 0
M  V30 7074 O 675.022 1.38655 -1.1681 0
M  V30 7075 C 675.07 -1.37529 -3.33344 0
M  V30 7076 O 674.174 -0.55218 -4.08687 0
M  V30 7077 H 673.515 -0.323163 -0.580053 0
M  V30 7078 H 676.045 -1.49355 -1.39837 0
M  V30 7079 H 676.055 -1.3733 -3.84193 0
M  V30 7080 H 674.73 -2.42767 -3.37693 0
M  V30 7081 H 673.307 -0.620947 -3.67694 0
M  V30 7082 N 675.492 1.28418 -0.913599 0
M  V30 7083 C 676.903 1.77024 -0.593237 0
M  V30 7084 C 677.254 1.74779 0.891441 0
M  V30 7085 O 676.379 1.34237 1.69733 0
M  V30 7086 C 676.974 3.21456 -1.07011 0
M  V30 7087 C 675.533 3.67786 -0.800664 0
M  V30 7088 C 674.68 2.48185 -1.23691 0
M  V30 7089 H 677.631 1.14883 -1.09487 0
M  V30 7090 H 677.652 3.78269 -0.411481 0
M  V30 7091 H 677.164 3.23058 -2.1507 0
M  V30 7092 H 675.265 3.71644 0.266725 0
M  V30 7093 H 675.378 4.57934 -1.4083 0
M  V30 7094 H 673.742 2.46116 -0.655655 0
M  V30 7095 H 674.525 2.52506 -2.32585 0
M  V30 7096 N 676.97 0.677563 1.42291 0
M  V30 7097 C 678.216 0.209962 2.02313 0
M  V30 7098 C 678.571 -1.1714 1.52631 0
M  V30 7099 O 677.864 -1.7756 0.719938 0
M  V30 7100 C 678.058 0.187229 3.56909 0
M  V30 7101 C 677.887 1.56484 4.21595 0
M  V30 7102 C 676.657 2.16329 4.56651 0
M  V30 7103 C 678.855 2.50805 4.49 0
M  V30 7104 N 676.837 3.46842 5.06531 0
M  V30 7105 C 678.208 3.65976 5.00461 0
M  V30 7106 C 680.263 2.493 4.30992 0
M  V30 7107 C 678.966 4.79899 5.35807 0
M  V30 7108 C 680.992 3.62322 4.67415 0
M  V30 7109 C 680.354 4.76221 5.19031 0
M  V30 7110 H 676.453 0.121815 0.772454 0
M  V30 7111 H 679.037 0.891148 1.73109 0
M  V30 7112 H 677.208 -0.46338 3.85626 0
M  V30 7113 H 678.94 -0.293512 4.03634 0
M  V30 7114 H 675.695 1.6879 4.42501 0
M  V30 7115 H 676.119 4.13694 5.35898 0
M  V30 7116 H 680.761 1.62467 3.90339 0
M  V30 7117 H 678.479 5.67406 5.75392 0
M  V30 7118 H 682.065 3.62388 4.55155 0
M  V30 7119 H 680.945 5.62228 5.46689 0
M  V30 7120 N 678.448 -1.51871 0.421078 0
M  V30 7121 C 679.38 -2.25052 -0.434065 0
M  V30 7122 C 680.393 -1.28458 -1.00013 0
M  V30 7123 O 681.582 -1.54323 -0.897033 0
M  V30 7124 C 678.682 -2.97813 -1.61743 0
M  V30 7125 C 677.855 -4.21374 -1.17315 0
M  V30 7126 C 676.914 -4.76854 -2.22478 0
M  V30 7127 O 675.94 -5.39123 -1.82577 0
M  V30 7128 N 677.142 -4.59467 -3.54782 0
M  V30 7129 H 679.907 -2.99077 0.193073 0
M  V30 7130 H 677.468 -1.59972 0.249088 0
M  V30 7131 H 679.46 -3.3182 -2.31685 0
M  V30 7132 H 678.03 -2.26899 -2.15024 0
M  V30 7133 H 677.25 -3.93046 -0.3014 0
M  V30 7134 H 678.538 -5.01591 -0.853444 0
M  V30 7135 H 677.936 -4.09832 -3.89941 0
M  V30 7136 H 676.493 -4.9788 -4.20665 0
M  V30 7137 N 679.926 -0.151884 -1.56866 0
M  V30 7138 C 681.172 0.498742 -1.96572 0
M  V30 7139 C 681.505 1.64194 -1.03702 0
M  V30 7140 O 680.78 1.94334 -0.0803432 0
M  V30 7141 C 681.063 1.00027 -3.45929 0
M  V30 7142 C 680.916 -0.141767 -4.49577 0
M  V30 7143 C 682.235 1.88044 -3.97904 0
M  V30 7144 H 679.354 0.17982 -0.714726 0
M  V30 7145 H 681.996 -0.234097 -1.88552 0
M  V30 7146 H 680.146 1.62476 -3.52894 0
M  V30 7147 H 681.818 -0.778269 -4.54687 0
M  V30 7148 H 680.061 -0.80019 -4.26356 0
M  V30 7149 H 680.732 0.250947 -5.51429 0
M  V30 7150 H 683.208 1.35416 -3.93449 0
M  V30 7151 H 682.084 2.20043 -5.02864 0
M  V30 7152 H 682.345 2.81916 -3.40552 0
M  V30 7153 N 681.404 1.57128 0.121893 0
M  V30 7154 C 682.634 1.88609 0.843227 0
M  V30 7155 C 683.042 0.740917 1.74089 0
M  V30 7156 O 682.385 -0.297426 1.81276 0
M  V30 7157 C 682.447 3.15073 1.73117 0
M  V30 7158 C 682.111 4.45742 1.0081 0
M  V30 7159 C 683.108 5.18719 0.350255 0
M  V30 7160 C 680.793 4.92444 0.99014 0
M  V30 7161 C 682.787 6.36617 -0.315889 0
M  V30 7162 C 680.474 6.10261 0.320196 0
M  V30 7163 C 681.472 6.82194 -0.331666 0
M  V30 7164 O 681.16 7.97769 -0.990927 0
M  V30 7165 H 680.892 0.628919 0.247865 0
M  V30 7166 H 683.446 2.05096 0.111725 0
M  V30 7167 H 681.676 2.9466 2.50424 0
M  V30 7168 H 683.365 3.32597 2.32667 0
M  V30 7169 H 684.131 4.83693 0.35577 0
M  V30 7170 H 680.01 4.36361 1.48695 0
M  V30 7171 H 683.554 6.92701 -0.825272 0
M  V30 7172 H 679.451 6.44743 0.312433 0
M  V30 7173 H 680.219 8.13591 -0.895113 0
M  V30 7174 N 682.882 -0.391992 1.52647 0
M  V30 7175 C 684.13 -1.13507 1.67214 0
M  V30 7176 C 684.451 -1.90575 0.41304 0
M  V30 7177 O 683.721 -1.87348 -0.572498 0
M  V30 7178 H 682.301 -0.422013 0.616372 0
M  V30 7179 H 684.963 -0.44502 1.89751 0
M  V30 7180 H 684.059 -1.83964 2.52118 0
M  V30 7181 N 684.36 -1.4356 -0.65026 0
M  V30 7182 C 685.607 -1.45333 -1.41012 0
M  V30 7183 C 685.935 -0.0787282 -1.94341 0
M  V30 7184 O 685.19 0.916715 -1.72901 0
M  V30 7185 C 685.489 -2.44528 -2.60654 0
M  V30 7186 C 685.155 -3.90331 -2.25727 0
M  V30 7187 C 683.817 -4.3004 -2.15914 0
M  V30 7188 C 686.169 -4.822 -1.97821 0
M  V30 7189 C 683.497 -5.59568 -1.76354 0
M  V30 7190 C 685.849 -6.12095 -1.59759 0
M  V30 7191 C 684.513 -6.50778 -1.48473 0
M  V30 7192 H 683.783 -0.531813 -0.516 0
M  V30 7193 H 686.43 -1.76657 -0.739219 0
M  V30 7194 H 684.735 -2.06619 -3.3289 0
M  V30 7195 H 686.432 -2.43155 -3.18868 0
M  V30 7196 H 683.022 -3.58905 -2.34276 0
M  V30 7197 H 687.206 -4.5229 -2.04322 0
M  V30 7198 H 682.462 -5.88376 -1.66205 0
M  V30 7199 H 686.636 -6.82751 -1.37198 0
M  V30 7200 H 684.263 -7.5105 -1.17591 0
M  V30 7201 N 685.838 0.888903 -1.30139 0
M  V30 7202 C 687.084 1.6428 -1.18912 0
M  V30 7203 C 687.417 1.92499 0.256477 0
M  V30 7204 O 686.692 1.54312 1.18397 0
M  V30 7205 C 686.975 2.9851 -2.01405 0
M  V30 7206 C 686.828 2.77288 -3.54163 0
M  V30 7207 C 688.147 3.99383 -1.84882 0
M  V30 7208 H 685.266 0.596148 -0.433333 0
M  V30 7209 H 687.908 1.0289 -1.5973 0
M  V30 7210 H 686.058 3.50907 -1.66722 0
M  V30 7211 H 687.73 2.31709 -3.98884 0
M  V30 7212 H 685.973 2.11867 -3.78543 0
M  V30 7213 H 686.644 3.72717 -4.07168 0
M  V30 7214 H 689.12 3.56132 -2.15196 0
M  V30 7215 H 687.996 4.91222 -2.44934 0
M  V30 7216 H 688.257 4.34674 -0.806902 0
M  V30 7217 N 687.317 1.12792 1.10072 0
M  V30 7218 C 688.733 0.864745 1.34143 0
M  V30 7219 C 688.933 -0.503201 1.95116 0
M  V30 7220 O 687.989 -1.25111 2.19325 0
M  V30 7221 C 689.302 1.98413 2.25949 0
M  V30 7222 C 690.85 2.01545 2.39476 0
M  V30 7223 C 691.325 3.12727 3.34613 0
M  V30 7224 N 692.816 3.12194 3.42183 0
M  V30 7225 C 693.551 3.94862 4.15779 0
M  V30 7226 N 693.047 4.87528 4.92228 0
M  V30 7227 N 694.84 3.82985 4.11435 0
M  V30 7228 H 686.991 2.00926 0.68866 0
M  V30 7229 H 689.254 0.874564 0.365844 0
M  V30 7230 H 688.96 2.97005 1.88364 0
M  V30 7231 H 688.834 1.89254 3.26287 0
M  V30 7232 H 691.221 1.0357 2.76328 0
M  V30 7233 H 691.302 2.14777 1.3894 0
M  V30 7234 H 690.946 4.10936 2.98486 0
M  V30 7235 H 690.876 2.96732 4.35037 0
M  V30 7236 H 693.367 2.45065 2.87666 0
M  V30 7237 H 693.68 5.47109 5.45794 0
M  V30 7238 H 692.025 4.91539 4.9134 0
M  V30 7239 H 695.216 3.09923 3.50807 0
M  V30 7240 H 695.389 4.47641 4.68531 0
M  V30 7241 N 688.795 -1.27931 0.920396 0
M  V30 7242 C 689.758 -2.25345 0.41858 0
M  V30 7243 C 690.758 -1.54116 -0.458798 0
M  V30 7244 O 691.948 -1.72235 -0.260912 0
M  V30 7245 C 689.08 -3.38556 -0.399104 0
M  V30 7246 H 690.273 -2.71251 1.27918 0
M  V30 7247 H 687.826 -1.39728 0.700406 0
M  V30 7248 H 688.561 -2.98021 -1.27882 0
M  V30 7249 H 688.346 -3.91426 0.229863 0
M  V30 7250 H 689.836 -4.10976 -0.740817 0
M  V30 7251 N 690.273 -0.685099 -1.4193 0
M  V30 7252 C 691.513 -0.215676 -2.03259 0
M  V30 7253 C 691.877 1.15934 -1.53047 0
M  V30 7254 O 693.078 1.72401 -2.06231 0
M  V30 7255 C 691.349 -0.259649 -3.56456 0
M  V30 7256 S 692.908 0.137262 -4.38585 0
M  V30 7257 H 689.726 -0.0877362 -0.705566 0
M  V30 7258 H 692.328 -0.900547 -1.73523 0
M  V30 7259 H 691.032 -1.26256 -3.90497 0
M  V30 7260 H 690.563 0.444716 -3.90878 0
M  V30 7261 H 692.578 1.36787 -4.76973 0
M  V30 7262 N 691.751 1.51645 -0.429126 0
M  V30 7263 C 692.681 2.30434 0.377148 0
M  V30 7264 C 693.662 1.35493 1.02838 0
M  V30 7265 O 694.847 1.6441 1.03359 0
M  V30 7266 C 691.977 3.14038 1.48315 0
M  V30 7267 C 690.931 4.1719 0.955855 0
M  V30 7268 C 690.257 4.89263 2.15698 0
M  V30 7269 C 691.557 5.223 -0.00402136 0
M  V30 7270 H 693.251 2.98085 -0.280336 0
M  V30 7271 H 690.797 1.43354 -0.136265 0
M  V30 7272 H 692.75 3.67933 2.05435 0
M  V30 7273 H 691.474 2.44193 2.16881 0
M  V30 7274 H 690.133 3.64335 0.406929 0
M  V30 7275 H 689.781 4.15929 2.82864 0
M  V30 7276 H 689.481 5.59009 1.81059 0
M  V30 7277 H 691.005 5.45978 2.73387 0
M  V30 7278 H 692.419 5.71315 0.476607 0
M  V30 7279 H 690.816 5.99525 -0.26258 0
M  V30 7280 H 691.886 4.75638 -0.943236 0
M  V30 7281 N 693.229 0.160201 1.56784 0
M  V30 7282 C 694.645 -0.196089 1.58391 0
M  V30 7283 C 694.845 -1.63689 1.17508 0
M  V30 7284 O 693.901 -2.36613 0.881506 0
M  V30 7285 C 695.214 0.0746449 3.00607 0
M  V30 7286 C 696.762 0.0119762 3.12998 0
M  V30 7287 C 697.237 0.255551 4.57286 0
M  V30 7288 N 698.728 0.202938 4.62755 0
M  V30 7289 C 699.463 0.365731 5.72232 0
M  V30 7290 N 698.959 0.586972 6.90309 0
M  V30 7291 N 700.752 0.302411 5.61286 0
M  V30 7292 H 692.903 1.1008 1.81648 0
M  V30 7293 H 695.166 0.436779 0.841384 0
M  V30 7294 H 694.872 1.07231 3.34954 0
M  V30 7295 H 694.746 -0.638802 3.71751 0
M  V30 7296 H 697.133 -0.976254 2.78484 0
M  V30 7297 H 697.214 0.75796 2.44313 0
M  V30 7298 H 696.858 1.24094 4.92507 0
M  V30 7299 H 696.788 -0.510912 5.24116 0
M  V30 7300 H 699.279 0.0371328 3.77882 0
M  V30 7301 H 699.592 0.700941 7.69615 0
M  V30 7302 H 697.937 0.623453 6.92198 0
M  V30 7303 H 701.128 0.130238 4.67919 0
M  V30 7304 H 701.301 0.432712 6.46554 0
M  V30 7305 N 694.707 -1.5719 -0.113559 0
M  V30 7306 C 696.123 -1.52607 -0.467253 0
M  V30 7307 C 696.323 -0.874058 -1.81556 0
M  V30 7308 O 695.379 -0.458703 -2.48299 0
M  V30 7309 C 696.692 -2.97363 -0.446736 0
M  V30 7310 C 698.24 -3.08482 -0.529903 0
M  V30 7311 C 698.715 -4.54809 -0.539721 0
M  V30 7312 N 700.206 -4.59284 -0.601005 0
M  V30 7313 C 700.941 -5.69927 -0.630138 0
M  V30 7314 N 700.437 -6.90051 -0.616589 0
M  V30 7315 N 702.23 -5.5805 -0.673558 0
M  V30 7316 H 694.381 -1.97958 0.769819 0
M  V30 7317 H 696.644 -0.90428 0.284572 0
M  V30 7318 H 696.35 -3.48458 0.47643 0
M  V30 7319 H 696.224 -3.55086 -1.27254 0
M  V30 7320 H 698.611 -2.57386 -1.44349 0
M  V30 7321 H 698.692 -2.53744 0.323695 0
M  V30 7322 H 698.336 -5.06552 0.369843 0
M  V30 7323 H 698.266 -5.07364 -1.41028 0
M  V30 7324 H 700.757 -3.72822 -0.617419 0
M  V30 7325 H 701.07 -7.70132 -0.641592 0
M  V30 7326 H 699.415 -6.92543 -0.583927 0
M  V30 7327 H 702.606 -4.63112 -0.681544 0
M  V30 7328 H 702.779 -6.44286 -0.692794 0
M  V30 7329 N 696.185 0.383891 -1.52853 0
M  V30 7330 C 697.115 1.47559 -1.80965 0
M  V30 7331 C 698.096 1.5669 -0.661986 0
M  V30 7332 O 699.281 1.71556 -0.910072 0
M  V30 7333 C 696.411 2.85114 -1.98312 0
M  V30 7334 C 695.365 2.9082 -3.14019 0
M  V30 7335 C 694.691 4.30873 -3.16627 0
M  V30 7336 C 695.991 2.60001 -4.52986 0
M  V30 7337 H 697.685 1.24283 -2.72386 0
M  V30 7338 H 695.231 0.596445 -1.31067 0
M  V30 7339 H 697.184 3.61496 -2.16561 0
M  V30 7340 H 695.908 3.09738 -1.03585 0
M  V30 7341 H 694.567 2.16886 -2.9556 0
M  V30 7342 H 694.215 4.52545 -2.19573 0
M  V30 7343 H 693.915 4.3561 -3.94357 0
M  V30 7344 H 695.439 5.09154 -3.37038 0
M  V30 7345 H 696.853 3.261 -4.71521 0
M  V30 7346 H 695.25 2.76081 -5.32822 0
M  V30 7347 H 696.32 1.5532 -4.59351 0
M  V30 7348 N 697.663 1.43903 0.642637 0
M  V30 7349 C 698.909 1.46296 1.40447 0
M  V30 7350 C 699.242 0.0908361 1.93987 0
M  V30 7351 O 698.517 -0.889884 1.72949 0
M  V30 7352 C 698.8 2.51399 2.57819 0
M  V30 7353 C 698.653 3.97926 2.09702 0
M  V30 7354 C 699.972 2.53125 3.60022 0
M  V30 7355 H 697.091 0.532676 0.509338 0
M  V30 7356 H 699.733 1.75515 0.727635 0
M  V30 7357 H 697.883 2.26614 3.1556 0
M  V30 7358 H 699.555 4.33804 1.5688 0
M  V30 7359 H 697.798 4.10252 1.40982 0
M  V30 7360 H 698.469 4.67096 2.94152 0
M  V30 7361 H 700.945 2.75242 3.12059 0
M  V30 7362 H 699.821 3.28589 4.39682 0
M  V30 7363 H 700.082 1.56895 4.13324 0
M  V30 7364 N 699.141 -0.881989 1.30609 0
M  V30 7365 C 700.552 -1.44956 1.17664 0
M  V30 7366 C 700.903 -1.94945 -0.221531 0
M  V30 7367 O 700.028 -1.85257 -1.11844 0
M  V30 7368 C 700.623 -2.63474 2.12995 0
M  V30 7369 C 699.182 -3.16312 2.04019 0
M  V30 7370 C 698.329 -1.89008 2.02907 0
M  V30 7371 H 701.28 -0.691645 1.42835 0
M  V30 7372 H 701.301 -3.39783 1.71253 0
M  V30 7373 H 700.813 -2.2706 3.14746 0
M  V30 7374 H 698.914 -3.57376 1.0542 0
M  V30 7375 H 699.027 -3.79409 2.9255 0
M  V30 7376 H 697.391 -2.07465 1.47751 0
M  V30 7377 H 698.174 -1.54848 3.06394 0
M  V30 7378 N 700.619 -1.13374 -1.09472 0
M  V30 7379 C 702.03 -0.90801 -1.63132 0
M  V30 7380 C 702.381 0.555576 -1.8817 0
M  V30 7381 O 701.506 1.42218 -1.63104 0
M  V30 7382 C 702.101 -1.64182 -2.96361 0
M  V30 7383 C 700.66 -1.46197 -3.46848 0
M  V30 7384 C 699.807 -1.67134 -2.21273 0
M  V30 7385 H 702.758 -1.2871 -0.928411 0
M  V30 7386 H 702.779 -1.09863 -3.64294 0
M  V30 7387 H 702.291 -2.707 -2.78106 0
M  V30 7388 H 700.392 -0.419788 -3.70228 0
M  V30 7389 H 700.505 -2.22472 -4.24315 0
M  V30 7390 H 698.869 -1.09616 -2.29905 0
M  V30 7391 H 699.652 -2.74971 -2.05538 0
M  V30 7392 N 702.098 1.27442 -0.927168 0
M  V30 7393 C 703.346 1.94007 -0.566203 0
M  V30 7394 C 703.667 1.7323 0.895345 0
M  V30 7395 O 702.937 1.07973 1.63459 0
M  V30 7396 H 701.517 0.717917 -0.206409 0
M  V30 7397 H 704.179 1.55161 -1.17945 0
M  V30 7398 H 703.275 3.02401 -0.772028 0
M  V30 7399 N 703.576 0.692616 1.41565 0
M  V30 7400 C 704.506 0.0397325 2.33466 0
M  V30 7401 C 705.487 -0.770334 1.51657 0
M  V30 7402 O 706.672 -0.723903 1.80203 0
M  V30 7403 C 703.802 -0.899495 3.3545 0
M  V30 7404 C 702.756 -0.196738 4.27548 0
M  V30 7405 C 702.082 -1.25012 5.19881 0
M  V30 7406 C 703.382 0.935158 5.1386 0
M  V30 7407 H 705.076 0.807296 2.88311 0
M  V30 7408 H 702.622 0.389665 1.38628 0
M  V30 7409 H 704.575 -1.36545 3.98665 0
M  V30 7410 H 703.299 -1.69869 2.78948 0
M  V30 7411 H 701.958 0.249158 3.65752 0
M  V30 7412 H 701.606 -2.04177 4.59696 0
M  V30 7413 H 701.306 -0.784931 5.82334 0
M  V30 7414 H 702.83 -1.71665 5.85972 0
M  V30 7415 H 704.244 0.549619 5.70659 0
M  V30 7416 H 702.641 1.32726 5.85238 0
M  V30 7417 H 703.711 1.77613 4.512 0
M  V30 7418 N 705.054 -1.51416 0.437162 0
M  V30 7419 C 706.3 -2.03035 -0.121818 0
M  V30 7420 C 706.655 -1.31551 -1.404 0
M  V30 7421 O 705.948 -0.421623 -1.86903 0
M  V30 7422 C 706.142 -3.55203 -0.39564 0
M  V30 7423 C 705.971 -4.4143 0.858452 0
M  V30 7424 C 704.741 -4.85751 1.39192 0
M  V30 7425 C 706.939 -4.83808 1.74454 0
M  V30 7426 N 704.921 -5.5619 2.59857 0
M  V30 7427 C 706.292 -5.53312 2.79724 0
M  V30 7428 C 708.347 -4.65795 1.75897 0
M  V30 7429 C 707.05 -6.06713 3.86383 0
M  V30 7430 C 709.076 -5.20112 2.81492 0
M  V30 7431 C 708.438 -5.89562 3.85482 0
M  V30 7432 H 704.537 -0.781981 -0.00541671 0
M  V30 7433 H 707.121 -1.85296 0.597792 0
M  V30 7434 H 705.292 -3.72958 -1.08429 0
M  V30 7435 H 707.024 -3.93489 -0.945963 0
M  V30 7436 H 703.779 -4.64058 0.945879 0
M  V30 7437 H 704.203 -5.96037 3.21044 0
M  V30 7438 H 708.845 -4.11562 0.968306 0
M  V30 7439 H 706.563 -6.6 4.66288 0
M  V30 7440 H 710.149 -5.08026 2.83551 0
M  V30 7441 H 709.029 -6.30838 4.65847 0
M  V30 7442 N 706.532 -0.168513 -1.56696 0
M  V30 7443 C 707.78 0.476216 -1.96409 0
M  V30 7444 C 708.101 1.63968 -1.05544 0
M  V30 7445 O 707.371 1.95525 -0.121235 0
M  V30 7446 H 705.951 0.178921 -0.725256 0
M  V30 7447 H 708.613 -0.249042 -1.93302 0
M  V30 7448 H 707.709 0.838094 -3.00637 0
M  V30 7449 N 708.01 1.57248 0.105221 0
M  V30 7450 C 709.235 1.90143 0.828264 0
M  V30 7451 C 709.66 0.761811 1.71983 0
M  V30 7452 O 709.018 -0.287086 1.79013 0
M  V30 7453 C 709.066 3.21856 1.62608 0
M  V30 7454 O 708.17 3.08732 2.7342 0
M  V30 7455 H 707.511 0.623558 0.228192 0
M  V30 7456 H 710.041 2.0443 0.0834826 0
M  V30 7457 H 710.051 3.54916 2.01243 0
M  V30 7458 H 708.726 4.0439 0.971687 0
M  V30 7459 H 707.303 2.87167 2.37886 0
M  V30 7460 N 709.488 -0.375779 1.53054 0
M  V30 7461 C 710.904 -0.716764 1.426 0
M  V30 7462 C 711.104 -1.93651 0.556931 0
M  V30 7463 O 710.16 -2.52475 0.0354461 0
M  V30 7464 C 711.473 -0.939499 2.85646 0
M  V30 7465 C 713.021 -1.04015 2.95212 0
M  V30 7466 C 713.496 -1.29543 4.39298 0
M  V30 7467 N 714.987 -1.36335 4.42682 0
M  V30 7468 C 715.722 -1.57778 5.51266 0
M  V30 7469 N 715.218 -1.76604 6.69913 0
M  V30 7470 N 717.011 -1.60065 5.38828 0
M  V30 7471 H 709.162 0.42664 2.08071 0
M  V30 7472 H 711.425 0.128758 0.939215 0
M  V30 7473 H 711.131 -0.115189 3.51511 0
M  V30 7474 H 711.005 -1.85048 3.2869 0
M  V30 7475 H 713.392 -1.85501 2.29507 0
M  V30 7476 H 713.473 -0.106785 2.55577 0
M  V30 7477 H 713.117 -0.485611 5.05573 0
M  V30 7478 H 713.047 -2.24184 4.76497 0
M  V30 7479 H 715.538 -1.23441 3.5717 0
M  V30 7480 H 715.851 -1.9251 7.48438 0
M  V30 7481 H 714.196 -1.73802 6.72917 0
M  V30 7482 H 717.387 -1.44917 4.45103 0
M  V30 7483 H 717.56 -1.76435 6.23518 0
M  V30 7484 N 710.966 -1.44241 -0.634997 0
M  V30 7485 C 711.916 -1.47247 -1.74076 0
M  V30 7486 C 712.9 -0.338708 -1.57295 0
M  V30 7487 O 714.092 -0.583751 -1.67097 0
M  V30 7488 C 711.221 -1.41579 -3.12746 0
M  V30 7489 C 710.307 -2.60055 -3.35011 0
M  V30 7490 N 710.698 -3.85321 -3.27661 0
M  V30 7491 C 708.996 -2.55168 -3.65794 0
M  V30 7492 C 709.697 -4.64241 -3.50508 0
M  V30 7493 N 708.673 -3.95254 -3.73196 0
M  V30 7494 H 712.475 -2.4195 -1.66845 0
M  V30 7495 H 709.989 -1.3915 -0.837326 0
M  V30 7496 H 711.986 -1.41816 -3.92038 0
M  V30 7497 H 710.646 -0.479108 -3.21146 0
M  V30 7498 H 711.657 -4.17345 -3.06665 0
M  V30 7499 H 708.334 -1.70276 -3.81198 0
M  V30 7500 H 709.724 -5.73267 -3.50449 0
M  V30 7501 N 712.444 0.87505 -1.31075 0
M  V30 7502 C 713.392 2.00317 -1.18219 0
M  V30 7503 C 714.386 1.69152 -0.0916872 0
M  V30 7504 O 715.592 1.7821 -0.253229 0
M  V30 7505 H 711.967 0.656981 -0.365895 0
M  V30 7506 H 713.938 2.08293 -2.13674 0
M  V30 7507 C 712.687 3.35821 -0.901095 0
M  V30 7508 H 712.01 3.6032 -1.73233 0
M  V30 7509 H 713.45 4.15366 -0.851295 0
M  V30 7510 C 711.909 3.34563 0.396114 0
M  V30 7511 O 712.439 3.75971 1.41452 0
M  V30 7512 N 710.645 2.87681 0.410832 0
M  V30 7513 H 710.192 2.54179 -0.418415 0
M  V30 7514 H 710.15 2.87223 1.27869 0
M  V30 7515 N 713.922 1.13953 1.08869 0
M  V30 7516 C 714.832 0.835666 2.19212 0
M  V30 7517 C 715.848 -0.182005 1.73045 0
M  V30 7518 O 717.024 -0.0116661 2.01397 0
M  V30 7519 C 714.089 0.312325 3.4529 0
M  V30 7520 C 713.15 1.39196 4.06107 0
M  V30 7521 C 712.383 0.893496 5.26168 0
M  V30 7522 O 712.606 -0.266807 5.69776 0
M  V30 7523 O 711.54 1.67037 5.78258 0
M  V30 7524 H 715.366 1.75769 2.47667 0
M  V30 7525 H 712.951 0.917421 1.17914 0
M  V30 7526 H 714.833 0.0261582 4.21392 0
M  V30 7527 H 713.508 -0.582042 3.18424 0
M  V30 7528 H 712.415 1.73152 3.31616 0
M  V30 7529 H 713.748 2.26068 4.37212 0
M  V30 7530 N 715.4 -1.26948 0.933913 0
M  V30 7531 C 716.816 -1.46419 0.635103 0
M  V30 7532 C 717.016 -1.84336 -0.813785 0
M  V30 7533 O 716.072 -1.96061 -1.59111 0
M  V30 7534 C 717.385 -2.55206 1.5903 0
M  V30 7535 C 718.933 -2.69062 1.5992 0
M  V30 7536 C 719.408 -3.81013 2.54152 0
M  V30 7537 N 720.899 -3.88395 2.52395 0
M  V30 7538 C 721.634 -4.74454 3.21996 0
M  V30 7539 N 721.13 -5.64954 4.00997 0
M  V30 7540 N 722.923 -4.68237 3.10983 0
M  V30 7541 H 715.074 -1.00622 1.87053 0
M  V30 7542 H 717.337 -0.503189 0.803433 0
M  V30 7543 H 717.043 -2.34153 2.62422 0
M  V30 7544 H 716.917 -3.52719 1.33677 0
M  V30 7545 H 719.304 -2.89492 0.572569 0
M  V30 7546 H 719.385 -1.72016 1.89325 0
M  V30 7547 H 719.029 -3.61336 3.5693 0
M  V30 7548 H 718.959 -4.77499 2.22041 0
M  V30 7549 H 721.45 -3.23687 1.95025 0
M  V30 7550 H 721.763 -6.27496 4.51074 0
M  V30 7551 H 720.108 -5.6473 4.05099 0
M  V30 7552 H 723.299 -3.96535 2.48753 0
M  V30 7553 H 723.472 -5.35087 3.65494 0
M  V30 7554 N 716.879 -0.700114 -1.41195 0
M  V30 7555 C 718.295 -0.372114 -1.55201 0
M  V30 7556 C 718.495 1.12053 -1.6747 0
M  V30 7557 O 717.551 1.90642 -1.65566 0
M  V30 7558 C 718.864 -1.12462 -2.78878 0
M  V30 7559 C 720.412 -1.10941 -2.92679 0
M  V30 7560 C 720.887 -1.84376 -4.19249 0
M  V30 7561 N 722.378 -1.81368 -4.26216 0
M  V30 7562 C 723.113 -2.35024 -5.23021 0
M  V30 7563 N 722.609 -2.9717 -6.25829 0
M  V30 7564 N 724.402 -2.25254 -5.14992 0
M  V30 7565 H 716.553 -1.66816 -1.31477 0
M  V30 7566 H 718.816 -0.704223 -0.634644 0
M  V30 7567 H 718.522 -2.17937 -2.76037 0
M  V30 7568 H 718.396 -0.706152 -3.70531 0
M  V30 7569 H 720.783 -0.062911 -2.95033 0
M  V30 7570 H 720.864 -1.56698 -2.02187 0
M  V30 7571 H 720.508 -2.89008 -4.17656 0
M  V30 7572 H 720.438 -1.3605 -5.08722 0
M  V30 7573 H 722.929 -1.36062 -3.52556 0
M  V30 7574 H 723.242 -3.35668 -6.96094 0
M  V30 7575 H 721.587 -3.01249 -6.26318 0
M  V30 7576 H 724.778 -1.76372 -4.33602 0
M  V30 7577 H 724.951 -2.67373 -5.90268 0
M  V30 7578 N 718.357 1.51182 -0.445186 0
M  V30 7579 C 719.604 2.02152 0.118645 0
M  V30 7580 C 719.932 1.32888 1.42025 0
M  V30 7581 O 719.187 0.435041 1.90803 0
M  V30 7582 C 719.486 3.55408 0.376797 0
M  V30 7583 C 719.152 4.43008 -0.839945 0
M  V30 7584 C 717.814 4.66669 -1.17361 0
M  V30 7585 C 720.166 4.9435 -1.65127 0
M  V30 7586 C 717.494 5.38919 -2.31913 0
M  V30 7587 C 719.846 5.67857 -2.78786 0
M  V30 7588 C 718.51 5.89779 -3.12597 0
M  V30 7589 H 717.78 0.739727 0.0434152 0
M  V30 7590 H 720.427 1.82055 -0.593984 0
M  V30 7591 H 718.732 3.73879 1.1714 0
M  V30 7592 H 720.429 3.92388 0.826602 0
M  V30 7593 H 717.019 4.24793 -0.569958 0
M  V30 7594 H 721.203 4.75947 -1.4067 0
M  V30 7595 H 716.459 5.54105 -2.58413 0
M  V30 7596 H 720.633 6.06628 -3.42017 0
M  V30 7597 H 718.26 6.45542 -4.01471 0
M  V30 7598 N 719.835 0.176821 1.56605 0
M  V30 7599 C 720.765 -0.746841 2.21234 0
M  V30 7600 C 721.746 -1.23502 1.16967 0
M  V30 7601 O 722.931 -1.28718 1.45414 0
M  V30 7602 C 720.061 -1.97407 2.8574 0
M  V30 7603 C 719.015 -1.62153 3.96094 0
M  V30 7604 C 718.341 -2.92387 4.47676 0
M  V30 7605 C 719.641 -0.845353 5.15413 0
M  V30 7606 H 721.335 -0.208116 2.98676 0
M  V30 7607 H 718.881 -0.0986594 1.43662 0
M  V30 7608 H 720.834 -2.62531 3.2963 0
M  V30 7609 H 719.558 -2.53703 2.05676 0
M  V30 7610 H 718.217 -0.993964 3.52868 0
M  V30 7611 H 717.865 -3.46734 3.64396 0
M  V30 7612 H 717.565 -2.69551 5.22127 0
M  V30 7613 H 719.089 -3.5853 4.94255 0
M  V30 7614 H 720.503 -1.39929 5.55961 0
M  V30 7615 H 718.9 -0.715814 5.95815 0
M  V30 7616 H 719.97 0.157239 4.84645 0
M  V30 7617 N 721.313 -1.57302 -0.09688 0
M  V30 7618 C 722.729 -1.53094 -0.451041 0
M  V30 7619 C 722.929 -0.893265 -1.80618 0
M  V30 7620 O 721.985 -0.485013 -2.47798 0
M  V30 7621 C 723.298 -2.9782 -0.415172 0
M  V30 7622 C 724.846 -3.09026 -0.497155 0
M  V30 7623 C 725.321 -4.55356 -0.491452 0
M  V30 7624 N 726.812 -4.59896 -0.552258 0
M  V30 7625 C 727.547 -5.70563 -0.569654 0
M  V30 7626 N 727.043 -6.90666 -0.543365 0
M  V30 7627 N 728.836 -5.58733 -0.614331 0
M  V30 7628 H 720.987 -1.97131 0.790771 0
M  V30 7629 H 723.25 -0.901211 0.294147 0
M  V30 7630 H 722.956 -3.47933 0.513362 0
M  V30 7631 H 722.83 -3.56416 -1.23481 0
M  V30 7632 H 725.217 -2.58902 -1.41611 0
M  V30 7633 H 725.298 -2.53386 0.35059 0
M  V30 7634 H 724.942 -5.06131 0.423549 0
M  V30 7635 H 724.872 -5.08832 -1.35639 0
M  V30 7636 H 727.363 -3.73456 -0.577842 0
M  V30 7637 H 727.676 -7.70769 -0.559873 0
M  V30 7638 H 726.021 -6.93123 -0.510441 0
M  V30 7639 H 729.212 -4.63809 -0.632387 0
M  V30 7640 H 729.385 -6.44984 -0.62442 0
M  V30 7641 N 722.791 0.367657 -1.53252 0
M  V30 7642 C 723.739 1.47061 -1.8021 0
M  V30 7643 C 724.733 1.55539 -0.671112 0
M  V30 7644 O 725.939 1.58451 -0.854014 0
M  V30 7645 H 722.314 0.489868 -0.570555 0
M  V30 7646 H 724.285 1.21527 -2.72532 0
M  V30 7647 C 723.034 2.83924 -2.00706 0
M  V30 7648 H 722.357 2.78158 -2.87172 0
M  V30 7649 H 723.797 3.60281 -2.23547 0
M  V30 7650 C 722.256 3.27613 -0.785568 0
M  V30 7651 O 722.786 4.01691 0.0267459 0
M  V30 7652 N 720.992 2.84134 -0.609597 0
M  V30 7653 H 720.539 2.24017 -1.27178 0
M  V30 7654 H 720.497 3.13723 0.206281 0
M  V30 7655 N 724.269 1.44576 0.627338 0
M  V30 7656 C 725.497 1.51048 1.41394 0
M  V30 7657 C 725.912 0.136568 1.88305 0
M  V30 7658 O 725.269 -0.858251 1.6106 0
M  V30 7659 C 725.32 2.47837 2.63172 0
M  V30 7660 O 725.041 3.79887 2.18215 0
M  V30 7661 C 726.542 2.63811 3.56257 0
M  V30 7662 H 723.762 0.512171 0.4335 0
M  V30 7663 H 726.306 1.89576 0.766878 0
M  V30 7664 H 724.461 2.12433 3.23961 0
M  V30 7665 H 724.875 4.32177 2.97192 0
M  V30 7666 H 726.349 3.35554 4.38301 0
M  V30 7667 H 726.826 1.69169 4.05313 0
M  V30 7668 H 727.432 3.0013 3.01333 0
M  V30 7669 N 725.747 -0.868086 1.31537 0
M  V30 7670 C 726.694 -1.97548 1.19346 0
M  V30 7671 C 727.664 -1.65913 0.0787922 0
M  V30 7672 O 728.849 -1.89129 0.251985 0
M  V30 7673 C 725.989 -3.32922 0.908692 0
M  V30 7674 C 725.102 -3.77141 2.10687 0
M  V30 7675 C 724.237 -5.01241 1.75873 0
M  V30 7676 C 723.276 -5.37914 2.92088 0
M  V30 7677 N 722.413 -6.53192 2.57457 0
M  V30 7678 H 727.253 -2.07307 2.14074 0
M  V30 7679 H 724.79 -1.01483 1.06487 0
M  V30 7680 H 726.748 -4.10867 0.724138 0
M  V30 7681 H 725.378 -3.228 -0.0017611 0
M  V30 7682 H 724.43 -2.94961 2.40213 0
M  V30 7683 H 725.742 -4.00248 2.97663 0
M  V30 7684 H 724.896 -5.86858 1.53891 0
M  V30 7685 H 723.635 -4.80041 0.86091 0
M  V30 7686 H 722.64 -4.50814 3.14717 0
M  V30 7687 H 723.865 -5.61077 3.82582 0
M  V30 7688 H 721.811 -6.33536 1.702 0
M  V30 7689 H 721.728 -6.76252 3.37963 0
M  V30 7690 H 722.996 -7.41997 2.38873 0
M  V30 7691 N 727.225 -1.14528 -1.08264 0
M  V30 7692 C 728.172 -0.833556 -2.15222 0
M  V30 7693 C 729.142 0.209539 -1.64773 0
M  V30 7694 O 730.327 0.0791388 -1.90636 0
M  V30 7695 C 727.467 -0.318799 -3.43624 0
M  V30 7696 C 726.58 -1.42237 -4.07913 0
M  V30 7697 C 725.715 -0.864704 -5.24115 0
M  V30 7698 C 724.754 -1.94585 -5.80347 0
M  V30 7699 N 723.891 -1.40525 -6.87893 0
M  V30 7700 H 728.731 -1.74965 -2.41228 0
M  V30 7701 H 726.268 -0.873169 -1.18381 0
M  V30 7702 H 728.226 -0.00213088 -4.172 0
M  V30 7703 H 726.856 0.560397 -3.17898 0
M  V30 7704 H 725.908 -1.8554 -3.32083 0
M  V30 7705 H 727.22 -2.23901 -4.45724 0
M  V30 7706 H 726.374 -0.500025 -6.04636 0
M  V30 7707 H 725.113 -0.0171219 -4.87697 0
M  V30 7708 H 724.118 -2.31946 -4.98479 0
M  V30 7709 H 725.343 -2.79704 -6.18823 0
M  V30 7710 H 723.289 -0.579873 -6.53432 0
M  V30 7711 H 723.206 -2.15825 -7.24538 0
M  V30 7712 H 724.474 -1.06852 -7.72142 0
M  V30 7713 N 728.703 1.26451 -0.940633 0
M  V30 7714 C 729.95 1.93778 -0.587909 0
M  V30 7715 C 730.278 1.73811 0.872935 0
M  V30 7716 O 729.533 1.06816 1.63978 0
M  V30 7717 C 729.832 3.46503 -0.875794 0
M  V30 7718 C 729.498 3.86609 -2.32043 0
M  V30 7719 C 728.16 3.97269 -2.71534 0
M  V30 7720 C 730.512 4.0672 -3.25927 0
M  V30 7721 C 727.84 4.25436 -4.04006 0
M  V30 7722 C 730.192 4.36375 -4.57995 0
M  V30 7723 C 728.856 4.45249 -4.97302 0
M  V30 7724 H 728.126 0.709084 -0.215131 0
M  V30 7725 H 730.773 1.50272 -1.18704 0
M  V30 7726 H 729.078 3.91319 -0.194124 0
M  V30 7727 H 730.775 3.96759 -0.581665 0
M  V30 7728 H 727.365 3.78858 -2.00411 0
M  V30 7729 H 731.549 3.97912 -2.96614 0
M  V30 7730 H 726.805 4.30519 -4.34124 0
M  V30 7731 H 730.979 4.50882 -5.30734 0
M  V30 7732 H 728.606 4.66829 -5.99979 0
M  V30 7733 N 730.181 0.707592 1.40822 0
M  V30 7734 C 731.43 0.240705 2.00259 0
M  V30 7735 C 731.743 -1.17027 1.56729 0
M  V30 7736 O 732.949 -1.73526 2.08809 0
M  V30 7737 C 731.405 0.379432 3.57894 0
M  V30 7738 C 731.013 1.79654 4.104 0
M  V30 7739 C 732.757 -0.0270684 4.24491 0
M  V30 7740 C 730.664 1.88628 5.60512 0
M  V30 7741 H 729.594 0.0862369 0.749052 0
M  V30 7742 H 732.245 0.877528 1.61157 0
M  V30 7743 H 730.627 -0.325842 3.94657 0
M  V30 7744 H 731.801 2.53155 3.85032 0
M  V30 7745 H 730.116 2.15379 3.56372 0
M  V30 7746 H 732.713 0.0193743 5.34696 0
M  V30 7747 H 733.056 -1.06772 4.02375 0
M  V30 7748 H 733.589 0.628361 3.92806 0
M  V30 7749 H 730.328 2.90787 5.87472 0
M  V30 7750 H 729.848 1.19528 5.8777 0
M  V30 7751 H 731.527 1.6547 6.25483 0
M  V30 7752 N 731.66 -1.50943 0.453197 0
M  V30 7753 C 732.885 -2.07116 -0.108463 0
M  V30 7754 C 733.31 -1.31681 -1.3432 0
M  V30 7755 O 732.668 -0.359256 -1.77705 0
M  V30 7756 C 732.716 -3.58447 -0.393424 0
M  V30 7757 O 731.82 -3.85038 -1.47714 0
M  V30 7758 H 731.161 -0.66398 0.0050993 0
M  V30 7759 H 733.691 -1.94362 0.639095 0
M  V30 7760 H 733.701 -4.02961 -0.639222 0
M  V30 7761 H 732.376 -4.12774 0.508946 0
M  V30 7762 H 730.953 -3.52376 -1.22006 0
M  V30 7763 N 733.138 -0.185124 -1.56509 0
M  V30 7764 C 734.068 0.735098 -2.21627 0
M  V30 7765 C 735.049 1.2288 -1.1762 0
M  V30 7766 O 736.234 1.27945 -1.46095 0
M  V30 7767 C 733.364 1.95889 -2.86783 0
M  V30 7768 C 732.318 1.6005 -3.96948 0
M  V30 7769 C 731.644 2.90009 -4.4922 0
M  V30 7770 C 732.944 0.818008 -5.15855 0
M  V30 7771 H 734.638 0.192274 -2.98782 0
M  V30 7772 H 732.184 0.0910393 -1.43712 0
M  V30 7773 H 734.137 2.60779 -3.31017 0
M  V30 7774 H 732.861 2.52608 -2.07018 0
M  V30 7775 H 731.52 0.975237 -3.5339 0
M  V30 7776 H 731.168 3.44797 -3.6623 0
M  V30 7777 H 730.868 2.66778 -5.23549 0
M  V30 7778 H 732.392 3.55904 -4.9615 0
M  V30 7779 H 733.806 1.36979 -5.56695 0
M  V30 7780 H 732.203 0.684207 -5.96187 0
M  V30 7781 H 733.273 -0.182939 -4.84555 0
M  V30 7782 N 734.616 1.57351 0.0885366 0
M  V30 7783 C 735.864 1.86051 0.789262 0
M  V30 7784 C 736.185 0.774763 1.78948 0
M  V30 7785 O 735.455 -0.198324 1.94894 0
M  V30 7786 H 734.035 0.686508 0.294475 0
M  V30 7787 H 736.697 1.94779 0.0686055 0
M  V30 7788 H 735.793 2.83007 1.31581 0
M  V30 7789 N 736.094 -0.359525 1.53444 0
M  V30 7790 C 737.041 -1.44073 1.8031 0
M  V30 7791 C 738.011 -1.52946 0.647811 0
M  V30 7792 O 739.196 -1.68739 0.890614 0
M  V30 7793 C 736.336 -2.80941 2.00416 0
M  V30 7794 C 735.449 -2.80986 3.28132 0
M  V30 7795 C 734.584 -4.09468 3.38393 0
M  V30 7796 C 733.623 -4.03679 4.60119 0
M  V30 7797 N 732.76 -5.23821 4.675 0
M  V30 7798 H 737.6 -1.20464 2.72566 0
M  V30 7799 H 735.137 -0.583859 1.35017 0
M  V30 7800 H 737.095 -3.60459 2.1006 0
M  V30 7801 H 735.725 -3.02936 1.11489 0
M  V30 7802 H 734.777 -1.93666 3.27411 0
M  V30 7803 H 736.089 -2.72583 4.17732 0
M  V30 7804 H 735.243 -4.97404 3.47382 0
M  V30 7805 H 733.982 -4.20632 2.4682 0
M  V30 7806 H 732.987 -3.14129 4.51224 0
M  V30 7807 H 734.212 -3.94112 5.5304 0
M  V30 7808 H 732.158 -5.35559 3.7883 0
M  V30 7809 H 732.075 -5.17611 5.51013 0
M  V30 7810 H 733.343 -6.13572 4.8078 0
M  V30 7811 N 737.572 -1.44907 -0.619662 0
M  V30 7812 C 738.522 -1.49085 -1.72504 0
M  V30 7813 C 739.506 -0.355372 -1.56926 0
M  V30 7814 O 740.698 -0.601441 -1.66468 0
M  V30 7815 C 737.827 -1.44889 -3.11227 0
M  V30 7816 C 736.913 -2.63593 -3.32234 0
M  V30 7817 N 737.304 -3.88775 -3.23555 0
M  V30 7818 C 735.602 -2.59033 -3.63067 0
M  V30 7819 C 736.303 -4.67932 -3.45564 0
M  V30 7820 N 735.279 -3.9919 -3.68983 0
M  V30 7821 H 739.081 -2.43706 -1.6427 0
M  V30 7822 H 736.595 -1.4003 -0.82252 0
M  V30 7823 H 738.592 -1.45966 -3.90512 0
M  V30 7824 H 737.252 -0.513143 -3.2062 0
M  V30 7825 H 738.263 -4.20574 -3.02221 0
M  V30 7826 H 734.94 -1.7431 -3.79371 0
M  V30 7827 H 736.33 -5.76952 -3.44349 0
M  V30 7828 N 739.05 0.861098 -1.31996 0
M  V30 7829 C 740.013 1.95068 -1.20338 0
M  V30 7830 C 741.013 1.60289 -0.128114 0
M  V30 7831 O 742.203 1.70048 -0.378044 0
M  V30 7832 C 739.335 3.30153 -0.849205 0
M  V30 7833 H 740.528 2.06833 -2.17164 0
M  V30 7834 H 738.081 1.05049 -1.15734 0
M  V30 7835 H 738.816 3.24087 0.117508 0
M  V30 7836 H 738.601 3.56771 -1.62655 0
M  V30 7837 H 740.091 4.10025 -0.791782 0
M  V30 7838 N 740.528 1.15101 1.07655 0
M  V30 7839 C 741.475 0.844958 2.14777 0
M  V30 7840 C 742.445 -0.200798 1.64882 0
M  V30 7841 O 743.63 -0.0690278 1.90675 0
M  V30 7842 C 740.77 0.337018 3.4345 0
M  V30 7843 C 739.883 1.44398 4.07153 0
M  V30 7844 C 739.018 0.892487 5.23649 0
M  V30 7845 C 738.057 1.9766 5.79307 0
M  V30 7846 N 737.194 1.44171 6.87138 0
M  V30 7847 H 742.034 1.76242 2.40297 0
M  V30 7848 H 739.571 0.879435 1.17917 0
M  V30 7849 H 741.529 0.024256 4.17193 0
M  V30 7850 H 740.159 -0.543531 3.18191 0
M  V30 7851 H 739.211 1.87299 3.31094 0
M  V30 7852 H 740.523 2.26262 4.4453 0
M  V30 7853 H 739.677 0.532083 6.04362 0
M  V30 7854 H 738.416 0.0429854 4.87681 0
M  V30 7855 H 737.421 2.34586 4.97242 0
M  V30 7856 H 738.646 2.82982 6.17331 0
M  V30 7857 H 736.592 0.614518 6.53115 0
M  V30 7858 H 736.509 2.19665 7.23383 0
M  V30 7859 H 737.777 1.10945 7.71564 0
M  V30 7860 N 742.006 -1.2595 0.947325 0
M  V30 7861 C 742.936 -2.28521 0.479604 0
M  V30 7862 C 743.917 -1.63469 -0.470293 0
M  V30 7863 O 745.102 -1.90627 -0.370824 0
M  V30 7864 C 742.232 -3.46397 -0.250289 0
M  V30 7865 C 741.186 -4.23578 0.613643 0
M  V30 7866 C 740.512 -5.34131 -0.246568 0
M  V30 7867 C 741.812 -4.86979 1.88809 0
M  V30 7868 H 743.506 -2.67895 1.33688 0
M  V30 7869 H 741.052 -1.28783 0.644274 0
M  V30 7870 H 743.005 -4.17269 -0.588576 0
M  V30 7871 H 741.729 -3.05993 -1.14175 0
M  V30 7872 H 740.388 -3.54478 0.93491 0
M  V30 7873 H 740.036 -4.89968 -1.13756 0
M  V30 7874 H 739.736 -5.86683 0.328123 0
M  V30 7875 H 741.26 -6.07839 -0.579986 0
M  V30 7876 H 742.674 -5.50034 1.61666 0
M  V30 7877 H 741.071 -5.49675 2.40784 0
M  V30 7878 H 742.141 -4.09575 2.5957 0
M  V30 7879 N 743.484 -0.715051 -1.40445 0
M  V30 7880 C 744.709 -0.26254 -2.05732 0
M  V30 7881 C 745.134 1.08691 -1.53519 0
M  V30 7882 O 744.492 1.68453 -0.670328 0
M  V30 7883 C 744.54 -0.25195 -3.59719 0
M  V30 7884 O 743.644 0.766998 -4.05205 0
M  V30 7885 H 742.985 -0.123398 -0.652433 0
M  V30 7886 H 745.515 -0.975382 -1.79854 0
M  V30 7887 H 745.525 -0.0894537 -4.07902 0
M  V30 7888 H 744.2 -1.23672 -3.97087 0
M  V30 7889 H 742.777 0.572269 -3.68483 0
M  V30 7890 N 744.962 1.50701 -0.461195 0
M  V30 7891 C 745.892 2.31182 0.328184 0
M  V30 7892 C 746.873 1.37644 0.999408 0
M  V30 7893 O 748.058 1.66565 0.99848 0
M  V30 7894 C 745.188 3.17113 1.41621 0
M  V30 7895 C 744.142 4.19124 0.867148 0
M  V30 7896 C 743.468 4.93728 2.05272 0
M  V30 7897 C 744.768 5.22174 -0.114808 0
M  V30 7898 H 746.462 2.97423 -0.343501 0
M  V30 7899 H 744.008 1.43033 -0.166641 0
M  V30 7900 H 745.961 3.72208 1.97584 0
M  V30 7901 H 744.685 2.48739 2.11652 0
M  V30 7902 H 743.344 3.65116 0.329557 0
M  V30 7903 H 742.992 4.21835 2.73978 0
M  V30 7904 H 742.692 5.62724 1.69161 0
M  V30 7905 H 744.216 5.51654 2.61744 0
M  V30 7906 H 745.63 5.72198 0.355316 0
M  V30 7907 H 744.027 5.98833 -0.389689 0
M  V30 7908 H 745.097 4.7353 -1.04391 0
M  V30 7909 N 746.441 0.193421 1.56409 0
M  V30 7910 C 747.373 -0.759944 2.16235 0
M  V30 7911 C 748.386 -1.17797 1.12373 0
M  V30 7912 O 749.575 -1.11399 1.39472 0
M  V30 7913 C 746.675 -2.03735 2.70823 0
M  V30 7914 C 745.848 -1.77939 3.9957 0
M  V30 7915 C 744.907 -2.90111 4.39001 0
M  V30 7916 O 743.933 -2.59791 5.06456 0
M  V30 7917 N 745.135 -4.18426 4.02368 0
M  V30 7918 H 747.9 -0.248348 2.98669 0
M  V30 7919 H 745.461 0.0113966 1.61896 0
M  V30 7920 H 747.453 -2.77914 2.94187 0
M  V30 7921 H 746.023 -2.46022 1.92852 0
M  V30 7922 H 745.243 -0.875491 3.84355 0
M  V30 7923 H 746.531 -1.58099 4.83614 0
M  V30 7924 H 745.929 -4.45913 3.48106 0
M  V30 7925 H 744.486 -4.89237 4.30686 0
M  V30 7926 N 747.919 -1.57396 -0.0801906 0
M  V30 7927 C 748.829 -2.06451 -1.11423 0
M  V30 7928 C 749.845 -0.992352 -1.42928 0
M  V30 7929 O 751.021 -1.30651 -1.53272 0
M  V30 7930 C 748.086 -2.49164 -2.41077 0
M  V30 7931 C 747.147 -3.70641 -2.16619 0
M  V30 7932 C 746.38 -4.11307 -3.40092 0
M  V30 7933 O 746.603 -3.51922 -4.48895 0
M  V30 7934 O 745.537 -5.04157 -3.288 0
M  V30 7935 H 749.363 -2.94857 -0.727519 0
M  V30 7936 H 746.948 -1.46484 -0.293743 0
M  V30 7937 H 748.83 -2.77196 -3.17396 0
M  V30 7938 H 747.505 -1.6389 -2.79145 0
M  V30 7939 H 746.412 -3.47703 -1.38033 0
M  V30 7940 H 747.745 -4.5674 -1.83437 0
M  V30 7941 N 749.397 0.351382 -1.53633 0
M  V30 7942 C 750.327 1.43688 -1.84055 0
M  V30 7943 C 751.308 1.55251 -0.695073 0
M  V30 7944 O 752.493 1.69587 -0.946257 0
M  V30 7945 C 749.623 2.80843 -2.04315 0
M  V30 7946 C 748.577 2.84094 -3.20117 0
M  V30 7947 C 747.903 4.2406 -3.25696 0
M  V30 7948 C 749.203 2.50334 -4.58399 0
M  V30 7949 H 750.897 1.18478 -2.74961 0
M  V30 7950 H 748.443 0.568509 -1.32303 0
M  V30 7951 H 750.396 3.56821 -2.2418 0
M  V30 7952 H 749.12 3.07471 -1.10132 0
M  V30 7953 H 747.779 2.10568 -3.00094 0
M  V30 7954 H 747.427 4.47785 -2.29123 0
M  V30 7955 H 747.127 4.27147 -4.03509 0
M  V30 7956 H 748.651 5.0189 -3.47762 0
M  V30 7957 H 750.065 3.16025 -4.78332 0
M  V30 7958 H 748.462 2.64717 -5.38558 0
M  V30 7959 H 749.532 1.45542 -4.62543 0
M  V30 7960 N 750.875 1.45233 0.611969 0
M  V30 7961 C 752.103 1.52539 1.39784 0
M  V30 7962 C 752.518 0.156533 1.8815 0
M  V30 7963 O 751.875 -0.84112 1.61961 0
M  V30 7964 C 751.926 2.50614 2.60528 0
M  V30 7965 O 751.647 3.8218 2.14173 0
M  V30 7966 C 753.148 2.67574 3.53439 0
M  V30 7967 H 750.368 0.51674 0.428043 0
M  V30 7968 H 752.912 1.90379 0.746727 0
M  V30 7969 H 751.067 2.15858 3.2169 0
M  V30 7970 H 751.481 4.35305 2.92592 0
M  V30 7971 H 752.955 3.40184 4.34717 0
M  V30 7972 H 753.432 1.73458 4.03496 0
M  V30 7973 H 754.038 3.0331 2.98133 0
M  V30 7974 N 752.353 -0.854086 1.3245 0
M  V30 7975 C 753.599 -1.6105 1.24235 0
M  V30 7976 C 753.954 -1.91421 -0.193877 0
M  V30 7977 O 753.247 -1.54599 -1.1318 0
M  V30 7978 C 753.441 -2.93746 2.03587 0
M  V30 7979 C 753.27 -2.76335 3.54781 0
M  V30 7980 C 752.04 -2.74687 4.24117 0
M  V30 7981 C 754.238 -2.50052 4.4942 0
M  V30 7982 N 752.22 -2.48493 5.6136 0
M  V30 7983 C 753.591 -2.33269 5.74444 0
M  V30 7984 C 755.646 -2.35525 4.38671 0
M  V30 7985 C 754.349 -2.03434 6.89933 0
M  V30 7986 C 756.375 -2.07081 5.5396 0
M  V30 7987 C 755.737 -1.91098 6.77983 0
M  V30 7988 H 751.836 -0.593008 0.50977 0
M  V30 7989 H 754.42 -1.00392 1.66822 0
M  V30 7990 H 752.591 -3.52382 1.63345 0
M  V30 7991 H 754.323 -3.58768 1.87263 0
M  V30 7992 H 751.078 -2.87647 3.7624 0
M  V30 7993 H 751.502 -2.38322 6.33665 0
M  V30 7994 H 756.144 -2.46602 3.43435 0
M  V30 7995 H 753.862 -1.91095 7.85181 0
M  V30 7996 H 757.448 -1.96618 5.4757 0
M  V30 7997 H 756.328 -1.69402 7.65684 0
M  V30 7998 N 753.831 -1.1567 -1.07043 0
M  V30 7999 C 754.778 -0.856336 -2.14326 0
M  V30 8000 C 755.748 0.192051 -1.64986 0
M  V30 8001 O 756.933 0.0589148 -1.90709 0
M  V30 8002 C 754.073 -0.355227 -3.43267 0
M  V30 8003 C 753.186 -1.46555 -4.06381 0
M  V30 8004 C 752.321 -0.920245 -5.23168 0
M  V30 8005 C 751.36 -2.00729 -5.78251 0
M  V30 8006 N 750.497 -1.47813 -6.86364 0
M  V30 8007 H 755.337 -1.77514 -2.39359 0
M  V30 8008 H 752.874 -0.885676 -1.17449 0
M  V30 8009 H 754.832 -0.0463804 -4.17174 0
M  V30 8010 H 753.462 0.526649 -3.18475 0
M  V30 8011 H 752.514 -1.89052 -3.30096 0
M  V30 8012 H 753.826 -2.28616 -4.43324 0
M  V30 8013 H 752.98 -0.564127 -6.04072 0
M  V30 8014 H 751.719 -0.0688477 -4.87651 0
M  V30 8015 H 750.724 -2.3722 -4.95991 0
M  V30 8016 H 751.949 -2.86252 -6.15822 0
M  V30 8017 H 749.895 -0.649145 -6.5278 0
M  V30 8018 H 749.812 -2.23498 -7.22208 0
M  V30 8019 H 751.08 -1.15036 -7.70965 0
M  V30 8020 N 755.309 1.25446 -0.953992 0
M  V30 8021 C 756.242 2.24341 -0.417912 0
M  V30 8022 C 757.22 1.54709 0.5004 0
M  V30 8023 O 758.404 1.83414 0.434923 0
M  V30 8024 C 755.531 3.36352 0.398155 0
M  V30 8025 C 754.577 4.24007 -0.460461 0
M  V30 8026 S 755.41 5.00951 -1.89231 0
M  V30 8027 C 756.566 6.1643 -1.08465 0
M  V30 8028 H 756.799 2.69465 -1.25602 0
M  V30 8029 H 754.332 1.34512 -0.758018 0
M  V30 8030 H 756.29 4.01325 0.863059 0
M  V30 8031 H 754.951 2.89813 1.21108 0
M  V30 8032 H 754.144 5.03728 0.165415 0
M  V30 8033 H 753.746 3.63965 -0.860549 0
M  V30 8034 H 756.038 6.76681 -0.333017 0
M  V30 8035 H 756.981 6.8335 -1.85577 0
M  V30 8036 H 757.389 5.61139 -0.615062 0
M  V30 8037 N 756.787 0.722489 1.40064 0
M  V30 8038 C 758.012 0.273446 2.05589 0
M  V30 8039 C 758.437 -1.07875 1.54093 0
M  V30 8040 O 757.795 -1.68095 0.679252 0
M  V30 8041 C 757.843 0.271023 3.5958 0
M  V30 8042 O 756.947 -0.745499 4.05606 0
M  V30 8043 H 756.288 0.126856 0.65177 0
M  V30 8044 H 758.818 0.984906 1.79334 0
M  V30 8045 H 758.828 0.111084 4.07849 0
M  V30 8046 H 757.503 1.25776 3.96425 0
M  V30 8047 H 756.08 -0.552719 3.68781 0
M  V30 8048 N 758.265 -1.50454 0.469181 0
M  V30 8049 C 759.511 -2.02615 -0.0865971 0
M  V30 8050 C 759.844 -1.35062 -1.39542 0
M  V30 8051 O 759.119 -0.475701 -1.88593 0
M  V30 8052 C 759.402 -3.59068 -0.272385 0
M  V30 8053 C 759.255 -4.37196 1.05733 0
M  V30 8054 C 760.574 -4.2793 -1.0278 0
M  V30 8055 H 757.693 -0.736389 -0.0299977 0
M  V30 8056 H 760.335 -1.79792 0.614399 0
M  V30 8057 H 758.485 -3.78646 -0.869471 0
M  V30 8058 H 760.157 -4.29195 1.69084 0
M  V30 8059 H 758.4 -4.01013 1.65442 0
M  V30 8060 H 759.071 -5.44924 0.880997 0
M  V30 8061 H 761.547 -4.12816 -0.521718 0
M  V30 8062 H 760.423 -5.37214 -1.12659 0
M  V30 8063 H 760.684 -3.90968 -2.0639 0
M  V30 8064 N 759.743 -0.201713 -1.56304 0
M  V30 8065 C 761.159 0.154025 -1.58855 0
M  V30 8066 C 761.359 1.60516 -1.21807 0
M  V30 8067 O 760.415 2.34193 -0.94393 0
M  V30 8068 C 761.728 -0.154319 -3.00304 0
M  V30 8069 C 763.276 -0.0949578 -3.12856 0
M  V30 8070 C 763.751 -0.376703 -4.56448 0
M  V30 8071 N 765.242 -0.325558 -4.62054 0
M  V30 8072 C 765.977 -0.51732 -5.71062 0
M  V30 8073 N 765.473 -0.769789 -6.8851 0
M  V30 8074 N 767.266 -0.45112 -5.60287 0
M  V30 8075 H 759.417 -1.14858 -1.78666 0
M  V30 8076 H 761.68 -0.458934 -0.829508 0
M  V30 8077 H 761.386 -1.16074 -3.31994 0
M  V30 8078 H 761.26 0.540014 -3.73314 0
M  V30 8079 H 763.647 0.902075 -2.80974 0
M  V30 8080 H 763.728 -0.822468 -2.42217 0
M  V30 8081 H 763.372 -1.37108 -4.89044 0
M  V30 8082 H 763.302 0.371772 -5.25286 0
M  V30 8083 H 765.793 -0.137308 -3.7765 0
M  V30 8084 H 766.106 -0.904744 -7.67486 0
M  V30 8085 H 764.451 -0.806758 -6.90302 0
M  V30 8086 H 767.642 -0.254253 -4.67409 0
M  V30 8087 H 767.815 -0.603982 -6.45179 0
M  V30 8088 N 761.222 1.57436 0.0718424 0
M  V30 8089 C 762.499 1.78312 0.804006 0
M  V30 8090 C 762.879 0.789273 1.9579 0
M  V30 8091 O 762.227 -0.177605 2.27809 0
M  V30 8092 C 762.437 3.24798 1.277 0
M  V30 8093 C 763.785 3.88627 1.71039 0
M  V30 8094 O 764.809 3.28689 1.37266 0
M  V30 8095 O 763.668 4.94073 2.33567 0
M  V30 8096 H 760.762 0.73178 0.385262 0
M  V30 8097 H 763.308 1.69621 0.0519219 0
M  V30 8098 H 762.08 3.88688 0.45134 0
M  V30 8099 H 761.703 3.38213 2.0904 0
M  V30 8100 N 762.7 -0.34323 1.53817 0
M  V30 8101 C 763.94 -1.09188 1.72793 0
M  V30 8102 C 764.304 -1.85876 0.481062 0
M  V30 8103 O 765.505 -2.63158 0.547851 0
M  V30 8104 C 763.776 -2.00783 2.9567 0
M  V30 8105 S 765.335 -2.82866 3.35459 0
M  V30 8106 H 762.153 -0.368926 0.607795 0
M  V30 8107 H 764.755 -0.370265 1.91962 0
M  V30 8108 H 763.459 -1.43245 3.84589 0
M  V30 8109 H 762.99 -2.77381 2.78968 0
M  V30 8110 H 765.005 -4.03196 2.89218 0
M  V30 8111 N 764.178 -1.45556 -0.604258 0
M  V30 8112 C 765.141 -1.54091 -1.69672 0
M  V30 8113 C 766.141 -0.420076 -1.55216 0
M  V30 8114 O 767.331 -0.683671 -1.60224 0
M  V30 8115 C 764.463 -1.44063 -3.08964 0
M  V30 8116 H 765.656 -2.51431 -1.6347 0
M  V30 8117 H 763.209 -1.33046 -0.820273 0
M  V30 8118 H 763.944 -0.479201 -3.2074 0
M  V30 8119 H 763.729 -2.25362 -3.20865 0
M  V30 8120 H 765.219 -1.53075 -3.88533 0
M  V30 8121 N 765.656 0.84705 -1.32902 0
M  V30 8122 C 766.902 1.60389 -1.25088 0
M  V30 8123 C 767.257 1.91521 0.183723 0
M  V30 8124 O 766.55 1.55197 1.12359 0
M  V30 8125 C 766.744 2.92663 -2.05142 0
M  V30 8126 C 766.573 2.74449 -3.56241 0
M  V30 8127 C 765.343 2.72434 -4.25567 0
M  V30 8128 C 767.541 2.47666 -4.5074 0
M  V30 8129 N 765.523 2.45512 -5.62669 0
M  V30 8130 C 766.894 2.30219 -5.75673 0
M  V30 8131 C 768.949 2.33196 -4.39914 0
M  V30 8132 C 767.652 1.99772 -6.91002 0
M  V30 8133 C 769.678 2.0414 -5.5505 0
M  V30 8134 C 769.04 1.875 -6.78987 0
M  V30 8135 H 765.139 0.590296 -0.512908 0
M  V30 8136 H 767.723 0.995058 -1.67352 0
M  V30 8137 H 765.894 3.51511 -1.65211 0
M  V30 8138 H 767.626 3.5777 -1.89163 0
M  V30 8139 H 764.381 2.85647 -3.7776 0
M  V30 8140 H 764.805 2.34958 -6.3492 0
M  V30 8141 H 769.447 2.44777 -3.44738 0
M  V30 8142 H 767.165 1.86928 -7.86183 0
M  V30 8143 H 770.751 1.93711 -5.48605 0
M  V30 8144 H 769.631 1.65339 -7.66572 0
M  V30 8145 N 767.134 1.16236 1.06428 0
M  V30 8146 C 768.064 0.890807 2.1584 0
M  V30 8147 C 769.045 -0.162333 1.69324 0
M  V30 8148 O 770.23 -0.0147191 1.94194 0
M  V30 8149 C 767.36 0.389615 3.45108 0
M  V30 8150 C 766.314 1.38051 4.05125 0
M  V30 8151 C 765.64 0.737773 5.29586 0
M  V30 8152 C 766.94 2.74965 4.44062 0
M  V30 8153 H 768.634 1.80577 2.38814 0
M  V30 8154 H 766.18 0.869657 1.14774 0
M  V30 8155 H 768.133 0.187127 4.20984 0
M  V30 8156 H 766.857 -0.560851 3.21748 0
M  V30 8157 H 765.516 1.56952 3.31303 0
M  V30 8158 H 765.164 -0.219135 5.02522 0
M  V30 8159 H 764.864 1.39914 5.70699 0
M  V30 8160 H 766.388 0.545275 6.0816 0
M  V30 8161 H 767.802 2.59855 5.11027 0
M  V30 8162 H 766.199 3.37563 4.96156 0
M  V30 8163 H 767.269 3.30321 3.54987 0
M  V30 8164 N 768.612 -1.24939 0.960631 0
M  V30 8165 C 770.028 -1.45039 0.666018 0
M  V30 8166 C 770.228 -1.86021 -0.774501 0
M  V30 8167 O 769.284 -1.99392 -1.54916 0
M  V30 8168 C 770.597 -2.51775 1.64408 0
M  V30 8169 C 772.145 -2.6561 1.65592 0
M  V30 8170 C 772.62 -3.75536 2.62177 0
M  V30 8171 N 774.111 -3.82954 2.60577 0
M  V30 8172 C 774.846 -4.67517 3.31987 0
M  V30 8173 N 774.342 -5.56321 4.1289 0
M  V30 8174 N 776.135 -4.61535 3.20845 0
M  V30 8175 H 768.286 -0.96632 1.89145 0
M  V30 8176 H 770.549 -0.486034 0.813926 0
M  V30 8177 H 770.255 -2.28534 2.67329 0
M  V30 8178 H 770.129 -3.49804 1.41128 0
M  V30 8179 H 772.516 -2.88212 0.633846 0
M  V30 8180 H 772.597 -1.67962 1.92931 0
M  V30 8181 H 772.241 -3.53684 3.64514 0
M  V30 8182 H 772.171 -4.72682 2.32119 0
M  V30 8183 H 774.662 -3.19478 2.01847 0
M  V30 8184 H 774.975 -6.17787 4.64283 0
M  V30 8185 H 773.32 -5.5601 4.16987 0
M  V30 8186 H 776.511 -3.91169 2.57108 0
M  V30 8187 H 776.684 -5.27214 3.76762 0
M  V30 8188 N 770.09 -0.729906 -1.39679 0
M  V30 8189 C 771.506 -0.404951 -1.54377 0
M  V30 8190 C 771.706 1.08476 -1.6981 0
M  V30 8191 O 770.762 1.87087 -1.69572 0
M  V30 8192 C 772.075 -1.18352 -2.76429 0
M  V30 8193 C 773.623 -1.17124 -2.9026 0
M  V30 8194 C 774.098 -1.93227 -4.15244 0
M  V30 8195 N 775.589 -1.90368 -4.22273 0
M  V30 8196 C 776.324 -2.46065 -5.17918 0
M  V30 8197 N 775.82 -3.10378 -6.19385 0
M  V30 8198 N 777.613 -2.36127 -5.10099 0
M  V30 8199 H 769.764 -1.69567 -1.27909 0
M  V30 8200 H 772.027 -0.717527 -0.619564 0
M  V30 8201 H 771.733 -2.23743 -2.71352 0
M  V30 8202 H 771.607 -0.784589 -3.6895 0
M  V30 8203 H 773.994 -0.125478 -2.94833 0
M  V30 8204 H 774.075 -1.60951 -1.98817 0
M  V30 8205 H 773.719 -2.97802 -4.11432 0
M  V30 8206 H 773.649 -1.4681 -5.05722 0
M  V30 8207 H 776.14 -1.4351 -3.4959 0
M  V30 8208 H 776.453 -3.50358 -6.88817 0
M  V30 8209 H 774.798 -3.14467 -6.19787 0
M  V30 8210 H 777.989 -1.85529 -4.29763 0
M  V30 8211 H 778.162 -2.79833 -5.84463 0
M  V30 8212 N 771.568 1.50203 -0.477153 0
M  V30 8213 C 772.793 2.07263 0.0754986 0
M  V30 8214 C 773.218 1.33801 1.32208 0
M  V30 8215 O 772.576 0.387482 1.77111 0
M  V30 8216 C 772.624 3.59028 0.336348 0
M  V30 8217 O 771.728 3.87339 1.4157 0
M  V30 8218 H 771.069 0.663815 -0.015662 0
M  V30 8219 H 773.599 1.93321 -0.669936 0
M  V30 8220 H 773.609 4.03927 0.575034 0
M  V30 8221 H 772.284 4.11912 -0.574551 0
M  V30 8222 H 770.861 3.54272 1.16385 0
M  V30 8223 N 773.046 0.209999 1.56195 0
M  V30 8224 C 774.457 -0.299943 1.84275 0
M  V30 8225 C 774.808 -1.60314 1.1311 0
M  V30 8226 O 773.933 -2.1273 0.396874 0
M  V30 8227 C 774.528 -0.550986 3.3429 0
M  V30 8228 C 773.087 -1.00526 3.62728 0
M  V30 8229 C 772.234 -0.0619828 2.77231 0
M  V30 8230 H 775.185 0.433458 1.52666 0
M  V30 8231 H 775.206 -1.39846 3.53869 0
M  V30 8232 H 774.718 0.397669 3.86057 0
M  V30 8233 H 772.819 -1.96768 3.16407 0
M  V30 8234 H 772.932 -0.887664 4.70805 0
M  V30 8235 H 771.296 -0.566648 2.48317 0
M  V30 8236 H 772.079 0.881383 3.31793 0
M  V30 8237 N 774.524 -1.57472 -0.0634922 0
M  V30 8238 C 775.772 -1.87283 -0.759563 0
M  V30 8239 C 776.093 -0.803135 -1.77693 0
M  V30 8240 O 775.363 0.167293 -1.95184 0
M  V30 8241 H 773.943 -0.691106 -0.283516 0
M  V30 8242 H 776.605 -1.94864 -0.0376091 0
M  V30 8243 H 775.701 -2.85064 -1.27062 0
M  V30 8244 N 776.003 0.335068 -1.53997 0
M  V30 8245 C 777.249 1.07594 -1.71905 0
M  V30 8246 C 777.582 1.88039 -0.485264 0
M  V30 8247 O 776.857 1.87482 0.517752 0
M  V30 8248 C 777.14 2.01016 -2.98772 0
M  V30 8249 C 776.993 1.23977 -4.32377 0
M  V30 8250 C 778.312 3.0071 -3.21343 0
M  V30 8251 H 775.431 0.38976 -0.625505 0
M  V30 8252 H 778.073 0.353684 -1.86679 0
M  V30 8253 H 776.223 2.62603 -2.86307 0
M  V30 8254 H 777.895 0.649383 -4.56706 0
M  V30 8255 H 776.138 0.541878 -4.30402 0
M  V30 8256 H 776.809 1.92512 -5.17342 0
M  V30 8257 H 779.285 2.4924 -3.33194 0
M  V30 8258 H 778.161 3.63272 -4.11491 0
M  V30 8259 H 778.422 3.72549 -2.38033 0
M  V30 8260 N 777.481 1.45874 0.596531 0
M  V30 8261 C 778.729 1.5017 1.35253 0
M  V30 8262 C 779.05 0.149246 1.94428 0
M  V30 8263 O 778.32 -0.82268 1.77789 0
M  V30 8264 H 776.9 0.553052 0.502138 0
M  V30 8265 H 779.562 1.81908 0.699671 0
M  V30 8266 H 778.658 2.24671 2.16632 0
M  V30 8267 N 778.959 -0.83999 1.33349 0
M  V30 8268 C 780.199 -1.60888 1.26073 0
M  V30 8269 C 780.563 -1.91234 -0.17129 0
M  V30 8270 O 781.764 -2.66269 -0.36799 0
M  V30 8271 C 780.035 -2.88438 2.11042 0
M  V30 8272 S 781.594 -3.79116 2.20944 0
M  V30 8273 H 778.412 -0.55166 0.448545 0
M  V30 8274 H 781.014 -0.99359 1.68369 0
M  V30 8275 H 779.718 -2.64113 3.14121 0
M  V30 8276 H 779.249 -3.54974 1.69579 0
M  V30 8277 H 781.264 -4.76921 1.36969 0
M  V30 8278 N 780.437 -1.16799 -1.0581 0
M  V30 8279 C 781.683 -0.953935 -1.78963 0
M  V30 8280 C 782.016 0.516638 -1.87202 0
M  V30 8281 O 781.291 1.38338 -1.36721 0
M  V30 8282 C 781.574 -1.58808 -3.23191 0
M  V30 8283 C 781.427 -3.13032 -3.23003 0
M  V30 8284 C 782.746 -1.2868 -4.20867 0
M  V30 8285 H 779.865 -0.347972 -0.64968 0
M  V30 8286 H 782.507 -1.44204 -1.23715 0
M  V30 8287 H 780.657 -1.17303 -3.70368 0
M  V30 8288 H 782.329 -3.63553 -2.83949 0
M  V30 8289 H 780.572 -3.46108 -2.61518 0
M  V30 8290 H 781.243 -3.52527 -4.24769 0
M  V30 8291 H 783.719 -1.6461 -3.82155 0
M  V30 8292 H 782.595 -1.75645 -5.20038 0
M  V30 8293 H 782.856 -0.206491 -4.41618 0
M  V30 8294 N 781.915 1.24427 -0.967243 0
M  V30 8295 C 783.326 1.74349 -0.667785 0
M  V30 8296 C 783.677 1.78403 0.816509 0
M  V30 8297 O 782.802 1.41315 1.63887 0
M  V30 8298 C 783.397 3.16628 -1.20548 0
M  V30 8299 C 781.956 3.64059 -0.955934 0
M  V30 8300 C 781.103 2.42715 -1.34106 0
M  V30 8301 H 784.054 1.10136 -1.14262 0
M  V30 8302 H 784.075 3.76183 -0.571547 0
M  V30 8303 H 783.587 3.13646 -2.28578 0
M  V30 8304 H 781.688 3.72441 0.108858 0
M  V30 8305 H 781.801 4.51549 -1.60126 0
M  V30 8306 H 780.165 2.43114 -0.759452 0
M  V30 8307 H 780.948 2.42414 -2.43085 0
M  V30 8308 N 783.393 0.737304 1.3929 0
M  V30 8309 C 784.356 0.10731 2.28949 0
M  V30 8310 C 785.356 -0.664716 1.46418 0
M  V30 8311 O 786.546 -0.493392 1.67067 0
M  V30 8312 C 783.678 -0.857145 3.29948 0
M  V30 8313 H 784.871 0.89725 2.86163 0
M  V30 8314 H 782.424 0.503279 1.47976 0
M  V30 8315 H 783.159 -1.67336 2.77794 0
M  V30 8316 H 782.944 -0.306167 3.90903 0
M  V30 8317 H 784.434 -1.29444 3.97031 0
M  V30 8318 N 784.871 -1.49948 0.485112 0
M  V30 8319 C 785.834 -2.27351 -0.290546 0
M  V30 8320 C 786.834 -1.32704 -0.908087 0
M  V30 8321 O 788.024 -1.56007 -0.775085 0
M  V30 8322 C 785.156 -3.10135 -1.41524 0
M  V30 8323 H 786.349 -2.97374 0.388454 0
M  V30 8324 H 783.902 -1.54453 0.239586 0
M  V30 8325 H 784.637 -2.44641 -2.12888 0
M  V30 8326 H 784.422 -3.79705 -0.978074 0
M  V30 8327 H 785.912 -3.68638 -1.96204 0
M  V30 8328 N 786.349 -0.21828 -1.56081 0
M  V30 8329 C 787.259 0.704602 -2.23769 0
M  V30 8330 C 788.275 1.21633 -1.24425 0
M  V30 8331 O 789.451 1.25862 -1.57228 0
M  V30 8332 C 786.516 1.89725 -2.90182 0
M  V30 8333 C 785.577 1.42782 -4.0486 0
M  V30 8334 C 784.81 2.56361 -4.68097 0
M  V30 8335 O 785.033 3.74417 -4.30312 0
M  V30 8336 O 783.967 2.2775 -5.57148 0
M  V30 8337 H 787.793 0.158007 -3.03289 0
M  V30 8338 H 785.378 0.0120279 -1.49395 0
M  V30 8339 H 787.26 2.59382 -3.32113 0
M  V30 8340 H 785.935 2.432 -2.13624 0
M  V30 8341 H 784.842 0.699359 -3.67505 0
M  V30 8342 H 786.175 0.939474 -4.83151 0
M  V30 8343 N 787.827 1.57504 0.0551401 0
M  V30 8344 C 788.777 2.0128 1.071 0
M  V30 8345 C 789.761 0.897592 1.33537 0
M  V30 8346 O 790.953 1.16151 1.33558 0
M  V30 8347 C 788.082 2.47414 2.37994 0
M  V30 8348 C 787.168 3.65703 2.14761 0
M  V30 8349 N 787.559 4.79323 1.61504 0
M  V30 8350 C 785.857 3.72574 2.45162 0
M  V30 8351 C 786.558 5.61089 1.53472 0
M  V30 8352 N 785.534 5.05426 2.00114 0
M  V30 8353 H 789.336 2.86558 0.652829 0
M  V30 8354 H 786.85 1.60274 0.26193 0
M  V30 8355 H 788.847 2.77023 3.11551 0
M  V30 8356 H 787.507 1.6353 2.80514 0
M  V30 8357 H 788.518 5.01284 1.30134 0
M  V30 8358 H 785.195 2.99439 2.90934 0
M  V30 8359 H 786.585 6.62328 1.13008 0
M  V30 8360 N 789.305 -0.326896 1.54172 0
M  V30 8361 C 790.721 -0.671034 1.44808 0
M  V30 8362 C 790.921 -1.91781 0.618258 0
M  V30 8363 O 789.977 -2.52235 0.115751 0
M  V30 8364 C 791.29 -0.848147 2.88491 0
M  V30 8365 C 792.838 -0.945702 2.98371 0
M  V30 8366 C 793.313 -1.15501 4.43197 0
M  V30 8367 N 794.804 -1.22183 4.46795 0
M  V30 8368 C 795.539 -1.4016 5.56006 0
M  V30 8369 N 795.035 -1.55202 6.75192 0
M  V30 8370 N 796.828 -1.42841 5.43648 0
M  V30 8371 H 788.979 0.49262 2.06608 0
M  V30 8372 H 791.242 0.158574 0.934643 0
M  V30 8373 H 790.948 -0.00329969 3.517 0
M  V30 8374 H 790.822 -1.74497 3.34411 0
M  V30 8375 H 793.209 -1.78106 2.35292 0
M  V30 8376 H 793.29 -0.0254215 2.55787 0
M  V30 8377 H 792.934 -0.324521 5.06862 0
M  V30 8378 H 792.864 -2.08911 4.83388 0
M  V30 8379 H 795.355 -1.12016 3.60917 0
M  V30 8380 H 795.668 -1.68601 7.54184 0
M  V30 8381 H 794.013 -1.52306 6.78106 0
M  V30 8382 H 797.204 -1.30683 4.49488 0
M  V30 8383 H 797.377 -1.56509 6.28816 0
M  V30 8384 N 790.784 -1.46188 -0.588786 0
M  V30 8385 C 791.714 -1.59148 -1.70863 0
M  V30 8386 C 792.695 -0.442083 -1.64255 0
M  V30 8387 O 793.88 -0.667575 -1.82365 0
M  V30 8388 C 791.01 -1.5757 -3.09498 0
M  V30 8389 C 789.964 -2.71418 -3.30932 0
M  V30 8390 C 789.29 -2.549 -4.70032 0
M  V30 8391 C 790.59 -4.1329 -3.19356 0
M  V30 8392 H 792.284 -2.52889 -1.60274 0
M  V30 8393 H 789.83 -1.21707 -0.769638 0
M  V30 8394 H 791.783 -1.65231 -3.87655 0
M  V30 8395 H 790.507 -0.603705 -3.20972 0
M  V30 8396 H 789.166 -2.63216 -2.55172 0
M  V30 8397 H 788.814 -1.55797 -4.78264 0
M  V30 8398 H 788.514 -3.31257 -4.85327 0
M  V30 8399 H 790.038 -2.64443 -5.50366 0
M  V30 8400 H 791.452 -4.22636 -3.87365 0
M  V30 8401 H 789.849 -4.90187 -3.46175 0
M  V30 8402 H 790.919 -4.33874 -2.16522 0
M  V30 8403 N 792.262 0.832906 -1.33792 0
M  V30 8404 C 793.678 1.1245 -1.13257 0
M  V30 8405 C 793.878 2.01369 0.0725832 0
M  V30 8406 O 792.934 2.41071 0.751082 0
M  V30 8407 C 794.247 1.78084 -2.42294 0
M  V30 8408 C 795.795 1.90624 -2.48257 0
M  V30 8409 C 796.27 2.59673 -3.77271 0
M  V30 8410 N 797.761 2.67181 -3.78376 0
M  V30 8411 C 798.496 3.21313 -4.74916 0
M  V30 8412 N 797.992 3.76086 -5.81835 0
M  V30 8413 N 799.785 3.19621 -4.62384 0
M  V30 8414 H 791.936 0.241244 -2.11026 0
M  V30 8415 H 794.199 0.169557 -0.932713 0
M  V30 8416 H 793.905 1.20209 -3.30519 0
M  V30 8417 H 793.779 2.78049 -2.5489 0
M  V30 8418 H 796.166 2.4765 -1.60478 0
M  V30 8419 H 796.247 0.89591 -2.39598 0
M  V30 8420 H 795.891 2.03304 -4.65435 0
M  V30 8421 H 795.821 3.61189 -3.8321 0
M  V30 8422 H 798.312 2.28346 -3.01108 0
M  V30 8423 H 798.625 4.15612 -6.51526 0
M  V30 8424 H 796.97 3.74357 -5.85561 0
M  V30 8425 H 800.161 2.76091 -3.7801 0
M  V30 8426 H 800.334 3.61504 -5.37791 0
M  V30 8427 N 793.74 1.17359 1.05189 0
M  V30 8428 C 794.65 0.904984 2.16442 0
M  V30 8429 C 795.666 -0.12686 1.73537 0
M  V30 8430 O 796.842 0.0524127 2.01332 0
M  V30 8431 C 793.907 0.422019 3.44122 0
M  V30 8432 C 792.968 1.52045 4.01473 0
M  V30 8433 C 792.201 1.06044 5.23059 0
M  V30 8434 O 792.424 -0.0854023 5.70336 0
M  V30 8435 O 791.358 1.85349 5.72651 0
M  V30 8436 H 795.184 1.8356 2.41949 0
M  V30 8437 H 792.769 0.95447 1.14936 0
M  V30 8438 H 794.651 0.160208 4.21095 0
M  V30 8439 H 793.326 -0.480444 3.20115 0
M  V30 8440 H 792.233 1.83615 3.25939 0
M  V30 8441 H 793.566 2.39863 4.29798 0
M  V30 8442 N 795.218 -1.23913 0.973828 0
M  V30 8443 C 796.128 -2.28838 0.516735 0
M  V30 8444 C 797.144 -1.68723 -0.425282 0
M  V30 8445 O 798.32 -1.99201 -0.296819 0
M  V30 8446 C 795.385 -3.46233 -0.179914 0
M  V30 8447 C 794.446 -4.21729 0.80269 0
M  V30 8448 C 793.679 -5.33518 0.139191 0
M  V30 8449 O 793.902 -5.60252 -1.07118 0
M  V30 8450 O 792.836 -5.96088 0.834447 0
M  V30 8451 H 796.662 -2.70067 1.38916 0
M  V30 8452 H 794.247 -1.2972 0.74115 0
M  V30 8453 H 796.129 -4.17514 -0.570991 0
M  V30 8454 H 794.804 -3.06969 -1.02721 0
M  V30 8455 H 793.711 -3.52799 1.24434 0
M  V30 8456 H 795.044 -4.64825 1.61859 0
M  V30 8457 N 796.696 -0.74468 -1.38897 0
M  V30 8458 C 797.945 -0.293716 -1.9955 0
M  V30 8459 C 798.258 1.12831 -1.59777 0
M  V30 8460 O 799.464 1.67929 -2.13336 0
M  V30 8461 C 797.92 -0.474188 -3.56762 0
M  V30 8462 C 797.528 -1.90472 -4.05493 0
M  V30 8463 C 799.272 -0.0854875 -4.24414 0
M  V30 8464 C 797.179 -2.03423 -5.55314 0
M  V30 8465 H 796.109 -0.106066 -0.746502 0
M  V30 8466 H 798.76 -0.919948 -1.58774 0
M  V30 8467 H 797.142 0.221092 -3.95382 0
M  V30 8468 H 798.316 -2.63274 -3.78184 0
M  V30 8469 H 796.631 -2.24752 -3.50536 0
M  V30 8470 H 799.228 -0.161133 -5.34457 0
M  V30 8471 H 799.571 0.96066 -4.05064 0
M  V30 8472 H 800.104 -0.732286 -3.91002 0
M  V30 8473 H 796.843 -3.0626 -5.79556 0
M  V30 8474 H 796.363 -1.3507 -5.84394 0
M  V30 8475 H 798.042 -1.81996 -6.20876 0
M  V30 8476 N 798.174 1.49689 -0.493057 0
M  V30 8477 C 799.104 2.31826 0.279073 0
M  V30 8478 C 800.085 1.39733 0.969987 0
M  V30 8479 O 801.27 1.68646 0.962925 0
M  V30 8480 C 798.4 3.20046 1.34862 0
M  V30 8481 C 797.354 4.20869 0.77805 0
M  V30 8482 C 796.68 4.97971 1.94753 0
M  V30 8483 C 797.98 5.21813 -0.225543 0
M  V30 8484 H 799.674 2.96627 -0.406512 0
M  V30 8485 H 797.22 1.42647 -0.196943 0
M  V30 8486 H 799.173 3.76315 1.89645 0
M  V30 8487 H 797.897 2.53172 2.06328 0
M  V30 8488 H 796.556 3.65733 0.252036 0
M  V30 8489 H 796.204 4.27552 2.64969 0
M  V30 8490 H 795.904 5.66186 1.57187 0
M  V30 8491 H 797.428 5.57082 2.49984 0
M  V30 8492 H 798.842 5.72823 0.233864 0
M  V30 8493 H 797.239 5.97872 -0.516622 0
M  V30 8494 H 798.309 4.71209 -1.14412 0
M  V30 8495 N 799.652 0.226554 1.55963 0
M  V30 8496 C 800.615 -0.668015 2.19249 0
M  V30 8497 C 801.615 -1.11794 1.1558 0
M  V30 8498 O 802.805 -1.02593 1.40784 0
M  V30 8499 C 799.937 -1.91571 2.81981 0
M  V30 8500 H 801.13 -0.116175 2.99675 0
M  V30 8501 H 798.683 -0.0230497 1.56283 0
M  V30 8502 H 799.418 -2.50929 2.05439 0
M  V30 8503 H 799.203 -1.6015 3.57903 0
M  V30 8504 H 800.693 -2.55294 3.30477 0
M  V30 8505 N 801.13 -1.57531 -0.0467866 0
M  V30 8506 C 802.077 -2.05387 -1.05285 0
M  V30 8507 C 803.047 -0.939385 -1.36985 0
M  V30 8508 O 804.232 -1.20877 -1.47626 0
M  V30 8509 C 801.372 -2.52343 -2.35408 0
M  V30 8510 C 800.485 -3.77512 -2.10022 0
M  V30 8511 C 799.62 -4.1315 -3.33887 0
M  V30 8512 C 798.659 -5.31286 -3.03976 0
M  V30 8513 N 797.796 -5.62441 -4.20243 0
M  V30 8514 H 802.636 -2.91095 -0.637788 0
M  V30 8515 H 800.173 -1.43939 -0.303322 0
M  V30 8516 H 802.131 -2.77628 -3.11413 0
M  V30 8517 H 800.761 -1.69577 -2.7467 0
M  V30 8518 H 799.813 -3.59417 -1.24594 0
M  V30 8519 H 801.125 -4.63644 -1.83945 0
M  V30 8520 H 800.279 -4.39469 -4.18273 0
M  V30 8521 H 799.018 -3.25634 -3.63062 0
M  V30 8522 H 798.023 -5.04738 -2.17991 0
M  V30 8523 H 799.248 -6.20441 -2.76098 0
M  V30 8524 H 797.194 -4.77885 -4.49402 0
M  V30 8525 H 797.111 -6.43046 -3.97528 0
M  V30 8526 H 798.379 -5.93327 -5.05553 0
M  V30 8527 N 802.608 0.318715 -1.54344 0
M  V30 8528 C 803.855 1.05608 -1.72781 0
M  V30 8529 C 804.183 1.87854 -0.504083 0
M  V30 8530 O 803.438 1.88826 0.51414 0
M  V30 8531 C 803.737 2.00514 -2.95853 0
M  V30 8532 C 803.403 1.34385 -4.30409 0
M  V30 8533 C 802.065 1.16081 -4.66989 0
M  V30 8534 C 804.417 0.869627 -5.13894 0
M  V30 8535 C 801.745 0.490114 -5.84649 0
M  V30 8536 C 804.097 0.212735 -6.32242 0
M  V30 8537 C 802.761 0.0175882 -6.67498 0
M  V30 8538 H 802.031 0.386449 -0.632249 0
M  V30 8539 H 804.678 0.332729 -1.88587 0
M  V30 8540 H 802.983 2.79317 -2.74753 0
M  V30 8541 H 804.68 2.57605 -3.07312 0
M  V30 8542 H 801.27 1.49634 -4.01631 0
M  V30 8543 H 805.454 0.998809 -4.86146 0
M  V30 8544 H 800.71 0.327767 -6.10521 0
M  V30 8545 H 804.884 -0.162699 -6.9621 0
M  V30 8546 H 802.511 -0.504137 -7.58527 0
M  V30 8547 N 804.086 1.46499 0.581025 0
M  V30 8548 C 805.016 1.60052 1.70017 0
M  V30 8549 C 805.997 0.450788 1.64018 0
M  V30 8550 O 807.182 0.677237 1.82009 0
M  V30 8551 C 804.312 1.5921 3.08658 0
M  V30 8552 C 803.266 2.73169 3.29488 0
M  V30 8553 C 802.592 2.57389 4.68674 0
M  V30 8554 C 803.892 4.14978 3.1716 0
M  V30 8555 H 805.586 2.53735 1.5893 0
M  V30 8556 H 803.132 1.22113 0.763173 0
M  V30 8557 H 805.085 1.67285 3.86773 0
M  V30 8558 H 803.809 0.620718 3.20647 0
M  V30 8559 H 802.468 2.64566 2.53773 0
M  V30 8560 H 802.116 1.58331 4.77431 0
M  V30 8561 H 801.816 3.33826 4.83564 0
M  V30 8562 H 803.34 2.67358 5.48956 0
M  V30 8563 H 804.754 4.24684 3.85119 0
M  V30 8564 H 803.151 4.92016 3.4357 0
M  V30 8565 H 804.221 4.35016 2.14218 0
M  V30 8566 N 805.565 -0.825799 1.34232 0
M  V30 8567 C 806.515 -1.92533 1.22128 0
M  V30 8568 C 807.499 -1.60444 0.121002 0
M  V30 8569 O 808.691 -1.73497 0.350385 0
M  V30 8570 C 805.82 -3.29134 0.975995 0
M  V30 8571 C 804.906 -3.6735 2.11931 0
M  V30 8572 N 805.297 -3.77154 3.37029 0
M  V30 8573 C 803.595 -3.97179 2.02891 0
M  V30 8574 C 804.296 -4.10552 4.12095 0
M  V30 8575 N 803.272 -4.23619 3.40658 0
M  V30 8576 H 807.074 -1.98287 2.16932 0
M  V30 8577 H 804.588 -1.01929 1.26429 0
M  V30 8578 H 806.585 -4.07717 0.870187 0
M  V30 8579 H 805.245 -3.24679 0.036606 0
M  V30 8580 H 806.256 -3.60723 3.71618 0
M  V30 8581 H 802.933 -4.00861 1.16692 0
M  V30 8582 H 804.323 -4.25365 5.2011 0
M  V30 8583 N 807.043 -1.17915 -1.04565 0
M  V30 8584 C 808.289 -0.982872 -1.78076 0
M  V30 8585 C 808.644 0.482843 -1.86243 0
M  V30 8586 O 807.937 1.35383 -1.3558 0
M  V30 8587 C 808.131 -1.56528 -3.213 0
M  V30 8588 C 807.96 -3.0861 -3.27093 0
M  V30 8589 C 806.73 -3.77389 -3.36014 0
M  V30 8590 C 808.928 -4.06146 -3.15515 0
M  V30 8591 N 806.91 -5.1702 -3.31004 0
M  V30 8592 C 808.281 -5.32268 -3.17948 0
M  V30 8593 C 810.336 -3.97732 -2.99522 0
M  V30 8594 C 809.039 -6.50951 -3.06031 0
M  V30 8595 C 811.065 -5.16007 -2.88948 0
M  V30 8596 C 810.427 -6.41018 -2.9202 0
M  V30 8597 H 806.526 -0.413617 -0.66366 0
M  V30 8598 H 809.11 -1.49607 -1.24603 0
M  V30 8599 H 807.281 -1.07833 -3.73131 0
M  V30 8600 H 809.013 -1.30501 -3.83082 0
M  V30 8601 H 805.768 -3.28098 -3.41538 0
M  V30 8602 H 806.192 -5.90031 -3.31952 0
M  V30 8603 H 810.834 -3.01919 -2.95981 0
M  V30 8604 H 808.552 -7.46968 -3.08326 0
M  V30 8605 H 812.138 -5.11283 -2.77635 0
M  V30 8606 H 811.018 -7.30999 -2.83919 0
M  V30 8607 N 808.521 1.23394 -0.980386 0
M  V30 8608 C 809.451 2.2717 -0.540024 0
M  V30 8609 C 810.432 1.64659 0.426787 0
M  V30 8610 O 811.617 1.91543 0.320153 0
M  V30 8611 C 808.747 3.46939 0.15836 0
M  V30 8612 C 807.701 4.21802 -0.725732 0
M  V30 8613 C 807.027 5.34597 0.104866 0
M  V30 8614 C 808.327 4.81802 -2.01654 0
M  V30 8615 H 810.021 2.64257 -1.40743 0
M  V30 8616 H 807.567 1.2703 -0.678193 0
M  V30 8617 H 809.52 4.18683 0.477737 0
M  V30 8618 H 808.244 3.08912 1.06022 0
M  V30 8619 H 806.903 3.51875 -1.02857 0
M  V30 8620 H 806.551 4.92812 1.00726 0
M  V30 8621 H 806.251 5.85607 -0.483557 0
M  V30 8622 H 807.775 6.09163 0.418624 0
M  V30 8623 H 809.189 5.45554 -1.76193 0
M  V30 8624 H 807.586 5.43098 -2.55273 0
M  V30 8625 H 808.656 4.02549 -2.70338 0
M  V30 8626 N 809.999 0.752036 1.385 0
M  V30 8627 C 810.932 0.0717411 2.28087 0
M  V30 8628 C 811.91 -0.729945 1.45295 0
M  V30 8629 O 813.094 -0.708902 1.74662 0
M  V30 8630 C 810.221 -0.905237 3.26379 0
M  V30 8631 C 809.267 -0.189973 4.26077 0
M  V30 8632 S 810.1 1.10815 5.23909 0
M  V30 8633 C 811.256 0.134202 6.25756 0
M  V30 8634 H 811.489 0.831438 2.85437 0
M  V30 8635 H 809.022 0.544552 1.44478 0
M  V30 8636 H 810.98 -1.46358 3.83523 0
M  V30 8637 H 809.641 -1.63789 2.68015 0
M  V30 8638 H 808.834 -0.92985 4.95348 0
M  V30 8639 H 808.436 0.296804 3.7282 0
M  V30 8640 H 810.728 -0.700345 6.7387 0
M  V30 8641 H 811.671 0.794532 7.03628 0
M  V30 8642 H 812.079 -0.245801 5.63965 0
M  V30 8643 N 811.477 -1.49425 0.500989 0
M  V30 8644 C 812.702 -2.07356 -0.0425154 0
M  V30 8645 C 813.127 -1.35887 -1.30063 0
M  V30 8646 O 812.485 -0.41561 -1.76472 0
M  V30 8647 C 812.533 -3.59518 -0.279188 0
M  V30 8648 O 811.637 -3.89542 -1.3539 0
M  V30 8649 H 810.978 -0.663482 0.0262207 0
M  V30 8650 H 813.508 -1.92231 0.700607 0
M  V30 8651 H 813.518 -4.04791 -0.5107 0
M  V30 8652 H 812.193 -4.10946 0.640009 0
M  V30 8653 H 810.77 -3.56079 -1.10734 0
M  V30 8654 N 812.955 -0.234822 -1.55841 0
M  V30 8655 C 814.201 0.393843 -1.98939 0
M  V30 8656 C 814.534 1.58466 -1.1226 0
M  V30 8657 O 813.809 1.93635 -0.183242 0
M  V30 8658 C 814.092 0.815492 -3.50745 0
M  V30 8659 C 813.945 -0.379878 -4.48193 0
M  V30 8660 C 815.264 1.66687 -4.07312 0
M  V30 8661 H 812.383 0.141681 -0.723253 0
M  V30 8662 H 815.025 -0.333716 -1.87046 0
M  V30 8663 H 813.175 1.43541 -3.6101 0
M  V30 8664 H 814.847 -1.0182 -4.49923 0
M  V30 8665 H 813.09 -1.02507 -4.21515 0
M  V30 8666 H 813.761 -0.0417069 -5.51984 0
M  V30 8667 H 816.237 1.14369 -4.00074 0
M  V30 8668 H 815.113 1.93078 -5.13821 0
M  V30 8669 H 815.374 2.63468 -3.55017 0
M  V30 8670 N 814.433 1.57553 0.0384317 0
M  V30 8671 C 815.663 1.92813 0.742064 0
M  V30 8672 C 816.071 0.832157 1.69917 0
M  V30 8673 O 815.414 -0.200917 1.82598 0
M  V30 8674 C 815.476 3.23806 1.56172 0
M  V30 8675 C 815.14 4.50459 0.770407 0
M  V30 8676 C 816.137 5.19846 0.0748006 0
M  V30 8677 C 813.822 4.97001 0.727714 0
M  V30 8678 C 815.816 6.34047 -0.652902 0
M  V30 8679 C 813.503 6.111 -0.00373992 0
M  V30 8680 C 814.501 6.79477 -0.692816 0
M  V30 8681 O 814.189 7.91395 -1.41241 0
M  V30 8682 H 813.921 0.641174 0.214179 0
M  V30 8683 H 816.475 2.054 0.00285095 0
M  V30 8684 H 814.705 3.0752 2.34453 0
M  V30 8685 H 816.394 3.44463 2.14709 0
M  V30 8686 H 817.16 4.84899 0.098875 0
M  V30 8687 H 813.039 4.43629 1.25355 0
M  V30 8688 H 816.583 6.87353 -1.1913 0
M  V30 8689 H 812.48 6.45493 -0.0297703 0
M  V30 8690 H 813.248 8.07702 -1.32512 0
M  V30 8691 N 815.911 -0.310526 1.54511 0
M  V30 8692 C 817.157 -1.04846 1.73595 0
M  V30 8693 C 817.49 -1.87244 0.515118 0
M  V30 8694 O 816.765 -1.88282 -0.48786 0
M  V30 8695 C 817.048 -1.96237 3.01932 0
M  V30 8696 C 816.901 -1.17082 4.34295 0
M  V30 8697 C 818.22 -2.9556 3.26086 0
M  V30 8698 H 815.339 -0.37976 0.631626 0
M  V30 8699 H 817.981 -0.32394 1.87218 0
M  V30 8700 H 816.131 -2.58015 2.90449 0
M  V30 8701 H 817.803 -0.576643 4.57682 0
M  V30 8702 H 816.046 -0.473336 4.3121 0
M  V30 8703 H 816.717 -1.84257 5.20339 0
M  V30 8704 H 819.193 -2.43908 3.37117 0
M  V30 8705 H 818.069 -3.5668 4.17218 0
M  V30 8706 H 818.33 -3.68715 2.4393 0
M  V30 8707 N 817.389 -1.46805 -0.573248 0
M  V30 8708 C 818.635 -1.5283 -1.33307 0
M  V30 8709 C 818.968 -0.183287 -1.93333 0
M  V30 8710 O 818.243 0.806354 -1.76998 0
M  V30 8711 C 818.526 -2.63414 -2.45531 0
M  V30 8712 C 818.379 -4.07478 -1.90478 0
M  V30 8713 C 819.698 -2.70014 -3.47535 0
M  V30 8714 H 816.817 -0.556371 -0.483343 0
M  V30 8715 H 819.459 -1.78787 -0.643066 0
M  V30 8716 H 817.609 -2.41412 -3.04389 0
M  V30 8717 H 819.281 -4.40795 -1.36004 0
M  V30 8718 H 817.524 -4.16511 -1.21248 0
M  V30 8719 H 818.195 -4.80598 -2.71531 0
M  V30 8720 H 820.671 -2.89817 -2.98572 0
M  V30 8721 H 819.547 -3.49192 -4.23504 0
M  V30 8722 H 819.808 -1.76436 -4.05367 0
M  V30 8723 N 818.867 0.818669 -1.34668 0
M  V30 8724 C 819.777 1.9616 -1.2868 0
M  V30 8725 C 820.793 1.72918 -0.193742 0
M  V30 8726 O 821.969 1.96951 -0.420975 0
M  V30 8727 C 819.034 3.30534 -1.04633 0
M  V30 8728 C 818.095 3.66755 -2.23136 0
M  V30 8729 C 817.328 4.94717 -2.00227 0
M  V30 8730 O 817.551 5.62218 -0.96264 0
M  V30 8731 O 816.485 5.28915 -2.87286 0
M  V30 8732 H 820.311 2.04157 -2.24842 0
M  V30 8733 H 817.896 0.954691 -1.14917 0
M  V30 8734 H 819.778 4.11005 -0.930216 0
M  V30 8735 H 818.453 3.23495 -0.115139 0
M  V30 8736 H 817.36 2.8671 -2.40308 0
M  V30 8737 H 818.693 3.78484 -3.1466 0
M  V30 8738 N 820.346 1.18468 1.03938 0
M  V30 8739 C 821.276 0.936389 2.13902 0
M  V30 8740 C 822.257 -0.126381 1.6963 0
M  V30 8741 O 823.442 0.0264757 1.94182 0
M  V30 8742 C 820.572 0.462729 3.44204 0
M  V30 8743 C 819.526 1.46613 4.02105 0
M  V30 8744 C 818.852 0.84994 5.27902 0
M  V30 8745 C 820.152 2.84323 4.3813 0
M  V30 8746 H 821.846 1.85602 2.3493 0
M  V30 8747 H 819.392 0.893806 1.12903 0
M  V30 8748 H 821.345 0.276382 4.20493 0
M  V30 8749 H 820.069 -0.492477 3.22866 0
M  V30 8750 H 818.728 1.63944 3.27899 0
M  V30 8751 H 818.376 -0.112493 5.02874 0
M  V30 8752 H 818.076 1.51988 5.67603 0
M  V30 8753 H 819.6 0.674152 6.06867 0
M  V30 8754 H 821.014 2.70636 5.054 0
M  V30 8755 H 819.411 3.48012 4.88884 0
M  V30 8756 H 820.481 3.37776 3.47901 0
M  V30 8757 N 821.824 -1.22873 0.986916 0
M  V30 8758 C 822.754 -2.2688 0.552064 0
M  V30 8759 C 823.735 -1.64883 -0.418048 0
M  V30 8760 O 824.92 -1.9171 -0.30999 0
M  V30 8761 C 822.05 -3.47018 -0.139959 0
M  V30 8762 C 821.004 -4.21411 0.748091 0
M  V30 8763 C 820.33 -5.34645 -0.0765132 0
M  V30 8764 C 821.63 -4.80726 2.04206 0
M  V30 8765 H 823.324 -2.63507 1.42143 0
M  V30 8766 H 820.87 -1.26668 0.68492 0
M  V30 8767 H 822.823 -4.18931 -0.455527 0
M  V30 8768 H 821.547 -3.0947 -1.04382 0
M  V30 8769 H 820.206 -3.51325 1.04721 0
M  V30 8770 H 819.854 -4.93339 -0.981109 0
M  V30 8771 H 819.554 -5.85342 0.514606 0
M  V30 8772 H 821.078 -6.09377 -0.386313 0
M  V30 8773 H 822.492 -5.44612 1.79083 0
M  V30 8774 H 820.889 -5.41737 2.5815 0
M  V30 8775 H 821.959 -4.01109 2.72469 0
M  V30 8776 N 823.302 -0.75937 -1.38099 0
M  V30 8777 C 824.718 -0.437606 -1.53483 0
M  V30 8778 C 824.918 1.04849 -1.72072 0
M  V30 8779 O 823.974 1.83448 -1.73502 0
M  V30 8780 C 825.287 -1.24189 -2.73857 0
M  V30 8781 C 826.835 -1.23255 -2.8771 0
M  V30 8782 C 827.31 -2.01992 -4.11051 0
M  V30 8783 N 828.801 -1.99282 -4.1814 0
M  V30 8784 C 829.536 -2.56996 -5.12583 0
M  V30 8785 N 829.032 -3.23446 -6.12662 0
M  V30 8786 N 830.825 -2.46894 -5.04975 0
M  V30 8787 H 822.976 -1.72242 -1.24283 0
M  V30 8788 H 825.239 -0.730507 -0.604205 0
M  V30 8789 H 824.945 -2.29449 -2.66545 0
M  V30 8790 H 824.819 -0.862672 -3.67203 0
M  V30 8791 H 827.206 -0.187988 -2.94501 0
M  V30 8792 H 827.287 -1.65132 -1.95359 0
M  V30 8793 H 826.931 -3.06462 -4.05023 0
M  V30 8794 H 826.861 -1.57505 -5.02494 0
M  V30 8795 H 829.352 -1.50893 -3.46467 0
M  V30 8796 H 829.665 -3.6489 -6.81231 0
M  V30 8797 H 828.01 -3.27543 -6.12977 0
M  V30 8798 H 831.201 -1.94604 -4.25731 0
M  V30 8799 H 831.374 -2.92168 -5.78396 0
M  V30 8800 N 824.78 1.49157 -0.508906 0
M  V30 8801 C 826.005 2.07376 0.0315182 0
M  V30 8802 C 826.43 1.36575 1.2934 0
M  V30 8803 O 825.788 0.424963 1.76249 0
M  V30 8804 C 825.836 3.59661 0.260118 0
M  V30 8805 O 824.94 3.90255 1.33322 0
M  V30 8806 H 824.281 0.663334 -0.029739 0
M  V30 8807 H 826.811 1.91857 -0.710791 0
M  V30 8808 H 826.821 4.05056 0.489225 0
M  V30 8809 H 825.496 4.10601 -0.661794 0
M  V30 8810 H 824.073 3.56661 1.08844 0
M  V30 8811 N 826.258 0.243083 1.55714 0
M  V30 8812 C 827.505 -0.38272 1.9885 0
M  V30 8813 C 827.833 -1.58225 1.13115 0
M  V30 8814 O 827.088 -1.94861 0.181067 0
M  V30 8815 C 827.387 -0.839621 3.47398 0
M  V30 8816 C 827.053 0.251737 4.50197 0
M  V30 8817 C 825.715 0.551487 4.78029 0
M  V30 8818 C 828.067 0.988728 5.11736 0
M  V30 8819 C 825.395 1.59237 5.64677 0
M  V30 8820 C 827.747 2.0191 5.99512 0
M  V30 8821 C 826.411 2.32554 6.2568 0
M  V30 8822 H 825.681 -0.140047 0.727645 0
M  V30 8823 H 828.328 0.35011 1.88272 0
M  V30 8824 H 826.633 -1.65159 3.55288 0
M  V30 8825 H 828.33 -1.33404 3.78159 0
M  V30 8826 H 824.92 0.00796741 4.28599 0
M  V30 8827 H 829.104 0.7704 4.90284 0
M  V30 8828 H 824.36 1.83517 5.83208 0
M  V30 8829 H 828.534 2.59511 6.46241 0
M  V30 8830 H 826.161 3.13349 6.92616 0
M  V30 8831 N 827.736 -1.57571 -0.0300757 0
M  V30 8832 C 828.983 -1.89226 -0.721091 0
M  V30 8833 C 829.311 -0.840244 -1.75414 0
M  V30 8834 O 828.566 0.158906 -1.95054 0
M  V30 8835 C 828.865 -3.27624 -1.42818 0
M  V30 8836 C 828.531 -4.4776 -0.531208 0
M  V30 8837 C 827.193 -4.8036 -0.28415 0
M  V30 8838 C 829.545 -5.21125 0.0881582 0
M  V30 8839 C 826.873 -5.83715 0.591065 0
M  V30 8840 C 829.225 -6.2541 0.95107 0
M  V30 8841 C 827.889 -6.56486 1.2076 0
M  V30 8842 H 827.159 -0.692428 -0.263866 0
M  V30 8843 H 829.806 -1.91491 0.0189874 0
M  V30 8844 H 828.111 -3.21343 -2.24155 0
M  V30 8845 H 829.808 -3.49365 -1.96838 0
M  V30 8846 H 826.398 -4.2227 -0.73392 0
M  V30 8847 H 830.582 -4.96219 -0.0897496 0
M  V30 8848 H 825.838 -6.06168 0.798132 0
M  V30 8849 H 830.012 -6.81402 1.43751 0
M  V30 8850 H 827.639 -7.36395 1.88751 0
M  V30 8851 N 829.214 0.302327 -1.54673 0
M  V30 8852 C 830.444 1.05516 -1.77623 0
M  V30 8853 C 830.852 1.81474 -0.535159 0
M  V30 8854 O 830.195 1.76635 0.504543 0
M  V30 8855 C 830.257 2.08305 -2.93001 0
M  V30 8856 C 829.921 1.51554 -4.31139 0
M  V30 8857 C 830.918 0.946261 -5.11216 0
M  V30 8858 C 828.603 1.55157 -4.77736 0
M  V30 8859 C 830.597 0.420559 -6.36011 0
M  V30 8860 C 828.284 1.022 -6.02494 0
M  V30 8861 C 829.282 0.457461 -6.81466 0
M  V30 8862 O 828.97 -0.064083 -8.03874 0
M  V30 8863 H 828.702 0.318756 -0.59613 0
M  V30 8864 H 831.256 0.347558 -2.02438 0
M  V30 8865 H 829.486 2.82742 -2.63807 0
M  V30 8866 H 831.175 2.69479 -3.03539 0
M  V30 8867 H 831.941 0.911338 -4.76361 0
M  V30 8868 H 827.82 1.98037 -4.16296 0
M  V30 8869 H 831.364 -0.0207298 -6.97597 0
M  V30 8870 H 827.261 1.05406 -6.36836 0
M  V30 8871 H 828.029 0.0493422 -8.18485 0
M  V30 8872 N 830.692 1.47107 0.565454 0
M  V30 8873 C 831.938 1.53535 1.32495 0
M  V30 8874 C 832.271 0.193537 1.93233 0
M  V30 8875 O 831.546 -0.796956 1.77423 0
M  V30 8876 C 831.829 2.64712 2.4413 0
M  V30 8877 C 831.682 4.08482 1.88314 0
M  V30 8878 C 833.001 2.71853 3.46098 0
M  V30 8879 H 830.12 0.558926 0.480386 0
M  V30 8880 H 832.762 1.79125 0.633575 0
M  V30 8881 H 830.912 2.43023 3.03104 0
M  V30 8882 H 832.584 4.4151 1.33665 0
M  V30 8883 H 830.827 4.17148 1.19037 0
M  V30 8884 H 831.498 4.82032 2.68978 0
M  V30 8885 H 833.974 2.91397 2.97031 0
M  V30 8886 H 832.85 3.51433 4.21646 0
M  V30 8887 H 833.111 1.78584 4.04426 0
M  V30 8888 N 832.17 -0.811516 1.35101 0
M  V30 8889 C 833.398 -1.59981 1.31201 0
M  V30 8890 C 833.813 -1.8847 -0.111552 0
M  V30 8891 O 833.17 -1.48414 -1.06205 0
M  V30 8892 C 833.221 -2.934 2.11184 0
M  V30 8893 O 832.942 -2.66148 3.4799 0
M  V30 8894 C 834.443 -3.87776 2.14813 0
M  V30 8895 H 831.663 -0.496921 0.450899 0
M  V30 8896 H 834.207 -1.00886 1.77883 0
M  V30 8897 H 832.362 -3.49022 1.68115 0
M  V30 8898 H 832.776 -3.51301 3.89471 0
M  V30 8899 H 834.25 -4.7852 2.75178 0
M  V30 8900 H 834.727 -4.23997 1.14556 0
M  V30 8901 H 835.333 -3.3809 2.58022 0
M  V30 8902 N 833.648 -1.19017 -1.03309 0
M  V30 8903 C 834.558 -0.939303 -2.14975 0
M  V30 8904 C 835.574 0.0992359 -1.73717 0
M  V30 8905 O 836.75 -0.0844362 -2.01223 0
M  V30 8906 C 833.815 -0.476712 -3.43407 0
M  V30 8907 C 832.876 -1.58413 -3.99003 0
M  V30 8908 C 832.109 -1.14352 -5.21305 0
M  V30 8909 O 832.332 -0.00534408 -5.704 0
M  V30 8910 O 831.266 -1.94436 -5.6963 0
M  V30 8911 H 835.092 -1.87386 -2.38998 0
M  V30 8912 H 832.677 -0.972635 -1.13403 0
M  V30 8913 H 834.559 -0.22718 -4.20787 0
M  V30 8914 H 833.234 0.429455 -3.20839 0
M  V30 8915 H 832.141 -1.88777 -3.22977 0
M  V30 8916 H 833.474 -2.4667 -4.25928 0
M  V30 8917 N 835.127 1.22348 -0.993418 0
M  V30 8918 C 836.355 1.95125 -0.688021 0
M  V30 8919 C 836.77 1.73377 0.747388 0
M  V30 8920 O 836.127 1.03317 1.50439 0
M  V30 8921 C 836.178 3.47819 -0.985097 0
M  V30 8922 O 835.899 3.68838 -2.3641 0
M  V30 8923 C 837.4 4.37779 -0.697474 0
M  V30 8924 H 834.62 0.62087 -0.254481 0
M  V30 8925 H 837.164 1.55485 -1.32833 0
M  V30 8926 H 835.319 3.85426 -0.390583 0
M  V30 8927 H 835.733 4.63032 -2.46377 0
M  V30 8928 H 837.207 5.43666 -0.955604 0
M  V30 8929 H 837.684 4.37651 0.368524 0
M  V30 8930 H 838.29 4.05799 -1.27306 0
M  V30 8931 N 836.605 0.766683 1.37694 0
M  V30 8932 C 837.833 0.339939 2.04088 0
M  V30 8933 C 838.248 -1.03617 1.57826 0
M  V30 8934 O 837.605 -1.6605 0.757214 0
M  V30 8935 C 837.656 0.368269 3.59619 0
M  V30 8936 O 837.377 1.69009 4.04188 0
M  V30 8937 C 838.878 -0.0707053 4.43244 0
M  V30 8938 H 836.098 0.143189 0.655544 0
M  V30 8939 H 838.642 1.03919 1.76128 0
M  V30 8940 H 836.797 -0.282359 3.8637 0
M  V30 8941 H 837.211 1.62523 4.98685 0
M  V30 8942 H 838.685 0.000273538 5.52 0
M  V30 8943 H 839.162 -1.1204 4.24669 0
M  V30 8944 H 839.768 0.551543 4.21709 0
M  V30 8945 N 838.083 -1.48885 0.516809 0
M  V30 8946 C 839.33 -2.02488 -0.0220602 0
M  V30 8947 C 839.658 -1.39513 -1.35523 0
M  V30 8948 O 838.913 -0.52558 -1.8851 0
M  V30 8949 C 839.212 -3.56801 -0.206798 0
M  V30 8950 C 838.878 -4.38496 1.05035 0
M  V30 8951 C 837.54 -4.60538 1.39492 0
M  V30 8952 C 839.892 -4.85909 1.88525 0
M  V30 8953 C 837.22 -5.2724 2.57361 0
M  V30 8954 C 839.572 -5.53909 3.05561 0
M  V30 8955 C 838.236 -5.74193 3.4038 0
M  V30 8956 H 837.506 -0.740956 -0.00807238 0
M  V30 8957 H 840.153 -1.79014 0.680168 0
M  V30 8958 H 838.458 -3.79042 -0.991687 0
M  V30 8959 H 840.155 -3.95885 -0.638447 0
M  V30 8960 H 836.745 -4.2159 0.771984 0
M  V30 8961 H 840.929 -4.68694 1.63218 0
M  V30 8962 H 836.185 -5.41145 2.84556 0
M  V30 8963 H 840.359 -5.89619 3.7057 0
M  V30 8964 H 837.986 -6.25652 4.31814 0
M  V30 8965 N 839.561 -0.251338 -1.55583 0
M  V30 8966 C 840.493 0.679167 -2.18906 0
M  V30 8967 C 841.506 1.13545 -1.16667 0
M  V30 8968 O 842.695 1.06146 -1.4351 0
M  V30 8969 C 839.795 1.93544 -2.78198 0
M  V30 8970 C 838.968 1.62987 -4.05899 0
M  V30 8971 C 838.027 2.73618 -4.49466 0
M  V30 8972 O 837.053 2.40815 -5.15749 0
M  V30 8973 N 838.255 4.03204 -4.1762 0
M  V30 8974 H 841.02 0.137328 -2.99385 0
M  V30 8975 H 838.581 -0.0714754 -1.61742 0
M  V30 8976 H 840.573 2.66804 -3.04299 0
M  V30 8977 H 839.143 2.38695 -2.0185 0
M  V30 8978 H 838.363 0.732237 -3.8734 0
M  V30 8979 H 839.651 1.40041 -4.89148 0
M  V30 8980 H 839.049 4.32686 -3.64416 0
M  V30 8981 H 837.606 4.72916 -4.48547 0
M  V30 8982 N 841.039 1.57585 0.0217189 0
M  V30 8983 C 841.986 2.07036 1.02004 0
M  V30 8984 C 842.956 0.96106 1.35473 0
M  V30 8985 O 844.141 1.23211 1.45684 0
M  V30 8986 C 841.281 2.56056 2.31364 0
M  V30 8987 C 840.394 3.80805 2.03989 0
M  V30 8988 C 839.529 4.18409 3.27272 0
M  V30 8989 C 838.568 5.36055 2.95486 0
M  V30 8990 N 837.705 5.69056 4.11242 0
M  V30 8991 H 842.545 2.92073 0.591396 0
M  V30 8992 H 840.082 1.44403 0.280384 0
M  V30 8993 H 842.04 2.82548 3.06957 0
M  V30 8994 H 840.67 1.73925 2.71937 0
M  V30 8995 H 839.722 3.61354 1.1886 0
M  V30 8996 H 841.034 4.66512 1.76546 0
M  V30 8997 H 840.188 4.46068 4.11228 0
M  V30 8998 H 838.927 3.31369 3.57835 0
M  V30 8999 H 837.932 5.08142 2.09933 0
M  V30 9000 H 839.157 6.24755 2.66193 0
M  V30 9001 H 837.103 4.84974 4.41742 0
M  V30 9002 H 837.02 6.49288 3.87247 0
M  V30 9003 H 838.288 6.01295 4.96049 0
M  V30 9004 N 842.517 -0.29412 1.54831 0
M  V30 9005 C 843.465 -1.38296 1.87021 0
M  V30 9006 C 844.459 -1.5216 0.744557 0
M  V30 9007 O 845.665 -1.54196 0.92864 0
M  V30 9008 H 842.04 -0.462088 0.593278 0
M  V30 9009 H 844.011 -1.08386 2.7802 0
M  V30 9010 C 842.76 -2.74024 2.14023 0
M  V30 9011 H 842.083 -2.6414 3.00117 0
M  V30 9012 H 843.523 -3.49205 2.40482 0
M  V30 9013 C 841.982 -3.23492 0.940982 0
M  V30 9014 O 842.512 -4.01361 0.164937 0
M  V30 9015 N 840.718 -2.80902 0.744467 0
M  V30 9016 H 840.265 -2.17694 1.37721 0
M  V30 9017 H 840.223 -3.14349 -0.0563652 0
M  V30 9018 N 843.995 -1.47404 -0.557645 0
M  V30 9019 C 845.411 -1.32913 -0.88353 0
M  V30 9020 C 845.611 -0.31929 -1.98954 0
M  V30 9021 O 844.667 0.26934 -2.51059 0
M  V30 9022 C 845.98 -2.72229 -1.27718 0
M  V30 9023 C 847.528 -2.8051 -1.38863 0
M  V30 9024 C 848.003 -4.20466 -1.81583 0
M  V30 9025 N 849.494 -4.23005 -1.88735 0
M  V30 9026 C 850.229 -5.2821 -2.23118 0
M  V30 9027 N 849.725 -6.4372 -2.56117 0
M  V30 9028 N 851.518 -5.15588 -2.23888 0
M  V30 9029 H 843.669 -2.11698 0.172557 0
M  V30 9030 H 845.932 -0.947889 0.0145334 0
M  V30 9031 H 845.638 -3.47556 -0.538329 0
M  V30 9032 H 845.512 -3.03971 -2.23342 0
M  V30 9033 H 847.899 -2.05457 -2.11829 0
M  V30 9034 H 847.98 -2.52423 -0.414274 0
M  V30 9035 H 847.624 -4.96025 -1.09187 0
M  V30 9036 H 847.554 -4.45977 -2.80021 0
M  V30 9037 H 850.045 -3.39674 -1.65621 0
M  V30 9038 H 850.358 -7.19754 -2.81378 0
M  V30 9039 H 848.703 -6.47041 -2.53698 0
M  V30 9040 H 851.894 -4.24374 -1.97546 0
M  V30 9041 H 852.067 -5.97685 -2.50353 0
M  V30 9042 N 845.473 0.80434 -1.35529 0
M  V30 9043 C 846.403 1.93086 -1.31301 0
M  V30 9044 C 847.384 1.69068 -0.187044 0
M  V30 9045 O 848.569 1.90399 -0.382359 0
M  V30 9046 C 845.699 3.29867 -1.0865 0
M  V30 9047 C 844.653 3.68373 -2.17911 0
M  V30 9048 C 843.979 5.0334 -1.80423 0
M  V30 9049 C 845.279 3.78516 -3.59893 0
M  V30 9050 H 846.973 1.96882 -2.25561 0
M  V30 9051 H 844.519 0.945841 -1.08581 0
M  V30 9052 H 846.472 4.08281 -1.04331 0
M  V30 9053 H 845.196 3.2642 -0.108359 0
M  V30 9054 H 843.855 2.92247 -2.21331 0
M  V30 9055 H 843.503 4.96399 -0.812213 0
M  V30 9056 H 843.203 5.30074 -2.53565 0
M  V30 9057 H 844.727 5.84191 -1.77633 0
M  V30 9058 H 846.141 4.47155 -3.58783 0
M  V30 9059 H 844.538 4.16721 -4.31814 0
M  V30 9060 H 845.608 2.8001 -3.95882 0
M  V30 9061 N 846.951 1.19563 1.02676 0
M  V30 9062 C 848.198 0.999568 1.7611 0
M  V30 9063 C 848.526 -0.469432 1.8875 0
M  V30 9064 O 847.781 -1.36481 1.40255 0
M  V30 9065 C 848.08 1.61619 3.18769 0
M  V30 9066 C 847.746 3.11366 3.26132 0
M  V30 9067 C 846.408 3.52234 3.27848 0
M  V30 9068 C 848.76 4.07374 3.25109 0
M  V30 9069 C 846.088 4.87658 3.26201 0
M  V30 9070 C 848.44 5.42731 3.25002 0
M  V30 9071 C 847.104 5.83027 3.25017 0
M  V30 9072 H 846.374 0.365768 0.644434 0
M  V30 9073 H 849.021 1.48838 1.20497 0
M  V30 9074 H 847.326 1.04974 3.77476 0
M  V30 9075 H 849.023 1.43975 3.74262 0
M  V30 9076 H 845.613 2.78804 3.25525 0
M  V30 9077 H 849.797 3.76842 3.22961 0
M  V30 9078 H 845.053 5.18156 3.24537 0
M  V30 9079 H 849.227 6.16879 3.23161 0
M  V30 9080 H 846.854 6.87936 3.23494 0
M  V30 9081 N 848.429 -1.21819 0.999893 0
M  V30 9082 C 849.676 -1.90752 0.679694 0
M  V30 9083 C 850.004 -1.77777 -0.789014 0
M  V30 9084 O 849.259 -1.14518 -1.58695 0
M  V30 9085 C 849.558 -3.4193 1.04012 0
M  V30 9086 C 849.224 -3.75098 2.50225 0
M  V30 9087 C 847.886 -3.83861 2.90179 0
M  V30 9088 C 850.238 -3.90706 3.44961 0
M  V30 9089 C 847.566 -4.05676 4.23844 0
M  V30 9090 C 849.918 -4.14027 4.78294 0
M  V30 9091 C 848.582 -4.21016 5.17979 0
M  V30 9092 H 847.852 -0.698012 0.248718 0
M  V30 9093 H 850.499 -1.44437 1.25738 0
M  V30 9094 H 848.804 -3.89947 0.380606 0
M  V30 9095 H 850.501 -3.93532 0.770301 0
M  V30 9096 H 847.091 -3.68865 2.18258 0
M  V30 9097 H 851.275 -3.83307 3.15261 0
M  V30 9098 H 846.531 -4.09316 4.5417 0
M  V30 9099 H 850.705 -4.25046 5.51642 0
M  V30 9100 H 848.332 -4.37672 6.21568 0
M  V30 9101 N 849.908 -0.773975 -1.37286 0
M  V30 9102 C 851.138 -0.350249 -2.03609 0
M  V30 9103 C 851.546 1.03313 -1.58502 0
M  V30 9104 O 850.889 1.67118 -0.7627 0
M  V30 9105 C 850.951 -0.317215 -3.58098 0
M  V30 9106 C 850.615 -1.64556 -4.26345 0
M  V30 9107 C 851.612 -2.59839 -4.50311 0
M  V30 9108 C 849.297 -1.92061 -4.64131 0
M  V30 9109 C 851.291 -3.80833 -5.11122 0
M  V30 9110 C 848.978 -3.13325 -5.24663 0
M  V30 9111 C 849.976 -4.0753 -5.48095 0
M  V30 9112 O 849.664 -5.26658 -6.0736 0
M  V30 9113 H 849.396 -0.144456 -0.660385 0
M  V30 9114 H 851.95 -1.0496 -1.76557 0
M  V30 9115 H 850.18 0.438528 -3.84205 0
M  V30 9116 H 851.869 0.0797428 -4.05822 0
M  V30 9117 H 852.635 -2.39872 -4.21529 0
M  V30 9118 H 848.514 -1.19562 -4.45226 0
M  V30 9119 H 852.058 -4.54377 -5.29327 0
M  V30 9120 H 847.955 -3.33177 -5.52869 0
M  V30 9121 H 848.723 -5.27513 -6.25837 0
M  V30 9122 N 851.386 1.48609 -0.524698 0
M  V30 9123 C 852.802 1.58557 -0.182199 0
M  V30 9124 C 853.002 1.52732 1.31435 0
M  V30 9125 O 852.058 1.41362 2.0922 0
M  V30 9126 C 853.371 2.90406 -0.78004 0
M  V30 9127 C 854.919 3.03924 -0.748293 0
M  V30 9128 C 855.394 4.38427 -1.32462 0
M  V30 9129 N 856.885 4.4498 -1.28635 0
M  V30 9130 C 857.62 5.47551 -1.70223 0
M  V30 9131 N 857.116 6.57103 -2.19515 0
M  V30 9132 N 858.909 5.38402 -1.61493 0
M  V30 9133 H 851.06 1.50638 -1.4974 0
M  V30 9134 H 853.323 0.714952 -0.622533 0
M  V30 9135 H 853.029 3.00308 -1.83052 0
M  V30 9136 H 852.903 3.76343 -0.254075 0
M  V30 9137 H 855.29 2.93638 0.293407 0
M  V30 9138 H 855.371 2.19611 -1.31167 0
M  V30 9139 H 855.015 4.49466 -2.36522 0
M  V30 9140 H 854.945 5.21418 -0.736967 0
M  V30 9141 H 857.436 3.66393 -0.92545 0
M  V30 9142 H 857.749 7.31499 -2.49257 0
M  V30 9143 H 856.094 6.58081 -2.23506 0
M  V30 9144 H 859.285 4.5171 -1.22785 0
M  V30 9145 H 859.458 6.18208 -1.94225 0
M  V30 9146 N 852.864 0.259585 1.55447 0
M  V30 9147 C 853.811 -0.634578 2.21905 0
M  V30 9148 C 854.781 -1.16168 1.18719 0
M  V30 9149 O 855.966 -1.21383 1.4721 0
M  V30 9150 C 853.106 -1.82005 2.93203 0
M  V30 9151 C 852.219 -1.32828 4.11073 0
M  V30 9152 C 851.354 -2.47431 4.70055 0
M  V30 9153 C 850.393 -1.95179 5.80148 0
M  V30 9154 N 849.53 -3.03197 6.33258 0
M  V30 9155 H 854.37 -0.0611886 2.97937 0
M  V30 9156 H 851.907 -0.0184378 1.47088 0
M  V30 9157 H 853.865 -2.51664 3.32748 0
M  V30 9158 H 852.495 -2.36571 2.19622 0
M  V30 9159 H 851.547 -0.525301 3.76756 0
M  V30 9160 H 852.859 -0.905435 4.90513 0
M  V30 9161 H 852.013 -3.25111 5.12238 0
M  V30 9162 H 850.752 -2.93023 3.89857 0
M  V30 9163 H 849.757 -1.15974 5.37429 0
M  V30 9164 H 850.982 -1.50541 6.62204 0
M  V30 9165 H 848.928 -3.48199 5.55961 0
M  V30 9166 H 848.845 -2.65282 7.07928 0
M  V30 9167 H 850.113 -3.80898 6.80101 0
M  V30 9168 N 854.342 -1.57594 -0.0133615 0
M  V30 9169 C 855.567 -1.94649 -0.715996 0
M  V30 9170 C 855.992 -0.860786 -1.67249 0
M  V30 9171 O 855.35 0.182228 -1.80382 0
M  V30 9172 C 855.398 -3.30789 -1.43566 0
M  V30 9173 O 854.502 -3.24148 -2.54955 0
M  V30 9174 H 853.843 -0.635801 -0.191449 0
M  V30 9175 H 856.373 -2.04569 0.0358478 0
M  V30 9176 H 856.383 -3.66045 -1.80208 0
M  V30 9177 H 855.058 -4.09367 -0.734263 0
M  V30 9178 H 853.635 -3.00548 -2.20739 0
M  V30 9179 N 855.82 0.285905 -1.54985 0
M  V30 9180 C 857.066 1.02071 -1.75241 0
M  V30 9181 C 857.399 1.864 -0.544842 0
M  V30 9182 O 856.674 1.89034 0.457844 0
M  V30 9183 C 856.957 1.91409 -3.05016 0
M  V30 9184 C 856.81 1.10158 -4.36102 0
M  V30 9185 C 858.129 2.90335 -3.30747 0
M  V30 9186 H 855.248 0.369663 -0.637588 0
M  V30 9187 H 857.89 0.294114 -1.8771 0
M  V30 9188 H 856.04 2.53362 -2.94517 0
M  V30 9189 H 857.712 0.503756 -4.58541 0
M  V30 9190 H 855.955 0.404675 -4.31908 0
M  V30 9191 H 856.626 1.75956 -5.23205 0
M  V30 9192 H 859.102 2.38514 -3.40955 0
M  V30 9193 H 857.978 3.49997 -4.2284 0
M  V30 9194 H 858.239 3.64787 -2.49765 0
M  V30 9195 N 857.298 1.47698 0.54982 0
M  V30 9196 C 858.544 1.55914 1.30624 0
M  V30 9197 C 858.899 0.221596 1.9112 0
M  V30 9198 O 858.192 -0.77351 1.75292 0
M  V30 9199 C 858.386 2.61903 2.4319 0
M  V30 9200 C 858.215 4.05833 1.93725 0
M  V30 9201 C 856.985 4.73199 1.77231 0
M  V30 9202 C 859.183 4.92624 1.47738 0
M  V30 9203 N 857.165 6.01618 1.22183 0
M  V30 9204 C 858.536 6.11129 1.04505 0
M  V30 9205 C 860.591 4.79006 1.35857 0
M  V30 9206 C 859.294 7.1752 0.505722 0
M  V30 9207 C 861.32 5.85501 0.833254 0
M  V30 9208 C 860.682 7.03201 0.410894 0
M  V30 9209 H 856.781 0.625194 0.469741 0
M  V30 9210 H 859.365 1.84485 0.622369 0
M  V30 9211 H 857.536 2.35188 3.09098 0
M  V30 9212 H 859.268 2.59919 3.102 0
M  V30 9213 H 856.023 4.29221 2.00166 0
M  V30 9214 H 856.447 6.70054 0.967263 0
M  V30 9215 H 861.089 3.88369 1.67122 0
M  V30 9216 H 858.807 8.07898 0.180721 0
M  V30 9217 H 862.393 5.77013 0.744781 0
M  V30 9218 H 861.273 7.84199 0.0107086 0
M  V30 9219 N 858.776 -0.797141 1.35954 0
M  V30 9220 C 860.001 -1.59097 1.33053 0
M  V30 9221 C 860.426 -1.87897 -0.0874592 0
M  V30 9222 O 859.784 -1.47291 -1.05712 0
M  V30 9223 C 859.832 -2.89346 2.152 0
M  V30 9224 O 858.936 -3.826 1.5392 0
M  V30 9225 H 858.277 -0.482895 0.45575 0
M  V30 9226 H 860.807 -0.988633 1.79129 0
M  V30 9227 H 860.817 -3.38686 2.27499 0
M  V30 9228 H 859.492 -2.6771 3.18283 0
M  V30 9229 H 858.069 -3.41174 1.50516 0
M  V30 9230 N 860.254 -1.20106 -1.0204 0
M  V30 9231 C 861.201 -0.946468 -2.10501 0
M  V30 9232 C 862.171 0.121902 -1.65652 0
M  V30 9233 O 863.356 -0.0220244 -1.90787 0
M  V30 9234 C 860.496 -0.500499 -3.41451 0
M  V30 9235 C 859.609 -1.63659 -3.998 0
M  V30 9236 C 858.744 -1.14131 -5.18794 0
M  V30 9237 C 857.783 -2.25074 -5.69217 0
M  V30 9238 N 856.92 -1.76791 -6.79477 0
M  V30 9239 H 861.76 -1.87506 -2.31615 0
M  V30 9240 H 859.297 -0.934693 -1.13587 0
M  V30 9241 H 861.255 -0.223276 -4.16602 0
M  V30 9242 H 859.885 0.391099 -3.20422 0
M  V30 9243 H 858.937 -2.02882 -3.21781 0
M  V30 9244 H 860.249 -2.47213 -4.33229 0
M  V30 9245 H 859.403 -0.819826 -6.01135 0
M  V30 9246 H 858.142 -0.275615 -4.86921 0
M  V30 9247 H 857.147 -2.58043 -4.85483 0
M  V30 9248 H 858.372 -3.12114 -6.03127 0
M  V30 9249 H 856.318 -0.925428 -6.4944 0
M  V30 9250 H 856.235 -2.53928 -7.12079 0
M  V30 9251 H 857.503 -1.47631 -7.65392 0
M  V30 9252 N 861.732 1.21287 -1.00634 0
M  V30 9253 C 862.662 2.25973 -0.588089 0
M  V30 9254 C 863.643 1.65527 0.391764 0
M  V30 9255 O 864.828 1.92179 0.279452 0
M  V30 9256 C 861.958 3.47197 0.0847336 0
M  V30 9257 C 860.912 4.20168 -0.815039 0
M  V30 9258 C 860.238 5.34699 -0.00855393 0
M  V30 9259 C 861.538 4.77416 -2.11828 0
M  V30 9260 H 863.232 2.61212 -1.46317 0
M  V30 9261 H 860.778 1.25563 -0.704985 0
M  V30 9262 H 862.731 4.19602 0.388821 0
M  V30 9263 H 861.455 3.11092 0.994456 0
M  V30 9264 H 860.114 3.49614 -1.10297 0
M  V30 9265 H 859.762 4.94837 0.902499 0
M  V30 9266 H 859.462 5.84449 -0.607664 0
M  V30 9267 H 860.986 6.09914 0.289317 0
M  V30 9268 H 862.4 5.41694 -1.87725 0
M  V30 9269 H 860.797 5.37561 -2.66736 0
M  V30 9270 H 861.867 3.96724 -2.78816 0
M  V30 9271 N 863.21 0.781244 1.36873 0
M  V30 9272 C 864.142 0.132075 2.28819 0
M  V30 9273 C 865.155 -0.653925 1.49089 0
M  V30 9274 O 866.344 -0.490453 1.7163 0
M  V30 9275 C 863.444 -0.836297 3.28419 0
M  V30 9276 C 862.617 -0.102097 4.37281 0
M  V30 9277 C 861.676 -0.985217 5.16894 0
M  V30 9278 O 860.702 -0.445478 5.67454 0
M  V30 9279 N 861.904 -2.31043 5.3254 0
M  V30 9280 H 864.669 0.921838 2.85171 0
M  V30 9281 H 862.23 0.634427 1.48952 0
M  V30 9282 H 864.222 -1.43074 3.78566 0
M  V30 9283 H 862.792 -1.52698 2.72767 0
M  V30 9284 H 862.012 0.67335 3.88407 0
M  V30 9285 H 863.3 0.404862 5.07187 0
M  V30 9286 H 862.698 -2.77318 4.93063 0
M  V30 9287 H 861.255 -2.85472 5.8596 0
M  V30 9288 N 864.689 -1.48329 0.532571 0
M  V30 9289 C 865.914 -2.074 0.00147755 0
M  V30 9290 C 866.339 -1.38615 -1.27151 0
M  V30 9291 O 865.697 -0.452949 -1.75551 0
M  V30 9292 C 865.745 -3.60029 -0.202866 0
M  V30 9293 O 864.849 -3.92327 -1.27097 0
M  V30 9294 H 864.19 -0.662777 0.0402883 0
M  V30 9295 H 866.72 -1.90701 0.741224 0
M  V30 9296 H 866.73 -4.05783 -0.424722 0
M  V30 9297 H 865.405 -4.09496 0.727033 0
M  V30 9298 H 863.982 -3.58348 -1.03156 0
M  V30 9299 N 866.167 -0.267825 -1.55308 0
M  V30 9300 C 867.416 0.351635 -1.98611 0
M  V30 9301 C 867.729 1.57522 -1.15957 0
M  V30 9302 O 868.935 2.26717 -1.49371 0
M  V30 9303 C 867.391 0.676986 -3.53475 0
M  V30 9304 C 866.999 -0.526385 -4.44897 0
M  V30 9305 C 868.743 1.25948 -4.05386 0
M  V30 9306 C 866.65 -0.176026 -5.91138 0
M  V30 9307 H 865.58 0.13516 -0.741787 0
M  V30 9308 H 868.231 -0.371333 -1.79704 0
M  V30 9309 H 866.613 1.45866 -3.68156 0
M  V30 9310 H 867.787 -1.30339 -4.41982 0
M  V30 9311 H 866.102 -1.02522 -4.03582 0
M  V30 9312 H 868.699 1.53529 -5.12184 0
M  V30 9313 H 869.042 2.19094 -3.53982 0
M  V30 9314 H 869.575 0.540253 -3.94114 0
M  V30 9315 H 866.314 -1.07518 -6.46622 0
M  V30 9316 H 865.834 0.564363 -5.97139 0
M  V30 9317 H 867.513 0.234365 -6.46575 0
M  V30 9318 N 867.645 1.57599 0.00500368 0
M  V30 9319 C 868.893 1.89973 0.68953 0
M  V30 9320 C 869.214 0.868531 1.7459 0
M  V30 9321 O 868.484 -0.0947367 1.95671 0
M  V30 9322 H 867.064 0.701153 0.25767 0
M  V30 9323 H 869.726 1.94869 -0.0347392 0
M  V30 9324 H 868.822 2.89584 1.16394 0
M  V30 9325 N 869.123 -0.277682 1.55134 0
M  V30 9326 C 870.372 -1.00766 1.74726 0
M  V30 9327 C 870.685 -1.87617 0.553092 0
M  V30 9328 O 871.891 -2.64058 0.631318 0
M  V30 9329 C 870.347 -1.84147 3.09221 0
M  V30 9330 C 869.955 -1.02186 4.3619 0
M  V30 9331 C 871.699 -2.56604 3.38164 0
M  V30 9332 C 869.606 -1.84978 5.61727 0
M  V30 9333 H 868.536 -0.379948 0.651273 0
M  V30 9334 H 871.187 -0.263543 1.81598 0
M  V30 9335 H 869.569 -2.62637 2.96375 0
M  V30 9336 H 870.743 -0.281459 4.5994 0
M  V30 9337 H 869.058 -0.412054 4.14356 0
M  V30 9338 H 871.655 -3.18942 4.29162 0
M  V30 9339 H 871.998 -3.26647 2.58085 0
M  V30 9340 H 872.531 -1.85147 3.52087 0
M  V30 9341 H 869.27 -1.19365 6.4454 0
M  V30 9342 H 868.79 -2.56628 5.42128 0
M  V30 9343 H 870.469 -2.42458 5.99853 0
M  V30 9344 N 870.601 -1.47988 -0.541979 0
M  V30 9345 C 872.017 -1.33843 -0.869383 0
M  V30 9346 C 872.217 -0.340374 -1.98604 0
M  V30 9347 O 871.273 0.242696 -2.51331 0
M  V30 9348 C 872.586 -2.73568 -1.24823 0
M  V30 9349 C 874.134 -2.81967 -1.3588 0
M  V30 9350 C 874.609 -4.22368 -1.77114 0
M  V30 9351 N 876.1 -4.24983 -1.84237 0
M  V30 9352 C 876.835 -5.30547 -2.17503 0
M  V30 9353 N 876.331 -6.46401 -2.49275 0
M  V30 9354 N 878.124 -5.17933 -2.18406 0
M  V30 9355 H 870.275 -2.11503 0.195001 0
M  V30 9356 H 872.538 -0.947681 0.0245862 0
M  V30 9357 H 872.244 -3.48107 -0.501435 0
M  V30 9358 H 872.118 -3.06322 -2.20106 0
M  V30 9359 H 874.505 -2.07692 -2.09638 0
M  V30 9360 H 874.586 -2.52848 -0.387478 0
M  V30 9361 H 874.23 -4.97155 -1.0392 0
M  V30 9362 H 874.16 -4.48922 -2.75275 0
M  V30 9363 H 876.651 -3.41411 -1.62009 0
M  V30 9364 H 876.964 -7.22698 -2.73729 0
M  V30 9365 H 875.309 -6.49696 -2.46821 0
M  V30 9366 H 878.5 -4.26445 -1.93034 0
M  V30 9367 H 878.673 -6.00307 -2.44 0
M  V30 9368 N 872.079 0.78992 -1.36375 0
M  V30 9369 C 873.011 1.91113 -1.26524 0
M  V30 9370 C 874.024 1.61747 -0.184851 0
M  V30 9371 O 875.213 1.73004 -0.439524 0
M  V30 9372 C 872.313 3.25908 -0.92937 0
M  V30 9373 C 871.486 3.83057 -2.11154 0
M  V30 9374 C 870.545 4.96289 -1.74881 0
M  V30 9375 O 869.571 5.12834 -2.46962 0
M  V30 9376 N 870.773 5.76478 -0.682193 0
M  V30 9377 H 873.538 2.00085 -2.23128 0
M  V30 9378 H 871.099 0.968165 -1.29762 0
M  V30 9379 H 873.091 3.99151 -0.667884 0
M  V30 9380 H 871.661 3.12556 -0.0524843 0
M  V30 9381 H 870.881 3.01808 -2.53586 0
M  V30 9382 H 872.169 4.1797 -2.90135 0
M  V30 9383 H 871.567 5.65638 -0.0836661 0
M  V30 9384 H 870.124 6.50026 -0.480529 0
M  V30 9385 N 873.557 1.20646 1.01402 0
M  V30 9386 C 874.507 0.925209 2.08384 0
M  V30 9387 C 875.491 -0.115994 1.60481 0
M  V30 9388 O 876.683 0.0917276 1.76762 0
M  V30 9389 C 873.812 0.48193 3.399 0
M  V30 9390 C 872.898 1.5567 3.94497 0
M  V30 9391 N 873.289 2.77971 4.2257 0
M  V30 9392 C 871.587 1.42347 4.22674 0
M  V30 9393 C 872.288 3.47317 4.66632 0
M  V30 9394 N 871.264 2.74736 4.69064 0
M  V30 9395 H 875.066 1.85452 2.28002 0
M  V30 9396 H 872.58 1.10084 1.19395 0
M  V30 9397 H 874.577 0.261835 4.16077 0
M  V30 9398 H 873.237 -0.440725 3.21695 0
M  V30 9399 H 874.248 3.14598 4.11398 0
M  V30 9400 H 870.925 0.565417 4.13654 0
M  V30 9401 H 872.315 4.51985 4.97151 0
M  V30 9402 N 875.035 -1.20752 1.01276 0
M  V30 9403 C 875.965 -2.25658 0.600064 0
M  V30 9404 C 876.946 -1.65733 -0.38298 0
M  V30 9405 O 878.131 -1.92324 -0.269256 0
M  V30 9406 C 875.261 -3.47237 -0.0663197 0
M  V30 9407 C 874.215 -4.1973 0.83731 0
M  V30 9408 C 873.541 -5.34687 0.0369102 0
M  V30 9409 C 874.841 -4.76286 2.14357 0
M  V30 9410 H 876.535 -2.60432 1.477 0
M  V30 9411 H 874.081 -1.25187 0.711634 0
M  V30 9412 H 876.034 -4.19803 -0.366563 0
M  V30 9413 H 874.758 -3.11615 -0.977944 0
M  V30 9414 H 873.417 -3.49024 1.1215 0
M  V30 9415 H 873.065 -4.95309 -0.876244 0
M  V30 9416 H 872.765 -5.84119 0.63865 0
M  V30 9417 H 874.289 -6.10059 -0.256968 0
M  V30 9418 H 875.703 -5.40691 1.90595 0
M  V30 9419 H 874.1 -5.36139 2.69583 0
M  V30 9420 H 875.17 -3.9524 2.80916 0
M  V30 9421 N 876.513 -0.788492 -1.36457 0
M  V30 9422 C 877.46 -0.18435 -2.30063 0
M  V30 9423 C 878.43 0.67128 -1.51931 0
M  V30 9424 O 879.615 0.620152 -1.8044 0
M  V30 9425 C 876.755 0.675596 -3.38422 0
M  V30 9426 C 875.868 -0.198475 -4.31544 0
M  V30 9427 C 875.003 0.667757 -5.26986 0
M  V30 9428 C 874.042 -0.207825 -6.11747 0
M  V30 9429 N 873.179 0.617335 -6.99381 0
M  V30 9430 H 878.019 -0.988056 -2.81143 0
M  V30 9431 H 875.556 -0.498815 -1.38384 0
M  V30 9432 H 877.514 1.18916 -3.99894 0
M  V30 9433 H 876.144 1.44474 -2.88664 0
M  V30 9434 H 875.196 -0.829995 -3.71235 0
M  V30 9435 H 876.508 -0.873163 -4.91098 0
M  V30 9436 H 875.662 1.24716 -5.93743 0
M  V30 9437 H 874.401 1.37607 -4.67884 0
M  V30 9438 H 873.406 -0.799638 -5.43954 0
M  V30 9439 H 874.631 -0.913729 -6.72925 0
M  V30 9440 H 872.577 1.30996 -6.42788 0
M  V30 9441 H 872.494 0.000307255 -7.56 0
M  V30 9442 H 873.762 1.1806 -7.70508 0
M  V30 9443 N 877.991 1.48044 -0.54043 0
M  V30 9444 C 879.407 1.58354 -0.199006 0
M  V30 9445 C 879.607 1.54118 1.29807 0
M  V30 9446 O 878.663 1.43573 2.07709 0
M  V30 9447 C 879.976 2.89563 -0.810797 0
M  V30 9448 C 881.524 3.03113 -0.780486 0
M  V30 9449 C 881.999 4.36997 -1.37104 0
M  V30 9450 N 883.49 4.43591 -1.33347 0
M  V30 9451 C 884.225 5.45714 -1.76021 0
M  V30 9452 N 883.721 6.54738 -2.26473 0
M  V30 9453 N 885.514 5.36659 -1.67194 0
M  V30 9454 H 877.665 1.49041 -1.51329 0
M  V30 9455 H 879.928 0.708309 -0.630081 0
M  V30 9456 H 879.634 2.9835 -1.86227 0
M  V30 9457 H 879.508 3.76053 -0.293977 0
M  V30 9458 H 881.895 2.93932 0.262246 0
M  V30 9459 H 881.976 2.18207 -1.33489 0
M  V30 9460 H 881.62 4.46932 -2.41276 0
M  V30 9461 H 881.55 5.20607 -0.792229 0
M  V30 9462 H 884.041 3.65391 -0.964259 0
M  V30 9463 H 884.354 7.28814 -2.57002 0
M  V30 9464 H 882.699 6.55673 -2.30473 0
M  V30 9465 H 885.89 4.50382 -1.27569 0
M  V30 9466 H 886.063 6.16113 -2.00771 0
M  V30 9467 N 879.47 0.276058 1.55163 0
M  V30 9468 C 880.716 -0.340959 1.99913 0
M  V30 9469 C 881.049 -1.55434 1.16422 0
M  V30 9470 O 880.324 -1.93081 0.234517 0
M  V30 9471 C 880.607 -0.722211 3.52783 0
M  V30 9472 C 880.46 0.498575 4.47028 0
M  V30 9473 C 881.779 -1.5583 4.11589 0
M  V30 9474 H 878.898 -0.122455 0.726756 0
M  V30 9475 H 881.54 0.38319 1.86096 0
M  V30 9476 H 879.69 -1.33919 3.64689 0
M  V30 9477 H 881.362 1.13713 4.47065 0
M  V30 9478 H 879.605 1.13646 4.18649 0
M  V30 9479 H 880.276 0.188041 5.5168 0
M  V30 9480 H 882.752 -1.03722 4.02965 0
M  V30 9481 H 881.628 -1.79387 5.1876 0
M  V30 9482 H 881.889 -2.53963 3.61877 0
M  V30 9483 N 880.948 -1.576 0.00335426 0
M  V30 9484 C 881.88 -2.0549 -1.01521 0
M  V30 9485 C 882.893 -0.973441 -1.30491 0
M  V30 9486 O 884.082 -1.25017 -1.27409 0
M  V30 9487 C 881.182 -2.44272 -2.34914 0
M  V30 9488 C 880.355 -3.75191 -2.24835 0
M  V30 9489 C 879.414 -4.00804 -3.40944 0
M  V30 9490 O 878.44 -4.71423 -3.18981 0
M  V30 9491 N 879.642 -3.48961 -4.63904 0
M  V30 9492 H 882.407 -2.93493 -0.60678 0
M  V30 9493 H 879.968 -1.60851 -0.18396 0
M  V30 9494 H 881.96 -2.58518 -3.11369 0
M  V30 9495 H 880.53 -1.6177 -2.67487 0
M  V30 9496 H 879.75 -3.70989 -1.3327 0
M  V30 9497 H 881.038 -4.61013 -2.15277 0
M  V30 9498 H 880.436 -2.9178 -4.84645 0
M  V30 9499 H 878.993 -3.68531 -5.37613 0
M  V30 9500 N 882.426 0.269451 -1.5528 0
M  V30 9501 C 883.356 1.33729 -1.91413 0
M  V30 9502 C 884.337 1.51348 -0.776391 0
M  V30 9503 O 885.522 1.64332 -1.03482 0
M  V30 9504 C 882.652 2.69618 -2.18914 0
M  V30 9505 C 881.606 2.66725 -3.34726 0
M  V30 9506 C 880.932 4.06199 -3.47716 0
M  V30 9507 C 882.232 2.25684 -4.71025 0
M  V30 9508 H 883.926 1.03736 -2.80854 0
M  V30 9509 H 881.472 0.497579 -1.3513 0
M  V30 9510 H 883.425 3.44436 -2.42779 0
M  V30 9511 H 882.149 3.01201 -1.26275 0
M  V30 9512 H 880.808 1.94365 -3.10834 0
M  V30 9513 H 880.456 4.3501 -2.52537 0
M  V30 9514 H 880.156 4.05157 -4.25583 0
M  V30 9515 H 881.68 4.8275 -3.73877 0
M  V30 9516 H 883.094 2.90225 -4.94411 0
M  V30 9517 H 881.491 2.35797 -5.51833 0
M  V30 9518 H 882.561 1.20819 -4.69607 0
M  V30 9519 N 883.904 1.48273 0.534124 0
M  V30 9520 C 885.32 1.34302 0.862272 0
M  V30 9521 C 885.52 0.350902 1.98421 0
M  V30 9522 O 884.576 -0.229364 2.51456 0
M  V30 9523 C 885.889 2.74227 1.23371 0
M  V30 9524 C 887.437 2.82684 1.34383 0
M  V30 9525 C 887.912 4.23301 1.74871 0
M  V30 9526 N 889.403 4.25954 1.81981 0
M  V30 9527 C 890.138 5.31693 2.14686 0
M  V30 9528 N 889.634 6.47714 2.45844 0
M  V30 9529 N 891.427 5.19084 2.15657 0
M  V30 9530 H 883.578 2.11397 -0.206215 0
M  V30 9531 H 885.841 0.947537 -0.0296116 0
M  V30 9532 H 885.547 3.48368 0.482967 0
M  V30 9533 H 885.421 3.07485 2.18478 0
M  V30 9534 H 887.808 2.08801 2.08534 0
M  V30 9535 H 887.889 2.5305 0.374063 0
M  V30 9536 H 887.533 4.97699 1.01282 0
M  V30 9537 H 887.463 4.50376 2.7289 0
M  V30 9538 H 889.954 3.42266 1.60196 0
M  V30 9539 H 890.267 7.2414 2.69892 0
M  V30 9540 H 888.612 6.50995 2.43372 0
M  V30 9541 H 891.803 4.27463 1.9077 0
M  V30 9542 H 891.976 6.01592 2.40813 0
M  V30 9543 N 885.382 -0.782676 1.36792 0
M  V30 9544 C 886.292 -1.92679 1.33835 0
M  V30 9545 C 887.308 -1.72344 0.23952 0
M  V30 9546 O 888.484 -1.95766 0.473045 0
M  V30 9547 C 885.549 -3.27644 1.1336 0
M  V30 9548 C 884.61 -3.6071 2.32781 0
M  V30 9549 C 883.843 -4.89234 2.13273 0
M  V30 9550 O 884.066 -5.59468 1.11136 0
M  V30 9551 O 883 -5.21112 3.01208 0
M  V30 9552 H 886.826 -1.98124 2.30175 0
M  V30 9553 H 884.411 -0.923887 1.17408 0
M  V30 9554 H 886.293 -4.08394 1.03886 0
M  V30 9555 H 884.968 -3.23076 0.200868 0
M  V30 9556 H 883.875 -2.80238 2.47825 0
M  V30 9557 H 885.208 -3.70008 3.24584 0
M  V30 9558 N 886.86 -1.21182 -1.00761 0
M  V30 9559 C 887.79 -0.992773 -2.11344 0
M  V30 9560 C 888.771 0.0813618 -1.69905 0
M  V30 9561 O 889.956 -0.0779503 -1.94043 0
M  V30 9562 C 887.086 -0.553826 -3.42856 0
M  V30 9563 C 886.04 -1.57223 -3.98077 0
M  V30 9564 C 885.366 -0.989605 -5.25463 0
M  V30 9565 C 886.666 -2.95839 -4.30438 0
M  V30 9566 H 888.36 -1.91766 -2.29927 0
M  V30 9567 H 885.906 -0.923426 -1.10494 0
M  V30 9568 H 887.859 -0.387771 -4.19612 0
M  V30 9569 H 886.583 0.406702 -3.24058 0
M  V30 9570 H 885.242 -1.7258 -3.23437 0
M  V30 9571 H 884.89 -0.0208743 -5.02996 0
M  V30 9572 H 884.59 -1.66984 -5.63374 0
M  V30 9573 H 886.114 -0.834815 -6.04866 0
M  V30 9574 H 887.528 -2.8394 -4.98047 0
M  V30 9575 H 885.925 -3.60851 -4.79486 0
M  V30 9576 H 886.995 -3.46882 -3.38823 0
M  V30 9577 N 888.338 1.20213 -1.01915 0
M  V30 9578 C 889.563 1.94163 -0.729076 0
M  V30 9579 C 889.988 1.74416 0.704323 0
M  V30 9580 O 889.346 1.0401 1.48498 0
M  V30 9581 C 889.394 3.44258 -1.07324 0
M  V30 9582 O 888.498 4.11979 -0.186367 0
M  V30 9583 H 887.839 0.606506 -0.270272 0
M  V30 9584 H 890.369 1.52571 -1.3632 0
M  V30 9585 H 890.379 3.94888 -1.02603 0
M  V30 9586 H 889.054 3.57954 -2.11759 0
M  V30 9587 H 887.631 3.7176 -0.291334 0
M  V30 9588 N 889.816 0.795718 1.36037 0
M  V30 9589 C 890.726 0.199784 2.33748 0
M  V30 9590 C 891.742 -0.651436 1.61345 0
M  V30 9591 O 892.918 -0.565743 1.93291 0
M  V30 9592 C 889.983 -0.650475 3.40543 0
M  V30 9593 C 889.044 0.219974 4.28736 0
M  V30 9594 C 888.277 -0.589798 5.30431 0
M  V30 9595 O 888.5 -1.82532 5.40406 0
M  V30 9596 O 887.434 0.0136187 6.01898 0
M  V30 9597 H 891.26 1.00782 2.8649 0
M  V30 9598 H 888.845 0.557293 1.38617 0
M  V30 9599 H 890.727 -1.13512 4.05824 0
M  V30 9600 H 889.402 -1.4363 2.9009 0
M  V30 9601 H 888.309 0.751516 3.66474 0
M  V30 9602 H 889.642 0.969468 4.82558 0
M  V30 9603 N 891.294 -1.47756 0.548274 0
M  V30 9604 C 892.257 -2.28379 -0.193857 0
M  V30 9605 C 893.257 -1.36436 -0.850986 0
M  V30 9606 O 894.447 -1.59154 -0.70822 0
M  V30 9607 C 891.579 -3.15858 -1.28243 0
M  V30 9608 H 892.772 -2.95458 0.514231 0
M  V30 9609 H 890.325 -1.53298 0.304879 0
M  V30 9610 H 891.06 -2.5345 -2.0232 0
M  V30 9611 H 890.845 -3.83512 -0.816148 0
M  V30 9612 H 892.335 -3.76627 -1.80393 0
M  V30 9613 N 892.772 -0.284283 -1.55015 0
M  V30 9614 C 893.682 0.60906 -2.26556 0
M  V30 9615 C 894.698 1.16246 -1.29472 0
M  V30 9616 O 895.874 1.1908 -1.62425 0
M  V30 9617 C 892.939 1.77246 -2.97968 0
M  V30 9618 C 892 1.25482 -4.10552 0
M  V30 9619 C 891.233 2.36277 -4.78549 0
M  V30 9620 O 891.456 3.55829 -4.45805 0
M  V30 9621 O 890.39 2.03914 -5.66306 0
M  V30 9622 H 894.216 0.0292298 -3.03686 0
M  V30 9623 H 891.801 -0.0513466 -1.49312 0
M  V30 9624 H 893.683 2.45062 -3.42815 0
M  V30 9625 H 892.358 2.33921 -2.23747 0
M  V30 9626 H 891.265 0.542859 -3.7014 0
M  V30 9627 H 892.598 0.733708 -4.86701 0
M  V30 9628 N 894.251 1.57596 -0.0117121 0
M  V30 9629 C 895.497 1.91355 0.671661 0
M  V30 9630 C 895.83 0.886818 1.72769 0
M  V30 9631 O 895.105 -0.0928813 1.94278 0
M  V30 9632 C 895.388 3.35657 1.30409 0
M  V30 9633 C 895.241 4.49055 0.2588 0
M  V30 9634 C 896.56 3.79595 2.22701 0
M  V30 9635 H 893.679 0.695893 0.242698 0
M  V30 9636 H 896.321 1.89887 -0.0654071 0
M  V30 9637 H 894.471 3.37038 1.9323 0
M  V30 9638 H 896.143 4.59809 -0.370631 0
M  V30 9639 H 894.386 4.31785 -0.417672 0
M  V30 9640 H 895.057 5.4701 0.740578 0
M  V30 9641 H 897.533 3.7984 1.69885 0
M  V30 9642 H 896.409 4.81292 2.63912 0
M  V30 9643 H 896.67 3.14118 3.11098 0
M  V30 9644 N 895.729 -0.261212 1.5542 0
M  V30 9645 C 897.145 -0.609012 1.47524 0
M  V30 9646 C 897.345 -1.88986 0.699042 0
M  V30 9647 O 896.401 -2.51517 0.222628 0
M  V30 9648 C 897.714 -0.725025 2.91828 0
M  V30 9649 C 899.262 -0.818302 3.02114 0
M  V30 9650 C 899.737 -0.965996 4.47697 0
M  V30 9651 N 901.228 -1.03123 4.51575 0
M  V30 9652 C 901.963 -1.16451 5.6145 0
M  V30 9653 N 901.459 -1.26425 6.81167 0
M  V30 9654 N 903.252 -1.19655 5.49217 0
M  V30 9655 H 895.403 0.579807 2.04333 0
M  V30 9656 H 897.666 0.198072 0.927077 0
M  V30 9657 H 897.372 0.145871 3.51397 0
M  V30 9658 H 897.246 -1.60156 3.41511 0
M  V30 9659 H 899.633 -1.67966 2.42634 0
M  V30 9660 H 899.714 0.0830895 2.55665 0
M  V30 9661 H 899.358 -0.109251 5.07782 0
M  V30 9662 H 899.288 -1.88221 4.91813 0
M  V30 9663 H 901.779 -0.966072 3.65343 0
M  V30 9664 H 902.092 -1.36462 7.60656 0
M  V30 9665 H 900.437 -1.23408 6.83956 0
M  V30 9666 H 903.628 -1.11501 4.54626 0
M  V30 9667 H 903.801 -1.29698 6.34888 0
M  V30 9668 N 897.207 -1.48554 -0.526253 0
M  V30 9669 C 898.139 -1.59446 -1.6465 0
M  V30 9670 C 899.152 -0.478525 -1.55608 0
M  V30 9671 O 900.341 -0.74953 -1.62001 0
M  V30 9672 C 897.441 -1.51164 -3.03319 0
M  V30 9673 C 896.614 -2.77861 -3.37805 0
M  V30 9674 C 895.673 -2.62982 -4.5577 0
M  V30 9675 O 894.699 -3.36876 -4.58806 0
M  V30 9676 N 895.901 -1.72847 -5.5417 0
M  V30 9677 H 898.666 -2.56055 -1.55743 0
M  V30 9678 H 896.227 -1.45325 -0.713606 0
M  V30 9679 H 898.219 -1.389 -3.80117 0
M  V30 9680 H 896.789 -0.625147 -3.06285 0
M  V30 9681 H 896.009 -3.04663 -2.50149 0
M  V30 9682 H 897.297 -3.61908 -3.57632 0
M  V30 9683 H 896.695 -1.12022 -5.54498 0
M  V30 9684 H 895.252 -1.6652 -6.3017 0
M  V30 9685 N 898.685 0.775411 -1.37205 0
M  V30 9686 C 899.635 1.87867 -1.29189 0
M  V30 9687 C 900.619 1.59885 -0.180466 0
M  V30 9688 O 901.811 1.72077 -0.414536 0
M  V30 9689 C 898.94 3.25285 -1.09748 0
M  V30 9690 C 898.026 3.59231 -2.25419 0
M  V30 9691 N 898.417 3.64386 -3.50795 0
M  V30 9692 C 896.715 3.89375 -2.17492 0
M  V30 9693 C 897.416 3.94974 -4.27048 0
M  V30 9694 N 896.392 4.10684 -3.56146 0
M  V30 9695 H 900.194 1.90099 -2.24142 0
M  V30 9696 H 897.708 0.971667 -1.30125 0
M  V30 9697 H 899.705 4.04207 -1.02091 0
M  V30 9698 H 898.365 3.2432 -0.157083 0
M  V30 9699 H 899.376 3.46682 -3.8475 0
M  V30 9700 H 896.053 3.96254 -1.31489 0
M  V30 9701 H 897.443 4.05768 -5.35539 0
M  V30 9702 N 900.163 1.21714 1.00117 0
M  V30 9703 C 901.579 0.97532 1.26332 0
M  V30 9704 C 901.779 -0.336029 1.98678 0
M  V30 9705 O 900.835 -1.06073 2.29139 0
M  V30 9706 C 902.148 2.16848 2.0832 0
M  V30 9707 C 903.696 2.21115 2.21533 0
M  V30 9708 C 904.171 3.3996 3.06906 0
M  V30 9709 N 905.662 3.40071 3.14494 0
M  V30 9710 C 906.397 4.28678 3.80818 0
M  V30 9711 N 905.893 5.2749 4.49139 0
M  V30 9712 N 907.686 4.16476 3.77497 0
M  V30 9713 H 899.837 2.06039 0.515897 0
M  V30 9714 H 902.1 0.902423 0.290408 0
M  V30 9715 H 901.806 3.119 1.62515 0
M  V30 9716 H 901.68 2.16226 3.09073 0
M  V30 9717 H 904.067 1.26616 2.66557 0
M  V30 9718 H 904.148 2.2578 1.20238 0
M  V30 9719 H 903.792 4.34755 2.62585 0
M  V30 9720 H 903.722 3.32534 4.08324 0
M  V30 9721 H 906.213 2.68563 2.65861 0
M  V30 9722 H 906.526 5.91397 4.97463 0
M  V30 9723 H 904.871 5.31412 4.47914 0
M  V30 9724 H 908.062 3.38539 3.23278 0
M  V30 9725 H 908.235 4.85739 4.28908 0
M  V30 9726 N 901.641 -1.19671 1.02551 0
M  V30 9727 C 902.551 -2.26441 0.613329 0
M  V30 9728 C 903.567 -1.70375 -0.353339 0
M  V30 9729 O 904.743 -2.0028 -0.212064 0
M  V30 9730 C 901.808 -3.46684 -0.0329028 0
M  V30 9731 C 900.869 -4.17945 0.980837 0
M  V30 9732 C 900.102 -5.32448 0.36535 0
M  V30 9733 O 900.325 -5.64291 -0.832596 0
M  V30 9734 O 899.259 -5.92012 1.08652 0
M  V30 9735 H 903.085 -2.63932 1.50246 0
M  V30 9736 H 900.67 -1.2646 0.795502 0
M  V30 9737 H 902.552 -4.1956 -0.393395 0
M  V30 9738 H 901.227 -3.1105 -0.896089 0
M  V30 9739 H 900.134 -3.47204 1.39286 0
M  V30 9740 H 901.467 -4.57542 1.81428 0
M  V30 9741 N 903.119 -0.802921 -1.35613 0
M  V30 9742 C 904.082 -0.216422 -2.28176 0
M  V30 9743 C 905.082 0.594101 -1.49422 0
M  V30 9744 O 906.272 0.41312 -1.6923 0
M  V30 9745 C 903.404 0.698746 -3.33662 0
M  V30 9746 H 904.597 -1.03276 -2.81557 0
M  V30 9747 H 902.15 -0.573307 -1.45406 0
M  V30 9748 H 902.885 1.53891 -2.85461 0
M  V30 9749 H 902.67 0.119314 -3.91918 0
M  V30 9750 H 904.16 1.10354 -4.02755 0
M  V30 9751 N 904.597 1.47463 -0.556102 0
M  V30 9752 C 906.013 1.58134 -0.21579 0
M  V30 9753 C 906.213 1.55486 1.28166 0
M  V30 9754 O 905.269 1.45768 2.06174 0
M  V30 9755 C 906.582 2.88686 -0.841464 0
M  V30 9756 C 908.13 3.02268 -0.812591 0
M  V30 9757 C 908.605 4.35518 -1.41731 0
M  V30 9758 N 910.096 4.42151 -1.38045 0
M  V30 9759 C 910.831 5.43817 -1.81799 0
M  V30 9760 N 910.327 6.52299 -2.33404 0
M  V30 9761 N 912.12 5.34855 -1.72877 0
M  V30 9762 H 904.271 1.47428 -1.52901 0
M  V30 9763 H 906.534 0.701586 -0.637559 0
M  V30 9764 H 906.24 2.96358 -1.8938 0
M  V30 9765 H 906.114 3.7572 -0.333846 0
M  V30 9766 H 908.501 2.94194 0.231056 0
M  V30 9767 H 908.582 2.16779 -1.35796 0
M  V30 9768 H 908.226 4.44348 -2.46002 0
M  V30 9769 H 908.156 5.19737 -0.847402 0
M  V30 9770 H 910.647 3.64348 -1.00296 0
M  V30 9771 H 910.96 7.26047 -2.64717 0
M  V30 9772 H 909.305 6.53192 -2.37414 0
M  V30 9773 H 912.496 4.49004 -1.32338 0
M  V30 9774 H 912.669 6.13949 -2.07294 0
M  V30 9775 N 906.075 0.2925 1.54862 0
M  V30 9776 C 907.486 -0.201841 1.85606 0
M  V30 9777 C 907.837 -1.54093 1.21449 0
M  V30 9778 O 906.962 -2.10327 0.509079 0
M  V30 9779 C 907.557 -0.373011 3.3674 0
M  V30 9780 C 906.116 -0.811574 3.67547 0
M  V30 9781 C 905.263 0.0850583 2.7717 0
M  V30 9782 H 908.214 0.513774 1.50153 0
M  V30 9783 H 908.235 -1.20892 3.60785 0
M  V30 9784 H 907.747 0.601751 3.83407 0
M  V30 9785 H 905.848 -1.79719 3.26392 0
M  V30 9786 H 905.961 -0.636853 4.74848 0
M  V30 9787 H 904.325 -0.434224 2.50971 0
M  V30 9788 H 905.108 1.05602 3.26654 0
M  V30 9789 N 907.553 -1.57587 0.0200696 0
M  V30 9790 C 908.516 -2.08595 -0.949767 0
M  V30 9791 C 909.516 -0.999215 -1.25985 0
M  V30 9792 O 910.706 -1.26115 -1.2017 0
M  V30 9793 C 907.838 -2.54424 -2.26895 0
M  V30 9794 H 909.031 -2.95563 -0.508161 0
M  V30 9795 H 906.584 -1.54631 -0.227798 0
M  V30 9796 H 907.319 -1.70758 -2.75703 0
M  V30 9797 H 907.104 -3.3381 -2.05702 0
M  V30 9798 H 908.594 -2.94144 -2.96427 0
M  V30 9799 N 909.032 0.252966 -1.55557 0
M  V30 9800 C 909.962 1.31691 -1.9282 0
M  V30 9801 C 910.943 1.50516 -0.7924 0
M  V30 9802 O 912.128 1.63225 -1.05219 0
M  V30 9803 C 909.258 2.67281 -2.21762 0
M  V30 9804 C 908.212 2.6316 -3.37536 0
M  V30 9805 C 907.538 4.02488 -3.52005 0
M  V30 9806 C 908.838 2.20675 -4.73392 0
M  V30 9807 H 910.532 1.00751 -2.81939 0
M  V30 9808 H 908.078 0.483219 -1.3565 0
M  V30 9809 H 910.031 3.41842 -2.46419 0
M  V30 9810 H 908.755 2.99845 -1.29463 0
M  V30 9811 H 907.414 1.91057 -3.12878 0
M  V30 9812 H 907.062 4.32307 -2.57137 0
M  V30 9813 H 906.762 4.00621 -4.29857 0
M  V30 9814 H 908.286 4.78758 -3.78977 0
M  V30 9815 H 909.7 2.84965 -4.97461 0
M  V30 9816 H 908.097 2.29931 -5.54303 0
M  V30 9817 H 909.167 1.15831 -4.70862 0
M  V30 9818 N 910.51 1.48831 0.518367 0
M  V30 9819 C 911.44 1.67119 1.63075 0
M  V30 9820 C 912.421 0.519948 1.61958 0
M  V30 9821 O 913.606 0.753824 1.78972 0
M  V30 9822 C 910.736 1.72158 3.01627 0
M  V30 9823 C 909.69 2.86898 3.17606 0
M  V30 9824 C 909.016 2.77035 4.57335 0
M  V30 9825 C 910.316 4.28057 2.99274 0
M  V30 9826 H 912.01 2.60248 1.48025 0
M  V30 9827 H 909.556 1.2524 0.710694 0
M  V30 9828 H 911.509 1.83539 3.7933 0
M  V30 9829 H 910.233 0.756157 3.17726 0
M  V30 9830 H 908.892 2.75091 2.42323 0
M  V30 9831 H 908.54 1.78438 4.70286 0
M  V30 9832 H 908.24 3.54036 4.6897 0
M  V30 9833 H 909.764 2.904 5.37122 0
M  V30 9834 H 911.178 4.40636 3.6676 0
M  V30 9835 H 909.575 5.06145 3.22393 0
M  V30 9836 H 910.645 4.4371 1.95574 0
M  V30 9837 N 911.988 -0.768124 1.37614 0
M  V30 9838 C 913.216 -1.55726 1.36224 0
M  V30 9839 C 913.631 -1.8873 -0.0515357 0
M  V30 9840 O 912.988 -1.51718 -1.0143 0
M  V30 9841 C 913.039 -2.86533 2.20412 0
M  V30 9842 O 912.76 -2.54942 3.56281 0
M  V30 9843 C 914.261 -3.80745 2.27041 0
M  V30 9844 H 911.481 -0.482325 0.46648 0
M  V30 9845 H 914.025 -0.95176 1.81002 0
M  V30 9846 H 912.18 -3.43496 1.79134 0
M  V30 9847 H 912.594 -3.38732 4.00451 0
M  V30 9848 H 914.068 -4.69523 2.90263 0
M  V30 9849 H 914.545 -4.20138 1.27987 0
M  V30 9850 H 915.151 -3.2971 2.68647 0
M  V30 9851 N 913.466 -1.22244 -0.994698 0
M  V30 9852 C 914.691 -1.07299 -1.77487 0
M  V30 9853 C 915.116 0.372302 -1.84379 0
M  V30 9854 O 914.474 1.2689 -1.29494 0
M  V30 9855 C 914.522 -1.68675 -3.18718 0
M  V30 9856 O 913.626 -0.939202 -4.01563 0
M  V30 9857 H 912.967 -0.376979 -0.546611 0
M  V30 9858 H 915.497 -1.62003 -1.24965 0
M  V30 9859 H 915.507 -1.73324 -3.69354 0
M  V30 9860 H 914.182 -2.73849 -3.13017 0
M  V30 9861 H 912.759 -0.968583 -3.60101 0
M  V30 9862 N 914.944 1.19125 -1.03184 0
M  V30 9863 C 916.36 1.40909 -0.749447 0
M  V30 9864 C 916.56 1.9022 0.664729 0
M  V30 9865 O 915.616 2.08085 1.43028 0
M  V30 9866 C 916.929 2.41761 -1.78807 0
M  V30 9867 C 918.477 2.55503 -1.80796 0
M  V30 9868 C 918.952 3.59612 -2.83626 0
M  V30 9869 N 920.443 3.6711 -2.82461 0
M  V30 9870 C 921.178 4.47366 -3.5868 0
M  V30 9871 N 920.674 5.31302 -4.44623 0
M  V30 9872 N 922.467 4.42044 -3.47208 0
M  V30 9873 H 914.618 0.854399 -1.94458 0
M  V30 9874 H 916.881 0.437753 -0.840878 0
M  V30 9875 H 916.587 2.12559 -2.80199 0
M  V30 9876 H 916.461 3.40981 -1.61283 0
M  V30 9877 H 918.848 2.84027 -0.800803 0
M  V30 9878 H 918.929 1.56427 -2.02396 0
M  V30 9879 H 918.573 3.3183 -3.84515 0
M  V30 9880 H 918.503 4.58345 -2.59283 0
M  V30 9881 H 920.994 3.07166 -2.2013 0
M  V30 9882 H 921.307 5.89667 -4.99512 0
M  V30 9883 H 919.652 5.30753 -4.48694 0
M  V30 9884 H 922.843 3.75513 -2.79477 0
M  V30 9885 H 923.016 5.0435 -4.06859 0
M  V30 9886 N 916.422 0.810101 1.35185 0
M  V30 9887 C 917.352 0.237453 2.32289 0
M  V30 9888 C 918.333 -0.639032 1.5764 0
M  V30 9889 O 919.518 -0.568575 1.8569 0
M  V30 9890 C 916.648 -0.611964 3.41866 0
M  V30 9891 C 915.602 0.166318 4.27677 0
M  V30 9892 C 914.928 -0.805024 5.28605 0
M  V30 9893 C 916.228 1.36729 5.04086 0
M  V30 9894 H 917.922 1.04874 2.80432 0
M  V30 9895 H 915.468 0.505751 1.34826 0
M  V30 9896 H 917.421 -1.02267 4.08802 0
M  V30 9897 H 916.145 -1.45617 2.92341 0
M  V30 9898 H 914.804 0.558238 3.62325 0
M  V30 9899 H 914.452 -1.64483 4.75347 0
M  V30 9900 H 914.152 -0.288577 5.86891 0
M  V30 9901 H 915.676 -1.21386 5.98413 0
M  V30 9902 H 917.09 1.03128 5.63948 0
M  V30 9903 H 915.487 1.81848 5.71884 0
M  V30 9904 H 916.557 2.15214 4.34524 0
M  V30 9905 N 917.9 -1.47166 0.563914 0
M  V30 9906 C 919.316 -1.58018 0.224173 0
M  V30 9907 C 919.516 -1.56163 -1.27339 0
M  V30 9908 O 918.572 -1.4686 -2.05398 0
M  V30 9909 C 919.885 -2.88236 0.856762 0
M  V30 9910 C 921.433 -3.01833 0.82861 0
M  V30 9911 C 921.908 -4.34761 1.44039 0
M  V30 9912 N 923.399 -4.41413 1.40388 0
M  V30 9913 C 924.134 -5.42845 1.84681 0
M  V30 9914 N 923.63 -6.51052 2.3686 0
M  V30 9915 N 925.423 -5.33931 1.75711 0
M  V30 9916 H 917.574 -1.46615 1.53681 0
M  V30 9917 H 919.837 -0.698195 0.64127 0
M  V30 9918 H 919.543 -2.95349 1.90949 0
M  V30 9919 H 919.417 -3.75537 0.353766 0
M  V30 9920 H 921.804 -2.94312 -0.215451 0
M  V30 9921 H 921.885 -2.16056 1.36943 0
M  V30 9922 H 921.529 -4.43037 2.48355 0
M  V30 9923 H 921.459 -5.1928 0.874953 0
M  V30 9924 H 923.95 -3.63811 1.02227 0
M  V30 9925 H 924.263 -7.24633 2.68564 0
M  V30 9926 H 922.608 -6.51924 2.40875 0
M  V30 9927 H 925.799 -4.48295 1.34718 0
M  V30 9928 H 925.972 -6.12841 2.10547 0
M  V30 9929 N 919.378 -0.300708 -1.54705 0
M  V30 9930 C 920.625 0.308654 -2.00134 0
M  V30 9931 C 920.953 1.53918 -1.1891 0
M  V30 9932 O 920.208 1.94054 -0.253263 0
M  V30 9933 C 920.507 0.710108 -3.50275 0
M  V30 9934 C 920.173 -0.418651 -4.48952 0
M  V30 9935 C 918.835 -0.728524 -4.75653 0
M  V30 9936 C 921.187 -1.17797 -5.07714 0
M  V30 9937 C 918.515 -1.80085 -5.58378 0
M  V30 9938 C 920.867 -2.24022 -5.91606 0
M  V30 9939 C 919.531 -2.55616 -6.16617 0
M  V30 9940 H 918.801 0.112945 -0.732342 0
M  V30 9941 H 921.448 -0.419744 -1.86843 0
M  V30 9942 H 919.753 1.51859 -3.61173 0
M  V30 9943 H 921.45 1.19277 -3.8285 0
M  V30 9944 H 918.04 -0.167034 -4.28274 0
M  V30 9945 H 922.224 -0.951835 -4.87087 0
M  V30 9946 H 917.48 -2.05036 -5.75995 0
M  V30 9947 H 921.654 -2.83317 -6.36164 0
M  V30 9948 H 919.281 -3.38839 -6.80509 0
M  V30 9949 N 920.856 1.57574 -0.0284266 0
M  V30 9950 C 922.105 1.9095 0.649704 0
M  V30 9951 C 922.418 0.906421 1.7333 0
M  V30 9952 O 923.624 1.1314 2.46803 0
M  V30 9953 C 922.08 3.39061 1.20687 0
M  V30 9954 C 921.688 4.47726 0.156597 0
M  V30 9955 C 923.432 3.81505 1.86156 0
M  V30 9956 C 921.339 5.86935 0.725365 0
M  V30 9957 H 920.269 0.712589 0.24644 0
M  V30 9958 H 922.92 1.83261 -0.0936143 0
M  V30 9959 H 921.302 3.41679 2.00178 0
M  V30 9960 H 922.476 4.56667 -0.6158 0
M  V30 9961 H 920.791 4.14481 -0.399288 0
M  V30 9962 H 923.388 4.82865 2.29665 0
M  V30 9963 H 923.731 3.16529 2.70398 0
M  V30 9964 H 924.264 3.81307 1.13356 0
M  V30 9965 H 921.003 6.55453 -0.0789081 0
M  V30 9966 H 920.523 5.81602 1.46627 0
M  V30 9967 H 922.202 6.35483 1.21532 0
M  V30 9968 N 922.334 -0.244713 1.55689 0
M  V30 9969 C 923.745 -0.813603 1.6804 0
M  V30 9970 C 924.096 -1.85936 0.626281 0
M  V30 9971 O 923.221 -2.15206 -0.227038 0
M  V30 9972 C 923.816 -1.48252 3.04642 0
M  V30 9973 C 922.375 -1.99908 3.18926 0
M  V30 9974 C 921.522 -0.850958 2.6392 0
M  V30 9975 H 924.473 -0.0204805 1.58687 0
M  V30 9976 H 924.494 -2.35062 2.99209 0
M  V30 9977 H 924.006 -0.721164 3.81341 0
M  V30 9978 H 922.107 -2.78918 2.47054 0
M  V30 9979 H 922.22 -2.19497 4.25862 0
M  V30 9980 H 920.584 -1.25206 2.21801 0
M  V30 9981 H 921.367 -0.10265 3.43146 0
M  V30 9982 N 923.813 -1.49104 -0.510467 0
M  V30 9983 C 924.76 -1.65074 -1.61305 0
M  V30 9984 C 925.73 -0.492362 -1.58635 0
M  V30 9985 O 926.915 -0.718241 -1.76765 0
M  V30 9986 C 924.055 -1.71457 -2.99493 0
M  V30 9987 C 923.168 -2.98536 -3.12251 0
M  V30 9988 C 922.303 -2.95957 -4.41116 0
M  V30 9989 C 921.342 -4.17655 -4.47471 0
M  V30 9990 N 920.479 -4.13041 -5.67751 0
M  V30 9991 H 925.319 -2.59222 -1.46996 0
M  V30 9992 H 922.856 -1.28535 -0.715346 0
M  V30 9993 H 924.814 -1.7314 -3.79577 0
M  V30 9994 H 923.444 -0.807834 -3.12528 0
M  V30 9995 H 922.496 -3.06509 -2.25292 0
M  V30 9996 H 923.808 -3.88527 -3.12807 0
M  V30 9997 H 922.962 -2.96149 -5.2951 0
M  V30 9998 H 921.701 -2.03728 -4.4311 0
M  V30 9999 H 920.706 -4.17717 -3.57481 0
M  V30 10000 H 921.931 -5.11066 -4.472 0
M  V30 10001 H 919.877 -3.23643 -5.70606 0
M  V30 10002 H 919.794 -4.96757 -5.69884 0
M  V30 10003 H 921.062 -4.17322 -6.58379 0
M  V30 10004 N 925.291 0.760815 -1.38019 0
M  V30 10005 C 926.702 1.33773 -1.30237 0
M  V30 10006 C 927.053 1.96148 0.0451153 0
M  V30 10007 O 926.178 1.94574 0.9471 0
M  V30 10008 C 926.773 2.43227 -2.35851 0
M  V30 10009 C 925.332 2.96659 -2.31669 0
M  V30 10010 C 924.479 1.69972 -2.191 0
M  V30 10011 H 927.43 0.560237 -1.48482 0
M  V30 10012 H 927.451 3.22985 -2.01149 0
M  V30 10013 H 926.963 1.978 -3.33911 0
M  V30 10014 H 925.064 3.46433 -1.37167 0
M  V30 10015 H 925.177 3.51529 -3.25521 0
M  V30 10016 H 923.541 1.9332 -1.65829 0
M  V30 10017 H 924.324 1.26633 -3.19091 0
M  V30 10018 N 926.769 1.22769 0.988202 0
M  V30 10019 C 928.046 0.9635 1.70223 0
M  V30 10020 C 928.426 -0.520102 2.04593 0
M  V30 10021 O 927.774 -1.48934 1.73295 0
M  V30 10022 C 927.984 1.86583 2.94937 0
M  V30 10023 C 929.332 2.12469 3.67616 0
M  V30 10024 O 930.356 1.84069 3.04954 0
M  V30 10025 O 929.215 2.60595 4.80367 0
M  V30 10026 H 926.309 0.362737 0.743203 0
M  V30 10027 H 928.855 1.33776 1.04412 0
M  V30 10028 H 927.627 2.86913 2.66077 0
M  V30 10029 H 927.25 1.49344 3.68486 0
M  V30 10030 N 928.247 -1.18576 1.03814 0
M  V30 10031 C 929.495 -1.88121 0.738574 0
M  V30 10032 C 929.816 -1.80587 -0.735744 0
M  V30 10033 O 929.086 -1.22251 -1.53074 0
M  V30 10034 H 927.666 -0.696417 0.270208 0
M  V30 10035 H 930.328 -1.43912 1.31435 0
M  V30 10036 H 929.424 -2.94222 1.04115 0
M  V30 10037 N 929.725 -0.817259 -1.34754 0
M  V30 10038 C 930.655 -0.249769 -2.3216 0
M  V30 10039 C 931.636 0.630663 -1.57977 0
M  V30 10040 O 932.821 0.558719 -1.85989 0
M  V30 10041 C 929.951 0.593825 -3.42186 0
M  V30 10042 C 928.905 -0.188997 -4.27583 0
M  V30 10043 C 928.231 0.776979 -5.29025 0
M  V30 10044 C 929.531 -1.39401 -5.03354 0
M  V30 10045 H 931.225 -1.06359 -2.79872 0
M  V30 10046 H 928.771 -0.512894 -1.34556 0
M  V30 10047 H 930.724 1.00097 -4.09339 0
M  V30 10048 H 929.448 1.44064 -2.93109 0
M  V30 10049 H 928.107 -0.577445 -3.62024 0
M  V30 10050 H 927.755 1.61959 -4.76212 0
M  V30 10051 H 927.455 0.257448 -5.87036 0
M  V30 10052 H 928.979 1.18211 -5.99048 0
M  V30 10053 H 930.393 -1.06117 -5.63393 0
M  V30 10054 H 928.79 -1.84878 -5.70912 0
M  V30 10055 H 929.86 -2.17515 -4.33377 0
M  V30 10056 N 931.203 1.46865 -0.571711 0
M  V30 10057 C 932.619 1.57897 -0.23255 0
M  V30 10058 C 932.819 1.56836 1.26509 0
M  V30 10059 O 931.875 1.47947 2.04617 0
M  V30 10060 C 933.188 2.87778 -0.872036 0
M  V30 10061 C 934.736 3.01389 -0.844605 0
M  V30 10062 C 935.211 4.33991 -1.46343 0
M  V30 10063 N 936.702 4.40662 -1.42727 0
M  V30 10064 C 937.437 5.41858 -1.87557 0
M  V30 10065 N 936.933 6.49787 -2.4031 0
M  V30 10066 N 938.726 5.32992 -1.7854 0
M  V30 10067 H 930.877 1.45798 -1.54457 0
M  V30 10068 H 933.14 0.694785 -0.644964 0
M  V30 10069 H 932.846 2.94332 -1.92513 0
M  V30 10070 H 932.72 3.75345 -0.373677 0
M  V30 10071 H 935.107 2.94423 0.19984 0
M  V30 10072 H 935.188 2.15327 -1.38087 0
M  V30 10073 H 934.832 4.41714 -2.50701 0
M  V30 10074 H 934.762 5.18809 -0.902479 0
M  V30 10075 H 937.253 3.63263 -1.04155 0
M  V30 10076 H 937.566 7.23199 -2.72403 0
M  V30 10077 H 935.911 6.50637 -2.44329 0
M  V30 10078 H 939.102 4.47575 -1.37093 0
M  V30 10079 H 939.275 6.11716 -2.13794 0
M  V30 10080 N 932.681 0.308908 1.54543 0
M  V30 10081 C 934.092 -0.182144 1.85809 0
M  V30 10082 C 934.443 -1.52796 1.23076 0
M  V30 10083 O 933.568 -2.09775 0.531358 0
M  V30 10084 C 934.163 -0.337275 3.37117 0
M  V30 10085 C 932.722 -0.772545 3.68387 0
M  V30 10086 C 931.869 0.114451 2.77064 0
M  V30 10087 H 934.82 0.529671 1.496 0
M  V30 10088 H 934.841 -1.17058 3.62046 0
M  V30 10089 H 934.353 0.642382 3.82747 0
M  V30 10090 H 932.454 -1.76247 3.2828 0
M  V30 10091 H 932.567 -0.586453 4.75497 0
M  V30 10092 H 930.931 -0.407581 2.51418 0
M  V30 10093 H 931.714 1.09061 3.25516 0
M  V30 10094 N 934.159 -1.57557 0.0367827 0
M  V30 10095 C 935.408 -1.91291 -0.639569 0
M  V30 10096 C 935.721 -0.915601 -1.72847 0
M  V30 10097 O 936.927 -1.14447 -2.46199 0
M  V30 10098 C 935.383 -3.39697 -1.18888 0
M  V30 10099 C 934.991 -4.47803 -0.132851 0
M  V30 10100 C 936.735 -3.82487 -1.8413 0
M  V30 10101 C 934.642 -5.87311 -0.694229 0
M  V30 10102 H 933.572 -0.713886 -0.242658 0
M  V30 10103 H 936.223 -1.83209 0.103332 0
M  V30 10104 H 934.605 -3.42736 -1.98363 0
M  V30 10105 H 935.779 -4.56334 0.640009 0
M  V30 10106 H 934.094 -4.14264 0.421264 0
M  V30 10107 H 936.691 -4.84076 -2.27101 0
M  V30 10108 H 937.034 -3.17959 -2.68716 0
M  V30 10109 H 937.567 -3.81903 -1.11332 0
M  V30 10110 H 934.306 -6.55401 0.113667 0
M  V30 10111 H 933.826 -5.82371 -1.4354 0
M  V30 10112 H 935.505 -6.36119 -1.1816 0
M  V30 10113 N 935.637 0.236453 -1.55816 0
M  V30 10114 C 936.883 0.964439 -1.784 0
M  V30 10115 C 937.216 1.84573 -0.603868 0
M  V30 10116 O 936.491 1.90395 0.397473 0
M  V30 10117 C 936.774 1.81608 -3.10951 0
M  V30 10118 C 936.627 0.962283 -4.39386 0
M  V30 10119 C 937.946 2.79665 -3.39817 0
M  V30 10120 H 935.065 0.349192 -0.649026 0
M  V30 10121 H 937.707 0.234247 -1.8855 0
M  V30 10122 H 935.857 2.43864 -3.02428 0
M  V30 10123 H 937.529 0.35762 -4.59912 0
M  V30 10124 H 935.772 0.267062 -4.32977 0
M  V30 10125 H 936.443 1.59222 -5.28538 0
M  V30 10126 H 938.919 2.27546 -3.4837 0
M  V30 10127 H 937.795 3.36367 -4.33761 0
M  V30 10128 H 938.056 3.56657 -2.61244 0
M  V30 10129 N 937.115 1.49373 0.502552 0
M  V30 10130 C 938.063 1.66411 1.62512 0
M  V30 10131 C 939.057 0.530062 1.60893 0
M  V30 10132 O 940.263 0.709648 1.65421 0
M  V30 10133 H 936.638 0.524707 0.538689 0
M  V30 10134 H 938.609 2.60639 1.45293 0
M  V30 10135 C 937.358 1.74648 3.00655 0
M  V30 10136 H 936.681 2.61285 3.02606 0
M  V30 10137 H 938.121 1.90605 3.78742 0
M  V30 10138 C 936.58 0.490963 3.33303 0
M  V30 10139 O 937.11 -0.384039 3.9986 0
M  V30 10140 N 935.316 0.354375 2.88431 0
M  V30 10141 H 934.863 1.06742 2.34444 0
M  V30 10142 H 934.821 -0.484593 3.10643 0
M  V30 10143 N 938.594 -0.753485 1.38421 0
M  V30 10144 C 939.527 -1.87525 1.30037 0
M  V30 10145 C 940.505 -1.6163 0.177379 0
M  V30 10146 O 941.689 -1.85132 0.354716 0
M  V30 10147 C 938.816 -3.23138 1.01485 0
M  V30 10148 C 937.862 -3.67921 2.15723 0
M  V30 10149 S 938.695 -3.79447 3.77863 0
M  V30 10150 C 939.851 -5.17879 3.51499 0
M  V30 10151 H 940.084 -1.94351 2.24978 0
M  V30 10152 H 937.617 -0.916475 1.24258 0
M  V30 10153 H 939.575 -4.01455 0.856959 0
M  V30 10154 H 938.236 -3.13991 0.0826199 0
M  V30 10155 H 937.429 -4.66287 1.91292 0
M  V30 10156 H 937.031 -2.96758 2.2762 0
M  V30 10157 H 939.323 -6.03636 3.0762 0
M  V30 10158 H 940.266 -5.47331 4.49259 0
M  V30 10159 H 940.674 -4.86681 2.8601 0
M  V30 10160 N 940.072 -1.23292 -0.981677 0
M  V30 10161 C 941.349 -0.972514 -1.6971 0
M  V30 10162 C 941.729 0.509244 -2.04866 0
M  V30 10163 O 941.077 1.48013 -1.74082 0
M  V30 10164 C 941.287 -1.88144 -2.93943 0
M  V30 10165 C 942.635 -2.14416 -3.66485 0
M  V30 10166 O 943.659 -1.85684 -3.03974 0
M  V30 10167 O 942.518 -2.63139 -4.78978 0
M  V30 10168 H 939.612 -0.366673 -0.741269 0
M  V30 10169 H 942.158 -1.34328 -1.03701 0
M  V30 10170 H 940.93 -2.8832 -2.64551 0
M  V30 10171 H 940.553 -1.51296 -3.67689 0
M  V30 10172 N 941.55 1.18024 -1.04442 0
M  V30 10173 C 942.78 1.91753 -0.769044 0
M  V30 10174 C 943.188 1.76629 0.678141 0
M  V30 10175 O 942.531 1.09589 1.47431 0
M  V30 10176 C 942.593 3.43505 -1.0604 0
M  V30 10177 C 942.257 3.82409 -2.50225 0
M  V30 10178 C 943.254 3.8588 -3.48414 0
M  V30 10179 C 940.939 4.13594 -2.85036 0
M  V30 10180 C 942.933 4.19993 -4.79463 0
M  V30 10181 C 940.62 4.47377 -4.1629 0
M  V30 10182 C 941.618 4.50553 -5.13314 0
M  V30 10183 O 941.306 4.83546 -6.42214 0
M  V30 10184 H 941.038 0.615466 -0.279603 0
M  V30 10185 H 943.592 1.5065 -1.3962 0
M  V30 10186 H 941.822 3.84866 -0.376125 0
M  V30 10187 H 943.511 3.98486 -0.772235 0
M  V30 10188 H 944.277 3.6192 -3.2286 0
M  V30 10189 H 940.156 4.10297 -2.10185 0
M  V30 10190 H 943.7 4.22387 -5.55189 0
M  V30 10191 H 939.597 4.70798 -4.4161 0
M  V30 10192 H 940.365 5.01433 -6.46921 0
M  V30 10193 N 943.028 0.824394 1.34319 0
M  V30 10194 C 944.274 0.413779 1.98534 0
M  V30 10195 C 944.607 -1.02089 1.65201 0
M  V30 10196 O 943.882 -1.71129 0.924402 0
M  V30 10197 C 944.165 0.61801 3.54757 0
M  V30 10198 C 944.018 2.0989 3.97827 0
M  V30 10199 C 945.337 0.0549041 4.40066 0
M  V30 10200 H 942.456 0.151815 0.721194 0
M  V30 10201 H 945.098 1.03723 1.5919 0
M  V30 10202 H 943.248 0.0873107 3.88402 0
M  V30 10203 H 944.92 2.69335 3.74508 0
M  V30 10204 H 943.163 2.58881 3.48085 0
M  V30 10205 H 943.834 2.1926 5.06586 0
M  V30 10206 H 946.31 0.508348 4.12983 0
M  V30 10207 H 945.186 0.227595 5.48428 0
M  V30 10208 H 945.447 -1.04025 4.29687 0
M  V30 10209 N 944.506 -1.46559 0.579492 0
M  V30 10210 C 945.752 -2.02699 0.0639363 0
M  V30 10211 C 946.085 -1.4504 -1.29139 0
M  V30 10212 O 945.36 -0.614284 -1.84545 0
M  V30 10213 C 945.643 -3.601 -0.00528618 0
M  V30 10214 C 945.496 -4.28149 1.37871 0
M  V30 10215 C 946.815 -4.34375 -0.707537 0
M  V30 10216 H 943.934 -0.736586 0.0247085 0
M  V30 10217 H 946.576 -1.74739 0.746071 0
M  V30 10218 H 944.726 -3.84052 -0.586206 0
M  V30 10219 H 946.398 -4.1547 2.00455 0
M  V30 10220 H 944.641 -3.87636 1.94732 0
M  V30 10221 H 945.312 -5.36888 1.28278 0
M  V30 10222 H 947.788 -4.15549 -0.214064 0
M  V30 10223 H 946.664 -5.44091 -0.724992 0
M  V30 10224 H 946.925 -4.052 -1.7682 0
M  V30 10225 N 945.984 -0.3171 -1.54377 0
M  V30 10226 C 947.232 0.286842 -2.00054 0
M  V30 10227 C 947.553 1.53161 -1.20692 0
M  V30 10228 O 946.823 1.93479 -0.307045 0
M  V30 10229 H 945.403 0.108979 -0.739008 0
M  V30 10230 H 948.065 -0.432152 -1.90049 0
M  V30 10231 H 947.161 0.547729 -3.07256 0
M  V30 10232 N 947.462 1.57535 -0.0451378 0
M  V30 10233 C 948.425 2.1008 0.916461 0
M  V30 10234 C 949.425 1.01913 1.2438 0
M  V30 10235 O 950.615 1.2801 1.18148 0
M  V30 10236 C 947.747 2.58001 2.22818 0
M  V30 10237 H 948.94 2.96334 0.461076 0
M  V30 10238 H 946.493 1.54974 0.203169 0
M  V30 10239 H 947.228 1.75123 2.72951 0
M  V30 10240 H 947.013 3.3704 2.00366 0
M  V30 10241 H 948.503 2.98822 2.9171 0
M  V30 10242 N 948.94 -0.228186 1.55939 0
M  V30 10243 C 950.356 -0.577583 1.48782 0
M  V30 10244 C 950.556 -1.87461 0.738972 0
M  V30 10245 O 949.612 -2.50988 0.275929 0
M  V30 10246 C 950.925 -0.662961 2.93301 0
M  V30 10247 C 952.473 -0.754035 3.03782 0
M  V30 10248 C 952.948 -0.870815 4.49645 0
M  V30 10249 N 954.439 -0.935208 4.53661 0
M  V30 10250 C 955.174 -1.04516 5.63794 0
M  V30 10251 N 954.67 -1.11948 6.83696 0
M  V30 10252 N 956.463 -1.07978 5.51631 0
M  V30 10253 H 948.614 0.623018 2.03057 0
M  V30 10254 H 950.877 0.217692 0.922667 0
M  V30 10255 H 950.583 0.220375 3.51009 0
M  V30 10256 H 950.457 -1.52876 3.44831 0
M  V30 10257 H 952.844 -1.62782 2.46143 0
M  V30 10258 H 952.925 0.137301 2.55431 0
M  V30 10259 H 952.569 -0.0015186 5.079 0
M  V30 10260 H 952.499 -1.77747 4.95695 0
M  V30 10261 H 954.99 -0.88836 3.6731 0
M  V30 10262 H 955.303 -1.20297 7.6338 0
M  V30 10263 H 953.648 -1.08873 6.8642 0
M  V30 10264 H 956.839 -1.01833 4.56889 0
M  V30 10265 H 957.012 -1.16202 6.37496 0
M  V30 10266 N 950.418 -1.49637 -0.494624 0
M  V30 10267 C 951.646 -1.63164 -1.2722 0
M  V30 10268 C 952.061 -0.305552 -1.86311 0
M  V30 10269 O 951.418 0.709758 -1.68133 0
M  V30 10270 C 951.469 -2.70524 -2.39789 0
M  V30 10271 O 951.19 -3.97991 -1.83126 0
M  V30 10272 C 952.691 -2.94814 -3.31058 0
M  V30 10273 H 949.911 -0.54912 -0.385627 0
M  V30 10274 H 952.455 -1.95711 -0.593081 0
M  V30 10275 H 950.61 -2.40738 -3.03519 0
M  V30 10276 H 951.024 -4.57179 -2.57075 0
M  V30 10277 H 952.498 -3.73653 -4.06309 0
M  V30 10278 H 952.975 -2.04974 -3.88436 0
M  V30 10279 H 953.581 -3.26042 -2.73088 0
M  V30 10280 N 951.896 0.746133 -1.38819 0
M  V30 10281 C 953.143 1.50545 -1.35434 0
M  V30 10282 C 953.471 1.94427 0.0532669 0
M  V30 10283 O 952.726 1.66285 1.03188 0
M  V30 10284 C 953.025 2.76639 -2.26286 0
M  V30 10285 C 952.691 2.51682 -3.74122 0
M  V30 10286 C 951.353 2.44584 -4.14406 0
M  V30 10287 C 953.705 2.30071 -4.67672 0
M  V30 10288 C 951.033 2.13902 -5.46318 0
M  V30 10289 C 953.385 2.00907 -5.99849 0
M  V30 10290 C 952.049 1.92271 -6.39209 0
M  V30 10291 H 951.319 0.550883 -0.49559 0
M  V30 10292 H 953.966 0.857337 -1.71237 0
M  V30 10293 H 952.271 3.46138 -1.83564 0
M  V30 10294 H 953.968 3.34626 -2.20967 0
M  V30 10295 H 950.558 2.5808 -3.42188 0
M  V30 10296 H 954.742 2.34528 -4.3739 0
M  V30 10297 H 949.998 2.0573 -5.75748 0
M  V30 10298 H 954.172 1.83191 -6.71874 0
M  V30 10299 H 951.799 1.68261 -7.41345 0
M  V30 10300 N 953.375 1.23811 0.975125 0
M  V30 10301 C 954.791 1.0019 1.24234 0
M  V30 10302 C 954.991 -0.293811 1.99346 0
M  V30 10303 O 954.047 -1.01189 2.31337 0
M  V30 10304 C 955.36 2.21218 2.03674 0
M  V30 10305 C 956.908 2.25764 2.16793 0
M  V30 10306 C 957.383 3.46394 2.99626 0
M  V30 10307 N 958.874 3.46665 3.07209 0
M  V30 10308 C 959.609 4.3666 3.71639 0
M  V30 10309 N 959.105 5.36899 4.37849 0
M  V30 10310 N 960.898 4.2439 3.68578 0
M  V30 10311 H 953.049 2.07087 0.472076 0
M  V30 10312 H 955.312 0.90838 0.271201 0
M  V30 10313 H 955.018 3.15277 1.55862 0
M  V30 10314 H 954.892 2.22733 3.04417 0
M  V30 10315 H 957.279 1.32242 2.63811 0
M  V30 10316 H 957.36 2.28279 1.15422 0
M  V30 10317 H 957.004 4.40227 2.53304 0
M  V30 10318 H 956.934 3.41121 4.01178 0
M  V30 10319 H 959.425 2.74142 2.60105 0
M  V30 10320 H 959.738 6.01816 4.84807 0
M  V30 10321 H 958.083 5.40793 4.36541 0
M  V30 10322 H 961.274 3.4532 3.16025 0
M  V30 10323 H 961.447 4.94727 4.18508 0
M  V30 10324 N 954.853 -1.17469 1.05066 0
M  V30 10325 C 956.269 -1.39699 0.771769 0
M  V30 10326 C 956.469 -1.91253 -0.634382 0
M  V30 10327 O 955.525 -2.10334 -1.39699 0
M  V30 10328 C 956.838 -2.38886 1.82631 0
M  V30 10329 C 958.386 -2.52595 1.84838 0
M  V30 10330 C 958.861 -3.55054 2.89311 0
M  V30 10331 N 960.352 -3.6257 2.88266 0
M  V30 10332 C 961.087 -4.41603 3.65752 0
M  V30 10333 N 960.583 -5.24162 4.53019 0
M  V30 10334 N 962.376 -4.36464 3.54197 0
M  V30 10335 H 954.527 -0.823355 1.95792 0
M  V30 10336 H 956.79 -0.42432 0.847736 0
M  V30 10337 H 956.496 -2.08075 2.83545 0
M  V30 10338 H 956.37 -3.38371 1.66687 0
M  V30 10339 H 958.757 -2.82717 0.845888 0
M  V30 10340 H 958.838 -1.53188 2.04859 0
M  V30 10341 H 958.482 -3.2567 3.89745 0
M  V30 10342 H 958.412 -4.54162 2.66542 0
M  V30 10343 H 960.903 -3.03625 2.24989 0
M  V30 10344 H 961.216 -5.81646 5.0883 0
M  V30 10345 H 959.561 -5.23547 4.57081 0
M  V30 10346 H 962.752 -3.7102 2.85416 0
M  V30 10347 H 962.925 -4.97814 4.14832 0
M  V30 10348 N 956.331 -0.831506 -1.3388 0
M  V30 10349 C 957.241 -0.261688 -2.33136 0
M  V30 10350 C 958.257 0.608429 -1.63016 0
M  V30 10351 O 959.433 0.514297 -1.94723 0
M  V30 10352 C 956.498 0.559957 -3.42148 0
M  V30 10353 C 955.559 -0.333569 -4.28002 0
M  V30 10354 C 954.792 0.448956 -5.31808 0
M  V30 10355 O 955.015 1.6814 -5.45055 0
M  V30 10356 O 953.949 -0.173197 -6.01651 0
M  V30 10357 H 957.775 -1.08343 -2.83717 0
M  V30 10358 H 955.36 -0.593849 -1.3709 0
M  V30 10359 H 957.242 1.02712 -4.08691 0
M  V30 10360 H 955.917 1.35888 -2.93796 0
M  V30 10361 H 954.824 -0.848416 -3.64352 0
M  V30 10362 H 956.157 -1.09707 -4.79818 0
M  V30 10363 N 957.809 1.4625 -0.587256 0
M  V30 10364 C 958.756 2.30354 0.143384 0
M  V30 10365 C 959.726 1.40891 0.879716 0
M  V30 10366 O 960.911 1.69837 0.869486 0
M  V30 10367 C 958.051 3.25441 1.14815 0
M  V30 10368 C 957.164 4.30004 0.414792 0
M  V30 10369 C 956.299 5.12214 1.40748 0
M  V30 10370 C 955.338 6.08523 0.660786 0
M  V30 10371 N 954.475 6.83585 1.60176 0
M  V30 10372 H 959.315 2.92304 -0.579866 0
M  V30 10373 H 956.852 1.44055 -0.29777 0
M  V30 10374 H 958.81 3.79018 1.7436 0
M  V30 10375 H 957.44 2.6529 1.83906 0
M  V30 10376 H 956.492 3.79248 -0.295787 0
M  V30 10377 H 957.804 4.98515 -0.168738 0
M  V30 10378 H 956.958 5.70091 2.0756 0
M  V30 10379 H 955.697 4.43675 2.02494 0
M  V30 10380 H 954.702 5.49796 -0.0210864 0
M  V30 10381 H 955.927 6.79083 0.0486551 0
M  V30 10382 H 953.873 6.17752 2.20724 0
M  V30 10383 H 953.79 7.48373 1.07115 0
M  V30 10384 H 955.058 7.46016 2.26009 0
M  V30 10385 N 959.287 0.325282 1.54207 0
M  V30 10386 C 960.703 -0.0273036 1.59577 0
M  V30 10387 C 960.903 -1.50329 1.34177 0
M  V30 10388 O 959.959 -2.25951 1.12705 0
M  V30 10389 C 961.272 0.392468 2.98128 0
M  V30 10390 C 962.82 0.343269 3.11112 0
M  V30 10391 C 963.295 0.738229 4.52011 0
M  V30 10392 N 964.786 0.691701 4.58006 0
M  V30 10393 C 965.521 0.969479 5.65145 0
M  V30 10394 N 965.017 1.31448 6.80216 0
M  V30 10395 N 966.81 0.894926 5.5493 0
M  V30 10396 H 958.961 1.28692 1.68974 0
M  V30 10397 H 961.224 0.523399 0.790416 0
M  V30 10398 H 960.93 1.42089 3.2172 0
M  V30 10399 H 960.804 -0.241651 3.76425 0
M  V30 10400 H 963.191 -0.675946 2.87254 0
M  V30 10401 H 963.272 1.01235 2.34915 0
M  V30 10402 H 962.916 1.75537 4.76602 0
M  V30 10403 H 962.846 0.0468226 5.26579 0
M  V30 10404 H 965.337 0.436975 3.75365 0
M  V30 10405 H 965.65 1.51177 7.57869 0
M  V30 10406 H 963.995 1.35276 6.81708 0
M  V30 10407 H 967.186 0.624876 4.6391 0
M  V30 10408 H 967.359 1.11476 6.38339 0
M  V30 10409 N 960.765 -1.57509 0.0534917 0
M  V30 10410 C 961.728 -2.10563 -0.905307 0
M  V30 10411 C 962.728 -1.02571 -1.23838 0
M  V30 10412 O 963.918 -1.28635 -1.17468 0
M  V30 10413 C 961.05 -2.5918 -2.21447 0
M  V30 10414 H 962.243 -2.96575 -0.445354 0
M  V30 10415 H 959.796 -1.55079 -0.194947 0
M  V30 10416 H 960.531 -1.76568 -2.72019 0
M  V30 10417 H 960.316 -3.38098 -1.98575 0
M  V30 10418 H 961.806 -3.00365 -2.90122 0
M  V30 10419 N 962.243 0.219913 -1.56058 0
M  V30 10420 C 963.153 1.29349 -1.95719 0
M  V30 10421 C 964.169 1.5119 -0.861248 0
M  V30 10422 O 965.345 1.64289 -1.16495 0
M  V30 10423 C 962.41 2.6229 -2.26726 0
M  V30 10424 C 961.471 2.48738 -3.49897 0
M  V30 10425 C 960.704 3.75339 -3.79416 0
M  V30 10426 O 960.927 4.78427 -3.10586 0
M  V30 10427 O 959.861 3.72352 -4.72903 0
M  V30 10428 H 963.687 0.986979 -2.87215 0
M  V30 10429 H 961.272 0.42291 -1.43289 0
M  V30 10430 H 963.154 3.408 -2.47857 0
M  V30 10431 H 961.829 2.92619 -1.38404 0
M  V30 10432 H 960.736 1.68422 -3.34043 0
M  V30 10433 H 962.069 2.23347 -4.38608 0
M  V30 10434 N 963.721 1.49897 0.486681 0
M  V30 10435 C 965.137 1.36977 0.819109 0
M  V30 10436 C 965.337 0.41385 1.97204 0
M  V30 10437 O 964.393 -0.149249 2.52059 0
M  V30 10438 C 965.706 2.78013 1.14584 0
M  V30 10439 C 967.254 2.86816 1.25321 0
M  V30 10440 C 967.729 4.28651 1.61316 0
M  V30 10441 N 969.22 4.31528 1.68337 0
M  V30 10442 C 969.955 5.38254 1.97662 0
M  V30 10443 N 969.451 6.55207 2.25113 0
M  V30 10444 N 971.244 5.25683 1.99033 0
M  V30 10445 H 963.395 2.10634 -0.273364 0
M  V30 10446 H 965.658 0.946116 -0.0597418 0
M  V30 10447 H 965.364 3.49728 0.371892 0
M  V30 10448 H 965.238 3.1428 2.08585 0
M  V30 10449 H 967.625 2.15329 2.01785 0
M  V30 10450 H 967.706 2.54112 0.293368 0
M  V30 10451 H 967.35 5.00669 0.853968 0
M  V30 10452 H 967.28 4.5883 2.58424 0
M  V30 10453 H 969.771 3.47189 1.49226 0
M  V30 10454 H 970.084 7.32359 2.46717 0
M  V30 10455 H 968.429 6.58408 2.22538 0
M  V30 10456 H 971.62 4.33316 1.77074 0
M  V30 10457 H 971.793 6.08949 2.21552 0
M  V30 10458 N 965.199 -0.738761 1.39212 0
M  V30 10459 C 966.129 -1.86602 1.40364 0
M  V30 10460 C 967.11 -1.67984 0.267495 0
M  V30 10461 O 968.295 -1.88358 0.472765 0
M  V30 10462 C 965.425 -3.24308 1.24265 0
M  V30 10463 C 964.379 -3.57557 2.35239 0
M  V30 10464 C 963.705 -4.94159 2.04233 0
M  V30 10465 C 965.005 -3.60914 3.77543 0
M  V30 10466 H 966.699 -1.85896 2.34698 0
M  V30 10467 H 964.245 -0.892959 1.1297 0
M  V30 10468 H 966.198 -4.02838 1.23692 0
M  V30 10469 H 964.922 -3.25531 0.263974 0
M  V30 10470 H 963.581 -2.81354 2.35022 0
M  V30 10471 H 963.229 -4.91959 1.04813 0
M  V30 10472 H 962.929 -5.17373 2.78567 0
M  V30 10473 H 964.453 -5.7505 2.05303 0
M  V30 10474 H 965.867 -4.29528 3.79709 0
M  V30 10475 H 964.264 -3.95644 4.51205 0
M  V30 10476 H 965.334 -2.60803 4.08791 0
M  V30 10477 N 966.677 -1.24326 -0.968545 0
M  V30 10478 C 967.905 -1.10947 -1.74638 0
M  V30 10479 C 968.32 0.338064 -1.85749 0
M  V30 10480 O 967.677 1.23331 -1.3452 0
M  V30 10481 C 967.728 -1.74254 -3.1673 0
M  V30 10482 O 967.449 -3.13347 -3.06178 0
M  V30 10483 C 968.95 -1.66473 -4.10855 0
M  V30 10484 H 966.17 -0.38767 -0.547679 0
M  V30 10485 H 968.714 -1.64415 -1.21605 0
M  V30 10486 H 966.869 -1.2479 -3.66751 0
M  V30 10487 H 967.283 -3.44255 -3.95713 0
M  V30 10488 H 968.757 -2.15452 -5.08217 0
M  V30 10489 H 969.234 -0.625785 -4.34719 0
M  V30 10490 H 969.84 -2.15359 -3.66743 0
M  V30 10491 N 968.156 1.1691 -1.05688 0
M  V30 10492 C 969.381 1.91745 -0.790478 0
M  V30 10493 C 969.806 1.76568 0.648478 0
M  V30 10494 O 969.164 1.08682 1.45114 0
M  V30 10495 C 969.212 3.4067 -1.18222 0
M  V30 10496 O 968.316 4.11177 -0.317341 0
M  V30 10497 H 967.657 0.5976 -0.28943 0
M  V30 10498 H 970.187 1.48157 -1.41105 0
M  V30 10499 H 970.197 3.91424 -1.15114 0
M  V30 10500 H 968.872 3.51036 -2.2304 0
M  V30 10501 H 967.449 3.70645 -0.409459 0
M  V30 10502 N 969.634 0.838594 1.33437 0
M  V30 10503 C 971.05 0.526347 1.50671 0
M  V30 10504 C 971.25 -0.946387 1.77893 0
M  V30 10505 O 970.306 -1.7302 1.83903 0
M  V30 10506 C 971.619 1.39945 2.6615 0
M  V30 10507 C 973.167 1.3982 2.80035 0
M  V30 10508 C 973.642 2.25614 3.98576 0
M  V30 10509 N 975.133 2.23322 4.0581 0
M  V30 10510 C 975.868 2.86443 4.96727 0
M  V30 10511 N 975.364 3.58616 5.92762 0
M  V30 10512 N 977.157 2.75915 4.89722 0
M  V30 10513 H 969.308 1.79195 1.1403 0
M  V30 10514 H 971.571 0.764491 0.560586 0
M  V30 10515 H 971.277 2.44599 2.52714 0
M  V30 10516 H 971.151 1.07529 3.61548 0
M  V30 10517 H 973.538 0.35937 2.92904 0
M  V30 10518 H 973.619 1.76241 1.85399 0
M  V30 10519 H 973.263 3.29555 3.86466 0
M  V30 10520 H 973.193 1.86533 4.92456 0
M  V30 10521 H 975.684 1.70836 3.37081 0
M  V30 10522 H 975.997 4.03987 6.58798 0
M  V30 10523 H 974.342 3.62724 5.92838 0
M  V30 10524 H 977.533 2.19094 4.13661 0
M  V30 10525 H 977.706 3.25393 5.60378 0
M  V30 10526 N 971.112 -1.45937 0.595003 0
M  V30 10527 C 972.358 -2.0262 0.0854317 0
M  V30 10528 C 972.691 -1.46402 -1.27594 0
M  V30 10529 O 971.966 -0.633823 -1.83883 0
M  V30 10530 C 972.249 -3.60085 0.0329075 0
M  V30 10531 C 972.102 -4.26663 1.42405 0
M  V30 10532 C 973.421 -4.35101 -0.661426 0
M  V30 10533 H 970.54 -0.736282 0.0325196 0
M  V30 10534 H 973.182 -1.73938 0.764563 0
M  V30 10535 H 971.332 -3.84652 -0.545439 0
M  V30 10536 H 973.004 -4.13321 2.04851 0
M  V30 10537 H 971.247 -3.85549 1.98833 0
M  V30 10538 H 971.918 -5.35497 1.33965 0
M  V30 10539 H 974.394 -4.15753 -0.169977 0
M  V30 10540 H 973.27 -5.44829 -0.667243 0
M  V30 10541 H 973.531 -4.07053 -1.72513 0
M  V30 10542 N 972.59 -0.333456 -1.54032 0
M  V30 10543 C 973.537 0.527981 -2.2468 0
M  V30 10544 C 974.507 1.10371 -1.24127 0
M  V30 10545 O 975.692 1.14221 -1.52834 0
M  V30 10546 C 972.832 1.67808 -3.01553 0
M  V30 10547 C 971.945 1.13064 -4.16942 0
M  V30 10548 C 971.08 2.24722 -4.81325 0
M  V30 10549 C 970.119 1.67277 -5.88799 0
M  V30 10550 N 969.256 2.72638 -6.47003 0
M  V30 10551 H 974.096 -0.0810308 -2.9789 0
M  V30 10552 H 971.633 -0.051761 -1.47009 0
M  V30 10553 H 973.591 2.35502 -3.44376 0
M  V30 10554 H 972.221 2.25823 -2.30659 0
M  V30 10555 H 971.273 0.344948 -3.78833 0
M  V30 10556 H 972.585 0.670373 -4.94275 0
M  V30 10557 H 971.739 3.00301 -5.27166 0
M  V30 10558 H 970.478 2.74089 -4.03394 0
M  V30 10559 H 969.483 0.902002 -5.4235 0
M  V30 10560 H 970.708 1.18775 -6.68632 0
M  V30 10561 H 968.654 3.21277 -5.71941 0
M  V30 10562 H 968.571 2.31204 -7.19778 0
M  V30 10563 H 969.839 3.48015 -6.97499 0
M  V30 10564 N 974.068 1.57479 -0.061844 0
M  V30 10565 C 975.031 2.1104 0.894127 0
M  V30 10566 C 976.031 1.03227 1.23292 0
M  V30 10567 O 977.221 1.29256 1.16784 0
M  V30 10568 C 974.353 2.6035 2.20069 0
M  V30 10569 H 975.546 2.96807 0.429619 0
M  V30 10570 H 973.099 1.55181 0.18672 0
M  V30 10571 H 973.834 1.78008 2.71079 0
M  V30 10572 H 973.619 3.39146 1.9678 0
M  V30 10573 H 975.109 3.019 2.88525 0
M  V30 10574 N 975.546 -0.211634 1.56173 0
M  V30 10575 C 976.476 -1.26533 1.96244 0
M  V30 10576 C 977.457 -1.48362 0.832028 0
M  V30 10577 O 978.642 -1.60378 1.0951 0
M  V30 10578 C 975.772 -2.61307 2.2877 0
M  V30 10579 C 974.726 -2.54119 3.44395 0
M  V30 10580 C 974.052 -3.93014 3.62552 0
M  V30 10581 C 975.352 -2.08046 4.79076 0
M  V30 10582 H 977.046 -0.932407 2.84511 0
M  V30 10583 H 974.592 -0.447084 1.36884 0
M  V30 10584 H 976.545 -3.35188 2.55396 0
M  V30 10585 H 975.269 -2.96307 1.37367 0
M  V30 10586 H 973.928 -1.82694 3.17834 0
M  V30 10587 H 973.576 -4.25338 2.68508 0
M  V30 10588 H 973.276 -3.89083 4.40327 0
M  V30 10589 H 974.8 -4.68542 3.91537 0
M  V30 10590 H 976.214 -2.71676 5.04842 0
M  V30 10591 H 974.611 -2.15154 5.60204 0
M  V30 10592 H 975.681 -1.03306 4.73768 0
M  V30 10593 N 977.024 -1.50153 -0.478725 0
M  V30 10594 C 978.271 -1.6076 -1.23136 0
M  V30 10595 C 978.599 -0.30442 -1.92103 0
M  V30 10596 O 977.854 0.709213 -1.82397 0
M  V30 10597 C 978.153 -2.73208 -2.30417 0
M  V30 10598 C 977.819 -4.13953 -1.78755 0
M  V30 10599 C 976.481 -4.52251 -1.64386 0
M  V30 10600 C 978.833 -5.01949 -1.40344 0
M  V30 10601 C 976.161 -5.76292 -1.10018 0
M  V30 10602 C 978.513 -6.2653 -0.874206 0
M  V30 10603 C 977.177 -6.63637 -0.717085 0
M  V30 10604 H 976.447 -0.588264 -0.450585 0
M  V30 10605 H 979.094 -1.84061 -0.528551 0
M  V30 10606 H 977.399 -2.43965 -3.06575 0
M  V30 10607 H 979.096 -2.7862 -2.88395 0
M  V30 10608 H 975.686 -3.83736 -1.90904 0
M  V30 10609 H 979.87 -4.73 -1.50283 0
M  V30 10610 H 975.126 -6.03723 -0.965838 0
M  V30 10611 H 979.3 -6.94081 -0.567883 0
M  V30 10612 H 976.927 -7.59633 -0.293639 0
M  V30 10613 N 978.502 0.731368 -1.39602 0
M  V30 10614 C 979.727 1.52567 -1.40492 0
M  V30 10615 C 980.152 1.881 -0.00228828 0
M  V30 10616 O 979.51 1.52167 0.985643 0
M  V30 10617 C 979.558 2.78749 -2.2876 0
M  V30 10618 O 978.662 3.7482 -1.71999 0
M  V30 10619 H 978.003 0.460601 -0.478271 0
M  V30 10620 H 980.533 0.902042 -1.83642 0
M  V30 10621 H 980.543 3.27446 -2.43399 0
M  V30 10622 H 979.218 2.5222 -3.30693 0
M  V30 10623 H 977.795 3.33604 -1.66622 0
M  V30 10624 N 979.98 1.24838 0.961938 0
M  V30 10625 C 981.226 1.09313 1.70817 0
M  V30 10626 C 981.559 -0.366244 1.90715 0
M  V30 10627 O 980.834 -1.27036 1.47282 0
M  V30 10628 C 981.117 1.83988 3.09549 0
M  V30 10629 C 980.97 3.3771 2.97106 0
M  V30 10630 C 982.289 1.61718 4.09311 0
M  V30 10631 H 979.408 0.398498 0.619974 0
M  V30 10632 H 982.05 1.53579 1.11864 0
M  V30 10633 H 980.2 1.46363 3.59875 0
M  V30 10634 H 981.872 3.84967 2.54161 0
M  V30 10635 H 980.115 3.65795 2.33187 0
M  V30 10636 H 980.786 3.85166 3.95412 0
M  V30 10637 H 983.262 1.94458 3.67866 0
M  V30 10638 H 982.138 2.16415 5.04436 0
M  V30 10639 H 982.399 0.55677 4.3858 0
M  V30 10640 N 981.458 -1.16348 1.06306 0
M  V30 10641 C 982.388 -2.2291 0.695234 0
M  V30 10642 C 983.369 -1.67208 -0.312343 0
M  V30 10643 O 984.554 -1.93293 -0.187442 0
M  V30 10644 C 981.684 -3.47205 0.0810149 0
M  V30 10645 C 980.638 -4.15801 1.01458 0
M  V30 10646 C 979.964 -5.3405 0.263656 0
M  V30 10647 C 981.264 -4.66766 2.34365 0
M  V30 10648 H 982.958 -2.53934 1.58613 0
M  V30 10649 H 980.504 -1.22056 0.76409 0
M  V30 10650 H 982.457 -4.2098 -0.18818 0
M  V30 10651 H 981.181 -3.15482 -0.844897 0
M  V30 10652 H 979.84 -3.43954 1.26852 0
M  V30 10653 H 979.488 -4.9858 -0.665378 0
M  V30 10654 H 979.188 -5.80885 0.88582 0
M  V30 10655 H 980.712 -6.106 0.00200994 0
M  V30 10656 H 982.126 -5.3212 2.13356 0
M  V30 10657 H 980.523 -5.24223 2.9208 0
M  V30 10658 H 981.593 -3.82969 2.97426 0
M  V30 10659 N 982.937 -0.845659 -1.3299 0
M  V30 10660 C 983.885 -0.272412 -2.30999 0
M  V30 10661 C 984.879 0.599311 -1.58444 0
M  V30 10662 O 986.085 0.488117 -1.73255 0
M  V30 10663 H 982.46 -0.0693751 -0.748793 0
M  V30 10664 H 984.431 -1.11343 -2.76849 0
M  V30 10665 C 983.18 0.532019 -3.43606 0
M  V30 10666 H 982.503 -0.129455 -3.9959 0
M  V30 10667 H 983.943 0.898853 -4.14363 0
M  V30 10668 C 982.402 1.71364 -2.90062 0
M  V30 10669 O 982.932 2.81252 -2.8681 0
M  V30 10670 N 981.138 1.53775 -2.4658 0
M  V30 10671 H 980.685 0.643836 -2.49424 0
M  V30 10672 H 980.643 2.32982 -2.11108 0
M  V30 10673 N 984.415 1.45619 -0.602734 0
M  V30 10674 C 985.645 2.06348 -0.102105 0
M  V30 10675 C 986.053 1.44884 1.21677 0
M  V30 10676 O 985.396 0.555559 1.75098 0
M  V30 10677 C 985.458 3.59309 0.117026 0
M  V30 10678 C 985.122 4.43081 -1.11931 0
M  V30 10679 C 986.119 4.78364 -2.03627 0
M  V30 10680 C 983.804 4.83908 -1.34677 0
M  V30 10681 C 985.798 5.53325 -3.16403 0
M  V30 10682 C 983.485 5.58624 -2.47754 0
M  V30 10683 C 984.483 5.93249 -3.38445 0
M  V30 10684 O 984.171 6.6645 -4.49555 0
M  V30 10685 H 983.903 0.672988 -0.0637478 0
M  V30 10686 H 986.457 1.87928 -0.828983 0
M  V30 10687 H 984.687 3.76111 0.898742 0
M  V30 10688 H 986.376 4.01897 0.568649 0
M  V30 10689 H 987.142 4.47384 -1.87277 0
M  V30 10690 H 983.021 4.56396 -0.649875 0
M  V30 10691 H 986.565 5.80268 -3.87214 0
M  V30 10692 H 982.462 5.89019 -2.64059 0
M  V30 10693 H 983.23 6.84895 -4.48175 0
M  V30 10694 N 985.893 0.34162 1.53853 0
M  V30 10695 C 986.803 -0.524555 2.2866 0
M  V30 10696 C 987.819 -1.1136 1.33697 0
M  V30 10697 O 988.995 -1.1297 1.66732 0
M  V30 10698 C 986.06 -1.66065 3.04341 0
M  V30 10699 C 985.121 -1.10158 4.14926 0
M  V30 10700 C 984.354 -2.18353 4.86988 0
M  V30 10701 O 984.577 -3.39038 4.58704 0
M  V30 10702 O 983.511 -1.82756 5.73484 0
M  V30 10703 H 987.337 0.0835014 3.03585 0
M  V30 10704 H 984.922 0.106727 1.49018 0
M  V30 10705 H 986.804 -2.3217 3.51674 0
M  V30 10706 H 985.479 -2.25456 2.32275 0
M  V30 10707 H 984.386 -0.405109 3.719 0
M  V30 10708 H 985.719 -0.552567 4.89088 0
M  V30 10709 N 987.371 -1.57444 0.0701946 0
M  V30 10710 C 988.787 -1.57009 -0.286431 0
M  V30 10711 C 988.987 -1.07946 -1.70147 0
M  V30 10712 O 988.043 -0.744622 -2.41271 0
M  V30 10713 C 989.356 -3.00542 -0.0975466 0
M  V30 10714 C 990.904 -3.12553 -0.167205 0
M  V30 10715 C 991.379 -4.58 -0.00662047 0
M  V30 10716 N 992.87 -4.63158 -0.0622778 0
M  V30 10717 C 993.605 -5.73388 0.0375831 0
M  V30 10718 N 993.101 -6.92537 0.190873 0
M  V30 10719 N 994.894 -5.62097 -0.0193672 0
M  V30 10720 H 987.045 -1.87651 0.995023 0
M  V30 10721 H 989.308 -0.865006 0.387902 0
M  V30 10722 H 989.014 -3.40543 0.878822 0
M  V30 10723 H 988.888 -3.67485 -0.850547 0
M  V30 10724 H 991.275 -2.72439 -1.13406 0
M  V30 10725 H 991.356 -2.48251 0.616871 0
M  V30 10726 H 991 -4.98803 0.956992 0
M  V30 10727 H 990.93 -5.20332 -0.810081 0
M  V30 10728 H 993.421 -3.77475 -0.179229 0
M  V30 10729 H 993.734 -7.72365 0.25926 0
M  V30 10730 H 992.079 -6.94632 0.226214 0
M  V30 10731 H 995.27 -4.67897 -0.137815 0
M  V30 10732 H 995.443 -6.4797 0.0619121 0
M  V30 10733 N 988.849 0.203349 -1.56283 0
M  V30 10734 C 989.812 1.23566 -1.93039 0
M  V30 10735 C 990.812 1.38869 -0.810687 0
M  V30 10736 O 992.002 1.36822 -1.07821 0
M  V30 10737 C 989.134 2.60645 -2.1972 0
M  V30 10738 H 990.327 0.921692 -2.85385 0
M  V30 10739 H 987.88 0.44453 -1.49845 0
M  V30 10740 H 988.615 2.9711 -1.29985 0
M  V30 10741 H 988.4 2.50911 -3.01307 0
M  V30 10742 H 989.89 3.35103 -2.4919 0
M  V30 10743 N 990.327 1.50405 0.470755 0
M  V30 10744 C 991.743 1.37838 0.804534 0
M  V30 10745 C 991.943 0.434743 1.96754 0
M  V30 10746 O 990.999 -0.122507 2.52203 0
M  V30 10747 C 992.312 2.79212 1.11629 0
M  V30 10748 C 993.86 2.88129 1.22272 0
M  V30 10749 C 994.335 4.30337 1.5676 0
M  V30 10750 N 995.826 4.3329 1.63751 0
M  V30 10751 C 996.561 5.4032 1.91942 0
M  V30 10752 N 996.057 6.57558 2.18151 0
M  V30 10753 N 997.85 5.27764 1.93446 0
M  V30 10754 H 990.001 2.10332 -0.295689 0
M  V30 10755 H 992.264 0.945429 -0.0697733 0
M  V30 10756 H 991.97 3.50103 0.334778 0
M  V30 10757 H 991.844 3.16475 2.0524 0
M  V30 10758 H 994.231 2.17457 1.9949 0
M  V30 10759 H 994.312 2.54409 0.2664 0
M  V30 10760 H 993.956 5.01547 0.800817 0
M  V30 10761 H 993.886 4.61545 2.53543 0
M  V30 10762 H 996.377 3.48752 1.45535 0
M  V30 10763 H 996.69 7.34935 2.38936 0
M  V30 10764 H 995.035 6.60732 2.15542 0
M  V30 10765 H 998.226 4.35169 1.72468 0
M  V30 10766 H 998.399 6.11264 2.15081 0
M  V30 10767 N 991.805 -0.723954 1.39988 0
M  V30 10768 C 993.221 -1.03095 1.21834 0
M  V30 10769 C 993.421 -2.01309 0.0876647 0
M  V30 10770 O 992.477 -2.46277 -0.55714 0
M  V30 10771 C 993.79 -1.58267 2.5568 0
M  V30 10772 C 995.338 -1.70293 2.6262 0
M  V30 10773 C 995.813 -2.28872 3.96713 0
M  V30 10774 N 997.304 -2.36269 3.98411 0
M  V30 10775 C 998.039 -2.82557 4.98948 0
M  V30 10776 N 997.535 -3.28661 6.0988 0
M  V30 10777 N 999.328 -2.81866 4.86321 0
M  V30 10778 H 991.479 -0.0727891 2.12275 0
M  V30 10779 H 993.742 -0.0949029 0.943238 0
M  V30 10780 H 993.448 -0.935642 3.39026 0
M  V30 10781 H 993.322 -2.56914 2.76179 0
M  V30 10782 H 995.709 -2.34115 1.7965 0
M  V30 10783 H 995.79 -0.70268 2.45959 0
M  V30 10784 H 995.434 -1.65675 4.80119 0
M  V30 10785 H 995.364 -3.29595 4.107 0
M  V30 10786 H 997.855 -2.03697 3.18302 0
M  V30 10787 H 998.168 -3.62524 6.82493 0
M  V30 10788 H 996.513 -3.26641 6.13458 0
M  V30 10789 H 999.704 -2.45179 3.98754 0
M  V30 10790 H 999.877 -3.17626 5.64817 0
M  V30 10791 N 993.283 -1.25346 -0.955304 0
M  V30 10792 C 994.694 -1.09173 -1.51453 0
M  V30 10793 C 995.045 0.332755 -1.93358 0
M  V30 10794 O 994.17 1.22264 -1.78551 0
M  V30 10795 C 994.765 -1.97564 -2.75234 0
M  V30 10796 C 993.324 -1.85579 -3.27471 0
M  V30 10797 C 992.471 -1.91755 -2.00313 0
M  V30 10798 H 995.422 -1.38642 -0.772271 0
M  V30 10799 H 995.443 -1.51523 -3.49029 0
M  V30 10800 H 994.955 -3.01233 -2.44704 0
M  V30 10801 H 993.056 -0.847906 -3.62824 0
M  V30 10802 H 993.169 -2.70353 -3.95533 0
M  V30 10803 H 991.533 -1.35633 -2.15582 0
M  V30 10804 H 992.316 -2.97028 -1.72132 0
M  V30 10805 N 994.761 1.15782 -1.06922 0
M  V30 10806 C 996.009 1.86097 -0.788192 0
M  V30 10807 C 996.33 1.82475 0.687606 0
M  V30 10808 O 995.6 1.26266 1.49778 0
M  V30 10809 H 994.18 0.689008 -0.288577 0
M  V30 10810 H 996.842 1.40377 -1.35205 0
M  V30 10811 H 995.938 2.91358 -1.1188 0
M  V30 10812 N 996.239 0.8527 1.3254 0
M  V30 10813 C 997.169 0.311234 2.31416 0
M  V30 10814 C 998.15 -0.588557 1.59593 0
M  V30 10815 O 999.335 -0.509211 1.87405 0
M  V30 10816 C 996.465 -0.502892 3.4364 0
M  V30 10817 C 995.419 0.302296 4.26931 0
M  V30 10818 C 994.745 -0.636445 5.30899 0
M  V30 10819 C 996.045 1.52697 4.99481 0
M  V30 10820 H 997.739 1.13742 2.76953 0
M  V30 10821 H 995.285 0.548389 1.33149 0
M  V30 10822 H 997.238 -0.892092 4.11849 0
M  V30 10823 H 995.962 -1.36242 2.96826 0
M  V30 10824 H 994.621 0.673226 3.60365 0
M  V30 10825 H 994.269 -1.49277 4.80339 0
M  V30 10826 H 993.969 -0.101716 5.87512 0
M  V30 10827 H 995.493 -1.02286 6.01972 0
M  V30 10828 H 996.907 1.21017 5.60382 0
M  V30 10829 H 995.304 1.9995 5.65809 0
M  V30 10830 H 996.374 2.28929 4.27457 0
M  V30 10831 N 997.718 -1.45297 0.610449 0
M  V30 10832 C 998.648 -2.33311 -0.0939698 0
M  V30 10833 C 999.629 -1.46999 -0.85588 0
M  V30 10834 O 1000.81 -1.75764 -0.825865 0
M  V30 10835 C 997.944 -3.29751 -1.09003 0
M  V30 10836 C 996.898 -4.2572 -0.441146 0
M  V30 10837 C 996.224 -5.11873 -1.54566 0
M  V30 10838 C 997.524 -5.1837 0.639489 0
M  V30 10839 H 999.218 -2.92459 0.640941 0
M  V30 10840 H 996.764 -1.40631 0.309675 0
M  V30 10841 H 998.717 -3.90195 -1.59141 0
M  V30 10842 H 997.441 -2.68768 -1.85557 0
M  V30 10843 H 996.1 -3.66579 0.0393908 0
M  V30 10844 H 995.748 -4.47256 -2.30155 0
M  V30 10845 H 995.448 -5.76886 -1.11698 0
M  V30 10846 H 996.972 -5.75185 -2.04925 0
M  V30 10847 H 998.386 -5.7287 0.22207 0
M  V30 10848 H 996.783 -5.91876 0.990089 0
M  V30 10849 H 997.853 -4.60627 1.51495 0
M  V30 10850 N 999.196 -0.349774 -1.5367 0
M  V30 10851 C 1000.44 0.244343 -2.00617 0
M  V30 10852 C 1000.76 1.50567 -1.23914 0
M  V30 10853 O 1000.03 1.92784 -0.348016 0
M  V30 10854 H 998.615 0.0932792 -0.741153 0
M  V30 10855 H 1001.28 -0.472367 -1.89089 0
M  V30 10856 H 1000.37 0.482433 -3.08349 0
M  V30 10857 N 1000.67 1.57404 -0.0785433 0
M  V30 10858 C 1001.64 2.11977 0.871693 0
M  V30 10859 C 1002.64 1.04529 1.2219 0
M  V30 10860 O 1003.83 1.30488 1.15406 0
M  V30 10861 C 1000.96 2.6267 2.17296 0
M  V30 10862 H 1002.15 2.97246 0.398115 0
M  V30 10863 H 999.705 1.5537 0.170251 0
M  V30 10864 H 1000.44 1.80873 2.69175 0
M  V30 10865 H 1000.22 3.41214 1.93171 0
M  V30 10866 H 1001.71 3.04943 2.85306 0
M  V30 10867 N 1002.15 -0.195058 1.56388 0
M  V30 10868 C 1003.38 -0.935745 1.85091 0
M  V30 10869 C 1003.8 -1.76061 0.662118 0
M  V30 10870 O 1003.16 -1.77076 -0.389083 0
M  V30 10871 C 1003.21 -1.80764 3.1202 0
M  V30 10872 O 1002.31 -2.90643 2.92575 0
M  V30 10873 H 1001.65 -0.26351 0.609474 0
M  V30 10874 H 1004.18 -0.200362 2.03617 0
M  V30 10875 H 1004.19 -2.21229 3.42815 0
M  V30 10876 H 1002.87 -1.20157 3.98165 0
M  V30 10877 H 1001.44 -2.53934 2.73079 0
M  V30 10878 N 1003.63 -1.50653 -0.462772 0
M  V30 10879 C 1004.88 -1.62297 -1.21603 0
M  V30 10880 C 1005.21 -0.326191 -1.91441 0
M  V30 10881 O 1004.48 0.67284 -1.82491 0
M  V30 10882 C 1004.77 -2.80901 -2.25315 0
M  V30 10883 C 1004.62 -4.20484 -1.59728 0
M  V30 10884 C 1005.94 -2.95049 -3.26549 0
M  V30 10885 H 1003.06 -0.590691 -0.440741 0
M  V30 10886 H 1005.7 -1.83064 -0.508675 0
M  V30 10887 H 1003.85 -2.63325 -2.85643 0
M  V30 10888 H 1005.52 -4.49669 -1.02932 0
M  V30 10889 H 1003.76 -4.24357 -0.900181 0
M  V30 10890 H 1004.44 -4.99416 -2.35133 0
M  V30 10891 H 1006.91 -3.11166 -2.76251 0
M  V30 10892 H 1005.79 -3.79645 -3.96435 0
M  V30 10893 H 1006.05 -2.06019 -3.91163 0
M  V30 10894 N 1005.11 0.71652 -1.4037 0
M  V30 10895 C 1006.04 1.84345 -1.43315 0
M  V30 10896 C 1007.02 1.67537 -0.294186 0
M  V30 10897 O 1008.2 1.87582 -0.502671 0
M  V30 10898 C 1005.33 3.2229 -1.29408 0
M  V30 10899 C 1004.29 3.53769 -2.40897 0
M  V30 10900 C 1003.61 4.90847 -2.12068 0
M  V30 10901 C 1004.91 3.54862 -3.83237 0
M  V30 10902 H 1006.61 1.82138 -2.37626 0
M  V30 10903 H 1004.15 0.874873 -1.14376 0
M  V30 10904 H 1006.11 4.00819 -1.30085 0
M  V30 10905 H 1004.83 3.2507 -0.31573 0
M  V30 10906 H 1003.49 2.77579 -2.39469 0
M  V30 10907 H 1003.14 4.90229 -1.12626 0
M  V30 10908 H 1002.84 5.12875 -2.86762 0
M  V30 10909 H 1004.36 5.71711 -2.14426 0
M  V30 10910 H 1005.78 4.23432 -3.86494 0
M  V30 10911 H 1004.17 3.88416 -4.57442 0
M  V30 10912 H 1005.24 2.54266 -4.12888 0
M  V30 10913 N 1006.59 1.25851 0.948643 0
M  V30 10914 C 1007.83 1.10735 1.69062 0
M  V30 10915 C 1008.16 -0.351257 1.9181 0
M  V30 10916 O 1007.43 -1.24867 1.50947 0
M  V30 10917 H 1006.01 0.406796 0.626519 0
M  V30 10918 H 1008.67 1.58066 1.14022 0
M  V30 10919 H 1007.76 1.62033 2.66743 0
M  V30 10920 N 1008.06 -1.15214 1.07534 0
M  V30 10921 C 1008.99 -2.2216 0.718837 0
M  V30 10922 C 1009.98 -1.6753 -0.29459 0
M  V30 10923 O 1011.16 -1.93481 -0.166931 0
M  V30 10924 C 1008.29 -3.471 0.117836 0
M  V30 10925 C 1007.24 -4.14701 1.05862 0
M  V30 10926 C 1006.57 -5.3374 0.320284 0
M  V30 10927 C 1007.87 -4.64254 2.39302 0
M  V30 10928 H 1009.56 -2.52237 1.61297 0
M  V30 10929 H 1007.11 -1.21239 0.776992 0
M  V30 10930 H 1009.06 -4.21156 -0.143519 0
M  V30 10931 H 1007.79 -3.16361 -0.811389 0
M  V30 10932 H 1006.45 -3.42589 1.30493 0
M  V30 10933 H 1006.09 -4.99257 -0.61246 0
M  V30 10934 H 1005.79 -5.79912 0.947381 0
M  V30 10935 H 1007.32 -6.10563 0.0667721 0
M  V30 10936 H 1008.73 -5.29827 2.18988 0
M  V30 10937 H 1007.13 -5.21095 2.97623 0
M  V30 10938 H 1008.2 -3.79793 3.01472 0
M  V30 10939 N 1009.54 -0.859717 -1.32086 0
M  V30 10940 C 1010.82 -0.386665 -1.9174 0
M  V30 10941 C 1011.2 1.13028 -1.78292 0
M  V30 10942 O 1010.55 1.95422 -1.18417 0
M  V30 10943 C 1010.76 -0.856648 -3.38323 0
M  V30 10944 C 1012.11 -0.87678 -4.15449 0
M  V30 10945 O 1013.13 -0.80162 -3.47063 0
M  V30 10946 O 1011.99 -0.98373 -5.37573 0
M  V30 10947 H 1009.08 -0.113758 -0.819139 0
M  V30 10948 H 1011.63 -0.946952 -1.40822 0
M  V30 10949 H 1010.4 -1.89996 -3.42078 0
M  V30 10950 H 1010.02 -0.274095 -3.96654 0
M  V30 10951 N 1011.02 1.44971 -0.618145 0
M  V30 10952 C 1012.3 1.95539 -0.0489895 0
M  V30 10953 C 1012.68 1.5604 1.42179 0
M  V30 10954 O 1012.03 0.82809 2.12967 0
M  V30 10955 C 1012.24 3.48044 -0.258193 0
M  V30 10956 C 1013.58 4.24354 -0.144541 0
M  V30 10957 O 1014.61 3.55699 -0.18887 0
M  V30 10958 O 1013.47 5.46486 -0.038519 0
M  V30 10959 H 1010.56 0.826466 0.0297256 0
M  V30 10960 H 1013.11 1.55086 -0.688944 0
M  V30 10961 H 1011.88 3.69798 -1.27926 0
M  V30 10962 H 1011.5 3.95412 0.416522 0
M  V30 10963 N 1012.5 0.357919 1.53482 0
M  V30 10964 C 1013.75 -0.235241 2.00324 0
M  V30 10965 C 1014.06 -1.50494 1.24944 0
M  V30 10966 O 1015.27 -2.17623 1.62335 0
M  V30 10967 C 1013.72 -0.469748 3.56821 0
M  V30 10968 C 1013.33 0.784877 4.41071 0
M  V30 10969 C 1015.07 -1.02098 4.12039 0
M  V30 10970 C 1012.98 0.520377 5.89106 0
M  V30 10971 H 1011.91 -0.0916816 0.748405 0
M  V30 10972 H 1014.56 0.475474 1.77233 0
M  V30 10973 H 1012.94 -1.24153 3.76035 0
M  V30 10974 H 1014.12 1.55886 4.33631 0
M  V30 10975 H 1012.43 1.25878 3.96918 0
M  V30 10976 H 1015.03 -1.23406 5.20264 0
M  V30 10977 H 1015.37 -1.98084 3.66154 0
M  V30 10978 H 1015.91 -0.309554 3.96594 0
M  V30 10979 H 1012.65 1.45035 6.39254 0
M  V30 10980 H 1012.17 -0.215254 5.99414 0
M  V30 10981 H 1013.84 0.143006 6.46842 0
M  V30 10982 N 1013.98 -1.5736 0.0868897 0
M  V30 10983 C 1014.93 -2.10105 -0.885435 0
M  V30 10984 C 1015.91 -1.01417 -1.24913 0
M  V30 10985 O 1017.1 -1.27704 -1.22558 0
M  V30 10986 C 1014.23 -2.67837 -2.14752 0
M  V30 10987 C 1013.32 -3.83553 -1.80963 0
M  V30 10988 N 1013.71 -4.91917 -1.17693 0
M  V30 10989 C 1012.01 -3.93134 -2.10622 0
M  V30 10990 C 1012.71 -5.72628 -1.02332 0
M  V30 10991 N 1011.68 -5.2139 -1.53796 0
M  V30 10992 H 1015.49 -2.91272 -0.392179 0
M  V30 10993 H 1013 -1.61981 -0.116566 0
M  V30 10994 H 1015 -3.03948 -2.85344 0
M  V30 10995 H 1013.66 -1.88122 -2.64651 0
M  V30 10996 H 1014.67 -5.10964 -0.844731 0
M  V30 10997 H 1011.34 -3.24416 -2.62793 0
M  V30 10998 H 1012.73 -6.69813 -0.529171 0
M  V30 10999 N 1015.45 0.186762 -1.56489 0
M  V30 11000 C 1016.87 0.537933 -1.50261 0
M  V30 11001 C 1017.07 1.85435 -0.788414 0
M  V30 11002 O 1016.13 2.50168 -0.342377 0
M  V30 11003 C 1017.44 0.584965 -2.94955 0
M  V30 11004 C 1018.99 0.673228 -3.05674 0
M  V30 11005 C 1019.46 0.751294 -4.51796 0
M  V30 11006 N 1020.95 0.814599 -4.55981 0
M  V30 11007 C 1021.69 0.895313 -5.66367 0
M  V30 11008 N 1021.18 0.937814 -6.86423 0
M  V30 11009 N 1022.98 0.933145 -5.543 0
M  V30 11010 H 1015.13 -0.676636 -2.01334 0
M  V30 11011 H 1017.39 -0.242079 -0.916571 0
M  V30 11012 H 1017.1 -0.313361 -3.50301 0
M  V30 11013 H 1016.97 1.4368 -3.48763 0
M  V30 11014 H 1019.36 1.56198 -2.50372 0
M  V30 11015 H 1019.44 -0.204976 -2.54977 0
M  V30 11016 H 1019.08 -0.133143 -5.07725 0
M  V30 11017 H 1019.01 1.64542 -5.00233 0
M  V30 11018 H 1021.5 0.790662 -3.69536 0
M  V30 11019 H 1021.82 1.00015 -7.66301 0
M  V30 11020 H 1020.16 0.906351 -6.89065 0
M  V30 11021 H 1023.35 0.896836 -4.59428 0
M  V30 11022 H 1023.53 0.992588 -6.40353 0
M  V30 11023 N 1016.93 1.50896 0.454776 0
M  V30 11024 C 1017.9 1.70377 1.53312 0
M  V30 11025 C 1018.9 0.57408 1.50203 0
M  V30 11026 O 1020.09 0.841374 1.52534 0
M  V30 11027 C 1017.22 1.74411 2.92905 0
M  V30 11028 H 1018.41 2.66599 1.37349 0
M  V30 11029 H 1015.96 1.40622 0.68228 0
M  V30 11030 H 1016.7 0.799408 3.14293 0
M  V30 11031 H 1016.48 2.56496 2.96568 0
M  V30 11032 H 1017.97 1.91382 3.71164 0
M  V30 11033 N 1018.41 -0.709066 1.40748 0
M  V30 11034 C 1019.66 -1.46993 1.40587 0
M  V30 11035 C 1020.01 -1.92397 0.00986301 0
M  V30 11036 O 1019.3 -1.65712 -0.961772 0
M  V30 11037 C 1019.5 -2.70543 2.33541 0
M  V30 11038 C 1019.33 -2.37222 3.82041 0
M  V30 11039 C 1018.1 -2.28244 4.50813 0
M  V30 11040 C 1020.3 -2.01069 4.73367 0
M  V30 11041 N 1018.28 -1.87667 5.84512 0
M  V30 11042 C 1019.65 -1.71144 5.95911 0
M  V30 11043 C 1021.7 -1.87761 4.6114 0
M  V30 11044 C 1020.41 -1.2925 7.07592 0
M  V30 11045 C 1022.43 -1.47271 5.7277 0
M  V30 11046 C 1021.79 -1.18249 6.94404 0
M  V30 11047 H 1017.89 -0.535708 0.569685 0
M  V30 11048 H 1020.48 -0.821669 1.76513 0
M  V30 11049 H 1018.65 -3.33109 1.99733 0
M  V30 11050 H 1020.38 -3.36927 2.24192 0
M  V30 11051 H 1017.14 -2.46199 4.04578 0
M  V30 11052 H 1017.56 -1.69899 6.55335 0
M  V30 11053 H 1022.2 -2.08858 3.67611 0
M  V30 11054 H 1019.92 -1.06896 8.00999 0
M  V30 11055 H 1023.51 -1.37544 5.65308 0
M  V30 11056 H 1022.39 -0.873897 7.79316 0
M  V30 11057 N 1019.89 -1.26353 -0.941956 0
M  V30 11058 C 1021.31 -1.03448 -1.21534 0
M  V30 11059 C 1021.51 0.240855 -2.00055 0
M  V30 11060 O 1020.56 0.950199 -2.33939 0
M  V30 11061 C 1021.87 -2.2654 -1.97737 0
M  V30 11062 C 1023.42 -2.31433 -2.10731 0
M  V30 11063 C 1023.9 -3.54216 -2.90336 0
M  V30 11064 N 1025.39 -3.54688 -2.9791 0
M  V30 11065 C 1026.12 -4.4636 -3.59931 0
M  V30 11066 N 1025.62 -5.48319 -4.2346 0
M  V30 11067 N 1027.41 -4.34013 -3.57196 0
M  V30 11068 H 1019.56 -2.08266 -0.417005 0
M  V30 11069 H 1021.83 -0.915251 -0.247021 0
M  V30 11070 H 1021.53 -3.19299 -1.47449 0
M  V30 11071 H 1021.41 -2.30726 -2.98405 0
M  V30 11072 H 1023.79 -1.3919 -2.60212 0
M  V30 11073 H 1023.87 -2.31259 -1.09329 0
M  V30 11074 H 1023.52 -4.46788 -2.41543 0
M  V30 11075 H 1023.45 -3.51637 -3.91993 0
M  V30 11076 H 1025.94 -2.80942 -2.52745 0
M  V30 11077 H 1026.25 -6.14458 -4.6868 0
M  V30 11078 H 1024.6 -5.52177 -4.22049 0
M  V30 11079 H 1027.79 -3.53578 -3.06758 0
M  V30 11080 H 1027.96 -5.0565 -4.05244 0
M  V30 11081 N 1021.37 1.14642 -1.08144 0
M  V30 11082 C 1022.6 1.89484 -0.830864 0
M  V30 11083 C 1023.01 1.78443 0.616722 0
M  V30 11084 O 1022.37 1.14191 1.42361 0
M  V30 11085 C 1022.42 3.39554 -1.24039 0
M  V30 11086 O 1022.14 3.50286 -2.63119 0
M  V30 11087 C 1023.64 4.31399 -1.02029 0
M  V30 11088 H 1020.86 0.600283 -0.299835 0
M  V30 11089 H 1023.4 1.45204 -1.44001 0
M  V30 11090 H 1021.56 3.81467 -0.675407 0
M  V30 11091 H 1021.97 4.43481 -2.80045 0
M  V30 11092 H 1023.45 5.35079 -1.35625 0
M  V30 11093 H 1023.92 4.39179 0.0428697 0
M  V30 11094 H 1024.53 3.95238 -1.57057 0
M  V30 11095 N 1022.85 0.866709 1.31628 0
M  V30 11096 C 1024.09 0.476026 1.96825 0
M  V30 11097 C 1024.42 -0.970994 1.68529 0
M  V30 11098 O 1023.68 -1.69823 0.97255 0
M  V30 11099 C 1023.97 0.676018 3.50948 0
M  V30 11100 C 1023.64 2.09533 3.99258 0
M  V30 11101 C 1022.3 2.48349 4.1216 0
M  V30 11102 C 1024.65 3.02112 4.24709 0
M  V30 11103 C 1021.98 3.78991 4.47864 0
M  V30 11104 C 1024.33 4.32266 4.61875 0
M  V30 11105 C 1023 4.71 4.72985 0
M  V30 11106 H 1022.27 0.17419 0.720235 0
M  V30 11107 H 1024.92 1.09907 1.5682 0
M  V30 11108 H 1023.22 -0.0301867 3.91788 0
M  V30 11109 H 1024.92 0.353604 3.99438 0
M  V30 11110 H 1021.51 1.78396 3.89709 0
M  V30 11111 H 1025.69 2.73351 4.14238 0
M  V30 11112 H 1020.95 4.08769 4.54663 0
M  V30 11113 H 1025.12 5.04055 4.80522 0
M  V30 11114 H 1022.75 5.72273 5.00407 0
M  V30 11115 N 1024.32 -1.44642 0.625825 0
M  V30 11116 C 1025.57 -2.02393 0.128391 0
M  V30 11117 C 1025.9 -1.49075 -1.2446 0
M  V30 11118 O 1025.18 -0.672684 -1.82497 0
M  V30 11119 C 1025.46 -3.59934 0.109279 0
M  V30 11120 C 1025.31 -4.23546 1.51423 0
M  V30 11121 C 1026.63 -4.36406 -0.568985 0
M  V30 11122 H 1023.75 -0.735427 0.0481299 0
M  V30 11123 H 1026.39 -1.72277 0.801286 0
M  V30 11124 H 1024.54 -3.85722 -0.463726 0
M  V30 11125 H 1026.22 -4.08882 2.13572 0
M  V30 11126 H 1024.46 -3.81245 2.06966 0
M  V30 11127 H 1025.13 -5.32535 1.45294 0
M  V30 11128 H 1027.61 -4.1602 -0.0817516 0
M  V30 11129 H 1026.48 -5.46122 -0.551527 0
M  V30 11130 H 1026.74 -4.1062 -1.6384 0
M  V30 11131 N 1025.8 -0.366053 -1.5329 0
M  V30 11132 C 1026.73 0.47211 -2.28677 0
M  V30 11133 C 1027.71 1.08353 -1.31125 0
M  V30 11134 O 1028.9 1.10069 -1.59995 0
M  V30 11135 C 1026.03 1.61174 -3.07637 0
M  V30 11136 C 1024.98 1.12755 -4.12881 0
M  V30 11137 C 1024.31 2.35745 -4.79925 0
M  V30 11138 C 1025.61 0.211954 -5.2187 0
M  V30 11139 H 1027.3 -0.156838 -2.98989 0
M  V30 11140 H 1024.85 -0.0768709 -1.43795 0
M  V30 11141 H 1026.8 2.20473 -3.59123 0
M  V30 11142 H 1025.52 2.26793 -2.35016 0
M  V30 11143 H 1024.18 0.557234 -3.6234 0
M  V30 11144 H 1023.83 2.99821 -4.03877 0
M  V30 11145 H 1023.53 2.04019 -5.51044 0
M  V30 11146 H 1025.06 2.95729 -5.34207 0
M  V30 11147 H 1026.47 0.71244 -5.68856 0
M  V30 11148 H 1024.87 -0.0144501 -6.00098 0
M  V30 11149 H 1025.94 -0.745753 -4.79131 0
M  V30 11150 N 1027.28 1.57312 -0.0952337 0
M  V30 11151 C 1028.7 1.57445 0.261416 0
M  V30 11152 C 1028.9 1.10639 1.68408 0
M  V30 11153 O 1027.95 0.782912 2.40056 0
M  V30 11154 C 1029.26 3.00659 0.0497206 0
M  V30 11155 C 1030.81 3.1278 0.117459 0
M  V30 11156 C 1031.29 4.57952 -0.0662441 0
M  V30 11157 N 1032.78 4.63199 -0.0114146 0
M  V30 11158 C 1033.51 5.73255 -0.128799 0
M  V30 11159 N 1033.01 6.92146 -0.301026 0
M  V30 11160 N 1034.8 5.62056 -0.0700599 0
M  V30 11161 H 1026.95 1.86045 -1.02475 0
M  V30 11162 H 1029.22 0.858726 -0.401614 0
M  V30 11163 H 1028.92 3.39102 -0.932888 0
M  V30 11164 H 1028.8 3.68792 0.791975 0
M  V30 11165 H 1031.18 2.74209 1.09057 0
M  V30 11166 H 1031.26 2.47238 -0.656288 0
M  V30 11167 H 1030.91 4.97217 -1.03623 0
M  V30 11168 H 1030.84 5.21555 0.727198 0
M  V30 11169 H 1033.33 3.77712 0.119154 0
M  V30 11170 H 1033.64 7.71855 -0.382104 0
M  V30 11171 H 1031.99 6.94184 -0.336695 0
M  V30 11172 H 1035.18 4.68057 0.0633587 0
M  V30 11173 H 1035.35 6.4779 -0.164991 0
M  V30 11174 N 1028.76 -0.17846 1.56586 0
M  V30 11175 C 1030 -0.897562 1.81856 0
M  V30 11176 C 1030.34 -1.82204 0.671955 0
M  V30 11177 O 1029.61 -1.91739 -0.326535 0
M  V30 11178 C 1029.89 -1.69942 3.17477 0
M  V30 11179 C 1029.75 -0.798545 4.42655 0
M  V30 11180 C 1031.07 -2.66861 3.49962 0
M  V30 11181 H 1028.19 -0.324863 0.661539 0
M  V30 11182 H 1030.83 -0.164106 1.8929 0
M  V30 11183 H 1028.98 -2.32471 3.11271 0
M  V30 11184 H 1030.65 -0.18668 4.60922 0
M  V30 11185 H 1028.89 -0.106181 4.3367 0
M  V30 11186 H 1029.56 -1.39496 5.34083 0
M  V30 11187 H 1032.04 -2.1446 3.56576 0
M  V30 11188 H 1030.92 -3.20037 4.45946 0
M  V30 11189 H 1031.18 -3.46715 2.74301 0
M  V30 11190 N 1030.24 -1.51135 -0.446768 0
M  V30 11191 C 1031.65 -1.39101 -0.782504 0
M  V30 11192 C 1031.85 -0.46599 -1.96038 0
M  V30 11193 O 1030.91 0.0823679 -2.52366 0
M  V30 11194 C 1032.22 -2.80953 -1.07173 0
M  V30 11195 C 1033.77 -2.90038 -1.17673 0
M  V30 11196 C 1034.24 -4.32777 -1.49894 0
M  V30 11197 N 1035.73 -4.3584 -1.56837 0
M  V30 11198 C 1036.47 -5.43305 -1.83322 0
M  V30 11199 N 1035.97 -6.60945 -2.07662 0
M  V30 11200 N 1037.76 -5.30775 -1.85026 0
M  V30 11201 H 1029.91 -2.09835 0.329114 0
M  V30 11202 H 1032.17 -0.944199 0.0848054 0
M  V30 11203 H 1031.88 -3.50591 -0.279037 0
M  V30 11204 H 1031.75 -3.197 -2.00179 0
M  V30 11205 H 1034.14 -2.20603 -1.96005 0
M  V30 11206 H 1034.22 -2.54801 -0.225892 0
M  V30 11207 H 1033.86 -5.02757 -0.720924 0
M  V30 11208 H 1033.79 -4.6552 -2.46168 0
M  V30 11209 H 1036.29 -3.51023 -1.39968 0
M  V30 11210 H 1036.6 -7.38643 -2.27214 0
M  V30 11211 H 1034.94 -6.64077 -2.05003 0
M  V30 11212 H 1038.13 -4.37858 -1.65523 0
M  V30 11213 H 1038.31 -6.14609 -2.05329 0
M  V30 11214 N 1031.71 0.701592 -1.41122 0
M  V30 11215 C 1032.68 1.79733 -1.42227 0
M  V30 11216 C 1033.68 1.57708 -0.313831 0
M  V30 11217 O 1034.87 1.64492 -0.573423 0
M  V30 11218 C 1032 3.18024 -1.22775 0
M  V30 11219 H 1033.19 1.80148 -2.39764 0
M  V30 11220 H 1030.74 0.908624 -1.27176 0
M  V30 11221 H 1031.48 3.23252 -0.260552 0
M  V30 11222 H 1031.26 3.35411 -2.0308 0
M  V30 11223 H 1032.75 3.98021 -1.2637 0
M  V30 11224 N 1033.19 1.2685 0.935242 0
M  V30 11225 C 1034.12 1.04717 2.0388 0
M  V30 11226 C 1035.14 0.00567507 1.62799 0
M  V30 11227 O 1036.33 0.246408 1.76791 0
M  V30 11228 C 1033.43 0.56496 3.34158 0
M  V30 11229 C 1032.6 1.67704 4.03973 0
M  V30 11230 C 1031.66 1.19186 5.12524 0
M  V30 11231 O 1030.68 1.89008 5.36903 0
M  V30 11232 N 1031.89 0.0434554 5.80484 0
M  V30 11233 H 1034.65 1.99746 2.23431 0
M  V30 11234 H 1032.21 1.18316 1.10512 0
M  V30 11235 H 1034.2 0.224436 4.04077 0
M  V30 11236 H 1032.77 -0.291899 3.11234 0
M  V30 11237 H 1031.99 2.18821 3.27889 0
M  V30 11238 H 1033.28 2.42361 4.47368 0
M  V30 11239 H 1032.68 -0.539502 5.63122 0
M  V30 11240 H 1031.24 -0.237946 6.51366 0
M  V30 11241 N 1034.67 -1.14067 1.0875 0
M  V30 11242 C 1035.95 -1.81389 0.73195 0
M  V30 11243 C 1036.33 -1.96005 -0.78391 0
M  V30 11244 O 1035.68 -1.52267 -1.70373 0
M  V30 11245 C 1035.89 -3.16858 1.46294 0
M  V30 11246 C 1037.23 -3.92305 1.62426 0
M  V30 11247 O 1038.26 -3.26459 1.42488 0
M  V30 11248 O 1037.12 -5.10393 1.9535 0
M  V30 11249 H 1034.21 -0.784354 0.262141 0
M  V30 11250 H 1036.76 -1.21054 1.18929 0
M  V30 11251 H 1035.53 -3.01404 2.49542 0
M  V30 11252 H 1035.15 -3.84889 0.997318 0
M  V30 11253 N 1036.15 -0.873678 -1.31166 0
M  V30 11254 C 1037.56 -0.53852 -1.78765 0
M  V30 11255 C 1037.91 0.944765 -1.71955 0
M  V30 11256 O 1037.04 1.73781 -1.28954 0
M  V30 11257 C 1037.63 -0.970749 -3.24595 0
M  V30 11258 C 1036.19 -0.687189 -3.70074 0
M  V30 11259 C 1035.34 -1.16001 -2.51871 0
M  V30 11260 H 1038.29 -1.05903 -1.18196 0
M  V30 11261 H 1038.31 -0.294966 -3.79355 0
M  V30 11262 H 1037.82 -2.05034 -3.29519 0
M  V30 11263 H 1035.92 0.380881 -3.70648 0
M  V30 11264 H 1036.03 -1.26682 -4.62048 0
M  V30 11265 H 1034.4 -0.579663 -2.48016 0
M  V30 11266 H 1035.18 -2.2471 -2.59539 0
M  V30 11267 N 1037.63 1.44308 -0.633487 0
M  V30 11268 C 1039.04 1.85387 -0.221009 0
M  V30 11269 C 1039.39 1.5301 1.22811 0
M  V30 11270 O 1038.51 0.969325 1.93476 0
M  V30 11271 C 1039.11 3.36497 -0.394331 0
M  V30 11272 C 1037.67 3.76382 -0.0363405 0
M  V30 11273 C 1036.81 2.68146 -0.706598 0
M  V30 11274 H 1039.77 1.34741 -0.83849 0
M  V30 11275 H 1039.79 3.78735 0.366026 0
M  V30 11276 H 1039.3 3.60031 -1.44911 0
M  V30 11277 H 1037.4 3.58463 1.01661 0
M  V30 11278 H 1037.51 4.77 -0.448045 0
M  V30 11279 H 1035.88 2.54306 -0.14168 0
M  V30 11280 H 1036.66 2.94512 -1.76401 0
M  V30 11281 N 1039.1 0.374177 1.53094 0
M  V30 11282 C 1040.52 -0.103172 1.86415 0
M  V30 11283 C 1040.87 -1.47439 1.29446 0
M  V30 11284 O 1039.99 -2.07333 0.619853 0
M  V30 11285 C 1040.59 -0.193988 3.38244 0
M  V30 11286 C 1039.15 -0.615605 3.71332 0
M  V30 11287 C 1038.29 0.23186 2.76329 0
M  V30 11288 H 1041.24 0.592644 1.47219 0
M  V30 11289 H 1041.26 -1.01597 3.66686 0
M  V30 11290 H 1040.78 0.80414 3.79678 0
M  V30 11291 H 1038.88 -1.62165 3.3546 0
M  V30 11292 H 1038.99 -0.38425 4.77557 0
M  V30 11293 H 1037.35 -0.300579 2.5292 0
M  V30 11294 H 1038.14 1.22769 3.20597 0
M  V30 11295 N 1040.58 -1.57259 0.103575 0
M  V30 11296 C 1041.49 -2.18018 -0.866327 0
M  V30 11297 C 1042.51 -1.15198 -1.30404 0
M  V30 11298 O 1043.68 -1.47605 -1.37021 0
M  V30 11299 C 1040.75 -2.75533 -2.10434 0
M  V30 11300 C 1039.81 -3.93337 -1.72002 0
M  V30 11301 C 1039.04 -4.481 -2.89901 0
M  V30 11302 O 1039.27 -4.01784 -4.04877 0
M  V30 11303 O 1038.2 -5.39004 -2.67877 0
M  V30 11304 H 1042.03 -3.01322 -0.379338 0
M  V30 11305 H 1039.61 -1.48907 -0.121228 0
M  V30 11306 H 1041.49 -3.12259 -2.8297 0
M  V30 11307 H 1040.17 -1.9527 -2.58169 0
M  V30 11308 H 1039.08 -3.61408 -0.966193 0
M  V30 11309 H 1040.41 -4.74989 -1.29022 0
M  V30 11310 N 1042.06 0.170153 -1.56679 0
M  V30 11311 C 1042.99 1.21285 -1.9953 0
M  V30 11312 C 1043.97 1.46104 -0.871071 0
M  V30 11313 O 1045.16 1.57419 -1.13724 0
M  V30 11314 C 1042.29 2.5515 -2.35618 0
M  V30 11315 C 1041.24 2.44898 -3.51011 0
M  V30 11316 C 1040.57 3.83263 -3.72845 0
M  V30 11317 C 1041.87 1.95271 -4.84424 0
M  V30 11318 H 1043.56 0.856646 -2.86883 0
M  V30 11319 H 1041.11 0.410634 -1.38021 0
M  V30 11320 H 1043.06 3.28299 -2.64193 0
M  V30 11321 H 1041.78 2.92561 -1.45175 0
M  V30 11322 H 1040.44 1.74203 -3.22566 0
M  V30 11323 H 1040.09 4.18069 -2.79691 0
M  V30 11324 H 1039.79 3.77272 -4.50488 0
M  V30 11325 H 1041.31 4.57996 -4.03822 0
M  V30 11326 H 1042.73 2.58195 -5.11867 0
M  V30 11327 H 1041.13 2.00225 -5.65712 0
M  V30 11328 H 1042.2 0.90709 -4.7634 0
M  V30 11329 N 1043.54 1.5137 0.438746 0
M  V30 11330 C 1044.77 1.6753 1.20901 0
M  V30 11331 C 1045.18 0.371573 1.85515 0
M  V30 11332 O 1044.52 -0.659701 1.71446 0
M  V30 11333 C 1044.58 2.73305 2.33548 0
M  V30 11334 C 1044.25 4.15944 1.89313 0
M  V30 11335 C 1045.24 5.00769 1.39736 0
M  V30 11336 C 1042.93 4.62036 1.97047 0
M  V30 11337 C 1044.92 6.29747 0.984773 0
M  V30 11338 C 1042.61 5.91011 1.554 0
M  V30 11339 C 1043.61 6.74693 1.06197 0
M  V30 11340 O 1043.29 8.01256 0.651407 0
M  V30 11341 H 1043.03 0.565404 0.370532 0
M  V30 11342 H 1045.58 1.98543 0.526296 0
M  V30 11343 H 1043.81 2.37604 3.05092 0
M  V30 11344 H 1045.5 2.78359 2.95417 0
M  V30 11345 H 1046.27 4.66363 1.33156 0
M  V30 11346 H 1042.14 3.97025 2.34291 0
M  V30 11347 H 1045.69 6.95015 0.600029 0
M  V30 11348 H 1041.59 6.24932 1.6165 0
M  V30 11349 H 1042.35 8.148 0.777382 0
M  V30 11350 N 1045.02 -0.694098 1.41492 0
M  V30 11351 C 1046.26 -1.45415 1.40929 0
M  V30 11352 C 1046.59 -1.94491 0.0189301 0
M  V30 11353 O 1045.85 -1.7 -0.96945 0
M  V30 11354 C 1046.15 -2.6805 2.36398 0
M  V30 11355 C 1045.81 -2.37623 3.83205 0
M  V30 11356 C 1044.47 -2.29035 4.23198 0
M  V30 11357 C 1046.83 -2.12555 4.75888 0
M  V30 11358 C 1044.15 -1.93478 5.5388 0
M  V30 11359 C 1046.51 -1.78506 6.06892 0
M  V30 11360 C 1045.17 -1.68415 6.45905 0
M  V30 11361 H 1044.44 -0.53211 0.515694 0
M  V30 11362 H 1047.09 -0.793193 1.74301 0
M  V30 11363 H 1045.39 -3.39086 1.96285 0
M  V30 11364 H 1047.09 -3.26194 2.33234 0
M  V30 11365 H 1043.68 -2.45202 3.51531 0
M  V30 11366 H 1047.86 -2.18133 4.45793 0
M  V30 11367 H 1043.12 -1.84219 5.82986 0
M  V30 11368 H 1047.29 -1.58128 6.7821 0
M  V30 11369 H 1044.92 -1.40631 7.47079 0
M  V30 11370 N 1046.49 -1.27344 -0.928501 0
M  V30 11371 C 1047.74 -1.13804 -1.67859 0
M  V30 11372 C 1048.07 0.31555 -1.91619 0
M  V30 11373 O 1047.35 1.23087 -1.50599 0
M  V30 11374 C 1047.63 -1.9213 -3.04562 0
M  V30 11375 C 1047.48 -3.45468 -2.88048 0
M  V30 11376 C 1048.8 -1.72513 -4.04879 0
M  V30 11377 H 1045.92 -0.414796 -0.609191 0
M  V30 11378 H 1048.56 -1.5649 -1.07753 0
M  V30 11379 H 1046.71 -1.55853 -3.55868 0
M  V30 11380 H 1048.39 -3.9157 -2.43865 0
M  V30 11381 H 1046.63 -3.71849 -2.23407 0
M  V30 11382 H 1047.3 -3.95515 -3.85061 0
M  V30 11383 H 1049.78 -2.04143 -3.62581 0
M  V30 11384 H 1048.65 -2.29713 -4.98521 0
M  V30 11385 H 1048.91 -0.672856 -4.3695 0
M  V30 11386 N 1047.97 1.13488 -1.09353 0
M  V30 11387 C 1048.92 2.18876 -0.732251 0
M  V30 11388 C 1049.89 1.63616 0.286175 0
M  V30 11389 O 1051.07 1.90059 0.167981 0
M  V30 11390 C 1048.21 3.44737 -0.158157 0
M  V30 11391 C 1047.33 4.14104 -1.23053 0
M  V30 11392 C 1046.46 5.27578 -0.619272 0
M  V30 11393 C 1045.5 5.88793 -1.67301 0
M  V30 11394 N 1044.64 6.937 -1.08283 0
M  V30 11395 H 1049.48 2.49128 -1.63522 0
M  V30 11396 H 1047.02 1.22326 -0.816995 0
M  V30 11397 H 1048.97 4.16756 0.192488 0
M  V30 11398 H 1047.6 3.14938 0.708082 0
M  V30 11399 H 1046.66 3.40376 -1.69847 0
M  V30 11400 H 1047.97 4.55683 -2.02865 0
M  V30 11401 H 1047.12 6.0631 -0.217428 0
M  V30 11402 H 1045.86 4.87246 0.210399 0
M  V30 11403 H 1044.87 5.08756 -2.0844 0
M  V30 11404 H 1046.09 6.31197 -2.50533 0
M  V30 11405 H 1044.04 6.55426 -0.274426 0
M  V30 11406 H 1043.95 7.33817 -1.81792 0
M  V30 11407 H 1045.22 7.76286 -0.707167 0
M  V30 11408 N 1049.45 0.880621 1.30701 0
M  V30 11409 C 1050.7 0.497611 1.966 0
M  V30 11410 C 1051.03 -0.949901 1.69383 0
M  V30 11411 O 1050.31 -1.67054 0.996152 0
M  V30 11412 C 1050.59 0.767919 3.51817 0
M  V30 11413 C 1050.44 2.26574 3.88567 0
M  V30 11414 C 1051.76 0.241502 4.39437 0
M  V30 11415 H 1048.88 0.182267 0.714106 0
M  V30 11416 H 1051.52 1.10382 1.54648 0
M  V30 11417 H 1049.67 0.251967 3.87682 0
M  V30 11418 H 1051.34 2.84977 3.62748 0
M  V30 11419 H 1049.59 2.73411 3.36792 0
M  V30 11420 H 1050.26 2.40549 4.9683 0
M  V30 11421 H 1052.73 0.683051 4.10455 0
M  V30 11422 H 1051.61 0.459997 5.46969 0
M  V30 11423 H 1051.87 -0.857068 4.33713 0
M  V30 11424 N 1050.93 -1.4397 0.641131 0
M  V30 11425 C 1052.21 -1.95436 0.0800918 0
M  V30 11426 C 1052.59 -1.58282 -1.39678 0
M  V30 11427 O 1051.93 -0.861867 -2.11623 0
M  V30 11428 C 1052.14 -3.47589 0.313531 0
M  V30 11429 C 1053.49 -4.2407 0.212034 0
M  V30 11430 O 1054.52 -3.55353 0.245434 0
M  V30 11431 O 1053.38 -5.46356 0.125455 0
M  V30 11432 H 1050.47 -0.826834 -0.0165735 0
M  V30 11433 H 1053.02 -1.5397 0.71353 0
M  V30 11434 H 1051.79 -3.67716 1.33793 0
M  V30 11435 H 1051.41 -3.96025 -0.353563 0
M  V30 11436 N 1052.41 -0.382291 -1.52893 0
M  V30 11437 C 1053.65 0.202433 -2.01787 0
M  V30 11438 C 1053.99 1.47044 -1.26853 0
M  V30 11439 O 1053.26 1.91007 -0.366969 0
M  V30 11440 C 1053.54 0.477471 -3.5692 0
M  V30 11441 C 1053.4 -0.805339 -4.42532 0
M  V30 11442 C 1054.72 1.27106 -4.21346 0
M  V30 11443 H 1051.84 0.0720998 -0.733465 0
M  V30 11444 H 1054.48 -0.510478 -1.83014 0
M  V30 11445 H 1052.63 1.08478 -3.73048 0
M  V30 11446 H 1054.3 -1.4424 -4.3817 0
M  V30 11447 H 1052.54 -1.42216 -4.09826 0
M  V30 11448 H 1053.21 -0.567635 -5.49074 0
M  V30 11449 H 1055.69 0.757161 -4.09153 0
M  V30 11450 H 1054.57 1.43225 -5.29885 0
M  V30 11451 H 1054.83 2.28431 -3.78513 0
M  V30 11452 N 1053.89 1.57202 -0.111913 0
M  V30 11453 C 1055.11 1.99297 0.555713 0
M  V30 11454 C 1055.53 0.991444 1.60673 0
M  V30 11455 O 1054.89 -0.0166672 1.82492 0
M  V30 11456 C 1054.94 3.41413 1.18826 0
M  V30 11457 O 1054.66 4.37733 0.179261 0
M  V30 11458 C 1056.16 3.98602 1.93989 0
M  V30 11459 H 1053.38 0.654543 0.147695 0
M  V30 11460 H 1055.92 2.03557 -0.196163 0
M  V30 11461 H 1054.08 3.38115 1.89096 0
M  V30 11462 H 1054.49 5.20606 0.637935 0
M  V30 11463 H 1055.97 5.00143 2.33584 0
M  V30 11464 H 1056.44 3.37349 2.81233 0
M  V30 11465 H 1057.05 4.05424 1.28497 0
M  V30 11466 N 1055.36 -0.161842 1.56767 0
M  V30 11467 C 1056.61 -0.875192 1.82167 0
M  V30 11468 C 1056.93 -1.82367 0.690444 0
M  V30 11469 O 1056.2 -1.93756 -0.289023 0
M  V30 11470 H 1054.78 -0.326178 0.672024 0
M  V30 11471 H 1057.44 -0.159392 1.94247 0
M  V30 11472 H 1056.54 -1.44639 2.76561 0
M  V30 11473 N 1056.84 -1.516 -0.430713 0
M  V30 11474 C 1057.8 -1.72794 -1.50582 0
M  V30 11475 C 1058.8 -0.597903 -1.49271 0
M  V30 11476 O 1059.99 -0.865535 -1.51176 0
M  V30 11477 C 1057.13 -1.79049 -2.90093 0
M  V30 11478 H 1058.32 -2.68751 -1.33091 0
M  V30 11479 H 1055.87 -1.4169 -0.659822 0
M  V30 11480 H 1056.61 -0.849309 -3.12981 0
M  V30 11481 H 1056.39 -2.61181 -2.92449 0
M  V30 11482 H 1057.88 -1.97262 -3.68072 0
M  V30 11483 N 1058.32 0.686584 -1.41858 0
M  V30 11484 C 1059.55 1.47305 -1.44862 0
M  V30 11485 C 1059.96 1.8912 -0.0549286 0
M  V30 11486 O 1059.3 1.57941 0.938101 0
M  V30 11487 C 1059.36 2.76107 -2.30229 0
M  V30 11488 C 1059.03 2.5644 -3.78269 0
M  V30 11489 C 1060.02 2.21803 -4.70212 0
M  V30 11490 C 1057.71 2.71801 -4.22409 0
M  V30 11491 C 1059.7 2.02778 -6.04284 0
M  V30 11492 C 1057.39 2.52392 -5.56544 0
M  V30 11493 C 1058.39 2.17933 -6.47298 0
M  V30 11494 O 1058.08 1.98701 -7.78956 0
M  V30 11495 H 1057.81 0.460174 -0.495193 0
M  V30 11496 H 1060.36 0.852069 -1.86893 0
M  V30 11497 H 1058.59 3.40644 -1.83026 0
M  V30 11498 H 1060.28 3.37947 -2.24826 0
M  V30 11499 H 1061.05 2.09542 -4.37398 0
M  V30 11500 H 1056.93 2.97605 -3.52069 0
M  V30 11501 H 1060.47 1.75805 -6.75084 0
M  V30 11502 H 1056.37 2.64246 -5.88935 0
M  V30 11503 H 1057.13 2.13393 -7.90193 0
M  V30 11504 N 1059.8 1.27835 0.921735 0
M  V30 11505 C 1061.07 1.05238 1.64877 0
M  V30 11506 C 1061.45 -0.410921 2.07062 0
M  V30 11507 O 1060.8 -1.39538 1.80946 0
M  V30 11508 C 1061.01 2.01955 2.84632 0
M  V30 11509 C 1062.36 2.31657 3.55837 0
M  V30 11510 O 1063.38 1.99975 2.94768 0
M  V30 11511 O 1062.24 2.85692 4.65878 0
M  V30 11512 H 1059.34 0.401622 0.72293 0
M  V30 11513 H 1061.88 1.39123 0.971744 0
M  V30 11514 H 1060.66 3.00614 2.50494 0
M  V30 11515 H 1060.28 1.68667 3.60052 0
M  V30 11516 N 1061.28 -1.12907 1.09954 0
M  V30 11517 C 1062.5 -1.88138 0.860905 0
M  V30 11518 C 1062.92 -1.79402 -0.588256 0
M  V30 11519 O 1062.28 -1.16442 -1.40526 0
M  V30 11520 C 1062.33 -3.37537 1.29425 0
M  V30 11521 O 1062.05 -3.46056 2.68658 0
M  V30 11522 C 1063.55 -4.29721 1.08879 0
M  V30 11523 H 1060.77 -0.595437 0.309347 0
M  V30 11524 H 1063.31 -1.42894 1.46292 0
M  V30 11525 H 1061.47 -3.80344 0.736009 0
M  V30 11526 H 1061.88 -4.38969 2.87065 0
M  V30 11527 H 1063.36 -5.32854 1.4412 0
M  V30 11528 H 1063.83 -4.39192 0.0270053 0
M  V30 11529 H 1064.44 -3.9269 1.63325 0
M  V30 11530 N 1062.75 -0.88754 -1.30232 0
M  V30 11531 C 1064 -0.503322 -1.95319 0
M  V30 11532 C 1064.32 0.952817 -1.70824 0
M  V30 11533 O 1065.52 1.444 -2.29915 0
M  V30 11534 C 1063.98 -0.849216 -3.49738 0
M  V30 11535 C 1063.59 -2.3233 -3.83049 0
M  V30 11536 C 1065.33 -0.53432 -4.21124 0
M  V30 11537 C 1063.24 -2.61069 -5.30657 0
M  V30 11538 H 1062.17 -0.1845 -0.731078 0
M  V30 11539 H 1064.82 -1.08287 -1.48143 0
M  V30 11540 H 1063.2 -0.198729 -3.95501 0
M  V30 11541 H 1064.37 -3.01832 -3.48187 0
M  V30 11542 H 1062.69 -2.60599 -3.24773 0
M  V30 11543 H 1065.29 -0.726039 -5.29748 0
M  V30 11544 H 1065.63 0.526434 -4.12958 0
M  V30 11545 H 1066.16 -1.14211 -3.81052 0
M  V30 11546 H 1062.9 -3.65895 -5.43876 0
M  V30 11547 H 1062.42 -1.96179 -5.6681 0
M  V30 11548 H 1064.1 -2.46703 -5.98119 0
M  V30 11549 N 1064.23 1.43628 -0.648757 0
M  V30 11550 C 1065.64 1.85142 -0.24066 0
M  V30 11551 C 1065.99 1.54304 1.21181 0
M  V30 11552 O 1065.12 0.989792 1.92437 0
M  V30 11553 C 1065.71 3.3606 -0.429999 0
M  V30 11554 C 1064.27 3.76323 -0.0762588 0
M  V30 11555 C 1063.42 2.67382 -0.734999 0
M  V30 11556 H 1066.37 1.33844 -0.852734 0
M  V30 11557 H 1066.39 3.79102 0.325836 0
M  V30 11558 H 1065.9 3.58474 -1.48721 0
M  V30 11559 H 1064.01 3.59521 0.978529 0
M  V30 11560 H 1064.12 4.76498 -0.498612 0
M  V30 11561 H 1062.48 2.54141 -0.168644 0
M  V30 11562 H 1063.27 2.92625 -1.79515 0
M  V30 11563 N 1065.71 0.390394 1.52688 0
M  V30 11564 C 1066.64 -0.479319 2.24132 0
M  V30 11565 C 1067.66 -1.0258 1.26416 0
M  V30 11566 O 1068.84 -0.927943 1.52484 0
M  V30 11567 C 1065.94 -1.67711 2.94493 0
M  V30 11568 C 1065.12 -1.2578 4.18925 0
M  V30 11569 C 1064.18 -2.3204 4.72275 0
M  V30 11570 O 1063.2 -1.93402 5.35336 0
M  V30 11571 N 1064.4 -3.63967 4.52226 0
M  V30 11572 H 1067.17 0.132777 2.99406 0
M  V30 11573 H 1064.73 0.216807 1.60442 0
M  V30 11574 H 1066.72 -2.38323 3.27084 0
M  V30 11575 H 1065.29 -2.19552 2.22521 0
M  V30 11576 H 1064.51 -0.380528 3.92359 0
M  V30 11577 H 1065.8 -0.954329 4.9977 0
M  V30 11578 H 1065.2 -3.98119 4.01892 0
M  V30 11579 H 1063.76 -4.30611 4.89303 0
M  V30 11580 N 1067.19 -1.57141 0.120249 0
M  V30 11581 C 1068.47 -1.8677 -0.581075 0
M  V30 11582 C 1068.85 -1.02163 -1.84732 0
M  V30 11583 O 1068.19 -0.100897 -2.28277 0
M  V30 11584 C 1068.4 -3.37923 -0.872316 0
M  V30 11585 C 1069.75 -4.0655 -1.22483 0
M  V30 11586 O 1070.78 -3.42948 -0.962539 0
M  V30 11587 O 1069.63 -5.18821 -1.71717 0
M  V30 11588 H 1066.73 -0.773219 -0.293362 0
M  V30 11589 H 1069.27 -1.68992 0.154846 0
M  V30 11590 H 1068.05 -3.91292 0.0249416 0
M  V30 11591 H 1067.67 -3.61135 -1.66335 0
M  V30 11592 N 1068.67 0.153526 -1.5685 0
M  V30 11593 C 1070.08 0.505939 -1.51368 0
M  V30 11594 C 1070.28 1.83721 -0.82757 0
M  V30 11595 O 1069.34 2.49385 -0.395364 0
M  V30 11596 C 1070.65 0.522269 -2.9613 0
M  V30 11597 C 1072.2 0.608238 -3.07033 0
M  V30 11598 C 1072.67 0.655292 -4.53288 0
M  V30 11599 N 1074.17 0.717695 -4.57606 0
M  V30 11600 C 1074.9 0.774977 -5.68139 0
M  V30 11601 N 1074.4 0.792003 -6.88258 0
M  V30 11602 N 1076.19 0.81536 -5.56155 0
M  V30 11603 H 1068.34 -0.71919 -1.99853 0
M  V30 11604 H 1070.6 -0.261466 -0.91123 0
M  V30 11605 H 1070.31 -0.387595 -3.49558 0
M  V30 11606 H 1070.18 1.3625 -3.51733 0
M  V30 11607 H 1072.57 1.50852 -2.53629 0
M  V30 11608 H 1072.65 -0.259014 -2.54485 0
M  V30 11609 H 1072.3 -0.240809 -5.07329 0
M  V30 11610 H 1072.23 1.53894 -5.03611 0
M  V30 11611 H 1074.72 0.7121 -3.7113 0
M  V30 11612 H 1075.03 0.837378 -7.6825 0
M  V30 11613 H 1073.37 0.759986 -6.90832 0
M  V30 11614 H 1076.57 0.799183 -4.61227 0
M  V30 11615 H 1076.74 0.856537 -6.42314 0
M  V30 11616 N 1070.14 1.51827 0.422667 0
M  V30 11617 C 1071.07 1.77152 1.52117 0
M  V30 11618 C 1072.06 0.621895 1.58324 0
M  V30 11619 O 1073.24 0.866118 1.73816 0
M  V30 11620 C 1070.37 1.90991 2.90068 0
M  V30 11621 C 1069.32 3.06516 2.98717 0
M  V30 11622 C 1068.65 3.05559 4.38791 0
M  V30 11623 C 1069.95 4.46223 2.71445 0
M  V30 11624 H 1071.64 2.69135 1.31175 0
M  V30 11625 H 1069.19 1.29507 0.629607 0
M  V30 11626 H 1071.14 2.07291 3.6689 0
M  V30 11627 H 1069.87 0.956688 3.12274 0
M  V30 11628 H 1068.53 2.89945 2.24338 0
M  V30 11629 H 1068.17 2.07985 4.57986 0
M  V30 11630 H 1067.87 3.83144 4.45505 0
M  V30 11631 H 1069.4 3.23971 5.17566 0
M  V30 11632 H 1070.81 4.63069 3.37994 0
M  V30 11633 H 1069.21 5.25623 2.89552 0
M  V30 11634 H 1070.28 4.5525 1.6696 0
M  V30 11635 N 1071.62 -0.679052 1.4222 0
M  V30 11636 C 1072.85 -1.46747 1.45852 0
M  V30 11637 C 1073.27 -1.88675 0.0685937 0
M  V30 11638 O 1072.62 -1.57861 -0.915757 0
M  V30 11639 C 1072.67 -2.71935 2.38188 0
M  V30 11640 O 1072.39 -2.31768 3.71773 0
M  V30 11641 C 1073.9 -3.65536 2.50796 0
M  V30 11642 H 1071.12 -0.451682 0.49621 0
M  V30 11643 H 1073.66 -0.834723 1.86689 0
M  V30 11644 H 1071.81 -3.31409 2.00616 0
M  V30 11645 H 1072.23 -3.12579 4.21182 0
M  V30 11646 H 1073.7 -4.50113 3.19535 0
M  V30 11647 H 1074.18 -4.11148 1.54447 0
M  V30 11648 H 1074.79 -3.11957 2.89072 0
M  V30 11649 N 1073.1 -1.28322 -0.914942 0
M  V30 11650 C 1074.01 -1.13993 -2.05043 0
M  V30 11651 C 1075.03 -0.0667921 -1.73872 0
M  V30 11652 O 1076.2 -0.275845 -1.99502 0
M  V30 11653 C 1073.27 -0.801856 -3.373 0
M  V30 11654 C 1072.33 -1.95723 -3.82088 0
M  V30 11655 C 1071.56 -1.63519 -5.08033 0
M  V30 11656 O 1071.78 -0.54899 -5.67752 0
M  V30 11657 O 1070.72 -2.47844 -5.48504 0
M  V30 11658 H 1074.54 -2.09313 -2.2005 0
M  V30 11659 H 1072.13 -1.0763 -1.03616 0
M  V30 11660 H 1074.01 -0.627214 -4.16706 0
M  V30 11661 H 1072.69 0.121696 -3.23471 0
M  V30 11662 H 1071.59 -2.18702 -3.03514 0
M  V30 11663 H 1072.93 -2.86144 -4.00478 0
M  V30 11664 N 1074.58 1.12322 -1.10551 0
M  V30 11665 C 1075.82 1.8413 -0.849932 0
M  V30 11666 C 1076.16 1.83938 0.622946 0
M  V30 11667 O 1075.43 1.28579 1.45937 0
M  V30 11668 C 1075.72 3.31751 -1.40048 0
M  V30 11669 C 1075.57 3.40391 -2.9403 0
M  V30 11670 C 1076.89 4.27543 -1.04379 0
M  V30 11671 H 1074.01 0.668533 -0.310213 0
M  V30 11672 H 1076.65 1.31766 -1.36886 0
M  V30 11673 H 1074.8 3.76475 -0.959102 0
M  V30 11674 H 1076.47 3.04294 -3.46703 0
M  V30 11675 H 1074.71 2.809 -3.30571 0
M  V30 11676 H 1075.38 4.44252 -3.27635 0
M  V30 11677 H 1077.86 3.90951 -1.42466 0
M  V30 11678 H 1076.74 5.2924 -1.4559 0
M  V30 11679 H 1077 4.42075 0.0466316 0
M  V30 11680 N 1076.06 0.894434 1.2976 0
M  V30 11681 C 1077.31 0.513673 1.95049 0
M  V30 11682 C 1077.62 -0.943744 1.71327 0
M  V30 11683 O 1078.82 -1.43179 2.30678 0
M  V30 11684 C 1077.28 0.867751 3.49282 0
M  V30 11685 C 1076.89 2.34358 3.81812 0
M  V30 11686 C 1078.63 0.556645 4.20835 0
M  V30 11687 C 1076.54 2.63879 5.29265 0
M  V30 11688 H 1075.47 0.188375 0.73009 0
M  V30 11689 H 1078.12 1.09071 1.47566 0
M  V30 11690 H 1076.5 0.2197 3.9539 0
M  V30 11691 H 1077.68 3.03674 3.46581 0
M  V30 11692 H 1075.99 2.62318 3.23386 0
M  V30 11693 H 1078.59 0.754123 5.29355 0
M  V30 11694 H 1078.93 -0.504526 4.13231 0
M  V30 11695 H 1079.46 1.1623 3.80441 0
M  V30 11696 H 1076.2 3.68774 5.41928 0
M  V30 11697 H 1075.72 1.99182 5.65762 0
M  V30 11698 H 1077.4 2.49871 5.96803 0
M  V30 11699 N 1077.53 -1.43282 0.656365 0
M  V30 11700 C 1078.5 -2.29188 -0.0239173 0
M  V30 11701 C 1079.5 -1.42373 -0.747436 0
M  V30 11702 O 1080.69 -1.63969 -0.588213 0
M  V30 11703 C 1077.82 -3.24501 -1.0446 0
M  V30 11704 H 1079.01 -2.9083 0.731978 0
M  V30 11705 H 1076.57 -1.50614 0.417752 0
M  V30 11706 H 1077.3 -2.6776 -1.82962 0
M  V30 11707 H 1077.09 -3.88509 -0.52942 0
M  V30 11708 H 1078.58 -3.88971 -1.51958 0
M  V30 11709 N 1079.01 -0.398486 -1.52479 0
M  V30 11710 C 1080.24 0.183059 -2.06591 0
M  V30 11711 C 1080.66 1.3898 -1.26753 0
M  V30 11712 O 1080.02 1.78885 -0.294959 0
M  V30 11713 C 1080.07 0.522392 -3.56796 0
M  V30 11714 O 1079.17 1.61499 -3.79462 0
M  V30 11715 H 1078.51 0.0188411 -0.663733 0
M  V30 11716 H 1081.04 -0.56861 -1.9654 0
M  V30 11717 H 1081.05 0.784078 -4.00395 0
M  V30 11718 H 1079.73 -0.359807 -4.14341 0
M  V30 11719 H 1078.31 1.3463 -3.47749 0
M  V30 11720 N 1080.49 1.57075 -0.12858 0
M  V30 11721 C 1081.74 1.94695 0.526952 0
M  V30 11722 C 1082.05 1.01482 1.67215 0
M  V30 11723 O 1083.26 1.28606 2.39108 0
M  V30 11724 C 1081.72 3.4605 0.988801 0
M  V30 11725 C 1081.32 4.47816 -0.128457 0
M  V30 11726 C 1083.07 3.92572 1.61517 0
M  V30 11727 C 1080.97 5.9036 0.350628 0
M  V30 11728 H 1079.9 0.726819 0.200623 0
M  V30 11729 H 1082.56 1.82295 -0.209972 0
M  V30 11730 H 1080.94 3.53718 1.78043 0
M  V30 11731 H 1082.11 4.51826 -0.904976 0
M  V30 11732 H 1080.43 4.11103 -0.662075 0
M  V30 11733 H 1083.02 4.96493 1.98491 0
M  V30 11734 H 1083.37 3.33085 2.49721 0
M  V30 11735 H 1083.9 3.87744 0.888768 0
M  V30 11736 H 1080.64 6.53624 -0.495592 0
M  V30 11737 H 1080.16 5.89749 1.09342 0
M  V30 11738 H 1081.84 6.41926 0.808717 0
M  V30 11739 N 1081.97 -0.145205 1.5693 0
M  V30 11740 C 1083.22 -0.855955 1.82637 0
M  V30 11741 C 1083.53 -1.82255 0.710109 0
M  V30 11742 O 1084.74 -2.57758 0.852837 0
M  V30 11743 C 1083.19 -1.57278 3.23715 0
M  V30 11744 C 1082.8 -0.648507 4.43281 0
M  V30 11745 C 1084.55 -2.27021 3.58695 0
M  V30 11746 C 1082.45 -1.36706 5.75383 0
M  V30 11747 H 1081.38 -0.323385 0.68113 0
M  V30 11748 H 1084.03 -0.10869 1.83178 0
M  V30 11749 H 1082.42 -2.36574 3.17567 0
M  V30 11750 H 1083.59 0.109355 4.6067 0
M  V30 11751 H 1081.9 -0.0594029 4.16358 0
M  V30 11752 H 1084.5 -2.81423 4.54648 0
M  V30 11753 H 1084.84 -3.03598 2.8484 0
M  V30 11754 H 1085.38 -1.54642 3.66512 0
M  V30 11755 H 1082.12 -0.6431 6.52338 0
M  V30 11756 H 1081.64 -2.09759 5.61926 0
M  V30 11757 H 1083.32 -1.90748 6.18243 0
M  V30 11758 N 1083.45 -1.52049 -0.414609 0
M  V30 11759 C 1084.39 -1.74998 -1.5048 0
M  V30 11760 C 1085.36 -0.592251 -1.55182 0
M  V30 11761 O 1086.55 -0.829203 -1.7184 0
M  V30 11762 C 1083.69 -1.90157 -2.87983 0
M  V30 11763 C 1082.8 -3.17789 -2.92633 0
M  V30 11764 C 1081.94 -3.23411 -4.21401 0
M  V30 11765 C 1080.98 -4.45267 -4.20004 0
M  V30 11766 N 1080.11 -4.48312 -5.40334 0
M  V30 11767 H 1084.95 -2.68046 -1.30212 0
M  V30 11768 H 1082.49 -1.32824 -0.632154 0
M  V30 11769 H 1084.45 -1.96929 -3.67797 0
M  V30 11770 H 1083.08 -1.00496 -3.06758 0
M  V30 11771 H 1082.13 -3.20216 -2.05343 0
M  V30 11772 H 1083.44 -4.07634 -2.87465 0
M  V30 11773 H 1082.6 -3.29224 -5.09604 0
M  V30 11774 H 1081.34 -2.31495 -4.29257 0
M  V30 11775 H 1080.34 -4.39606 -3.30192 0
M  V30 11776 H 1081.57 -5.38472 -4.13793 0
M  V30 11777 H 1079.51 -3.59277 -5.48868 0
M  V30 11778 H 1079.43 -5.31994 -5.37139 0
M  V30 11779 H 1080.7 -4.58347 -6.30506 0
M  V30 11780 N 1084.93 0.6715 -1.42579 0
M  V30 11781 C 1086.34 1.2522 -1.38481 0
M  V30 11782 C 1086.69 1.96038 -0.079719 0
M  V30 11783 O 1085.81 2.00203 0.821441 0
M  V30 11784 C 1086.41 2.27736 -2.50842 0
M  V30 11785 C 1084.97 2.81325 -2.50067 0
M  V30 11786 C 1084.11 1.55694 -2.29466 0
M  V30 11787 H 1087.06 0.464673 -1.51745 0
M  V30 11788 H 1087.09 3.09539 -2.21283 0
M  V30 11789 H 1086.6 1.76164 -3.45815 0
M  V30 11790 H 1084.7 3.37008 -1.58922 0
M  V30 11791 H 1084.81 3.30116 -3.47218 0
M  V30 11792 H 1083.18 1.82383 -1.77788 0
M  V30 11793 H 1083.96 1.06084 -3.26498 0
M  V30 11794 N 1086.4 1.28806 0.908124 0
M  V30 11795 C 1087.34 1.09018 2.01613 0
M  V30 11796 C 1088.35 0.0402059 1.6275 0
M  V30 11797 O 1089.54 0.283853 1.76229 0
M  V30 11798 C 1086.64 0.635712 3.32884 0
M  V30 11799 C 1085.81 1.76235 4.00325 0
M  V30 11800 C 1084.87 1.3003 5.09881 0
M  V30 11801 O 1083.9 2.00354 5.32773 0
M  V30 11802 N 1085.1 0.166575 5.80261 0
M  V30 11803 H 1087.86 2.0444 2.19144 0
M  V30 11804 H 1085.42 1.20633 1.07978 0
M  V30 11805 H 1087.42 0.310097 4.0351 0
M  V30 11806 H 1085.99 -0.225816 3.11783 0
M  V30 11807 H 1085.21 2.25727 3.23173 0
M  V30 11808 H 1086.49 2.51796 4.42127 0
M  V30 11809 H 1085.89 -0.419934 5.64139 0
M  V30 11810 H 1084.45 -0.0997281 6.51724 0
M  V30 11811 N 1087.88 -1.11734 1.11145 0
M  V30 11812 C 1088.83 -2.19765 0.761982 0
M  V30 11813 C 1089.82 -1.67616 -0.24518 0
M  V30 11814 O 1091.03 -1.79695 -0.104781 0
M  V30 11815 H 1087.4 -0.71644 0.228513 0
M  V30 11816 H 1089.38 -2.4649 1.68183 0
M  V30 11817 C 1088.12 -3.47016 0.218057 0
M  V30 11818 H 1087.45 -3.87494 0.984299 0
M  V30 11819 H 1088.89 -4.23998 0.0116825 0
M  V30 11820 C 1087.35 -3.20088 -1.05096 0
M  V30 11821 O 1087.88 -3.40503 -2.1312 0
M  V30 11822 N 1086.08 -2.73844 -0.972523 0
M  V30 11823 H 1085.63 -2.57431 -0.0933459 0
M  V30 11824 H 1085.59 -2.56204 -1.82228 0
M  V30 11825 N 1089.36 -0.901303 -1.29284 0
M  V30 11826 C 1090.59 -0.543511 -1.99634 0
M  V30 11827 C 1091 0.872154 -1.67448 0
M  V30 11828 O 1090.36 1.57591 -0.920406 0
M  V30 11829 C 1090.41 -0.728148 -3.54091 0
M  V30 11830 O 1090.13 -2.08809 -3.85137 0
M  V30 11831 C 1091.63 -0.375519 -4.41707 0
M  V30 11832 H 1088.85 -0.208405 -0.637815 0
M  V30 11833 H 1091.4 -1.21109 -1.64781 0
M  V30 11834 H 1089.55 -0.107728 -3.8725 0
M  V30 11835 H 1089.97 -2.11863 -4.79807 0
M  V30 11836 H 1091.44 -0.555538 -5.49197 0
M  V30 11837 H 1091.92 0.687532 -4.33785 0
M  V30 11838 H 1092.52 -0.972949 -4.14021 0
M  V30 11839 N 1090.84 1.42931 -0.663954 0
M  V30 11840 C 1092.07 2.05729 -0.189532 0
M  V30 11841 C 1092.48 1.49914 1.15423 0
M  V30 11842 O 1091.82 0.629324 1.72584 0
M  V30 11843 C 1091.88 3.59482 -0.0354748 0
M  V30 11844 C 1091.54 4.37935 -1.30622 0
M  V30 11845 C 1092.54 4.69297 -2.23733 0
M  V30 11846 C 1090.23 4.77761 -1.5508 0
M  V30 11847 C 1092.22 5.39407 -3.39586 0
M  V30 11848 C 1089.91 5.47613 -2.71224 0
M  V30 11849 C 1090.91 5.7836 -3.63302 0
M  V30 11850 O 1090.59 6.46783 -4.77417 0
M  V30 11851 H 1090.33 0.669678 -0.0922342 0
M  V30 11852 H 1092.88 1.84243 -0.907943 0
M  V30 11853 H 1091.11 3.79584 0.738412 0
M  V30 11854 H 1092.8 4.03947 0.397679 0
M  V30 11855 H 1093.56 4.39038 -2.06084 0
M  V30 11856 H 1089.44 4.53229 -0.842863 0
M  V30 11857 H 1092.99 5.63323 -4.11476 0
M  V30 11858 H 1088.88 5.77289 -2.88804 0
M  V30 11859 H 1089.65 6.6527 -4.76821 0
M  V30 11860 N 1092.32 0.406567 1.52266 0
M  V30 11861 C 1093.56 -0.169611 2.03695 0
M  V30 11862 C 1093.92 -1.42596 1.2857 0
M  V30 11863 O 1095.12 -2.08041 1.70212 0
M  V30 11864 C 1093.39 -0.413924 3.54995 0
M  V30 11865 S 1094.95 -0.957916 4.28217 0
M  V30 11866 H 1091.77 -0.0462362 0.709495 0
M  V30 11867 H 1094.37 0.558895 1.87341 0
M  V30 11868 H 1093.07 0.507285 4.07253 0
M  V30 11869 H 1092.61 -1.17038 3.75587 0
M  V30 11870 H 1094.62 -2.2387 4.42828 0
M  V30 11871 N 1093.79 -1.57004 0.136909 0
M  V30 11872 C 1095.04 -1.96087 -0.517477 0
M  V30 11873 C 1095.37 -1.0213 -1.65176 0
M  V30 11874 O 1094.65 -0.0617958 -1.94402 0
M  V30 11875 C 1094.93 -3.44958 -1.03323 0
M  V30 11876 C 1094.78 -4.49691 0.0988609 0
M  V30 11877 C 1096.1 -3.96091 -1.91832 0
M  V30 11878 H 1093.22 -0.712978 -0.186632 0
M  V30 11879 H 1095.86 -1.88767 0.216095 0
M  V30 11880 H 1094.01 -3.51327 -1.65836 0
M  V30 11881 H 1095.69 -4.55409 0.734847 0
M  V30 11882 H 1093.93 -4.271 0.75947 0
M  V30 11883 H 1094.6 -5.51165 -0.303554 0
M  V30 11884 H 1097.08 -3.92139 -1.39164 0
M  V30 11885 H 1095.95 -5.00742 -2.24831 0
M  V30 11886 H 1096.21 -3.37846 -2.85153 0
M  V30 11887 N 1095.27 0.136881 -1.57004 0
M  V30 11888 C 1096.69 0.489856 -1.51897 0
M  V30 11889 C 1096.89 1.82833 -0.847009 0
M  V30 11890 O 1095.94 2.48952 -0.421792 0
M  V30 11891 C 1097.26 0.490831 -2.96667 0
M  V30 11892 C 1098.81 0.575639 -3.07661 0
M  V30 11893 C 1099.28 0.607178 -4.53957 0
M  V30 11894 N 1100.77 0.66912 -4.58342 0
M  V30 11895 C 1101.51 0.714675 -5.68929 0
M  V30 11896 N 1101 0.718959 -6.89059 0
M  V30 11897 N 1102.8 0.756326 -5.56988 0
M  V30 11898 H 1094.95 -0.740347 -1.99079 0
M  V30 11899 H 1097.21 -0.271116 -0.908405 0
M  V30 11900 H 1096.92 -0.424648 -3.49127 0
M  V30 11901 H 1096.79 1.32512 -3.53158 0
M  V30 11902 H 1099.18 1.48154 -2.55215 0
M  V30 11903 H 1099.26 -0.285991 -2.54196 0
M  V30 11904 H 1098.9 -0.294604 -5.07045 0
M  V30 11905 H 1098.83 1.48544 -5.05215 0
M  V30 11906 H 1101.32 0.672697 -3.71864 0
M  V30 11907 H 1101.64 0.755848 -7.69095 0
M  V30 11908 H 1099.98 0.686671 -6.91599 0
M  V30 11909 H 1103.17 0.750219 -4.62049 0
M  V30 11910 H 1103.34 0.788363 -6.43186 0
M  V30 11911 N 1096.75 1.52266 0.40654 0
M  V30 11912 C 1098.17 1.41127 0.745348 0
M  V30 11913 C 1098.37 0.517802 1.94733 0
M  V30 11914 O 1097.42 -0.0154286 2.52495 0
M  V30 11915 C 1098.74 2.83696 0.996859 0
M  V30 11916 C 1100.28 2.93056 1.09942 0
M  V30 11917 C 1100.76 4.36599 1.38367 0
M  V30 11918 N 1102.25 4.39845 1.45226 0
M  V30 11919 C 1102.98 5.47975 1.68852 0
M  V30 11920 N 1102.48 6.66219 1.90065 0
M  V30 11921 N 1104.27 5.35494 1.70888 0
M  V30 11922 H 1096.42 2.08888 -0.384632 0
M  V30 11923 H 1098.69 0.941619 -0.109809 0
M  V30 11924 H 1098.39 3.51208 0.185986 0
M  V30 11925 H 1098.27 3.24895 1.91632 0
M  V30 11926 H 1100.65 2.25723 1.90088 0
M  V30 11927 H 1100.74 2.5531 0.158256 0
M  V30 11928 H 1100.38 5.04492 0.587373 0
M  V30 11929 H 1100.31 4.71883 2.33739 0
M  V30 11930 H 1102.8 3.54611 1.30612 0
M  V30 11931 H 1103.11 7.44408 2.0755 0
M  V30 11932 H 1101.46 6.69279 1.87325 0
M  V30 11933 H 1104.65 4.42093 1.53856 0
M  V30 11934 H 1104.82 6.19837 1.88962 0
M  V30 11935 N 1098.23 -0.663929 1.42933 0
M  V30 11936 C 1099.46 -1.44981 1.47187 0
M  V30 11937 C 1099.87 -1.89009 0.0850091 0
M  V30 11938 O 1099.21 -1.59413 -0.912855 0
M  V30 11939 C 1099.27 -2.72409 2.34592 0
M  V30 11940 C 1098.94 -2.5039 3.82301 0
M  V30 11941 C 1099.93 -2.14295 4.73681 0
M  V30 11942 C 1097.62 -2.65047 4.2668 0
M  V30 11943 C 1099.61 -1.93139 6.07434 0
M  V30 11944 C 1097.3 -2.43506 5.60489 0
M  V30 11945 C 1098.3 -2.07607 6.50683 0
M  V30 11946 O 1097.98 -1.86284 7.82019 0
M  V30 11947 H 1097.72 -0.452238 0.502451 0
M  V30 11948 H 1100.27 -0.822228 1.88225 0
M  V30 11949 H 1098.5 -3.37689 1.88422 0
M  V30 11950 H 1100.19 -3.34327 2.30174 0
M  V30 11951 H 1100.96 -2.02557 4.40676 0
M  V30 11952 H 1096.83 -2.91966 3.56759 0
M  V30 11953 H 1100.38 -1.65042 6.77796 0
M  V30 11954 H 1096.28 -2.54844 5.93064 0
M  V30 11955 H 1097.04 -2.00795 7.93488 0
M  V30 11956 N 1099.71 -1.29285 -0.901281 0
M  V30 11957 C 1100.67 -1.14283 -1.98676 0
M  V30 11958 C 1101.67 -0.0787641 -1.60607 0
M  V30 11959 O 1102.86 -0.325574 -1.71131 0
M  V30 11960 C 1099.99 -0.747279 -3.32609 0
M  V30 11961 H 1101.18 -2.10701 -2.13413 0
M  V30 11962 H 1098.74 -1.12449 -1.08558 0
M  V30 11963 H 1099.47 0.217111 -3.23572 0
M  V30 11964 H 1099.26 -1.51608 -3.61604 0
M  V30 11965 H 1100.75 -0.665322 -4.12266 0
M  V30 11966 N 1101.18 1.11143 -1.11736 0
M  V30 11967 C 1102.43 1.83219 -0.869413 0
M  V30 11968 C 1102.76 1.84588 0.603402 0
M  V30 11969 O 1102.04 1.30119 1.44566 0
M  V30 11970 C 1102.32 3.30247 -1.43559 0
M  V30 11971 C 1102.17 3.37253 -2.97624 0
M  V30 11972 C 1103.49 4.26412 -1.08907 0
M  V30 11973 H 1100.61 0.665205 -0.317286 0
M  V30 11974 H 1103.25 1.30307 -1.38275 0
M  V30 11975 H 1101.4 3.75437 -0.998978 0
M  V30 11976 H 1103.08 3.00599 -3.49911 0
M  V30 11977 H 1101.32 2.77378 -3.33532 0
M  V30 11978 H 1101.99 4.40752 -3.32328 0
M  V30 11979 H 1104.47 3.89418 -1.46604 0
M  V30 11980 H 1103.34 5.27666 -1.51195 0
M  V30 11981 H 1103.6 4.421 -0.000259009 0
M  V30 11982 N 1102.66 0.908147 1.28804 0
M  V30 11983 C 1103.91 0.539201 1.95501 0
M  V30 11984 C 1104.24 -0.913759 1.7136 0
M  V30 11985 O 1103.52 -1.64904 1.03136 0
M  V30 11986 C 1103.8 0.842372 3.50109 0
M  V30 11987 C 1103.65 2.34765 3.83673 0
M  V30 11988 C 1104.97 0.334658 4.38826 0
M  V30 11989 H 1102.09 0.197373 0.71008 0
M  V30 11990 H 1104.73 1.13637 1.52272 0
M  V30 11991 H 1102.88 0.334143 3.8706 0
M  V30 11992 H 1104.55 2.92607 3.56621 0
M  V30 11993 H 1102.8 2.80494 3.30916 0
M  V30 11994 H 1103.47 2.51034 4.91616 0
M  V30 11995 H 1105.94 0.769961 4.08914 0
M  V30 11996 H 1104.82 0.575914 5.4587 0
M  V30 11997 H 1105.08 -0.764878 4.35433 0
M  V30 11998 N 1104.14 -1.42577 0.671525 0
M  V30 11999 C 1105.07 -2.2915 -0.0477361 0
M  V30 12000 C 1106.09 -1.43503 -0.768805 0
M  V30 12001 O 1107.27 -1.67256 -0.623509 0
M  V30 12002 C 1104.37 -3.20851 -1.09122 0
M  V30 12003 C 1103.55 -4.35134 -0.44463 0
M  V30 12004 C 1102.61 -5.07579 -1.38745 0
M  V30 12005 O 1101.63 -5.62215 -0.889015 0
M  V30 12006 N 1102.83 -5.12786 -2.72086 0
M  V30 12007 H 1105.6 -2.9152 0.695415 0
M  V30 12008 H 1103.16 -1.53467 0.515689 0
M  V30 12009 H 1105.15 -3.66183 -1.72315 0
M  V30 12010 H 1103.72 -2.59956 -1.73614 0
M  V30 12011 H 1102.94 -3.9249 0.36675 0
M  V30 12012 H 1104.23 -5.088 0.00595927 0
M  V30 12013 H 1103.63 -4.69802 -3.15123 0
M  V30 12014 H 1102.19 -5.61774 -3.30535 0
M  V30 12015 N 1105.62 -0.414636 -1.52048 0
M  V30 12016 C 1106.57 0.408141 -2.27163 0
M  V30 12017 C 1107.54 1.03636 -1.29803 0
M  V30 12018 O 1108.72 1.05959 -1.58674 0
M  V30 12019 C 1105.86 1.51588 -3.10024 0
M  V30 12020 C 1104.97 0.908034 -4.22349 0
M  V30 12021 C 1104.11 1.98893 -4.9256 0
M  V30 12022 C 1103.15 1.35831 -5.96839 0
M  V30 12023 N 1102.28 2.37958 -6.60545 0
M  V30 12024 H 1107.12 -0.238822 -2.97041 0
M  V30 12025 H 1104.66 -0.129614 -1.46528 0
M  V30 12026 H 1106.62 2.16916 -3.56375 0
M  V30 12027 H 1105.25 2.13279 -2.42305 0
M  V30 12028 H 1104.3 0.143652 -3.80129 0
M  V30 12029 H 1105.61 0.407426 -4.97133 0
M  V30 12030 H 1104.77 2.71935 -5.42343 0
M  V30 12031 H 1103.51 2.5232 -4.17356 0
M  V30 12032 H 1102.51 0.613246 -5.46369 0
M  V30 12033 H 1103.74 0.831655 -6.73988 0
M  V30 12034 H 1101.68 2.90508 -5.88167 0
M  V30 12035 H 1101.6 1.92725 -7.31022 0
M  V30 12036 H 1102.87 3.10553 -7.14966 0
M  V30 12037 N 1107.1 1.56929 -0.145233 0
M  V30 12038 C 1108.06 2.15483 0.781002 0
M  V30 12039 C 1109.06 1.09617 1.17647 0
M  V30 12040 O 1110.25 1.35265 1.09768 0
M  V30 12041 C 1107.38 2.7165 2.05959 0
M  V30 12042 H 1108.57 2.98667 0.271685 0
M  V30 12043 H 1106.13 1.55952 0.1042 0
M  V30 12044 H 1106.86 1.92127 2.61262 0
M  V30 12045 H 1106.65 3.491 1.78526 0
M  V30 12046 H 1108.14 3.16769 2.72116 0
M  V30 12047 N 1108.58 -0.128553 1.57075 0
M  V30 12048 C 1109.54 -1.14215 1.98715 0
M  V30 12049 C 1110.54 -1.34843 0.876019 0
M  V30 12050 O 1111.73 -1.31522 1.14227 0
M  V30 12051 C 1108.86 -2.49865 2.31905 0
M  V30 12052 H 1110.05 -0.784481 2.89458 0
M  V30 12053 H 1107.61 -0.372531 1.51796 0
M  V30 12054 H 1108.34 -2.9057 1.44012 0
M  V30 12055 H 1108.13 -2.3625 3.12935 0
M  V30 12056 H 1109.62 -3.22832 2.64895 0
M  V30 12057 N 1110.05 -1.5248 -0.398459 0
M  V30 12058 C 1111 -1.72965 -1.4855 0
M  V30 12059 C 1111.99 -0.583628 -1.49942 0
M  V30 12060 O 1113.18 -0.841106 -1.55738 0
M  V30 12061 C 1110.31 -1.89339 -2.86366 0
M  V30 12062 C 1109.39 -3.09845 -2.8958 0
M  V30 12063 N 1109.79 -4.32365 -2.62477 0
M  V30 12064 C 1108.08 -3.09897 -3.20749 0
M  V30 12065 C 1108.78 -5.13908 -2.72532 0
M  V30 12066 N 1107.76 -4.49387 -3.05864 0
M  V30 12067 H 1111.56 -2.65327 -1.26406 0
M  V30 12068 H 1109.08 -1.50658 -0.606299 0
M  V30 12069 H 1111.07 -2.02134 -3.64619 0
M  V30 12070 H 1109.73 -0.981841 -3.095 0
M  V30 12071 H 1110.74 -4.60659 -2.36673 0
M  V30 12072 H 1107.42 -2.28518 -3.49408 0
M  V30 12073 H 1108.81 -6.21548 -2.55202 0
M  V30 12074 N 1111.53 0.65634 -1.43283 0
M  V30 12075 C 1112.78 1.41347 -1.44449 0
M  V30 12076 C 1113.1 1.94879 -0.0687217 0
M  V30 12077 O 1112.37 1.74235 0.895492 0
M  V30 12078 H 1110.95 0.524578 -0.531815 0
M  V30 12079 H 1113.61 0.774292 -1.7886 0
M  V30 12080 H 1112.71 2.25737 -2.15521 0
M  V30 12081 N 1113.01 1.29761 0.894412 0
M  V30 12082 C 1113.96 1.11962 1.98617 0
M  V30 12083 C 1114.94 0.0374952 1.60856 0
M  V30 12084 O 1116.14 0.259789 1.75083 0
M  V30 12085 C 1113.26 0.803708 3.3376 0
M  V30 12086 C 1112.35 1.92563 3.77863 0
M  V30 12087 N 1112.74 3.16983 3.94152 0
M  V30 12088 C 1111.04 1.81986 4.07182 0
M  V30 12089 C 1111.74 3.90212 4.31404 0
M  V30 12090 N 1110.72 3.18194 4.40742 0
M  V30 12091 H 1114.52 2.06339 2.09287 0
M  V30 12092 H 1112.03 1.20963 1.08359 0
M  V30 12093 H 1114.03 0.657223 4.11687 0
M  V30 12094 H 1112.69 -0.132098 3.24431 0
M  V30 12095 H 1113.7 3.52378 3.79539 0
M  V30 12096 H 1110.38 0.957112 4.06381 0
M  V30 12097 H 1111.77 4.97312 4.51808 0
M  V30 12098 N 1114.49 -1.10549 1.12324 0
M  V30 12099 C 1115.73 -1.82755 0.879117 0
M  V30 12100 C 1116.07 -1.84905 -0.593604 0
M  V30 12101 O 1115.34 -1.30884 -1.43873 0
M  V30 12102 C 1115.62 -3.29481 1.45308 0
M  V30 12103 C 1115.48 -3.3567 2.99408 0
M  V30 12104 C 1116.8 -4.25828 1.11167 0
M  V30 12105 H 1113.92 -0.663513 0.32081 0
M  V30 12106 H 1116.56 -1.29572 1.38965 0
M  V30 12107 H 1114.71 -3.74902 1.01887 0
M  V30 12108 H 1116.38 -2.98739 3.515 0
M  V30 12109 H 1114.62 -2.75606 3.34998 0
M  V30 12110 H 1115.29 -4.38983 3.34661 0
M  V30 12111 H 1117.77 -3.88635 1.48667 0
M  V30 12112 H 1116.65 -5.26857 1.53991 0
M  V30 12113 H 1116.91 -4.42094 0.0237046 0
M  V30 12114 N 1115.97 -0.914965 -1.28321 0
M  V30 12115 C 1117.38 -0.613297 -1.47346 0
M  V30 12116 C 1117.58 0.84106 -1.83108 0
M  V30 12117 O 1116.64 1.62004 -1.93678 0
M  V30 12118 C 1117.95 -1.55224 -2.57538 0
M  V30 12119 C 1119.5 -1.55909 -2.71407 0
M  V30 12120 C 1119.97 -2.48468 -3.84744 0
M  V30 12121 N 1121.46 -2.46602 -3.92099 0
M  V30 12122 C 1122.2 -3.14917 -4.79182 0
M  V30 12123 N 1121.7 -3.92566 -5.70845 0
M  V30 12124 N 1123.49 -3.03998 -4.72802 0
M  V30 12125 H 1115.64 -1.85539 -1.03388 0
M  V30 12126 H 1117.9 -0.795875 -0.515061 0
M  V30 12127 H 1117.61 -2.58917 -2.38023 0
M  V30 12128 H 1117.48 -1.28426 -3.54664 0
M  V30 12129 H 1119.87 -0.52953 -2.9031 0
M  V30 12130 H 1119.95 -1.86751 -1.74808 0
M  V30 12131 H 1119.59 -3.51526 -3.66595 0
M  V30 12132 H 1119.52 -2.14928 -4.80743 0
M  V30 12133 H 1122.02 -1.90199 -3.26547 0
M  V30 12134 H 1122.33 -4.41709 -6.34123 0
M  V30 12135 H 1120.67 -3.96671 -5.70681 0
M  V30 12136 H 1123.86 -2.42839 -4.00184 0
M  V30 12137 H 1124.04 -3.57511 -5.40454 0
M  V30 12138 N 1117.44 1.42219 -0.679077 0
M  V30 12139 C 1118.39 2.308 -0.00340316 0
M  V30 12140 C 1119.36 1.462 0.788334 0
M  V30 12141 O 1120.55 1.75023 0.759716 0
M  V30 12142 C 1117.69 3.32084 0.938854 0
M  V30 12143 C 1116.8 4.31772 0.140485 0
M  V30 12144 C 1115.93 5.20128 1.07888 0
M  V30 12145 C 1114.97 6.11493 0.27245 0
M  V30 12146 N 1114.11 6.92388 1.16378 0
M  V30 12147 H 1118.95 2.88024 -0.764587 0
M  V30 12148 H 1116.49 1.41869 -0.38878 0
M  V30 12149 H 1118.44 3.89339 1.49903 0
M  V30 12150 H 1117.07 2.76448 1.66662 0
M  V30 12151 H 1116.13 3.76599 -0.536376 0
M  V30 12152 H 1117.44 4.96432 -0.485433 0
M  V30 12153 H 1116.59 5.82137 1.70884 0
M  V30 12154 H 1115.33 4.55655 1.73868 0
M  V30 12155 H 1114.34 5.48549 -0.370693 0
M  V30 12156 H 1115.56 6.78017 -0.383315 0
M  V30 12157 H 1113.51 6.30538 1.8099 0
M  V30 12158 H 1113.42 7.5367 0.593043 0
M  V30 12159 H 1114.69 7.58879 1.78107 0
M  V30 12160 N 1118.92 0.422693 1.51826 0
M  V30 12161 C 1119.88 -0.384307 2.25955 0
M  V30 12162 C 1120.88 -0.962184 1.28836 0
M  V30 12163 O 1122.07 -0.838931 1.52668 0
M  V30 12164 C 1119.21 -1.54228 3.04018 0
M  V30 12165 H 1120.4 0.265157 2.98726 0
M  V30 12166 H 1117.95 0.175515 1.55311 0
M  V30 12167 H 1118.69 -2.22822 2.35629 0
M  V30 12168 H 1118.47 -1.13425 3.75336 0
M  V30 12169 H 1119.96 -2.1128 3.60209 0
M  V30 12170 N 1120.4 -1.5685 0.153553 0
M  V30 12171 C 1121.65 -1.96334 -0.495915 0
M  V30 12172 C 1121.97 -1.03873 -1.64441 0
M  V30 12173 O 1121.23 -0.069231 -1.95578 0
M  V30 12174 C 1121.53 -3.42022 -1.0371 0
M  V30 12175 C 1121.19 -4.509 -0.00637049 0
M  V30 12176 C 1119.86 -4.80402 0.276956 0
M  V30 12177 C 1122.21 -5.16556 0.694187 0
M  V30 12178 C 1119.54 -5.72866 1.26653 0
M  V30 12179 C 1121.89 -6.10087 1.67263 0
M  V30 12180 C 1120.55 -6.37965 1.96359 0
M  V30 12181 H 1119.82 -0.718436 -0.181468 0
M  V30 12182 H 1122.47 -1.89968 0.241768 0
M  V30 12183 H 1120.77 -3.45252 -1.85225 0
M  V30 12184 H 1122.47 -3.69903 -1.54831 0
M  V30 12185 H 1119.06 -4.27942 -0.237378 0
M  V30 12186 H 1123.25 -4.9389 0.488496 0
M  V30 12187 H 1118.5 -5.92756 1.49833 0
M  V30 12188 H 1122.68 -6.60036 2.22094 0
M  V30 12189 H 1120.3 -7.09416 2.73189 0
M  V30 12190 N 1121.88 0.120221 -1.57141 0
M  V30 12191 C 1122.82 1.14751 -2.00252 0
M  V30 12192 C 1123.79 1.41217 -0.874462 0
M  V30 12193 O 1124.98 1.53104 -1.13859 0
M  V30 12194 C 1122.12 2.46923 -2.41087 0
M  V30 12195 C 1121.23 2.27403 -3.67303 0
M  V30 12196 C 1120.37 3.52797 -3.97125 0
M  V30 12197 C 1119.41 3.28429 -5.16528 0
M  V30 12198 N 1118.54 4.46022 -5.42226 0
M  V30 12199 H 1123.38 0.772884 -2.87803 0
M  V30 12200 H 1120.92 0.370137 -1.42367 0
M  V30 12201 H 1122.88 3.24025 -2.62799 0
M  V30 12202 H 1121.51 2.82281 -1.5658 0
M  V30 12203 H 1120.56 1.41224 -3.53214 0
M  V30 12204 H 1121.87 2.05373 -4.54558 0
M  V30 12205 H 1121.03 4.38318 -4.19479 0
M  V30 12206 H 1119.77 3.77857 -3.08343 0
M  V30 12207 H 1118.77 2.41299 -4.94019 0
M  V30 12208 H 1120 3.0474 -6.06886 0
M  V30 12209 H 1117.94 4.71205 -4.56401 0
M  V30 12210 H 1117.86 4.27092 -6.23802 0
M  V30 12211 H 1119.13 5.3268 -5.69098 0
M  V30 12212 N 1123.36 1.52689 0.390367 0
M  V30 12213 C 1124.58 1.71839 1.16129 0
M  V30 12214 C 1125.01 0.435226 1.82996 0
M  V30 12215 O 1124.36 -0.60889 1.70769 0
M  V30 12216 C 1124.41 2.86784 2.18603 0
M  V30 12217 O 1123.52 2.53662 3.25161 0
M  V30 12218 H 1122.86 0.571455 0.338135 0
M  V30 12219 H 1125.39 1.99475 0.45508 0
M  V30 12220 H 1125.4 3.12239 2.62622 0
M  V30 12221 H 1124.07 3.79872 1.69322 0
M  V30 12222 H 1122.65 2.38942 2.86289 0
M  V30 12223 N 1124.83 -0.648732 1.43629 0
M  V30 12224 C 1125.78 -1.75473 1.45579 0
M  V30 12225 C 1126.77 -1.57611 0.323683 0
M  V30 12226 O 1127.96 -1.67646 0.56778 0
M  V30 12227 C 1125.09 -3.14083 1.38589 0
M  V30 12228 C 1124.18 -3.37477 2.56846 0
M  V30 12229 N 1124.57 -3.31322 3.82177 0
M  V30 12230 C 1122.86 -3.68212 2.51666 0
M  V30 12231 C 1123.57 -3.54921 4.60875 0
M  V30 12232 N 1122.54 -3.76951 3.91675 0
M  V30 12233 H 1126.34 -1.69146 2.40347 0
M  V30 12234 H 1123.86 -0.850566 1.38344 0
M  V30 12235 H 1125.85 -3.93374 1.38068 0
M  V30 12236 H 1124.51 -3.21588 0.448442 0
M  V30 12237 H 1125.53 -3.10633 4.144 0
M  V30 12238 H 1122.2 -3.82806 1.66631 0
M  V30 12239 H 1123.59 -3.55904 5.69897 0
M  V30 12240 N 1126.31 -1.30234 -0.887518 0
M  V30 12241 C 1127.56 -1.19086 -1.64153 0
M  V30 12242 C 1127.89 0.254428 -1.92526 0
M  V30 12243 O 1127.17 1.18233 -1.54438 0
M  V30 12244 C 1127.45 -2.01723 -2.98295 0
M  V30 12245 C 1127.3 -3.54458 -2.76911 0
M  V30 12246 C 1128.62 -1.85307 -3.99186 0
M  V30 12247 H 1125.74 -0.433967 -0.595686 0
M  V30 12248 H 1128.38 -1.59839 -1.0272 0
M  V30 12249 H 1126.53 -1.67096 -3.5073 0
M  V30 12250 H 1128.2 -3.99131 -2.31284 0
M  V30 12251 H 1126.45 -3.78768 -2.11464 0
M  V30 12252 H 1127.12 -4.07565 -3.72283 0
M  V30 12253 H 1129.59 -2.15575 -3.55903 0
M  V30 12254 H 1128.47 -2.45456 -4.90961 0
M  V30 12255 H 1128.73 -0.811528 -4.34588 0
M  V30 12256 N 1127.79 1.09952 -1.12909 0
M  V30 12257 C 1129.02 1.8633 -0.910821 0
M  V30 12258 C 1129.44 1.80335 0.534874 0
M  V30 12259 O 1128.8 1.1769 1.37908 0
M  V30 12260 C 1128.85 3.32462 -1.39648 0
M  V30 12261 O 1127.95 4.08327 -0.578192 0
M  V30 12262 H 1127.29 0.577984 -0.32685 0
M  V30 12263 H 1129.82 1.38883 -1.50242 0
M  V30 12264 H 1129.83 3.83311 -1.39774 0
M  V30 12265 H 1128.51 3.36141 -2.44913 0
M  V30 12266 H 1127.08 3.67291 -0.644347 0
M  V30 12267 N 1129.27 0.921757 1.27833 0
M  V30 12268 C 1130.5 0.575202 1.98744 0
M  V30 12269 C 1130.91 -0.845405 1.68815 0
M  V30 12270 O 1130.27 -1.56106 0.94536 0
M  V30 12271 C 1130.32 0.784389 3.52888 0
M  V30 12272 O 1130.04 2.1491 3.81766 0
M  V30 12273 C 1131.54 0.445744 4.41053 0
M  V30 12274 H 1128.76 0.218525 0.634419 0
M  V30 12275 H 1131.31 1.23715 1.62834 0
M  V30 12276 H 1129.46 0.169323 3.8703 0
M  V30 12277 H 1129.87 2.19469 4.76375 0
M  V30 12278 H 1131.35 0.64284 5.48244 0
M  V30 12279 H 1131.83 -0.618433 4.34824 0
M  V30 12280 H 1132.43 1.03869 4.12421 0
M  V30 12281 N 1130.75 -1.41857 0.686609 0
M  V30 12282 C 1131.68 -2.33481 0.0298353 0
M  V30 12283 C 1132.66 -1.51329 -0.776756 0
M  V30 12284 O 1133.84 -1.79895 -0.731535 0
M  V30 12285 C 1130.97 -3.35065 -0.913707 0
M  V30 12286 C 1129.93 -4.2746 -0.214861 0
M  V30 12287 C 1129.25 -5.19346 -1.27215 0
M  V30 12288 C 1130.55 -5.14252 0.913367 0
M  V30 12289 H 1132.25 -2.8865 0.795067 0
M  V30 12290 H 1129.79 -1.38792 0.383785 0
M  V30 12291 H 1131.75 -3.98082 -1.38234 0
M  V30 12292 H 1130.47 -2.78226 -1.7105 0
M  V30 12293 H 1129.13 -3.65855 0.233651 0
M  V30 12294 H 1128.78 -4.58827 -2.06124 0
M  V30 12295 H 1128.48 -5.81996 -0.80961 0
M  V30 12296 H 1130 -5.85239 -1.74147 0
M  V30 12297 H 1131.41 -5.70887 0.525424 0
M  V30 12298 H 1129.81 -5.85796 1.30244 0
M  V30 12299 H 1130.88 -4.51949 1.75699 0
M  V30 12300 N 1132.22 -0.430739 -1.51599 0
M  V30 12301 C 1133.45 0.136797 -2.06447 0
M  V30 12302 C 1133.87 1.37027 -1.29881 0
M  V30 12303 O 1133.22 1.78983 -0.356543 0
M  V30 12304 C 1133.28 0.465637 -3.58489 0
M  V30 12305 O 1133 -0.718873 -4.32162 0
M  V30 12306 C 1134.5 1.08456 -4.29828 0
M  V30 12307 H 1131.72 0.0108468 -0.670912 0
M  V30 12308 H 1134.26 -0.607921 -1.95255 0
M  V30 12309 H 1132.42 1.16025 -3.69617 0
M  V30 12310 H 1132.83 -0.439195 -5.22658 0
M  V30 12311 H 1134.3 1.2647 -5.37317 0
M  V30 12312 H 1134.78 2.06376 -3.87693 0
M  V30 12313 H 1135.39 0.429525 -4.23125 0
M  V30 12314 N 1133.7 1.56767 -0.161869 0
M  V30 12315 C 1134.98 1.88245 0.531352 0
M  V30 12316 C 1135.36 1.07025 1.81958 0
M  V30 12317 O 1134.71 0.161385 2.27929 0
M  V30 12318 C 1134.92 3.40117 0.782416 0
M  V30 12319 C 1136.27 4.09655 1.11661 0
M  V30 12320 O 1137.29 3.4538 0.871274 0
M  V30 12321 O 1136.15 5.23192 1.57901 0
M  V30 12322 H 1133.24 0.780725 0.272759 0
M  V30 12323 H 1135.79 1.68522 -0.199597 0
M  V30 12324 H 1134.56 3.91088 -0.128677 0
M  V30 12325 H 1134.18 3.65418 1.56702 0
M  V30 12326 N 1135.18 -0.111886 1.57202 0
M  V30 12327 C 1136.11 -1.13796 2.03894 0
M  V30 12328 C 1137.09 -1.4277 0.924696 0
M  V30 12329 O 1138.28 -1.53089 1.19488 0
M  V30 12330 C 1135.41 -2.46229 2.44925 0
M  V30 12331 C 1134.36 -2.31702 3.59859 0
M  V30 12332 C 1133.69 -3.69161 3.86813 0
M  V30 12333 C 1134.99 -1.77158 4.91337 0
M  V30 12334 H 1136.68 -0.749581 2.89865 0
M  V30 12335 H 1134.23 -0.359126 1.3945 0
M  V30 12336 H 1136.18 -3.18267 2.76195 0
M  V30 12337 H 1134.9 -2.86971 1.55933 0
M  V30 12338 H 1133.56 -1.62112 3.28809 0
M  V30 12339 H 1133.21 -4.07401 2.95015 0
M  V30 12340 H 1132.91 -3.60292 4.6418 0
M  V30 12341 H 1134.43 -4.42693 4.20542 0
M  V30 12342 H 1135.85 -2.3902 5.21097 0
M  V30 12343 H 1134.25 -1.79091 5.72753 0
M  V30 12344 H 1135.32 -0.729675 4.79379 0
M  V30 12345 N 1136.66 -1.52894 -0.382264 0
M  V30 12346 C 1137.59 -1.74413 -1.48703 0
M  V30 12347 C 1138.6 -0.624663 -1.50339 0
M  V30 12348 O 1139.79 -0.900527 -1.54119 0
M  V30 12349 C 1136.89 -1.79387 -2.8753 0
M  V30 12350 C 1136.07 -3.08794 -3.09783 0
M  V30 12351 C 1135.12 -3.05226 -4.2863 0
M  V30 12352 O 1134.15 -3.79073 -4.24609 0
M  V30 12353 N 1135.35 -2.2488 -5.35172 0
M  V30 12354 H 1138.12 -2.69734 -1.30628 0
M  V30 12355 H 1135.68 -1.51465 -0.571842 0
M  V30 12356 H 1137.67 -1.74498 -3.65147 0
M  V30 12357 H 1136.24 -0.914233 -2.98932 0
M  V30 12358 H 1135.46 -3.27118 -2.19971 0
M  V30 12359 H 1136.75 -3.94347 -3.21509 0
M  V30 12360 H 1136.15 -1.64363 -5.41296 0
M  V30 12361 H 1134.7 -2.25825 -6.1143 0
M  V30 12362 N 1138.14 0.641106 -1.43971 0
M  V30 12363 C 1139.55 1.22254 -1.41106 0
M  V30 12364 C 1139.9 1.95825 -0.121284 0
M  V30 12365 O 1139.02 2.01901 0.77879 0
M  V30 12366 C 1139.62 2.22364 -2.55617 0
M  V30 12367 C 1138.18 2.75957 -2.55978 0
M  V30 12368 C 1137.33 1.50792 -2.32717 0
M  V30 12369 H 1140.28 0.432381 -1.52696 0
M  V30 12370 H 1140.3 3.04775 -2.27799 0
M  V30 12371 H 1139.81 1.68789 -3.49474 0
M  V30 12372 H 1137.91 3.33562 -1.66034 0
M  V30 12373 H 1138.02 3.22676 -3.54142 0
M  V30 12374 H 1136.39 1.7857 -1.81617 0
M  V30 12375 H 1137.17 0.991343 -3.28675 0
M  V30 12376 N 1139.62 1.30703 0.880598 0
M  V30 12377 C 1140.85 1.22536 1.66339 0
M  V30 12378 C 1141.25 -0.213507 1.87991 0
M  V30 12379 O 1140.6 -1.15236 1.43061 0
M  V30 12380 C 1140.66 1.88798 3.05934 0
M  V30 12381 C 1140.32 3.38131 3.07435 0
M  V30 12382 C 1141.32 4.34053 2.86171 0
M  V30 12383 C 1139 3.79651 3.28893 0
M  V30 12384 C 1141 5.69469 2.86328 0
M  V30 12385 C 1138.69 5.15182 3.2868 0
M  V30 12386 C 1139.68 6.09902 3.07423 0
M  V30 12387 O 1139.37 7.42957 3.07034 0
M  V30 12388 H 1139.1 0.425018 0.525677 0
M  V30 12389 H 1141.66 1.72939 1.1082 0
M  V30 12390 H 1139.89 1.3293 3.63134 0
M  V30 12391 H 1141.58 1.74691 3.66385 0
M  V30 12392 H 1142.34 4.03307 2.69385 0
M  V30 12393 H 1138.22 3.06365 3.44473 0
M  V30 12394 H 1141.77 6.43375 2.69655 0
M  V30 12395 H 1137.66 5.45567 3.45002 0
M  V30 12396 H 1138.43 7.52 3.23169 0
M  V30 12397 N 1141.09 -1.09351 1.1349 0
M  V30 12398 C 1142.03 -2.15291 0.756645 0
M  V30 12399 C 1143 -1.60548 -0.257497 0
M  V30 12400 O 1144.19 -1.87912 -0.14882 0
M  V30 12401 C 1141.32 -3.38481 0.121799 0
M  V30 12402 C 1140.36 -4.11949 1.10456 0
M  V30 12403 S 1141.19 -4.6605 2.63738 0
M  V30 12404 C 1142.35 -5.92539 2.01615 0
M  V30 12405 H 1142.58 -2.47044 1.65398 0
M  V30 12406 H 1140.12 -1.21312 0.955129 0
M  V30 12407 H 1142.07 -4.09809 -0.238086 0
M  V30 12408 H 1140.74 -3.04945 -0.752821 0
M  V30 12409 H 1139.93 -5.00317 0.608195 0
M  V30 12410 H 1139.53 -3.46486 1.40795 0
M  V30 12411 H 1141.82 -6.63593 1.36569 0
M  V30 12412 H 1142.77 -6.46856 2.88068 0
M  V30 12413 H 1143.17 -5.45094 1.46741 0
M  V30 12414 N 1142.57 -0.928524 -1.27343 0
M  V30 12415 C 1143.99 -0.62889 -1.46687 0
M  V30 12416 C 1144.19 0.821592 -1.83989 0
M  V30 12417 O 1143.24 1.59941 -1.95385 0
M  V30 12418 C 1144.56 -1.57947 -2.55878 0
M  V30 12419 C 1146.1 -1.58778 -2.69738 0
M  V30 12420 C 1146.58 -2.52535 -3.82087 0
M  V30 12421 N 1148.07 -2.50747 -3.89462 0
M  V30 12422 C 1148.81 -3.19981 -4.75814 0
M  V30 12423 N 1148.3 -3.98598 -5.66649 0
M  V30 12424 N 1150.09 -3.08996 -4.69551 0
M  V30 12425 H 1142.25 -1.86625 -1.01414 0
M  V30 12426 H 1144.51 -0.801293 -0.50659 0
M  V30 12427 H 1144.21 -2.61427 -2.35264 0
M  V30 12428 H 1144.09 -1.3218 -3.53282 0
M  V30 12429 H 1146.48 -0.560292 -2.89732 0
M  V30 12430 H 1146.56 -1.88594 -1.72817 0
M  V30 12431 H 1146.2 -3.55395 -3.62846 0
M  V30 12432 H 1146.13 -2.20015 -4.78436 0
M  V30 12433 H 1148.62 -1.93651 -3.24511 0
M  V30 12434 H 1148.93 -4.4841 -6.29403 0
M  V30 12435 H 1147.28 -4.02701 -5.66442 0
M  V30 12436 H 1150.47 -2.4707 -3.97585 0
M  V30 12437 H 1150.64 -3.63223 -5.36631 0
M  V30 12438 N 1144.05 1.41491 -0.694123 0
M  V30 12439 C 1144.98 2.29197 0.0112742 0
M  V30 12440 C 1145.99 1.44708 0.745877 0
M  V30 12441 O 1147.18 1.68227 0.596821 0
M  V30 12442 C 1144.28 3.22547 1.04004 0
M  V30 12443 C 1143.46 4.35787 0.375347 0
M  V30 12444 C 1142.52 5.09722 1.30652 0
M  V30 12445 O 1141.54 5.63558 0.799459 0
M  V30 12446 N 1142.74 5.1705 2.63893 0
M  V30 12447 H 1145.51 2.90377 -0.741705 0
M  V30 12448 H 1143.07 1.52628 -0.540039 0
M  V30 12449 H 1145.06 3.68878 1.66468 0
M  V30 12450 H 1143.63 2.62685 1.69456 0
M  V30 12451 H 1142.85 3.91857 -0.429145 0
M  V30 12452 H 1144.14 5.08726 -0.0869041 0
M  V30 12453 H 1143.54 4.74756 3.07609 0
M  V30 12454 H 1142.09 5.66962 3.21555 0
M  V30 12455 N 1145.53 0.438773 1.51369 0
M  V30 12456 C 1146.77 -0.127213 2.021 0
M  V30 12457 C 1147.1 -1.42587 1.32284 0
M  V30 12458 O 1146.36 -1.90986 0.426949 0
M  V30 12459 C 1146.66 -0.39186 3.55245 0
M  V30 12460 C 1146.32 0.821158 4.4336 0
M  V30 12461 C 1144.98 1.15381 4.67162 0
M  V30 12462 C 1147.34 1.6303 4.95046 0
M  V30 12463 C 1144.66 2.29626 5.39897 0
M  V30 12464 C 1147.02 2.76376 5.69033 0
M  V30 12465 C 1145.68 3.10094 5.91099 0
M  V30 12466 H 1144.95 -0.0465505 0.739536 0
M  V30 12467 H 1147.6 0.586261 1.82305 0
M  V30 12468 H 1145.9 -1.18724 3.73379 0
M  V30 12469 H 1147.6 -0.843228 3.92034 0
M  V30 12470 H 1144.19 0.551946 4.25031 0
M  V30 12471 H 1148.37 1.38651 4.76539 0
M  V30 12472 H 1143.63 2.56062 5.55196 0
M  V30 12473 H 1147.8 3.39442 6.08072 0
M  V30 12474 H 1145.43 3.98731 6.47238 0
M  V30 12475 N 1147.01 -1.56678 0.170181 0
M  V30 12476 C 1148.25 -1.9714 -0.475767 0
M  V30 12477 C 1148.58 -1.05611 -1.62972 0
M  V30 12478 O 1147.86 -0.103017 -1.94227 0
M  V30 12479 C 1148.14 -3.47072 -0.959828 0
M  V30 12480 C 1148 -4.4938 0.194225 0
M  V30 12481 C 1149.31 -4.00071 -1.83387 0
M  V30 12482 H 1146.43 -0.716776 -0.171466 0
M  V30 12483 H 1149.08 -1.88266 0.256086 0
M  V30 12484 H 1147.23 -3.54766 -1.58346 0
M  V30 12485 H 1148.9 -4.53748 0.83128 0
M  V30 12486 H 1147.14 -4.25393 0.849893 0
M  V30 12487 H 1147.81 -5.51685 -0.186575 0
M  V30 12488 H 1150.29 -3.95002 -1.30815 0
M  V30 12489 H 1149.16 -5.05398 -2.14159 0
M  V30 12490 H 1149.42 -3.43819 -2.77923 0
M  V30 12491 N 1148.48 0.103547 -1.57259 0
M  V30 12492 C 1149.45 1.11039 -2.00507 0
M  V30 12493 C 1150.45 1.33432 -0.897361 0
M  V30 12494 O 1151.64 1.29688 -1.16304 0
M  V30 12495 C 1148.77 2.46144 -2.35851 0
M  V30 12496 H 1149.96 0.738332 -2.90669 0
M  V30 12497 H 1147.51 0.348334 -1.52369 0
M  V30 12498 H 1148.25 2.88242 -1.48617 0
M  V30 12499 H 1148.03 2.31241 -3.16654 0
M  V30 12500 H 1149.52 3.18577 -2.69997 0
M  V30 12501 N 1149.96 1.53094 0.37415 0
M  V30 12502 C 1150.91 1.75307 1.45779 0
M  V30 12503 C 1151.9 0.607409 1.48994 0
M  V30 12504 O 1153.09 0.865777 1.5438 0
M  V30 12505 C 1150.22 1.93871 2.83318 0
M  V30 12506 C 1149.3 3.14413 2.84614 0
M  V30 12507 N 1149.69 4.36486 2.55565 0
M  V30 12508 C 1147.99 3.14961 3.15778 0
M  V30 12509 C 1148.69 5.18178 2.64322 0
M  V30 12510 N 1147.67 4.54196 2.98675 0
M  V30 12511 H 1151.47 2.67305 1.22169 0
M  V30 12512 H 1148.98 1.51603 0.582254 0
M  V30 12513 H 1150.98 2.0791 3.61357 0
M  V30 12514 H 1149.64 1.03096 3.07898 0
M  V30 12515 H 1150.65 4.64366 2.29314 0
M  V30 12516 H 1147.33 2.34048 3.45728 0
M  V30 12517 H 1148.72 6.25529 2.45282 0
M  V30 12518 N 1151.44 -0.633461 1.44309 0
M  V30 12519 C 1152.37 -1.75676 1.53819 0
M  V30 12520 C 1153.35 -1.65537 0.391365 0
M  V30 12521 O 1154.54 -1.84332 0.611181 0
M  V30 12522 C 1151.67 -3.14197 1.47979 0
M  V30 12523 C 1150.62 -3.39122 2.61113 0
M  V30 12524 C 1149.95 -4.77648 2.40325 0
M  V30 12525 C 1151.25 -3.31914 4.03274 0
M  V30 12526 H 1152.94 -1.67974 2.47841 0
M  V30 12527 H 1150.49 -0.8067 1.19283 0
M  V30 12528 H 1152.44 -3.92553 1.53233 0
M  V30 12529 H 1151.16 -3.22677 0.504718 0
M  V30 12530 H 1149.82 -2.63145 2.55245 0
M  V30 12531 H 1149.47 -4.82829 1.41016 0
M  V30 12532 H 1149.17 -4.95284 3.16177 0
M  V30 12533 H 1150.69 -5.58237 2.47394 0
M  V30 12534 H 1152.11 -4.00178 4.10524 0
M  V30 12535 H 1150.5 -3.61085 4.7931 0
M  V30 12536 H 1151.57 -2.29761 4.2701 0
M  V30 12537 N 1152.92 -1.31168 -0.873655 0
M  V30 12538 C 1153.85 -1.14325 -1.98651 0
M  V30 12539 C 1154.86 -0.0833421 -1.62587 0
M  V30 12540 O 1156.05 -0.330477 -1.75414 0
M  V30 12541 C 1153.15 -0.723747 -3.31082 0
M  V30 12542 C 1152.33 -1.86787 -3.95512 0
M  V30 12543 C 1151.38 -1.43503 -5.06254 0
M  V30 12544 O 1150.41 -2.14409 -5.27273 0
M  V30 12545 N 1151.61 -0.320362 -5.79615 0
M  V30 12546 H 1154.38 -2.10179 -2.13647 0
M  V30 12547 H 1151.94 -1.23454 -1.04742 0
M  V30 12548 H 1153.93 -0.416971 -4.02546 0
M  V30 12549 H 1152.5 0.143073 -3.12272 0
M  V30 12550 H 1151.72 -2.34216 -3.17075 0
M  V30 12551 H 1153.01 -2.6343 -4.35296 0
M  V30 12552 H 1152.41 0.270215 -5.65054 0
M  V30 12553 H 1150.96 -0.0731 -6.51759 0
M  V30 12554 N 1154.4 1.08748 -1.14068 0
M  V30 12555 C 1155.31 2.19123 -0.837998 0
M  V30 12556 C 1156.32 1.73065 0.180164 0
M  V30 12557 O 1157.5 2.01398 0.00952285 0
M  V30 12558 C 1154.56 3.45257 -0.316 0
M  V30 12559 C 1153.62 4.05959 -1.39628 0
M  V30 12560 C 1152.86 5.26072 -0.899095 0
M  V30 12561 O 1153.08 5.69804 0.260744 0
M  V30 12562 O 1152.01 5.7808 -1.67652 0
M  V30 12563 H 1155.84 2.4748 -1.76033 0
M  V30 12564 H 1153.43 1.17816 -0.918675 0
M  V30 12565 H 1155.31 4.21389 -0.0306425 0
M  V30 12566 H 1153.98 3.18486 0.578654 0
M  V30 12567 H 1152.89 3.31432 -1.73505 0
M  V30 12568 H 1154.22 4.36971 -2.26533 0
M  V30 12569 N 1155.87 0.935264 1.26849 0
M  V30 12570 C 1157.1 0.596249 1.98122 0
M  V30 12571 C 1157.52 -0.827452 1.69702 0
M  V30 12572 O 1156.87 -1.55095 0.961864 0
M  V30 12573 C 1156.93 0.821773 3.52036 0
M  V30 12574 O 1156.65 2.18947 3.79465 0
M  V30 12575 C 1158.15 0.492498 4.40556 0
M  V30 12576 H 1155.37 0.225242 0.632066 0
M  V30 12577 H 1157.91 1.25435 1.61512 0
M  V30 12578 H 1156.07 0.210363 3.86828 0
M  V30 12579 H 1156.48 2.24509 4.74021 0
M  V30 12580 H 1157.95 0.700953 5.47531 0
M  V30 12581 H 1158.43 -0.57228 4.35456 0
M  V30 12582 H 1159.04 1.08238 4.11296 0
M  V30 12583 N 1157.35 -1.41121 0.701616 0
M  V30 12584 C 1158.58 -2.05973 0.242896 0
M  V30 12585 C 1159 -1.52474 -1.10151 0
M  V30 12586 O 1158.36 -0.654224 -1.69085 0
M  V30 12587 C 1158.41 -3.59943 0.217614 0
M  V30 12588 O 1157.51 -4.04454 -0.805629 0
M  V30 12589 H 1156.85 -0.653581 0.117166 0
M  V30 12590 H 1159.38 -1.80777 0.958175 0
M  V30 12591 H 1159.39 -4.07969 0.0505267 0
M  V30 12592 H 1158.07 -3.98249 1.19877 0
M  V30 12593 H 1156.65 -3.6792 -0.607404 0
M  V30 12594 N 1158.83 -0.446794 -1.51134 0
M  V30 12595 C 1160.24 0.0141132 -1.86695 0
M  V30 12596 C 1160.59 1.41095 -1.36333 0
M  V30 12597 O 1159.72 2.04139 -0.718068 0
M  V30 12598 C 1160.31 0.0323866 -3.38785 0
M  V30 12599 C 1158.87 0.437737 -3.73846 0
M  V30 12600 C 1158.02 -0.363436 -2.74908 0
M  V30 12601 H 1160.97 -0.66221 -1.44224 0
M  V30 12602 H 1160.99 0.839865 -3.71115 0
M  V30 12603 H 1160.5 -0.984374 -3.75409 0
M  V30 12604 H 1158.6 1.45975 -3.42815 0
M  V30 12605 H 1158.72 0.155964 -4.78846 0
M  V30 12606 H 1157.08 0.179566 -2.54066 0
M  V30 12607 H 1157.86 -1.37925 -3.14375 0
M  V30 12608 N 1160.31 1.56586 -0.178487 0
M  V30 12609 C 1161.24 2.21313 0.744486 0
M  V30 12610 C 1162.22 1.17098 1.23377 0
M  V30 12611 O 1163.4 1.45551 1.28563 0
M  V30 12612 C 1160.53 2.8595 1.97103 0
M  V30 12613 C 1159.49 3.96266 1.61732 0
M  V30 12614 C 1158.81 4.47987 2.91911 0
M  V30 12615 C 1160.11 5.15503 0.839868 0
M  V30 12616 H 1161.81 2.98698 0.204938 0
M  V30 12617 H 1159.35 1.43672 0.0971306 0
M  V30 12618 H 1161.31 3.29909 2.6218 0
M  V30 12619 H 1160.03 2.05946 2.53484 0
M  V30 12620 H 1158.69 3.52974 0.990208 0
M  V30 12621 H 1158.34 3.64765 3.46346 0
M  V30 12622 H 1158.04 5.22413 2.68995 0
M  V30 12623 H 1159.56 4.94637 3.58004 0
M  V30 12624 H 1160.98 5.5611 1.39337 0
M  V30 12625 H 1159.37 5.95891 0.709473 0
M  V30 12626 H 1160.44 4.84628 -0.162396 0
M  V30 12627 N 1161.79 -0.095206 1.57312 0
M  V30 12628 C 1163.2 -0.449411 1.53142 0
M  V30 12629 C 1163.4 -1.80523 0.895187 0
M  V30 12630 O 1162.46 -2.47746 0.487649 0
M  V30 12631 C 1163.77 -0.412002 2.97864 0
M  V30 12632 C 1165.32 -0.493866 3.09079 0
M  V30 12633 C 1165.79 -0.486606 4.55408 0
M  V30 12634 N 1167.29 -0.547363 4.59955 0
M  V30 12635 C 1168.02 -0.563582 5.70624 0
M  V30 12636 N 1167.52 -0.536015 6.90723 0
M  V30 12637 N 1169.31 -0.608385 5.58798 0
M  V30 12638 H 1161.46 0.792869 1.97047 0
M  V30 12639 H 1163.72 0.295106 0.900898 0
M  V30 12640 H 1163.43 0.517064 3.47878 0
M  V30 12641 H 1163.3 -1.23102 3.56547 0
M  V30 12642 H 1165.69 -1.41335 2.59053 0
M  V30 12643 H 1165.77 0.353286 2.53349 0
M  V30 12644 H 1165.42 0.428935 5.06086 0
M  V30 12645 H 1165.35 -1.35097 5.08976 0
M  V30 12646 H 1167.84 -0.573867 3.73517 0
M  V30 12647 H 1168.15 -0.551671 7.70828 0
M  V30 12648 H 1166.49 -0.503064 6.93177 0
M  V30 12649 H 1169.69 -0.627451 4.63876 0
M  V30 12650 H 1169.86 -0.617556 6.45051 0
M  V30 12651 N 1163.26 -1.53291 -0.366026 0
M  V30 12652 C 1164.54 -1.60055 -1.12436 0
M  V30 12653 C 1164.92 -0.407811 -2.07123 0
M  V30 12654 O 1164.27 0.601977 -2.20428 0
M  V30 12655 C 1164.48 -2.95062 -1.86385 0
M  V30 12656 C 1165.83 -3.49623 -2.40934 0
M  V30 12657 O 1166.85 -2.97088 -1.96512 0
M  V30 12658 O 1165.71 -4.41461 -3.2214 0
M  V30 12659 H 1162.8 -0.646476 -0.51575 0
M  V30 12660 H 1165.35 -1.65632 -0.369326 0
M  V30 12661 H 1164.12 -3.73312 -1.17277 0
M  V30 12662 H 1163.75 -2.92973 -2.68798 0
M  V30 12663 N 1164.74 0.6258 -1.44643 0
M  V30 12664 C 1165.71 1.71941 -1.51555 0
M  V30 12665 C 1166.71 1.55822 -0.396988 0
M  V30 12666 O 1167.9 1.61221 -0.65981 0
M  V30 12667 C 1165.03 3.11068 -1.39461 0
M  V30 12668 H 1166.22 1.67185 -2.48976 0
M  V30 12669 H 1163.77 0.839934 -1.31814 0
M  V30 12670 H 1164.51 3.21416 -0.431534 0
M  V30 12671 H 1164.29 3.24175 -2.20574 0
M  V30 12672 H 1165.78 3.90762 -1.4729 0
M  V30 12673 N 1166.22 1.31629 0.866686 0
M  V30 12674 C 1167.47 1.21683 1.62238 0
M  V30 12675 C 1167.8 -0.223767 1.92907 0
M  V30 12676 O 1167.07 -1.15761 1.563 0
M  V30 12677 C 1167.36 2.06443 2.95048 0
M  V30 12678 C 1167.21 3.58818 2.71237 0
M  V30 12679 C 1168.53 1.91634 3.96187 0
M  V30 12680 H 1165.65 0.443389 0.588707 0
M  V30 12681 H 1168.29 1.61453 1.00164 0
M  V30 12682 H 1166.44 1.72654 3.48027 0
M  V30 12683 H 1168.11 4.0276 2.24905 0
M  V30 12684 H 1166.36 3.82085 2.05411 0
M  V30 12685 H 1167.03 4.13436 3.65752 0
M  V30 12686 H 1169.5 2.21209 3.52428 0
M  V30 12687 H 1168.38 2.53236 4.86993 0
M  V30 12688 H 1168.64 0.880564 4.33242 0
M  V30 12689 N 1167.7 -1.08142 1.14644 0
M  V30 12690 C 1168.95 -1.80849 0.917685 0
M  V30 12691 C 1169.28 -1.86123 -0.554249 0
M  V30 12692 O 1168.55 -1.33907 -1.41065 0
M  V30 12693 C 1168.84 -3.26325 1.52264 0
M  V30 12694 C 1168.69 -3.29244 3.06461 0
M  V30 12695 C 1170.01 -4.23375 1.20175 0
M  V30 12696 H 1167.13 -0.656559 0.334812 0
M  V30 12697 H 1169.77 -1.26595 1.41682 0
M  V30 12698 H 1167.92 -3.72656 1.09817 0
M  V30 12699 H 1169.59 -2.91216 3.57758 0
M  V30 12700 H 1167.83 -2.68438 3.40769 0
M  V30 12701 H 1168.51 -4.31785 3.43897 0
M  V30 12702 H 1170.98 -3.85394 1.56877 0
M  V30 12703 H 1169.86 -5.23472 1.65132 0
M  V30 12704 H 1170.12 -4.41944 0.117474 0
M  V30 12705 N 1169.18 -0.941978 -1.26351 0
M  V30 12706 C 1170.43 -0.585711 -1.93009 0
M  V30 12707 C 1170.74 0.879507 -1.74711 0
M  V30 12708 O 1171.95 1.34518 -2.35833 0
M  V30 12709 C 1170.4 -0.996787 -3.45821 0
M  V30 12710 C 1170.01 -2.48367 -3.72851 0
M  V30 12711 C 1171.75 -0.712452 -4.18479 0
M  V30 12712 C 1169.66 -2.83341 -5.19107 0
M  V30 12713 H 1168.59 -0.215342 -0.722595 0
M  V30 12714 H 1171.24 -1.14472 -1.43417 0
M  V30 12715 H 1169.62 -0.366295 -3.94302 0
M  V30 12716 H 1170.8 -3.16328 -3.35072 0
M  V30 12717 H 1169.11 -2.74139 -3.13427 0
M  V30 12718 H 1171.71 -0.95007 -5.26192 0
M  V30 12719 H 1172.05 0.350811 -4.14819 0
M  V30 12720 H 1172.59 -1.3027 -3.75865 0
M  V30 12721 H 1169.32 -3.88633 -5.27868 0
M  V30 12722 H 1168.84 -2.20043 -5.5798 0
M  V30 12723 H 1170.52 -2.71849 -5.87118 0
M  V30 12724 N 1170.66 1.40747 -0.709091 0
M  V30 12725 C 1171.57 2.3454 -0.0532205 0
M  V30 12726 C 1172.58 1.56956 0.751057 0
M  V30 12727 O 1173.76 1.89375 0.685509 0
M  V30 12728 C 1170.82 3.35809 0.862157 0
M  V30 12729 C 1169.88 4.29273 0.0485632 0
M  V30 12730 C 1169.12 5.25705 0.920345 0
M  V30 12731 O 1169.34 5.27933 2.15969 0
M  V30 12732 O 1168.27 6.00806 0.3628 0
M  V30 12733 H 1172.1 2.92232 -0.826698 0
M  V30 12734 H 1169.68 1.4183 -0.469519 0
M  V30 12735 H 1171.57 3.97931 1.38668 0
M  V30 12736 H 1170.24 2.8054 1.61489 0
M  V30 12737 H 1169.15 3.70456 -0.520873 0
M  V30 12738 H 1170.48 4.87676 -0.665807 0
M  V30 12739 N 1172.13 0.454803 1.50895 0
M  V30 12740 C 1173.07 -0.383826 2.25963 0
M  V30 12741 C 1174.08 -0.971263 1.30653 0
M  V30 12742 O 1175.27 -0.862434 1.56283 0
M  V30 12743 C 1172.37 -1.55069 3.01342 0
M  V30 12744 C 1171.54 -1.07899 4.23883 0
M  V30 12745 C 1170.6 -2.118 4.81692 0
M  V30 12746 O 1169.63 -1.70523 5.43057 0
M  V30 12747 N 1170.83 -3.44459 4.67256 0
M  V30 12748 H 1173.59 0.259646 2.98573 0
M  V30 12749 H 1171.15 0.284661 1.59378 0
M  V30 12750 H 1173.15 -2.24236 3.36898 0
M  V30 12751 H 1171.72 -2.09917 2.31633 0
M  V30 12752 H 1170.94 -0.213773 3.9362 0
M  V30 12753 H 1172.22 -0.741501 5.03368 0
M  V30 12754 H 1171.62 -3.80716 4.18416 0
M  V30 12755 H 1170.18 -4.0947 5.07127 0
M  V30 12756 N 1173.61 -1.56489 0.186789 0
M  V30 12757 C 1174.84 -2.02163 -0.463126 0
M  V30 12758 C 1175.26 -1.06612 -1.54969 0
M  V30 12759 O 1174.62 -0.0482139 -1.81236 0
M  V30 12760 C 1174.67 -3.46337 -1.00416 0
M  V30 12761 O 1173.77 -3.53889 -2.11747 0
M  V30 12762 H 1173.11 -0.65496 -0.109194 0
M  V30 12763 H 1175.64 -2.02459 0.295227 0
M  V30 12764 H 1175.65 -3.85959 -1.32287 0
M  V30 12765 H 1174.33 -4.15376 -0.208693 0
M  V30 12766 H 1172.9 -3.26136 -1.80803 0
M  V30 12767 N 1175.09 0.086862 -1.5736 0
M  V30 12768 C 1176.31 0.806017 -1.91097 0
M  V30 12769 C 1176.74 1.71082 -0.78183 0
M  V30 12770 O 1176.1 1.79335 0.266175 0
M  V30 12771 C 1176.15 1.5884 -3.23732 0
M  V30 12772 O 1175.25 2.69798 -3.11902 0
M  V30 12773 H 1174.59 0.220899 -0.626179 0
M  V30 12774 H 1177.12 0.059619 -2.04513 0
M  V30 12775 H 1177.13 1.97088 -3.5724 0
M  V30 12776 H 1175.81 0.924426 -4.05496 0
M  V30 12777 H 1174.38 2.34519 -2.89923 0
M  V30 12778 N 1176.57 1.53483 0.357892 0
M  V30 12779 C 1177.79 1.74264 1.12458 0
M  V30 12780 C 1178.22 0.473944 1.82031 0
M  V30 12781 O 1177.58 -0.57253 1.72023 0
M  V30 12782 C 1177.62 2.91356 2.12471 0
M  V30 12783 O 1176.73 2.60502 3.19707 0
M  V30 12784 H 1176.07 0.578499 0.325937 0
M  V30 12785 H 1178.6 2.00395 0.412666 0
M  V30 12786 H 1178.61 3.1774 2.5594 0
M  V30 12787 H 1177.28 3.83378 1.61226 0
M  V30 12788 H 1175.86 2.44961 2.81156 0
M  V30 12789 N 1178.05 -0.61812 1.44973 0
M  V30 12790 C 1178.98 -1.74035 1.55673 0
M  V30 12791 C 1179.96 -1.65112 0.4089 0
M  V30 12792 O 1181.14 -1.83673 0.630698 0
M  V30 12793 C 1178.27 -3.1261 1.51303 0
M  V30 12794 C 1177.23 -3.36334 2.64696 0
M  V30 12795 C 1176.55 -4.75072 2.45378 0
M  V30 12796 C 1177.85 -3.27618 4.06772 0
M  V30 12797 H 1179.55 -1.65336 2.49608 0
M  V30 12798 H 1177.09 -0.794003 1.20132 0
M  V30 12799 H 1179.04 -3.90906 1.57388 0
M  V30 12800 H 1177.77 -3.22123 0.538914 0
M  V30 12801 H 1176.43 -2.60423 2.58022 0
M  V30 12802 H 1176.08 -4.81306 1.46129 0
M  V30 12803 H 1175.78 -4.91903 3.21412 0
M  V30 12804 H 1177.3 -5.55582 2.53301 0
M  V30 12805 H 1178.71 -3.95802 4.14746 0
M  V30 12806 H 1177.11 -3.55981 4.83113 0
M  V30 12807 H 1178.18 -2.25219 4.29423 0
M  V30 12808 N 1179.52 -1.32087 -0.859693 0
M  V30 12809 C 1180.47 -1.20549 -1.98924 0
M  V30 12810 C 1181.47 -0.111422 -1.69033 0
M  V30 12811 O 1182.67 -0.27401 -1.77902 0
M  V30 12812 H 1179.05 -0.373538 -0.652667 0
M  V30 12813 H 1181.02 -2.16091 -2.05785 0
M  V30 12814 C 1179.77 -0.940226 -3.34746 0
M  V30 12815 H 1179.09 -1.77427 -3.58273 0
M  V30 12816 H 1180.53 -0.899712 -4.14344 0
M  V30 12817 C 1178.99 0.357042 -3.35003 0
M  V30 12818 O 1179.52 1.37054 -3.77596 0
M  V30 12819 N 1177.72 0.37723 -2.88141 0
M  V30 12820 H 1177.27 -0.448051 -2.53674 0
M  V30 12821 H 1177.23 1.24509 -2.88695 0
M  V30 12822 N 1181 1.07532 -1.15215 0
M  V30 12823 C 1181.91 2.18222 -0.861192 0
M  V30 12824 C 1182.93 1.73246 0.161798 0
M  V30 12825 O 1184.1 2.01397 -0.0118386 0
M  V30 12826 C 1181.17 3.44902 -0.352601 0
M  V30 12827 C 1180.23 4.04455 -1.43926 0
M  V30 12828 C 1179.46 5.25089 -0.954841 0
M  V30 12829 O 1179.69 5.70048 0.200294 0
M  V30 12830 O 1178.62 5.76269 -1.73774 0
M  V30 12831 H 1182.45 2.45599 -1.78648 0
M  V30 12832 H 1180.03 1.16835 -0.93112 0
M  V30 12833 H 1181.91 4.21333 -0.0753347 0
M  V30 12834 H 1180.59 3.19082 0.544841 0
M  V30 12835 H 1179.49 3.29573 -1.7701 0
M  V30 12836 H 1180.83 4.34544 -2.31155 0
M  V30 12837 N 1182.48 0.948665 1.2585 0
M  V30 12838 C 1183.44 0.468673 2.24357 0
M  V30 12839 C 1184.44 -0.424355 1.551 0
M  V30 12840 O 1185.63 -0.222481 1.72773 0
M  V30 12841 C 1182.77 -0.32359 3.39361 0
M  V30 12842 H 1183.96 1.33928 2.68334 0
M  V30 12843 H 1181.51 0.731357 1.38133 0
M  V30 12844 H 1182.25 -1.21212 3.00796 0
M  V30 12845 H 1182.03 0.316998 3.90816 0
M  V30 12846 H 1183.52 -0.649087 4.12525 0
M  V30 12847 N 1183.96 -1.40369 0.716545 0
M  V30 12848 C 1185.18 -2.05704 0.264729 0
M  V30 12849 C 1185.61 -1.53634 -1.08527 0
M  V30 12850 O 1184.97 -0.67212 -1.68381 0
M  V30 12851 C 1185.01 -3.59692 0.255778 0
M  V30 12852 O 1184.12 -4.05286 -0.762686 0
M  V30 12853 H 1183.46 -0.652301 0.124092 0
M  V30 12854 H 1185.99 -1.7975 0.977295 0
M  V30 12855 H 1186 -4.07892 0.0937944 0
M  V30 12856 H 1184.67 -3.96955 1.24095 0
M  V30 12857 H 1183.25 -3.68543 -0.568347 0
M  V30 12858 N 1185.44 -0.462799 -1.50652 0
M  V30 12859 C 1186.66 0.0952726 -2.07181 0
M  V30 12860 C 1187.09 1.33479 -1.32533 0
M  V30 12861 O 1186.44 1.77473 -0.370564 0
M  V30 12862 C 1186.49 0.370592 -3.58691 0
M  V30 12863 O 1185.6 1.4526 -3.85971 0
M  V30 12864 H 1184.94 -0.00932702 -0.663934 0
M  V30 12865 H 1187.47 -0.651458 -1.93951 0
M  V30 12866 H 1187.48 0.613551 -4.0336 0
M  V30 12867 H 1186.15 -0.535219 -4.12442 0
M  V30 12868 H 1184.73 1.1976 -3.53146 0
M  V30 12869 N 1186.91 1.56388 -0.195085 0
M  V30 12870 C 1188.16 1.97189 0.44281 0
M  V30 12871 C 1188.48 1.08312 1.62153 0
M  V30 12872 O 1187.75 0.154404 1.95291 0
M  V30 12873 H 1186.33 0.728188 0.166585 0
M  V30 12874 H 1189 1.92852 -0.281815 0
M  V30 12875 H 1188.09 3.02016 0.786945 0
M  V30 12876 N 1188.39 -0.0785156 1.57404 0
M  V30 12877 C 1189.32 -1.09446 2.06262 0
M  V30 12878 C 1190.3 -1.40777 0.954772 0
M  V30 12879 O 1191.49 -1.5052 1.22708 0
M  V30 12880 C 1188.62 -2.40979 2.50093 0
M  V30 12881 C 1187.57 -2.24017 3.64692 0
M  V30 12882 C 1186.9 -3.60873 3.94556 0
M  V30 12883 C 1188.2 -1.66696 4.94985 0
M  V30 12884 H 1189.89 -0.687928 2.9139 0
M  V30 12885 H 1187.44 -0.329466 1.4018 0
M  V30 12886 H 1189.39 -3.12337 2.82884 0
M  V30 12887 H 1188.12 -2.83599 1.61985 0
M  V30 12888 H 1186.77 -1.55101 3.32174 0
M  V30 12889 H 1186.42 -4.01051 3.0359 0
M  V30 12890 H 1186.12 -3.50365 4.71718 0
M  V30 12891 H 1187.65 -4.33673 4.29837 0
M  V30 12892 H 1189.06 -2.27913 5.2605 0
M  V30 12893 H 1187.46 -1.66902 5.76423 0
M  V30 12894 H 1188.53 -0.627827 4.80818 0
M  V30 12895 N 1189.87 -1.5367 -0.349747 0
M  V30 12896 C 1191.12 -1.70618 -1.09068 0
M  V30 12897 C 1191.45 -0.466133 -1.88832 0
M  V30 12898 O 1190.7 0.552079 -1.87751 0
M  V30 12899 C 1191 -2.91753 -2.06434 0
M  V30 12900 C 1190.67 -4.27614 -1.43029 0
M  V30 12901 C 1189.33 -4.64555 -1.25466 0
M  V30 12902 C 1191.68 -5.12037 -0.972987 0
M  V30 12903 C 1189.01 -5.83543 -0.607807 0
M  V30 12904 C 1191.36 -6.31685 -0.340073 0
M  V30 12905 C 1190.02 -6.67327 -0.152069 0
M  V30 12906 H 1189.29 -0.624334 -0.399108 0
M  V30 12907 H 1191.94 -1.87879 -0.370657 0
M  V30 12908 H 1190.25 -2.6907 -2.84796 0
M  V30 12909 H 1191.94 -3.02059 -2.63744 0
M  V30 12910 H 1188.53 -3.98535 -1.57696 0
M  V30 12911 H 1192.72 -4.84035 -1.09655 0
M  V30 12912 H 1187.97 -6.09737 -0.450705 0
M  V30 12913 H 1192.15 -6.96396 0.0223973 0
M  V30 12914 H 1189.77 -7.59388 0.35121 0
M  V30 12915 N 1191.35 0.610423 -1.45298 0
M  V30 12916 C 1192.63 1.36966 -1.39641 0
M  V30 12917 C 1193.01 2.10998 -0.0655757 0
M  V30 12918 O 1192.35 2.07705 0.952407 0
M  V30 12919 C 1192.56 2.31885 -2.60826 0
M  V30 12920 C 1193.91 2.9458 -3.05791 0
M  V30 12921 O 1194.94 2.42207 -2.61179 0
M  V30 12922 O 1193.79 3.89639 -3.83202 0
M  V30 12923 H 1190.89 0.61401 -0.554004 0
M  V30 12924 H 1193.43 0.633748 -1.57422 0
M  V30 12925 H 1192.21 1.76421 -3.49272 0
M  V30 12926 H 1191.83 3.12861 -2.45364 0
M  V30 12927 N 1192.83 1.32541 0.852676 0
M  V30 12928 C 1194.07 1.23397 1.60938 0
M  V30 12929 C 1194.41 -0.203294 1.93133 0
M  V30 12930 O 1193.68 -1.14097 1.57519 0
M  V30 12931 C 1193.96 2.0956 2.92842 0
M  V30 12932 C 1193.82 3.61675 2.67416 0
M  V30 12933 C 1195.14 1.95825 3.94133 0
M  V30 12934 H 1192.25 0.449608 0.583971 0
M  V30 12935 H 1194.9 1.62507 0.98446 0
M  V30 12936 H 1193.05 1.76336 3.46176 0
M  V30 12937 H 1194.72 4.05122 2.20621 0
M  V30 12938 H 1192.96 3.84242 2.01347 0
M  V30 12939 H 1193.63 4.17292 3.61347 0
M  V30 12940 H 1196.11 2.24935 3.50062 0
M  V30 12941 H 1194.98 2.58387 4.8428 0
M  V30 12942 H 1195.25 0.926466 4.32284 0
M  V30 12943 N 1194.3 -1.0692 1.15784 0
M  V30 12944 C 1195.55 -1.796 0.935429 0
M  V30 12945 C 1195.88 -1.86935 -0.537173 0
M  V30 12946 O 1195.13 -1.35244 -1.41448 0
M  V30 12947 C 1195.43 -3.24389 1.50022 0
M  V30 12948 C 1195.1 -3.37145 2.99406 0
M  V30 12949 C 1193.76 -3.40334 3.40186 0
M  V30 12950 C 1196.11 -3.39584 3.95389 0
M  V30 12951 C 1193.44 -3.43569 4.75581 0
M  V30 12952 C 1195.79 -3.44356 5.30661 0
M  V30 12953 C 1194.46 -3.45824 5.70931 0
M  V30 12954 H 1193.73 -0.657201 0.342298 0
M  V30 12955 H 1196.37 -1.25784 1.44397 0
M  V30 12956 H 1194.68 -3.81015 0.91297 0
M  V30 12957 H 1196.38 -3.79209 1.30389 0
M  V30 12958 H 1192.97 -3.35365 2.66887 0
M  V30 12959 H 1197.15 -3.36337 3.64954 0
M  V30 12960 H 1192.41 -3.43006 5.06119 0
M  V30 12961 H 1196.58 -3.4519 6.04828 0
M  V30 12962 H 1194.21 -3.48084 6.75826 0
M  V30 12963 N 1195.78 -0.955326 -1.25345 0
M  V30 12964 C 1196.71 -0.494145 -2.28211 0
M  V30 12965 C 1197.69 0.459875 -1.63766 0
M  V30 12966 O 1198.88 0.358679 -1.90859 0
M  V30 12967 C 1196.01 0.228228 -3.46549 0
M  V30 12968 C 1194.96 -0.640601 -4.23179 0
M  V30 12969 C 1194.29 0.212553 -5.34277 0
M  V30 12970 C 1195.59 -1.91906 -4.85767 0
M  V30 12971 H 1197.28 -1.35391 -2.67039 0
M  V30 12972 H 1194.83 -0.652462 -1.2837 0
M  V30 12973 H 1196.78 0.561995 -4.17636 0
M  V30 12974 H 1195.51 1.12224 -3.06714 0
M  V30 12975 H 1194.16 -0.957462 -3.53876 0
M  V30 12976 H 1193.81 1.10634 -4.90682 0
M  V30 12977 H 1193.51 -0.365473 -5.86462 0
M  V30 12978 H 1195.04 0.541271 -6.08196 0
M  V30 12979 H 1196.45 -1.65165 -5.48993 0
M  V30 12980 H 1194.85 -2.44279 -5.48131 0
M  V30 12981 H 1195.92 -2.62173 -4.07914 0
M  V30 12982 N 1197.26 1.39987 -0.723979 0
M  V30 12983 C 1198.68 1.54547 -0.398403 0
M  V30 12984 C 1198.88 1.69348 1.09194 0
M  V30 12985 O 1197.93 1.68778 1.87804 0
M  V30 12986 C 1199.25 2.76929 -1.1718 0
M  V30 12987 C 1200.79 2.90754 -1.15893 0
M  V30 12988 C 1201.27 4.16059 -1.91465 0
M  V30 12989 N 1202.76 4.23076 -1.88576 0
M  V30 12990 C 1203.5 5.18957 -2.43867 0
M  V30 12991 N 1202.99 6.20695 -3.0775 0
M  V30 12992 N 1204.78 5.11095 -2.33962 0
M  V30 12993 H 1196.94 1.28626 -1.69024 0
M  V30 12994 H 1199.2 0.6226 -0.714894 0
M  V30 12995 H 1198.9 2.72298 -2.22591 0
M  V30 12996 H 1198.78 3.69279 -0.768941 0
M  V30 12997 H 1201.17 2.94884 -0.112978 0
M  V30 12998 H 1201.25 1.99498 -1.60107 0
M  V30 12999 H 1200.89 4.12691 -2.96055 0
M  V30 13000 H 1200.82 5.06339 -1.44665 0
M  V30 13001 H 1203.31 3.50195 -1.42027 0
M  V30 13002 H 1203.62 6.90296 -3.47435 0
M  V30 13003 H 1201.97 6.21114 -3.11837 0
M  V30 13004 H 1205.16 4.30546 -1.83706 0
M  V30 13005 H 1205.33 5.85644 -2.77353 0
M  V30 13006 N 1198.74 0.470782 1.50404 0
M  V30 13007 C 1199.99 -0.084316 2.02324 0
M  V30 13008 C 1200.31 -1.39749 1.35279 0
M  V30 13009 O 1199.57 -1.90037 0.467364 0
M  V30 13010 C 1199.87 -0.316419 3.55997 0
M  V30 13011 C 1199.53 0.915017 4.41518 0
M  V30 13012 C 1198.2 1.25265 4.6461 0
M  V30 13013 C 1200.55 1.73494 4.91477 0
M  V30 13014 C 1197.88 2.41027 5.34905 0
M  V30 13015 C 1200.23 2.88384 5.63043 0
M  V30 13016 C 1198.89 3.22562 5.84389 0
M  V30 13017 H 1198.16 -0.0308534 0.740357 0
M  V30 13018 H 1200.81 0.624799 1.81021 0
M  V30 13019 H 1199.11 -1.10778 3.75813 0
M  V30 13020 H 1200.81 -0.759882 3.93734 0
M  V30 13021 H 1197.4 0.641977 4.23765 0
M  V30 13022 H 1201.59 1.48728 4.73491 0
M  V30 13023 H 1196.84 2.67781 5.49639 0
M  V30 13024 H 1201.02 3.52264 6.00735 0
M  V30 13025 H 1198.64 4.1237 6.38635 0
M  V30 13026 N 1200.22 -1.56282 0.203376 0
M  V30 13027 C 1201.15 -2.15395 -0.753684 0
M  V30 13028 C 1202.13 -1.09303 -1.20381 0
M  V30 13029 O 1203.31 -1.37461 -1.28984 0
M  V30 13030 C 1200.44 -2.71954 -2.01888 0
M  V30 13031 C 1199.49 -3.9071 -1.71021 0
M  V30 13032 S 1200.32 -5.28695 -0.850999 0
M  V30 13033 C 1201.47 -5.88681 -2.12615 0
M  V30 13034 H 1201.71 -2.96237 -0.251196 0
M  V30 13035 H 1199.24 -1.54396 -0.0117238 0
M  V30 13036 H 1201.2 -3.05183 -2.74542 0
M  V30 13037 H 1199.86 -1.91138 -2.49249 0
M  V30 13038 H 1199.05 -4.28723 -2.64977 0
M  V30 13039 H 1198.65 -3.58533 -1.06442 0
M  V30 13040 H 1200.95 -6.03548 -3.07792 0
M  V30 13041 H 1201.89 -6.85096 -1.79021 0
M  V30 13042 H 1202.3 -5.17356 -2.2584 0
M  V30 13043 N 1201.7 0.070167 -1.57444 0
M  V30 13044 C 1202.94 0.774338 -1.89165 0
M  V30 13045 C 1203.3 1.7466 -0.797353 0
M  V30 13046 O 1204.5 2.49599 -0.997682 0
M  V30 13047 C 1202.77 1.46235 -3.26114 0
M  V30 13048 S 1204.33 2.20136 -3.79586 0
M  V30 13049 H 1201.15 0.257464 -0.662747 0
M  V30 13050 H 1203.75 0.0303734 -1.95476 0
M  V30 13051 H 1202.45 0.740942 -4.03656 0
M  V30 13052 H 1201.99 2.24571 -3.23004 0
M  V30 13053 H 1204 3.4668 -3.55003 0
M  V30 13054 N 1203.17 1.53854 0.341593 0
M  V30 13055 C 1204.12 1.7836 1.42028 0
M  V30 13056 C 1205.11 0.638876 1.47673 0
M  V30 13057 O 1206.3 0.898328 1.52509 0
M  V30 13058 C 1203.43 1.99837 2.79142 0
M  V30 13059 C 1202.51 3.20379 2.77881 0
M  V30 13060 N 1202.91 4.41809 2.46249 0
M  V30 13061 C 1201.2 3.21588 3.09026 0
M  V30 13062 C 1201.9 5.23668 2.53271 0
M  V30 13063 N 1200.88 4.60429 2.88974 0
M  V30 13064 H 1204.68 2.69836 1.16472 0
M  V30 13065 H 1202.2 1.52804 0.549966 0
M  V30 13066 H 1204.19 2.15528 3.56866 0
M  V30 13067 H 1202.85 1.09603 3.05642 0
M  V30 13068 H 1203.86 4.69125 2.19413 0
M  V30 13069 H 1200.54 2.41329 3.40686 0
M  V30 13070 H 1201.93 6.30591 2.31958 0
M  V30 13071 N 1204.65 -0.602709 1.4562 0
M  V30 13072 C 1205.6 -1.70753 1.51088 0
M  V30 13073 C 1206.59 -1.56501 0.373662 0
M  V30 13074 O 1207.78 -1.65755 0.620828 0
M  V30 13075 C 1204.91 -3.09515 1.48511 0
M  V30 13076 C 1203.99 -3.29135 2.67453 0
M  V30 13077 N 1204.38 -3.18996 3.92524 0
M  V30 13078 C 1202.68 -3.60019 2.63253 0
M  V30 13079 C 1203.38 -3.40079 4.71933 0
M  V30 13080 N 1202.36 -3.64299 4.03469 0
M  V30 13081 H 1206.16 -1.61414 2.45607 0
M  V30 13082 H 1203.67 -0.806122 1.4098 0
M  V30 13083 H 1205.67 -3.88782 1.50513 0
M  V30 13084 H 1204.33 -3.19999 0.550526 0
M  V30 13085 H 1205.34 -2.97292 4.24073 0
M  V30 13086 H 1202.02 -3.77311 1.78725 0
M  V30 13087 H 1203.41 -3.37593 5.80931 0
M  V30 13088 N 1206.13 -1.32992 -0.845635 0
M  V30 13089 C 1207.09 -1.22607 -1.9365 0
M  V30 13090 C 1208.09 -0.146812 -1.60128 0
M  V30 13091 O 1209.28 -0.397863 -1.69596 0
M  V30 13092 C 1206.41 -0.887677 -3.2914 0
M  V30 13093 H 1207.61 -2.19563 -2.04285 0
M  V30 13094 H 1205.16 -1.16952 -1.03691 0
M  V30 13095 H 1205.9 0.0796777 -3.24202 0
M  V30 13096 H 1205.68 -1.66808 -3.54849 0
M  V30 13097 H 1207.17 -0.83958 -4.09073 0
M  V30 13098 N 1207.61 1.06304 -1.1635 0
M  V30 13099 C 1208.85 1.79366 -0.94634 0
M  V30 13100 C 1209.19 1.86981 0.524569 0
M  V30 13101 O 1208.46 1.36134 1.38917 0
M  V30 13102 C 1208.74 3.23861 -1.57436 0
M  V30 13103 C 1208.6 3.24327 -3.1166 0
M  V30 13104 C 1209.92 4.21409 -1.26895 0
M  V30 13105 H 1207.04 0.65115 -0.345215 0
M  V30 13106 H 1209.68 1.24325 -1.43678 0
M  V30 13107 H 1207.83 3.70862 -1.15731 0
M  V30 13108 H 1209.5 2.85488 -3.62346 0
M  V30 13109 H 1207.74 2.62983 -3.44997 0
M  V30 13110 H 1208.41 4.2626 -3.50723 0
M  V30 13111 H 1210.89 3.8285 -1.62989 0
M  V30 13112 H 1209.77 5.20778 -1.73439 0
M  V30 13113 H 1210.03 4.41701 -0.187768 0
M  V30 13114 N 1209.09 0.96196 1.24836 0
M  V30 13115 C 1210.5 0.667561 1.44968 0
M  V30 13116 C 1210.7 -0.772521 1.86103 0
M  V30 13117 O 1209.76 -1.54704 1.99557 0
M  V30 13118 C 1211.07 1.64675 2.516 0
M  V30 13119 C 1212.62 1.65874 2.65433 0
M  V30 13120 C 1213.09 2.62576 3.75257 0
M  V30 13121 N 1214.58 2.60984 3.82677 0
M  V30 13122 C 1215.32 3.32484 4.67163 0
M  V30 13123 N 1214.82 4.13482 5.55882 0
M  V30 13124 N 1216.61 3.21336 4.61193 0
M  V30 13125 H 1208.76 1.89248 0.964307 0
M  V30 13126 H 1211.02 0.814443 0.485167 0
M  V30 13127 H 1210.73 2.67572 2.2825 0
M  V30 13128 H 1210.6 1.415 3.49653 0
M  V30 13129 H 1212.99 0.636912 2.88145 0
M  V30 13130 H 1213.07 1.9311 1.67756 0
M  V30 13131 H 1212.71 3.6489 3.53295 0
M  V30 13132 H 1212.64 2.32622 4.72435 0
M  V30 13133 H 1215.14 2.02187 3.19263 0
M  V30 13134 H 1215.45 4.6494 6.17293 0
M  V30 13135 H 1213.79 4.17578 5.55566 0
M  V30 13136 H 1216.98 2.57524 3.90895 0
M  V30 13137 H 1217.16 3.77323 5.26812 0
M  V30 13138 N 1210.56 -1.39601 0.731392 0
M  V30 13139 C 1211.81 -1.99821 0.274661 0
M  V30 13140 C 1212.13 -1.58693 -1.1435 0
M  V30 13141 O 1213.33 -2.11724 -1.69957 0
M  V30 13142 C 1211.79 -3.57199 0.440124 0
M  V30 13143 C 1211.4 -4.07292 1.86594 0
M  V30 13144 C 1213.14 -4.24476 0.0449851 0
M  V30 13145 C 1211.05 -5.57229 1.98115 0
M  V30 13146 H 1209.98 -0.747481 0.0989383 0
M  V30 13147 H 1212.63 -1.59645 0.904755 0
M  V30 13148 H 1211.01 -3.95153 -0.25881 0
M  V30 13149 H 1212.18 -3.80679 2.59654 0
M  V30 13150 H 1210.5 -3.52665 2.21397 0
M  V30 13151 H 1213.1 -5.34587 0.110126 0
M  V30 13152 H 1213.44 -4.04129 -0.999269 0
M  V30 13153 H 1213.97 -3.91683 0.694942 0
M  V30 13154 H 1210.71 -5.82452 3.00716 0
M  V30 13155 H 1210.23 -5.85656 1.29487 0
M  V30 13156 H 1211.91 -6.22584 1.76063 0
M  V30 13157 N 1212.04 -0.478751 -1.50152 0
M  V30 13158 C 1213.46 -0.133356 -1.59042 0
M  V30 13159 C 1213.66 1.36069 -1.48618 0
M  V30 13160 O 1212.71 2.13468 -1.34862 0
M  V30 13161 C 1214.03 -0.690369 -2.92668 0
M  V30 13162 C 1215.58 -0.654481 -3.06081 0
M  V30 13163 C 1216.05 -1.18917 -4.42293 0
M  V30 13164 N 1217.54 -1.14891 -4.48725 0
M  V30 13165 C 1218.28 -1.53305 -5.52526 0
M  V30 13166 N 1217.77 -1.99205 -6.63543 0
M  V30 13167 N 1219.57 -1.4486 -5.43113 0
M  V30 13168 H 1211.72 -1.45037 -1.55171 0
M  V30 13169 H 1213.98 -0.600254 -0.733757 0
M  V30 13170 H 1213.69 -1.7373 -3.05795 0
M  V30 13171 H 1213.56 -0.138227 -3.76947 0
M  V30 13172 H 1215.95 0.383564 -2.92597 0
M  V30 13173 H 1216.03 -1.24352 -2.2354 0
M  V30 13174 H 1215.67 -2.22588 -4.56527 0
M  V30 13175 H 1215.6 -0.57628 -5.23437 0
M  V30 13176 H 1218.09 -0.812344 -3.69066 0
M  V30 13177 H 1218.41 -2.26645 -7.38818 0
M  V30 13178 H 1216.75 -2.03164 -6.64642 0
M  V30 13179 H 1219.94 -1.08836 -4.55272 0
M  V30 13180 H 1220.11 -1.75123 -6.23888 0
M  V30 13181 N 1213.52 1.56172 -0.211661 0
M  V30 13182 C 1214.77 1.97648 0.421871 0
M  V30 13183 C 1215.09 1.10026 1.60995 0
M  V30 13184 O 1214.36 0.175109 1.95116 0
M  V30 13185 H 1212.94 0.729914 0.158852 0
M  V30 13186 H 1215.6 1.92542 -0.302254 0
M  V30 13187 H 1214.7 3.02834 0.754868 0
M  V30 13188 N 1215 -0.0618163 1.57479 0
M  V30 13189 C 1215.95 -1.0724 2.04373 0
M  V30 13190 C 1216.92 -1.37875 0.926271 0
M  V30 13191 O 1218.1 -1.48772 1.19463 0
M  V30 13192 C 1215.24 -2.37805 2.50085 0
M  V30 13193 C 1214.35 -2.13614 3.7549 0
M  V30 13194 C 1213.49 -3.37814 4.09945 0
M  V30 13195 C 1212.53 -3.09032 5.28361 0
M  V30 13196 N 1211.66 -4.25591 5.58406 0
M  V30 13197 H 1216.5 -0.665536 2.90473 0
M  V30 13198 H 1214.04 -0.317043 1.43643 0
M  V30 13199 H 1216 -3.14048 2.74644 0
M  V30 13200 H 1214.63 -2.76275 1.66948 0
M  V30 13201 H 1213.68 -1.28017 3.58212 0
M  V30 13202 H 1214.99 -1.88361 4.61867 0
M  V30 13203 H 1214.15 -4.22447 4.35458 0
M  V30 13204 H 1212.89 -3.66153 3.22154 0
M  V30 13205 H 1211.89 -2.22797 5.02635 0
M  V30 13206 H 1213.12 -2.82006 6.17778 0
M  V30 13207 H 1211.06 -4.53941 4.73575 0
M  V30 13208 H 1210.98 -4.03646 6.39223 0
M  V30 13209 H 1212.25 -5.11191 5.88476 0
M  V30 13210 N 1216.48 -1.54033 -0.333429 0
M  V30 13211 C 1217.7 -1.76031 -1.09672 0
M  V30 13212 C 1218.13 -0.502844 -1.81254 0
M  V30 13213 O 1217.48 0.54509 -1.72912 0
M  V30 13214 C 1217.53 -2.947 -2.07809 0
M  V30 13215 O 1216.64 -2.65555 -3.15522 0
M  V30 13216 H 1215.98 -0.583611 -0.316692 0
M  V30 13217 H 1218.51 -2.01026 -0.380732 0
M  V30 13218 H 1218.52 -3.21771 -2.50853 0
M  V30 13219 H 1217.19 -3.85895 -1.55106 0
M  V30 13220 H 1215.77 -2.49403 -2.77223 0
M  V30 13221 N 1217.95 0.594978 -1.45938 0
M  V30 13222 C 1219.18 1.37794 -1.53936 0
M  V30 13223 C 1219.59 1.88388 -0.175091 0
M  V30 13224 O 1218.94 1.63587 0.835757 0
M  V30 13225 C 1219 2.60906 -2.47322 0
M  V30 13226 C 1218.66 2.31865 -3.93812 0
M  V30 13227 C 1219.66 1.91451 -4.83366 0
M  V30 13228 C 1217.34 2.44387 -4.3884 0
M  V30 13229 C 1219.34 1.63938 -6.15957 0
M  V30 13230 C 1217.02 2.16487 -5.71469 0
M  V30 13231 C 1218.02 1.76326 -6.59847 0
M  V30 13232 O 1217.71 1.4876 -7.90016 0
M  V30 13233 H 1217.44 0.42775 -0.523456 0
M  V30 13234 H 1220 0.731487 -1.91933 0
M  V30 13235 H 1218.23 3.28315 -2.04319 0
M  V30 13236 H 1219.92 3.22964 -2.45863 0
M  V30 13237 H 1220.68 1.81301 -4.49839 0
M  V30 13238 H 1216.56 2.74612 -3.70283 0
M  V30 13239 H 1220.1 1.32516 -6.84898 0
M  V30 13240 H 1216 2.26257 -6.04548 0
M  V30 13241 H 1216.77 1.62708 -8.02165 0
M  V30 13242 N 1219.43 1.33438 0.838571 0
M  V30 13243 C 1220.68 1.25097 1.5962 0
M  V30 13244 C 1221.01 -0.182798 1.93338 0
M  V30 13245 O 1220.29 -1.1242 1.5872 0
M  V30 13246 C 1220.57 2.12655 2.90603 0
M  V30 13247 C 1220.42 3.64491 2.63565 0
M  V30 13248 C 1221.74 1.99994 3.92033 0
M  V30 13249 H 1218.86 0.455776 0.579169 0
M  V30 13250 H 1221.5 1.63542 0.967169 0
M  V30 13251 H 1219.65 1.79998 3.44286 0
M  V30 13252 H 1221.32 4.0744 2.16312 0
M  V30 13253 H 1219.57 3.86356 1.9726 0
M  V30 13254 H 1220.24 4.21101 3.569 0
M  V30 13255 H 1222.71 2.28635 3.47657 0
M  V30 13256 H 1221.59 2.63509 4.81512 0
M  V30 13257 H 1221.85 0.972263 4.31277 0
M  V30 13258 N 1220.91 -1.05686 1.16912 0
M  V30 13259 C 1221.84 -2.1329 0.839044 0
M  V30 13260 C 1222.86 -1.62047 -0.156392 0
M  V30 13261 O 1224.04 -1.78366 0.0692192 0
M  V30 13262 C 1221.14 -3.38122 0.229558 0
M  V30 13263 C 1220.32 -4.18659 1.26662 0
M  V30 13264 C 1219.38 -5.21842 0.675811 0
M  V30 13265 O 1218.4 -5.53049 1.3463 0
M  V30 13266 N 1219.6 -5.78034 -0.534532 0
M  V30 13267 H 1222.37 -2.42203 1.76515 0
M  V30 13268 H 1219.93 -1.2174 1.06729 0
M  V30 13269 H 1221.92 -4.04305 -0.178868 0
M  V30 13270 H 1220.49 -3.06783 -0.60023 0
M  V30 13271 H 1219.71 -3.4804 1.85099 0
M  V30 13272 H 1221 -4.6927 1.9663 0
M  V30 13273 H 1220.4 -5.54955 -1.09731 0
M  V30 13274 H 1218.96 -6.45763 -0.885087 0
M  V30 13275 N 1222.39 -0.968567 -1.24324 0
M  V30 13276 C 1223.63 -0.63879 -1.94162 0
M  V30 13277 C 1223.99 0.81112 -1.74025 0
M  V30 13278 O 1225.19 1.25116 -2.37906 0
M  V30 13279 C 1223.46 -1.00432 -3.42999 0
M  V30 13280 S 1225.02 -0.789227 -4.31644 0
M  V30 13281 H 1221.84 -0.234322 -0.671278 0
M  V30 13282 H 1224.44 -1.2457 -1.50673 0
M  V30 13283 H 1223.15 -2.05643 -3.55161 0
M  V30 13284 H 1222.68 -0.388221 -3.9148 0
M  V30 13285 H 1224.69 0.332976 -4.95082 0
M  V30 13286 N 1223.87 1.39211 -0.738786 0
M  V30 13287 C 1224.8 2.29117 -0.0616489 0
M  V30 13288 C 1225.81 1.47008 0.699462 0
M  V30 13289 O 1227 1.70041 0.542998 0
M  V30 13290 C 1224.1 3.25692 0.936893 0
M  V30 13291 C 1223.27 4.3676 0.236515 0
M  V30 13292 C 1222.33 5.1362 1.1437 0
M  V30 13293 O 1221.36 5.65816 0.619762 0
M  V30 13294 N 1222.56 5.25184 2.4731 0
M  V30 13295 H 1225.33 2.8787 -0.833711 0
M  V30 13296 H 1222.89 1.50832 -0.588323 0
M  V30 13297 H 1224.88 3.73987 1.54648 0
M  V30 13298 H 1223.45 2.67943 1.61014 0
M  V30 13299 H 1222.67 3.90293 -0.553594 0
M  V30 13300 H 1223.96 5.08192 -0.248707 0
M  V30 13301 H 1223.35 4.84302 2.92349 0
M  V30 13302 H 1221.91 5.76905 3.03355 0
M  V30 13303 N 1225.34 0.486708 1.49896 0
M  V30 13304 C 1226.59 -0.0627279 2.02003 0
M  V30 13305 C 1226.91 -1.38799 1.36967 0
M  V30 13306 O 1226.18 -1.88868 0.520173 0
M  V30 13307 H 1224.76 -0.0261718 0.746541 0
M  V30 13308 H 1227.43 0.640692 1.84068 0
M  V30 13309 H 1226.52 -0.202856 3.1144 0
M  V30 13310 N 1226.82 -1.56058 0.219941 0
M  V30 13311 C 1228.07 -1.97436 -0.412543 0
M  V30 13312 C 1228.39 -1.11058 -1.61014 0
M  V30 13313 O 1229.59 -1.42328 -2.31203 0
M  V30 13314 C 1228.05 -3.51227 -0.785362 0
M  V30 13315 C 1227.66 -4.46305 0.389328 0
M  V30 13316 C 1229.4 -4.01321 -1.38354 0
M  V30 13317 C 1227.31 -5.914 -0.00583531 0
M  V30 13318 H 1226.24 -0.73728 -0.157906 0
M  V30 13319 H 1228.89 -1.8076 0.315898 0
M  V30 13320 H 1227.27 -3.63497 -1.57118 0
M  V30 13321 H 1228.44 -4.45781 1.16686 0
M  V30 13322 H 1226.76 -4.06543 0.900633 0
M  V30 13323 H 1229.36 -5.07221 -1.69207 0
M  V30 13324 H 1229.7 -3.47077 -2.29876 0
M  V30 13325 H 1230.23 -3.92267 -0.66119 0
M  V30 13326 H 1226.97 -6.49623 0.87583 0
M  V30 13327 H 1226.49 -5.95121 -0.74772 0
M  V30 13328 H 1228.17 -6.45549 -0.43308 0
M  V30 13329 N 1228.3 0.053464 -1.57509 0
M  V30 13330 C 1229.71 0.603099 -1.76691 0
M  V30 13331 C 1230.06 1.76934 -0.847861 0
M  V30 13332 O 1229.19 2.16369 -0.0364962 0
M  V30 13333 C 1229.78 1.10084 -3.20417 0
M  V30 13334 C 1228.34 1.59618 -3.4088 0
M  V30 13335 C 1227.49 0.523516 -2.72313 0
M  V30 13336 H 1230.44 -0.172751 -1.57757 0
M  V30 13337 H 1230.46 1.9691 -3.25587 0
M  V30 13338 H 1229.97 0.251818 -3.87282 0
M  V30 13339 H 1228.07 2.46786 -2.79155 0
M  V30 13340 H 1228.19 1.6605 -4.49404 0
M  V30 13341 H 1226.55 0.972886 -2.35387 0
M  V30 13342 H 1227.33 -0.315629 -3.41846 0
M  V30 13343 N 1229.78 1.54207 0.325255 0
M  V30 13344 C 1230.71 1.79812 1.42128 0
M  V30 13345 C 1231.72 0.68003 1.47917 0
M  V30 13346 O 1232.91 0.957107 1.50671 0
M  V30 13347 C 1230.01 1.89935 2.80674 0
M  V30 13348 C 1229.19 3.20078 2.98108 0
M  V30 13349 C 1228.25 3.20924 4.17006 0
M  V30 13350 O 1227.27 3.94571 4.10247 0
M  V30 13351 N 1228.47 2.44588 5.26457 0
M  V30 13352 H 1231.24 2.74396 1.20527 0
M  V30 13353 H 1228.8 1.53483 0.515233 0
M  V30 13354 H 1230.79 1.8793 3.58419 0
M  V30 13355 H 1229.36 1.02455 2.95333 0
M  V30 13356 H 1228.58 3.35057 2.07679 0
M  V30 13357 H 1229.87 4.06008 3.06651 0
M  V30 13358 H 1229.27 1.8434 5.34823 0
M  V30 13359 H 1227.82 2.48363 6.02627 0
M  V30 13360 N 1231.26 -0.58723 1.46251 0
M  V30 13361 C 1232.51 -1.34294 1.51028 0
M  V30 13362 C 1232.83 -1.94329 0.161623 0
M  V30 13363 O 1232.1 -1.78309 -0.811342 0
M  V30 13364 H 1230.68 -0.498607 0.556238 0
M  V30 13365 H 1233.34 -0.688074 1.8235 0
M  V30 13366 H 1232.43 -2.15197 2.26045 0
M  V30 13367 N 1232.74 -1.33881 -0.831482 0
M  V30 13368 C 1233.96 -1.28961 -1.62431 0
M  V30 13369 C 1234.39 0.135249 -1.87613 0
M  V30 13370 O 1233.74 1.09426 -1.44553 0
M  V30 13371 C 1233.79 -2.07767 -2.94729 0
M  V30 13372 O 1232.9 -1.44133 -3.86393 0
M  V30 13373 H 1232.24 -0.443313 -0.494337 0
M  V30 13374 H 1234.77 -1.76555 -1.0339 0
M  V30 13375 H 1234.78 -2.18806 -3.44366 0
M  V30 13376 H 1233.45 -3.11367 -2.75724 0
M  V30 13377 H 1232.03 -1.41784 -3.44894 0
M  V30 13378 N 1234.21 1.05064 -1.1747 0
M  V30 13379 C 1235.46 1.77481 -0.958301 0
M  V30 13380 C 1235.78 1.88725 0.51401 0
M  V30 13381 O 1236.98 2.57895 0.848657 0
M  V30 13382 C 1235.44 3.19048 -1.66543 0
M  V30 13383 C 1235.05 3.1593 -3.17636 0
M  V30 13384 C 1236.79 3.95912 -1.53146 0
M  V30 13385 C 1234.7 4.52293 -3.81032 0
M  V30 13386 H 1233.63 0.665247 -0.354913 0
M  V30 13387 H 1236.28 1.17751 -1.40737 0
M  V30 13388 H 1234.66 3.79113 -1.1441 0
M  V30 13389 H 1235.83 2.65375 -3.76713 0
M  V30 13390 H 1234.15 2.52564 -3.31059 0
M  V30 13391 H 1236.75 4.96737 -1.9788 0
M  V30 13392 H 1237.09 4.13498 -0.482203 0
M  V30 13393 H 1237.62 3.42399 -2.02504 0
M  V30 13394 H 1234.36 4.39913 -4.8596 0
M  V30 13395 H 1233.88 5.02991 -3.26741 0
M  V30 13396 H 1235.56 5.2123 -3.83312 0
M  V30 13397 N 1235.69 0.975146 1.23809 0
M  V30 13398 C 1236.62 0.530389 2.27396 0
M  V30 13399 C 1237.6 -0.433763 1.64476 0
M  V30 13400 O 1238.79 -0.32827 1.91405 0
M  V30 13401 C 1235.92 -0.173066 3.46869 0
M  V30 13402 C 1234.87 0.707844 4.22106 0
M  V30 13403 C 1234.2 -0.127527 5.34548 0
M  V30 13404 C 1235.5 1.99609 4.82652 0
M  V30 13405 H 1237.19 1.39622 2.64851 0
M  V30 13406 H 1234.74 0.672802 1.27316 0
M  V30 13407 H 1236.69 -0.495481 4.18477 0
M  V30 13408 H 1235.41 -1.0733 3.0846 0
M  V30 13409 H 1234.07 1.01364 3.52308 0
M  V30 13410 H 1233.72 -1.02814 4.9238 0
M  V30 13411 H 1233.42 0.458728 5.85807 0
M  V30 13412 H 1234.95 -0.444443 6.0898 0
M  V30 13413 H 1236.36 1.73878 5.46296 0
M  V30 13414 H 1234.76 2.52969 5.44175 0
M  V30 13415 H 1235.83 2.68629 4.03691 0
M  V30 13416 N 1237.17 -1.38817 0.746158 0
M  V30 13417 C 1238.39 -2.05096 0.308302 0
M  V30 13418 C 1238.82 -1.55902 -1.05244 0
M  V30 13419 O 1238.18 -0.707685 -1.66918 0
M  V30 13420 C 1238.23 -3.59068 0.332016 0
M  V30 13421 O 1237.33 -4.06813 -0.676547 0
M  V30 13422 H 1236.67 -0.649523 0.1379 0
M  V30 13423 H 1239.2 -1.77637 1.0152 0
M  V30 13424 H 1239.21 -4.07601 0.180293 0
M  V30 13425 H 1237.89 -3.94234 1.32487 0
M  V30 13426 H 1236.46 -3.69666 -0.490046 0
M  V30 13427 N 1238.65 -0.49465 -1.49636 0
M  V30 13428 C 1239.88 0.0491129 -2.06842 0
M  V30 13429 C 1240.29 1.31395 -1.35576 0
M  V30 13430 O 1239.65 1.7731 -0.432135 0
M  V30 13431 C 1239.7 0.313171 -3.60141 0
M  V30 13432 O 1239.42 -0.90152 -4.28724 0
M  V30 13433 C 1240.92 0.901284 -4.34041 0
M  V30 13434 H 1238.14 -0.0176186 -0.670769 0
M  V30 13435 H 1240.68 -0.690188 -1.92501 0
M  V30 13436 H 1238.84 1.00244 -3.74206 0
M  V30 13437 H 1239.25 -0.660477 -5.20325 0
M  V30 13438 H 1240.73 1.03567 -5.42197 0
M  V30 13439 H 1241.2 1.89746 -3.96097 0
M  V30 13440 H 1241.81 0.249677 -4.24566 0
M  V30 13441 N 1240.13 1.55939 -0.228214 0
M  V30 13442 C 1241.06 2.2357 0.6737 0
M  V30 13443 C 1242.04 1.20964 1.1959 0
M  V30 13444 O 1243.22 1.49568 1.23867 0
M  V30 13445 C 1240.35 2.92076 1.87906 0
M  V30 13446 C 1239.31 4.01211 1.49043 0
M  V30 13447 C 1238.63 4.57047 2.77511 0
M  V30 13448 C 1239.93 5.17914 0.67544 0
M  V30 13449 H 1241.63 2.99199 0.109806 0
M  V30 13450 H 1239.17 1.43908 0.0513732 0
M  V30 13451 H 1241.12 3.38083 2.51551 0
M  V30 13452 H 1239.85 2.13906 2.46803 0
M  V30 13453 H 1238.51 3.55945 0.877411 0
M  V30 13454 H 1238.16 3.75599 3.34566 0
M  V30 13455 H 1237.86 5.30707 2.52239 0
M  V30 13456 H 1239.38 5.05776 3.42087 0
M  V30 13457 H 1240.79 5.60261 1.21575 0
M  V30 13458 H 1239.19 5.97847 0.519536 0
M  V30 13459 H 1240.26 4.83866 -0.316495 0
M  V30 13460 N 1241.6 -0.0451101 1.57535 0
M  V30 13461 C 1242.53 -1.05046 2.08537 0
M  V30 13462 C 1243.52 -1.3872 0.984418 0
M  V30 13463 O 1244.7 -1.47884 1.25873 0
M  V30 13464 C 1241.83 -2.3562 2.55148 0
M  V30 13465 C 1240.78 -2.16231 3.69362 0
M  V30 13466 C 1240.11 -3.52423 4.02122 0
M  V30 13467 C 1241.41 -1.56159 4.98409 0
M  V30 13468 H 1243.1 -0.625965 2.92783 0
M  V30 13469 H 1240.65 -0.299657 1.40848 0
M  V30 13470 H 1242.6 -3.06266 2.89446 0
M  V30 13471 H 1241.33 -2.80099 1.67964 0
M  V30 13472 H 1239.99 -1.4802 3.35389 0
M  V30 13473 H 1239.63 -3.94522 3.12028 0
M  V30 13474 H 1239.33 -3.4028 4.79044 0
M  V30 13475 H 1240.86 -4.24458 4.38939 0
M  V30 13476 H 1242.27 -2.16703 5.30766 0
M  V30 13477 H 1240.67 -1.54638 5.79834 0
M  V30 13478 H 1241.74 -0.525698 4.82042 0
M  V30 13479 N 1243.08 -1.54377 -0.317073 0
M  V30 13480 C 1244.32 -1.74621 -1.06239 0
M  V30 13481 C 1244.69 -0.512542 -1.85032 0
M  V30 13482 O 1245.89 -0.592438 -2.6219 0
M  V30 13483 C 1244.16 -2.99036 -1.95735 0
M  V30 13484 S 1245.72 -3.40212 -2.77131 0
M  V30 13485 H 1242.54 -0.613969 -0.358557 0
M  V30 13486 H 1245.14 -1.92562 -0.33763 0
M  V30 13487 H 1243.84 -3.86965 -1.36697 0
M  V30 13488 H 1243.37 -2.83636 -2.72606 0
M  V30 13489 H 1245.39 -2.9602 -3.98229 0
M  V30 13490 N 1244.56 0.579466 -1.4656 0
M  V30 13491 C 1245.79 1.36837 -1.55854 0
M  V30 13492 C 1246.21 1.87019 -0.20141 0
M  V30 13493 O 1245.57 1.61746 0.81901 0
M  V30 13494 C 1245.62 2.52965 -2.56985 0
M  V30 13495 O 1244.72 3.54505 -2.10713 0
M  V30 13496 H 1244.06 0.407379 -0.524345 0
M  V30 13497 H 1246.59 0.702558 -1.9216 0
M  V30 13498 H 1246.6 2.99838 -2.76697 0
M  V30 13499 H 1245.28 2.15793 -3.55536 0
M  V30 13500 H 1243.85 3.14089 -2.01003 0
M  V30 13501 N 1246.04 1.3432 0.824371 0
M  V30 13502 C 1246.97 1.2842 1.95014 0
M  V30 13503 C 1247.95 0.161925 1.69328 0
M  V30 13504 O 1249.13 0.354052 1.90945 0
M  V30 13505 C 1246.26 1.03741 3.31444 0
M  V30 13506 C 1245.22 2.12419 3.71567 0
M  V30 13507 C 1244.54 1.72931 5.05963 0
M  V30 13508 C 1245.84 3.54235 3.83817 0
M  V30 13509 H 1247.54 2.22614 2.00209 0
M  V30 13510 H 1245.08 1.07165 0.961856 0
M  V30 13511 H 1247.04 0.982586 4.09784 0
M  V30 13512 H 1245.76 0.0598892 3.26545 0
M  V30 13513 H 1244.42 2.16968 2.955 0
M  V30 13514 H 1244.07 0.738433 4.9755 0
M  V30 13515 H 1243.77 2.45668 5.3378 0
M  V30 13516 H 1245.29 1.68941 5.86763 0
M  V30 13517 H 1246.71 3.52106 4.52432 0
M  V30 13518 H 1245.1 4.25581 4.23085 0
M  V30 13519 H 1246.17 3.91682 2.85856 0
M  V30 13520 N 1247.52 -1.0444 1.18026 0
M  V30 13521 C 1248.76 -1.79143 0.984238 0
M  V30 13522 C 1249.12 -1.85955 -0.478002 0
M  V30 13523 O 1250.32 -2.56826 -0.793345 0
M  V30 13524 C 1248.59 -3.18744 1.61669 0
M  V30 13525 S 1250.15 -4.09832 1.56791 0
M  V30 13526 H 1246.97 -0.61688 0.353525 0
M  V30 13527 H 1249.57 -1.25256 1.50104 0
M  V30 13528 H 1248.28 -3.11394 2.67324 0
M  V30 13529 H 1247.81 -3.77708 1.10001 0
M  V30 13530 H 1249.82 -4.92785 0.581175 0
M  V30 13531 N 1248.99 -0.981699 -1.2329 0
M  V30 13532 C 1250.22 -0.668399 -1.95489 0
M  V30 13533 C 1250.63 0.768976 -1.72868 0
M  V30 13534 O 1249.98 1.52925 -1.01783 0
M  V30 13535 C 1250.04 -0.880535 -3.4855 0
M  V30 13536 C 1249.7 -2.30023 -3.9489 0
M  V30 13537 C 1250.7 -3.27899 -4.03458 0
M  V30 13538 C 1248.38 -2.63167 -4.27842 0
M  V30 13539 C 1250.38 -4.56999 -4.44332 0
M  V30 13540 C 1248.06 -3.92489 -4.68397 0
M  V30 13541 C 1249.06 -4.89216 -4.76609 0
M  V30 13542 O 1248.75 -6.16229 -5.16253 0
M  V30 13543 H 1248.48 -0.247255 -0.629159 0
M  V30 13544 H 1251.04 -1.31606 -1.57699 0
M  V30 13545 H 1249.27 -0.175698 -3.86301 0
M  V30 13546 H 1250.96 -0.564198 -4.0196 0
M  V30 13547 H 1251.72 -3.03624 -3.78203 0
M  V30 13548 H 1247.6 -1.88588 -4.20661 0
M  V30 13549 H 1251.14 -5.32498 -4.50656 0
M  V30 13550 H 1247.04 -4.16558 -4.93102 0
M  V30 13551 H 1247.81 -6.20001 -5.34361 0
M  V30 13552 N 1250.47 1.3842 -0.753509 0
M  V30 13553 C 1251.72 1.99723 -0.309021 0
M  V30 13554 C 1252.04 1.60111 1.11308 0
M  V30 13555 O 1251.31 0.85792 1.76115 0
M  V30 13556 H 1249.89 0.738667 -0.111266 0
M  V30 13557 H 1252.55 1.69186 -0.967586 0
M  V30 13558 H 1251.65 3.09874 -0.372095 0
M  V30 13559 N 1251.95 0.502579 1.49372 0
M  V30 13560 C 1253.23 -0.104472 1.95321 0
M  V30 13561 C 1253.61 -1.53975 1.44412 0
M  V30 13562 O 1252.96 -2.18804 0.658566 0
M  V30 13563 C 1253.17 -0.0154833 3.48997 0
M  V30 13564 C 1254.51 -0.188615 4.24181 0
M  V30 13565 O 1255.54 -0.090595 3.56085 0
M  V30 13566 O 1254.4 -0.390068 5.45106 0
M  V30 13567 H 1251.49 -0.0944325 0.821591 0
M  V30 13568 H 1254.04 0.565229 1.6001 0
M  V30 13569 H 1252.81 0.985383 3.7869 0
M  V30 13570 H 1252.43 -0.72526 3.90929 0
M  V30 13571 N 1253.43 -1.55816 0.23648 0
M  V30 13572 C 1254.36 -2.16945 -0.707826 0
M  V30 13573 C 1255.34 -1.11832 -1.18036 0
M  V30 13574 O 1256.52 -1.40166 -1.26039 0
M  V30 13575 C 1253.65 -2.76175 -1.96074 0
M  V30 13576 C 1252.7 -3.9425 -1.62695 0
M  V30 13577 S 1253.53 -5.30381 -0.738663 0
M  V30 13578 C 1254.69 -5.93059 -2.00081 0
M  V30 13579 H 1254.92 -2.96703 -0.188303 0
M  V30 13580 H 1252.45 -1.54386 0.0210284 0
M  V30 13581 H 1254.41 -3.10938 -2.68007 0
M  V30 13582 H 1253.07 -1.96382 -2.45138 0
M  V30 13583 H 1252.26 -4.34247 -2.55823 0
M  V30 13584 H 1251.87 -3.6071 -0.988129 0
M  V30 13585 H 1254.16 -6.09941 -2.94921 0
M  V30 13586 H 1255.1 -6.88739 -1.64449 0
M  V30 13587 H 1255.51 -5.2203 -2.14815 0
M  V30 13588 N 1254.91 0.036755 -1.57557 0
M  V30 13589 C 1255.82 1.05687 -2.09446 0
M  V30 13590 C 1256.83 1.40137 -1.03139 0
M  V30 13591 O 1258.01 1.49611 -1.34828 0
M  V30 13592 C 1255.07 2.34114 -2.55717 0
M  V30 13593 C 1254.13 2.06316 -3.76473 0
M  V30 13594 C 1253.37 3.2862 -4.20529 0
M  V30 13595 O 1253.59 4.3902 -3.64167 0
M  V30 13596 O 1252.52 3.14772 -5.13033 0
M  V30 13597 H 1256.35 0.64593 -2.96751 0
M  V30 13598 H 1253.94 0.253235 -1.47238 0
M  V30 13599 H 1255.82 3.09631 -2.85844 0
M  V30 13600 H 1254.49 2.74519 -1.71526 0
M  V30 13601 H 1253.4 1.28392 -3.51378 0
M  V30 13602 H 1254.73 1.70772 -4.61625 0
M  V30 13603 N 1256.39 1.54543 0.308881 0
M  V30 13604 C 1257.33 1.85693 1.40074 0
M  V30 13605 C 1258.33 0.730004 1.52864 0
M  V30 13606 O 1259.53 0.913884 1.55075 0
M  V30 13607 H 1255.91 0.588842 0.467728 0
M  V30 13608 H 1257.88 2.76973 1.11034 0
M  V30 13609 C 1256.63 2.11399 2.76054 0
M  V30 13610 H 1255.95 2.97583 2.66992 0
M  V30 13611 H 1257.39 2.37139 3.51484 0
M  V30 13612 C 1255.85 0.91007 3.24375 0
M  V30 13613 O 1256.38 0.12663 4.015 0
M  V30 13614 N 1254.59 0.717629 2.816 0
M  V30 13615 H 1254.13 1.35637 2.18998 0
M  V30 13616 H 1254.09 -0.0863585 3.14281 0
M  V30 13617 N 1257.86 -0.571685 1.46866 0
M  V30 13618 C 1258.81 -1.67992 1.58263 0
M  V30 13619 C 1259.78 -1.60535 0.426345 0
M  V30 13620 O 1260.97 -1.79584 0.644534 0
M  V30 13621 C 1258.11 -3.06327 1.58927 0
M  V30 13622 C 1257.22 -3.24328 2.85369 0
M  V30 13623 C 1256.35 -4.52976 2.77464 0
M  V30 13624 C 1255.39 -4.64359 3.98795 0
M  V30 13625 N 1254.53 -5.84345 3.89211 0
M  V30 13626 H 1259.37 -1.57589 2.52922 0
M  V30 13627 H 1256.91 -0.767883 1.25467 0
M  V30 13628 H 1258.86 -3.86411 1.57296 0
M  V30 13629 H 1257.49 -3.15601 0.677912 0
M  V30 13630 H 1256.55 -2.37774 2.96931 0
M  V30 13631 H 1257.86 -3.28605 3.7526 0
M  V30 13632 H 1257.01 -5.41303 2.74001 0
M  V30 13633 H 1255.75 -4.51155 1.85231 0
M  V30 13634 H 1254.76 -3.74448 4.02578 0
M  V30 13635 H 1255.98 -4.6795 4.92137 0
M  V30 13636 H 1253.93 -5.835 2.99772 0
M  V30 13637 H 1253.84 -5.89938 4.72768 0
M  V30 13638 H 1255.11 -6.75072 3.89741 0
M  V30 13639 N 1259.34 -1.34755 -0.817236 0
M  V30 13640 C 1260.27 -1.29452 -1.94331 0
M  V30 13641 C 1261.25 -0.170902 -1.69239 0
M  V30 13642 O 1262.44 -0.364173 -1.90755 0
M  V30 13643 C 1259.57 -1.05497 -3.30889 0
M  V30 13644 C 1258.52 -2.14386 -3.70436 0
M  V30 13645 C 1257.85 -1.75612 -5.05039 0
M  V30 13646 C 1259.15 -3.56265 -3.81933 0
M  V30 13647 H 1260.84 -2.23672 -1.99025 0
M  V30 13648 H 1258.39 -1.07674 -0.956159 0
M  V30 13649 H 1260.34 -1.0043 -4.09257 0
M  V30 13650 H 1259.06 -0.0772059 -3.26509 0
M  V30 13651 H 1257.72 -2.18532 -2.94345 0
M  V30 13652 H 1257.37 -0.764809 -4.97152 0
M  V30 13653 H 1257.07 -2.48495 -5.3247 0
M  V30 13654 H 1258.6 -1.72051 -5.85859 0
M  V30 13655 H 1260.01 -3.545 -4.50558 0
M  V30 13656 H 1258.41 -4.27818 -4.20822 0
M  V30 13657 H 1259.48 -3.93192 -2.83775 0
M  V30 13658 N 1260.82 1.03812 -1.18578 0
M  V30 13659 C 1262.07 1.77056 -0.982718 0
M  V30 13660 C 1262.39 1.88294 0.487421 0
M  V30 13661 O 1261.65 1.38946 1.37813 0
M  V30 13662 C 1261.95 3.20297 -1.5857 0
M  V30 13663 C 1261.61 3.29088 -3.0824 0
M  V30 13664 C 1260.28 3.31194 -3.4909 0
M  V30 13665 C 1262.63 3.28981 -4.04253 0
M  V30 13666 C 1259.96 3.30839 -4.84523 0
M  V30 13667 C 1262.31 3.30166 -5.39605 0
M  V30 13668 C 1260.97 3.30565 -5.79899 0
M  V30 13669 H 1260.24 0.647895 -0.359602 0
M  V30 13670 H 1262.89 1.21911 -1.47682 0
M  V30 13671 H 1261.19 3.7846 -1.01367 0
M  V30 13672 H 1262.89 3.75619 -1.40398 0
M  V30 13673 H 1259.48 3.28171 -2.75685 0
M  V30 13674 H 1263.67 3.26543 -3.73743 0
M  V30 13675 H 1258.92 3.29467 -5.15035 0
M  V30 13676 H 1263.1 3.29033 -6.13767 0
M  V30 13677 H 1260.72 3.30044 -6.84818 0
M  V30 13678 N 1262.3 0.988223 1.22768 0
M  V30 13679 C 1263.26 0.539813 2.22752 0
M  V30 13680 C 1264.26 -0.374796 1.56371 0
M  V30 13681 O 1265.45 -0.167402 1.73394 0
M  V30 13682 C 1262.58 -0.215461 3.40218 0
M  V30 13683 H 1263.78 1.42397 2.63938 0
M  V30 13684 H 1261.33 0.774933 1.35737 0
M  V30 13685 H 1262.06 -1.11581 3.045 0
M  V30 13686 H 1261.85 0.441173 3.8961 0
M  V30 13687 H 1263.34 -0.517517 4.14381 0
M  V30 13688 N 1263.78 -1.38018 0.760839 0
M  V30 13689 C 1265.02 -1.99557 0.319609 0
M  V30 13690 C 1265.34 -1.60699 -1.10457 0
M  V30 13691 O 1264.61 -0.867248 -1.75658 0
M  V30 13692 H 1263.19 -0.738066 0.115182 0
M  V30 13693 H 1265.86 -1.6867 0.976544 0
M  V30 13694 H 1264.95 -3.09672 0.388523 0
M  V30 13695 N 1265.25 -0.510493 -1.49103 0
M  V30 13696 C 1266.5 0.0325393 -2.01674 0
M  V30 13697 C 1266.82 1.37162 -1.39448 0
M  V30 13698 O 1268.02 2.00189 -1.83402 0
M  V30 13699 C 1266.48 0.108433 -3.59737 0
M  V30 13700 C 1266.09 -1.22458 -4.30939 0
M  V30 13701 C 1267.83 0.601326 -4.20219 0
M  V30 13702 C 1265.74 -1.11033 -5.80884 0
M  V30 13703 H 1264.67 0.0159333 -0.753832 0
M  V30 13704 H 1267.32 -0.651344 -1.71551 0
M  V30 13705 H 1265.7 0.856974 -3.86616 0
M  V30 13706 H 1266.87 -1.98715 -4.15751 0
M  V30 13707 H 1265.19 -1.65166 -3.82242 0
M  V30 13708 H 1267.79 0.704462 -5.30039 0
M  V30 13709 H 1268.13 1.60247 -3.84222 0
M  V30 13710 H 1268.66 -0.0909561 -3.97696 0
M  V30 13711 H 1265.4 -2.08603 -6.21422 0
M  V30 13712 H 1264.92 -0.388798 -5.98539 0
M  V30 13713 H 1266.6 -0.792949 -6.42123 0
M  V30 13714 N 1266.73 1.55688 -0.24474 0
M  V30 13715 C 1268.15 1.59219 0.110159 0
M  V30 13716 C 1268.35 1.26187 1.57096 0
M  V30 13717 O 1267.4 1.00815 2.31501 0
M  V30 13718 C 1268.72 2.99764 -0.237075 0
M  V30 13719 C 1270.26 3.12475 -0.181198 0
M  V30 13720 C 1270.74 4.55236 -0.502435 0
M  V30 13721 N 1272.23 4.60981 -0.452855 0
M  V30 13722 C 1272.97 5.69418 -0.674605 0
M  V30 13723 N 1272.46 6.86125 -0.959366 0
M  V30 13724 N 1274.25 5.5883 -0.605459 0
M  V30 13725 H 1266.41 1.7543 -1.19741 0
M  V30 13726 H 1268.67 0.816537 -0.481634 0
M  V30 13727 H 1268.37 3.28666 -1.25185 0
M  V30 13728 H 1268.25 3.74662 0.436859 0
M  V30 13729 H 1270.64 2.83355 0.824248 0
M  V30 13730 H 1270.72 2.39857 -0.888952 0
M  V30 13731 H 1270.36 4.85077 -1.50543 0
M  V30 13732 H 1270.29 5.26111 0.226773 0
M  V30 13733 H 1272.78 3.77128 -0.241401 0
M  V30 13734 H 1273.09 7.64699 -1.11605 0
M  V30 13735 H 1271.44 6.87814 -0.996816 0
M  V30 13736 H 1274.63 4.6653 -0.383053 0
M  V30 13737 H 1274.8 6.43268 -0.781673 0
M  V30 13738 N 1268.21 -0.0283989 1.57574 0
M  V30 13739 C 1269.63 -0.384054 1.5491 0
M  V30 13740 C 1269.83 -1.76564 0.970947 0
M  V30 13741 O 1268.88 -2.45455 0.592288 0
M  V30 13742 C 1270.19 -0.285297 2.99344 0
M  V30 13743 C 1271.74 -0.36233 3.10896 0
M  V30 13744 C 1272.22 -0.293014 4.57062 0
M  V30 13745 N 1273.71 -0.351788 4.61862 0
M  V30 13746 C 1274.44 -0.321054 5.725 0
M  V30 13747 N 1273.94 -0.242573 6.92375 0
M  V30 13748 N 1275.73 -0.370832 5.60875 0
M  V30 13749 H 1267.88 0.87573 1.93506 0
M  V30 13750 H 1270.15 0.33305 0.887571 0
M  V30 13751 H 1269.85 0.664146 3.45372 0
M  V30 13752 H 1269.73 -1.07869 3.61447 0
M  V30 13753 H 1272.11 -1.30221 2.64814 0
M  V30 13754 H 1272.19 0.460422 2.51622 0
M  V30 13755 H 1271.84 0.643197 5.03811 0
M  V30 13756 H 1271.77 -1.13388 5.14248 0
M  V30 13757 H 1274.26 -0.414929 3.75615 0
M  V30 13758 H 1274.57 -0.224239 7.72475 0
M  V30 13759 H 1272.92 -0.208612 6.94687 0
M  V30 13760 H 1276.11 -0.430141 4.6612 0
M  V30 13761 H 1276.28 -0.343412 6.47089 0
M  V30 13762 N 1269.69 -1.54705 -0.300681 0
M  V30 13763 C 1270.96 -1.6468 -1.05546 0
M  V30 13764 C 1271.34 -0.495292 -2.05207 0
M  V30 13765 O 1270.69 0.507944 -2.22783 0
M  V30 13766 C 1270.9 -3.02702 -1.73703 0
M  V30 13767 C 1272.25 -3.59527 -2.25888 0
M  V30 13768 O 1273.27 -3.05156 -1.83735 0
M  V30 13769 O 1272.13 -4.54727 -3.03126 0
M  V30 13770 H 1269.23 -0.667769 -0.487867 0
M  V30 13771 H 1271.77 -1.6705 -0.298743 0
M  V30 13772 H 1270.55 -3.7795 -1.01338 0
M  V30 13773 H 1270.17 -3.0411 -2.5613 0
M  V30 13774 N 1271.17 0.563888 -1.47167 0
M  V30 13775 C 1272.41 1.31875 -1.53145 0
M  V30 13776 C 1272.74 1.94047 -0.192518 0
M  V30 13777 O 1272.01 1.79577 0.782872 0
M  V30 13778 H 1270.59 0.489694 -0.5641 0
M  V30 13779 H 1273.25 0.658976 -1.83422 0
M  V30 13780 H 1272.34 2.11574 -2.2944 0
M  V30 13781 N 1272.64 1.35187 0.810078 0
M  V30 13782 C 1273.57 1.30481 1.93641 0
M  V30 13783 C 1274.56 0.179875 1.69146 0
M  V30 13784 O 1275.74 0.374284 1.90559 0
M  V30 13785 C 1272.87 1.07251 3.30325 0
M  V30 13786 C 1271.82 2.16348 3.69293 0
M  V30 13787 C 1271.15 1.78288 5.04101 0
M  V30 13788 C 1272.45 3.58285 3.80038 0
M  V30 13789 H 1274.14 2.24725 1.97836 0
M  V30 13790 H 1271.69 1.08179 0.950436 0
M  V30 13791 H 1273.64 1.02599 4.08719 0
M  V30 13792 H 1272.37 0.0945203 3.26463 0
M  V30 13793 H 1271.03 2.2009 2.93182 0
M  V30 13794 H 1270.67 0.791163 4.96739 0
M  V30 13795 H 1270.37 2.51315 5.31144 0
M  V30 13796 H 1271.9 1.75155 5.84938 0
M  V30 13797 H 1273.31 3.56884 4.48672 0
M  V30 13798 H 1271.71 4.30044 4.18548 0
M  V30 13799 H 1272.78 3.94691 2.81685 0
M  V30 13800 N 1274.12 -1.03182 1.19127 0
M  V30 13801 C 1275.05 -2.13301 0.94999 0
M  V30 13802 C 1276.03 -1.69707 -0.115577 0
M  V30 13803 O 1277.22 -1.94161 0.0388395 0
M  V30 13804 C 1274.35 -3.43902 0.484637 0
M  V30 13805 C 1273.3 -4.01164 1.4917 0
M  V30 13806 C 1272.63 -5.2735 0.883537 0
M  V30 13807 C 1273.93 -4.36311 2.87107 0
M  V30 13808 H 1275.62 -2.33743 1.87095 0
M  V30 13809 H 1273.17 -1.12332 0.900977 0
M  V30 13810 H 1275.12 -4.20308 0.30315 0
M  V30 13811 H 1273.85 -3.23173 -0.471909 0
M  V30 13812 H 1272.5 -3.26849 1.66028 0
M  V30 13813 H 1272.15 -5.02936 -0.0804712 0
M  V30 13814 H 1271.85 -5.66624 1.55599 0
M  V30 13815 H 1273.38 -6.06425 0.71278 0
M  V30 13816 H 1274.79 -5.03666 2.73848 0
M  V30 13817 H 1273.19 -4.86659 3.51117 0
M  V30 13818 H 1274.26 -3.45743 3.39985 0
M  V30 13819 N 1275.6 -0.99472 -1.22242 0
M  V30 13820 C 1276.53 -0.566499 -2.26524 0
M  V30 13821 C 1277.51 0.407541 -1.65146 0
M  V30 13822 O 1278.7 0.297777 -1.91903 0
M  V30 13823 C 1275.83 0.11786 -3.471 0
M  V30 13824 C 1274.78 -0.774908 -4.20927 0
M  V30 13825 C 1274.11 0.0424687 -5.34683 0
M  V30 13826 C 1275.41 -2.07263 -4.79416 0
M  V30 13827 H 1277.1 -1.43818 -2.62596 0
M  V30 13828 H 1274.65 -0.692971 -1.2623 0
M  V30 13829 H 1276.6 0.428842 -4.19212 0
M  V30 13830 H 1275.32 1.0241 -3.10129 0
M  V30 13831 H 1273.98 -1.06956 -3.50651 0
M  V30 13832 H 1273.63 0.949677 -4.93954 0
M  V30 13833 H 1273.33 -0.551867 -5.85003 0
M  V30 13834 H 1274.85 0.347504 -6.0961 0
M  V30 13835 H 1276.27 -1.82548 -5.4346 0
M  V30 13836 H 1274.67 -2.61594 -5.40082 0
M  V30 13837 H 1275.74 -2.75017 -3.99366 0
M  V30 13838 N 1277.08 1.37613 -0.768148 0
M  V30 13839 C 1278.49 1.53202 -0.44737 0
M  V30 13840 C 1278.69 1.72736 1.03752 0
M  V30 13841 O 1277.75 1.74667 1.8234 0
M  V30 13842 C 1279.06 2.7306 -1.25931 0
M  V30 13843 C 1280.61 2.8692 -1.25084 0
M  V30 13844 C 1281.09 4.09757 -2.04605 0
M  V30 13845 N 1282.58 4.16862 -2.0194 0
M  V30 13846 C 1283.31 5.10936 -2.60254 0
M  V30 13847 N 1282.81 6.1059 -3.27341 0
M  V30 13848 N 1284.6 5.03393 -2.50104 0
M  V30 13849 H 1276.75 1.23184 -1.7303 0
M  V30 13850 H 1279.02 0.599541 -0.73434 0
M  V30 13851 H 1278.72 2.65078 -2.31141 0
M  V30 13852 H 1278.6 3.66646 -0.886036 0
M  V30 13853 H 1280.98 2.94375 -0.206736 0
M  V30 13854 H 1281.06 1.94303 -1.66373 0
M  V30 13855 H 1280.71 4.03063 -3.09035 0
M  V30 13856 H 1280.64 5.01481 -1.60701 0
M  V30 13857 H 1283.13 3.455 -1.53096 0
M  V30 13858 H 1283.44 6.78893 -3.6922 0
M  V30 13859 H 1281.79 6.10879 -3.31439 0
M  V30 13860 H 1284.98 4.24483 -1.9731 0
M  V30 13861 H 1285.15 5.76524 -2.95844 0
M  V30 13862 N 1278.56 0.518393 1.4883 0
M  V30 13863 C 1279.49 -0.239685 2.32267 0
M  V30 13864 C 1280.47 -0.94613 1.41359 0
M  V30 13865 O 1281.65 -0.934162 1.70256 0
M  V30 13866 C 1278.78 -1.29411 3.22289 0
M  V30 13867 C 1277.74 -0.706504 4.22129 0
M  V30 13868 C 1277.06 -1.86273 5.01205 0
M  V30 13869 C 1278.36 0.314079 5.21355 0
M  V30 13870 H 1280.06 0.4568 2.95895 0
M  V30 13871 H 1277.6 0.221126 1.42292 0
M  V30 13872 H 1279.56 -1.8323 3.7948 0
M  V30 13873 H 1278.28 -2.02001 2.56638 0
M  V30 13874 H 1276.94 -0.189924 3.66108 0
M  V30 13875 H 1276.59 -2.57674 4.31988 0
M  V30 13876 H 1276.29 -1.47554 5.68772 0
M  V30 13877 H 1277.81 -2.40492 5.61245 0
M  V30 13878 H 1279.22 -0.136604 5.73137 0
M  V30 13879 H 1277.62 0.618026 5.96909 0
M  V30 13880 H 1278.69 1.22394 4.69199 0
M  V30 13881 N 1280.03 -1.55556 0.252993 0
M  V30 13882 C 1281.28 -1.99385 -0.370599 0
M  V30 13883 C 1281.61 -1.14101 -1.57145 0
M  V30 13884 O 1280.89 -0.205828 -1.93408 0
M  V30 13885 C 1281.17 -3.51672 -0.774503 0
M  V30 13886 C 1281.02 -4.47719 0.432159 0
M  V30 13887 C 1282.34 -4.0923 -1.61923 0
M  V30 13888 H 1279.46 -0.724858 -0.133231 0
M  V30 13889 H 1282.1 -1.86644 0.355522 0
M  V30 13890 H 1280.25 -3.62661 -1.39318 0
M  V30 13891 H 1281.93 -4.48704 1.07063 0
M  V30 13892 H 1280.17 -4.2029 1.07419 0
M  V30 13893 H 1280.84 -5.51898 0.106123 0
M  V30 13894 H 1283.32 -4.01381 -1.09693 0
M  V30 13895 H 1282.19 -5.16039 -1.87068 0
M  V30 13896 H 1282.45 -3.58067 -2.59307 0
M  V30 13897 N 1281.51 0.0200419 -1.57587 0
M  V30 13898 C 1282.79 0.744946 -1.80859 0
M  V30 13899 C 1283.17 1.93089 -0.853218 0
M  V30 13900 O 1282.52 2.28269 0.10261 0
M  V30 13901 C 1282.73 1.16952 -3.28821 0
M  V30 13902 C 1284.08 1.5817 -3.9404 0
M  V30 13903 O 1285.1 1.26385 -3.33024 0
M  V30 13904 O 1283.96 2.17197 -5.01486 0
M  V30 13905 H 1281.05 0.360995 -0.744051 0
M  V30 13906 H 1283.6 -0.00387374 -1.697 0
M  V30 13907 H 1282.37 0.323304 -3.89962 0
M  V30 13908 H 1281.99 1.97807 -3.44903 0
M  V30 13909 N 1282.99 1.54862 0.292472 0
M  V30 13910 C 1284.27 1.65237 1.04671 0
M  V30 13911 C 1284.65 0.506168 2.04942 0
M  V30 13912 O 1284 -0.496123 2.23049 0
M  V30 13913 C 1284.21 3.03618 1.72095 0
M  V30 13914 C 1285.55 3.6072 2.23979 0
M  V30 13915 O 1286.58 3.06126 1.82114 0
M  V30 13916 O 1285.44 4.56328 3.0071 0
M  V30 13917 H 1282.53 0.670347 0.484319 0
M  V30 13918 H 1285.08 1.67206 0.28988 0
M  V30 13919 H 1283.85 3.78482 0.993324 0
M  V30 13920 H 1283.47 3.05464 2.54514 0
M  V30 13921 N 1284.47 -0.556076 1.47464 0
M  V30 13922 C 1285.72 -1.3132 1.54147 0
M  V30 13923 C 1286.04 -1.93425 0.204221 0
M  V30 13924 O 1285.3 -1.78467 -0.803002 0
M  V30 13925 C 1285.6 -2.44298 2.6087 0
M  V30 13926 C 1285.26 -2.00016 4.04109 0
M  V30 13927 C 1283.93 -1.87656 4.43101 0
M  V30 13928 C 1286.28 -1.66228 4.93981 0
M  V30 13929 C 1283.61 -1.39805 5.698 0
M  V30 13930 C 1285.96 -1.19848 6.21144 0
M  V30 13931 C 1284.62 -1.06084 6.59016 0
M  V30 13932 H 1283.89 -0.480534 0.564064 0
M  V30 13933 H 1286.54 -0.623449 1.81067 0
M  V30 13934 H 1284.84 -3.18834 2.27711 0
M  V30 13935 H 1286.54 -3.02479 2.63263 0
M  V30 13936 H 1283.13 -2.1058 3.73302 0
M  V30 13937 H 1287.31 -1.7465 4.64555 0
M  V30 13938 H 1282.57 -1.27814 5.97891 0
M  V30 13939 H 1286.74 -0.927657 6.90194 0
M  V30 13940 H 1284.37 -0.687834 7.57082 0
M  V30 13941 N 1285.95 -1.35615 -0.802897 0
M  V30 13942 C 1286.88 -1.31506 -1.92947 0
M  V30 13943 C 1287.86 -0.188843 -1.69048 0
M  V30 13944 O 1289.04 -0.384384 -1.90358 0
M  V30 13945 C 1286.17 -1.09001 -3.29752 0
M  V30 13946 C 1285.13 -2.18303 -3.68141 0
M  V30 13947 C 1284.45 -1.80959 -5.03148 0
M  V30 13948 C 1285.75 -3.60296 -3.78132 0
M  V30 13949 H 1287.45 -2.25771 -1.96642 0
M  V30 13950 H 1284.99 -1.08682 -0.944685 0
M  V30 13951 H 1286.95 -1.04766 -4.08169 0
M  V30 13952 H 1285.67 -0.111832 -3.26408 0
M  V30 13953 H 1284.33 -2.21642 -2.92011 0
M  V30 13954 H 1283.98 -0.817495 -4.96312 0
M  V30 13955 H 1283.68 -2.54129 -5.29804 0
M  V30 13956 H 1285.2 -1.78255 -5.84001 0
M  V30 13957 H 1286.62 -3.59259 -4.46773 0
M  V30 13958 H 1285.01 -4.32258 -4.16261 0
M  V30 13959 H 1286.08 -3.9618 -2.79588 0
M  V30 13960 N 1287.43 1.02549 -1.19673 0
M  V30 13961 C 1288.36 2.12794 -0.961289 0
M  V30 13962 C 1289.34 1.69766 0.106575 0
M  V30 13963 O 1290.52 1.94138 -0.0491358 0
M  V30 13964 C 1287.65 3.4364 -0.502868 0
M  V30 13965 C 1286.61 4.00367 -1.51296 0
M  V30 13966 C 1285.93 5.26874 -0.911491 0
M  V30 13967 C 1287.23 4.34782 -2.89416 0
M  V30 13968 H 1288.93 2.32748 -1.88331 0
M  V30 13969 H 1286.47 1.11852 -0.906922 0
M  V30 13970 H 1288.42 4.20141 -0.325436 0
M  V30 13971 H 1287.15 3.23418 0.454764 0
M  V30 13972 H 1285.81 3.25964 -1.67759 0
M  V30 13973 H 1285.46 5.02971 0.0537982 0
M  V30 13974 H 1285.16 5.65791 -1.58602 0
M  V30 13975 H 1286.68 6.06039 -0.74493 0
M  V30 13976 H 1288.09 5.02207 -2.76516 0
M  V30 13977 H 1286.49 4.8479 -3.53693 0
M  V30 13978 H 1287.56 3.43935 -3.41814 0
M  V30 13979 N 1288.9 1.00119 1.21713 0
M  V30 13980 C 1290.15 0.682733 1.90962 0
M  V30 13981 C 1290.48 -0.784131 1.77665 0
M  V30 13982 O 1289.76 -1.56799 1.15084 0
M  V30 13983 C 1290.04 1.09975 3.42896 0
M  V30 13984 C 1289.89 2.62578 3.65202 0
M  V30 13985 C 1291.21 0.659247 4.35134 0
M  V30 13986 H 1288.33 0.249501 0.693483 0
M  V30 13987 H 1290.97 1.24619 1.43423 0
M  V30 13988 H 1289.12 0.620334 3.83515 0
M  V30 13989 H 1290.8 3.18254 3.33934 0
M  V30 13990 H 1289.04 3.04268 3.09198 0
M  V30 13991 H 1289.71 2.86809 4.7164 0
M  V30 13992 H 1292.19 1.07116 4.02076 0
M  V30 13993 H 1291.06 0.979241 5.40095 0
M  V30 13994 H 1291.32 -0.439777 4.39907 0
M  V30 13995 N 1290.38 -1.37203 0.775435 0
M  V30 13996 C 1291.61 -2.03868 0.352927 0
M  V30 13997 C 1292.02 -1.58482 -1.0261 0
M  V30 13998 O 1291.38 -0.767772 -1.65564 0
M  V30 13999 C 1291.43 -3.59378 0.39116 0
M  V30 14000 O 1291.15 -4.03103 1.71579 0
M  V30 14001 C 1292.65 -4.4328 -0.0424808 0
M  V30 14002 H 1289.87 -0.654619 0.14736 0
M  V30 14003 H 1292.42 -1.75463 1.05039 0
M  V30 14004 H 1290.57 -3.86542 -0.257752 0
M  V30 14005 H 1290.99 -4.9764 1.65695 0
M  V30 14006 H 1292.46 -5.51989 0.0354215 0
M  V30 14007 H 1292.94 -4.25374 -1.09333 0
M  V30 14008 H 1293.54 -4.21349 0.578384 0
M  V30 14009 N 1291.86 -0.526279 -1.48553 0
M  V30 14010 C 1293.27 -0.0848694 -1.86507 0
M  V30 14011 C 1293.62 1.3367 -1.43621 0
M  V30 14012 O 1292.75 2.00046 -0.825268 0
M  V30 14013 C 1293.34 -0.147241 -3.3848 0
M  V30 14014 C 1291.9 0.238954 -3.75641 0
M  V30 14015 C 1291.05 -0.508648 -2.72595 0
M  V30 14016 H 1294 -0.737728 -1.40511 0
M  V30 14017 H 1294.02 0.641964 -3.75045 0
M  V30 14018 H 1293.53 -1.18199 -3.69663 0
M  V30 14019 H 1291.63 1.27598 -3.50071 0
M  V30 14020 H 1291.75 -0.0980808 -4.79 0
M  V30 14021 H 1290.11 0.0446382 -2.54661 0
M  V30 14022 H 1290.89 -1.54395 -3.06622 0
M  V30 14023 N 1293.34 1.5542 -0.261239 0
M  V30 14024 C 1294.29 2.18644 0.646442 0
M  V30 14025 C 1295.27 1.14672 1.12868 0
M  V30 14026 O 1296.46 1.40534 1.07606 0
M  V30 14027 C 1293.59 2.90045 1.83655 0
M  V30 14028 C 1292.68 4.01289 1.37214 0
M  V30 14029 N 1293.07 5.01949 0.622927 0
M  V30 14030 C 1291.37 4.14107 1.65625 0
M  V30 14031 C 1292.07 5.80454 0.380569 0
M  V30 14032 N 1291.04 5.35253 0.94897 0
M  V30 14033 H 1294.85 2.93826 0.0660348 0
M  V30 14034 H 1292.36 1.62273 -0.0641794 0
M  V30 14035 H 1294.36 3.33778 2.49796 0
M  V30 14036 H 1293.02 2.16369 2.42104 0
M  V30 14037 H 1294.03 5.17187 0.271619 0
M  V30 14038 H 1290.71 3.51613 2.2511 0
M  V30 14039 H 1292.1 6.71545 -0.218528 0
M  V30 14040 N 1294.82 -0.0116844 1.57596 0
M  V30 14041 C 1295.75 -1.00599 2.10718 0
M  V30 14042 C 1296.73 -1.36601 1.01362 0
M  V30 14043 O 1297.91 -1.4518 1.28982 0
M  V30 14044 C 1295.04 -2.30155 2.60089 0
M  V30 14045 C 1294 -2.08347 3.73866 0
M  V30 14046 C 1293.32 -3.43814 4.09507 0
M  V30 14047 C 1294.62 -1.45552 5.01609 0
M  V30 14048 H 1296.32 -0.563721 2.94045 0
M  V30 14049 H 1293.86 -0.269714 1.41452 0
M  V30 14050 H 1295.81 -3.00058 2.95877 0
M  V30 14051 H 1294.54 -2.76473 1.73868 0
M  V30 14052 H 1293.2 -1.40872 3.38453 0
M  V30 14053 H 1292.85 -3.87814 3.20326 0
M  V30 14054 H 1292.55 -3.30043 4.86154 0
M  V30 14055 H 1294.07 -4.15052 4.47844 0
M  V30 14056 H 1295.48 -2.05396 5.35243 0
M  V30 14057 H 1293.88 -1.42304 5.82983 0
M  V30 14058 H 1294.95 -0.423331 4.83049 0
M  V30 14059 N 1296.29 -1.55015 -0.284256 0
M  V30 14060 C 1297.52 -1.79102 -1.03586 0
M  V30 14061 C 1297.94 -0.558733 -1.80343 0
M  V30 14062 O 1297.29 0.471925 -1.76293 0
M  V30 14063 C 1297.34 -3.00915 -2.0033 0
M  V30 14064 O 1297.07 -4.19384 -1.26685 0
M  V30 14065 C 1298.57 -3.3752 -2.87394 0
M  V30 14066 H 1295.79 -0.596912 -0.306491 0
M  V30 14067 H 1298.33 -2.02005 -0.31845 0
M  V30 14068 H 1296.49 -2.80171 -2.67549 0
M  V30 14069 H 1296.9 -4.88175 -1.91796 0
M  V30 14070 H 1298.37 -4.25953 -3.51095 0
M  V30 14071 H 1298.85 -2.56418 -3.56576 0
M  V30 14072 H 1299.46 -3.60483 -2.25682 0
M  V30 14073 N 1297.77 0.548248 -1.47757 0
M  V30 14074 C 1298.72 1.65028 -1.57321 0
M  V30 14075 C 1299.71 1.55006 -0.431489 0
M  V30 14076 O 1300.9 1.63337 -0.681919 0
M  V30 14077 C 1298.03 3.0379 -1.59896 0
M  V30 14078 C 1297.11 3.18982 -2.79484 0
M  V30 14079 N 1297.5 3.04208 -4.04093 0
M  V30 14080 C 1295.8 3.50001 -2.76433 0
M  V30 14081 C 1296.5 3.2233 -4.8423 0
M  V30 14082 N 1295.48 3.49073 -4.16712 0
M  V30 14083 H 1299.28 1.52187 -2.51428 0
M  V30 14084 H 1296.79 0.753242 -1.43875 0
M  V30 14085 H 1298.79 3.82928 -1.64839 0
M  V30 14086 H 1297.45 3.17735 -0.668912 0
M  V30 14087 H 1298.46 2.81348 -4.34814 0
M  V30 14088 H 1295.14 3.70418 -1.92606 0
M  V30 14089 H 1296.53 3.15799 -5.9306 0
M  V30 14090 N 1299.25 1.36039 0.795694 0
M  V30 14091 C 1300.21 1.29709 1.88966 0
M  V30 14092 C 1301.21 0.206142 1.59473 0
M  V30 14093 O 1302.4 0.460534 1.68002 0
M  V30 14094 C 1299.53 1.00922 3.25619 0
M  V30 14095 H 1300.73 2.26993 1.95995 0
M  V30 14096 H 1298.28 1.2072 0.992791 0
M  V30 14097 H 1299.02 0.0407027 3.24274 0
M  V30 14098 H 1298.8 1.79863 3.48413 0
M  V30 14099 H 1300.29 0.990826 4.05675 0
M  V30 14100 N 1300.73 -1.01913 1.20215 0
M  V30 14101 C 1301.68 -2.104 0.948708 0
M  V30 14102 C 1302.65 -1.65665 -0.120139 0
M  V30 14103 O 1303.83 -1.90785 0.0240547 0
M  V30 14104 C 1300.97 -3.41398 0.504132 0
M  V30 14105 C 1300.08 -3.99625 1.64085 0
M  V30 14106 C 1299.22 -5.18673 1.14683 0
M  V30 14107 C 1298.26 -5.68977 2.2568 0
M  V30 14108 N 1297.39 -6.79289 1.77514 0
M  V30 14109 H 1302.23 -2.31415 1.87753 0
M  V30 14110 H 1299.77 -1.13487 0.935901 0
M  V30 14111 H 1301.73 -4.16578 0.22771 0
M  V30 14112 H 1300.36 -3.20463 -0.387689 0
M  V30 14113 H 1299.41 -3.21565 2.03225 0
M  V30 14114 H 1300.72 -4.32965 2.47674 0
M  V30 14115 H 1299.88 -6.01048 0.826223 0
M  V30 14116 H 1298.62 -4.86891 0.280797 0
M  V30 14117 H 1297.62 -4.85208 2.5856 0
M  V30 14118 H 1298.85 -6.02794 3.12755 0
M  V30 14119 H 1296.79 -6.49341 0.932338 0
M  V30 14120 H 1296.71 -7.11808 2.54686 0
M  V30 14121 H 1297.98 -7.65235 1.48446 0
M  V30 14122 N 1302.21 -1.00763 -1.2118 0
M  V30 14123 C 1303.43 -0.710746 -1.94309 0
M  V30 14124 C 1303.85 0.727103 -1.74237 0
M  V30 14125 O 1303.21 1.49223 -1.05065 0
M  V30 14126 C 1303.26 -1.02562 -3.46646 0
M  V30 14127 O 1302.98 -2.40699 -3.66054 0
M  V30 14128 C 1304.48 -0.748517 -4.36935 0
M  V30 14129 H 1301.7 -0.26171 -0.617858 0
M  V30 14130 H 1304.24 -1.34639 -1.53924 0
M  V30 14131 H 1302.4 -0.435537 -3.84944 0
M  V30 14132 H 1302.81 -2.51764 -4.60125 0
M  V30 14133 H 1304.29 -1.01899 -5.42513 0
M  V30 14134 H 1304.76 0.317423 -4.38051 0
M  V30 14135 H 1305.37 -1.32033 -4.04286 0
M  V30 14136 N 1303.68 1.3679 -0.7827 0
M  V30 14137 C 1304.93 1.99417 -0.352011 0
M  V30 14138 C 1305.26 1.62127 1.07448 0
M  V30 14139 O 1304.51 0.864449 1.75573 0
M  V30 14140 C 1304.81 3.54489 -0.455232 0
M  V30 14141 C 1304.48 4.11579 -1.84156 0
M  V30 14142 C 1303.14 4.26884 -2.22089 0
M  V30 14143 C 1305.49 4.4277 -2.74962 0
M  V30 14144 C 1302.82 4.70688 -3.50243 0
M  V30 14145 C 1305.17 4.88003 -4.02537 0
M  V30 14146 C 1303.84 5.01513 -4.40501 0
M  V30 14147 H 1303.11 0.729718 -0.12881 0
M  V30 14148 H 1305.75 1.63386 -0.998856 0
M  V30 14149 H 1304.06 3.90833 0.275129 0
M  V30 14150 H 1305.76 4.00867 -0.103127 0
M  V30 14151 H 1302.35 4.00102 -1.53677 0
M  V30 14152 H 1306.53 4.30521 -2.46912 0
M  V30 14153 H 1301.79 4.79335 -3.79537 0
M  V30 14154 H 1305.96 5.11102 -4.73019 0
M  V30 14155 H 1303.59 5.35214 -5.39861 0
M  V30 14156 N 1305.16 0.53415 1.48272 0
M  V30 14157 C 1306.09 -0.215037 2.32508 0
M  V30 14158 C 1307.07 -0.931083 1.42355 0
M  V30 14159 O 1308.26 -0.916051 1.71237 0
M  V30 14160 C 1305.39 -1.25985 3.23643 0
M  V30 14161 C 1304.34 -0.661692 4.22854 0
M  V30 14162 C 1303.67 -1.80946 5.03153 0
M  V30 14163 C 1304.97 0.369358 5.20992 0
M  V30 14164 H 1306.66 0.488158 2.95394 0
M  V30 14165 H 1304.21 0.236206 1.4205 0
M  V30 14166 H 1306.16 -1.79195 3.81402 0
M  V30 14167 H 1304.89 -1.99268 2.58766 0
M  V30 14168 H 1303.54 -0.151082 3.66289 0
M  V30 14169 H 1303.19 -2.53077 4.34696 0
M  V30 14170 H 1302.89 -1.41513 5.70305 0
M  V30 14171 H 1304.42 -2.34526 5.63764 0
M  V30 14172 H 1305.83 -0.0758076 5.7325 0
M  V30 14173 H 1304.23 0.681301 5.9622 0
M  V30 14174 H 1305.3 1.27363 4.67875 0
M  V30 14175 N 1306.64 -1.55279 0.269478 0
M  V30 14176 C 1308.06 -1.59374 -0.0848147 0
M  V30 14177 C 1308.26 -1.2867 -1.55068 0
M  V30 14178 O 1307.31 -1.04486 -2.29867 0
M  V30 14179 C 1308.63 -2.99349 0.284735 0
M  V30 14180 C 1310.17 -3.12147 0.230887 0
M  V30 14181 C 1310.65 -4.54379 0.574795 0
M  V30 14182 N 1312.14 -4.60202 0.526136 0
M  V30 14183 C 1312.87 -5.68273 0.765109 0
M  V30 14184 N 1312.37 -6.84512 1.0684 0
M  V30 14185 N 1314.16 -5.57796 0.694287 0
M  V30 14186 H 1306.31 -1.73503 1.22517 0
M  V30 14187 H 1308.58 -0.808771 0.494564 0
M  V30 14188 H 1308.28 -3.26633 1.30398 0
M  V30 14189 H 1308.16 -3.75309 -0.377199 0
M  V30 14190 H 1310.54 -2.84631 -0.779064 0
M  V30 14191 H 1310.63 -2.38412 0.926998 0
M  V30 14192 H 1310.27 -4.8262 1.58241 0
M  V30 14193 H 1310.2 -5.26406 -0.143044 0
M  V30 14194 H 1312.69 -3.76696 0.301368 0
M  V30 14195 H 1313 -7.62826 1.23757 0
M  V30 14196 H 1311.35 -6.86141 1.10612 0
M  V30 14197 H 1314.54 -4.65862 0.457226 0
M  V30 14198 H 1314.71 -6.41943 0.883913 0
M  V30 14199 N 1308.12 0.00332656 -1.576 0
M  V30 14200 C 1309.35 0.699945 -1.94701 0
M  V30 14201 C 1309.76 1.67492 -0.871312 0
M  V30 14202 O 1309.12 1.81882 0.150054 0
M  V30 14203 C 1309.17 1.43471 -3.31811 0
M  V30 14204 O 1308.89 0.498835 -4.35251 0
M  V30 14205 C 1310.39 2.22614 -3.83351 0
M  V30 14206 H 1307.61 0.195158 -0.641993 0
M  V30 14207 H 1310.16 -0.0468044 -2.04446 0
M  V30 14208 H 1308.31 2.13311 -3.23384 0
M  V30 14209 H 1308.72 1.01688 -5.14548 0
M  V30 14210 H 1310.2 2.69527 -4.81725 0
M  V30 14211 H 1310.68 3.05146 -3.15883 0
M  V30 14212 H 1311.28 1.57796 -3.94944 0
M  V30 14213 N 1309.6 1.55164 0.276031 0
M  V30 14214 C 1310.53 1.90844 1.34539 0
M  V30 14215 C 1311.51 0.769968 1.51676 0
M  V30 14216 O 1312.69 1.02785 1.64769 0
M  V30 14217 C 1309.82 2.17769 2.70543 0
M  V30 14218 C 1308.78 3.33592 2.68142 0
M  V30 14219 C 1308.1 3.45991 4.07669 0
M  V30 14220 C 1309.4 4.70064 2.27678 0
M  V30 14221 H 1311.1 2.80412 1.04926 0
M  V30 14222 H 1308.64 1.34918 0.503303 0
M  V30 14223 H 1310.6 2.41317 3.45462 0
M  V30 14224 H 1309.32 1.24997 3.01734 0
M  V30 14225 H 1307.98 3.10007 1.95681 0
M  V30 14226 H 1307.63 2.50691 4.36077 0
M  V30 14227 H 1307.33 4.23862 4.06958 0
M  V30 14228 H 1308.85 3.71828 4.84331 0
M  V30 14229 H 1310.26 4.93176 2.92319 0
M  V30 14230 H 1308.66 5.50829 2.38134 0
M  V30 14231 H 1309.73 4.69091 1.22808 0
M  V30 14232 N 1311.07 -0.540404 1.48045 0
M  V30 14233 C 1312.32 -1.2987 1.55762 0
M  V30 14234 C 1312.65 -1.92877 0.226307 0
M  V30 14235 O 1311.93 -1.7875 -0.766727 0
M  V30 14236 C 1312.21 -2.39602 2.68817 0
M  V30 14237 C 1312.06 -1.81354 4.1162 0
M  V30 14238 C 1313.38 -3.41434 2.77688 0
M  V30 14239 H 1310.5 -0.47083 0.566999 0
M  V30 14240 H 1313.14 -0.603081 1.80175 0
M  V30 14241 H 1311.29 -2.98936 2.48132 0
M  V30 14242 H 1312.97 -1.26151 4.43716 0
M  V30 14243 H 1311.21 -1.1194 4.19108 0
M  V30 14244 H 1311.88 -2.60758 4.86528 0
M  V30 14245 H 1314.36 -2.92042 2.96396 0
M  V30 14246 H 1313.23 -4.15621 3.5854 0
M  V30 14247 H 1313.49 -4.01336 1.85422 0
M  V30 14248 N 1312.55 -1.36459 -0.788468 0
M  V30 14249 C 1313.97 -1.16893 -1.08666 0
M  V30 14250 C 1314.17 0.00633808 -2.01499 0
M  V30 14251 O 1313.22 0.671417 -2.4341 0
M  V30 14252 C 1314.54 -2.48018 -1.70022 0
M  V30 14253 C 1316.09 -2.5439 -1.82358 0
M  V30 14254 C 1316.56 -3.85605 -2.47129 0
M  V30 14255 N 1318.05 -3.86956 -2.54597 0
M  V30 14256 C 1318.79 -4.85224 -3.05525 0
M  V30 14257 N 1318.28 -5.93885 -3.56753 0
M  V30 14258 N 1320.08 -4.72643 -3.04246 0
M  V30 14259 H 1312.23 -2.11705 -0.171733 0
M  V30 14260 H 1314.49 -0.937784 -0.1388 0
M  V30 14261 H 1314.2 -3.34292 -1.09277 0
M  V30 14262 H 1314.07 -2.63894 -2.69518 0
M  V30 14263 H 1316.46 -1.68534 -2.4224 0
M  V30 14264 H 1316.54 -2.42414 -0.816651 0
M  V30 14265 H 1316.18 -4.71868 -1.87891 0
M  V30 14266 H 1316.11 -3.94878 -3.48395 0
M  V30 14267 H 1318.6 -3.08453 -2.18323 0
M  V30 14268 H 1318.92 -6.64839 -3.93966 0
M  V30 14269 H 1317.26 -5.97553 -3.54902 0
M  V30 14270 H 1320.45 -3.86883 -2.63513 0
M  V30 14271 H 1320.62 -5.49385 -3.43627 0
M  V30 14272 N 1314.03 1.01274 -1.20754 0
M  V30 14273 C 1315.28 1.74586 -1.01804 0
M  V30 14274 C 1315.6 1.89727 0.450419 0
M  V30 14275 O 1314.87 1.44257 1.32539 0
M  V30 14276 H 1313.45 0.646804 -0.373702 0
M  V30 14277 H 1316.11 1.22079 -1.5193 0
M  V30 14278 H 1315.21 2.748 -1.47958 0
M  V30 14279 N 1315.51 1.01404 1.20644 0
M  V30 14280 C 1316.76 0.702949 1.90227 0
M  V30 14281 C 1317.09 -0.765243 1.78487 0
M  V30 14282 O 1316.36 -1.55569 1.16741 0
M  V30 14283 C 1316.65 1.13606 3.4171 0
M  V30 14284 C 1316.5 2.66437 3.62397 0
M  V30 14285 C 1317.82 0.705361 4.34411 0
M  V30 14286 H 1314.94 0.256842 0.690797 0
M  V30 14287 H 1317.58 1.26133 1.42093 0
M  V30 14288 H 1315.73 0.660977 3.82836 0
M  V30 14289 H 1317.4 3.21778 3.3054 0
M  V30 14290 H 1315.64 3.0753 3.05954 0
M  V30 14291 H 1316.32 2.91795 4.68572 0
M  V30 14292 H 1318.79 1.11375 4.00918 0
M  V30 14293 H 1317.67 1.03647 5.39026 0
M  V30 14294 H 1317.93 -0.393094 4.40349 0
M  V30 14295 N 1316.99 -1.36373 0.789944 0
M  V30 14296 C 1318.4 -1.81783 0.425677 0
M  V30 14297 C 1318.75 -1.65711 -1.05045 0
M  V30 14298 O 1317.87 -1.17835 -1.81505 0
M  V30 14299 C 1318.47 -3.3003 0.765866 0
M  V30 14300 C 1317.03 -3.73647 0.454421 0
M  V30 14301 C 1316.18 -2.58632 1.00023 0
M  V30 14302 H 1319.13 -1.24587 0.983044 0
M  V30 14303 H 1319.15 -3.80457 0.0571624 0
M  V30 14304 H 1318.66 -3.41696 1.84026 0
M  V30 14305 H 1316.76 -3.67541 -0.611918 0
M  V30 14306 H 1316.87 -4.69066 0.975401 0
M  V30 14307 H 1315.24 -2.51156 0.423434 0
M  V30 14308 H 1316.02 -2.73083 2.0804 0
M  V30 14309 N 1318.47 -0.542005 -1.47987 0
M  V30 14310 C 1319.38 0.217677 -2.33588 0
M  V30 14311 C 1320.39 0.927093 -1.47245 0
M  V30 14312 O 1321.57 0.899378 -1.80203 0
M  V30 14313 C 1318.63 1.24376 -3.23622 0
M  V30 14314 C 1317.69 0.543407 -4.25847 0
M  V30 14315 C 1316.93 1.5206 -5.11579 0
M  V30 14316 O 1317.15 2.75425 -4.99497 0
M  V30 14317 O 1316.08 1.05341 -5.9261 0
M  V30 14318 H 1319.91 -0.484089 -2.99817 0
M  V30 14319 H 1317.49 -0.302783 -1.463 0
M  V30 14320 H 1319.38 1.83644 -3.7928 0
M  V30 14321 H 1318.05 1.92772 -2.6004 0
M  V30 14322 H 1316.96 -0.090074 -3.73992 0
M  V30 14323 H 1318.29 -0.0988264 -4.92101 0
M  V30 14324 N 1319.94 1.55134 -0.277709 0
M  V30 14325 C 1321.17 2.03765 0.341106 0
M  V30 14326 C 1321.58 1.15543 1.49822 0
M  V30 14327 O 1320.92 0.168642 1.82924 0
M  V30 14328 C 1320.99 3.48513 0.881974 0
M  V30 14329 C 1320.65 4.56764 -0.146837 0
M  V30 14330 C 1321.65 5.10823 -0.967252 0
M  V30 14331 C 1319.33 5.01509 -0.281824 0
M  V30 14332 C 1321.33 6.08147 -1.90882 0
M  V30 14333 C 1319.01 5.98658 -1.22686 0
M  V30 14334 C 1320.01 6.51859 -2.03886 0
M  V30 14335 O 1319.7 7.47108 -2.96791 0
M  V30 14336 H 1319.43 0.671068 0.0815052 0
M  V30 14337 H 1321.99 2.013 -0.408341 0
M  V30 14338 H 1320.22 3.48226 1.68154 0
M  V30 14339 H 1321.9 3.80469 1.41416 0
M  V30 14340 H 1322.67 4.77065 -0.873714 0
M  V30 14341 H 1318.55 4.59743 0.340203 0
M  V30 14342 H 1322.09 6.49597 -2.54301 0
M  V30 14343 H 1317.99 6.31834 -1.32121 0
M  V30 14344 H 1318.76 7.64832 -2.91502 0
M  V30 14345 N 1321.42 0.00503138 1.57599 0
M  V30 14346 C 1322.67 -0.67742 1.90409 0
M  V30 14347 C 1322.99 -1.74033 0.87963 0
M  V30 14348 O 1322.26 -1.95727 -0.0822757 0
M  V30 14349 H 1320.84 -0.2532 0.702779 0
M  V30 14350 H 1323.5 0.0471466 1.94843 0
M  V30 14351 H 1322.6 -1.14548 2.90319 0
M  V30 14352 N 1322.9 -1.55308 -0.267798 0
M  V30 14353 C 1324.14 -1.77913 -1.0063 0
M  V30 14354 C 1324.5 -0.571149 -1.83308 0
M  V30 14355 O 1325.7 -0.675552 -2.60173 0
M  V30 14356 C 1323.98 -3.05112 -1.86123 0
M  V30 14357 S 1325.53 -3.48856 -2.66167 0
M  V30 14358 H 1322.35 -0.625065 -0.338843 0
M  V30 14359 H 1324.95 -1.93539 -0.276196 0
M  V30 14360 H 1323.66 -3.91118 -1.24317 0
M  V30 14361 H 1323.19 -2.92165 -2.63444 0
M  V30 14362 H 1325.2 -3.0854 -3.8861 0
M  V30 14363 N 1324.38 0.532545 -1.4833 0
M  V30 14364 C 1325.62 1.29042 -1.56448 0
M  V30 14365 C 1325.96 1.92754 -0.236532 0
M  V30 14366 O 1325.23 1.79154 0.757237 0
M  V30 14367 C 1325.51 2.38173 -2.70084 0
M  V30 14368 C 1325.37 1.79169 -4.12576 0
M  V30 14369 C 1326.69 3.39957 -2.79495 0
M  V30 14370 H 1323.81 0.467816 -0.569488 0
M  V30 14371 H 1326.45 0.593517 -1.80492 0
M  V30 14372 H 1324.6 2.97616 -2.49714 0
M  V30 14373 H 1326.27 1.23797 -4.44378 0
M  V30 14374 H 1324.51 1.09716 -4.19696 0
M  V30 14375 H 1325.18 2.58174 -4.87904 0
M  V30 14376 H 1327.66 2.90466 -2.97941 0
M  V30 14377 H 1326.54 4.13714 -3.60739 0
M  V30 14378 H 1326.8 4.00347 -1.87548 0
M  V30 14379 N 1325.86 1.36875 0.78122 0
M  V30 14380 C 1327.1 1.31754 1.54171 0
M  V30 14381 C 1327.43 -0.100632 1.93939 0
M  V30 14382 O 1326.71 -1.05587 1.63345 0
M  V30 14383 C 1326.99 2.24789 2.81322 0
M  V30 14384 C 1326.85 3.75342 2.47868 0
M  V30 14385 C 1328.16 2.16442 3.83198 0
M  V30 14386 H 1325.28 0.479931 0.559317 0
M  V30 14387 H 1327.93 1.67497 0.896935 0
M  V30 14388 H 1326.08 1.94438 3.36342 0
M  V30 14389 H 1327.75 4.16247 1.98836 0
M  V30 14390 H 1325.99 3.94375 1.80696 0
M  V30 14391 H 1326.66 4.3586 3.38719 0
M  V30 14392 H 1329.14 2.43175 3.37647 0
M  V30 14393 H 1328.01 2.83695 4.69903 0
M  V30 14394 H 1328.27 1.15431 4.26765 0
M  V30 14395 N 1327.33 -1.00632 1.21289 0
M  V30 14396 C 1328.28 -2.11502 0.96798 0
M  V30 14397 C 1329.28 -1.6919 -0.0843024 0
M  V30 14398 O 1330.48 -1.79875 0.06697 0
M  V30 14399 H 1326.86 -0.691398 0.295759 0
M  V30 14400 H 1328.83 -2.29337 1.90911 0
M  V30 14401 C 1327.58 -3.43357 0.547818 0
M  V30 14402 H 1326.9 -3.76348 1.34915 0
M  V30 14403 H 1328.34 -4.21957 0.415759 0
M  V30 14404 C 1326.8 -3.28648 -0.741086 0
M  V30 14405 O 1327.33 -3.59267 -1.79695 0
M  V30 14406 N 1325.53 -2.81866 -0.707084 0
M  V30 14407 H 1325.08 -2.57149 0.152447 0
M  V30 14408 H 1325.04 -2.72406 -1.56979 0
M  V30 14409 N 1328.81 -1.02043 -1.20104 0
M  V30 14410 C 1329.74 -0.614421 -2.25271 0
M  V30 14411 C 1330.72 0.37242 -1.65973 0
M  V30 14412 O 1331.91 0.257005 -1.92492 0
M  V30 14413 C 1329.04 0.0442085 -3.47272 0
M  V30 14414 C 1327.99 -0.864019 -4.19188 0
M  V30 14415 C 1327.32 -0.0709551 -5.34653 0
M  V30 14416 C 1328.62 -2.17385 -4.74912 0
M  V30 14417 H 1330.31 -1.49355 -2.59487 0
M  V30 14418 H 1327.86 -0.719591 -1.24731 0
M  V30 14419 H 1329.81 0.339825 -4.20028 0
M  V30 14420 H 1328.53 0.958082 -3.12231 0
M  V30 14421 H 1327.19 -1.1437 -3.48303 0
M  V30 14422 H 1326.84 0.844688 -4.95857 0
M  V30 14423 H 1326.54 -0.67583 -5.83701 0
M  V30 14424 H 1328.07 0.218118 -6.1021 0
M  V30 14425 H 1329.48 -1.94034 -5.39466 0
M  V30 14426 H 1327.88 -2.72991 -5.34412 0
M  V30 14427 H 1328.95 -2.83427 -3.93443 0
M  V30 14428 N 1330.29 1.35952 -0.797165 0
M  V30 14429 C 1331.71 1.52218 -0.479765 0
M  V30 14430 C 1331.91 1.74898 1.00064 0
M  V30 14431 O 1330.96 1.78495 1.78594 0
M  V30 14432 C 1332.28 2.70328 -1.31694 0
M  V30 14433 C 1333.82 2.84202 -1.31142 0
M  V30 14434 C 1334.3 4.05325 -2.13251 0
M  V30 14435 N 1335.79 4.12485 -2.10737 0
M  V30 14436 C 1336.52 5.053 -2.71033 0
M  V30 14437 N 1336.02 6.03509 -3.40219 0
M  V30 14438 N 1337.81 4.97975 -2.60725 0
M  V30 14439 H 1329.96 1.19486 -1.75604 0
M  V30 14440 H 1332.23 0.58383 -0.746892 0
M  V30 14441 H 1331.93 2.60116 -2.36712 0
M  V30 14442 H 1331.81 3.64684 -0.963607 0
M  V30 14443 H 1334.19 2.9387 -0.269131 0
M  V30 14444 H 1334.28 1.9073 -1.70457 0
M  V30 14445 H 1333.92 3.96417 -3.17515 0
M  V30 14446 H 1333.85 4.97959 -1.71302 0
M  V30 14447 H 1336.34 3.42174 -1.6039 0
M  V30 14448 H 1336.65 6.70909 -3.83537 0
M  V30 14449 H 1335 6.03711 -3.44322 0
M  V30 14450 H 1338.19 4.20203 -2.0627 0
M  V30 14451 H 1338.36 5.70119 -3.08007 0
M  V30 14452 N 1331.77 0.549846 1.47697 0
M  V30 14453 C 1332.72 -0.201961 2.29915 0
M  V30 14454 C 1333.69 -0.915287 1.38606 0
M  V30 14455 O 1334.87 -0.912427 1.67569 0
M  V30 14456 C 1332.01 -1.2306 3.22413 0
M  V30 14457 C 1331.12 -0.524091 4.28809 0
M  V30 14458 C 1330.26 -1.53738 5.08466 0
M  V30 14459 C 1329.3 -0.815437 6.06644 0
M  V30 14460 N 1328.43 -1.77521 6.79287 0
M  V30 14461 H 1333.27 0.505289 2.93685 0
M  V30 14462 H 1330.81 0.261012 1.44766 0
M  V30 14463 H 1332.77 -1.83949 3.74458 0
M  V30 14464 H 1331.4 -1.90597 2.60523 0
M  V30 14465 H 1330.45 0.199174 3.79878 0
M  V30 14466 H 1331.76 0.0418145 4.98782 0
M  V30 14467 H 1330.92 -2.22001 5.64624 0
M  V30 14468 H 1329.66 -2.1372 4.38378 0
M  V30 14469 H 1328.66 -0.11884 5.49672 0
M  V30 14470 H 1329.89 -0.221462 6.78739 0
M  V30 14471 H 1327.83 -2.36374 6.11934 0
M  V30 14472 H 1327.75 -1.26126 7.45405 0
M  V30 14473 H 1329.02 -2.44921 7.40023 0
M  V30 14474 N 1333.25 -1.54984 0.285932 0
M  V30 14475 C 1334.47 -2.04239 -0.330774 0
M  V30 14476 C 1334.89 -1.16387 -1.48659 0
M  V30 14477 O 1334.25 -0.186255 -1.81547 0
M  V30 14478 C 1334.3 -3.52504 -0.801456 0
M  V30 14479 O 1334.02 -4.37014 0.30834 0
M  V30 14480 C 1335.52 -4.17692 -1.48487 0
M  V30 14481 H 1332.74 -0.666903 -0.0740351 0
M  V30 14482 H 1335.28 -2.00116 0.421178 0
M  V30 14483 H 1333.44 -3.57036 -1.50347 0
M  V30 14484 H 1333.85 -5.24471 -0.0553891 0
M  V30 14485 H 1335.33 -5.23004 -1.76552 0
M  V30 14486 H 1335.8 -3.66515 -2.41999 0
M  V30 14487 H 1336.41 -4.17193 -0.826428 0
M  V30 14488 N 1334.72 -0.0133892 -1.57594 0
M  V30 14489 C 1335.97 0.669624 -1.91426 0
M  V30 14490 C 1336.3 1.72675 -0.888656 0
M  V30 14491 O 1335.58 1.94288 0.0908138 0
M  V30 14492 C 1335.86 1.30051 -3.35796 0
M  V30 14493 C 1335.71 0.254021 -4.49082 0
M  V30 14494 C 1337.03 2.22297 -3.79832 0
M  V30 14495 H 1334.15 0.241958 -0.69615 0
M  V30 14496 H 1336.79 -0.0674278 -1.8988 0
M  V30 14497 H 1334.94 1.92871 -3.37243 0
M  V30 14498 H 1336.62 -0.375524 -4.59769 0
M  V30 14499 H 1334.86 -0.422267 -4.3174 0
M  V30 14500 H 1335.53 0.734756 -5.47088 0
M  V30 14501 H 1338.01 1.69481 -3.8002 0
M  V30 14502 H 1336.88 2.634 -4.81572 0
M  V30 14503 H 1337.14 3.10764 -3.14449 0
M  V30 14504 N 1336.2 1.55448 0.259558 0
M  V30 14505 C 1337.45 1.76948 0.990816 0
M  V30 14506 C 1337.78 0.576401 1.85449 0
M  V30 14507 O 1337.06 -0.425693 1.89784 0
M  V30 14508 C 1337.34 3.08221 1.86204 0
M  V30 14509 C 1337.19 4.37909 1.0274 0
M  V30 14510 C 1338.51 3.35627 2.84679 0
M  V30 14511 H 1335.63 0.64377 0.358788 0
M  V30 14512 H 1338.27 1.88182 0.262211 0
M  V30 14513 H 1336.42 2.98775 2.48326 0
M  V30 14514 H 1338.09 4.5933 0.425855 0
M  V30 14515 H 1336.34 4.32533 0.331308 0
M  V30 14516 H 1337.01 5.26116 1.6705 0
M  V30 14517 H 1339.48 3.44954 2.32693 0
M  V30 14518 H 1338.36 4.28719 3.42769 0
M  V30 14519 H 1338.62 2.55921 3.60496 0
M  V30 14520 N 1337.68 -0.524672 1.4861 0
M  V30 14521 C 1338.63 -1.64965 1.6398 0
M  V30 14522 C 1339.62 -1.61663 0.506118 0
M  V30 14523 O 1340.83 -1.66456 0.685013 0
M  V30 14524 H 1337.2 -0.546419 0.516653 0
M  V30 14525 H 1339.17 -1.49146 2.58453 0
M  V30 14526 C 1337.92 -3.03215 1.70165 0
M  V30 14527 H 1337.25 -3.06451 2.56764 0
M  V30 14528 H 1338.69 -3.8153 1.84962 0
M  V30 14529 C 1337.15 -3.33996 0.44143 0
M  V30 14530 O 1337.68 -3.99246 -0.443356 0
M  V30 14531 N 1335.88 -2.88925 0.311518 0
M  V30 14532 H 1335.43 -2.36003 1.0325 0
M  V30 14533 H 1335.39 -3.09889 -0.530655 0
M  V30 14534 N 1339.16 -1.37287 -0.77395 0
M  V30 14535 C 1340.41 -1.32374 -1.53243 0
M  V30 14536 C 1340.73 0.0924284 -1.9428 0
M  V30 14537 O 1339.99 1.06517 -1.64173 0
M  V30 14538 C 1340.29 -2.20667 -2.81142 0
M  V30 14539 C 1339.95 -3.68975 -2.59168 0
M  V30 14540 C 1338.62 -4.09394 -2.52884 0
M  V30 14541 C 1340.97 -4.62941 -2.39447 0
M  V30 14542 C 1338.3 -5.41897 -2.24865 0
M  V30 14543 C 1340.65 -5.9568 -2.12952 0
M  V30 14544 C 1339.31 -6.35205 -2.05111 0
M  V30 14545 H 1338.58 -0.48439 -0.560756 0
M  V30 14546 H 1341.23 -1.69475 -0.891663 0
M  V30 14547 H 1339.53 -1.76553 -3.49766 0
M  V30 14548 H 1341.23 -2.1418 -3.3901 0
M  V30 14549 H 1337.82 -3.36919 -2.64922 0
M  V30 14550 H 1342 -4.32576 -2.43293 0
M  V30 14551 H 1337.26 -5.71486 -2.17288 0
M  V30 14552 H 1341.43 -6.68046 -1.9669 0
M  V30 14553 H 1339.06 -7.37804 -1.83163 0
M  V30 14554 N 1340.64 0.999871 -1.21821 0
M  V30 14555 C 1342.05 1.5529 -1.03642 0
M  V30 14556 C 1342.4 1.92032 0.402246 0
M  V30 14557 O 1341.52 1.74027 1.28622 0
M  V30 14558 C 1342.12 2.82177 -1.87514 0
M  V30 14559 C 1340.68 3.33949 -1.73653 0
M  V30 14560 C 1339.82 2.07095 -1.84409 0
M  V30 14561 H 1342.78 0.821751 -1.35768 0
M  V30 14562 H 1342.8 3.54264 -1.38842 0
M  V30 14563 H 1342.31 2.55405 -2.92216 0
M  V30 14564 H 1340.41 3.65645 -0.716554 0
M  V30 14565 H 1340.52 4.05022 -2.55918 0
M  V30 14566 H 1338.89 2.20332 -1.27773 0
M  V30 14567 H 1339.67 1.82728 -2.90629 0
M  V30 14568 N 1342.11 1.02678 1.19562 0
M  V30 14569 C 1343.36 0.723086 1.89471 0
M  V30 14570 C 1343.69 -0.746269 1.79289 0
M  V30 14571 O 1342.97 -1.54322 1.18384 0
M  V30 14572 C 1343.25 1.17224 3.40486 0
M  V30 14573 C 1343.1 2.70266 3.5955 0
M  V30 14574 C 1344.42 0.751397 4.33638 0
M  V30 14575 H 1341.54 0.264155 0.688034 0
M  V30 14576 H 1344.18 1.27633 1.40747 0
M  V30 14577 H 1342.33 0.701544 3.82113 0
M  V30 14578 H 1344.01 3.25266 3.27108 0
M  V30 14579 H 1342.25 3.10758 3.02675 0
M  V30 14580 H 1342.92 2.96748 4.65451 0
M  V30 14581 H 1345.4 1.15621 3.99714 0
M  V30 14582 H 1344.27 1.09358 5.37896 0
M  V30 14583 H 1344.53 -0.346367 4.40741 0
M  V30 14584 N 1343.59 -1.35528 0.804364 0
M  V30 14585 C 1344.5 -2.33616 0.214663 0
M  V30 14586 C 1345.52 -1.61757 -0.64115 0
M  V30 14587 O 1346.69 -1.93647 -0.553424 0
M  V30 14588 C 1343.76 -3.40951 -0.628778 0
M  V30 14589 C 1342.82 -4.28587 0.247269 0
M  V30 14590 C 1342.05 -5.30796 -0.556012 0
M  V30 14591 O 1342.28 -5.41557 -1.79088 0
M  V30 14592 O 1341.21 -6.01878 0.0519437 0
M  V30 14593 H 1345.04 -2.85843 1.02605 0
M  V30 14594 H 1342.62 -1.38259 0.566108 0
M  V30 14595 H 1344.5 -4.06538 -1.10926 0
M  V30 14596 H 1343.18 -2.90999 -1.4178 0
M  V30 14597 H 1342.09 -3.65988 0.774835 0
M  V30 14598 H 1343.42 -4.81931 1.00017 0
M  V30 14599 N 1345.07 -0.557671 -1.47404 0
M  V30 14600 C 1346.35 0.031908 -1.95574 0
M  V30 14601 C 1346.73 1.48509 -1.50027 0
M  V30 14602 O 1346.08 2.16209 -0.73932 0
M  V30 14603 C 1346.29 -0.114055 -3.48814 0
M  V30 14604 C 1347.63 0.0310533 -4.24589 0
M  V30 14605 O 1348.66 -0.041626 -3.56176 0
M  V30 14606 O 1347.52 0.187487 -5.46178 0
M  V30 14607 H 1344.61 0.0638747 -0.82453 0
M  V30 14608 H 1347.16 -0.624227 -1.57802 0
M  V30 14609 H 1345.93 -1.12525 -3.74772 0
M  V30 14610 H 1345.55 0.57967 -3.93352 0
M  V30 14611 N 1346.55 1.54831 -0.294147 0
M  V30 14612 C 1347.46 2.26939 0.594621 0
M  V30 14613 C 1348.48 1.30209 1.15419 0
M  V30 14614 O 1349.65 1.6318 1.18044 0
M  V30 14615 C 1346.72 2.9909 1.75345 0
M  V30 14616 C 1345.78 4.11342 1.22865 0
M  V30 14617 C 1345.01 4.80043 2.33225 0
M  V30 14618 O 1345.23 4.48062 3.52983 0
M  V30 14619 O 1344.17 5.67593 2.00304 0
M  V30 14620 H 1347.99 3.03698 0.00989235 0
M  V30 14621 H 1345.58 1.49276 -0.0608528 0
M  V30 14622 H 1347.46 3.44369 2.42875 0
M  V30 14623 H 1346.14 2.25232 2.32492 0
M  V30 14624 H 1345.04 3.70478 0.519279 0
M  V30 14625 H 1346.38 4.87158 0.702703 0
M  V30 14626 N 1348.03 0.0217466 1.57585 0
M  V30 14627 C 1348.99 -0.947546 2.08696 0
M  V30 14628 C 1349.99 -1.25879 1.00055 0
M  V30 14629 O 1351.18 -1.20035 1.26242 0
M  V30 14630 C 1348.31 -2.26624 2.54665 0
M  V30 14631 H 1349.51 -0.505016 2.95617 0
M  V30 14632 H 1347.06 -0.226152 1.54655 0
M  V30 14633 H 1347.79 -2.75521 1.71052 0
M  V30 14634 H 1347.58 -2.05347 3.34028 0
M  V30 14635 H 1349.07 -2.96114 2.94459 0
M  V30 14636 N 1349.51 -1.55583 -0.251311 0
M  V30 14637 C 1350.44 -1.9296 -1.31486 0
M  V30 14638 C 1351.42 -0.794001 -1.50431 0
M  V30 14639 O 1352.6 -1.05393 -1.63113 0
M  V30 14640 C 1349.73 -2.22046 -2.67045 0
M  V30 14641 C 1348.69 -3.37816 -2.62801 0
M  V30 14642 C 1348.01 -3.52433 -4.02113 0
M  V30 14643 C 1349.31 -4.73626 -2.20171 0
M  V30 14644 H 1351.01 -2.82046 -1.00451 0
M  V30 14645 H 1348.55 -1.35702 -0.481775 0
M  V30 14646 H 1350.5 -2.46783 -3.41579 0
M  V30 14647 H 1349.23 -1.29782 -2.99707 0
M  V30 14648 H 1347.89 -3.13081 -1.90724 0
M  V30 14649 H 1347.54 -2.57597 -4.32034 0
M  V30 14650 H 1347.24 -4.30283 -4.00163 0
M  V30 14651 H 1348.76 -3.79486 -4.78354 0
M  V30 14652 H 1350.17 -4.97764 -2.84436 0
M  V30 14653 H 1348.57 -5.54547 -2.29341 0
M  V30 14654 H 1349.64 -4.70985 -1.1533 0
M  V30 14655 N 1350.98 0.516783 -1.48886 0
M  V30 14656 C 1352.23 1.26936 -1.57263 0
M  V30 14657 C 1352.55 1.93337 -0.254156 0
M  V30 14658 O 1351.82 1.81977 0.725345 0
M  V30 14659 H 1350.4 0.4715 -0.579393 0
M  V30 14660 H 1353.06 0.600289 -1.85425 0
M  V30 14661 H 1352.16 2.04167 -2.36055 0
M  V30 14662 N 1352.46 1.37696 0.766659 0
M  V30 14663 C 1353.71 1.32922 1.52237 0
M  V30 14664 C 1354.03 -0.0842833 1.94818 0
M  V30 14665 O 1353.3 -1.02934 1.66677 0
M  V30 14666 H 1351.88 0.489049 0.564659 0
M  V30 14667 H 1354.54 1.72238 0.912142 0
M  V30 14668 H 1353.64 1.97158 2.4194 0
M  V30 14669 N 1353.94 -0.993397 1.22349 0
M  V30 14670 C 1355.17 -1.76838 1.07406 0
M  V30 14671 C 1355.58 -1.8503 -0.37542 0
M  V30 14672 O 1354.94 -1.32008 -1.26016 0
M  V30 14673 C 1354.99 -3.20177 1.67837 0
M  V30 14674 O 1354.71 -3.12429 3.07115 0
M  V30 14675 C 1356.21 -4.14125 1.58161 0
M  V30 14676 H 1353.43 -0.555379 0.376557 0
M  V30 14677 H 1355.98 -1.24893 1.61932 0
M  V30 14678 H 1354.13 -3.69191 1.17375 0
M  V30 14679 H 1354.55 -4.02568 3.36213 0
M  V30 14680 H 1356.02 -5.12455 2.05169 0
M  V30 14681 H 1356.5 -4.35892 0.538073 0
M  V30 14682 H 1357.1 -3.71008 2.07926 0
M  V30 14683 N 1355.42 -1.03311 -1.19015 0
M  V30 14684 C 1356.38 -0.622114 -2.20596 0
M  V30 14685 C 1357.38 0.316502 -1.57654 0
M  V30 14686 O 1358.57 0.102932 -1.73896 0
M  V30 14687 C 1355.7 0.0890432 -3.40784 0
M  V30 14688 H 1356.9 -1.52095 -2.58471 0
M  V30 14689 H 1354.45 -0.824777 -1.32767 0
M  V30 14690 H 1355.18 1.00203 -3.08431 0
M  V30 14691 H 1354.97 -0.58547 -3.87704 0
M  V30 14692 H 1356.46 0.363366 -4.16016 0
M  V30 14693 N 1356.9 1.35099 -0.81154 0
M  V30 14694 C 1358.14 1.98625 -0.394231 0
M  V30 14695 C 1358.47 1.6437 1.03985 0
M  V30 14696 O 1357.73 0.901496 1.737 0
M  V30 14697 C 1358.02 3.53444 -0.530322 0
M  V30 14698 C 1357.69 4.0758 -1.92844 0
M  V30 14699 C 1356.35 4.22077 -2.31094 0
M  V30 14700 C 1358.7 4.36838 -2.84292 0
M  V30 14701 C 1356.03 4.63153 -3.60148 0
M  V30 14702 C 1358.38 4.79355 -4.12798 0
M  V30 14703 C 1357.05 4.92057 -4.51039 0
M  V30 14704 H 1356.32 0.726822 -0.144259 0
M  V30 14705 H 1358.97 1.61231 -1.03329 0
M  V30 14706 H 1357.27 3.91328 0.192166 0
M  V30 14707 H 1358.97 4.00558 -0.188134 0
M  V30 14708 H 1355.56 3.96752 -1.62129 0
M  V30 14709 H 1359.74 4.25187 -2.55988 0
M  V30 14710 H 1355 4.71176 -3.89619 0
M  V30 14711 H 1359.17 5.00954 -4.83754 0
M  V30 14712 H 1356.8 5.23643 -5.51092 0
M  V30 14713 N 1358.37 0.56548 1.47106 0
M  V30 14714 C 1359.62 0.0445914 2.02751 0
M  V30 14715 C 1359.95 -1.30517 1.43801 0
M  V30 14716 O 1359.23 -1.85123 0.596646 0
M  V30 14717 C 1359.51 -0.0396474 3.60078 0
M  V30 14718 C 1359.36 1.3378 4.29445 0
M  V30 14719 C 1360.68 -0.748954 4.3368 0
M  V30 14720 H 1357.8 0.0176787 0.736788 0
M  V30 14721 H 1360.44 0.729363 1.75443 0
M  V30 14722 H 1358.59 -0.622826 3.83475 0
M  V30 14723 H 1360.27 1.96482 4.17364 0
M  V30 14724 H 1358.51 1.91024 3.89477 0
M  V30 14725 H 1359.18 1.23149 5.38088 0
M  V30 14726 H 1361.66 -0.253707 4.15326 0
M  V30 14727 H 1360.53 -0.776877 5.43374 0
M  V30 14728 H 1360.79 -1.80679 4.03494 0
M  V30 14729 N 1359.85 -1.54672 0.302354 0
M  V30 14730 C 1360.78 -2.21021 -0.606828 0
M  V30 14731 C 1361.8 -1.20337 -1.09648 0
M  V30 14732 O 1362.99 -1.46923 -1.0137 0
M  V30 14733 C 1360.09 -2.84411 -1.84293 0
M  V30 14734 C 1359.26 -4.11038 -1.49554 0
M  V30 14735 C 1358.32 -4.58219 -2.58693 0
M  V30 14736 O 1357.34 -5.23387 -2.23728 0
M  V30 14737 N 1358.55 -4.30651 -3.89256 0
M  V30 14738 H 1361.31 -2.99675 -0.0388221 0
M  V30 14739 H 1358.87 -1.6142 0.124614 0
M  V30 14740 H 1360.86 -3.12906 -2.56655 0
M  V30 14741 H 1359.43 -2.09589 -2.31929 0
M  V30 14742 H 1358.65 -3.89538 -0.604492 0
M  V30 14743 H 1359.94 -4.93488 -1.23884 0
M  V30 14744 H 1359.34 -3.78445 -4.20471 0
M  V30 14745 H 1357.9 -4.63853 -4.57913 0
M  V30 14746 N 1361.33 -0.0301034 -1.57571 0
M  V30 14747 C 1362.26 0.986212 -2.05789 0
M  V30 14748 C 1363.24 1.31682 -0.95387 0
M  V30 14749 O 1364.43 1.43332 -1.22427 0
M  V30 14750 C 1361.55 2.30598 -2.48077 0
M  V30 14751 C 1360.6 2.12991 -3.69509 0
M  V30 14752 S 1361.43 1.42782 -5.16114 0
M  V30 14753 C 1362.59 2.76126 -5.61699 0
M  V30 14754 H 1362.82 0.575769 -2.91671 0
M  V30 14755 H 1360.35 0.181613 -1.53328 0
M  V30 14756 H 1362.31 3.06469 -2.73107 0
M  V30 14757 H 1360.97 2.68775 -1.62539 0
M  V30 14758 H 1360.17 3.1056 -3.96949 0
M  V30 14759 H 1359.77 1.45263 -3.44637 0
M  V30 14760 H 1362.06 3.72361 -5.65998 0
M  V30 14761 H 1363 2.53349 -6.61226 0
M  V30 14762 H 1363.41 2.81418 -4.89351 0
M  V30 14763 N 1362.81 1.55714 0.243056 0
M  V30 14764 C 1364.22 1.68126 0.811814 0
M  V30 14765 C 1364.57 0.628259 1.85869 0
M  V30 14766 O 1363.7 -0.224747 2.1523 0
M  V30 14767 C 1364.29 3.048 1.47928 0
M  V30 14768 C 1362.85 3.19138 1.99569 0
M  V30 14769 C 1362 2.64011 0.848149 0
M  V30 14770 H 1364.95 1.58689 0.0187918 0
M  V30 14771 H 1364.97 2.99459 2.34743 0
M  V30 14772 H 1364.48 3.81417 0.717106 0
M  V30 14773 H 1362.58 2.4735 2.78655 0
M  V30 14774 H 1362.69 4.26095 2.19043 0
M  V30 14775 H 1361.06 2.21934 1.2497 0
M  V30 14776 H 1361.84 3.43157 0.0989987 0
M  V30 14777 N 1364.29 -0.50888 1.49158 0
M  V30 14778 C 1365.25 -1.59354 1.64739 0
M  V30 14779 C 1366.25 -1.52175 0.519557 0
M  V30 14780 O 1367.44 -1.55468 0.785838 0
M  V30 14781 C 1364.57 -2.99002 1.63739 0
M  V30 14782 H 1365.76 -1.46871 2.61474 0
M  V30 14783 H 1363.32 -0.732532 1.38071 0
M  V30 14784 H 1364.05 -3.1697 0.685583 0
M  V30 14785 H 1363.84 -3.05622 2.45637 0
M  V30 14786 H 1365.33 -3.77822 1.77877 0
M  V30 14787 N 1365.76 -1.381 -0.759346 0
M  V30 14788 C 1366.71 -1.31373 -1.86347 0
M  V30 14789 C 1367.7 -0.199113 -1.59663 0
M  V30 14790 O 1368.89 -0.43459 -1.71582 0
M  V30 14791 C 1366.02 -1.13537 -3.23982 0
M  V30 14792 C 1365.11 -2.29596 -3.56576 0
M  V30 14793 N 1365.5 -3.55023 -3.60267 0
M  V30 14794 C 1363.79 -2.22022 -3.86811 0
M  V30 14795 C 1364.5 -4.31629 -3.89963 0
M  V30 14796 N 1363.47 -3.60915 -4.06499 0
M  V30 14797 H 1367.27 -2.26345 -1.8747 0
M  V30 14798 H 1364.79 -1.3125 -0.956415 0
M  V30 14799 H 1366.78 -1.06801 -4.02988 0
M  V30 14800 H 1365.44 -0.194922 -3.24114 0
M  V30 14801 H 1366.46 -3.88769 -3.42168 0
M  V30 14802 H 1363.13 -1.36104 -3.94692 0
M  V30 14803 H 1364.52 -5.40238 -3.9949 0
M  V30 14804 N 1367.24 0.986894 -1.22875 0
M  V30 14805 C 1368.49 1.72388 -1.05484 0
M  V30 14806 C 1368.81 1.90639 0.410074 0
M  V30 14807 O 1368.08 1.47036 1.2945 0
M  V30 14808 H 1366.66 0.638732 -0.387337 0
M  V30 14809 H 1369.32 1.18829 -1.54485 0
M  V30 14810 H 1368.42 2.71599 -1.53754 0
M  V30 14811 N 1368.72 1.0394 1.18466 0
M  V30 14812 C 1369.65 0.650182 2.24265 0
M  V30 14813 C 1370.63 -0.345968 1.66545 0
M  V30 14814 O 1371.82 -0.226348 1.92876 0
M  V30 14815 C 1368.95 0.0110451 3.47298 0
M  V30 14816 C 1367.9 0.930599 4.17761 0
M  V30 14817 C 1367.23 0.156005 5.34472 0
M  V30 14818 C 1368.53 2.24913 4.71393 0
M  V30 14819 H 1370.22 1.53465 2.57078 0
M  V30 14820 H 1367.77 0.739343 1.23571 0
M  V30 14821 H 1369.72 -0.272959 4.20515 0
M  V30 14822 H 1368.44 -0.908288 3.13716 0
M  V30 14823 H 1367.1 1.19897 3.4644 0
M  V30 14824 H 1366.75 -0.765695 4.97138 0
M  V30 14825 H 1366.45 0.768606 5.82551 0
M  V30 14826 H 1367.97 -0.121011 6.1048 0
M  V30 14827 H 1369.39 2.02592 5.36311 0
M  V30 14828 H 1367.79 2.81459 5.30001 0
M  V30 14829 H 1368.86 2.8965 3.88884 0
M  V30 14830 N 1370.2 -1.34667 0.818693 0
M  V30 14831 C 1371.45 -1.98414 0.404759 0
M  V30 14832 C 1371.77 -1.64919 -1.03112 0
M  V30 14833 O 1371.03 -0.910695 -1.73219 0
M  V30 14834 C 1371.33 -3.53157 0.549059 0
M  V30 14835 C 1370.99 -4.06552 1.95003 0
M  V30 14836 C 1369.66 -4.20846 2.33329 0
M  V30 14837 C 1372.01 -4.35324 2.86604 0
M  V30 14838 C 1369.34 -4.61236 3.62599 0
M  V30 14839 C 1371.69 -4.77159 4.15334 0
M  V30 14840 C 1370.35 -4.89658 4.53642 0
M  V30 14841 H 1369.62 -0.726047 0.148112 0
M  V30 14842 H 1372.27 -1.60681 1.04182 0
M  V30 14843 H 1370.57 -3.91425 -0.17141 0
M  V30 14844 H 1372.27 -4.00453 0.209374 0
M  V30 14845 H 1368.86 -3.95887 1.64231 0
M  V30 14846 H 1373.04 -4.23823 2.58239 0
M  V30 14847 H 1368.3 -4.69104 3.92112 0
M  V30 14848 H 1372.47 -4.98381 4.86404 0
M  V30 14849 H 1370.1 -5.20713 5.53861 0
M  V30 14850 N 1371.68 -0.573274 -1.46804 0
M  V30 14851 C 1373.09 -0.144162 -1.86143 0
M  V30 14852 C 1373.44 1.29033 -1.47801 0
M  V30 14853 O 1372.56 1.97319 -0.888494 0
M  V30 14854 C 1373.16 -0.254851 -3.3784 0
M  V30 14855 C 1371.72 0.119325 -3.76211 0
M  V30 14856 C 1370.86 -0.595115 -2.70839 0
M  V30 14857 H 1373.82 -0.782057 -1.38093 0
M  V30 14858 H 1373.84 0.522321 -3.76898 0
M  V30 14859 H 1373.35 -1.29899 -3.65715 0
M  V30 14860 H 1371.45 1.16396 -3.53953 0
M  V30 14861 H 1371.56 -0.250421 -4.78445 0
M  V30 14862 H 1369.93 -0.0364028 -2.54674 0
M  V30 14863 H 1370.71 -1.64072 -3.01555 0
M  V30 14864 N 1373.15 1.5451 -0.310553 0
M  V30 14865 C 1374.4 2.01334 0.289169 0
M  V30 14866 C 1374.76 1.195 1.5079 0
M  V30 14867 O 1374.05 0.265743 1.89748 0
M  V30 14868 C 1374.24 3.5072 0.68779 0
M  V30 14869 C 1374.07 4.47014 -0.490764 0
M  V30 14870 C 1372.84 4.95591 -0.98579 0
M  V30 14871 C 1375.04 4.96569 -1.3388 0
M  V30 14872 N 1373.02 5.7576 -2.13011 0
M  V30 14873 C 1374.39 5.74534 -2.33047 0
M  V30 14874 C 1376.45 4.78736 -1.36807 0
M  V30 14875 C 1375.15 6.36565 -3.3493 0
M  V30 14876 C 1377.18 5.41593 -2.37553 0
M  V30 14877 C 1376.54 6.19398 -3.35448 0
M  V30 14878 H 1372.64 0.77886 0.070013 0
M  V30 14879 H 1375.22 1.89602 -0.442639 0
M  V30 14880 H 1373.39 3.62723 1.38875 0
M  V30 14881 H 1375.12 3.84327 1.26787 0
M  V30 14882 H 1371.88 4.70287 -0.559195 0
M  V30 14883 H 1372.3 6.20526 -2.70696 0
M  V30 14884 H 1376.95 4.18156 -0.624923 0
M  V30 14885 H 1374.66 6.96273 -4.10158 0
M  V30 14886 H 1378.25 5.29718 -2.40603 0
M  V30 14887 H 1377.13 6.67173 -4.12128 0
M  V30 14888 N 1374.63 0.0384594 1.57553 0
M  V30 14889 C 1375.87 -0.642187 1.9405 0
M  V30 14890 C 1376.24 -1.68753 0.915779 0
M  V30 14891 O 1377.44 -2.42133 1.16726 0
M  V30 14892 C 1375.71 -1.23422 3.35413 0
M  V30 14893 S 1377.27 -1.93464 3.93849 0
M  V30 14894 H 1374.09 -0.211198 0.678908 0
M  V30 14895 H 1376.69 0.104358 1.95221 0
M  V30 14896 H 1375.39 -0.461112 4.07801 0
M  V30 14897 H 1374.92 -2.01787 3.37707 0
M  V30 14898 H 1376.94 -3.21401 3.78042 0
M  V30 14899 N 1376.11 -1.55841 -0.234795 0
M  V30 14900 C 1377.36 -1.77886 -0.959217 0
M  V30 14901 C 1377.68 -0.604621 -1.8539 0
M  V30 14902 O 1376.95 0.379092 -1.92197 0
M  V30 14903 H 1375.53 -0.656077 -0.357172 0
M  V30 14904 H 1378.19 -1.93292 -0.249831 0
M  V30 14905 H 1377.29 -2.69512 -1.57383 0
M  V30 14906 N 1377.59 0.500963 -1.49426 0
M  V30 14907 C 1378.52 1.61114 -1.69011 0
M  V30 14908 C 1379.5 1.61341 -0.538813 0
M  V30 14909 O 1380.69 1.78081 -0.77466 0
M  V30 14910 C 1377.82 2.99598 -1.75666 0
M  V30 14911 C 1376.77 3.14236 -2.90585 0
M  V30 14912 C 1376.1 4.54071 -2.82354 0
M  V30 14913 C 1377.4 2.94258 -4.3152 0
M  V30 14914 H 1379.09 1.44978 -2.61957 0
M  V30 14915 H 1376.64 0.69603 -1.26061 0
M  V30 14916 H 1378.59 3.77163 -1.87953 0
M  V30 14917 H 1377.31 3.16822 -0.793186 0
M  V30 14918 H 1375.97 2.39096 -2.779 0
M  V30 14919 H 1375.62 4.68172 -1.83914 0
M  V30 14920 H 1375.32 4.64806 -3.59485 0
M  V30 14921 H 1376.84 5.33696 -2.96649 0
M  V30 14922 H 1378.26 3.61592 -4.44886 0
M  V30 14923 H 1376.65 3.16464 -5.09873 0
M  V30 14924 H 1377.72 1.90383 -4.45962 0
M  V30 14925 N 1379.07 1.38501 0.752011 0
M  V30 14926 C 1380 1.38577 1.87933 0
M  V30 14927 C 1380.98 0.251454 1.68231 0
M  V30 14928 O 1382.16 0.45477 1.888 0
M  V30 14929 C 1379.29 1.21164 3.25479 0
M  V30 14930 C 1378.25 2.31816 3.59785 0
M  V30 14931 C 1377.57 1.99508 4.96085 0
M  V30 14932 C 1378.87 3.74082 3.645 0
M  V30 14933 H 1380.57 2.32913 1.88127 0
M  V30 14934 H 1378.11 1.12113 0.903698 0
M  V30 14935 H 1380.07 1.19842 4.04 0
M  V30 14936 H 1378.79 0.232899 3.25769 0
M  V30 14937 H 1377.45 2.32327 2.83584 0
M  V30 14938 H 1377.1 1.00114 4.92936 0
M  V30 14939 H 1376.8 2.73617 5.20007 0
M  V30 14940 H 1378.32 1.99807 5.76983 0
M  V30 14941 H 1379.74 3.75593 4.33131 0
M  V30 14942 H 1378.13 4.47409 3.99931 0
M  V30 14943 H 1379.2 4.06284 2.64692 0
M  V30 14944 N 1380.55 -0.980364 1.23396 0
M  V30 14945 C 1381.48 -2.0908 1.0396 0
M  V30 14946 C 1382.46 -1.70044 -0.0434946 0
M  V30 14947 O 1383.64 -1.93822 0.121155 0
M  V30 14948 C 1380.77 -3.41537 0.630061 0
M  V30 14949 C 1379.73 -3.94476 1.66051 0
M  V30 14950 C 1379.05 -5.23128 1.10641 0
M  V30 14951 C 1380.35 -4.23741 3.05354 0
M  V30 14952 H 1382.05 -2.25598 1.9684 0
M  V30 14953 H 1379.59 -1.08409 0.94781 0
M  V30 14954 H 1381.54 -4.18644 0.481145 0
M  V30 14955 H 1380.27 -3.24883 -0.334416 0
M  V30 14956 H 1378.93 -3.19513 1.79742 0
M  V30 14957 H 1378.58 -5.02824 0.132913 0
M  V30 14958 H 1378.28 -5.59515 1.79492 0
M  V30 14959 H 1379.8 -6.02857 0.969344 0
M  V30 14960 H 1381.21 -4.91598 2.94964 0
M  V30 14961 H 1379.61 -4.71329 3.71442 0
M  V30 14962 H 1380.68 -3.31012 3.54343 0
M  V30 14963 N 1382.02 -1.04567 -1.17913 0
M  V30 14964 C 1383.3 -0.666082 -1.8391 0
M  V30 14965 C 1383.68 0.854062 -1.93052 0
M  V30 14966 O 1383.03 1.75752 -1.46026 0
M  V30 14967 C 1383.24 -1.34776 -3.21926 0
M  V30 14968 C 1384.59 -1.48177 -3.97905 0
M  V30 14969 O 1385.61 -1.30627 -3.31384 0
M  V30 14970 O 1384.47 -1.76822 -5.17104 0
M  V30 14971 H 1381.56 -0.233694 -0.793294 0
M  V30 14972 H 1384.11 -1.14487 -1.25263 0
M  V30 14973 H 1382.88 -2.38514 -3.10204 0
M  V30 14974 H 1382.5 -0.857914 -3.88234 0
M  V30 14975 N 1383.5 1.34231 -0.825823 0
M  V30 14976 C 1384.73 2.02417 -0.428348 0
M  V30 14977 C 1385.14 1.62181 0.966573 0
M  V30 14978 O 1384.5 0.828691 1.62601 0
M  V30 14979 C 1384.55 3.57678 -0.524271 0
M  V30 14980 O 1384.27 3.96458 -1.86422 0
M  V30 14981 C 1385.77 4.43132 -0.122069 0
M  V30 14982 H 1382.99 0.648699 -0.171554 0
M  V30 14983 H 1385.54 1.71443 -1.11478 0
M  V30 14984 H 1383.69 3.87232 0.114112 0
M  V30 14985 H 1384.11 4.91147 -1.84051 0
M  V30 14986 H 1385.58 5.51477 -0.240264 0
M  V30 14987 H 1386.06 4.29139 0.934705 0
M  V30 14988 H 1386.66 4.18912 -0.734366 0
M  V30 14989 N 1384.98 0.581051 1.46498 0
M  V30 14990 C 1386.4 0.242599 1.57745 0
M  V30 14991 C 1386.6 -1.25508 1.57639 0
M  V30 14992 O 1385.65 -2.0367 1.49247 0
M  V30 14993 C 1386.96 0.890342 2.87217 0
M  V30 14994 C 1388.51 0.863778 3.00845 0
M  V30 14995 C 1388.99 1.49103 4.3305 0
M  V30 14996 N 1390.48 1.4553 4.39745 0
M  V30 14997 C 1391.21 1.91003 5.40653 0
M  V30 14998 N 1390.71 2.44442 6.48244 0
M  V30 14999 N 1392.5 1.8193 5.31844 0
M  V30 15000 H 1384.65 1.55382 1.44811 0
M  V30 15001 H 1386.92 0.649375 0.690664 0
M  V30 15002 H 1386.62 1.94383 2.93101 0
M  V30 15003 H 1386.5 0.397569 3.75099 0
M  V30 15004 H 1388.88 -0.181089 2.94544 0
M  V30 15005 H 1388.96 1.39455 2.14443 0
M  V30 15006 H 1388.61 2.53509 4.40109 0
M  V30 15007 H 1388.54 0.935496 5.18224 0
M  V30 15008 H 1391.03 1.06466 3.62593 0
M  V30 15009 H 1391.34 2.77002 7.2145 0
M  V30 15010 H 1389.69 2.48467 6.49068 0
M  V30 15011 H 1392.88 1.3994 4.46693 0
M  V30 15012 H 1393.05 2.17685 6.10342 0
M  V30 15013 N 1386.46 -1.54343 0.318742 0
M  V30 15014 C 1387.69 -2.04894 -0.287378 0
M  V30 15015 C 1388.1 -1.19514 -1.46157 0
M  V30 15016 O 1387.46 -0.224722 -1.81111 0
M  V30 15017 C 1387.51 -3.54124 -0.726505 0
M  V30 15018 O 1387.23 -4.36261 0.400968 0
M  V30 15019 C 1388.73 -4.20748 -1.39594 0
M  V30 15020 H 1385.95 -0.668323 -0.0598724 0
M  V30 15021 H 1388.49 -1.99177 0.463531 0
M  V30 15022 H 1386.65 -3.60145 -1.4274 0
M  V30 15023 H 1387.06 -5.2447 0.0558714 0
M  V30 15024 H 1388.54 -5.26632 -1.65418 0
M  V30 15025 H 1389.01 -3.71566 -2.3417 0
M  V30 15026 H 1389.62 -4.18852 -0.737749 0
M  V30 15027 N 1387.94 -0.0468143 -1.5753 0
M  V30 15028 C 1388.87 0.927092 -2.14306 0
M  V30 15029 C 1389.85 1.32745 -1.06362 0
M  V30 15030 O 1391.03 1.40293 -1.34281 0
M  V30 15031 C 1388.16 2.20343 -2.68452 0
M  V30 15032 C 1387.12 1.94328 -3.81341 0
M  V30 15033 C 1386.44 3.28379 -4.21985 0
M  V30 15034 C 1387.74 1.26835 -5.06666 0
M  V30 15035 H 1389.44 0.454199 -2.95935 0
M  V30 15036 H 1386.98 0.217029 -1.42355 0
M  V30 15037 H 1388.93 2.8887 -3.0681 0
M  V30 15038 H 1387.66 2.6983 -1.84009 0
M  V30 15039 H 1386.32 1.28214 -3.43448 0
M  V30 15040 H 1385.97 3.75658 -3.34499 0
M  V30 15041 H 1385.67 3.11772 -4.98068 0
M  V30 15042 H 1387.19 3.98145 -4.6294 0
M  V30 15043 H 1388.6 1.85389 -5.42498 0
M  V30 15044 H 1387 1.20569 -5.87863 0
M  V30 15045 H 1388.07 0.243759 -4.84287 0
M  V30 15046 N 1389.41 1.55964 0.226527 0
M  V30 15047 C 1390.32 1.95169 1.30178 0
M  V30 15048 C 1391.34 0.854831 1.51554 0
M  V30 15049 O 1392.52 1.15798 1.64781 0
M  V30 15050 C 1389.58 2.25612 2.63249 0
M  V30 15051 C 1388.64 3.4884 2.50219 0
M  V30 15052 C 1387.88 3.77822 3.76944 0
M  V30 15053 O 1388.1 3.08556 4.79739 0
M  V30 15054 O 1387.03 4.7132 3.74354 0
M  V30 15055 H 1390.86 2.86794 0.999145 0
M  V30 15056 H 1388.44 1.43109 0.42898 0
M  V30 15057 H 1390.33 2.4641 3.41848 0
M  V30 15058 H 1389 1.37162 2.93203 0
M  V30 15059 H 1387.91 3.33326 1.69836 0
M  V30 15060 H 1389.24 4.37657 2.25205 0
M  V30 15061 N 1390.89 -0.493031 1.4969 0
M  V30 15062 C 1392.14 -1.24849 1.59814 0
M  V30 15063 C 1392.47 -1.92059 0.287555 0
M  V30 15064 O 1391.75 -1.81099 -0.709471 0
M  V30 15065 C 1392.03 -2.30929 2.76304 0
M  V30 15066 C 1391.88 -1.68167 4.17181 0
M  V30 15067 C 1393.2 -3.32427 2.8841 0
M  V30 15068 H 1390.32 -0.452553 0.581691 0
M  V30 15069 H 1392.96 -0.545455 1.82002 0
M  V30 15070 H 1391.11 -2.9089 2.57517 0
M  V30 15071 H 1392.78 -1.11971 4.47504 0
M  V30 15072 H 1391.03 -0.985496 4.22458 0
M  V30 15073 H 1391.7 -2.45148 4.94577 0
M  V30 15074 H 1394.17 -2.82464 3.05537 0
M  V30 15075 H 1393.05 -4.04004 3.71581 0
M  V30 15076 H 1393.31 -3.95234 1.98097 0
M  V30 15077 N 1392.37 -1.38898 -0.744656 0
M  V30 15078 C 1393.3 -1.32739 -1.8685 0
M  V30 15079 C 1394.32 -0.23793 -1.61052 0
M  V30 15080 O 1395.5 -0.496166 -1.71466 0
M  V30 15081 C 1392.6 -1.03602 -3.22676 0
M  V30 15082 C 1391.78 -2.23634 -3.75908 0
M  V30 15083 C 1390.84 -1.91103 -4.90271 0
M  V30 15084 O 1389.86 -2.6369 -5.04437 0
M  V30 15085 N 1391.06 -0.871358 -5.73923 0
M  V30 15086 H 1393.83 -2.29585 -1.92641 0
M  V30 15087 H 1391.39 -1.32875 -0.924979 0
M  V30 15088 H 1393.38 -0.798755 -3.96739 0
M  V30 15089 H 1391.95 -0.155218 -3.12214 0
M  V30 15090 H 1391.17 -2.63371 -2.93307 0
M  V30 15091 H 1392.46 -3.0372 -4.08205 0
M  V30 15092 H 1391.86 -0.269591 -5.65057 0
M  V30 15093 H 1390.42 -0.693984 -6.48095 0
M  V30 15094 N 1393.85 0.973806 -1.23914 0
M  V30 15095 C 1395.07 1.7564 -1.10296 0
M  V30 15096 C 1395.5 1.84984 0.340954 0
M  V30 15097 O 1394.86 1.31629 1.24674 0
M  V30 15098 C 1394.9 3.15809 -1.7406 0
M  V30 15099 O 1394.01 3.99911 -1.00722 0
M  V30 15100 H 1393.35 0.540133 -0.386202 0
M  V30 15101 H 1395.88 1.22197 -1.64101 0
M  V30 15102 H 1395.89 3.66359 -1.79568 0
M  V30 15103 H 1394.56 3.08324 -2.79122 0
M  V30 15104 H 1393.14 3.58405 -1.02956 0
M  V30 15105 N 1395.33 1.05191 1.17357 0
M  V30 15106 C 1396.6 0.675826 1.83554 0
M  V30 15107 C 1396.98 -0.843812 1.93502 0
M  V30 15108 O 1396.33 -1.74975 1.46956 0
M  V30 15109 C 1396.54 1.36481 3.21207 0
M  V30 15110 C 1397.89 1.50285 3.97114 0
M  V30 15111 O 1398.91 1.32382 3.30686 0
M  V30 15112 O 1397.77 1.79562 5.16159 0
M  V30 15113 H 1394.87 0.237898 0.792044 0
M  V30 15114 H 1397.41 1.1515 1.24654 0
M  V30 15115 H 1396.18 2.40156 3.08935 0
M  V30 15116 H 1395.81 0.878491 3.87774 0
M  V30 15117 N 1396.8 -1.33791 0.83293 0
M  V30 15118 C 1398.03 -2.01894 0.43844 0
M  V30 15119 C 1398.44 -1.62844 -0.963247 0
M  V30 15120 O 1397.79 -0.834636 -1.63644 0
M  V30 15121 C 1397.85 -3.5638 0.472604 0
M  V30 15122 C 1397.51 -4.18788 1.82937 0
M  V30 15123 C 1398.51 -4.38588 2.79172 0
M  V30 15124 C 1396.19 -4.55342 2.12058 0
M  V30 15125 C 1398.19 -4.94081 4.02694 0
M  V30 15126 C 1395.87 -5.10544 3.35839 0
M  V30 15127 C 1396.87 -5.29859 4.30974 0
M  V30 15128 O 1396.56 -5.83889 5.52566 0
M  V30 15129 H 1396.29 -0.65348 0.173031 0
M  V30 15130 H 1398.85 -1.71827 1.12537 0
M  V30 15131 H 1397.08 -3.85749 -0.271074 0
M  V30 15132 H 1398.77 -4.05785 0.0967701 0
M  V30 15133 H 1399.53 -4.10701 2.57972 0
M  V30 15134 H 1395.41 -4.39607 1.38806 0
M  V30 15135 H 1398.95 -5.09072 4.7696 0
M  V30 15136 H 1394.85 -5.3786 3.56898 0
M  V30 15137 H 1395.62 -6.02311 5.54224 0
M  V30 15138 N 1398.28 -0.588812 -1.46187 0
M  V30 15139 C 1399.51 -0.0806571 -2.07243 0
M  V30 15140 C 1399.93 1.21766 -1.43369 0
M  V30 15141 O 1399.29 1.73694 -0.51964 0
M  V30 15142 C 1399.34 0.065267 -3.60541 0
M  V30 15143 O 1398.44 1.12026 -3.96893 0
M  V30 15144 H 1397.78 -0.0655622 -0.660755 0
M  V30 15145 H 1400.31 -0.813489 -1.87733 0
M  V30 15146 H 1400.32 0.269494 -4.07109 0
M  V30 15147 H 1399 -0.88284 -4.06422 0
M  V30 15148 H 1397.58 0.894 -3.62025 0
M  V30 15149 N 1399.76 1.54172 -0.326923 0
M  V30 15150 C 1400.99 2.05512 0.279231 0
M  V30 15151 C 1401.41 1.20131 1.44741 0
M  V30 15152 O 1400.77 0.211191 1.80066 0
M  V30 15153 C 1400.82 3.53971 0.688263 0
M  V30 15154 O 1399.92 3.71516 1.79025 0
M  V30 15155 H 1399.26 0.662131 0.0497826 0
M  V30 15156 H 1401.79 1.98979 -0.476309 0
M  V30 15157 H 1401.8 3.96302 0.970002 0
M  V30 15158 H 1400.48 4.15568 -0.166132 0
M  V30 15159 H 1399.05 3.4109 1.50706 0
M  V30 15160 N 1401.24 0.0551678 1.57503 0
M  V30 15161 C 1402.47 -0.626291 1.96879 0
M  V30 15162 C 1402.88 -1.64677 0.93156 0
M  V30 15163 O 1402.22 -1.83469 -0.0921632 0
M  V30 15164 C 1402.28 -1.36674 3.32506 0
M  V30 15165 C 1401.95 -0.501632 4.54239 0
M  V30 15166 C 1402.94 0.233939 5.19373 0
M  V30 15167 C 1400.63 -0.431385 5.00444 0
M  V30 15168 C 1402.62 1.02815 6.29053 0
M  V30 15169 C 1400.31 0.366514 6.1 0
M  V30 15170 C 1401.31 1.09497 6.74166 0
M  V30 15171 O 1400.99 1.87974 7.81614 0
M  V30 15172 H 1400.73 -0.175738 0.652757 0
M  V30 15173 H 1403.28 0.11909 2.05054 0
M  V30 15174 H 1401.51 -2.15783 3.20896 0
M  V30 15175 H 1403.2 -1.93882 3.56602 0
M  V30 15176 H 1403.97 0.189161 4.84631 0
M  V30 15177 H 1399.84 -0.98798 4.50289 0
M  V30 15178 H 1403.39 1.59724 6.79068 0
M  V30 15179 H 1399.29 0.412916 6.44178 0
M  V30 15180 H 1400.05 1.80228 7.98411 0
M  V30 15181 N 1402.72 -1.56081 -0.218252 0
M  V30 15182 C 1403.68 -1.91851 -1.25402 0
M  V30 15183 C 1404.68 -0.797399 -1.39636 0
M  V30 15184 O 1405.87 -1.06511 -1.37844 0
M  V30 15185 C 1403 -2.17223 -2.6273 0
M  V30 15186 H 1404.19 -2.84493 -0.948882 0
M  V30 15187 H 1401.75 -1.49414 -0.458809 0
M  V30 15188 H 1402.48 -1.27144 -2.98337 0
M  V30 15189 H 1402.27 -2.98899 -2.53775 0
M  V30 15190 H 1403.76 -2.45981 -3.37466 0
M  V30 15191 N 1404.2 0.485086 -1.49949 0
M  V30 15192 C 1405.61 0.817651 -1.37064 0
M  V30 15193 C 1405.81 1.9716 -0.415949 0
M  V30 15194 O 1404.87 2.52074 0.146567 0
M  V30 15195 C 1406.18 1.14288 -2.78134 0
M  V30 15196 C 1407.73 1.25016 -2.8695 0
M  V30 15197 C 1408.2 1.60859 -4.28822 0
M  V30 15198 N 1409.69 1.67878 -4.31707 0
M  V30 15199 C 1410.43 1.97089 -5.38464 0
M  V30 15200 N 1409.93 2.24415 -6.55446 0
M  V30 15201 N 1411.72 1.98474 -5.25894 0
M  V30 15202 H 1403.87 -0.275606 -2.10604 0
M  V30 15203 H 1406.13 -0.0607486 -0.946052 0
M  V30 15204 H 1405.84 0.36817 -3.49768 0
M  V30 15205 H 1405.71 2.0825 -3.14502 0
M  V30 15206 H 1408.1 2.01556 -2.15544 0
M  V30 15207 H 1408.18 0.290664 -2.54143 0
M  V30 15208 H 1407.82 0.848639 -5.0076 0
M  V30 15209 H 1407.75 2.57936 -4.59104 0
M  V30 15210 H 1410.25 1.48856 -3.47347 0
M  V30 15211 H 1410.56 2.45938 -7.32622 0
M  V30 15212 H 1408.9 2.21837 -6.58645 0
M  V30 15213 H 1412.09 1.76612 -4.33504 0
M  V30 15214 H 1412.27 2.20904 -6.09184 0
M  V30 15215 N 1405.67 1.39291 0.737279 0
M  V30 15216 C 1406.9 1.39659 1.52653 0
M  V30 15217 C 1407.32 -0.00948259 1.88798 0
M  V30 15218 O 1406.67 -0.980249 1.53939 0
M  V30 15219 C 1406.72 2.2674 2.81552 0
M  V30 15220 O 1406.45 3.61871 2.46943 0
M  V30 15221 C 1407.95 2.35466 3.75594 0
M  V30 15222 H 1405.17 0.477108 0.471814 0
M  V30 15223 H 1407.71 1.83077 0.911205 0
M  V30 15224 H 1405.87 1.86741 3.39421 0
M  V30 15225 H 1406.28 4.07897 3.29728 0
M  V30 15226 H 1407.75 3.00649 4.62941 0
M  V30 15227 H 1408.23 1.37314 4.17183 0
M  V30 15228 H 1408.84 2.75925 3.23644 0
M  V30 15229 N 1407.15 -0.967221 1.24429 0
M  V30 15230 C 1408.38 -1.75053 1.11226 0
M  V30 15231 C 1408.8 -1.85162 -0.331139 0
M  V30 15232 O 1408.16 -1.32288 -1.23974 0
M  V30 15233 C 1408.21 -3.14882 1.75733 0
M  V30 15234 O 1407.31 -3.99371 1.02842 0
M  V30 15235 H 1406.65 -0.538078 0.389061 0
M  V30 15236 H 1409.18 -1.21325 1.64746 0
M  V30 15237 H 1409.19 -3.65402 1.81509 0
M  V30 15238 H 1407.87 -3.06839 2.80754 0
M  V30 15239 H 1406.44 -3.57854 1.04856 0
M  V30 15240 N 1408.63 -1.05812 -1.16797 0
M  V30 15241 C 1409.88 -0.767008 -1.86547 0
M  V30 15242 C 1410.19 0.708979 -1.82299 0
M  V30 15243 O 1411.4 1.11428 -2.4758 0
M  V30 15244 C 1409.85 -1.32186 -3.34746 0
M  V30 15245 C 1409.46 -2.82774 -3.4748 0
M  V30 15246 C 1411.21 -1.10808 -4.09783 0
M  V30 15247 C 1409.11 -3.31529 -4.89737 0
M  V30 15248 H 1408.04 -0.283235 -0.698781 0
M  V30 15249 H 1410.69 -1.27621 -1.31853 0
M  V30 15250 H 1409.08 -0.740453 -3.89016 0
M  V30 15251 H 1410.25 -3.46825 -3.03396 0
M  V30 15252 H 1408.56 -3.02765 -2.85871 0
M  V30 15253 H 1411.16 -1.44728 -5.14741 0
M  V30 15254 H 1411.5 -0.046167 -4.16274 0
M  V30 15255 H 1412.04 -1.65502 -3.61737 0
M  V30 15256 H 1408.78 -4.37177 -4.88422 0
M  V30 15257 H 1408.3 -2.72224 -5.34466 0
M  V30 15258 H 1409.98 -3.26572 -5.58534 0
M  V30 15259 N 1410.11 1.33347 -0.840014 0
M  V30 15260 C 1411.52 1.50615 -0.52795 0
M  V30 15261 C 1411.72 1.77993 0.944493 0
M  V30 15262 O 1410.78 1.84087 1.72824 0
M  V30 15263 C 1412.09 2.66001 -1.40228 0
M  V30 15264 C 1413.64 2.79886 -1.40117 0
M  V30 15265 C 1414.12 3.98335 -2.26038 0
M  V30 15266 N 1415.61 4.05572 -2.23753 0
M  V30 15267 C 1416.34 4.96422 -2.86972 0
M  V30 15268 N 1415.84 5.9238 -3.59247 0
M  V30 15269 N 1417.63 4.89428 -2.76436 0
M  V30 15270 H 1409.78 1.13839 -1.79317 0
M  V30 15271 H 1412.04 0.559772 -0.765088 0
M  V30 15272 H 1411.75 2.52453 -2.44868 0
M  V30 15273 H 1411.62 3.61434 -1.07914 0
M  V30 15274 H 1414.01 2.92865 -0.362487 0
M  V30 15275 H 1414.09 1.85211 -1.76439 0
M  V30 15276 H 1413.74 3.86115 -3.29966 0
M  V30 15277 H 1413.67 4.92257 -1.87057 0
M  V30 15278 H 1416.16 3.36899 -1.71195 0
M  V30 15279 H 1416.47 6.58367 -4.04688 0
M  V30 15280 H 1414.82 5.92451 -3.63354 0
M  V30 15281 H 1418.01 4.13428 -2.19534 0
M  V30 15282 H 1418.18 5.60032 -3.25989 0
M  V30 15283 N 1411.59 0.596556 1.45873 0
M  V30 15284 C 1412.55 -0.118666 2.28893 0
M  V30 15285 C 1413.55 -0.805668 1.3916 0
M  V30 15286 O 1414.74 -0.655511 1.61396 0
M  V30 15287 C 1411.87 -1.17789 3.19904 0
M  V30 15288 H 1413.06 0.611093 2.93608 0
M  V30 15289 H 1410.62 0.355115 1.52212 0
M  V30 15290 H 1411.35 -1.93878 2.59965 0
M  V30 15291 H 1411.14 -0.689616 3.85988 0
M  V30 15292 H 1412.63 -1.67912 3.82355 0
M  V30 15293 N 1413.06 -1.53996 0.335095 0
M  V30 15294 C 1414.29 -2.05657 -0.268328 0
M  V30 15295 C 1414.71 -1.20897 -1.44102 0
M  V30 15296 O 1414.07 -0.220737 -1.79951 0
M  V30 15297 C 1414.12 -3.54331 -0.669481 0
M  V30 15298 O 1413.22 -3.7246 -1.77052 0
M  V30 15299 H 1412.56 -0.662386 -0.0462705 0
M  V30 15300 H 1415.09 -1.98723 0.486854 0
M  V30 15301 H 1415.1 -3.9681 -0.948971 0
M  V30 15302 H 1413.78 -4.15474 0.188168 0
M  V30 15303 H 1412.36 -3.41884 -1.48895 0
M  V30 15304 N 1414.54 -0.0635198 -1.57472 0
M  V30 15305 C 1415.47 0.90431 -2.15278 0
M  V30 15306 C 1416.45 1.31609 -1.07764 0
M  V30 15307 O 1417.64 1.38861 -1.35762 0
M  V30 15308 C 1414.77 2.17483 -2.70774 0
M  V30 15309 C 1413.72 1.90272 -3.8338 0
M  V30 15310 C 1413.05 3.23885 -4.25444 0
M  V30 15311 C 1414.35 1.21454 -5.07983 0
M  V30 15312 H 1416.04 0.422786 -2.964 0
M  V30 15313 H 1413.59 0.201918 -1.42577 0
M  V30 15314 H 1415.54 2.856 -3.09856 0
M  V30 15315 H 1414.26 2.67863 -1.86861 0
M  V30 15316 H 1412.92 1.24564 -3.44789 0
M  V30 15317 H 1412.57 3.72089 -3.38465 0
M  V30 15318 H 1412.27 3.06472 -5.01347 0
M  V30 15319 H 1413.8 3.93212 -4.67137 0
M  V30 15320 H 1415.21 1.79625 -5.44433 0
M  V30 15321 H 1413.61 1.14327 -5.89109 0
M  V30 15322 H 1414.68 0.19238 -4.84518 0
M  V30 15323 N 1416.02 1.56195 0.209972 0
M  V30 15324 C 1417.25 1.8384 0.949228 0
M  V30 15325 C 1417.66 0.644141 1.77472 0
M  V30 15326 O 1417.02 -0.387276 1.78344 0
M  V30 15327 C 1417.07 3.10131 1.85745 0
M  V30 15328 O 1416.79 4.2495 1.06531 0
M  V30 15329 C 1418.29 3.50847 2.70963 0
M  V30 15330 H 1415.51 0.610856 0.277662 0
M  V30 15331 H 1418.06 2.03295 0.221708 0
M  V30 15332 H 1416.21 2.92618 2.53877 0
M  V30 15333 H 1416.63 4.96769 1.68287 0
M  V30 15334 H 1418.1 4.4222 3.30372 0
M  V30 15335 H 1418.58 2.73139 3.43936 0
M  V30 15336 H 1419.18 3.7084 2.08226 0
M  V30 15337 N 1417.5 -0.477127 1.50204 0
M  V30 15338 C 1418.74 -1.22964 1.60891 0
M  V30 15339 C 1419.07 -1.9207 0.306464 0
M  V30 15340 O 1418.33 -1.82472 -0.707272 0
M  V30 15341 C 1418.63 -2.30126 2.73453 0
M  V30 15342 C 1418.29 -1.78314 4.14143 0
M  V30 15343 C 1416.95 -1.63904 4.52425 0
M  V30 15344 C 1419.31 -1.3981 5.02098 0
M  V30 15345 C 1416.63 -1.09404 5.76409 0
M  V30 15346 C 1418.99 -0.867538 6.26623 0
M  V30 15347 C 1417.65 -0.710022 6.63713 0
M  V30 15348 H 1416.92 -0.449959 0.588743 0
M  V30 15349 H 1419.57 -0.526592 1.84118 0
M  V30 15350 H 1417.87 -3.06315 2.44291 0
M  V30 15351 H 1419.57 -2.88099 2.78927 0
M  V30 15352 H 1416.16 -1.90496 3.83939 0
M  V30 15353 H 1420.34 -1.49779 4.73159 0
M  V30 15354 H 1415.6 -0.959413 6.03825 0
M  V30 15355 H 1419.77 -0.560496 6.94141 0
M  V30 15356 H 1417.4 -0.285555 7.59663 0
M  V30 15357 N 1418.98 -1.3968 -0.729882 0
M  V30 15358 C 1419.92 -1.3896 -1.86528 0
M  V30 15359 C 1420.92 -0.272027 -1.67202 0
M  V30 15360 O 1422.12 -0.442328 -1.74481 0
M  V30 15361 H 1418.5 -0.434045 -0.614092 0
M  V30 15362 H 1420.47 -2.34721 -1.84252 0
M  V30 15363 C 1419.22 -1.255 -3.24261 0
M  V30 15364 H 1418.54 -2.10767 -3.39731 0
M  V30 15365 H 1419.98 -1.29054 -4.03882 0
M  V30 15366 C 1418.44 0.0361127 -3.36881 0
M  V30 15367 O 1418.97 1.0044 -3.8894 0
M  V30 15368 N 1417.18 0.100874 -2.90425 0
M  V30 15369 H 1416.72 -0.687797 -2.48248 0
M  V30 15370 H 1416.68 0.964251 -2.99248 0
M  V30 15371 N 1420.45 0.960609 -1.2494 0
M  V30 15372 C 1421.87 1.23057 -1.01633 0
M  V30 15373 C 1422.07 1.99676 0.270527 0
M  V30 15374 O 1421.13 2.32503 0.984823 0
M  V30 15375 C 1422.44 2.01078 -2.2358 0
M  V30 15376 C 1423.99 2.14144 -2.28279 0
M  V30 15377 C 1424.46 2.95563 -3.49867 0
M  V30 15378 N 1425.95 3.03143 -3.50227 0
M  V30 15379 C 1426.69 3.66518 -4.40967 0
M  V30 15380 N 1426.18 4.31553 -5.41972 0
M  V30 15381 N 1427.98 3.636 -4.28663 0
M  V30 15382 H 1420.13 0.447876 -2.07624 0
M  V30 15383 H 1422.39 0.260581 -0.911483 0
M  V30 15384 H 1422.1 1.52172 -3.17075 0
M  V30 15385 H 1421.97 3.01797 -2.2627 0
M  V30 15386 H 1424.36 2.6225 -1.35311 0
M  V30 15387 H 1424.44 1.1275 -2.29611 0
M  V30 15388 H 1424.08 2.48149 -4.43153 0
M  V30 15389 H 1424.01 3.9717 -3.45779 0
M  V30 15390 H 1426.5 2.56888 -2.77159 0
M  V30 15391 H 1426.82 4.7775 -6.07433 0
M  V30 15392 H 1425.16 4.302 -5.45851 0
M  V30 15393 H 1428.35 3.11973 -3.48985 0
M  V30 15394 H 1428.53 4.12706 -4.99578 0
M  V30 15395 N 1421.93 1.0643 1.16234 0
M  V30 15396 C 1423.18 0.780296 1.86429 0
M  V30 15397 C 1423.5 -0.695335 1.82181 0
M  V30 15398 O 1422.77 -1.50312 1.2563 0
M  V30 15399 H 1421.35 0.285654 0.690225 0
M  V30 15400 H 1424.01 1.34609 1.40949 0
M  V30 15401 H 1423.11 1.10644 2.91829 0
M  V30 15402 N 1423.41 -1.329 0.847073 0
M  V30 15403 C 1424.66 -1.9751 0.446755 0
M  V30 15404 C 1424.99 -1.67069 -0.995905 0
M  V30 15405 O 1424.24 -0.947232 -1.71248 0
M  V30 15406 C 1424.54 -3.51913 0.623845 0
M  V30 15407 C 1424.21 -4.02324 2.03583 0
M  V30 15408 C 1422.87 -4.15802 2.42203 0
M  V30 15409 C 1425.22 -4.29147 2.95774 0
M  V30 15410 C 1422.55 -4.53441 3.72301 0
M  V30 15411 C 1424.9 -4.68242 4.25362 0
M  V30 15412 C 1423.56 -4.79925 4.63927 0
M  V30 15413 H 1422.83 -0.722742 0.163479 0
M  V30 15414 H 1425.48 -1.58435 1.07567 0
M  V30 15415 H 1423.79 -3.917 -0.0883447 0
M  V30 15416 H 1425.48 -3.99919 0.294268 0
M  V30 15417 H 1422.07 -3.92314 1.72591 0
M  V30 15418 H 1426.26 -4.1825 2.67171 0
M  V30 15419 H 1421.51 -4.60681 4.01974 0
M  V30 15420 H 1425.69 -4.87952 4.96866 0
M  V30 15421 H 1423.31 -5.08847 5.64782 0
M  V30 15422 N 1424.89 -0.604284 -1.45555 0
M  V30 15423 C 1425.84 0.116491 -2.30506 0
M  V30 15424 C 1426.81 0.863214 -1.41908 0
M  V30 15425 O 1427.99 0.849606 -1.7084 0
M  V30 15426 C 1425.13 1.11009 -3.26758 0
M  V30 15427 C 1424.24 0.36458 -4.30459 0
M  V30 15428 C 1423.38 1.34761 -5.13822 0
M  V30 15429 C 1422.42 0.589724 -6.09253 0
M  V30 15430 N 1421.55 1.52187 -6.85408 0
M  V30 15431 H 1426.39 -0.61394 -2.91607 0
M  V30 15432 H 1423.93 -0.314561 -1.43697 0
M  V30 15433 H 1425.89 1.69925 -3.81027 0
M  V30 15434 H 1424.52 1.80797 -2.67418 0
M  V30 15435 H 1423.57 -0.340026 -3.78877 0
M  V30 15436 H 1424.88 -0.226906 -4.98284 0
M  V30 15437 H 1424.04 2.00893 -5.72474 0
M  V30 15438 H 1422.78 1.97302 -4.46008 0
M  V30 15439 H 1421.78 -0.0852486 -5.49734 0
M  V30 15440 H 1423.01 -0.0306001 -6.79093 0
M  V30 15441 H 1420.95 2.13499 -6.20286 0
M  V30 15442 H 1420.87 0.983737 -7.49572 0
M  V30 15443 H 1422.14 2.17287 -7.48603 0
M  V30 15444 N 1426.37 1.53816 -0.343257 0
M  V30 15445 C 1427.33 2.23654 0.501161 0
M  V30 15446 C 1428.33 1.23664 1.02781 0
M  V30 15447 O 1429.52 1.48104 0.917103 0
M  V30 15448 C 1426.65 2.95596 1.69812 0
M  V30 15449 H 1427.84 2.997 -0.109626 0
M  V30 15450 H 1425.4 1.56013 -0.0946011 0
M  V30 15451 H 1426.13 2.23736 2.34761 0
M  V30 15452 H 1425.92 3.68938 1.32768 0
M  V30 15453 H 1427.41 3.48748 2.29706 0
M  V30 15454 N 1427.84 0.0718701 1.57436 0
M  V30 15455 C 1429.09 -0.596052 1.9311 0
M  V30 15456 C 1429.41 -1.70146 0.952652 0
M  V30 15457 O 1428.68 -1.959 0.000812941 0
M  V30 15458 H 1427.26 -0.223165 0.712886 0
M  V30 15459 H 1429.93 0.129744 1.94468 0
M  V30 15460 H 1429.02 -1.02132 2.94916 0
M  V30 15461 N 1429.32 -1.56304 -0.201686 0
M  V30 15462 C 1430.74 -1.49741 -0.552247 0
M  V30 15463 C 1430.94 -0.770683 -1.86179 0
M  V30 15464 O 1429.99 -0.318489 -2.50483 0
M  V30 15465 C 1431.31 -2.94384 -0.613083 0
M  V30 15466 C 1432.86 -3.05018 -0.702365 0
M  V30 15467 C 1433.33 -4.51058 -0.794371 0
M  V30 15468 N 1434.82 -4.55183 -0.858072 0
M  V30 15469 C 1435.56 -5.65487 -0.949317 0
M  V30 15470 N 1435.05 -6.85497 -1.00327 0
M  V30 15471 N 1436.85 -5.53385 -0.985995 0
M  V30 15472 H 1429 -2.01971 0.657394 0
M  V30 15473 H 1431.26 -0.918839 0.233322 0
M  V30 15474 H 1430.97 -3.50584 0.279921 0
M  V30 15475 H 1430.84 -3.47376 -1.47002 0
M  V30 15476 H 1433.23 -2.4887 -1.5858 0
M  V30 15477 H 1433.31 -2.55161 0.180636 0
M  V30 15478 H 1432.95 -5.07829 0.0846883 0
M  V30 15479 H 1432.88 -4.98641 -1.69308 0
M  V30 15480 H 1435.37 -3.68765 -0.825888 0
M  V30 15481 H 1435.69 -7.65312 -1.07322 0
M  V30 15482 H 1434.03 -6.88169 -0.972061 0
M  V30 15483 H 1437.22 -4.58552 -0.940635 0
M  V30 15484 H 1437.39 -6.39376 -1.05365 0
M  V30 15485 N 1430.8 0.469154 -1.50455 0
M  V30 15486 C 1431.75 1.58765 -1.6999 0
M  V30 15487 C 1432.74 1.59673 -0.56577 0
M  V30 15488 O 1433.95 1.63799 -0.74632 0
M  V30 15489 H 1430.32 0.526868 -0.536577 0
M  V30 15490 H 1432.29 1.39451 -2.6381 0
M  V30 15491 C 1431.04 2.9669 -1.81302 0
M  V30 15492 H 1430.37 2.96711 -2.67961 0
M  V30 15493 H 1431.81 3.74403 -1.98994 0
M  V30 15494 C 1430.27 3.32127 -0.565086 0
M  V30 15495 O 1430.8 4.00616 0.294873 0
M  V30 15496 N 1429 2.8757 -0.418537 0
M  V30 15497 H 1428.55 2.32008 -1.11938 0
M  V30 15498 H 1428.51 3.11645 0.415276 0
M  V30 15499 N 1432.28 1.40065 0.722464 0
M  V30 15500 C 1433.21 1.34182 1.84582 0
M  V30 15501 C 1434.19 0.213339 1.61194 0
M  V30 15502 O 1435.37 0.395867 1.84296 0
M  V30 15503 C 1432.5 1.08658 3.20798 0
M  V30 15504 C 1431.55 2.23865 3.63024 0
M  V30 15505 S 1432.38 3.86221 3.70936 0
M  V30 15506 C 1433.54 3.62948 5.09921 0
M  V30 15507 H 1433.77 2.29251 1.89291 0
M  V30 15508 H 1431.3 1.26269 0.888568 0
M  V30 15509 H 1433.26 0.946172 3.99447 0
M  V30 15510 H 1431.92 0.152542 3.13729 0
M  V30 15511 H 1431.11 2.01631 4.6191 0
M  V30 15512 H 1430.72 2.34174 2.91614 0
M  V30 15513 H 1433.01 3.20989 5.96634 0
M  V30 15514 H 1433.95 4.6134 5.37188 0
M  V30 15515 H 1434.36 2.9678 4.8019 0
M  V30 15516 N 1433.76 -0.95397 1.25448 0
M  V30 15517 C 1435.17 -1.22516 1.02284 0
M  V30 15518 C 1435.37 -1.99816 -0.259933 0
M  V30 15519 O 1434.43 -2.33022 -0.972479 0
M  V30 15520 C 1435.74 -1.9989 2.24643 0
M  V30 15521 C 1437.29 -2.1293 2.29412 0
M  V30 15522 C 1437.77 -2.93703 3.51429 0
M  V30 15523 N 1439.26 -3.01281 3.51829 0
M  V30 15524 C 1439.99 -3.64174 4.42905 0
M  V30 15525 N 1439.49 -4.28673 5.44253 0
M  V30 15526 N 1441.28 -3.61321 4.30585 0
M  V30 15527 H 1433.43 -0.436859 2.07859 0
M  V30 15528 H 1435.69 -0.255744 0.912852 0
M  V30 15529 H 1435.4 -1.50489 3.17877 0
M  V30 15530 H 1435.27 -3.00593 2.27868 0
M  V30 15531 H 1437.66 -2.61528 1.367 0
M  V30 15532 H 1437.74 -1.1153 2.30206 0
M  V30 15533 H 1437.39 -2.45795 4.44463 0
M  V30 15534 H 1437.32 -3.95331 3.47881 0
M  V30 15535 H 1439.81 -2.55414 2.78517 0
M  V30 15536 H 1440.12 -4.74522 6.09958 0
M  V30 15537 H 1438.47 -4.27299 5.48125 0
M  V30 15538 H 1441.66 -3.10118 3.50634 0
M  V30 15539 H 1441.83 -4.1005 5.0176 0
M  V30 15540 N 1435.24 -1.07045 -1.15668 0
M  V30 15541 C 1436.65 -0.795369 -1.38369 0
M  V30 15542 C 1436.85 0.601829 -1.92303 0
M  V30 15543 O 1435.91 1.36109 -2.12675 0
M  V30 15544 C 1437.22 -1.86659 -2.35752 0
M  V30 15545 C 1438.77 -1.89098 -2.49421 0
M  V30 15546 C 1439.24 -2.95296 -3.50092 0
M  V30 15547 N 1440.73 -2.94378 -3.57625 0
M  V30 15548 C 1441.47 -3.73194 -4.35331 0
M  V30 15549 N 1440.97 -4.61851 -5.16397 0
M  V30 15550 N 1442.76 -3.61554 -4.30389 0
M  V30 15551 H 1434.91 -1.97162 -0.790004 0
M  V30 15552 H 1437.17 -0.854816 -0.40987 0
M  V30 15553 H 1436.88 -2.87036 -2.03232 0
M  V30 15554 H 1436.75 -1.72406 -3.35494 0
M  V30 15555 H 1439.14 -0.893752 -2.8124 0
M  V30 15556 H 1439.22 -2.07429 -1.49689 0
M  V30 15557 H 1438.86 -3.95217 -3.19008 0
M  V30 15558 H 1438.79 -2.74212 -4.49572 0
M  V30 15559 H 1441.29 -2.3011 -2.99763 0
M  V30 15560 H 1441.6 -5.18629 -5.72926 0
M  V30 15561 H 1439.94 -4.65902 -5.15714 0
M  V30 15562 H 1443.13 -2.91672 -3.66122 0
M  V30 15563 H 1443.31 -4.23221 -4.90701 0
M  V30 15564 N 1436.71 1.32449 -0.85411 0
M  V30 15565 C 1437.66 2.2889 -0.296341 0
M  V30 15566 C 1438.63 1.55024 0.596378 0
M  V30 15567 O 1439.82 1.8325 0.531406 0
M  V30 15568 C 1436.96 3.41315 0.509729 0
M  V30 15569 C 1436.07 4.30062 -0.40872 0
M  V30 15570 C 1435.2 5.29616 0.409928 0
M  V30 15571 C 1434.24 6.10005 -0.505953 0
M  V30 15572 N 1433.38 7.01559 0.275483 0
M  V30 15573 H 1438.22 2.75989 -1.12401 0
M  V30 15574 H 1435.76 1.35787 -0.565717 0
M  V30 15575 H 1437.71 4.05218 0.992697 0
M  V30 15576 H 1436.34 2.95367 1.30223 0
M  V30 15577 H 1435.4 3.66745 -1.01007 0
M  V30 15578 H 1436.71 4.86255 -1.11165 0
M  V30 15579 H 1435.86 5.99119 0.956083 0
M  V30 15580 H 1434.6 4.74039 1.14623 0
M  V30 15581 H 1433.61 5.39406 -1.064 0
M  V30 15582 H 1434.83 6.67667 -1.24086 0
M  V30 15583 H 1432.78 6.48412 0.994887 0
M  V30 15584 H 1432.69 7.55102 -0.368426 0
M  V30 15585 H 1433.96 7.75349 0.803382 0
M  V30 15586 N 1438.19 0.611994 1.45232 0
M  V30 15587 C 1439.12 -0.0914869 2.33321 0
M  V30 15588 C 1440.1 -0.854315 1.4709 0
M  V30 15589 O 1441.29 -0.823994 1.75852 0
M  V30 15590 C 1438.42 -1.08652 3.29867 0
M  V30 15591 C 1437.37 -0.436615 4.25767 0
M  V30 15592 C 1436.7 -1.54021 5.12037 0
M  V30 15593 C 1438 0.645005 5.18302 0
M  V30 15594 H 1439.69 0.644053 2.92391 0
M  V30 15595 H 1437.24 0.311171 1.40598 0
M  V30 15596 H 1439.19 -1.58726 3.90364 0
M  V30 15597 H 1437.91 -1.85271 2.68965 0
M  V30 15598 H 1436.57 0.0432918 3.66574 0
M  V30 15599 H 1436.22 -2.29679 4.475 0
M  V30 15600 H 1435.92 -1.11084 5.77005 0
M  V30 15601 H 1437.45 -2.04313 5.75403 0
M  V30 15602 H 1438.86 0.228166 5.72846 0
M  V30 15603 H 1437.26 0.996387 5.9177 0
M  V30 15604 H 1438.33 1.51985 4.60466 0
M  V30 15605 N 1439.67 -1.53632 0.351409 0
M  V30 15606 C 1440.92 -2.0104 -0.242687 0
M  V30 15607 C 1441.24 -1.23906 -1.49925 0
M  V30 15608 O 1440.5 -0.316927 -1.93117 0
M  V30 15609 C 1440.8 -3.5242 -0.594561 0
M  V30 15610 C 1440.46 -4.47333 0.566031 0
M  V30 15611 C 1439.13 -4.73001 0.884515 0
M  V30 15612 C 1441.48 -5.03566 1.34426 0
M  V30 15613 C 1438.81 -5.52156 1.98346 0
M  V30 15614 C 1441.16 -5.8392 2.43351 0
M  V30 15615 C 1439.82 -6.0788 2.7575 0
M  V30 15616 H 1439.09 -0.735659 -0.0888056 0
M  V30 15617 H 1441.74 -1.85362 0.480948 0
M  V30 15618 H 1440.04 -3.65971 -1.39902 0
M  V30 15619 H 1441.74 -3.86565 -1.06625 0
M  V30 15620 H 1438.33 -4.27494 0.307751 0
M  V30 15621 H 1442.52 -4.83694 1.11146 0
M  V30 15622 H 1437.77 -5.68942 2.23863 0
M  V30 15623 H 1441.95 -6.26505 3.04079 0
M  V30 15624 H 1439.57 -6.69001 3.61029 0
M  V30 15625 N 1441.15 -0.0802183 -1.57396 0
M  V30 15626 C 1442.4 0.585802 -1.93424 0
M  V30 15627 C 1442.72 1.69638 -0.961662 0
M  V30 15628 O 1441.99 1.95897 -0.011202 0
M  V30 15629 H 1440.57 0.219382 -0.714059 0
M  V30 15630 H 1443.23 -0.140055 -1.94396 0
M  V30 15631 H 1442.32 1.00566 -2.95454 0
M  V30 15632 N 1442.63 1.56409 0.193394 0
M  V30 15633 C 1443.87 1.80991 0.914875 0
M  V30 15634 C 1444.2 0.654538 1.82837 0
M  V30 15635 O 1443.48 -0.344816 1.91419 0
M  V30 15636 C 1443.76 3.15841 1.72964 0
M  V30 15637 C 1443.62 4.41873 0.840748 0
M  V30 15638 C 1444.93 3.474 2.70188 0
M  V30 15639 H 1442.05 0.658408 0.331161 0
M  V30 15640 H 1444.7 1.89125 0.182161 0
M  V30 15641 H 1442.85 3.09038 2.35431 0
M  V30 15642 H 1444.52 4.60723 0.230654 0
M  V30 15643 H 1442.76 4.33549 0.147558 0
M  V30 15644 H 1443.43 5.32728 1.44586 0
M  V30 15645 H 1445.91 3.54513 2.17852 0
M  V30 15646 H 1444.78 4.42872 3.24278 0
M  V30 15647 H 1445.04 2.7098 3.49317 0
M  V30 15648 N 1444.1 -0.461169 1.50702 0
M  V30 15649 C 1445.03 -1.56576 1.73223 0
M  V30 15650 C 1446.01 -1.59855 0.581401 0
M  V30 15651 O 1447.2 -1.75964 0.821602 0
M  V30 15652 C 1444.33 -2.94835 1.83548 0
M  V30 15653 C 1443.28 -3.06421 2.98815 0
M  V30 15654 C 1442.61 -4.46425 2.94293 0
M  V30 15655 C 1443.91 -2.82714 4.3917 0
M  V30 15656 H 1445.6 -1.37982 2.65709 0
M  V30 15657 H 1443.15 -0.662362 1.27862 0
M  V30 15658 H 1445.1 -3.72047 1.97887 0
M  V30 15659 H 1443.83 -3.14608 0.876906 0
M  V30 15660 H 1442.49 -2.31644 2.84142 0
M  V30 15661 H 1442.13 -4.63131 1.96262 0
M  V30 15662 H 1441.83 -4.55111 3.71682 0
M  V30 15663 H 1443.36 -5.25644 3.10695 0
M  V30 15664 H 1444.77 -3.4967 4.54317 0
M  V30 15665 H 1443.17 -3.02835 5.18084 0
M  V30 15666 H 1444.24 -1.78492 4.50853 0
M  V30 15667 N 1445.58 -1.40446 -0.715026 0
M  V30 15668 C 1447 -1.22488 -1.02317 0
M  V30 15669 C 1447.2 -0.100481 -2.01249 0
M  V30 15670 O 1446.25 0.541447 -2.46626 0
M  V30 15671 C 1447.57 -2.56682 -1.56636 0
M  V30 15672 C 1449.11 -2.63699 -1.68617 0
M  V30 15673 C 1449.59 -3.98163 -2.26342 0
M  V30 15674 N 1451.08 -3.99907 -2.33727 0
M  V30 15675 C 1451.82 -5.00737 -2.79375 0
M  V30 15676 N 1451.31 -6.11961 -3.24771 0
M  V30 15677 N 1453.1 -4.88106 -2.78764 0
M  V30 15678 H 1445.26 -2.12317 -0.0592712 0
M  V30 15679 H 1447.52 -0.943823 -0.088895 0
M  V30 15680 H 1447.22 -3.39615 -0.914036 0
M  V30 15681 H 1447.1 -2.77809 -2.55151 0
M  V30 15682 H 1449.49 -1.81138 -2.32966 0
M  V30 15683 H 1449.57 -2.46402 -0.687004 0
M  V30 15684 H 1449.21 -4.81164 -1.62614 0
M  V30 15685 H 1449.14 -4.1279 -3.26974 0
M  V30 15686 H 1451.63 -3.19592 -2.01666 0
M  V30 15687 H 1451.94 -6.84787 -3.58171 0
M  V30 15688 H 1450.29 -6.15525 -3.22729 0
M  V30 15689 H 1453.48 -4.00307 -2.42635 0
M  V30 15690 H 1453.65 -5.66828 -3.14023 0
M  V30 15691 N 1447.06 0.947303 -1.25952 0
M  V30 15692 C 1447.99 2.0625 -1.09467 0
M  V30 15693 C 1448.97 1.701 -0.00160498 0
M  V30 15694 O 1450.16 1.93432 -0.172501 0
M  V30 15695 C 1447.29 3.39746 -0.720392 0
M  V30 15696 C 1446.24 3.89935 -1.76451 0
M  V30 15697 C 1445.57 5.2001 -1.24472 0
M  V30 15698 C 1446.87 4.15496 -3.16481 0
M  V30 15699 H 1448.56 2.203 -2.02752 0
M  V30 15700 H 1446.11 1.05858 -0.97622 0
M  V30 15701 H 1448.06 4.17221 -0.591972 0
M  V30 15702 H 1446.78 3.25656 0.248161 0
M  V30 15703 H 1445.44 3.14635 -1.8815 0
M  V30 15704 H 1445.09 5.02295 -0.266182 0
M  V30 15705 H 1444.79 5.54559 -1.94263 0
M  V30 15706 H 1446.31 6.00075 -1.12884 0
M  V30 15707 H 1447.73 4.83605 -3.07894 0
M  V30 15708 H 1446.12 4.61315 -3.83808 0
M  V30 15709 H 1447.19 3.21501 -3.62995 0
M  V30 15710 N 1448.54 1.07657 1.15099 0
M  V30 15711 C 1449.49 0.699678 2.19939 0
M  V30 15712 C 1450.46 -0.310432 1.63173 0
M  V30 15713 O 1451.64 -0.196177 1.89789 0
M  V30 15714 C 1448.78 0.106963 3.44934 0
M  V30 15715 C 1447.89 1.16892 4.15885 0
M  V30 15716 C 1447.03 0.540884 5.28439 0
M  V30 15717 C 1446.07 1.58542 5.91211 0
M  V30 15718 N 1445.2 0.979731 6.95231 0
M  V30 15719 H 1450.04 1.59805 2.51528 0
M  V30 15720 H 1447.58 0.798746 1.23525 0
M  V30 15721 H 1449.54 -0.254335 4.16424 0
M  V30 15722 H 1448.17 -0.754756 3.13852 0
M  V30 15723 H 1447.22 1.64775 3.4286 0
M  V30 15724 H 1448.53 1.96078 4.58645 0
M  V30 15725 H 1447.69 0.127397 6.06566 0
M  V30 15726 H 1446.43 -0.282708 4.8688 0
M  V30 15727 H 1445.43 2.00865 5.11794 0
M  V30 15728 H 1446.66 2.41135 6.34847 0
M  V30 15729 H 1444.6 0.177098 6.55761 0
M  V30 15730 H 1444.52 1.70878 7.36435 0
M  V30 15731 H 1445.79 0.591849 7.7725 0
M  V30 15732 N 1450.02 -1.31994 0.861122 0
M  V30 15733 C 1451.26 -1.98827 0.474055 0
M  V30 15734 C 1451.62 -1.66627 -0.953916 0
M  V30 15735 O 1452.82 -2.26601 -1.44587 0
M  V30 15736 C 1451.09 -3.50201 0.713743 0
M  V30 15737 S 1452.65 -4.36735 0.425214 0
M  V30 15738 H 1449.47 -0.688534 0.17732 0
M  V30 15739 H 1452.07 -1.6057 1.11523 0
M  V30 15740 H 1450.78 -3.71125 1.75198 0
M  V30 15741 H 1450.31 -3.93355 0.0592289 0
M  V30 15742 H 1452.32 -4.90558 -0.746142 0
M  V30 15743 N 1451.49 -0.619688 -1.44906 0
M  V30 15744 C 1452.44 0.113696 -2.27716 0
M  V30 15745 C 1453.43 0.82709 -1.38015 0
M  V30 15746 O 1454.62 0.715083 -1.61912 0
M  V30 15747 C 1451.75 1.10233 -3.25121 0
M  V30 15748 C 1450.84 0.389147 -4.22311 0
M  V30 15749 N 1451.23 -0.575929 -5.0251 0
M  V30 15750 C 1449.52 0.635112 -4.41455 0
M  V30 15751 C 1450.23 -0.996243 -5.73105 0
M  V30 15752 N 1449.2 -0.337427 -5.42552 0
M  V30 15753 H 1453 -0.627351 -2.87126 0
M  V30 15754 H 1450.52 -0.444293 -1.56204 0
M  V30 15755 H 1452.51 1.64223 -3.83192 0
M  V30 15756 H 1451.17 1.8438 -2.67272 0
M  V30 15757 H 1452.19 -0.953232 -5.09052 0
M  V30 15758 H 1448.86 1.36033 -3.94717 0
M  V30 15759 H 1450.25 -1.7929 -6.47537 0
M  V30 15760 N 1452.97 1.53444 -0.359552 0
M  V30 15761 C 1454.2 2.06058 0.235576 0
M  V30 15762 C 1454.62 1.23175 1.42161 0
M  V30 15763 O 1453.98 0.249338 1.79577 0
M  V30 15764 C 1454.03 3.55351 0.613025 0
M  V30 15765 O 1453.13 3.75229 1.71104 0
M  V30 15766 H 1452.47 0.663038 0.0357266 0
M  V30 15767 H 1455 1.97923 -0.518408 0
M  V30 15768 H 1455.01 3.9827 0.885722 0
M  V30 15769 H 1453.69 4.15122 -0.254243 0
M  V30 15770 H 1452.27 3.4421 1.43437 0
M  V30 15771 N 1454.45 0.0885642 1.57351 0
M  V30 15772 C 1455.38 -0.869946 2.16689 0
M  V30 15773 C 1456.36 -1.29878 1.09844 0
M  V30 15774 O 1457.55 -1.36684 1.37954 0
M  V30 15775 C 1454.68 -2.13148 2.74199 0
M  V30 15776 C 1453.63 -1.84149 3.86359 0
M  V30 15777 C 1452.96 -3.17075 4.30543 0
M  V30 15778 C 1454.26 -1.13357 5.09851 0
M  V30 15779 H 1455.95 -0.375578 2.97035 0
M  V30 15780 H 1453.5 -0.17921 1.42881 0
M  V30 15781 H 1455.45 -2.80634 3.14361 0
M  V30 15782 H 1454.17 -2.64856 1.91098 0
M  V30 15783 H 1452.83 -1.19063 3.46727 0
M  V30 15784 H 1452.48 -3.66658 3.44342 0
M  V30 15785 H 1452.18 -2.98457 5.06159 0
M  V30 15786 H 1453.7 -3.85731 4.73333 0
M  V30 15787 H 1455.12 -1.70941 5.47222 0
M  V30 15788 H 1453.52 -1.0494 5.90853 0
M  V30 15789 H 1454.59 -0.115273 4.84763 0
M  V30 15790 N 1455.93 -1.56509 -0.185096 0
M  V30 15791 C 1457.18 -1.81206 -0.903924 0
M  V30 15792 C 1457.5 -0.663423 -1.82836 0
M  V30 15793 O 1456.76 0.350211 -1.92541 0
M  V30 15794 C 1457.06 -3.11968 -1.74387 0
M  V30 15795 C 1456.72 -4.40353 -0.969552 0
M  V30 15796 C 1455.39 -4.75227 -0.755799 0
M  V30 15797 C 1457.74 -5.19461 -0.425443 0
M  V30 15798 C 1455.07 -5.86698 0.0133856 0
M  V30 15799 C 1457.42 -6.31736 0.330582 0
M  V30 15800 C 1456.08 -6.65187 0.555262 0
M  V30 15801 H 1455.35 -0.663078 -0.330769 0
M  V30 15802 H 1458 -1.90747 -0.169673 0
M  V30 15803 H 1456.3 -2.97708 -2.5471 0
M  V30 15804 H 1458 -3.28284 -2.30284 0
M  V30 15805 H 1454.59 -4.1299 -1.14618 0
M  V30 15806 H 1458.77 -4.92923 -0.577959 0
M  V30 15807 H 1454.03 -6.11081 0.197335 0
M  V30 15808 H 1458.2 -6.92246 0.759523 0
M  V30 15809 H 1455.83 -7.51403 1.15318 0
M  V30 15810 N 1457.41 0.45317 -1.50944 0
M  V30 15811 C 1458.34 1.55655 -1.74051 0
M  V30 15812 C 1459.32 1.59545 -0.58987 0
M  V30 15813 O 1460.5 1.75526 -0.830922 0
M  V30 15814 C 1457.63 2.93857 -1.85109 0
M  V30 15815 C 1456.59 3.04832 -3.00435 0
M  V30 15816 C 1455.91 4.44858 -2.96657 0
M  V30 15817 C 1457.21 2.80381 -4.40663 0
M  V30 15818 H 1458.91 1.36571 -2.66437 0
M  V30 15819 H 1456.45 0.655572 -1.28212 0
M  V30 15820 H 1458.41 3.70992 -1.99857 0
M  V30 15821 H 1457.13 3.14138 -0.893579 0
M  V30 15822 H 1455.79 2.30134 -2.85366 0
M  V30 15823 H 1455.44 4.62083 -1.98716 0
M  V30 15824 H 1455.14 4.53134 -3.7409 0
M  V30 15825 H 1456.66 5.23989 -3.13478 0
M  V30 15826 H 1458.07 3.47255 -4.56165 0
M  V30 15827 H 1456.47 3.00083 -5.19683 0
M  V30 15828 H 1457.54 1.76099 -4.51793 0
M  V30 15829 N 1458.88 1.40823 0.707568 0
M  V30 15830 C 1460.16 1.3003 1.46122 0
M  V30 15831 C 1460.54 -0.0776873 2.10957 0
M  V30 15832 O 1459.89 -1.09109 2.00767 0
M  V30 15833 C 1460.1 2.44498 2.49042 0
M  V30 15834 C 1461.45 2.85106 3.14642 0
M  V30 15835 O 1462.47 2.44149 2.59364 0
M  V30 15836 O 1461.33 3.55892 4.14733 0
M  V30 15837 H 1458.42 0.511082 0.650172 0
M  V30 15838 H 1460.97 1.52761 0.739062 0
M  V30 15839 H 1459.74 3.36502 1.99705 0
M  V30 15840 H 1459.37 2.23579 3.28783 0
M  V30 15841 N 1460.36 -0.94061 1.26453 0
M  V30 15842 C 1461.29 -2.05667 1.10559 0
M  V30 15843 C 1462.27 -1.70097 0.0106258 0
M  V30 15844 O 1463.46 -1.93338 0.182756 0
M  V30 15845 C 1460.59 -3.3936 0.7384 0
M  V30 15846 C 1459.54 -3.88993 1.78517 0
M  V30 15847 C 1458.87 -5.19343 1.27228 0
M  V30 15848 C 1460.17 -4.13812 3.1868 0
M  V30 15849 H 1461.86 -2.19221 2.03918 0
M  V30 15850 H 1459.41 -1.05339 0.98182 0
M  V30 15851 H 1461.36 -4.16902 0.61409 0
M  V30 15852 H 1460.09 -3.25783 -0.230887 0
M  V30 15853 H 1458.74 -3.13633 1.89816 0
M  V30 15854 H 1458.39 -5.02147 0.292816 0
M  V30 15855 H 1458.09 -5.53521 1.97201 0
M  V30 15856 H 1459.62 -5.99468 1.16065 0
M  V30 15857 H 1461.03 -4.81966 3.10455 0
M  V30 15858 H 1459.43 -4.59273 3.86249 0
M  V30 15859 H 1460.5 -3.19571 3.64695 0
M  V30 15860 N 1461.84 -1.08266 -1.14527 0
M  V30 15861 C 1462.77 -0.669233 -2.19212 0
M  V30 15862 C 1463.79 0.282962 -1.60322 0
M  V30 15863 O 1464.97 0.0708403 -1.78359 0
M  V30 15864 C 1462.07 0.0362509 -3.38881 0
M  V30 15865 C 1461.25 -0.934477 -4.27301 0
M  V30 15866 C 1460.31 -0.264584 -5.25534 0
M  V30 15867 O 1459.33 -0.908543 -5.61902 0
M  V30 15868 N 1460.53 0.98609 -5.72063 0
M  V30 15869 H 1463.3 -1.56982 -2.55297 0
M  V30 15870 H 1460.86 -0.968551 -1.29733 0
M  V30 15871 H 1462.85 0.495309 -4.01658 0
M  V30 15872 H 1461.42 0.838913 -3.01133 0
M  V30 15873 H 1460.64 -1.57241 -3.61481 0
M  V30 15874 H 1461.93 -1.59232 -4.83242 0
M  V30 15875 H 1461.33 1.52904 -5.44644 0
M  V30 15876 H 1459.89 1.38867 -6.36835 0
M  V30 15877 N 1463.32 1.31536 -0.86811 0
M  V30 15878 C 1464.57 1.97066 -0.478829 0
M  V30 15879 C 1464.9 1.68469 0.966021 0
M  V30 15880 O 1464.17 0.980166 1.67997 0
M  V30 15881 C 1464.46 3.52533 -0.734313 0
M  V30 15882 C 1464.31 3.90711 -2.22856 0
M  V30 15883 C 1465.63 4.39647 -0.199559 0
M  V30 15884 H 1462.75 0.715813 -0.175444 0
M  V30 15885 H 1465.39 1.55694 -1.08901 0
M  V30 15886 H 1463.54 3.87905 -0.214962 0
M  V30 15887 H 1465.21 3.65451 -2.81502 0
M  V30 15888 H 1463.45 3.39385 -2.70185 0
M  V30 15889 H 1464.13 4.99103 -2.35797 0
M  V30 15890 H 1466.6 4.11088 -0.643853 0
M  V30 15891 H 1465.48 5.47383 -0.407783 0
M  V30 15892 H 1465.74 4.32875 0.898414 0
M  V30 15893 N 1464.8 0.627364 1.44575 0
M  V30 15894 C 1465.75 -0.0920488 2.32418 0
M  V30 15895 C 1466.74 -0.839633 1.47128 0
M  V30 15896 O 1467.95 -0.752958 1.63495 0
M  V30 15897 H 1464.32 -0.0485336 0.750432 0
M  V30 15898 H 1466.29 0.666959 2.90851 0
M  V30 15899 C 1465.04 -1.06262 3.31064 0
M  V30 15900 H 1464.36 -0.4968 3.96701 0
M  V30 15901 H 1465.8 -1.53556 3.95217 0
M  V30 15902 C 1464.26 -2.14601 2.59707 0
M  V30 15903 O 1464.79 -3.2263 2.39317 0
M  V30 15904 N 1463 -1.90431 2.19509 0
M  V30 15905 H 1462.55 -1.02584 2.36293 0
M  V30 15906 H 1462.5 -2.6312 1.72091 0
M  V30 15907 N 1466.28 -1.53251 0.367684 0
M  V30 15908 C 1467.5 -2.0618 -0.224645 0
M  V30 15909 C 1467.93 -1.23927 -1.41505 0
M  V30 15910 O 1467.28 -0.258858 -1.79443 0
M  V30 15911 C 1467.33 -3.55671 -0.594171 0
M  V30 15912 O 1466.44 -3.76132 -1.69112 0
M  V30 15913 H 1465.78 -0.663218 -0.0322099 0
M  V30 15914 H 1468.31 -1.97646 0.528897 0
M  V30 15915 H 1468.32 -3.98734 -0.864589 0
M  V30 15916 H 1466.99 -4.14982 0.276254 0
M  V30 15917 H 1465.57 -3.44965 -1.41609 0
M  V30 15918 N 1467.75 -0.0969077 -1.57302 0
M  V30 15919 C 1468.68 0.858443 -2.17147 0
M  V30 15920 C 1469.66 1.29294 -1.10531 0
M  V30 15921 O 1470.85 1.3595 -1.38676 0
M  V30 15922 C 1467.98 2.11691 -2.75326 0
M  V30 15923 C 1466.93 1.82097 -3.8733 0
M  V30 15924 C 1466.26 3.14787 -4.32219 0
M  V30 15925 C 1467.56 1.10651 -5.10444 0
M  V30 15926 H 1469.25 0.35982 -2.9723 0
M  V30 15927 H 1466.8 0.17163 -1.42974 0
M  V30 15928 H 1468.75 2.78963 -3.15844 0
M  V30 15929 H 1467.48 2.63839 -1.925 0
M  V30 15930 H 1466.14 1.17222 -3.47354 0
M  V30 15931 H 1465.78 3.64826 -3.46281 0
M  V30 15932 H 1465.48 2.95769 -5.07735 0
M  V30 15933 H 1467.01 3.83215 -4.75372 0
M  V30 15934 H 1468.42 1.68036 -5.48121 0
M  V30 15935 H 1466.82 1.01805 -5.91401 0
M  V30 15936 H 1467.89 0.0895634 -4.84817 0
M  V30 15937 N 1469.23 1.56605 0.176793 0
M  V30 15938 C 1470.16 1.9254 1.24342 0
M  V30 15939 C 1471.18 0.81792 1.40762 0
M  V30 15940 O 1472.37 1.09636 1.40862 0
M  V30 15941 C 1469.47 2.15822 2.61293 0
M  V30 15942 C 1468.64 3.47035 2.66243 0
M  V30 15943 C 1467.7 3.5921 3.84519 0
M  V30 15944 O 1466.72 4.31876 3.70771 0
M  V30 15945 N 1467.93 2.93653 5.00748 0
M  V30 15946 H 1470.69 2.84635 0.938246 0
M  V30 15947 H 1468.25 1.57695 0.366597 0
M  V30 15948 H 1470.24 2.21237 3.38875 0
M  V30 15949 H 1468.81 1.30138 2.84223 0
M  V30 15950 H 1468.03 3.53326 1.74798 0
M  V30 15951 H 1469.32 4.33388 2.66557 0
M  V30 15952 H 1468.72 2.34476 5.14818 0
M  V30 15953 H 1467.28 3.04671 5.76211 0
M  V30 15954 N 1470.71 -0.445159 1.51182 0
M  V30 15955 C 1471.94 -1.21787 1.67259 0
M  V30 15956 C 1472.35 -1.85206 0.366641 0
M  V30 15957 O 1471.71 -1.70376 -0.654095 0
M  V30 15958 C 1471.76 -2.30765 2.78262 0
M  V30 15959 O 1471.48 -1.69942 4.03796 0
M  V30 15960 C 1472.98 -3.21186 3.05539 0
M  V30 15961 H 1470.2 -0.367364 0.561502 0
M  V30 15962 H 1472.75 -0.528415 1.97555 0
M  V30 15963 H 1470.9 -2.9544 2.50587 0
M  V30 15964 H 1471.32 -2.41905 4.65384 0
M  V30 15965 H 1472.79 -3.93805 3.8681 0
M  V30 15966 H 1473.27 -3.81487 2.17634 0
M  V30 15967 H 1473.87 -2.62221 3.34844 0
M  V30 15968 N 1472.19 -1.41197 -0.700089 0
M  V30 15969 C 1473.43 -1.40519 -1.46227 0
M  V30 15970 C 1473.77 -0.0126108 -1.94196 0
M  V30 15971 O 1473.04 0.958837 -1.69223 0
M  V30 15972 C 1473.32 -2.40808 -2.67738 0
M  V30 15973 C 1473.18 -3.89154 -2.25563 0
M  V30 15974 C 1474.5 -2.38415 -3.69927 0
M  V30 15975 H 1471.62 -0.511724 -0.530384 0
M  V30 15976 H 1474.26 -1.72441 -0.797754 0
M  V30 15977 H 1472.41 -2.13717 -3.24434 0
M  V30 15978 H 1474.08 -4.27132 -1.74229 0
M  V30 15979 H 1472.32 -4.04239 -1.57395 0
M  V30 15980 H 1472.99 -4.54866 -3.12731 0
M  V30 15981 H 1475.47 -2.62447 -3.22895 0
M  V30 15982 H 1474.35 -3.10609 -4.52563 0
M  V30 15983 H 1474.61 -1.40116 -4.19309 0
M  V30 15984 N 1473.67 0.933891 -1.2695 0
M  V30 15985 C 1474.91 1.69554 -1.14153 0
M  V30 15986 C 1475.27 1.89503 0.308639 0
M  V30 15987 O 1476.47 2.62925 0.558894 0
M  V30 15988 C 1474.74 3.02894 -1.8971 0
M  V30 15989 S 1476.3 3.94051 -1.93053 0
M  V30 15990 H 1473.12 0.582546 -0.407629 0
M  V30 15991 H 1475.72 1.11233 -1.60772 0
M  V30 15992 H 1474.42 2.86061 -2.94274 0
M  V30 15993 H 1473.96 3.6627 -1.43561 0
M  V30 15994 H 1475.97 4.85551 -1.02249 0
M  V30 15995 N 1475.14 1.08871 1.13951 0
M  V30 15996 C 1476.37 0.842913 1.88951 0
M  V30 15997 C 1476.79 -0.605348 1.78832 0
M  V30 15998 O 1476.14 -1.41631 1.15095 0
M  V30 15999 C 1476.19 1.26198 3.38757 0
M  V30 16000 O 1475.92 2.65344 3.48603 0
M  V30 16001 C 1477.42 1.04773 4.30741 0
M  V30 16002 H 1474.64 0.303651 0.598362 0
M  V30 16003 H 1477.18 1.44922 1.44284 0
M  V30 16004 H 1475.34 0.699682 3.81029 0
M  V30 16005 H 1475.75 2.82863 4.41688 0
M  V30 16006 H 1477.22 1.39029 5.34205 0
M  V30 16007 H 1477.7 -0.0149046 4.39197 0
M  V30 16008 H 1478.31 1.5957 3.9423 0
M  V30 16009 N 1476.62 -1.31073 0.875073 0
M  V30 16010 C 1477.57 -2.30335 0.3238 0
M  V30 16011 C 1478.56 -1.5974 -0.563869 0
M  V30 16012 O 1479.77 -1.743 -0.449402 0
M  V30 16013 H 1476.14 -0.747062 0.0860376 0
M  V30 16014 H 1478.12 -2.743 1.17483 0
M  V30 16015 C 1476.86 -3.44705 -0.455348 0
M  V30 16016 H 1476.19 -3.99203 0.218433 0
M  V30 16017 H 1477.63 -4.16262 -0.806329 0
M  V30 16018 C 1476.09 -2.93807 -1.6486 0
M  V30 16019 O 1476.62 -2.93004 -2.74794 0
M  V30 16020 N 1474.82 -2.49944 -1.48244 0
M  V30 16021 H 1474.37 -2.50797 -0.588116 0
M  V30 16022 H 1474.33 -2.16245 -2.28222 0
M  V30 16023 N 1478.1 -0.635022 -1.4424 0
M  V30 16024 C 1479.35 -0.138497 -2.01224 0
M  V30 16025 C 1479.66 1.2485 -1.50571 0
M  V30 16026 O 1480.87 1.83926 -1.99709 0
M  V30 16027 C 1479.32 -0.196836 -3.59361 0
M  V30 16028 C 1478.93 -1.58539 -4.1901 0
M  V30 16029 C 1480.68 0.243025 -4.23804 0
M  V30 16030 C 1478.58 -1.59864 -5.69384 0
M  V30 16031 H 1477.51 -0.0480117 -0.75247 0
M  V30 16032 H 1480.16 -0.794391 -1.65414 0
M  V30 16033 H 1478.55 0.526231 -3.92488 0
M  V30 16034 H 1479.72 -2.33236 -3.97414 0
M  V30 16035 H 1478.04 -1.96967 -3.66869 0
M  V30 16036 H 1480.63 0.252717 -5.34102 0
M  V30 16037 H 1480.98 1.27107 -3.96421 0
M  V30 16038 H 1481.51 -0.427678 -3.95494 0
M  V30 16039 H 1478.25 -2.60518 -6.01507 0
M  V30 16040 H 1477.77 -0.894664 -5.9309 0
M  V30 16041 H 1479.45 -1.3343 -6.33092 0
M  V30 16042 N 1479.58 1.53054 -0.375806 0
M  V30 16043 C 1480.81 2.05521 0.210828 0
M  V30 16044 C 1481.22 1.24837 1.4217 0
M  V30 16045 O 1480.56 0.284634 1.81481 0
M  V30 16046 C 1480.62 3.53417 0.658548 0
M  V30 16047 C 1480.29 4.54906 -0.437025 0
M  V30 16048 C 1481.28 5.03638 -1.29016 0
M  V30 16049 C 1478.97 4.98701 -0.600194 0
M  V30 16050 C 1480.96 5.94777 -2.29171 0
M  V30 16051 C 1478.65 5.89644 -1.6051 0
M  V30 16052 C 1479.65 6.37573 -2.44929 0
M  V30 16053 O 1479.33 7.26721 -3.43703 0
M  V30 16054 H 1479.07 0.674893 0.0386627 0
M  V30 16055 H 1481.62 1.98296 -0.535534 0
M  V30 16056 H 1479.85 3.58215 1.45667 0
M  V30 16057 H 1481.54 3.88692 1.16933 0
M  V30 16058 H 1482.31 4.70543 -1.17534 0
M  V30 16059 H 1478.18 4.60976 0.0471346 0
M  V30 16060 H 1481.73 6.3211 -2.95099 0
M  V30 16061 H 1477.63 6.22153 -1.72035 0
M  V30 16062 H 1478.39 7.44746 -3.39553 0
M  V30 16063 N 1481.06 0.105248 1.57248 0
M  V30 16064 C 1482 -0.850012 2.14577 0
M  V30 16065 C 1482.97 -1.27294 1.06703 0
M  V30 16066 O 1484.16 -1.35289 1.34542 0
M  V30 16067 C 1481.3 -2.09993 2.73856 0
M  V30 16068 C 1480.41 -1.72662 3.95995 0
M  V30 16069 C 1479.55 -2.92517 4.43404 0
M  V30 16070 C 1478.59 -2.5136 5.58108 0
M  V30 16071 N 1477.72 -3.64082 6.00324 0
M  V30 16072 H 1482.56 -0.354282 2.95887 0
M  V30 16073 H 1480.1 -0.163192 1.46192 0
M  V30 16074 H 1482.06 -2.83208 3.06348 0
M  V30 16075 H 1480.69 -2.57048 1.95259 0
M  V30 16076 H 1479.74 -0.893754 3.69752 0
M  V30 16077 H 1481.05 -1.38406 4.79213 0
M  V30 16078 H 1480.21 -3.73973 4.77734 0
M  V30 16079 H 1478.94 -3.2999 3.59107 0
M  V30 16080 H 1477.95 -1.68333 5.23397 0
M  V30 16081 H 1479.17 -2.15019 6.44161 0
M  V30 16082 H 1477.12 -4.01255 5.18971 0
M  V30 16083 H 1477.04 -3.33705 6.78363 0
M  V30 16084 H 1478.31 -4.46019 6.39287 0
M  V30 16085 N 1482.53 -1.56697 -0.168486 0
M  V30 16086 C 1483.78 -1.81346 -0.882973 0
M  V30 16087 C 1484.1 -0.682975 -1.83289 0
M  V30 16088 O 1485.3 -0.814479 -2.58995 0
M  V30 16089 C 1483.76 -3.21345 -1.62066 0
M  V30 16090 C 1483.37 -4.4227 -0.714241 0
M  V30 16091 C 1485.11 -3.55285 -2.32321 0
M  V30 16092 C 1483.02 -5.7329 -1.45233 0
M  V30 16093 H 1481.95 -0.676254 -0.333461 0
M  V30 16094 H 1484.6 -1.82996 -0.135871 0
M  V30 16095 H 1482.98 -3.1402 -2.41262 0
M  V30 16096 H 1484.15 -4.60782 0.0409556 0
M  V30 16097 H 1482.47 -4.16224 -0.121205 0
M  V30 16098 H 1485.07 -4.50421 -2.88141 0
M  V30 16099 H 1485.41 -2.80301 -3.07793 0
M  V30 16100 H 1485.94 -3.64176 -1.60066 0
M  V30 16101 H 1482.68 -6.51311 -0.739869 0
M  V30 16102 H 1482.2 -5.58751 -2.18077 0
M  V30 16103 H 1483.88 -6.15343 -1.99905 0
M  V30 16104 N 1484.01 0.437135 -1.51416 0
M  V30 16105 C 1484.94 1.538 -1.75692 0
M  V30 16106 C 1485.92 1.5891 -0.606759 0
M  V30 16107 O 1487.11 1.74635 -0.849492 0
M  V30 16108 C 1484.24 2.91877 -1.88215 0
M  V30 16109 C 1483.19 3.01628 -3.03652 0
M  V30 16110 C 1482.52 4.41687 -3.01358 0
M  V30 16111 C 1483.82 2.75691 -4.43612 0
M  V30 16112 H 1485.51 1.33737 -2.67871 0
M  V30 16113 H 1483.06 0.641936 -1.289 0
M  V30 16114 H 1485.01 3.68851 -2.03781 0
M  V30 16115 H 1483.74 3.13173 -0.926847 0
M  V30 16116 H 1482.39 2.27094 -2.87791 0
M  V30 16117 H 1482.04 4.5995 -2.03605 0
M  V30 16118 H 1481.74 4.49141 -3.78875 0
M  V30 16119 H 1483.27 5.20634 -3.19018 0
M  V30 16120 H 1484.68 3.42398 -4.59822 0
M  V30 16121 H 1483.08 2.94554 -5.22836 0
M  V30 16122 H 1484.15 1.71297 -4.53636 0
M  V30 16123 N 1485.49 1.41566 0.692592 0
M  V30 16124 C 1486.42 1.46423 1.81886 0
M  V30 16125 C 1487.4 0.32258 1.67013 0
M  V30 16126 O 1488.59 0.534437 1.86701 0
M  V30 16127 C 1485.72 1.3486 3.20047 0
M  V30 16128 C 1484.67 2.46867 3.49629 0
M  V30 16129 C 1484 2.20369 4.87177 0
M  V30 16130 C 1485.3 3.89205 3.48306 0
M  V30 16131 H 1486.99 2.40683 1.78079 0
M  V30 16132 H 1484.54 1.15845 0.855334 0
M  V30 16133 H 1486.49 1.36869 3.98553 0
M  V30 16134 H 1485.21 0.370859 3.24488 0
M  V30 16135 H 1483.87 2.44146 2.73475 0
M  V30 16136 H 1483.52 1.20931 4.88247 0
M  V30 16137 H 1483.22 2.95426 5.07934 0
M  V30 16138 H 1484.74 2.24099 5.6799 0
M  V30 16139 H 1486.16 3.93626 4.16811 0
M  V30 16140 H 1484.56 4.63969 3.80595 0
M  V30 16141 H 1485.63 4.17144 2.47222 0
M  V30 16142 N 1486.97 -0.927146 1.27443 0
M  V30 16143 C 1487.9 -2.04483 1.12735 0
M  V30 16144 C 1488.88 -1.70076 0.0286662 0
M  V30 16145 O 1490.06 -1.93133 0.203252 0
M  V30 16146 C 1487.19 -3.38557 0.774352 0
M  V30 16147 C 1486.15 -3.87078 1.82632 0
M  V30 16148 C 1485.47 -5.17964 1.32729 0
M  V30 16149 C 1486.77 -4.10409 3.23051 0
M  V30 16150 H 1488.47 -2.17046 2.06231 0
M  V30 16151 H 1486.01 -1.04292 0.992937 0
M  V30 16152 H 1487.97 -4.16227 0.658273 0
M  V30 16153 H 1486.69 -3.26009 -0.196321 0
M  V30 16154 H 1485.35 -3.11602 1.93132 0
M  V30 16155 H 1485 -5.01808 0.346059 0
M  V30 16156 H 1484.7 -5.51398 2.03061 0
M  V30 16157 H 1486.22 -5.98203 1.22416 0
M  V30 16158 H 1487.64 -4.78646 3.15549 0
M  V30 16159 H 1486.03 -4.5515 3.91099 0
M  V30 16160 H 1487.1 -3.15685 3.68064 0
M  V30 16161 N 1488.45 -1.09474 -1.13372 0
M  V30 16162 C 1489.38 -0.692446 -2.1849 0
M  V30 16163 C 1490.39 0.265942 -1.60613 0
M  V30 16164 O 1491.58 0.0519189 -1.78424 0
M  V30 16165 C 1488.68 0.000306083 -3.389 0
M  V30 16166 C 1487.85 -0.979745 -4.26286 0
M  V30 16167 C 1486.91 -0.320309 -5.25224 0
M  V30 16168 O 1485.94 -0.968089 -5.60907 0
M  V30 16169 N 1487.14 0.92536 -5.73077 0
M  V30 16170 H 1489.91 -1.59681 -2.53618 0
M  V30 16171 H 1487.47 -0.982256 -1.28699 0
M  V30 16172 H 1489.46 0.45268 -4.0216 0
M  V30 16173 H 1488.03 0.806927 -3.02006 0
M  V30 16174 H 1487.25 -1.61067 -3.59793 0
M  V30 16175 H 1488.54 -1.64348 -4.81526 0
M  V30 16176 H 1487.93 1.47119 -5.46235 0
M  V30 16177 H 1486.49 1.32105 -6.38272 0
M  V30 16178 N 1489.92 1.30607 -0.882012 0
M  V30 16179 C 1490.89 2.26489 -0.351498 0
M  V30 16180 C 1491.89 1.52686 0.504348 0
M  V30 16181 O 1493.08 1.71385 0.311928 0
M  V30 16182 C 1490.21 3.37222 0.499435 0
M  V30 16183 H 1491.4 2.74929 -1.19809 0
M  V30 16184 H 1488.96 1.41746 -0.658616 0
M  V30 16185 H 1489.69 2.94093 1.36673 0
M  V30 16186 H 1489.48 3.91936 -0.11356 0
M  V30 16187 H 1490.97 4.08596 0.862497 0
M  V30 16188 N 1491.4 0.642663 1.43901 0
M  V30 16189 C 1492.63 0.158971 2.05987 0
M  V30 16190 C 1493.04 -1.17635 1.48184 0
M  V30 16191 O 1492.38 -1.73499 0.603634 0
M  V30 16192 C 1492.45 -0.0178946 3.59496 0
M  V30 16193 C 1492.11 1.24107 4.39826 0
M  V30 16194 C 1493.11 2.16742 4.72566 0
M  V30 16195 C 1490.79 1.47971 4.8001 0
M  V30 16196 C 1492.79 3.31541 5.44389 0
M  V30 16197 C 1490.47 2.63065 5.5158 0
M  V30 16198 C 1491.47 3.54676 5.8369 0
M  V30 16199 O 1491.16 4.67763 6.53799 0
M  V30 16200 H 1490.89 0.0822826 0.670974 0
M  V30 16201 H 1493.44 0.880492 1.85571 0
M  V30 16202 H 1491.67 -0.79468 3.78446 0
M  V30 16203 H 1493.36 -0.457601 4.03312 0
M  V30 16204 H 1494.13 1.99543 4.42049 0
M  V30 16205 H 1490.01 0.775488 4.54431 0
M  V30 16206 H 1493.55 4.03069 5.69369 0
M  V30 16207 H 1489.45 2.80202 5.81513 0
M  V30 16208 H 1490.22 4.66892 6.72275 0
M  V30 16209 N 1492.88 -1.52852 0.383918 0
M  V30 16210 C 1494.3 -1.59565 0.0336391 0
M  V30 16211 C 1494.5 -1.39819 -1.45097 0
M  V30 16212 O 1493.55 -1.21249 -2.21484 0
M  V30 16213 C 1494.87 -2.96412 0.506001 0
M  V30 16214 C 1496.41 -3.09575 0.461794 0
M  V30 16215 C 1496.89 -4.48863 0.910259 0
M  V30 16216 N 1498.38 -4.55032 0.866053 0
M  V30 16217 C 1499.12 -5.61032 1.18453 0
M  V30 16218 N 1498.61 -6.74701 1.57321 0
M  V30 16219 N 1500.4 -5.51109 1.10613 0
M  V30 16220 H 1492.56 -1.63937 1.3505 0
M  V30 16221 H 1494.82 -0.769857 0.553194 0
M  V30 16222 H 1494.52 -3.16061 1.54268 0
M  V30 16223 H 1494.4 -3.77073 -0.0977643 0
M  V30 16224 H 1496.79 -2.89625 -0.565786 0
M  V30 16225 H 1496.87 -2.30879 1.10129 0
M  V30 16226 H 1496.51 -4.69553 1.93604 0
M  V30 16227 H 1496.44 -5.26017 0.247825 0
M  V30 16228 H 1498.93 -3.73423 0.579962 0
M  V30 16229 H 1499.24 -7.51545 1.8 0
M  V30 16230 H 1497.59 -6.76046 1.61203 0
M  V30 16231 H 1500.78 -4.61187 0.801531 0
M  V30 16232 H 1500.95 -6.33618 1.35766 0
M  V30 16233 N 1494.36 -0.113586 -1.5719 0
M  V30 16234 C 1495.61 0.54572 -1.95008 0
M  V30 16235 C 1495.93 1.67031 -0.996541 0
M  V30 16236 O 1495.19 1.9569 -0.0194353 0
M  V30 16237 C 1495.49 1.1238 -3.39272 0
M  V30 16238 C 1495.15 0.12112 -4.50737 0
M  V30 16239 C 1493.82 -0.154607 -4.80952 0
M  V30 16240 C 1496.17 -0.562502 -5.18156 0
M  V30 16241 C 1493.5 -1.12033 -5.75904 0
M  V30 16242 C 1495.85 -1.51682 -6.14146 0
M  V30 16243 C 1494.51 -1.80059 -6.42756 0
M  V30 16244 H 1493.78 0.199693 -0.713585 0
M  V30 16245 H 1496.43 -0.193344 -1.90521 0
M  V30 16246 H 1494.73 1.93951 -3.40426 0
M  V30 16247 H 1496.43 1.64195 -3.65843 0
M  V30 16248 H 1493.02 0.34621 -4.27199 0
M  V30 16249 H 1497.21 -0.362645 -4.94973 0
M  V30 16250 H 1492.46 -1.34699 -5.96377 0
M  V30 16251 H 1496.64 -2.05225 -6.65474 0
M  V30 16252 H 1494.26 -2.55046 -7.16139 0
M  V30 16253 N 1495.84 1.56784 0.160173 0
M  V30 16254 C 1496.79 1.9368 1.203 0
M  V30 16255 C 1497.77 0.806435 1.39232 0
M  V30 16256 O 1498.96 1.06975 1.41015 0
M  V30 16257 C 1496.09 2.30972 2.53982 0
M  V30 16258 C 1495.18 3.50549 2.38697 0
M  V30 16259 N 1495.57 4.6747 1.93145 0
M  V30 16260 C 1493.87 3.55375 2.6949 0
M  V30 16261 C 1494.57 5.49591 1.9059 0
M  V30 16262 N 1493.54 4.90938 2.33412 0
M  V30 16263 H 1497.35 2.8156 0.842691 0
M  V30 16264 H 1494.86 1.58167 0.368351 0
M  V30 16265 H 1496.86 2.55604 3.29351 0
M  V30 16266 H 1495.52 1.44437 2.90806 0
M  V30 16267 H 1496.53 4.91477 1.63312 0
M  V30 16268 H 1493.21 2.79346 3.10277 0
M  V30 16269 H 1494.6 6.53306 1.56976 0
M  V30 16270 N 1497.32 -0.429099 1.51646 0
M  V30 16271 C 1498.28 -1.50398 1.72954 0
M  V30 16272 C 1499.28 -1.49207 0.599491 0
M  V30 16273 O 1500.47 -1.51084 0.867143 0
M  V30 16274 C 1497.6 -2.89903 1.79358 0
M  V30 16275 H 1498.79 -1.32805 2.68892 0
M  V30 16276 H 1496.35 -0.658313 1.4176 0
M  V30 16277 H 1497.08 -3.12891 0.852639 0
M  V30 16278 H 1496.87 -2.92171 2.61492 0
M  V30 16279 H 1498.36 -3.67862 1.97654 0
M  V30 16280 N 1498.79 -1.41931 -0.685074 0
M  V30 16281 C 1500.03 -1.43328 -1.45727 0
M  V30 16282 C 1500.4 -0.0443486 -1.91949 0
M  V30 16283 O 1501.6 0.0669235 -2.68717 0
M  V30 16284 C 1499.87 -2.42071 -2.62938 0
M  V30 16285 S 1501.43 -2.62085 -3.51933 0
M  V30 16286 H 1498.25 -0.507607 -0.497852 0
M  V30 16287 H 1500.85 -1.78453 -0.798414 0
M  V30 16288 H 1499.55 -3.41771 -2.27203 0
M  V30 16289 H 1499.08 -2.08335 -3.33707 0
M  V30 16290 H 1501.1 -1.89613 -4.58543 0
M  V30 16291 N 1500.27 0.920374 -1.27933 0
M  V30 16292 C 1501.52 1.67131 -1.1487 0
M  V30 16293 C 1501.85 1.91816 0.303343 0
M  V30 16294 O 1501.13 1.51379 1.22125 0
M  V30 16295 C 1501.41 3.03332 -1.94066 0
M  V30 16296 C 1501.26 2.85842 -3.47296 0
M  V30 16297 C 1502.58 4.03773 -1.75087 0
M  V30 16298 H 1499.7 0.606537 -0.418666 0
M  V30 16299 H 1502.34 1.06755 -1.57173 0
M  V30 16300 H 1500.49 3.54869 -1.58116 0
M  V30 16301 H 1502.16 2.41367 -3.93115 0
M  V30 16302 H 1500.41 2.21035 -3.73264 0
M  V30 16303 H 1501.08 3.82535 -3.97958 0
M  V30 16304 H 1503.55 3.61274 -2.06447 0
M  V30 16305 H 1502.43 4.97048 -2.32882 0
M  V30 16306 H 1502.69 4.36512 -0.700665 0
M  V30 16307 N 1501.75 1.10074 1.1279 0
M  V30 16308 C 1502.68 0.768146 2.20503 0
M  V30 16309 C 1503.66 -0.257199 1.68144 0
M  V30 16310 O 1504.85 -0.12379 1.93805 0
M  V30 16311 C 1501.98 0.195125 3.46751 0
M  V30 16312 C 1500.93 1.15074 4.1224 0
M  V30 16313 C 1500.26 0.439098 5.32894 0
M  V30 16314 C 1501.56 2.49584 4.58808 0
M  V30 16315 H 1503.25 1.66876 2.48581 0
M  V30 16316 H 1500.8 0.803806 1.19478 0
M  V30 16317 H 1502.75 -0.0496695 4.21371 0
M  V30 16318 H 1501.47 -0.740717 3.1809 0
M  V30 16319 H 1500.13 1.38092 3.39597 0
M  V30 16320 H 1499.78 -0.501096 5.00498 0
M  V30 16321 H 1499.48 1.07632 5.77658 0
M  V30 16322 H 1501 0.202761 6.10263 0
M  V30 16323 H 1502.42 2.30736 5.24818 0
M  V30 16324 H 1500.81 3.09157 5.14336 0
M  V30 16325 H 1501.88 3.09857 3.72984 0
M  V30 16326 N 1503.23 -1.30138 0.888926 0
M  V30 16327 C 1504.16 -2.27013 0.315904 0
M  V30 16328 C 1505.17 -1.53871 -0.531746 0
M  V30 16329 O 1506.36 -1.75022 -0.350654 0
M  V30 16330 C 1503.46 -3.34087 -0.569119 0
M  V30 16331 C 1502.63 -4.36683 0.250359 0
M  V30 16332 C 1501.69 -5.23149 -0.565783 0
M  V30 16333 O 1500.72 -5.69199 0.0129167 0
M  V30 16334 N 1501.92 -5.49416 -1.8741 0
M  V30 16335 H 1504.69 -2.76821 1.14848 0
M  V30 16336 H 1502.25 -1.43359 0.752311 0
M  V30 16337 H 1504.24 -3.88857 -1.12125 0
M  V30 16338 H 1502.81 -2.84178 -1.30237 0
M  V30 16339 H 1502.03 -3.81723 0.983931 0
M  V30 16340 H 1503.32 -5.02279 0.811964 0
M  V30 16341 H 1502.72 -5.13793 -2.36713 0
M  V30 16342 H 1501.27 -6.07045 -2.37359 0
M  V30 16343 N 1504.71 -0.650285 -1.43559 0
M  V30 16344 C 1505.64 0.0295939 -2.33481 0
M  V30 16345 C 1506.62 0.815017 -1.49303 0
M  V30 16346 O 1507.8 0.77708 -1.77975 0
M  V30 16347 C 1504.93 0.998683 -3.32631 0
M  V30 16348 C 1503.89 0.323577 -4.26775 0
M  V30 16349 C 1503.21 1.40391 -5.1594 0
M  V30 16350 C 1504.51 -0.782197 -5.1641 0
M  V30 16351 H 1506.21 -0.721349 -2.9058 0
M  V30 16352 H 1503.75 -0.348339 -1.39723 0
M  V30 16353 H 1505.7 1.4832 -3.94435 0
M  V30 16354 H 1504.43 1.78075 -2.73782 0
M  V30 16355 H 1503.09 -0.140467 -3.66331 0
M  V30 16356 H 1502.74 2.17734 -4.53432 0
M  V30 16357 H 1502.44 0.957462 -5.79747 0
M  V30 16358 H 1503.96 1.88985 -5.80618 0
M  V30 16359 H 1505.37 -0.379966 -5.72039 0
M  V30 16360 H 1503.77 -1.15293 -5.88921 0
M  V30 16361 H 1504.84 -1.6414 -4.56274 0
M  V30 16362 N 1506.18 1.52647 -0.392018 0
M  V30 16363 C 1507.59 1.86522 0.0814091 0
M  V30 16364 C 1507.95 1.31158 1.45918 0
M  V30 16365 O 1507.07 0.644007 2.06595 0
M  V30 16366 C 1507.67 3.38448 0.1545 0
M  V30 16367 C 1506.22 3.72025 0.572227 0
M  V30 16368 C 1505.37 2.7604 -0.264093 0
M  V30 16369 H 1508.32 1.46517 -0.609785 0
M  V30 16370 H 1508.34 3.67846 0.973109 0
M  V30 16371 H 1507.86 3.78713 -0.848396 0
M  V30 16372 H 1505.96 3.37329 1.58239 0
M  V30 16373 H 1506.07 4.77973 0.328491 0
M  V30 16374 H 1504.43 2.53254 0.271042 0
M  V30 16375 H 1505.22 3.19143 -1.26502 0
M  V30 16376 N 1507.66 0.121921 1.57128 0
M  V30 16377 C 1508.91 -0.535371 1.95295 0
M  V30 16378 C 1509.24 -1.665 1.00539 0
M  V30 16379 O 1508.49 -1.95677 0.0298129 0
M  V30 16380 C 1508.79 -1.10579 3.39863 0
M  V30 16381 C 1508.46 -0.0972144 4.50795 0
M  V30 16382 C 1507.12 0.180111 4.80863 0
M  V30 16383 C 1509.47 0.589973 5.1785 0
M  V30 16384 C 1506.8 1.15086 5.75302 0
M  V30 16385 C 1509.15 1.54937 6.13333 0
M  V30 16386 C 1507.82 1.83465 6.41792 0
M  V30 16387 H 1507.09 -0.195906 0.714634 0
M  V30 16388 H 1509.73 0.203445 1.90416 0
M  V30 16389 H 1508.04 -1.92143 3.4145 0
M  V30 16390 H 1509.73 -1.62252 3.66709 0
M  V30 16391 H 1506.32 -0.32355 4.27377 0
M  V30 16392 H 1510.51 0.38889 4.94774 0
M  V30 16393 H 1505.76 1.3786 5.95655 0
M  V30 16394 H 1509.94 2.08751 6.64376 0
M  V30 16395 H 1507.57 2.58841 7.14777 0
M  V30 16396 N 1509.14 -1.56867 -0.151857 0
M  V30 16397 C 1510.09 -1.94315 -1.19271 0
M  V30 16398 C 1511.07 -0.813807 -1.38802 0
M  V30 16399 O 1512.27 -1.07722 -1.40446 0
M  V30 16400 C 1509.4 -2.32316 -2.52753 0
M  V30 16401 C 1508.48 -3.5181 -2.36835 0
M  V30 16402 N 1508.87 -4.68488 -1.90663 0
M  V30 16403 C 1507.17 -3.56799 -2.67602 0
M  V30 16404 C 1507.87 -5.50594 -1.87673 0
M  V30 16405 N 1506.85 -4.92169 -2.30805 0
M  V30 16406 H 1510.65 -2.82003 -0.827747 0
M  V30 16407 H 1508.16 -1.58361 -0.359958 0
M  V30 16408 H 1510.16 -2.57347 -3.27991 0
M  V30 16409 H 1508.82 -1.45977 -2.90036 0
M  V30 16410 H 1509.83 -4.92336 -1.60703 0
M  V30 16411 H 1506.51 -2.80988 -3.08791 0
M  V30 16412 H 1507.9 -6.54129 -1.53509 0
M  V30 16413 N 1510.62 0.421051 -1.51871 0
M  V30 16414 C 1511.55 1.53094 -1.70572 0
M  V30 16415 C 1512.56 1.5188 -0.586201 0
M  V30 16416 O 1513.75 1.56361 -0.861013 0
M  V30 16417 C 1510.85 2.92002 -1.72011 0
M  V30 16418 C 1510.03 3.17541 -3.0081 0
M  V30 16419 C 1509.08 4.36259 -2.94219 0
M  V30 16420 O 1508.11 4.34118 -3.68144 0
M  V30 16421 N 1509.31 5.40722 -2.11188 0
M  V30 16422 H 1512.08 1.3745 -2.66322 0
M  V30 16423 H 1509.64 0.610204 -1.4996 0
M  V30 16424 H 1511.63 3.6947 -1.65149 0
M  V30 16425 H 1510.2 3.01162 -0.837861 0
M  V30 16426 H 1509.42 2.28225 -3.21414 0
M  V30 16427 H 1510.71 3.3144 -3.86037 0
M  V30 16428 H 1510.11 5.45304 -1.50534 0
M  V30 16429 H 1508.66 6.16979 -2.10192 0
M  V30 16430 N 1512.1 1.42293 0.677538 0
M  V30 16431 C 1513.03 1.41503 1.80304 0
M  V30 16432 C 1514.04 0.314499 1.59733 0
M  V30 16433 O 1515.23 0.57741 1.68903 0
M  V30 16434 C 1512.33 1.18879 3.17366 0
M  V30 16435 C 1511.5 2.41314 3.6481 0
M  V30 16436 C 1510.56 2.14277 4.80595 0
M  V30 16437 O 1509.59 2.87457 4.91281 0
M  V30 16438 N 1510.79 1.14419 5.69112 0
M  V30 16439 H 1513.56 2.38515 1.81468 0
M  V30 16440 H 1511.12 1.37137 0.860529 0
M  V30 16441 H 1513.11 0.987135 3.92476 0
M  V30 16442 H 1511.68 0.304002 3.11118 0
M  V30 16443 H 1510.9 2.77066 2.80407 0
M  V30 16444 H 1512.19 3.2285 3.9325 0
M  V30 16445 H 1511.58 0.53888 5.63127 0
M  V30 16446 H 1510.14 1.00241 6.44046 0
M  V30 16447 N 1513.57 -0.913576 1.28419 0
M  V30 16448 C 1514.82 -1.66519 1.15755 0
M  V30 16449 C 1515.15 -1.91974 -0.293166 0
M  V30 16450 O 1514.43 -1.52025 -1.21321 0
M  V30 16451 C 1514.71 -3.02299 1.95672 0
M  V30 16452 C 1514.56 -2.83996 3.48807 0
M  V30 16453 C 1515.88 -4.02838 1.77226 0
M  V30 16454 H 1513 -0.604309 0.421877 0
M  V30 16455 H 1515.64 -1.05919 1.57737 0
M  V30 16456 H 1513.79 -3.54025 1.59995 0
M  V30 16457 H 1515.47 -2.39279 3.9439 0
M  V30 16458 H 1513.71 -2.19052 3.74431 0
M  V30 16459 H 1514.38 -3.80419 3.99982 0
M  V30 16460 H 1516.86 -3.60174 2.0836 0
M  V30 16461 H 1515.73 -4.95806 2.35515 0
M  V30 16462 H 1515.99 -4.36135 0.723804 0
M  V30 16463 N 1515.05 -1.1067 -1.12204 0
M  V30 16464 C 1516.3 -0.861787 -1.84241 0
M  V30 16465 C 1516.65 0.60611 -1.82604 0
M  V30 16466 O 1515.95 1.44133 -1.26239 0
M  V30 16467 C 1516.14 -1.34727 -3.31034 0
M  V30 16468 C 1515.97 -2.86083 -3.46968 0
M  V30 16469 C 1514.74 -3.54113 -3.6046 0
M  V30 16470 C 1516.94 -3.84175 -3.41927 0
M  V30 16471 N 1514.92 -4.93767 -3.64784 0
M  V30 16472 C 1516.29 -5.09853 -3.52775 0
M  V30 16473 C 1518.35 -3.76847 -3.25408 0
M  V30 16474 C 1517.05 -6.29067 -3.48808 0
M  V30 16475 C 1519.07 -4.95564 -3.22755 0
M  V30 16476 C 1518.44 -6.20091 -3.34166 0
M  V30 16477 H 1514.54 -0.368386 -0.689794 0
M  V30 16478 H 1517.12 -1.40954 -1.34314 0
M  V30 16479 H 1515.29 -0.826806 -3.79498 0
M  V30 16480 H 1517.02 -1.04633 -3.9094 0
M  V30 16481 H 1513.78 -3.04564 -3.62682 0
M  V30 16482 H 1514.2 -5.66552 -3.70604 0
M  V30 16483 H 1518.84 -2.81485 -3.15478 0
M  V30 16484 H 1516.56 -7.24716 -3.57509 0
M  V30 16485 H 1520.15 -4.91606 -3.11151 0
M  V30 16486 H 1519.03 -7.10412 -3.32091 0
M  V30 16487 N 1516.53 1.29665 -0.895815 0
M  V30 16488 C 1517.48 2.27831 -0.369011 0
M  V30 16489 C 1518.45 1.56843 0.546756 0
M  V30 16490 O 1519.63 1.84848 0.472837 0
M  V30 16491 C 1516.77 3.42764 0.400884 0
M  V30 16492 C 1515.89 4.28544 -0.545335 0
M  V30 16493 C 1515.02 5.30652 0.241228 0
M  V30 16494 C 1514.06 6.08087 -0.699765 0
M  V30 16495 N 1513.2 7.02081 0.0521477 0
M  V30 16496 H 1518.04 2.72274 -1.21124 0
M  V30 16497 H 1515.57 1.33918 -0.608631 0
M  V30 16498 H 1517.53 4.08171 0.863277 0
M  V30 16499 H 1516.16 2.99361 1.2076 0
M  V30 16500 H 1515.21 3.63346 -1.12624 0
M  V30 16501 H 1516.53 4.82472 -1.26579 0
M  V30 16502 H 1515.68 6.01858 0.764994 0
M  V30 16503 H 1514.42 4.77446 0.994838 0
M  V30 16504 H 1513.42 5.35748 -1.23507 0
M  V30 16505 H 1514.65 6.63382 -1.45264 0
M  V30 16506 H 1512.59 6.51249 0.788096 0
M  V30 16507 H 1512.51 7.53547 -0.60847 0
M  V30 16508 H 1513.78 7.77512 0.556304 0
M  V30 16509 N 1518.01 0.657889 1.43212 0
M  V30 16510 C 1518.96 -0.0427288 2.32561 0
M  V30 16511 C 1519.95 -0.808236 1.48875 0
M  V30 16512 O 1521.16 -0.718109 1.65055 0
M  V30 16513 H 1517.53 -0.0326049 0.751293 0
M  V30 16514 H 1519.5 0.728503 2.89371 0
M  V30 16515 C 1518.25 -0.99216 3.33244 0
M  V30 16516 H 1517.57 -0.412542 3.97666 0
M  V30 16517 H 1519.01 -1.45138 3.98385 0
M  V30 16518 C 1517.47 -2.09044 2.64201 0
M  V30 16519 O 1518 -3.17481 2.46107 0
M  V30 16520 N 1516.21 -1.85732 2.23499 0
M  V30 16521 H 1515.76 -0.975483 2.38416 0
M  V30 16522 H 1515.71 -2.5941 1.77634 0
M  V30 16523 N 1519.49 -1.52437 0.400108 0
M  V30 16524 C 1520.9 -1.86563 -0.0715162 0
M  V30 16525 C 1521.25 -1.3193 -1.4522 0
M  V30 16526 O 1520.37 -0.654955 -2.06251 0
M  V30 16527 C 1520.97 -3.38525 -0.13655 0
M  V30 16528 C 1519.53 -3.72323 -0.55249 0
M  V30 16529 C 1518.67 -2.75896 0.278729 0
M  V30 16530 H 1521.63 -1.46192 0.617547 0
M  V30 16531 H 1521.65 -3.68357 -0.953588 0
M  V30 16532 H 1521.16 -3.78258 0.868468 0
M  V30 16533 H 1519.26 -3.38164 -1.56448 0
M  V30 16534 H 1519.37 -4.7814 -0.303139 0
M  V30 16535 H 1517.74 -2.53394 -0.257608 0
M  V30 16536 H 1518.52 -3.18467 1.28193 0
M  V30 16537 N 1520.96 -0.130252 -1.57061 0
M  V30 16538 C 1522.19 0.532416 -1.99932 0
M  V30 16539 C 1522.61 1.59505 -1.01013 0
M  V30 16540 O 1521.96 1.82499 -0.00463158 0
M  V30 16541 C 1522.02 1.14833 -3.42776 0
M  V30 16542 O 1521.74 0.128163 -4.37912 0
M  V30 16543 C 1523.24 1.89324 -4.00838 0
M  V30 16544 H 1520.46 0.140046 -0.656223 0
M  V30 16545 H 1523 -0.219905 -2.03314 0
M  V30 16546 H 1521.16 1.85137 -3.40298 0
M  V30 16547 H 1521.57 0.577135 -5.21315 0
M  V30 16548 H 1523.04 2.27731 -5.02835 0
M  V30 16549 H 1523.52 2.77277 -3.40608 0
M  V30 16550 H 1524.13 1.23757 -4.06896 0
M  V30 16551 N 1522.44 1.56945 0.143535 0
M  V30 16552 C 1523.69 1.83538 0.855563 0
M  V30 16553 C 1524.02 0.711666 1.81013 0
M  V30 16554 O 1523.27 -0.299039 1.93402 0
M  V30 16555 C 1523.57 3.16482 1.66054 0
M  V30 16556 C 1523.24 4.42768 0.85246 0
M  V30 16557 C 1521.9 4.77064 0.629535 0
M  V30 16558 C 1524.25 5.20406 0.287567 0
M  V30 16559 C 1521.58 5.86457 -0.168934 0
M  V30 16560 C 1523.93 6.30637 -0.49796 0
M  V30 16561 C 1522.6 6.6348 -0.731429 0
M  V30 16562 H 1521.87 0.671615 0.313073 0
M  V30 16563 H 1524.51 1.9113 0.11904 0
M  V30 16564 H 1522.82 3.04357 2.46727 0
M  V30 16565 H 1524.52 3.34274 2.215 0
M  V30 16566 H 1521.11 4.15884 1.03628 0
M  V30 16567 H 1525.29 4.94282 0.447066 0
M  V30 16568 H 1520.55 6.10343 -0.359283 0
M  V30 16569 H 1524.72 6.89989 -0.942792 0
M  V30 16570 H 1522.35 7.48081 -1.35199 0
M  V30 16571 N 1523.92 -0.412991 1.52093 0
M  V30 16572 C 1525.17 -1.1603 1.65962 0
M  V30 16573 C 1525.5 -1.90598 0.387652 0
M  V30 16574 O 1524.75 -1.85308 -0.629243 0
M  V30 16575 C 1525.05 -2.18321 2.82968 0
M  V30 16576 C 1524.72 -1.60589 4.21334 0
M  V30 16577 C 1523.38 -1.44568 4.5897 0
M  V30 16578 C 1525.73 -1.18388 5.07576 0
M  V30 16579 C 1523.06 -0.848584 5.80531 0
M  V30 16580 C 1525.41 -0.600985 6.29739 0
M  V30 16581 C 1524.07 -0.42788 6.66127 0
M  V30 16582 H 1523.34 -0.424583 0.607297 0
M  V30 16583 H 1525.99 -0.448028 1.86185 0
M  V30 16584 H 1524.3 -2.95678 2.57063 0
M  V30 16585 H 1525.99 -2.76009 2.90895 0
M  V30 16586 H 1522.58 -1.7404 3.91673 0
M  V30 16587 H 1526.77 -1.29576 4.79086 0
M  V30 16588 H 1522.02 -0.702447 6.07351 0
M  V30 16589 H 1526.2 -0.265583 6.95893 0
M  V30 16590 H 1523.82 0.0369013 7.60191 0
M  V30 16591 N 1525.4 -1.4265 -0.669982 0
M  V30 16592 C 1526.33 -1.49298 -1.79534 0
M  V30 16593 C 1527.31 -0.34911 -1.66479 0
M  V30 16594 O 1528.5 -0.564072 -1.85828 0
M  V30 16595 C 1525.63 -1.39935 -3.17861 0
M  V30 16596 C 1524.58 -2.52398 -3.45657 0
M  V30 16597 C 1523.91 -2.28092 -4.8361 0
M  V30 16598 C 1525.21 -3.94697 -3.4207 0
M  V30 16599 H 1526.9 -2.43486 -1.74227 0
M  V30 16600 H 1524.45 -1.17191 -0.836796 0
M  V30 16601 H 1526.4 -1.43193 -3.96325 0
M  V30 16602 H 1525.12 -0.422436 -3.23857 0
M  V30 16603 H 1523.78 -2.48465 -2.69556 0
M  V30 16604 H 1523.43 -1.28683 -4.86261 0
M  V30 16605 H 1523.13 -3.03469 -5.0317 0
M  V30 16606 H 1524.65 -2.33107 -5.64352 0
M  V30 16607 H 1526.07 -4.00207 -4.10496 0
M  V30 16608 H 1524.46 -4.69965 -3.73166 0
M  V30 16609 H 1525.53 -4.21025 -2.40554 0
M  V30 16610 N 1526.88 0.906753 -1.28902 0
M  V30 16611 C 1528.29 1.18635 -1.06761 0
M  V30 16612 C 1528.49 2.00643 0.185594 0
M  V30 16613 O 1527.55 2.3647 0.885324 0
M  V30 16614 C 1528.86 1.91414 -2.31907 0
M  V30 16615 C 1530.41 2.04269 -2.37156 0
M  V30 16616 C 1530.89 2.80458 -3.62088 0
M  V30 16617 N 1532.38 2.88016 -3.62769 0
M  V30 16618 C 1533.11 3.47485 -4.56116 0
M  V30 16619 N 1532.61 4.08178 -5.59788 0
M  V30 16620 N 1534.4 3.45092 -4.43698 0
M  V30 16621 H 1526.55 0.359413 -2.09337 0
M  V30 16622 H 1528.81 0.221688 -0.921715 0
M  V30 16623 H 1528.52 1.38587 -3.23244 0
M  V30 16624 H 1528.39 2.91929 -2.38867 0
M  V30 16625 H 1530.78 2.56275 -1.46312 0
M  V30 16626 H 1530.86 1.0291 -2.34186 0
M  V30 16627 H 1530.51 2.2913 -4.53279 0
M  V30 16628 H 1530.44 3.82147 -3.62314 0
M  V30 16629 H 1532.93 2.44902 -2.87805 0
M  V30 16630 H 1533.24 4.51557 -6.27149 0
M  V30 16631 H 1531.59 4.06661 -5.63606 0
M  V30 16632 H 1534.78 2.96891 -3.61903 0
M  V30 16633 H 1534.95 3.91145 -5.16633 0
M  V30 16634 N 1528.36 1.11264 1.11616 0
M  V30 16635 C 1529.6 0.861639 1.83585 0
M  V30 16636 C 1529.93 -0.611221 1.8433 0
M  V30 16637 O 1529.21 -1.45116 1.29505 0
M  V30 16638 C 1529.49 1.42157 3.30852 0
M  V30 16639 C 1529.35 2.96192 3.38512 0
M  V30 16640 C 1530.66 1.07099 4.2687 0
M  V30 16641 H 1527.78 0.314464 0.666545 0
M  V30 16642 H 1530.43 1.37722 1.30892 0
M  V30 16643 H 1528.58 0.983054 3.75857 0
M  V30 16644 H 1530.25 3.48634 3.0208 0
M  V30 16645 H 1528.49 3.32353 2.7879 0
M  V30 16646 H 1529.16 3.30457 4.42156 0
M  V30 16647 H 1531.64 1.44952 3.90036 0
M  V30 16648 H 1530.51 1.48957 5.28302 0
M  V30 16649 H 1530.77 -0.018482 4.42096 0
M  V30 16650 N 1529.83 -1.29188 0.902679 0
M  V30 16651 C 1531.08 -1.94718 0.526082 0
M  V30 16652 C 1531.4 -1.71924 -0.932816 0
M  V30 16653 O 1532.6 -2.31585 -1.41707 0
M  V30 16654 C 1531.06 -3.48723 0.889974 0
M  V30 16655 C 1530.67 -3.80312 2.36784 0
M  V30 16656 C 1532.41 -4.20472 0.58343 0
M  V30 16657 C 1530.32 -5.27574 2.67244 0
M  V30 16658 H 1529.25 -0.728875 0.193019 0
M  V30 16659 H 1531.9 -1.46869 1.10008 0
M  V30 16660 H 1530.28 -3.95242 0.244872 0
M  V30 16661 H 1531.45 -3.44641 3.05875 0
M  V30 16662 H 1529.77 -3.21709 2.64371 0
M  V30 16663 H 1532.37 -5.28864 0.787813 0
M  V30 16664 H 1532.71 -4.13544 -0.478204 0
M  V30 16665 H 1533.24 -3.79693 1.1865 0
M  V30 16666 H 1529.98 -5.39569 3.72217 0
M  V30 16667 H 1529.5 -5.64482 2.0278 0
M  V30 16668 H 1531.18 -5.95199 2.53666 0
M  V30 16669 N 1531.31 -0.665475 -1.42861 0
M  V30 16670 C 1532.54 -0.190399 -2.06524 0
M  V30 16671 C 1532.96 1.13995 -1.49622 0
M  V30 16672 O 1532.32 1.70695 -0.610981 0
M  V30 16673 C 1532.37 -0.12594 -3.6038 0
M  V30 16674 O 1531.47 0.908299 -4.02273 0
M  V30 16675 H 1530.81 -0.100495 -0.656351 0
M  V30 16676 H 1533.34 -0.911858 -1.83156 0
M  V30 16677 H 1533.35 0.0533153 -4.07965 0
M  V30 16678 H 1532.03 -1.09703 -4.01171 0
M  V30 16679 H 1530.6 0.700841 -3.66255 0
M  V30 16680 N 1532.79 1.52222 -0.408187 0
M  V30 16681 C 1534.07 1.94285 0.22641 0
M  V30 16682 C 1534.45 1.34501 1.62705 0
M  V30 16683 O 1533.79 0.52045 2.22494 0
M  V30 16684 C 1534 3.48217 0.233695 0
M  V30 16685 C 1535.35 4.22171 0.453504 0
M  V30 16686 O 1536.38 3.54821 0.313093 0
M  V30 16687 O 1535.24 5.416 0.730183 0
M  V30 16688 H 1532.33 0.814078 0.145625 0
M  V30 16689 H 1534.88 1.63232 -0.464062 0
M  V30 16690 H 1533.65 3.84111 -0.746644 0
M  V30 16691 H 1533.27 3.85629 0.968305 0
M  V30 16692 N 1534.27 0.138579 1.5699 0
M  V30 16693 C 1535.5 -0.521806 2.00212 0
M  V30 16694 C 1535.91 -1.58967 1.01857 0
M  V30 16695 O 1535.27 -1.82494 0.0143099 0
M  V30 16696 C 1535.32 -1.13014 3.4338 0
M  V30 16697 O 1535.04 -0.104938 4.37974 0
M  V30 16698 C 1536.54 -1.87195 4.01837 0
M  V30 16699 H 1533.76 -0.136564 0.656956 0
M  V30 16700 H 1536.3 0.230685 2.03195 0
M  V30 16701 H 1534.46 -1.8333 3.41275 0
M  V30 16702 H 1534.87 -0.54948 5.21614 0
M  V30 16703 H 1536.35 -2.25061 5.04035 0
M  V30 16704 H 1536.82 -2.75467 3.42074 0
M  V30 16705 H 1537.43 -1.21597 4.07547 0
M  V30 16706 N 1535.75 -1.57019 -0.13521 0
M  V30 16707 C 1536.71 -1.98229 -1.15056 0
M  V30 16708 C 1537.71 -0.870295 -1.35213 0
M  V30 16709 O 1538.9 -1.13668 -1.32005 0
M  V30 16710 C 1536.03 -2.30844 -2.50846 0
M  V30 16711 H 1537.22 -2.89123 -0.796744 0
M  V30 16712 H 1534.78 -1.51636 -0.378962 0
M  V30 16713 H 1535.51 -1.42779 -2.91178 0
M  V30 16714 H 1535.3 -3.11931 -2.37574 0
M  V30 16715 H 1536.79 -2.63524 -3.23952 0
M  V30 16716 N 1537.22 0.404919 -1.52309 0
M  V30 16717 C 1538.45 1.17764 -1.70723 0
M  V30 16718 C 1538.87 1.83403 -0.417744 0
M  V30 16719 O 1538.23 1.70181 0.625157 0
M  V30 16720 C 1538.28 2.2133 -2.84685 0
M  V30 16721 O 1537.38 3.27566 -2.50548 0
M  V30 16722 H 1536.73 0.343572 -0.568203 0
M  V30 16723 H 1539.26 0.474093 -1.99031 0
M  V30 16724 H 1539.27 2.6559 -3.09719 0
M  V30 16725 H 1537.94 1.72939 -3.78239 0
M  V30 16726 H 1536.52 2.88556 -2.36199 0
M  V30 16727 N 1538.7 1.43003 0.662408 0
M  V30 16728 C 1539.63 1.50248 1.78739 0
M  V30 16729 C 1540.61 0.357934 1.66291 0
M  V30 16730 O 1541.8 0.573919 1.85526 0
M  V30 16731 C 1538.93 1.41618 3.17114 0
M  V30 16732 C 1537.88 2.54228 3.44314 0
M  V30 16733 C 1537.21 2.30653 4.82393 0
M  V30 16734 C 1538.51 3.96505 3.39972 0
M  V30 16735 H 1540.2 2.44406 1.72934 0
M  V30 16736 H 1537.75 1.17633 0.830569 0
M  V30 16737 H 1539.7 1.45293 3.9556 0
M  V30 16738 H 1538.43 0.439605 3.23628 0
M  V30 16739 H 1537.08 2.49891 2.68235 0
M  V30 16740 H 1536.73 1.3126 4.85572 0
M  V30 16741 H 1536.43 3.06134 5.01554 0
M  V30 16742 H 1537.96 2.36096 5.63108 0
M  V30 16743 H 1539.37 4.02378 4.08368 0
M  V30 16744 H 1537.77 4.71937 3.70668 0
M  V30 16745 H 1538.84 4.22295 2.38318 0
M  V30 16746 N 1540.18 -0.899904 1.29381 0
M  V30 16747 C 1541.42 -1.66468 1.18608 0
M  V30 16748 C 1541.78 -1.90255 -0.258287 0
M  V30 16749 O 1542.99 -2.64315 -0.488987 0
M  V30 16750 C 1541.26 -2.97758 1.97674 0
M  V30 16751 S 1542.82 -3.88794 2.03433 0
M  V30 16752 H 1539.63 -0.571533 0.422931 0
M  V30 16753 H 1542.24 -1.06931 1.63664 0
M  V30 16754 H 1540.94 -2.78158 3.01755 0
M  V30 16755 H 1540.47 -3.62335 1.53221 0
M  V30 16756 H 1542.49 -4.82669 1.15086 0
M  V30 16757 N 1541.66 -1.11854 -1.11024 0
M  V30 16758 C 1542.89 -0.891419 -1.86379 0
M  V30 16759 C 1543.3 0.562516 -1.80644 0
M  V30 16760 O 1542.64 1.40037 -1.18893 0
M  V30 16761 C 1542.7 -1.28029 -3.3593 0
M  V30 16762 C 1542.37 -2.74427 -3.65429 0
M  V30 16763 C 1543.36 -3.72636 -3.62545 0
M  V30 16764 C 1541.05 -3.11182 -3.94298 0
M  V30 16765 C 1543.04 -5.05615 -3.88113 0
M  V30 16766 C 1540.73 -4.44345 -4.19524 0
M  V30 16767 C 1541.73 -5.41371 -4.16421 0
M  V30 16768 O 1541.41 -6.72135 -4.41009 0
M  V30 16769 H 1541.15 -0.318813 -0.596099 0
M  V30 16770 H 1543.7 -1.49069 -1.41307 0
M  V30 16771 H 1541.93 -0.624186 -3.81629 0
M  V30 16772 H 1543.62 -1.02827 -3.92659 0
M  V30 16773 H 1544.39 -3.45586 -3.40287 0
M  V30 16774 H 1540.26 -2.36274 -3.95848 0
M  V30 16775 H 1543.81 -5.81338 -3.85606 0
M  V30 16776 H 1539.71 -4.71127 -4.41259 0
M  V30 16777 H 1540.47 -6.77989 -4.58555 0
M  V30 16778 N 1543.14 1.28707 -0.909517 0
M  V30 16779 C 1544.36 1.99821 -0.555557 0
M  V30 16780 C 1544.79 1.67549 0.854931 0
M  V30 16781 O 1544.14 0.905521 1.57067 0
M  V30 16782 C 1544.19 3.52361 -0.766438 0
M  V30 16783 O 1543.3 4.12022 0.17654 0
M  V30 16784 H 1542.64 0.627918 -0.215905 0
M  V30 16785 H 1545.17 1.63965 -1.2238 0
M  V30 16786 H 1545.18 4.02379 -0.674894 0
M  V30 16787 H 1543.85 3.75184 -1.7947 0
M  V30 16788 H 1542.43 3.72882 0.0366216 0
M  V30 16789 N 1544.61 0.673042 1.42506 0
M  V30 16790 C 1545.86 0.1918 2.00786 0
M  V30 16791 C 1546.18 -1.20814 1.53829 0
M  V30 16792 O 1547.38 -1.78566 2.04515 0
M  V30 16793 C 1545.84 0.292045 3.58713 0
M  V30 16794 C 1545.45 1.69593 4.14659 0
M  V30 16795 C 1547.19 -0.130575 4.24299 0
M  V30 16796 C 1545.1 1.74904 5.64945 0
M  V30 16797 H 1544.03 0.0679452 0.750932 0
M  V30 16798 H 1546.68 0.837968 1.63249 0
M  V30 16799 H 1545.06 -0.421985 3.93745 0
M  V30 16800 H 1546.23 2.4369 3.9109 0
M  V30 16801 H 1544.55 2.06625 3.61518 0
M  V30 16802 H 1547.15 -0.11102 5.34585 0
M  V30 16803 H 1547.49 -1.16552 3.99651 0
M  V30 16804 H 1548.02 0.532386 3.94221 0
M  V30 16805 H 1544.76 2.76374 5.94388 0
M  V30 16806 H 1544.28 1.0516 5.9051 0
M  V30 16807 H 1545.96 1.50168 6.29332 0
M  V30 16808 N 1546.09 -1.52004 0.416254 0
M  V30 16809 C 1547.02 -2.30106 -0.396671 0
M  V30 16810 C 1548 -1.34616 -1.03983 0
M  V30 16811 O 1549.19 -1.63528 -1.04749 0
M  V30 16812 C 1546.32 -3.12769 -1.50972 0
M  V30 16813 C 1545.27 -4.16365 -0.99119 0
M  V30 16814 C 1544.6 -4.87417 -2.19838 0
M  V30 16815 C 1545.9 -5.22284 -0.0402599 0
M  V30 16816 H 1547.59 -2.98312 0.255054 0
M  V30 16817 H 1545.14 -1.43464 0.124106 0
M  V30 16818 H 1547.09 -3.66178 -2.08547 0
M  V30 16819 H 1545.82 -2.42346 -2.18943 0
M  V30 16820 H 1544.47 -3.63976 -0.437803 0
M  V30 16821 H 1544.12 -4.13516 -2.8638 0
M  V30 16822 H 1543.82 -5.57454 -1.85792 0
M  V30 16823 H 1545.35 -5.43641 -2.78006 0
M  V30 16824 H 1546.76 -5.70891 -0.525027 0
M  V30 16825 H 1545.16 -5.99726 0.211742 0
M  V30 16826 H 1546.23 -4.7642 0.902877 0
M  V30 16827 N 1547.57 -0.146903 -1.56914 0
M  V30 16828 C 1548.52 0.792821 -2.16756 0
M  V30 16829 C 1549.49 1.2442 -1.1004 0
M  V30 16830 O 1550.67 1.31674 -1.38081 0
M  V30 16831 C 1547.81 2.02659 -2.79327 0
M  V30 16832 C 1546.93 1.62102 -4.00433 0
M  V30 16833 C 1546.06 2.80658 -4.51004 0
M  V30 16834 C 1545.1 2.36474 -5.64576 0
M  V30 16835 N 1544.24 3.48038 -6.09766 0
M  V30 16836 H 1549.08 0.275708 -2.96722 0
M  V30 16837 H 1546.61 0.124374 -1.46573 0
M  V30 16838 H 1548.57 2.74986 -3.13749 0
M  V30 16839 H 1547.2 2.51781 -2.02005 0
M  V30 16840 H 1546.25 0.795407 -3.71991 0
M  V30 16841 H 1547.57 1.25652 -4.82714 0
M  V30 16842 H 1546.72 3.61175 -4.87481 0
M  V30 16843 H 1545.46 3.20353 -3.6773 0
M  V30 16844 H 1544.46 1.54397 -5.27676 0
M  V30 16845 H 1545.69 1.97865 -6.49635 0
M  V30 16846 H 1543.63 3.87354 -5.29427 0
M  V30 16847 H 1543.55 3.15602 -6.86972 0
M  V30 16848 H 1544.82 4.28912 -6.50887 0
M  V30 16849 N 1549.05 1.57088 0.126881 0
M  V30 16850 C 1550.01 1.98836 1.14003 0
M  V30 16851 C 1551.01 0.877454 1.34749 0
M  V30 16852 O 1552.2 1.14366 1.314 0
M  V30 16853 C 1549.33 2.32171 2.49618 0
M  V30 16854 H 1550.53 2.89541 0.7814 0
M  V30 16855 H 1548.08 1.51835 0.370915 0
M  V30 16856 H 1548.81 1.44321 2.90417 0
M  V30 16857 H 1548.6 3.13187 2.35916 0
M  V30 16858 H 1550.09 2.65238 3.2255 0
M  V30 16859 N 1550.53 -0.396836 1.52522 0
M  V30 16860 C 1551.47 -1.48427 1.76743 0
M  V30 16861 C 1552.44 -1.54481 0.610321 0
M  V30 16862 O 1553.63 -1.7086 0.849201 0
M  V30 16863 C 1550.77 -2.85744 1.93505 0
M  V30 16864 C 1549.88 -2.88904 3.21183 0
M  V30 16865 C 1549.02 -4.17598 3.28307 0
M  V30 16866 C 1548.06 -4.14779 4.50138 0
M  V30 16867 N 1547.19 -5.35065 4.54587 0
M  V30 16868 H 1552.03 -1.27075 2.69548 0
M  V30 16869 H 1549.57 -0.61661 1.33553 0
M  V30 16870 H 1551.53 -3.65474 2.01208 0
M  V30 16871 H 1550.16 -3.05564 1.04069 0
M  V30 16872 H 1549.21 -2.01592 3.22591 0
M  V30 16873 H 1550.52 -2.82688 4.10961 0
M  V30 16874 H 1549.68 -5.05727 3.35149 0
M  V30 16875 H 1548.41 -4.26526 2.36489 0
M  V30 16876 H 1547.42 -3.25039 4.4343 0
M  V30 16877 H 1548.64 -4.07481 5.43264 0
M  V30 16878 H 1546.59 -5.44638 3.65658 0
M  V30 16879 H 1546.51 -5.30894 5.38227 0
M  V30 16880 H 1547.78 -6.25114 4.65675 0
M  V30 16881 N 1552.01 -1.43353 -0.654814 0
M  V30 16882 C 1552.95 -1.48652 -1.789 0
M  V30 16883 C 1553.95 -0.360274 -1.65525 0
M  V30 16884 O 1555.15 -0.534194 -1.71891 0
M  V30 16885 H 1551.53 -0.465987 -0.590221 0
M  V30 16886 H 1553.5 -2.44158 -1.7155 0
M  V30 16887 C 1552.25 -1.42512 -3.17152 0
M  V30 16888 H 1551.57 -2.28479 -3.28081 0
M  V30 16889 H 1553.01 -1.50282 -3.96474 0
M  V30 16890 C 1551.47 -0.142511 -3.36598 0
M  V30 16891 O 1552 0.796821 -3.93718 0
M  V30 16892 N 1550.21 -0.0532157 -2.90551 0
M  V30 16893 H 1549.75 -0.818421 -2.44253 0
M  V30 16894 H 1549.71 0.80427 -3.03939 0
M  V30 16895 N 1553.48 0.89303 -1.29857 0
M  V30 16896 C 1554.45 1.97944 -1.15546 0
M  V30 16897 C 1555.45 1.60554 -0.088989 0
M  V30 16898 O 1556.64 1.7092 -0.336464 0
M  V30 16899 C 1553.77 3.32126 -0.768442 0
M  V30 16900 H 1554.96 2.12067 -2.12055 0
M  V30 16901 H 1552.51 1.0784 -1.13138 0
M  V30 16902 H 1553.25 3.23704 0.196504 0
M  V30 16903 H 1553.03 3.60631 -1.53907 0
M  V30 16904 H 1554.52 4.11834 -0.691559 0
M  V30 16905 N 1554.96 1.12442 1.10429 0
M  V30 16906 C 1556.21 0.878021 1.82031 0
M  V30 16907 C 1556.53 -0.597787 1.85611 0
M  V30 16908 O 1555.8 -1.43442 1.33422 0
M  V30 16909 H 1554.38 0.321839 0.674113 0
M  V30 16910 H 1557.04 1.41891 1.33615 0
M  V30 16911 H 1556.14 1.25957 2.85554 0
M  V30 16912 N 1556.44 -1.28223 0.91633 0
M  V30 16913 C 1557.37 -2.25482 0.351128 0
M  V30 16914 C 1558.35 -1.53155 -0.546108 0
M  V30 16915 O 1559.53 -1.82042 -0.489182 0
M  V30 16916 C 1556.66 -3.35021 -0.497832 0
M  V30 16917 C 1555.71 -4.25187 0.334384 0
M  V30 16918 S 1556.54 -5.06348 1.74276 0
M  V30 16919 C 1557.7 -6.19378 0.901172 0
M  V30 16920 H 1557.93 -2.73075 1.17547 0
M  V30 16921 H 1555.46 -1.36703 0.717752 0
M  V30 16922 H 1557.42 -3.98586 -0.98182 0
M  V30 16923 H 1556.08 -2.8609 -1.29658 0
M  V30 16924 H 1555.27 -5.03015 -0.314884 0
M  V30 16925 H 1554.88 -3.66359 0.75212 0
M  V30 16926 H 1557.17 -6.77371 0.131985 0
M  V30 16927 H 1558.11 -6.88558 1.65208 0
M  V30 16928 H 1558.52 -5.62718 0.448206 0
M  V30 16929 N 1557.92 -0.68059 -1.42147 0
M  V30 16930 C 1559.14 -0.212293 -2.06311 0
M  V30 16931 C 1559.57 1.12402 -1.50822 0
M  V30 16932 O 1558.93 1.70037 -0.629051 0
M  V30 16933 C 1558.97 -0.164156 -3.60226 0
M  V30 16934 O 1558.08 0.865582 -4.03214 0
M  V30 16935 H 1557.42 -0.107451 -0.655248 0
M  V30 16936 H 1559.95 -0.931233 -1.82179 0
M  V30 16937 H 1559.96 0.0100422 -4.07999 0
M  V30 16938 H 1558.63 -1.13952 -3.99985 0
M  V30 16939 H 1557.21 0.661955 -3.66978 0
M  V30 16940 N 1559.4 1.51781 -0.424309 0
M  V30 16941 C 1560.33 2.30313 0.384462 0
M  V30 16942 C 1561.31 1.35166 1.03268 0
M  V30 16943 O 1562.49 1.64081 1.0388 0
M  V30 16944 C 1559.62 3.13566 1.49311 0
M  V30 16945 C 1558.58 4.16884 0.969096 0
M  V30 16946 C 1557.9 4.88576 2.17251 0
M  V30 16947 C 1559.2 5.22298 0.0125613 0
M  V30 16948 H 1560.9 2.98172 -0.270871 0
M  V30 16949 H 1558.44 1.43396 -0.131712 0
M  V30 16950 H 1560.39 3.67279 2.06602 0
M  V30 16951 H 1559.12 2.43504 2.17655 0
M  V30 16952 H 1557.78 3.64203 0.418494 0
M  V30 16953 H 1557.43 4.15029 2.84183 0
M  V30 16954 H 1557.13 5.58432 1.82833 0
M  V30 16955 H 1558.65 5.45107 2.75119 0
M  V30 16956 H 1560.06 5.71161 0.494744 0
M  V30 16957 H 1558.46 5.99606 -0.243544 0
M  V30 16958 H 1559.53 4.75935 -0.92813 0
M  V30 16959 N 1560.87 0.155222 1.56834 0
M  V30 16960 C 1562.12 -0.49285 1.95998 0
M  V30 16961 C 1562.44 -1.64857 1.0415 0
M  V30 16962 O 1561.71 -1.9562 0.104654 0
M  V30 16963 H 1560.29 -0.185063 0.723713 0
M  V30 16964 H 1562.95 0.232644 1.93507 0
M  V30 16965 H 1562.05 -0.863552 2.99915 0
M  V30 16966 N 1562.35 -1.57153 -0.118549 0
M  V30 16967 C 1563.31 -1.99438 -1.12947 0
M  V30 16968 C 1564.31 -0.884588 -1.34282 0
M  V30 16969 O 1565.5 -1.15062 -1.30792 0
M  V30 16970 C 1562.64 -2.33492 -2.48384 0
M  V30 16971 H 1563.83 -2.89952 -0.766034 0
M  V30 16972 H 1561.38 -1.5203 -0.362858 0
M  V30 16973 H 1562.12 -1.45859 -2.89647 0
M  V30 16974 H 1561.9 -3.14433 -2.34252 0
M  V30 16975 H 1563.39 -2.66945 -3.21139 0
M  V30 16976 N 1563.83 0.388742 -1.5273 0
M  V30 16977 C 1564.78 1.47488 -1.77527 0
M  V30 16978 C 1565.75 1.54155 -0.618505 0
M  V30 16979 O 1566.93 1.70407 -0.858251 0
M  V30 16980 C 1564.07 2.84714 -1.95018 0
M  V30 16981 C 1563.18 2.87197 -3.2271 0
M  V30 16982 C 1562.32 4.15851 -3.30517 0
M  V30 16983 C 1561.36 4.12386 -4.52332 0
M  V30 16984 N 1560.5 5.32647 -4.57418 0
M  V30 16985 H 1565.34 1.25644 -2.70218 0
M  V30 16986 H 1562.87 0.609519 -1.33878 0
M  V30 16987 H 1564.83 3.64402 -2.03143 0
M  V30 16988 H 1563.46 3.05008 -1.05688 0
M  V30 16989 H 1562.51 1.99879 -3.23655 0
M  V30 16990 H 1563.82 2.80505 -4.12454 0
M  V30 16991 H 1562.98 5.03943 -3.37827 0
M  V30 16992 H 1561.72 4.25265 -2.38748 0
M  V30 16993 H 1560.72 3.22683 -4.45147 0
M  V30 16994 H 1561.95 4.04594 -5.45418 0
M  V30 16995 H 1559.89 5.42691 -3.68541 0
M  V30 16996 H 1559.81 5.28032 -5.41035 0
M  V30 16997 H 1561.08 6.22636 -4.68983 0
M  V30 16998 N 1565.31 1.43698 0.647203 0
M  V30 16999 C 1566.56 1.45346 1.40425 0
M  V30 17000 C 1566.88 0.081129 1.94831 0
M  V30 17001 O 1566.15 -0.884379 1.74801 0
M  V30 17002 H 1564.73 0.535145 0.521181 0
M  V30 17003 H 1567.39 1.79349 0.762887 0
M  V30 17004 H 1566.48 2.16954 2.2436 0
M  V30 17005 N 1566.79 -0.886131 1.30328 0
M  V30 17006 C 1567.75 -1.97328 1.16594 0
M  V30 17007 C 1568.75 -1.60504 0.0975023 0
M  V30 17008 O 1569.94 -1.70739 0.345524 0
M  V30 17009 C 1567.07 -3.31714 0.786045 0
M  V30 17010 H 1568.26 -2.1094 2.13177 0
M  V30 17011 H 1565.82 -1.07238 1.13708 0
M  V30 17012 H 1566.55 -3.23804 -0.179334 0
M  V30 17013 H 1566.34 -3.5981 1.55817 0
M  V30 17014 H 1567.83 -4.11461 0.71339 0
M  V30 17015 N 1568.26 -1.13026 -1.09832 0
M  V30 17016 C 1569.23 -0.806832 -2.14529 0
M  V30 17017 C 1570.23 0.18175 -1.5977 0
M  V30 17018 O 1571.42 -0.0448155 -1.74142 0
M  V30 17019 C 1568.55 -0.200093 -3.40312 0
M  V30 17020 H 1569.74 -1.73453 -2.44651 0
M  V30 17021 H 1567.3 -0.934331 -1.25299 0
M  V30 17022 H 1568.03 0.737028 -3.15814 0
M  V30 17023 H 1567.82 -0.911945 -3.81348 0
M  V30 17024 H 1569.31 0.00948247 -4.17599 0
M  V30 17025 N 1569.74 1.27735 -0.923117 0
M  V30 17026 C 1570.99 1.94185 -0.56004 0
M  V30 17027 C 1571.31 1.72945 0.90084 0
M  V30 17028 O 1570.58 1.07453 1.63801 0
M  V30 17029 H 1569.16 0.718568 -0.204129 0
M  V30 17030 H 1571.82 1.55535 -1.17451 0
M  V30 17031 H 1570.92 3.02644 -0.762424 0
M  V30 17032 N 1571.22 0.688118 1.41784 0
M  V30 17033 C 1572.63 0.291625 1.84408 0
M  V30 17034 C 1572.98 -1.1688 1.57587 0
M  V30 17035 O 1572.11 -1.89634 1.04248 0
M  V30 17036 C 1572.7 0.522511 3.34747 0
M  V30 17037 C 1571.26 0.180008 3.75969 0
M  V30 17038 C 1570.41 0.808455 2.65253 0
M  V30 17039 H 1573.36 0.88932 1.31441 0
M  V30 17040 H 1573.38 -0.221167 3.79857 0
M  V30 17041 H 1572.89 1.5855 3.54236 0
M  V30 17042 H 1570.99 -0.879012 3.62083 0
M  V30 17043 H 1571.11 0.629826 4.74942 0
M  V30 17044 H 1569.47 0.238665 2.53579 0
M  V30 17045 H 1570.25 1.87516 2.87563 0
M  V30 17046 N 1572.7 -1.51554 0.432352 0
M  V30 17047 C 1573.63 -2.30514 -0.372243 0
M  V30 17048 C 1574.61 -1.35712 -1.02549 0
M  V30 17049 O 1575.79 -1.6463 -1.03009 0
M  V30 17050 C 1572.92 -3.14353 -1.47646 0
M  V30 17051 C 1571.88 -4.17392 -0.946974 0
M  V30 17052 C 1571.2 -4.89721 -2.14656 0
M  V30 17053 C 1572.5 -5.22298 0.0151377 0
M  V30 17054 H 1574.2 -2.98024 0.28668 0
M  V30 17055 H 1571.74 -1.43325 0.139315 0
M  V30 17056 H 1573.7 -3.68369 -2.04651 0
M  V30 17057 H 1572.42 -2.44654 -2.1636 0
M  V30 17058 H 1571.08 -3.6442 -0.399174 0
M  V30 17059 H 1570.73 -4.1653 -2.81978 0
M  V30 17060 H 1570.43 -5.59393 -1.79869 0
M  V30 17061 H 1571.95 -5.46559 -2.72224 0
M  V30 17062 H 1573.37 -5.71416 -0.464447 0
M  V30 17063 H 1571.76 -5.99468 0.275339 0
M  V30 17064 H 1572.83 -4.75436 0.953357 0
M  V30 17065 N 1574.18 -0.163538 -1.56749 0
M  V30 17066 C 1575.59 0.354516 -1.83303 0
M  V30 17067 C 1575.94 1.63601 -1.08301 0
M  V30 17068 O 1575.06 2.13814 -0.333546 0
M  V30 17069 C 1575.66 0.649983 -3.32507 0
M  V30 17070 C 1574.22 1.1125 -3.59584 0
M  V30 17071 C 1573.36 0.144257 -2.76925 0
M  V30 17072 H 1576.32 -0.387945 -1.53885 0
M  V30 17073 H 1576.34 1.5029 -3.49562 0
M  V30 17074 H 1575.85 -0.282886 -3.87068 0
M  V30 17075 H 1573.95 2.06074 -3.10426 0
M  V30 17076 H 1574.06 1.02704 -4.67962 0
M  V30 17077 H 1572.43 0.640116 -2.46525 0
M  V30 17078 H 1573.21 -0.782495 -3.34263 0
M  V30 17079 N 1575.65 1.57214 0.110213 0
M  V30 17080 C 1576.88 1.8988 0.834297 0
M  V30 17081 C 1577.3 0.756347 1.72224 0
M  V30 17082 O 1576.66 -0.292768 1.78921 0
M  V30 17083 C 1576.71 3.21338 1.63629 0
M  V30 17084 O 1575.81 3.07862 2.74399 0
M  V30 17085 H 1575.16 0.62283 0.23017 0
M  V30 17086 H 1577.69 2.04402 0.0899726 0
M  V30 17087 H 1577.7 3.54275 2.02369 0
M  V30 17088 H 1576.37 4.04079 0.984521 0
M  V30 17089 H 1574.95 2.8641 2.38797 0
M  V30 17090 N 1577.13 -0.380637 1.52934 0
M  V30 17091 C 1578.04 -1.48957 1.81243 0
M  V30 17092 C 1579.06 -1.5931 0.69974 0
M  V30 17093 O 1580.23 -1.75488 0.988218 0
M  V30 17094 C 1577.3 -2.84397 1.9829 0
M  V30 17095 C 1576.36 -2.83697 3.22202 0
M  V30 17096 C 1575.59 -4.12677 3.38427 0
M  V30 17097 O 1575.82 -5.08068 2.59274 0
M  V30 17098 O 1574.75 -4.19407 4.31719 0
M  V30 17099 H 1578.58 -1.27964 2.75425 0
M  V30 17100 H 1576.16 -0.56929 1.38128 0
M  V30 17101 H 1578.04 -3.64676 2.11161 0
M  V30 17102 H 1576.72 -3.054 1.07298 0
M  V30 17103 H 1575.63 -2.0217 3.14767 0
M  V30 17104 H 1576.96 -2.67648 4.13068 0
M  V30 17105 N 1578.61 -1.44039 -0.639573 0
M  V30 17106 C 1579.57 -1.49907 -1.7338 0
M  V30 17107 C 1580.57 -0.382101 -1.56194 0
M  V30 17108 O 1581.76 -0.644396 -1.61843 0
M  V30 17109 C 1578.9 -1.36486 -3.12385 0
M  V30 17110 H 1580.09 -2.4737 -1.69553 0
M  V30 17111 H 1577.64 -1.31006 -0.852474 0
M  V30 17112 H 1578.38 -0.400845 -3.21813 0
M  V30 17113 H 1578.16 -2.17471 -3.26265 0
M  V30 17114 H 1579.65 -1.43555 -3.9215 0
M  V30 17115 N 1580.09 0.879207 -1.30796 0
M  V30 17116 C 1581.33 1.63392 -1.20129 0
M  V30 17117 C 1581.67 1.92684 0.242164 0
M  V30 17118 O 1580.94 1.55188 1.17247 0
M  V30 17119 C 1581.23 2.97005 -2.03618 0
M  V30 17120 C 1581.08 2.74649 -3.56214 0
M  V30 17121 C 1582.4 3.97998 -1.87845 0
M  V30 17122 H 1579.52 0.592911 -0.437751 0
M  V30 17123 H 1582.16 1.017 -1.6049 0
M  V30 17124 H 1580.31 3.49659 -1.69326 0
M  V30 17125 H 1581.98 2.28738 -4.00595 0
M  V30 17126 H 1580.22 2.09048 -3.80107 0
M  V30 17127 H 1580.89 3.69681 -4.09927 0
M  V30 17128 H 1583.37 3.54523 -2.17836 0
M  V30 17129 H 1582.25 4.89388 -2.48578 0
M  V30 17130 H 1582.51 4.34062 -0.839183 0
M  V30 17131 N 1581.57 1.13606 1.09231 0
M  V30 17132 C 1582.5 0.77306 2.15769 0
M  V30 17133 C 1583.51 -0.206148 1.6149 0
M  V30 17134 O 1584.7 0.014338 1.78494 0
M  V30 17135 C 1581.8 0.125475 3.38668 0
M  V30 17136 C 1580.97 1.13728 4.22356 0
M  V30 17137 C 1580.03 0.515021 5.23674 0
M  V30 17138 O 1579.06 1.1756 5.56928 0
M  V30 17139 N 1580.26 -0.712028 5.76117 0
M  V30 17140 H 1583.03 1.68984 2.47517 0
M  V30 17141 H 1580.59 1.02935 1.24964 0
M  V30 17142 H 1582.58 -0.303109 4.03563 0
M  V30 17143 H 1581.15 -0.694284 3.04792 0
M  V30 17144 H 1580.37 1.74309 3.53568 0
M  V30 17145 H 1581.66 1.82106 4.75094 0
M  V30 17146 H 1581.06 -1.26745 5.51319 0
M  V30 17147 H 1579.61 -1.08324 6.42736 0
M  V30 17148 N 1583.05 -1.27244 0.929878 0
M  V30 17149 C 1584.29 -1.94902 0.5818 0
M  V30 17150 C 1584.65 -1.71719 -0.867768 0
M  V30 17151 O 1583.94 -1.03697 -1.61113 0
M  V30 17152 C 1584.13 -3.47233 0.846386 0
M  V30 17153 C 1583.96 -3.85228 2.32012 0
M  V30 17154 C 1582.73 -4.08567 2.97323 0
M  V30 17155 C 1584.93 -3.94651 3.2978 0
M  V30 17156 N 1582.91 -4.33358 4.34826 0
M  V30 17157 C 1584.28 -4.23843 4.52501 0
M  V30 17158 C 1586.34 -3.77235 3.24959 0
M  V30 17159 C 1585.04 -4.37431 5.71005 0
M  V30 17160 C 1587.07 -3.92049 4.42777 0
M  V30 17161 C 1586.43 -4.21629 5.64277 0
M  V30 17162 H 1582.53 -0.736425 0.263063 0
M  V30 17163 H 1585.11 -1.53562 1.19695 0
M  V30 17164 H 1583.28 -3.87526 0.260378 0
M  V30 17165 H 1585.02 -4.02069 0.460717 0
M  V30 17166 H 1581.77 -4.03486 2.47984 0
M  V30 17167 H 1582.19 -4.49807 5.05967 0
M  V30 17168 H 1586.84 -3.53404 2.32089 0
M  V30 17169 H 1584.55 -4.60087 6.64339 0
M  V30 17170 H 1588.14 -3.7999 4.40567 0
M  V30 17171 H 1587.02 -4.32843 6.53924 0
M  V30 17172 N 1584.52 -0.695628 -1.41417 0
M  V30 17173 C 1585.45 -0.0447013 -2.33457 0
M  V30 17174 C 1586.43 0.767104 -1.51821 0
M  V30 17175 O 1587.62 0.720066 -1.80357 0
M  V30 17176 C 1584.75 0.892353 -3.3564 0
M  V30 17177 C 1583.7 0.187638 -4.27588 0
M  V30 17178 C 1583.03 1.23906 -5.20146 0
M  V30 17179 C 1584.33 -0.946093 -5.1366 0
M  V30 17180 H 1586.02 -0.81343 -2.88138 0
M  V30 17181 H 1583.57 -0.392614 -1.38544 0
M  V30 17182 H 1585.52 1.35696 -3.98954 0
M  V30 17183 H 1584.25 1.69275 -2.79309 0
M  V30 17184 H 1582.91 -0.256942 -3.65698 0
M  V30 17185 H 1582.55 2.03198 -4.6013 0
M  V30 17186 H 1582.25 0.772536 -5.82499 0
M  V30 17187 H 1583.78 1.70417 -5.86336 0
M  V30 17188 H 1585.19 -0.561764 -5.70541 0
M  V30 17189 H 1583.59 -1.33971 -5.84954 0
M  V30 17190 H 1584.66 -1.78573 -4.50821 0
M  V30 17191 N 1586 1.51322 -0.440383 0
M  V30 17192 C 1587.24 2.04022 0.124196 0
M  V30 17193 C 1587.61 1.31715 1.39697 0
M  V30 17194 O 1588.81 1.74804 2.04198 0
M  V30 17195 C 1587.08 3.55829 0.334744 0
M  V30 17196 S 1588.64 4.30244 0.862291 0
M  V30 17197 H 1585.45 0.710349 0.0304204 0
M  V30 17198 H 1588.06 1.86049 -0.600487 0
M  V30 17199 H 1586.76 4.06022 -0.597876 0
M  V30 17200 H 1586.29 3.78101 1.08642 0
M  V30 17201 H 1588.31 4.47705 2.13951 0
M  V30 17202 N 1587.48 0.171848 1.5666 0
M  V30 17203 C 1588.43 -0.770535 2.14585 0
M  V30 17204 C 1589.41 -1.19247 1.08023 0
M  V30 17205 O 1590.61 -1.15474 1.34144 0
M  V30 17206 C 1587.73 -1.99956 2.79057 0
M  V30 17207 C 1586.82 -1.59959 3.92777 0
M  V30 17208 N 1587.21 -0.909224 4.97561 0
M  V30 17209 C 1585.51 -1.89057 4.03947 0
M  V30 17210 C 1586.21 -0.7122 5.77324 0
M  V30 17211 N 1585.19 -1.25379 5.28943 0
M  V30 17212 H 1588.99 -0.234114 2.92966 0
M  V30 17213 H 1586.5 -0.0288117 1.62374 0
M  V30 17214 H 1588.5 -2.68492 3.18932 0
M  V30 17215 H 1587.16 -2.54092 2.02157 0
M  V30 17216 H 1588.17 -0.567214 5.14785 0
M  V30 17217 H 1584.85 -2.44868 3.38151 0
M  V30 17218 H 1586.24 -0.166225 6.71694 0
M  V30 17219 N 1588.96 -1.5727 -0.101874 0
M  V30 17220 C 1589.89 -1.98253 -1.15014 0
M  V30 17221 C 1590.9 -0.884147 -1.36699 0
M  V30 17222 O 1592.09 -1.16232 -1.35471 0
M  V30 17223 C 1589.19 -2.28043 -2.50698 0
M  V30 17224 C 1588.36 -3.59343 -2.49383 0
M  V30 17225 C 1587.42 -3.77147 -3.66943 0
M  V30 17226 O 1586.45 -4.49075 -3.49744 0
M  V30 17227 N 1587.65 -3.1721 -4.86167 0
M  V30 17228 H 1590.42 -2.88787 -0.801375 0
M  V30 17229 H 1587.98 -1.59264 -0.290941 0
M  V30 17230 H 1589.97 -2.37153 -3.27934 0
M  V30 17231 H 1588.54 -1.4355 -2.77691 0
M  V30 17232 H 1587.76 -3.61264 -1.57741 0
M  V30 17233 H 1589.05 -4.45612 -2.45576 0
M  V30 17234 H 1588.45 -2.58772 -5.03044 0
M  V30 17235 H 1587 -3.31816 -5.61018 0
M  V30 17236 N 1590.44 0.372521 -1.53134 0
M  V30 17237 C 1591.4 1.43875 -1.78417 0
M  V30 17238 C 1592.4 1.46879 -0.654455 0
M  V30 17239 O 1593.59 1.47761 -0.922619 0
M  V30 17240 C 1590.72 2.83046 -1.89994 0
M  V30 17241 H 1591.91 1.22733 -2.73636 0
M  V30 17242 H 1589.47 0.605247 -1.44106 0
M  V30 17243 H 1590.2 3.09511 -0.968179 0
M  V30 17244 H 1589.99 2.82265 -2.72156 0
M  V30 17245 H 1591.48 3.60273 -2.11171 0
M  V30 17246 N 1591.91 1.44376 0.631925 0
M  V30 17247 C 1593.16 1.47117 1.3915 0
M  V30 17248 C 1593.49 0.10347 1.94225 0
M  V30 17249 O 1592.74 -0.894623 1.74055 0
M  V30 17250 C 1593.04 2.47828 2.57519 0
M  V30 17251 C 1592.71 3.93174 2.20738 0
M  V30 17252 C 1591.37 4.32755 2.1042 0
M  V30 17253 C 1593.72 4.8468 1.91664 0
M  V30 17254 C 1591.05 5.61768 1.69214 0
M  V30 17255 C 1593.4 6.14079 1.51951 0
M  V30 17256 C 1592.07 6.52616 1.40174 0
M  V30 17257 H 1591.34 0.538341 0.509186 0
M  V30 17258 H 1593.98 1.77584 0.716663 0
M  V30 17259 H 1592.29 2.10841 3.30232 0
M  V30 17260 H 1593.99 2.47196 3.15746 0
M  V30 17261 H 1590.58 3.61859 2.29687 0
M  V30 17262 H 1594.76 4.54855 1.98546 0
M  V30 17263 H 1590.02 5.90444 1.58699 0
M  V30 17264 H 1594.19 6.84443 1.28493 0
M  V30 17265 H 1591.82 7.52487 1.08017 0
M  V30 17266 N 1593.39 -0.872258 1.31261 0
M  V30 17267 C 1594.32 -1.99517 1.21306 0
M  V30 17268 C 1595.3 -1.69801 0.100775 0
M  V30 17269 O 1596.49 -1.92098 0.284984 0
M  V30 17270 C 1593.62 -3.34968 0.917249 0
M  V30 17271 C 1592.57 -3.78984 1.98885 0
M  V30 17272 C 1591.9 -5.11869 1.54578 0
M  V30 17273 C 1593.2 -3.96338 3.40167 0
M  V30 17274 H 1594.89 -2.08104 2.15251 0
M  V30 17275 H 1592.44 -0.999865 1.03628 0
M  V30 17276 H 1594.39 -4.1306 0.834217 0
M  V30 17277 H 1593.11 -3.26549 -0.0578721 0
M  V30 17278 H 1591.77 -3.0313 2.06174 0
M  V30 17279 H 1591.42 -4.99889 0.558581 0
M  V30 17280 H 1591.12 -5.4229 2.26265 0
M  V30 17281 H 1592.65 -5.92472 1.47678 0
M  V30 17282 H 1594.06 -4.64831 3.35566 0
M  V30 17283 H 1592.46 -4.38153 4.10051 0
M  V30 17284 H 1593.53 -2.9979 3.81122 0
M  V30 17285 N 1594.87 -1.14184 -1.08627 0
M  V30 17286 C 1595.8 -0.849455 -2.17501 0
M  V30 17287 C 1596.78 0.194617 -1.68983 0
M  V30 17288 O 1597.97 0.0517757 -1.94131 0
M  V30 17289 C 1595.1 -0.323685 -3.45788 0
M  V30 17290 C 1594.05 -1.30294 -4.07685 0
M  V30 17291 C 1593.38 -0.636575 -5.30897 0
M  V30 17292 C 1594.68 -2.66441 -4.49229 0
M  V30 17293 H 1596.37 -1.75987 -2.42217 0
M  V30 17294 H 1593.92 -0.847595 -1.16412 0
M  V30 17295 H 1595.87 -0.106754 -4.21265 0
M  V30 17296 H 1594.59 0.62215 -3.20619 0
M  V30 17297 H 1593.25 -1.50601 -3.34238 0
M  V30 17298 H 1592.9 0.314995 -5.02013 0
M  V30 17299 H 1592.6 -1.28998 -5.73266 0
M  V30 17300 H 1594.12 -0.429117 -6.0909 0
M  V30 17301 H 1595.54 -2.50055 -5.15893 0
M  V30 17302 H 1593.93 -3.28033 -5.02508 0
M  V30 17303 H 1595 -3.23486 -3.61226 0
M  V30 17304 N 1596.35 1.26749 -0.936613 0
M  V30 17305 C 1597.3 2.26542 -0.441307 0
M  V30 17306 C 1598.27 1.58503 0.496581 0
M  V30 17307 O 1599.45 1.86259 0.41379 0
M  V30 17308 C 1596.59 3.43866 0.291633 0
M  V30 17309 C 1595.7 4.26592 -0.681397 0
M  V30 17310 C 1594.84 5.31151 0.0722826 0
M  V30 17311 C 1593.88 6.05553 -0.892869 0
M  V30 17312 N 1593.01 7.01891 -0.17124 0
M  V30 17313 H 1597.85 2.68282 -1.29725 0
M  V30 17314 H 1595.39 1.31914 -0.650928 0
M  V30 17315 H 1597.35 4.10711 0.732984 0
M  V30 17316 H 1595.98 3.03051 1.11175 0
M  V30 17317 H 1595.03 3.59579 -1.24126 0
M  V30 17318 H 1596.34 4.78201 -1.41864 0
M  V30 17319 H 1595.5 6.03987 0.57313 0
M  V30 17320 H 1594.24 4.80369 0.842439 0
M  V30 17321 H 1593.24 5.31548 -1.40488 0
M  V30 17322 H 1594.47 6.58424 -1.66296 0
M  V30 17323 H 1592.41 6.53426 0.580507 0
M  V30 17324 H 1592.33 7.5123 -0.847897 0
M  V30 17325 H 1593.6 7.78889 0.308662 0
M  V30 17326 N 1597.83 0.703118 1.41046 0
M  V30 17327 C 1598.76 0.0570815 2.3343 0
M  V30 17328 C 1599.74 -0.759042 1.52225 0
M  V30 17329 O 1600.92 -0.710491 1.80736 0
M  V30 17330 C 1598.05 -0.874541 3.36109 0
M  V30 17331 C 1597.01 -0.16496 4.27682 0
M  V30 17332 C 1596.33 -1.21145 5.20795 0
M  V30 17333 C 1597.63 0.97332 5.13151 0
M  V30 17334 H 1599.33 0.828699 2.87703 0
M  V30 17335 H 1596.87 0.399956 1.38334 0
M  V30 17336 H 1598.83 -1.33579 3.99668 0
M  V30 17337 H 1597.55 -1.67791 2.80203 0
M  V30 17338 H 1596.21 0.276332 3.65557 0
M  V30 17339 H 1595.86 -2.00755 4.61201 0
M  V30 17340 H 1595.56 -0.741633 5.82901 0
M  V30 17341 H 1597.08 -1.67305 5.87232 0
M  V30 17342 H 1598.49 0.592013 5.70235 0
M  V30 17343 H 1596.89 1.37071 5.84236 0
M  V30 17344 H 1597.96 1.80961 4.49868 0
M  V30 17345 N 1599.3 -1.51086 0.448402 0
M  V30 17346 C 1600.53 -2.06593 -0.112695 0
M  V30 17347 C 1600.95 -1.31471 -1.35502 0
M  V30 17348 O 1600.3 -0.377406 -1.78555 0
M  V30 17349 C 1600.36 -3.59008 -0.423769 0
M  V30 17350 O 1600.08 -4.31293 0.769259 0
M  V30 17351 C 1601.58 -4.31064 -1.03433 0
M  V30 17352 H 1598.8 -0.670993 -0.00301626 0
M  V30 17353 H 1601.34 -1.94532 0.630667 0
M  V30 17354 H 1599.5 -3.70946 -1.11704 0
M  V30 17355 H 1599.91 -5.2211 0.500162 0
M  V30 17356 H 1601.38 -5.38756 -1.20191 0
M  V30 17357 H 1601.86 -3.90075 -2.01837 0
M  V30 17358 H 1602.47 -4.23598 -0.380115 0
M  V30 17359 N 1600.78 -0.180154 -1.56567 0
M  V30 17360 C 1602.2 0.175902 -1.58628 0
M  V30 17361 C 1602.4 1.62179 -1.19583 0
M  V30 17362 O 1601.45 2.35471 -0.911566 0
M  V30 17363 C 1602.77 -0.11292 -3.00488 0
M  V30 17364 C 1604.32 -0.051834 -3.12957 0
M  V30 17365 C 1604.79 -0.313764 -4.56924 0
M  V30 17366 N 1606.28 -0.261852 -4.62459 0
M  V30 17367 C 1607.02 -0.438573 -5.7172 0
M  V30 17368 N 1606.51 -0.674832 -6.89506 0
M  V30 17369 N 1608.31 -0.373864 -5.60855 0
M  V30 17370 H 1600.46 -1.12385 -1.80232 0
M  V30 17371 H 1602.72 -0.447459 -0.835754 0
M  V30 17372 H 1602.43 -1.11488 -3.33562 0
M  V30 17373 H 1602.3 0.591409 -3.72535 0
M  V30 17374 H 1604.69 0.940711 -2.79705 0
M  V30 17375 H 1604.77 -0.78901 -2.43327 0
M  V30 17376 H 1604.41 -1.30356 -4.90887 0
M  V30 17377 H 1604.34 0.444127 -5.24724 0
M  V30 17378 H 1606.83 -0.0852513 -3.77804 0
M  V30 17379 H 1607.15 -0.798891 -7.6866 0
M  V30 17380 H 1605.49 -0.711551 -6.91348 0
M  V30 17381 H 1608.68 -0.189815 -4.67715 0
M  V30 17382 H 1608.85 -0.515012 -6.4595 0
M  V30 17383 N 1602.26 1.57322 0.0935319 0
M  V30 17384 C 1603.21 1.98608 1.11977 0
M  V30 17385 C 1604.19 0.864762 1.35686 0
M  V30 17386 O 1605.39 1.1286 1.36351 0
M  V30 17387 C 1602.52 2.41537 2.43957 0
M  V30 17388 C 1601.6 3.60357 2.23615 0
M  V30 17389 N 1601.99 4.75242 1.73144 0
M  V30 17390 C 1600.29 3.66485 2.54175 0
M  V30 17391 C 1600.99 5.5718 1.67109 0
M  V30 17392 N 1599.97 5.00396 2.1238 0
M  V30 17393 H 1603.77 2.84881 0.722513 0
M  V30 17394 H 1601.28 1.59587 0.300936 0
M  V30 17395 H 1603.28 2.69343 3.18213 0
M  V30 17396 H 1601.94 1.56641 2.84418 0
M  V30 17397 H 1602.95 4.97961 1.42319 0
M  V30 17398 H 1599.63 2.92255 2.9815 0
M  V30 17399 H 1601.02 6.59376 1.29125 0
M  V30 17400 N 1603.74 -0.364395 1.53329 0
M  V30 17401 C 1605.15 -0.706147 1.43128 0
M  V30 17402 C 1605.35 -1.93231 0.571307 0
M  V30 17403 O 1604.41 -2.52442 0.0542079 0
M  V30 17404 C 1605.72 -0.918245 2.86337 0
M  V30 17405 C 1607.27 -1.01818 2.95976 0
M  V30 17406 C 1607.75 -1.26274 4.40249 0
M  V30 17407 N 1609.24 -1.33042 4.43683 0
M  V30 17408 C 1609.97 -1.53677 5.52423 0
M  V30 17409 N 1609.47 -1.7162 6.71207 0
M  V30 17410 N 1611.26 -1.56056 5.40003 0
M  V30 17411 H 1603.41 0.442091 2.07748 0
M  V30 17412 H 1605.68 0.135735 0.938232 0
M  V30 17413 H 1605.38 -0.0890628 3.51587 0
M  V30 17414 H 1605.26 -1.826 3.30056 0
M  V30 17415 H 1607.64 -1.83791 2.30879 0
M  V30 17416 H 1607.72 -0.0877892 2.55649 0
M  V30 17417 H 1607.37 -0.448026 5.0592 0
M  V30 17418 H 1607.3 -2.20637 4.78149 0
M  V30 17419 H 1609.79 -1.20784 3.58078 0
M  V30 17420 H 1610.1 -1.86942 7.49848 0
M  V30 17421 H 1608.45 -1.68797 6.7419 0
M  V30 17422 H 1611.64 -1.41605 4.46168 0
M  V30 17423 H 1611.81 -1.71796 6.24812 0
M  V30 17424 N 1605.22 -1.44709 -0.62426 0
M  V30 17425 C 1606.46 -1.48072 -1.38573 0
M  V30 17426 C 1606.8 -0.115532 -1.93856 0
M  V30 17427 O 1606.07 0.867787 -1.74068 0
M  V30 17428 C 1606.35 -2.54662 -2.54596 0
M  V30 17429 C 1606.21 -4.00564 -2.04618 0
M  V30 17430 C 1607.53 -2.57689 -3.56769 0
M  V30 17431 H 1604.64 -0.539119 -0.502513 0
M  V30 17432 H 1607.29 -1.76427 -0.705225 0
M  V30 17433 H 1605.44 -2.30614 -3.12649 0
M  V30 17434 H 1607.11 -4.35767 -1.51343 0
M  V30 17435 H 1605.35 -4.12014 -1.35746 0
M  V30 17436 H 1606.02 -4.70804 -2.8818 0
M  V30 17437 H 1608.5 -2.79194 -3.08529 0
M  V30 17438 H 1607.37 -3.34161 -4.35462 0
M  V30 17439 H 1607.64 -1.62146 -4.11292 0
M  V30 17440 N 1606.69 0.865285 -1.31722 0
M  V30 17441 C 1607.92 1.65137 -1.24649 0
M  V30 17442 C 1608.34 1.87868 0.187391 0
M  V30 17443 O 1607.69 1.44015 1.12098 0
M  V30 17444 C 1607.75 3.0167 -1.99193 0
M  V30 17445 O 1607.47 2.79951 -3.36985 0
M  V30 17446 C 1608.97 3.96115 -1.99017 0
M  V30 17447 H 1606.19 0.514683 -0.430514 0
M  V30 17448 H 1608.73 1.07971 -1.73674 0
M  V30 17449 H 1606.89 3.55511 -1.53918 0
M  V30 17450 H 1607.3 3.66706 -3.75002 0
M  V30 17451 H 1608.77 4.89217 -2.55677 0
M  V30 17452 H 1609.25 4.28268 -0.973815 0
M  V30 17453 H 1609.86 3.4821 -2.44192 0
M  V30 17454 N 1608.17 1.14759 1.0802 0
M  V30 17455 C 1609.4 0.940521 1.8395 0
M  V30 17456 C 1609.81 -0.514424 1.82072 0
M  V30 17457 O 1609.15 -1.36835 1.22564 0
M  V30 17458 C 1609.22 1.3689 3.32417 0
M  V30 17459 C 1608.88 2.84019 3.58025 0
M  V30 17460 C 1609.88 3.82117 3.52538 0
M  V30 17461 C 1607.56 3.21526 3.85909 0
M  V30 17462 C 1609.56 5.15728 3.74571 0
M  V30 17463 C 1607.24 4.55312 4.07596 0
M  V30 17464 C 1608.24 5.52222 4.01921 0
M  V30 17465 O 1607.93 6.83592 4.23034 0
M  V30 17466 H 1607.66 0.334505 0.587437 0
M  V30 17467 H 1610.21 1.52763 1.37305 0
M  V30 17468 H 1608.44 0.725149 3.7984 0
M  V30 17469 H 1610.13 1.13202 3.89795 0
M  V30 17470 H 1610.9 3.54486 3.31005 0
M  V30 17471 H 1606.78 2.46686 3.89444 0
M  V30 17472 H 1610.32 5.91357 3.70057 0
M  V30 17473 H 1606.22 4.82661 4.28613 0
M  V30 17474 H 1606.99 6.89909 4.40418 0
M  V30 17475 N 1609.65 -1.26251 0.943322 0
M  V30 17476 C 1610.9 -1.93939 0.592909 0
M  V30 17477 C 1611.23 -1.73814 -0.866155 0
M  V30 17478 O 1610.5 -1.07645 -1.61997 0
M  V30 17479 C 1610.79 -3.47653 0.938601 0
M  V30 17480 C 1610.64 -3.77053 2.45257 0
M  V30 17481 C 1611.96 -4.37736 0.455546 0
M  V30 17482 H 1609.08 -0.704367 0.21688 0
M  V30 17483 H 1611.72 -1.4908 1.17793 0
M  V30 17484 H 1609.87 -3.85992 0.440756 0
M  V30 17485 H 1611.54 -3.48417 3.0233 0
M  V30 17486 H 1609.79 -3.23055 2.89513 0
M  V30 17487 H 1610.46 -4.84506 2.64495 0
M  V30 17488 H 1612.93 -4.06635 0.882435 0
M  V30 17489 H 1611.81 -5.44075 0.72623 0
M  V30 17490 H 1612.07 -4.37377 -0.644508 0
M  V30 17491 N 1611.13 -0.710588 -1.40671 0
M  V30 17492 C 1612.54 -0.320926 -1.83921 0
M  V30 17493 C 1612.89 1.14358 -1.59426 0
M  V30 17494 O 1612.02 1.87952 -1.07252 0
M  V30 17495 C 1612.61 -0.5757 -3.33873 0
M  V30 17496 C 1611.17 -0.239799 -3.75635 0
M  V30 17497 C 1610.32 -0.850552 -2.63934 0
M  V30 17498 H 1613.27 -0.910118 -1.3001 0
M  V30 17499 H 1613.29 0.160707 -3.8016 0
M  V30 17500 H 1612.8 -1.64166 -3.51669 0
M  V30 17501 H 1610.9 0.821297 -3.63436 0
M  V30 17502 H 1611.02 -0.705306 -4.7388 0
M  V30 17503 H 1609.38 -0.278977 -2.53168 0
M  V30 17504 H 1610.16 -1.92068 -2.84543 0
M  V30 17505 N 1612.61 1.50847 -0.456408 0
M  V30 17506 C 1613.54 2.31077 0.335523 0
M  V30 17507 C 1614.52 1.37326 1.00377 0
M  V30 17508 O 1615.7 1.66247 1.00376 0
M  V30 17509 C 1612.83 3.16662 1.42627 0
M  V30 17510 C 1611.79 4.18846 0.88045 0
M  V30 17511 C 1611.11 4.93074 2.06838 0
M  V30 17512 C 1612.41 5.22208 -0.0982288 0
M  V30 17513 H 1614.11 2.97531 -0.334056 0
M  V30 17514 H 1611.65 1.43085 -0.162099 0
M  V30 17515 H 1613.61 3.71578 1.98765 0
M  V30 17516 H 1612.33 2.48066 2.12441 0
M  V30 17517 H 1610.99 3.65009 0.341147 0
M  V30 17518 H 1610.64 4.20963 2.75316 0
M  V30 17519 H 1610.34 5.62184 1.70947 0
M  V30 17520 H 1611.86 5.5082 2.63494 0
M  V30 17521 H 1613.28 5.72082 0.373481 0
M  V30 17522 H 1611.67 5.98954 -0.370674 0
M  V30 17523 H 1612.74 4.73859 -1.02887 0
M  V30 17524 N 1614.09 0.188454 1.56469 0
M  V30 17525 C 1615.02 -0.730379 2.21783 0
M  V30 17526 C 1616 -1.22629 1.17882 0
M  V30 17527 O 1617.18 -1.27634 1.46367 0
M  V30 17528 C 1614.31 -1.95278 2.872 0
M  V30 17529 C 1613.27 -1.59205 3.97288 0
M  V30 17530 C 1612.59 -2.89052 4.49836 0
M  V30 17531 C 1613.89 -0.807027 5.16027 0
M  V30 17532 H 1615.59 -0.185914 2.98822 0
M  V30 17533 H 1613.13 -0.0879804 1.43731 0
M  V30 17534 H 1615.08 -2.60074 3.31571 0
M  V30 17535 H 1613.81 -2.52167 2.07556 0
M  V30 17536 H 1612.47 -0.967713 3.53597 0
M  V30 17537 H 1612.12 -3.44017 3.66963 0
M  V30 17538 H 1611.82 -2.65663 5.24115 0
M  V30 17539 H 1613.34 -3.54847 4.96906 0
M  V30 17540 H 1614.75 -1.35794 5.56986 0
M  V30 17541 H 1613.15 -0.671516 5.96331 0
M  V30 17542 H 1614.22 0.193251 4.84515 0
M  V30 17543 N 1615.56 -1.5737 -0.0851874 0
M  V30 17544 C 1616.81 -1.86219 -0.7853 0
M  V30 17545 C 1617.13 -0.77857 -1.78783 0
M  V30 17546 O 1616.4 0.194176 -1.94935 0
M  V30 17547 H 1614.98 -0.687134 -0.293013 0
M  V30 17548 H 1617.64 -1.94793 -0.0644597 0
M  V30 17549 H 1616.74 -2.83286 -1.30978 0
M  V30 17550 N 1617.04 0.356258 -1.53521 0
M  V30 17551 C 1618.27 1.12273 -1.74383 0
M  V30 17552 C 1618.69 1.81981 -0.475881 0
M  V30 17553 O 1618.05 1.72083 0.570699 0
M  V30 17554 C 1618.1 2.12161 -2.91582 0
M  V30 17555 O 1617.2 3.1943 -2.60842 0
M  V30 17556 H 1616.54 0.325321 -0.578845 0
M  V30 17557 H 1619.07 0.410533 -2.00439 0
M  V30 17558 H 1619.08 2.55602 -3.18012 0
M  V30 17559 H 1617.76 1.60818 -3.8355 0
M  V30 17560 H 1616.33 2.80895 -2.4526 0
M  V30 17561 N 1618.52 1.45038 0.616577 0
M  V30 17562 C 1619.45 1.55858 1.73869 0
M  V30 17563 C 1620.43 0.410657 1.65069 0
M  V30 17564 O 1621.62 0.632652 1.83606 0
M  V30 17565 C 1618.75 1.51635 3.12448 0
M  V30 17566 C 1617.7 2.65053 3.36052 0
M  V30 17567 C 1617.03 2.45883 4.74811 0
M  V30 17568 C 1618.33 4.07121 3.27185 0
M  V30 17569 H 1620.02 2.49784 1.6507 0
M  V30 17570 H 1617.57 1.20216 0.792724 0
M  V30 17571 H 1619.52 1.57803 3.90738 0
M  V30 17572 H 1618.24 0.542342 3.22066 0
M  V30 17573 H 1616.9 2.58299 2.60149 0
M  V30 17574 H 1616.55 1.46641 4.8115 0
M  V30 17575 H 1616.25 3.21935 4.9156 0
M  V30 17576 H 1617.77 2.53892 5.55312 0
M  V30 17577 H 1619.19 4.15167 3.9536 0
M  V30 17578 H 1617.58 4.83491 3.55466 0
M  V30 17579 H 1618.65 4.29663 2.24762 0
M  V30 17580 N 1620 -0.858287 1.32179 0
M  V30 17581 C 1621.41 -1.14591 1.1109 0
M  V30 17582 C 1621.61 -2.01194 -0.110998 0
M  V30 17583 O 1620.67 -2.39593 -0.79695 0
M  V30 17584 C 1621.98 -1.82675 2.38852 0
M  V30 17585 C 1623.53 -1.95326 2.44574 0
M  V30 17586 C 1624.01 -2.66826 3.72247 0
M  V30 17587 N 1625.5 -2.74353 3.73208 0
M  V30 17588 C 1626.23 -3.30317 4.68698 0
M  V30 17589 N 1625.73 -3.87121 5.74552 0
M  V30 17590 N 1627.52 -3.28386 4.562 0
M  V30 17591 H 1619.67 -0.281471 2.10527 0
M  V30 17592 H 1621.93 -0.187326 0.929308 0
M  V30 17593 H 1621.64 -1.26495 3.28165 0
M  V30 17594 H 1621.51 -2.82862 2.49537 0
M  V30 17595 H 1623.9 -2.50668 1.55723 0
M  V30 17596 H 1623.98 -0.94147 2.37844 0
M  V30 17597 H 1623.63 -2.12149 4.61471 0
M  V30 17598 H 1623.56 -3.68437 3.76247 0
M  V30 17599 H 1626.05 -2.34051 2.96696 0
M  V30 17600 H 1626.36 -4.2797 6.43476 0
M  V30 17601 H 1624.71 -3.85463 5.78311 0
M  V30 17602 H 1627.9 -2.83254 3.72672 0
M  V30 17603 H 1628.07 -3.71701 5.30794 0
M  V30 17604 N 1621.48 -1.1533 -1.07409 0
M  V30 17605 C 1622.7 -0.951643 -1.83715 0
M  V30 17606 C 1623.12 0.500054 -1.82057 0
M  V30 17607 O 1622.48 1.3468 -1.23157 0
M  V30 17608 C 1622.53 -1.45734 -3.30823 0
M  V30 17609 O 1622.25 -2.85217 -3.3254 0
M  V30 17610 C 1623.75 -1.29709 -4.23899 0
M  V30 17611 H 1620.97 -0.338021 -0.57964 0
M  V30 17612 H 1623.51 -1.53088 -1.35589 0
M  V30 17613 H 1621.67 -0.920643 -3.76302 0
M  V30 17614 H 1622.08 -3.08134 -4.24445 0
M  V30 17615 H 1623.56 -1.69938 -5.2519 0
M  V30 17616 H 1624.03 -0.241185 -4.38537 0
M  V30 17617 H 1624.64 -1.82283 -3.84256 0
M  V30 17618 N 1622.95 1.25748 -0.950004 0
M  V30 17619 C 1623.92 2.24307 -0.47106 0
M  V30 17620 C 1624.92 1.55145 0.422704 0
M  V30 17621 O 1626.11 1.72797 0.220642 0
M  V30 17622 C 1623.24 3.39395 0.319979 0
M  V30 17623 H 1624.43 2.68192 -1.34214 0
M  V30 17624 H 1621.98 1.38056 -0.732827 0
M  V30 17625 H 1622.72 3.00925 1.20892 0
M  V30 17626 H 1622.5 3.90783 -0.321157 0
M  V30 17627 H 1623.99 4.12594 0.644697 0
M  V30 17628 N 1624.43 0.718038 1.40292 0
M  V30 17629 C 1625.36 0.0276294 2.29183 0
M  V30 17630 C 1626.38 -0.721208 1.45954 0
M  V30 17631 O 1627.57 -0.568181 1.69216 0
M  V30 17632 C 1624.67 -0.985139 3.24266 0
M  V30 17633 C 1623.84 -0.301327 4.36361 0
M  V30 17634 C 1622.9 -1.21982 5.11866 0
M  V30 17635 O 1621.92 -0.70369 5.64833 0
M  V30 17636 N 1623.13 -2.55079 5.21455 0
M  V30 17637 H 1625.89 0.790884 2.89076 0
M  V30 17638 H 1623.45 0.565867 1.51689 0
M  V30 17639 H 1625.44 -1.60183 3.7165 0
M  V30 17640 H 1624.01 -1.64973 2.65523 0
M  V30 17641 H 1623.23 0.495594 3.91072 0
M  V30 17642 H 1624.52 0.173238 5.08505 0
M  V30 17643 H 1623.92 -2.99506 4.79909 0
M  V30 17644 H 1622.48 -3.11886 5.72338 0
M  V30 17645 N 1625.91 -1.50602 0.464402 0
M  V30 17646 C 1627.14 -2.06701 -0.0907765 0
M  V30 17647 C 1627.55 -1.32901 -1.341 0
M  V30 17648 O 1626.91 -0.396323 -1.78145 0
M  V30 17649 C 1626.96 -3.59437 -0.385667 0
M  V30 17650 O 1626.68 -4.30453 0.81496 0
M  V30 17651 C 1628.18 -4.32137 -0.988549 0
M  V30 17652 H 1625.4 -0.670987 0.00410069 0
M  V30 17653 H 1627.95 -1.93853 0.651264 0
M  V30 17654 H 1626.1 -3.7211 -1.07763 0
M  V30 17655 H 1626.52 -5.2155 0.55551 0
M  V30 17656 H 1627.99 -5.40001 -1.1447 0
M  V30 17657 H 1628.47 -3.92194 -1.97688 0
M  V30 17658 H 1629.07 -4.23977 -0.335166 0
M  V30 17659 N 1627.39 -0.19675 -1.56367 0
M  V30 17660 C 1628.32 0.75534 -2.16396 0
M  V30 17661 C 1629.33 1.17558 -1.12623 0
M  V30 17662 O 1630.52 1.11102 -1.39709 0
M  V30 17663 C 1627.62 2.03159 -2.71256 0
M  V30 17664 C 1626.8 1.77088 -3.99948 0
M  V30 17665 C 1625.85 2.89176 -4.39618 0
M  V30 17666 O 1624.88 2.58712 -5.07007 0
M  V30 17667 N 1626.08 4.17569 -4.03257 0
M  V30 17668 H 1628.85 0.241991 -2.98721 0
M  V30 17669 H 1626.41 -0.0148423 -1.61893 0
M  V30 17670 H 1628.4 2.77287 -2.94778 0
M  V30 17671 H 1626.97 2.45611 -1.93375 0
M  V30 17672 H 1626.19 0.867309 -3.84541 0
M  V30 17673 H 1627.48 1.5707 -4.83949 0
M  V30 17674 H 1626.88 4.45171 -3.49054 0
M  V30 17675 H 1625.43 4.88319 -4.31726 0
M  V30 17676 N 1628.87 1.57413 0.0768405 0
M  V30 17677 C 1629.8 2.06378 1.09226 0
M  V30 17678 C 1630.78 0.956269 1.40675 0
M  V30 17679 O 1631.96 1.22868 1.5039 0
M  V30 17680 C 1629.09 2.50349 2.40712 0
M  V30 17681 C 1628.05 3.64931 2.23628 0
M  V30 17682 C 1627.37 3.9494 3.60453 0
M  V30 17683 C 1628.67 4.95162 1.66169 0
M  V30 17684 H 1630.37 2.91463 0.684827 0
M  V30 17685 H 1627.91 1.40215 0.327974 0
M  V30 17686 H 1629.87 2.83216 3.12036 0
M  V30 17687 H 1628.59 1.62287 2.83426 0
M  V30 17688 H 1627.25 3.32339 1.54747 0
M  V30 17689 H 1626.9 3.04016 4.00728 0
M  V30 17690 H 1626.6 4.72091 3.49863 0
M  V30 17691 H 1628.12 4.30299 4.33215 0
M  V30 17692 H 1629.53 5.26292 2.27353 0
M  V30 17693 H 1627.93 5.76601 1.66289 0
M  V30 17694 H 1629 4.80885 0.62271 0
M  V30 17695 N 1630.34 -0.348112 1.53707 0
M  V30 17696 C 1631.57 -1.11346 1.74976 0
M  V30 17697 C 1631.99 -1.81726 0.485525 0
M  V30 17698 O 1631.35 -1.72384 -0.561565 0
M  V30 17699 C 1631.4 -2.10611 2.92703 0
M  V30 17700 O 1630.5 -3.18042 2.62532 0
M  V30 17701 H 1629.85 -0.322247 0.580563 0
M  V30 17702 H 1632.38 -0.399898 2.00654 0
M  V30 17703 H 1632.39 -2.53912 3.19363 0
M  V30 17704 H 1631.06 -1.58782 3.84397 0
M  V30 17705 H 1629.64 -2.79591 2.46746 0
M  V30 17706 N 1631.82 -1.45363 -0.608876 0
M  V30 17707 C 1633.24 -1.29741 -0.929491 0
M  V30 17708 C 1633.44 -0.249486 -1.9995 0
M  V30 17709 O 1632.49 0.357014 -2.49963 0
M  V30 17710 C 1633.81 -2.67594 -1.37164 0
M  V30 17711 C 1635.36 -2.7548 -1.48592 0
M  V30 17712 C 1635.83 -4.13855 -1.96183 0
M  V30 17713 N 1637.32 -4.16143 -2.03419 0
M  V30 17714 C 1638.06 -5.20081 -2.41462 0
M  V30 17715 N 1637.55 -6.34365 -2.78482 0
M  V30 17716 N 1639.35 -5.07439 -2.4179 0
M  V30 17717 H 1631.5 -2.12172 0.0983838 0
M  V30 17718 H 1633.76 -0.947817 -0.0186397 0
M  V30 17719 H 1633.47 -3.45459 -0.6596 0
M  V30 17720 H 1633.34 -2.9597 -2.33841 0
M  V30 17721 H 1635.73 -1.97919 -2.18888 0
M  V30 17722 H 1635.81 -2.50819 -0.502337 0
M  V30 17723 H 1635.45 -4.91901 -1.26475 0
M  V30 17724 H 1635.38 -4.35907 -2.95453 0
M  V30 17725 H 1637.87 -3.33671 -1.77404 0
M  V30 17726 H 1638.19 -7.09469 -3.06388 0
M  V30 17727 H 1636.53 -6.37769 -2.76181 0
M  V30 17728 H 1639.72 -4.17202 -2.12273 0
M  V30 17729 H 1639.89 -5.8856 -2.71112 0
M  V30 17730 N 1633.3 0.851265 -1.32632 0
M  V30 17731 C 1634.25 1.96012 -1.21852 0
M  V30 17732 C 1635.22 1.65799 -0.0999141 0
M  V30 17733 O 1636.4 1.88793 -0.276049 0
M  V30 17734 C 1633.54 3.31737 -0.951014 0
M  V30 17735 C 1632.66 3.74427 -2.15472 0
M  V30 17736 C 1631.79 4.9896 -1.82242 0
M  V30 17737 C 1630.83 5.3415 -2.98914 0
M  V30 17738 N 1629.97 6.49861 -2.65754 0
M  V30 17739 H 1634.81 2.04565 -2.16696 0
M  V30 17740 H 1632.34 1.00119 -1.07771 0
M  V30 17741 H 1634.3 4.09912 -0.776401 0
M  V30 17742 H 1632.93 3.22776 -0.0393461 0
M  V30 17743 H 1631.98 2.91878 -2.4395 0
M  V30 17744 H 1633.3 3.96425 -3.02736 0
M  V30 17745 H 1632.45 5.84851 -1.61352 0
M  V30 17746 H 1631.19 4.78906 -0.921971 0
M  V30 17747 H 1630.19 4.4677 -3.20432 0
M  V30 17748 H 1631.42 5.5616 -3.89696 0
M  V30 17749 H 1629.36 6.31317 -1.78254 0
M  V30 17750 H 1629.28 6.71894 -3.46547 0
M  V30 17751 H 1630.55 7.38895 -2.48302 0
M  V30 17752 N 1634.78 1.15898 1.06796 0
M  V30 17753 C 1635.71 0.88395 2.16122 0
M  V30 17754 C 1636.69 -0.167708 1.69271 0
M  V30 17755 O 1637.87 -0.0208846 1.94189 0
M  V30 17756 C 1635 0.378656 3.4523 0
M  V30 17757 C 1633.96 1.36764 4.05561 0
M  V30 17758 C 1633.28 0.720956 5.29817 0
M  V30 17759 C 1634.58 2.73554 4.44933 0
M  V30 17760 H 1636.28 1.79818 2.39386 0
M  V30 17761 H 1633.82 0.866008 1.15049 0
M  V30 17762 H 1635.78 0.17376 4.21042 0
M  V30 17763 H 1634.5 -0.571063 3.21569 0
M  V30 17764 H 1633.16 1.55899 3.318 0
M  V30 17765 H 1632.81 -0.235089 5.0245 0
M  V30 17766 H 1632.51 1.38101 5.71141 0
M  V30 17767 H 1634.03 0.525963 6.0833 0
M  V30 17768 H 1635.45 2.58231 5.11849 0
M  V30 17769 H 1633.84 3.35986 4.97226 0
M  V30 17770 H 1634.91 3.29192 3.56034 0
M  V30 17771 N 1636.26 -1.25243 0.956659 0
M  V30 17772 C 1637.67 -1.74909 0.652979 0
M  V30 17773 C 1638.02 -1.77704 -0.831605 0
M  V30 17774 O 1637.14 -1.39921 -1.65079 0
M  V30 17775 C 1637.74 -3.17639 1.1786 0
M  V30 17776 C 1636.3 -3.64856 0.925034 0
M  V30 17777 C 1635.44 -2.43844 1.32044 0
M  V30 17778 H 1638.4 -1.11101 1.13324 0
M  V30 17779 H 1638.42 -3.76654 0.539633 0
M  V30 17780 H 1637.93 -3.15572 2.25911 0
M  V30 17781 H 1636.03 -3.72335 -0.14043 0
M  V30 17782 H 1636.14 -4.5289 1.56292 0
M  V30 17783 H 1634.51 -2.43749 0.738813 0
M  V30 17784 H 1635.29 -2.44466 2.41021 0
M  V30 17785 N 1637.73 -0.725468 -1.3991 0
M  V30 17786 C 1638.98 -0.268719 -2.00306 0
M  V30 17787 C 1639.3 1.14511 -1.57836 0
M  V30 17788 O 1638.57 1.77808 -0.822263 0
M  V30 17789 H 1637.15 -0.0963614 -0.740759 0
M  V30 17790 H 1639.82 -0.933303 -1.71101 0
M  V30 17791 H 1638.91 -0.309587 -3.10561 0
M  V30 17792 N 1639.21 1.50354 -0.472382 0
M  V30 17793 C 1640.44 2.06746 0.0798134 0
M  V30 17794 C 1640.86 1.3361 1.33393 0
M  V30 17795 O 1640.21 0.405765 1.77932 0
M  V30 17796 C 1640.26 3.59636 0.3666 0
M  V30 17797 O 1639.98 4.30015 -0.837776 0
M  V30 17798 C 1641.49 4.32655 0.965618 0
M  V30 17799 H 1638.71 0.670956 -0.00765904 0
M  V30 17800 H 1641.25 1.93504 -0.661535 0
M  V30 17801 H 1639.4 3.72676 1.05788 0
M  V30 17802 H 1639.82 5.21248 -0.583161 0
M  V30 17803 H 1641.29 5.406 1.11604 0
M  V30 17804 H 1641.77 3.93237 1.95606 0
M  V30 17805 H 1642.38 4.24149 0.312676 0
M  V30 17806 N 1640.69 0.205039 1.56261 0
M  V30 17807 C 1641.92 -0.43642 2.02245 0
M  V30 17808 C 1642.33 -1.54504 1.08508 0
M  V30 17809 O 1641.69 -1.82269 0.0916991 0
M  V30 17810 C 1641.74 -0.983483 3.47865 0
M  V30 17811 O 1641.46 0.0809166 4.38025 0
M  V30 17812 C 1642.96 -1.69983 4.09415 0
M  V30 17813 H 1640.18 -0.108577 0.662157 0
M  V30 17814 H 1642.73 0.316659 2.02033 0
M  V30 17815 H 1640.88 -1.6869 3.48744 0
M  V30 17816 H 1641.3 -0.327751 5.23475 0
M  V30 17817 H 1642.77 -2.03481 5.13127 0
M  V30 17818 H 1643.25 -2.60711 3.5345 0
M  V30 17819 H 1643.85 -1.04202 4.12337 0
M  V30 17820 N 1642.17 -1.57451 -0.0684915 0
M  V30 17821 C 1643.1 -2.06954 -1.0813 0
M  V30 17822 C 1644.08 -0.963716 -1.40166 0
M  V30 17823 O 1645.27 -1.23664 -1.49736 0
M  V30 17824 C 1642.4 -2.51622 -2.39381 0
M  V30 17825 C 1641.35 -3.66111 -2.2169 0
M  V30 17826 C 1640.68 -3.96846 -3.58354 0
M  V30 17827 C 1641.98 -4.96036 -1.63541 0
M  V30 17828 H 1643.67 -2.91822 -0.66936 0
M  V30 17829 H 1641.22 -1.40387 -0.320533 0
M  V30 17830 H 1643.17 -2.84867 -3.1053 0
M  V30 17831 H 1641.89 -1.63788 -2.82562 0
M  V30 17832 H 1640.55 -3.33155 -1.52982 0
M  V30 17833 H 1640.2 -3.06137 -3.9911 0
M  V30 17834 H 1639.9 -4.73939 -3.47354 0
M  V30 17835 H 1641.42 -4.3259 -4.30927 0
M  V30 17836 H 1642.84 -5.27491 -2.24559 0
M  V30 17837 H 1641.23 -5.77474 -1.63228 0
M  V30 17838 H 1642.3 -4.81208 -0.597199 0
M  V30 17839 N 1643.65 0.339955 -1.5389 0
M  V30 17840 C 1644.88 1.09975 -1.75251 0
M  V30 17841 C 1645.29 1.8224 -0.493355 0
M  V30 17842 O 1644.65 1.74477 0.535173 0
M  V30 17843 C 1644.7 2.11048 -2.93498 0
M  V30 17844 O 1644.42 1.41721 -4.14544 0
M  V30 17845 C 1645.92 2.99375 -3.26939 0
M  V30 17846 H 1643.14 0.327811 -0.585475 0
M  V30 17847 H 1645.68 0.391068 -2.00726 0
M  V30 17848 H 1643.84 2.77476 -2.70344 0
M  V30 17849 H 1644.25 2.09271 -4.80943 0
M  V30 17850 H 1645.73 3.66223 -4.13019 0
M  V30 17851 H 1646.2 3.65588 -2.43397 0
M  V30 17852 H 1646.81 2.38531 -3.52112 0
M  V30 17853 N 1645.13 1.45684 0.601159 0
M  V30 17854 C 1646.09 1.54451 1.69344 0
M  V30 17855 C 1647.09 0.423379 1.55126 0
M  V30 17856 O 1648.28 0.687079 1.60078 0
M  V30 17857 C 1645.41 1.4472 3.08657 0
M  V30 17858 H 1646.6 2.51778 1.62935 0
M  V30 17859 H 1644.16 1.3322 0.81744 0
M  V30 17860 H 1644.89 0.486027 3.20637 0
M  V30 17861 H 1644.68 2.26045 3.20384 0
M  V30 17862 H 1646.17 1.53902 3.88206 0
M  V30 17863 N 1646.6 -0.84422 1.33082 0
M  V30 17864 C 1647.53 -1.96899 1.25511 0
M  V30 17865 C 1648.51 -1.69549 0.13677 0
M  V30 17866 O 1649.7 -1.9145 0.325667 0
M  V30 17867 C 1646.83 -3.32947 0.988094 0
M  V30 17868 C 1645.78 -3.7468 2.06879 0
M  V30 17869 C 1645.11 -5.08475 1.65401 0
M  V30 17870 C 1646.41 -3.89033 3.48498 0
M  V30 17871 H 1648.1 -2.03491 2.19617 0
M  V30 17872 H 1645.65 -0.977659 1.05725 0
M  V30 17873 H 1647.6 -4.11198 0.921645 0
M  V30 17874 H 1646.33 -3.26598 0.0114067 0
M  V30 17875 H 1644.99 -2.98689 2.12557 0
M  V30 17876 H 1644.63 -4.98592 0.66449 0
M  V30 17877 H 1644.33 -5.37368 2.37717 0
M  V30 17878 H 1645.86 -5.89207 1.60212 0
M  V30 17879 H 1647.27 -4.57609 3.4535 0
M  V30 17880 H 1645.67 -4.29357 4.19253 0
M  V30 17881 H 1646.74 -2.91639 3.87395 0
M  V30 17882 N 1648.08 -1.16463 -1.0618 0
M  V30 17883 C 1648.99 -0.886601 -2.17202 0
M  V30 17884 C 1650.01 0.141568 -1.73423 0
M  V30 17885 O 1651.18 -0.0353417 -2.01369 0
M  V30 17886 C 1648.25 -0.392829 -3.44467 0
M  V30 17887 C 1647.31 -1.48636 -4.02748 0
M  V30 17888 C 1646.54 -1.01606 -5.23939 0
M  V30 17889 O 1646.77 0.133753 -5.70243 0
M  V30 17890 O 1645.7 -1.80487 -5.74202 0
M  V30 17891 H 1649.53 -1.81502 -2.43497 0
M  V30 17892 H 1647.11 -0.944691 -1.15741 0
M  V30 17893 H 1648.99 -0.124501 -4.21216 0
M  V30 17894 H 1647.67 0.507566 -3.19696 0
M  V30 17895 H 1646.57 -1.80845 -3.27484 0
M  V30 17896 H 1647.91 -2.3621 -4.31817 0
M  V30 17897 N 1649.56 1.24734 -0.963288 0
M  V30 17898 C 1650.52 2.23795 -0.494824 0
M  V30 17899 C 1651.52 1.55584 0.406225 0
M  V30 17900 O 1652.71 1.73021 0.202302 0
M  V30 17901 C 1649.84 3.39715 0.283963 0
M  V30 17902 H 1651.04 2.66753 -1.37051 0
M  V30 17903 H 1648.59 1.37271 -0.747428 0
M  V30 17904 H 1649.33 3.0219 1.17693 0
M  V30 17905 H 1649.11 3.9042 -0.362586 0
M  V30 17906 H 1650.6 4.13254 0.600899 0
M  V30 17907 N 1651.04 0.732878 1.39523 0
M  V30 17908 C 1652 0.10004 2.28982 0
M  V30 17909 C 1653 -0.669361 1.46206 0
M  V30 17910 O 1654.19 -0.498694 1.66909 0
M  V30 17911 C 1651.32 -0.867616 3.29674 0
M  V30 17912 H 1652.52 0.88816 2.86447 0
M  V30 17913 H 1650.07 0.498578 1.48135 0
M  V30 17914 H 1650.8 -1.68217 2.77261 0
M  V30 17915 H 1650.59 -0.318577 3.90804 0
M  V30 17916 H 1652.08 -1.30704 3.96618 0
M  V30 17917 N 1652.52 -1.50101 0.480349 0
M  V30 17918 C 1653.48 -2.27258 -0.297763 0
M  V30 17919 C 1654.48 -1.32415 -0.912296 0
M  V30 17920 O 1655.67 -1.5576 -0.780035 0
M  V30 17921 C 1652.8 -3.09684 -1.42508 0
M  V30 17922 H 1653.99 -2.97495 0.379011 0
M  V30 17923 H 1651.55 -1.54528 0.234681 0
M  V30 17924 H 1652.28 -2.43964 -2.13663 0
M  V30 17925 H 1652.07 -3.79393 -0.990125 0
M  V30 17926 H 1653.56 -3.68013 -1.97374 0
M  V30 17927 N 1653.99 -0.213323 -1.5615 0
M  V30 17928 C 1654.94 0.716708 -2.21283 0
M  V30 17929 C 1655.94 1.20599 -1.18963 0
M  V30 17930 O 1657.14 1.16677 -1.37064 0
M  V30 17931 H 1653.52 0.249524 -0.709395 0
M  V30 17932 H 1655.49 0.14385 -2.98053 0
M  V30 17933 C 1654.24 1.91775 -2.9003 0
M  V30 17934 H 1653.56 1.55036 -3.68516 0
M  V30 17935 H 1655 2.54646 -3.39016 0
M  V30 17936 C 1653.46 2.768 -1.92051 0
M  V30 17937 O 1653.99 3.75299 -1.43225 0
M  V30 17938 N 1652.19 2.42666 -1.5988 0
M  V30 17939 H 1651.74 1.62622 -1.99779 0
M  V30 17940 H 1651.7 2.99836 -0.945833 0
M  V30 17941 N 1655.47 1.57485 0.0601405 0
M  V30 17942 C 1656.88 1.76433 0.610583 0
M  V30 17943 C 1657.23 0.840353 1.77292 0
M  V30 17944 O 1656.36 0.0273238 2.16383 0
M  V30 17945 C 1656.95 3.19947 1.11441 0
M  V30 17946 C 1655.51 3.402 1.61062 0
M  V30 17947 C 1654.66 2.72089 0.535055 0
M  V30 17948 H 1657.61 1.57829 -0.166062 0
M  V30 17949 H 1657.63 3.24749 1.98288 0
M  V30 17950 H 1657.14 3.87172 0.268233 0
M  V30 17951 H 1655.25 2.78106 2.47967 0
M  V30 17952 H 1655.36 4.48696 1.67954 0
M  V30 17953 H 1653.72 2.34972 0.982855 0
M  V30 17954 H 1654.51 3.41977 -0.301135 0
M  V30 17955 N 1656.95 -0.331789 1.54068 0
M  V30 17956 C 1657.91 -1.39094 1.82169 0
M  V30 17957 C 1658.91 -1.45092 0.693168 0
M  V30 17958 O 1660.1 -1.45263 0.961471 0
M  V30 17959 C 1657.24 -2.77909 1.97432 0
M  V30 17960 H 1658.43 -1.15435 2.76794 0
M  V30 17961 H 1655.98 -0.566827 1.4566 0
M  V30 17962 H 1656.72 -3.06835 1.0499 0
M  V30 17963 H 1656.5 -2.7495 2.79544 0
M  V30 17964 H 1657.99 -3.54548 2.20649 0
M  V30 17965 N 1658.43 -1.46001 -0.593424 0
M  V30 17966 C 1659.36 -1.58605 -1.71367 0
M  V30 17967 C 1660.34 -0.436866 -1.64394 0
M  V30 17968 O 1661.52 -0.661782 -1.82576 0
M  V30 17969 C 1658.65 -1.56587 -3.09996 0
M  V30 17970 C 1657.61 -2.70366 -3.31792 0
M  V30 17971 C 1656.93 -2.53406 -4.70839 0
M  V30 17972 C 1658.23 -4.12274 -3.20667 0
M  V30 17973 H 1659.93 -2.52379 -1.61076 0
M  V30 17974 H 1657.47 -1.21462 -0.773499 0
M  V30 17975 H 1659.43 -1.64 -3.88178 0
M  V30 17976 H 1658.15 -0.593511 -3.21162 0
M  V30 17977 H 1656.81 -2.62405 -2.56006 0
M  V30 17978 H 1656.46 -1.54278 -4.78756 0
M  V30 17979 H 1656.16 -3.29715 -4.86376 0
M  V30 17980 H 1657.68 -2.62694 -5.51203 0
M  V30 17981 H 1659.1 -4.21404 -3.88705 0
M  V30 17982 H 1657.49 -4.89085 -3.47729 0
M  V30 17983 H 1658.56 -4.33184 -2.17898 0
M  V30 17984 N 1659.91 0.83715 -1.33527 0
M  V30 17985 C 1661.32 1.40878 -1.22516 0
M  V30 17986 C 1661.67 1.95585 0.155236 0
M  V30 17987 O 1660.79 1.88946 1.05491 0
M  V30 17988 C 1661.39 2.56093 -2.21815 0
M  V30 17989 C 1659.95 3.09205 -2.14638 0
M  V30 17990 C 1659.09 1.82012 -2.09205 0
M  V30 17991 H 1662.05 0.642766 -1.45101 0
M  V30 17992 H 1662.07 3.33775 -1.82687 0
M  V30 17993 H 1661.58 2.16246 -3.22272 0
M  V30 17994 H 1659.68 3.53592 -1.17489 0
M  V30 17995 H 1659.79 3.69261 -3.05259 0
M  V30 17996 H 1658.16 2.02331 -1.54707 0
M  V30 17997 H 1658.94 1.44359 -3.11473 0
M  V30 17998 N 1661.38 1.17024 1.05561 0
M  V30 17999 C 1662.61 0.981293 1.82717 0
M  V30 18000 C 1663.03 -0.465636 1.82246 0
M  V30 18001 O 1662.39 -1.33315 1.22869 0
M  V30 18002 C 1662.44 1.52239 3.26888 0
M  V30 18003 O 1661.54 0.73366 4.05822 0
M  V30 18004 H 1660.89 0.348677 0.565084 0
M  V30 18005 H 1663.42 1.55435 1.33046 0
M  V30 18006 H 1663.43 1.54306 3.77695 0
M  V30 18007 H 1662.1 2.57567 3.26545 0
M  V30 18008 H 1660.68 0.784101 3.64563 0
M  V30 18009 N 1662.86 -1.24221 0.969889 0
M  V30 18010 C 1664.14 -1.87715 0.549772 0
M  V30 18011 C 1664.52 -1.87333 -0.973114 0
M  V30 18012 O 1663.87 -1.3475 -1.84539 0
M  V30 18013 C 1664.08 -3.29724 1.14381 0
M  V30 18014 C 1665.43 -4.06393 1.23005 0
M  V30 18015 O 1666.45 -3.38904 1.09648 0
M  V30 18016 O 1665.31 -5.27149 1.4414 0
M  V30 18017 H 1662.4 -0.806356 0.183629 0
M  V30 18018 H 1664.95 -1.32177 1.0643 0
M  V30 18019 H 1663.72 -3.24513 2.18649 0
M  V30 18020 H 1663.34 -3.92839 0.613456 0
M  V30 18021 N 1664.34 -0.740267 -1.39132 0
M  V30 18022 C 1665.59 -0.290523 -2.00405 0
M  V30 18023 C 1665.92 1.12383 -1.58746 0
M  V30 18024 O 1665.17 1.78148 -0.81005 0
M  V30 18025 C 1665.47 -0.346009 -3.55721 0
M  V30 18026 C 1665.14 -1.71412 -4.17048 0
M  V30 18027 C 1663.8 -2.08857 -4.33512 0
M  V30 18028 C 1666.15 -2.61216 -4.51016 0
M  V30 18029 C 1663.48 -3.35603 -4.81235 0
M  V30 18030 C 1665.83 -3.8734 -5.0015 0
M  V30 18031 C 1664.49 -4.2487 -5.14822 0
M  V30 18032 H 1663.76 -0.10631 -0.733334 0
M  V30 18033 H 1666.41 -0.948141 -1.66381 0
M  V30 18034 H 1664.72 0.395183 -3.89802 0
M  V30 18035 H 1666.41 0.020191 -4.00995 0
M  V30 18036 H 1663 -1.41301 -4.04638 0
M  V30 18037 H 1667.19 -2.33556 -4.3791 0
M  V30 18038 H 1662.44 -3.64617 -4.90779 0
M  V30 18039 H 1666.62 -4.57079 -5.25406 0
M  V30 18040 H 1664.24 -5.23147 -5.51562 0
M  V30 18041 N 1665.82 1.49844 -0.488302 0
M  V30 18042 C 1666.77 2.28883 0.296859 0
M  V30 18043 C 1667.74 1.34703 0.971818 0
M  V30 18044 O 1668.92 1.63653 0.980937 0
M  V30 18045 C 1666.06 3.17049 1.36286 0
M  V30 18046 C 1665.17 4.26275 0.700956 0
M  V30 18047 C 1664.31 5.01674 1.74632 0
M  V30 18048 C 1663.35 6.02753 1.06559 0
M  V30 18049 N 1662.48 6.71366 2.05457 0
M  V30 18050 H 1667.32 2.95523 -0.383417 0
M  V30 18051 H 1664.86 1.45721 -0.200928 0
M  V30 18052 H 1666.82 3.66531 1.99276 0
M  V30 18053 H 1665.45 2.52419 2.01207 0
M  V30 18054 H 1664.5 3.80377 -0.0419236 0
M  V30 18055 H 1665.81 4.98529 0.164469 0
M  V30 18056 H 1664.97 5.54961 2.45159 0
M  V30 18057 H 1663.71 4.29166 2.31664 0
M  V30 18058 H 1662.71 5.4871 0.346029 0
M  V30 18059 H 1663.94 6.77243 0.501932 0
M  V30 18060 H 1661.88 6.01637 2.61475 0
M  V30 18061 H 1661.8 7.39552 1.56841 0
M  V30 18062 H 1663.07 7.29262 2.75312 0
M  V30 18063 N 1667.3 0.221601 1.56034 0
M  V30 18064 C 1668.52 -0.414945 2.02696 0
M  V30 18065 C 1668.94 -1.53344 1.10141 0
M  V30 18066 O 1668.3 -1.82162 0.111026 0
M  V30 18067 C 1668.35 -0.946532 3.48888 0
M  V30 18068 O 1668.07 0.12737 4.37915 0
M  V30 18069 C 1669.57 -1.65631 4.11195 0
M  V30 18070 H 1666.79 -0.101548 0.663271 0
M  V30 18071 H 1669.33 0.338069 2.01686 0
M  V30 18072 H 1667.49 -1.64982 3.50514 0
M  V30 18073 H 1667.9 -0.272211 5.23793 0
M  V30 18074 H 1669.38 -1.98027 5.15257 0
M  V30 18075 H 1669.85 -2.56947 3.56195 0
M  V30 18076 H 1670.46 -0.998231 4.13419 0
M  V30 18077 N 1668.77 -1.57515 -0.0517878 0
M  V30 18078 C 1670.02 -1.87396 -0.746022 0
M  V30 18079 C 1670.34 -0.817053 -1.77718 0
M  V30 18080 O 1671.54 -1.00435 -2.5224 0
M  V30 18081 C 1670 -3.32481 -1.37783 0
M  V30 18082 C 1669.61 -4.46349 -0.384208 0
M  V30 18083 C 1671.35 -3.71539 -2.05327 0
M  V30 18084 C 1669.26 -5.82484 -1.02307 0
M  V30 18085 H 1668.19 -0.699127 -0.282379 0
M  V30 18086 H 1670.84 -1.835 0.000245524 0
M  V30 18087 H 1669.22 -3.31051 -2.17304 0
M  V30 18088 H 1670.39 -4.59209 0.382639 0
M  V30 18089 H 1668.71 -4.15976 0.187873 0
M  V30 18090 H 1671.31 -4.70553 -2.53936 0
M  V30 18091 H 1671.65 -3.02361 -2.86153 0
M  V30 18092 H 1672.18 -3.75046 -1.32611 0
M  V30 18093 H 1668.92 -6.55005 -0.254704 0
M  V30 18094 H 1668.44 -5.73388 -1.7603 0
M  V30 18095 H 1670.12 -6.28476 -1.5371 0
M  V30 18096 N 1670.25 0.323614 -1.54242 0
M  V30 18097 C 1671.18 1.40344 -1.86616 0
M  V30 18098 C 1672.16 1.53972 -0.722963 0
M  V30 18099 O 1673.35 1.67852 -0.976692 0
M  V30 18100 C 1670.48 2.77112 -2.09347 0
M  V30 18101 C 1669.43 2.78273 -3.25189 0
M  V30 18102 C 1668.76 4.18116 -3.33291 0
M  V30 18103 C 1670.06 2.42025 -4.6284 0
M  V30 18104 H 1671.75 1.13499 -2.77053 0
M  V30 18105 H 1669.3 0.544553 -1.33306 0
M  V30 18106 H 1671.25 3.52719 -2.3058 0
M  V30 18107 H 1669.98 3.05435 -1.1566 0
M  V30 18108 H 1668.64 2.05121 -3.03844 0
M  V30 18109 H 1668.28 4.4358 -2.37163 0
M  V30 18110 H 1667.98 4.19799 -4.11147 0
M  V30 18111 H 1669.51 4.95536 -3.56758 0
M  V30 18112 H 1670.92 3.07346 -4.83954 0
M  V30 18113 H 1669.32 2.5496 -5.43245 0
M  V30 18114 H 1670.39 1.37175 -4.65092 0
M  V30 18115 N 1671.73 1.46313 0.585673 0
M  V30 18116 C 1673.01 1.41946 1.34576 0
M  V30 18117 C 1673.39 0.101379 2.10856 0
M  V30 18118 O 1672.74 -0.917016 2.09292 0
M  V30 18119 C 1672.95 2.64724 2.27425 0
M  V30 18120 C 1674.29 3.10746 2.89347 0
M  V30 18121 O 1675.32 2.65252 2.37739 0
M  V30 18122 O 1674.18 3.8976 3.83079 0
M  V30 18123 H 1671.27 0.564346 0.604519 0
M  V30 18124 H 1673.82 1.58475 0.606937 0
M  V30 18125 H 1672.59 3.52217 1.70467 0
M  V30 18126 H 1672.21 2.50639 3.08652 0
M  V30 18127 O 1673.25 -0.729909 1.44064 0
M  V30 18128 H 1673.94 -1.37998 1.35927 0
M  V30 END ATOM
M  V30 BEGIN BOND
M  V30 END BOND
M  V30 END CTAB
M  END
$$$$
