drugbank_target|O14730 Serine/threonine-protein kinase RIO3 (DB12010)
 OpenBabel12092121183D

  0  0  0     0  0            999 V3000
M  V30 BEGIN CTAB
M  V30 COUNTS 8212 8301 0 0 0
M  V30 BEGIN ATOM
M  V30 1 H -0.908 1.98254 -0.117106 0
M  V30 2 N 0 1.576 0 0
M  V30 3 C 0.933 2.03868 1.02534 0
M  V30 4 C 1.911 0.928543 1.3348 0
M  V30 5 O 3.095 1.19667 1.45644 0
M  V30 6 C 0.222 2.43627 2.35294 0
M  V30 7 C -0.732 3.65373 2.2001 0
M  V30 8 S 0.101 5.13292 1.52614 0
M  V30 9 C 1.257 5.56322 2.86805 0
M  V30 10 H 1.49 2.90518 0.631377 0
M  V30 11 H -0.977 1.52953 0.210867 0
M  V30 12 H 0.981 2.67203 3.11629 0
M  V30 13 H -0.358 1.57376 2.7183 0
M  V30 14 H -1.165 3.90944 3.18086 0
M  V30 15 H -1.563 3.418 1.51819 0
M  V30 16 H 0.729 5.58782 3.83104 0
M  V30 17 H 1.672 6.56266 2.65933 0
M  V30 18 H 2.08 4.83886 2.90714 0
M  V30 19 N 1.4781 -0.272755 1.55222 0
M  V30 20 C 2.7551 -1.02562 1.66555 0
M  V30 21 C 3.1351 -2.04282 0.532189 0
M  V30 22 O 2.4831 -2.23662 -0.467717 0
M  V30 23 C 2.6931 -1.6822 3.05782 0
M  V30 24 C 4.0411 -2.19373 3.63539 0
M  V30 25 O 5.0651 -1.78206 3.08417 0
M  V30 26 O 3.9241 -2.94883 4.60115 0
M  V30 27 H 1.0181 -0.475755 0.676451 0
M  V30 28 H 3.5641 -0.268593 1.67561 0
M  V30 29 H 2.3361 -0.945112 3.79715 0
M  V30 30 H 1.9591 -2.50609 3.08676 0
M  V30 31 N 2.9562 -1.48159 -0.537278 0
M  V30 32 C 3.8862 -1.65029 -1.6519 0
M  V30 33 C 4.8672 -0.499281 -1.62607 0
M  V30 34 O 6.0522 -0.730972 -1.79918 0
M  V30 35 C 3.1822 -1.68303 -3.03795 0
M  V30 36 C 2.1362 -2.8283 -3.21234 0
M  V30 37 C 1.4622 -2.71189 -4.60826 0
M  V30 38 C 2.7622 -4.24211 -3.04701 0
M  V30 39 H 4.4562 -2.58341 -1.51328 0
M  V30 40 H 2.0022 -1.24325 -0.726585 0
M  V30 41 H 3.9552 -1.78693 -3.81637 0
M  V30 42 H 2.6792 -0.715635 -3.18663 0
M  V30 43 H 1.3382 -2.71983 -2.45807 0
M  V30 44 H 0.9862 -1.72435 -4.7252 0
M  V30 45 H 0.6862 -3.48035 -4.7344 0
M  V30 46 H 2.2102 -2.83537 -5.40777 0
M  V30 47 H 3.6242 -4.3593 -3.72341 0
M  V30 48 H 2.0212 -5.01998 -3.28813 0
M  V30 49 H 3.0912 -4.41184 -2.01209 0
M  V30 50 N 4.4343 0.785586 -1.36625 0
M  V30 51 C 5.6803 1.54591 -1.31261 0
M  V30 52 C 6.0133 1.93906 0.106823 0
M  V30 53 O 5.2883 1.63007 1.06108 0
M  V30 54 C 5.5713 2.82038 -2.23889 0
M  V30 55 C 5.4243 2.49066 -3.74548 0
M  V30 56 C 6.7433 3.83887 -2.15217 0
M  V30 57 H 3.8623 0.560846 -0.478143 0
M  V30 58 H 6.5043 0.902278 -1.67209 0
M  V30 59 H 4.6543 3.36961 -1.93363 0
M  V30 60 H 6.3263 2.00164 -4.15611 0
M  V30 61 H 4.5693 1.81954 -3.93796 0
M  V30 62 H 5.2403 3.40109 -4.34776 0
M  V30 63 H 7.7163 3.38421 -2.42096 0
M  V30 64 H 6.5923 4.70806 -2.82193 0
M  V30 65 H 6.8533 4.27131 -1.14068 0
M  V30 66 N 5.9124 1.20967 1.01018 0
M  V30 67 C 7.1604 1.02172 1.74371 0
M  V30 68 C 7.4814 -0.446414 1.89821 0
M  V30 69 O 6.7514 -1.32234 1.44537 0
M  V30 70 H 5.3314 0.375066 0.646014 0
M  V30 71 H 7.9934 1.52187 1.21758 0
M  V30 72 H 7.0894 1.48538 2.74487 0
M  V30 73 N 7.3905 -1.2043 1.01659 0
M  V30 74 C 8.6365 -1.90079 0.706963 0
M  V30 75 C 8.9695 -1.78648 -0.761474 0
M  V30 76 O 8.2445 -1.17069 -1.55323 0
M  V30 77 C 8.5275 -3.41469 1.14327 0
M  V30 78 C 8.3805 -3.61833 2.67201 0
M  V30 79 C 9.6995 -4.34261 0.714529 0
M  V30 80 H 6.8185 -0.690254 0.2583 0
M  V30 81 H 9.4605 -1.41826 1.26433 0
M  V30 82 H 7.6105 -3.82696 0.669056 0
M  V30 83 H 9.2825 -3.2986 3.22475 0
M  V30 84 H 7.5255 -3.05304 3.08175 0
M  V30 85 H 8.1965 -4.67955 2.92783 0
M  V30 86 H 10.6725 -4.00682 1.12221 0
M  V30 87 H 9.5485 -5.38806 1.04784 0
M  V30 88 H 9.8095 -4.40431 -0.383799 0
M  V30 89 N 8.8686 -0.792821 -1.36206 0
M  V30 90 C 9.8316 -0.199459 -2.2833 0
M  V30 91 C 10.8316 0.605189 -1.48977 0
M  V30 92 O 12.0216 0.425685 -1.68919 0
M  V30 93 C 9.1536 0.723523 -3.33134 0
M  V30 94 H 10.3466 -1.01181 -2.82316 0
M  V30 95 H 7.8996 -0.562485 -1.45828 0
M  V30 96 H 8.6346 1.56008 -2.84309 0
M  V30 97 H 8.4196 0.148436 -3.91819 0
M  V30 98 H 9.9096 1.13344 -4.01924 0
M  V30 99 N 10.3467 1.47872 -0.545128 0
M  V30 100 C 11.5717 2.07391 -0.0190611 0
M  V30 101 C 11.9967 1.39688 1.25971 0
M  V30 102 O 11.3547 0.467816 1.7516 0
M  V30 103 C 11.4027 3.60188 0.172335 0
M  V30 104 O 10.5067 3.9339 1.23766 0
M  V30 105 H 9.8477 0.662411 -0.0459059 0
M  V30 106 H 12.3777 1.90066 -0.757365 0
M  V30 107 H 12.3877 4.06129 0.390305 0
M  V30 108 H 11.0627 4.08865 -0.761725 0
M  V30 109 H 9.6397 3.5921 1.00114 0
M  V30 110 N 11.8248 0.280983 1.55075 0
M  V30 111 C 13.2358 -0.215629 1.85451 0
M  V30 112 C 13.5868 -1.54991 1.203 0
M  V30 113 O 12.7118 -2.10699 0.493435 0
M  V30 114 C 13.3068 -0.398026 3.36454 0
M  V30 115 C 11.8658 -0.838866 3.66933 0
M  V30 116 C 11.0128 0.064458 2.77225 0
M  V30 117 H 13.9638 0.502601 1.50531 0
M  V30 118 H 13.9848 -1.23569 3.59876 0
M  V30 119 H 13.4968 0.573241 3.83843 0
M  V30 120 H 11.5978 -1.8214 3.25048 0
M  V30 121 H 11.7108 -0.672123 4.74362 0
M  V30 122 H 10.0748 -0.452863 2.50642 0
M  V30 123 H 10.8578 1.03172 3.2743 0
M  V30 124 N 13.3029 -1.57598 0.00835791 0
M  V30 125 C 14.2129 -2.12385 -0.996487 0
M  V30 126 C 15.2289 -1.07108 -1.37127 0
M  V30 127 O 16.4049 -1.39055 -1.4569 0
M  V30 128 C 13.4699 -2.62314 -2.26699 0
M  V30 129 C 12.5309 -3.82225 -1.95456 0
M  V30 130 C 11.7639 -4.29763 -3.16449 0
M  V30 131 O 11.9869 -3.76584 -4.28416 0
M  V30 132 O 10.9209 -5.21832 -2.99958 0
M  V30 133 H 14.7469 -2.98479 -0.560725 0
M  V30 134 H 12.3319 -1.47903 -0.210987 0
M  V30 135 H 14.2139 -2.94589 -3.01322 0
M  V30 136 H 12.8889 -1.79313 -2.69497 0
M  V30 137 H 11.7959 -3.54909 -1.18282 0
M  V30 138 H 13.1289 -4.66324 -1.57489 0
M  V30 139 N 14.781 0.264519 -1.55364 0
M  V30 140 C 16.192 0.834936 -1.6699 0
M  V30 141 C 16.543 1.86718 -0.602552 0
M  V30 142 O 15.668 2.14899 0.254425 0
M  V30 143 C 16.263 1.5212 -3.02729 0
M  V30 144 C 14.822 2.03954 -3.16354 0
M  V30 145 C 13.969 0.884498 -2.62815 0
M  V30 146 H 16.92 0.0406869 -1.58648 0
M  V30 147 H 16.941 2.38853 -2.96191 0
M  V30 148 H 16.453 0.769668 -3.80392 0
M  V30 149 H 14.554 2.82041 -2.43482 0
M  V30 150 H 14.667 2.24902 -4.23032 0
M  V30 151 H 13.031 1.2802 -2.20188 0
M  V30 152 H 13.814 0.14634 -3.42988 0
M  V30 153 N 16.2591 1.48442 0.529413 0
M  V30 154 C 17.5071 1.56179 1.28267 0
M  V30 155 C 17.8281 0.237721 1.93546 0
M  V30 156 O 17.0981 -0.740779 1.81354 0
M  V30 157 H 15.6781 0.575367 0.476405 0
M  V30 158 H 18.3401 1.84909 0.61602 0
M  V30 159 H 17.4361 2.34312 2.06165 0
M  V30 160 N 17.7372 -0.778329 1.37039 0
M  V30 161 C 18.9652 -1.56734 1.35063 0
M  V30 162 C 19.3802 -1.88686 -0.0655597 0
M  V30 163 O 18.7372 -1.5096 -1.02554 0
M  V30 164 C 18.7882 -2.88163 2.18276 0
M  V30 165 O 18.5092 -2.57583 3.54376 0
M  V30 166 C 20.0102 -3.82422 2.24206 0
M  V30 167 H 17.2302 -0.485778 0.462883 0
M  V30 168 H 19.7742 -0.965185 1.8029 0
M  V30 169 H 17.9292 -3.44818 1.76576 0
M  V30 170 H 18.3432 -3.41699 3.97922 0
M  V30 171 H 19.8172 -4.71667 2.86765 0
M  V30 172 H 20.2942 -4.21078 1.24861 0
M  V30 173 H 20.9002 -3.31697 2.6619 0
M  V30 174 N 19.2153 -1.21501 -1.00376 0
M  V30 175 C 20.1783 -0.976927 -2.07337 0
M  V30 176 C 21.1783 0.0525322 -1.60714 0
M  V30 177 O 22.3683 -0.184869 -1.73216 0
M  V30 178 C 19.5003 -0.473423 -3.37597 0
M  V30 179 H 20.6933 -1.92587 -2.29892 0
M  V30 180 H 18.2463 -1.03217 -1.17371 0
M  V30 181 H 18.9813 0.480379 -3.20722 0
M  V30 182 H 18.7663 -1.216 -3.72768 0
M  V30 183 H 20.2563 -0.32675 -4.1632 0
M  V30 184 N 20.6934 1.19889 -1.02296 0
M  V30 185 C 21.6564 2.21116 -0.603351 0
M  V30 186 C 22.6564 1.5738 0.329884 0
M  V30 187 O 23.8464 1.73802 0.117702 0
M  V30 188 C 20.9784 3.40696 0.117992 0
M  V30 189 H 22.1714 2.59754 -1.49893 0
M  V30 190 H 19.7244 1.33463 -0.813468 0
M  V30 191 H 20.4594 3.07569 1.0282 0
M  V30 192 H 20.2444 3.88188 -0.552511 0
M  V30 193 H 21.7344 4.15692 0.398696 0
M  V30 194 N 22.1715 0.800033 1.35784 0
M  V30 195 C 23.1345 0.211565 2.28221 0
M  V30 196 C 24.1345 -0.59728 1.49296 0
M  V30 197 O 25.3245 -0.416721 1.69142 0
M  V30 198 C 22.4565 -0.705846 3.33513 0
M  V30 199 H 23.6495 1.02677 2.81776 0
M  V30 200 H 21.2025 0.570211 1.45528 0
M  V30 201 H 21.9375 -1.54498 2.85133 0
M  V30 202 H 21.7225 -0.127655 3.91892 0
M  V30 203 H 23.2125 -1.11211 4.02519 0
M  V30 204 N 23.6496 -1.47581 0.552962 0
M  V30 205 C 24.8956 -2.03369 0.0355807 0
M  V30 206 C 25.2506 -1.42016 -1.29805 0
M  V30 207 O 24.5436 -0.564917 -1.83083 0
M  V30 208 C 24.7376 -3.57199 -0.119728 0
M  V30 209 C 24.5666 -4.33468 1.1973 0
M  V30 210 C 23.3366 -4.7353 1.76345 0
M  V30 211 C 25.5346 -4.68866 2.11351 0
M  V30 212 N 23.5166 -5.34426 3.02097 0
M  V30 213 C 24.8876 -5.3002 3.21681 0
M  V30 214 C 26.9426 -4.50795 2.11397 0
M  V30 215 C 25.6456 -5.75011 4.32151 0
M  V30 216 C 27.6716 -4.96782 3.20876 0
M  V30 217 C 27.0336 -5.57981 4.29926 0
M  V30 218 H 23.1326 -0.780058 0.0550806 0
M  V30 219 H 25.7166 -1.80117 0.739315 0
M  V30 220 H 23.8876 -3.80227 -0.792579 0
M  V30 221 H 25.6196 -3.99627 -0.638792 0
M  V30 222 H 22.3746 -4.55352 1.30196 0
M  V30 223 H 22.7986 -5.69421 3.66182 0
M  V30 224 H 27.4406 -4.0284 1.28372 0
M  V30 225 H 25.1586 -6.21959 5.15938 0
M  V30 226 H 28.7446 -4.84573 3.21994 0
M  V30 227 H 27.6246 -5.92918 5.13243 0
M  V30 228 N 25.1277 -0.289203 -1.54924 0
M  V30 229 C 26.3757 0.322879 -1.99504 0
M  V30 230 C 26.6967 1.55313 -1.1791 0
M  V30 231 O 25.9667 1.94001 -0.272097 0
M  V30 232 H 24.5467 0.122291 -0.736922 0
M  V30 233 H 27.2087 -0.397802 -1.90797 0
M  V30 234 H 26.3047 0.603061 -3.06218 0
M  V30 235 N 26.6058 1.57591 -0.0167156 0
M  V30 236 C 28.0168 1.79201 0.523834 0
M  V30 237 C 28.3678 0.925796 1.72984 0
M  V30 238 O 27.4928 0.132792 2.15992 0
M  V30 239 C 28.0878 3.25 0.957091 0
M  V30 240 C 26.6468 3.47648 1.44283 0
M  V30 241 C 25.7938 2.74374 0.401757 0
M  V30 242 H 28.7448 1.56831 -0.242816 0
M  V30 243 H 28.7658 3.34031 1.82219 0
M  V30 244 H 28.2778 3.88019 0.0791415 0
M  V30 245 H 26.3788 2.89866 2.34113 0
M  V30 246 H 26.4918 4.56352 1.45877 0
M  V30 247 H 24.8558 2.39485 0.867121 0
M  V30 248 H 25.6388 3.40102 -0.467513 0
M  V30 249 N 28.0839 -0.256276 1.55502 0
M  V30 250 C 29.3089 -1.00766 1.81276 0
M  V30 251 C 29.7339 -1.78524 0.59252 0
M  V30 252 O 29.0919 -1.75413 -0.45827 0
M  V30 253 C 29.1399 -1.92869 3.04687 0
M  V30 254 O 28.2439 -3.019 2.80945 0
M  V30 255 H 27.5849 -0.287224 0.598664 0
M  V30 256 H 30.1149 -0.280109 2.02674 0
M  V30 257 H 30.1249 -2.34511 3.33869 0
M  V30 258 H 28.7999 -1.35689 3.93143 0
M  V30 259 H 27.3769 -2.64454 2.62904 0
M  V30 260 N 29.562 -1.4872 -0.521534 0
M  V30 261 C 30.509 -1.63871 -1.62527 0
M  V30 262 C 31.479 -0.480559 -1.58996 0
M  V30 263 O 32.664 -0.705085 -1.77294 0
M  V30 264 C 29.804 -1.69227 -3.00759 0
M  V30 265 C 28.917 -2.96207 -3.14461 0
M  V30 266 C 28.052 -2.92671 -4.43303 0
M  V30 267 C 27.091 -4.14318 -4.50563 0
M  V30 268 N 26.228 -4.0881 -5.70805 0
M  V30 269 H 31.068 -2.58123 -1.48918 0
M  V30 270 H 28.605 -1.28 -0.724878 0
M  V30 271 H 30.563 -1.70314 -3.80853 0
M  V30 272 H 29.193 -0.784586 -3.1312 0
M  V30 273 H 28.245 -3.04826 -2.27564 0
M  V30 274 H 29.557 -3.86192 -3.15686 0
M  V30 275 H 28.711 -2.92206 -5.31696 0
M  V30 276 H 27.45 -2.00429 -4.44612 0
M  V30 277 H 26.455 -4.15049 -3.60575 0
M  V30 278 H 27.68 -5.07729 -4.50986 0
M  V30 279 H 25.626 -3.19394 -5.72995 0
M  V30 280 H 25.543 -4.92509 -5.7356 0
M  V30 281 H 26.811 -4.12418 -6.61462 0
M  V30 282 N 31.0401 0.771051 -1.3745 0
M  V30 283 C 32.2801 1.54264 -1.34096 0
M  V30 284 C 32.6441 1.91858 0.0737639 0
M  V30 285 O 33.8451 2.67797 0.23203 0
M  V30 286 C 32.1161 2.77326 -2.25445 0
M  V30 287 S 33.6751 3.67383 -2.39948 0
M  V30 288 H 30.4931 0.528122 -0.476034 0
M  V30 289 H 33.0951 0.906633 -1.73206 0
M  V30 290 H 31.7991 2.47788 -3.27153 0
M  V30 291 H 31.3301 3.45886 -1.87421 0
M  V30 292 H 33.3451 4.69334 -1.61059 0
M  V30 293 N 32.5182 1.22032 0.997298 0
M  V30 294 C 33.9292 1.0397 1.55071 0
M  V30 295 C 34.2802 -0.398192 1.92117 0
M  V30 296 O 33.4052 -1.28254 1.74298 0
M  V30 297 C 34.0002 1.88109 2.81781 0
M  V30 298 C 32.5592 1.74357 3.33581 0
M  V30 299 C 31.7062 1.84846 2.06706 0
M  V30 300 H 34.6572 1.35941 0.818883 0
M  V30 301 H 34.6782 1.39589 3.53971 0
M  V30 302 H 34.1902 2.92754 2.54787 0
M  V30 303 H 32.2912 0.72427 3.65493 0
M  V30 304 H 32.4042 2.56772 4.04481 0
M  V30 305 H 30.7682 1.28238 2.20062 0
M  V30 306 H 31.5512 2.91014 1.82114 0
M  V30 307 N 33.9963 -1.19345 1.0293 0
M  V30 308 C 35.2423 -1.89585 0.736824 0
M  V30 309 C 35.5973 -1.78148 -0.726703 0
M  V30 310 O 34.8903 -1.16332 -1.52242 0
M  V30 311 C 35.0843 -3.39292 1.12319 0
M  V30 312 C 34.9133 -3.65298 2.62273 0
M  V30 313 C 33.6833 -3.83304 3.29251 0
M  V30 314 C 35.8813 -3.6682 3.60482 0
M  V30 315 N 33.8633 -3.96944 4.68304 0
M  V30 316 C 35.2343 -3.86037 4.85155 0
M  V30 317 C 37.2893 -3.49848 3.54275 0
M  V30 318 C 35.9923 -3.9004 6.04369 0
M  V30 319 C 38.0183 -3.55129 4.72903 0
M  V30 320 C 37.3803 -3.74831 5.9639 0
M  V30 321 H 33.4793 -0.712856 0.321497 0
M  V30 322 H 36.0633 -1.43427 1.31669 0
M  V30 323 H 34.2343 -3.84172 0.571524 0
M  V30 324 H 35.9663 -3.97055 0.78292 0
M  V30 325 H 32.7213 -3.82211 2.79663 0
M  V30 326 H 33.1453 -4.07613 5.40538 0
M  V30 327 H 37.7873 -3.33572 2.59788 0
M  V30 328 H 35.5053 -4.05108 6.99223 0
M  V30 329 H 39.0913 -3.43287 4.69729 0
M  V30 330 H 37.9713 -3.78792 6.86649 0
M  V30 331 N 35.4744 -0.807222 -1.35358 0
M  V30 332 C 36.4374 -0.223665 -2.28106 0
M  V30 333 C 37.4374 0.589354 -1.4961 0
M  V30 334 O 38.6274 0.407745 -1.69361 0
M  V30 335 C 35.7594 0.688149 -3.33882 0
M  V30 336 H 36.9524 -1.04169 -2.81227 0
M  V30 337 H 34.5054 -0.577921 -1.45223 0
M  V30 338 H 35.2404 1.52984 -2.85948 0
M  V30 339 H 35.0254 0.10687 -3.91954 0
M  V30 340 H 36.5154 1.09075 -4.03104 0
M  V30 341 N 36.9525 1.47285 -0.560781 0
M  V30 342 C 38.2015 2.01668 -0.035895 0
M  V30 343 C 38.5145 1.44021 1.32353 0
M  V30 344 O 39.7205 1.90088 1.93853 0
M  V30 345 C 38.1765 3.59897 -0.0136659 0
M  V30 346 C 37.7845 4.26536 -1.37006 0
M  V30 347 C 39.5285 4.22017 0.458425 0
M  V30 348 C 37.4355 5.76782 -1.30675 0
M  V30 349 H 36.3655 0.753938 -0.00964879 0
M  V30 350 H 39.0165 1.69243 -0.709166 0
M  V30 351 H 37.3985 3.89301 0.725325 0
M  V30 352 H 38.5725 4.0877 -2.12705 0
M  V30 353 H 36.8875 3.76419 -1.78038 0
M  V30 354 H 39.4845 5.32124 0.524247 0
M  V30 355 H 39.8275 3.89437 1.4712 0
M  V30 356 H 40.3605 3.97159 -0.225818 0
M  V30 357 H 37.0995 6.13988 -2.29564 0
M  V30 358 H 36.6195 5.96875 -0.591622 0
M  V30 359 H 38.2985 6.39063 -1.01033 0
M  V30 360 N 38.4306 0.297415 1.54768 0
M  V30 361 C 39.8416 -0.195947 1.85669 0
M  V30 362 C 40.1926 -1.53707 1.21937 0
M  V30 363 O 39.3176 -2.10164 0.515754 0
M  V30 364 C 39.9126 -0.362318 3.36857 0
M  V30 365 C 38.4716 -0.799901 3.67802 0
M  V30 366 C 37.6186 0.0938578 2.77141 0
M  V30 367 H 40.5696 0.518538 1.4999 0
M  V30 368 H 40.5906 -1.19745 3.61167 0
M  V30 369 H 40.1026 0.613921 3.83214 0
M  V30 370 H 38.2036 -1.78682 3.26961 0
M  V30 371 H 38.3166 -0.621773 4.75048 0
M  V30 372 H 36.6806 -0.426254 2.51108 0
M  V30 373 H 37.4636 1.06639 3.26318 0
M  V30 374 N 39.9087 -1.5758 0.0250728 0
M  V30 375 C 40.8407 -2.06869 -0.986796 0
M  V30 376 C 41.8537 -0.991332 -1.29137 0
M  V30 377 O 43.0427 -1.26761 -1.25674 0
M  V30 378 C 40.1427 -2.47486 -2.31525 0
M  V30 379 C 39.3157 -3.78253 -2.19643 0
M  V30 380 C 38.3747 -4.05464 -3.35388 0
M  V30 381 O 37.4007 -4.75774 -3.12454 0
M  V30 382 N 38.6027 -3.55321 -4.59051 0
M  V30 383 H 41.3677 -2.94302 -0.566276 0
M  V30 384 H 38.9287 -1.6109 -0.161776 0
M  V30 385 H 40.9207 -2.62785 -3.07776 0
M  V30 386 H 39.4907 -1.65441 -2.65232 0
M  V30 387 H 38.7107 -3.7279 -1.28144 0
M  V30 388 H 39.9987 -4.63936 -2.08903 0
M  V30 389 H 39.3967 -2.98431 -4.80578 0
M  V30 390 H 37.9537 -3.75905 -5.32483 0
M  V30 391 N 41.3868 0.248026 -1.55636 0
M  V30 392 C 42.3348 1.32683 -1.91045 0
M  V30 393 C 43.3288 1.49883 -0.789401 0
M  V30 394 O 44.5348 1.51371 -0.974007 0
M  V30 395 H 40.9098 0.444272 -0.606734 0
M  V30 396 H 42.8808 1.00085 -2.81115 0
M  V30 397 C 41.6298 2.6755 -2.22064 0
M  V30 398 H 40.9528 2.55114 -3.07826 0
M  V30 399 H 42.3928 3.41912 -2.50743 0
M  V30 400 C 40.8518 3.20556 -1.0366 0
M  V30 401 O 41.3818 4.00695 -0.284016 0
M  V30 402 N 39.5878 2.78568 -0.82753 0
M  V30 403 H 39.1348 2.1351 -1.44123 0
M  V30 404 H 39.0928 3.14378 -0.0369803 0
M  V30 405 N 42.8649 1.48995 0.513639 0
M  V30 406 C 44.0929 1.61531 1.29288 0
M  V30 407 C 44.5079 0.281801 1.86685 0
M  V30 408 O 43.8649 -0.731111 1.67215 0
M  V30 409 C 43.9159 2.67449 2.43215 0
M  V30 410 O 43.6369 3.95626 1.88179 0
M  V30 411 C 45.1379 2.90575 3.34785 0
M  V30 412 H 42.3579 0.544165 0.392588 0
M  V30 413 H 44.9019 1.9494 0.617956 0
M  V30 414 H 43.0569 2.36853 3.0656 0
M  V30 415 H 43.4709 4.53868 2.62876 0
M  V30 416 H 44.9449 3.68449 4.11035 0
M  V30 417 H 45.4219 2.00011 3.91015 0
M  V30 418 H 46.0279 3.22538 2.77218 0
M  V30 419 N 44.343 -0.763751 1.37857 0
M  V30 420 C 45.592 -1.51789 1.32827 0
M  V30 421 C 45.905 -1.95426 -0.0823719 0
M  V30 422 O 47.111 -2.70298 -0.255172 0
M  V30 423 C 45.567 -2.74133 2.33193 0
M  V30 424 C 45.175 -2.37562 3.79827 0
M  V30 425 C 46.919 -3.52054 2.37188 0
M  V30 426 C 44.826 -3.56456 4.71904 0
M  V30 427 H 43.756 -0.569896 0.493695 0
M  V30 428 H 46.407 -0.835822 1.63359 0
M  V30 429 H 44.789 -3.4427 1.9569 0
M  V30 430 H 45.963 -1.75157 4.26212 0
M  V30 431 H 44.278 -1.72798 3.78853 0
M  V30 432 H 46.875 -4.40437 3.03182 0
M  V30 433 H 47.218 -3.92486 1.38782 0
M  V30 434 H 47.751 -2.88921 2.7344 0
M  V30 435 H 44.49 -3.21099 5.71468 0
M  V30 436 H 44.01 -4.17938 4.30218 0
M  V30 437 H 45.689 -4.23168 4.89426 0
M  V30 438 N 45.8211 -1.22559 -0.990812 0
M  V30 439 C 47.0461 -1.07862 -1.77145 0
M  V30 440 C 47.4711 0.366447 -1.84496 0
M  V30 441 O 46.8291 1.26478 -1.29896 0
M  V30 442 C 46.8771 -1.69686 -3.18181 0
M  V30 443 O 45.9811 -0.951946 -4.01263 0
M  V30 444 H 45.3221 -0.378712 -0.545411 0
M  V30 445 H 47.8521 -1.62399 -1.2445 0
M  V30 446 H 47.8621 -1.74496 -3.68802 0
M  V30 447 H 46.5371 -2.74841 -3.12146 0
M  V30 448 H 45.1141 -0.980011 -3.59792 0
M  V30 449 N 47.2992 1.18797 -1.03562 0
M  V30 450 C 48.5392 1.90346 -0.744832 0
M  V30 451 C 48.9032 1.78231 0.713972 0
M  V30 452 O 50.1042 2.44441 1.11813 0
M  V30 453 C 48.3752 3.36942 -1.19184 0
M  V30 454 S 49.9342 4.26638 -1.02593 0
M  V30 455 H 46.7522 0.657343 -0.270963 0
M  V30 456 H 49.3542 1.43579 -1.32685 0
M  V30 457 H 48.0582 3.43287 -2.24905 0
M  V30 458 H 47.5892 3.88745 -0.603397 0
M  V30 459 H 49.6042 4.96164 0.0596033 0
M  V30 460 N 48.7773 0.814389 1.34928 0
M  V30 461 C 50.0023 0.410097 2.03305 0
M  V30 462 C 50.4273 -0.973464 1.60951 0
M  V30 463 O 49.7853 -1.63185 0.789964 0
M  V30 464 C 49.8333 0.51049 3.56968 0
M  V30 465 O 48.9373 -0.473035 4.09678 0
M  V30 466 H 48.2783 0.170088 0.641846 0
M  V30 467 H 50.8083 1.10244 1.72358 0
M  V30 468 H 50.8183 0.383135 4.06197 0
M  V30 469 H 49.4933 1.51963 3.87144 0
M  V30 470 H 48.0703 -0.305272 3.71648 0
M  V30 471 N 50.2554 -1.46986 0.568584 0
M  V30 472 C 51.1854 -2.32946 -0.160753 0
M  V30 473 C 52.1664 -1.44487 -0.897631 0
M  V30 474 O 53.3514 -1.73327 -0.875867 0
M  V30 475 C 50.4814 -3.26494 -1.18403 0
M  V30 476 C 49.4354 -4.24282 -0.562895 0
M  V30 477 C 48.7614 -5.07236 -1.69163 0
M  V30 478 C 50.0614 -5.19989 0.490761 0
M  V30 479 H 51.7554 -2.94175 0.556916 0
M  V30 480 H 49.3014 -1.4146 0.26927 0
M  V30 481 H 51.2544 -3.85477 -1.70251 0
M  V30 482 H 49.9784 -2.63343 -1.93179 0
M  V30 483 H 48.6374 -3.66541 -0.0656164 0
M  V30 484 H 48.2854 -4.4048 -2.42871 0
M  V30 485 H 47.9854 -5.7345 -1.28174 0
M  V30 486 H 49.5094 -5.6908 -2.21314 0
M  V30 487 H 50.9234 -5.73271 0.0579047 0
M  V30 488 H 49.3204 -5.94469 0.820165 0
M  V30 489 H 50.3904 -4.64777 1.3824 0
M  V30 490 N 51.7335 -0.305618 -1.54608 0
M  V30 491 C 52.6965 0.555591 -2.22364 0
M  V30 492 C 53.6965 1.05768 -1.21119 0
M  V30 493 O 54.8865 0.952972 -1.45822 0
M  V30 494 C 52.0185 1.76974 -2.91364 0
M  V30 495 H 53.2115 -0.0364572 -2.99878 0
M  V30 496 H 50.7645 -0.0565007 -1.56198 0
M  V30 497 H 51.4995 2.40151 -2.17941 0
M  V30 498 H 51.2845 1.41732 -3.65588 0
M  V30 499 H 52.7745 2.38148 -3.43038 0
M  V30 500 N 53.2116 1.57565 -0.0334293 0
M  V30 501 C 54.4886 1.83282 0.683163 0
M  V30 502 C 54.8686 0.91823 1.90084 0
M  V30 503 O 54.2166 -0.025113 2.28486 0
M  V30 504 C 54.4266 3.32599 1.0573 0
M  V30 505 C 55.7746 3.99179 1.44711 0
M  V30 506 O 56.7986 3.3712 1.15015 0
M  V30 507 O 55.6576 5.08565 2.0006 0
M  V30 508 H 52.7516 0.755869 0.335546 0
M  V30 509 H 55.2976 1.69589 -0.0614402 0
M  V30 510 H 54.0696 3.90834 0.190828 0
M  V30 511 H 53.6926 3.51415 1.85993 0
M  V30 512 N 54.6897 -0.239769 1.55765 0
M  V30 513 C 55.9357 -0.968234 1.78194 0
M  V30 514 C 56.2687 -1.84701 0.599938 0
M  V30 515 O 55.5437 -1.9031 -0.401524 0
M  V30 516 C 55.8267 -1.8227 3.10564 0
M  V30 517 C 55.6797 -0.971633 4.3918 0
M  V30 518 C 56.9987 -2.80388 3.39221 0
M  V30 519 H 54.1177 -0.350572 0.648281 0
M  V30 520 H 56.7597 -0.238259 1.885 0
M  V30 521 H 54.9097 -2.44507 3.01908 0
M  V30 522 H 56.5817 -0.367408 4.59835 0
M  V30 523 H 54.8247 -0.276276 4.32919 0
M  V30 524 H 55.4957 -1.60346 5.28198 0
M  V30 525 H 57.9717 -2.28287 3.47885 0
M  V30 526 H 56.8477 -3.3729 4.33044 0
M  V30 527 H 57.1087 -3.57212 2.60484 0
M  V30 528 N 56.1678 -1.49265 -0.50573 0
M  V30 529 C 57.1008 -1.60183 -1.62532 0
M  V30 530 C 58.0788 -0.451107 -1.56217 0
M  V30 531 O 59.2628 -0.666016 -1.76342 0
M  V30 532 C 56.3898 -1.55238 -3.01029 0
M  V30 533 C 55.4358 -2.7545 -3.25621 0
M  V30 534 S 56.2688 -4.37174 -3.09256 0
M  V30 535 C 57.4248 -4.34866 -4.50158 0
M  V30 536 H 57.6578 -2.54894 -1.53025 0
M  V30 537 H 55.1908 -1.38098 -0.690535 0
M  V30 538 H 57.1488 -1.53071 -3.80893 0
M  V30 539 H 55.8098 -0.618238 -3.07956 0
M  V30 540 H 55.0028 -2.68197 -4.26716 0
M  V30 541 H 54.6048 -2.75005 -2.53472 0
M  V30 542 H 56.8968 -4.06295 -5.42154 0
M  V30 543 H 57.8398 -5.36223 -4.62462 0
M  V30 544 H 58.2478 -3.65007 -4.30616 0
M  V30 545 N 57.6459 0.756429 -1.3826 0
M  V30 546 C 58.8709 1.55077 -1.37717 0
M  V30 547 C 59.2959 1.88073 0.03164 0
M  V30 548 O 58.6539 1.50364 1.01293 0
M  V30 549 C 58.7019 2.8283 -2.23695 0
M  V30 550 O 57.8059 3.77862 -1.6521 0
M  V30 551 H 57.1469 0.469152 -0.469885 0
M  V30 552 H 59.6769 0.935019 -1.81985 0
M  V30 553 H 59.6869 3.31783 -2.37453 0
M  V30 554 H 58.3619 2.58144 -3.2609 0
M  V30 555 H 56.9389 3.36555 -1.60578 0
M  V30 556 N 59.124 1.23083 0.984299 0
M  V30 557 C 60.034 1.02515 2.11016 0
M  V30 558 C 61.05 -0.0291702 1.73976 0
M  V30 559 O 62.226 0.165434 2.00719 0
M  V30 560 C 59.291 0.614673 3.41208 0
M  V30 561 C 58.352 1.74359 3.92297 0
M  V30 562 C 57.585 1.35261 5.16275 0
M  V30 563 O 57.808 0.235136 5.69915 0
M  V30 564 O 56.742 2.17227 5.61334 0
M  V30 565 H 60.568 1.96862 2.31255 0
M  V30 566 H 58.153 1.01753 1.09392 0
M  V30 567 H 60.035 0.396518 4.1953 0
M  V30 568 H 58.71 -0.299851 3.22308 0
M  V30 569 H 57.617 2.01635 3.1511 0
M  V30 570 H 58.95 2.63629 4.15645 0
M  V30 571 N 60.6021 -1.18246 1.0419 0
M  V30 572 C 61.5341 -2.2142 0.592088 0
M  V30 573 C 62.5471 -1.59233 -0.338909 0
M  V30 574 O 63.7361 -1.78002 -0.133231 0
M  V30 575 C 60.8361 -3.38546 -0.154854 0
M  V30 576 C 60.0091 -4.3031 0.784328 0
M  V30 577 C 59.0681 -5.26138 0.0804583 0
M  V30 578 O 58.0941 -5.64738 0.711292 0
M  V30 579 N 59.2961 -5.68261 -1.18574 0
M  V30 580 H 62.0611 -2.60636 1.47949 0
M  V30 581 H 59.6221 -1.33044 0.922544 0
M  V30 582 H 61.6141 -3.99678 -0.635606 0
M  V30 583 H 60.1841 -2.98012 -0.943811 0
M  V30 584 H 59.4041 -3.66764 1.44491 0
M  V30 585 H 60.6921 -4.8852 1.42218 0
M  V30 586 H 60.0901 -5.38957 -1.71876 0
M  V30 587 H 58.6471 -6.31584 -1.61074 0
M  V30 588 N 62.0802 -0.821533 -1.34494 0
M  V30 589 C 63.0102 -0.257138 -2.3208 0
M  V30 590 C 63.9912 0.625645 -1.58176 0
M  V30 591 O 65.1762 0.552811 -1.86166 0
M  V30 592 C 62.3062 0.582958 -3.42372 0
M  V30 593 C 61.2602 -0.202571 -4.2752 0
M  V30 594 C 60.5862 0.760179 -5.29269 0
M  V30 595 C 61.8862 -1.40998 -5.02908 0
M  V30 596 H 63.5802 -1.07247 -2.79532 0
M  V30 597 H 61.1262 -0.517163 -1.34393 0
M  V30 598 H 63.0792 0.987972 -4.09655 0
M  V30 599 H 61.8032 1.43133 -2.93565 0
M  V30 600 H 60.4622 -0.588936 -3.61838 0
M  V30 601 H 60.1102 1.60447 -4.76724 0
M  V30 602 H 59.8102 0.238809 -5.87115 0
M  V30 603 H 61.3342 1.16308 -5.9942 0
M  V30 604 H 62.7482 -1.07905 -5.63054 0
M  V30 605 H 61.1452 -1.86689 -5.70322 0
M  V30 606 H 62.2152 -2.1889 -4.32684 0
M  V30 607 N 63.5583 1.46682 -0.576371 0
M  V30 608 C 64.5213 2.28707 0.150239 0
M  V30 609 C 65.5213 1.38035 0.824794 0
M  V30 610 O 66.7113 1.60476 0.677719 0
M  V30 611 C 63.8433 3.18248 1.22192 0
M  V30 612 H 65.0363 2.94423 -0.570521 0
M  V30 613 H 62.5893 1.52688 -0.334078 0
M  V30 614 H 63.3243 2.57265 1.97447 0
M  V30 615 H 63.1093 3.85 0.742812 0
M  V30 616 H 64.5993 3.80001 1.73172 0
M  V30 617 N 65.0364 0.313813 1.54444 0
M  V30 618 C 65.9834 -0.55655 2.23989 0
M  V30 619 C 66.9534 -1.11943 1.22711 0
M  V30 620 O 68.1384 -1.16158 1.51367 0
M  V30 621 C 65.2784 -1.71635 2.99392 0
M  V30 622 C 64.3914 -1.18364 4.15468 0
M  V30 623 C 63.5264 -2.30834 4.78424 0
M  V30 624 C 62.5654 -1.74762 5.86622 0
M  V30 625 N 61.7024 -2.80855 6.43479 0
M  V30 626 H 66.5424 0.0430893 2.97969 0
M  V30 627 H 64.0794 0.0330359 1.47063 0
M  V30 628 H 66.0374 -2.39868 3.41349 0
M  V30 629 H 64.6674 -2.28742 2.27765 0
M  V30 630 H 63.7194 -0.393163 3.78363 0
M  V30 631 H 65.0314 -0.733262 4.93381 0
M  V30 632 H 64.1854 -3.0699 5.23299 0
M  V30 633 H 62.9244 -2.79204 3.99871 0
M  V30 634 H 61.9294 -0.970995 5.41158 0
M  V30 635 H 63.1544 -1.2728 6.67066 0
M  V30 636 H 61.1004 -3.28535 5.67804 0
M  V30 637 H 61.0174 -2.40351 7.16776 0
M  V30 638 H 62.2854 -3.5687 6.93011 0
M  V30 639 N 66.5145 -1.57545 0.0417849 0
M  V30 640 C 67.4245 -2.14451 -0.951213 0
M  V30 641 C 68.4405 -1.09992 -1.34825 0
M  V30 642 O 69.6165 -1.42114 -1.42708 0
M  V30 643 C 66.6815 -2.67063 -2.21084 0
M  V30 644 C 65.7425 -3.86284 -1.87304 0
M  V30 645 C 64.9755 -4.36378 -3.07261 0
M  V30 646 O 65.1985 -3.85587 -4.20332 0
M  V30 647 O 64.1325 -5.28077 -2.88822 0
M  V30 648 H 67.9585 -2.99601 -0.497287 0
M  V30 649 H 65.5435 -1.48317 -0.179567 0
M  V30 650 H 67.4255 -3.00914 -2.95006 0
M  V30 651 H 66.1005 -1.84989 -2.65633 0
M  V30 652 H 65.0075 -3.57338 -1.10727 0
M  V30 653 H 66.3405 -4.6956 -1.47562 0
M  V30 654 N 67.9926 0.231505 -1.5589 0
M  V30 655 C 68.9226 1.29022 -1.94617 0
M  V30 656 C 69.9036 1.4941 -0.813067 0
M  V30 657 O 71.0886 1.6176 -1.07459 0
M  V30 658 C 68.2186 2.64199 -2.25424 0
M  V30 659 C 67.1726 2.58484 -3.41131 0
M  V30 660 C 66.4986 3.97599 -3.57518 0
M  V30 661 C 67.7986 2.1413 -4.76388 0
M  V30 662 H 69.4926 0.968563 -2.83301 0
M  V30 663 H 67.0386 0.464479 -1.36303 0
M  V30 664 H 68.9916 3.38413 -2.51107 0
M  V30 665 H 67.7156 2.98032 -1.33583 0
M  V30 666 H 66.3746 1.86727 -3.15481 0
M  V30 667 H 66.0226 4.28723 -2.6307 0
M  V30 668 H 65.7226 3.94659 -4.35337 0
M  V30 669 H 67.2466 4.7349 -3.85538 0
M  V30 670 H 68.6606 2.78083 -5.01341 0
M  V30 671 H 67.0576 2.2227 -5.57419 0
M  V30 672 H 68.1276 1.09331 -4.72414 0
M  V30 673 N 69.4707 1.49531 0.497807 0
M  V30 674 C 70.4027 1.62559 1.61578 0
M  V30 675 C 71.4157 0.508134 1.54667 0
M  V30 676 O 72.6047 0.780309 1.60541 0
M  V30 677 C 69.7047 1.56925 3.00379 0
M  V30 678 C 68.8777 2.84257 3.3244 0
M  V30 679 C 67.9367 2.71632 4.50669 0
M  V30 680 O 66.9627 3.4557 4.52294 0
M  V30 681 N 68.1647 1.83391 5.5077 0
M  V30 682 H 70.9297 2.58981 1.50828 0
M  V30 683 H 68.4907 1.4666 0.685743 0
M  V30 684 H 70.4827 1.46129 3.77397 0
M  V30 685 H 69.0527 0.683483 3.05037 0
M  V30 686 H 68.2727 3.09381 2.44289 0
M  V30 687 H 69.5607 3.68666 3.5066 0
M  V30 688 H 68.9587 1.22583 5.52259 0
M  V30 689 H 67.5157 1.78515 6.26878 0
M  V30 690 N 70.9488 -0.749086 1.3866 0
M  V30 691 C 71.8788 -1.8764 1.38973 0
M  V30 692 C 72.8598 -1.68178 0.255004 0
M  V30 693 O 74.0448 -1.88704 0.458754 0
M  V30 694 C 71.1748 -3.25222 1.21851 0
M  V30 695 C 70.1288 -3.59295 2.32575 0
M  V30 696 C 69.4548 -4.95663 2.00555 0
M  V30 697 C 70.7548 -3.63709 3.7485 0
M  V30 698 H 72.4488 -1.87635 2.3331 0
M  V30 699 H 69.9948 -0.901329 1.12303 0
M  V30 700 H 71.9478 -4.03746 1.20695 0
M  V30 701 H 70.6718 -3.25719 0.239775 0
M  V30 702 H 69.3308 -2.83093 2.32925 0
M  V30 703 H 68.9788 -4.92724 1.01154 0
M  V30 704 H 68.6788 -5.19429 2.74714 0
M  V30 705 H 70.2028 -5.7656 2.01024 0
M  V30 706 H 71.6168 -4.32338 3.76506 0
M  V30 707 H 70.0138 -3.98986 4.48252 0
M  V30 708 H 71.0838 -2.63834 4.06841 0
M  V30 709 N 72.4269 -1.23603 -0.977757 0
M  V30 710 C 73.3369 -1.03632 -2.1047 0
M  V30 711 C 74.3529 0.0199435 -1.73989 0
M  V30 712 O 75.5289 -0.176076 -2.00629 0
M  V30 713 C 72.5939 -0.63276 -3.40877 0
M  V30 714 C 71.6549 -1.76437 -3.91367 0
M  V30 715 C 70.8879 -1.37997 -5.15551 0
M  V30 716 O 71.1109 -0.265357 -5.69782 0
M  V30 717 O 70.0449 -2.20201 -5.60174 0
M  V30 718 H 73.8709 -1.98086 -2.30208 0
M  V30 719 H 71.4559 -1.02332 -1.08851 0
M  V30 720 H 73.3379 -0.418761 -4.19314 0
M  V30 721 H 72.0129 0.282754 -3.22463 0
M  V30 722 H 70.9199 -2.03304 -3.14036 0
M  V30 723 H 72.2529 -2.6583 -4.14241 0
M  V30 724 N 73.905 1.17692 -1.04816 0
M  V30 725 C 74.815 2.25229 -0.65643 0
M  V30 726 C 75.831 1.71018 0.320761 0
M  V30 727 O 77.007 2.00649 0.173805 0
M  V30 728 C 74.072 3.46684 -0.0332629 0
M  V30 729 C 73.133 4.15997 -1.06042 0
M  V30 730 C 72.366 5.31654 -0.466893 0
M  V30 731 O 72.589 5.65777 0.724758 0
M  V30 732 O 71.523 5.89831 -1.1993 0
M  V30 733 H 75.349 2.61016 -1.55255 0
M  V30 734 H 72.934 1.24919 -0.81949 0
M  V30 735 H 74.816 4.20234 0.313256 0
M  V30 736 H 73.491 3.12703 0.836566 0
M  V30 737 H 72.398 3.44482 -1.45886 0
M  V30 738 H 73.731 4.53996 -1.90127 0
M  V30 739 N 75.3831 0.828654 1.34056 0
M  V30 740 C 76.2931 0.256725 2.33191 0
M  V30 741 C 77.3091 -0.611898 1.62886 0
M  V30 742 O 78.4851 -0.51844 1.94613 0
M  V30 743 C 75.5501 -0.567238 3.42028 0
M  V30 744 C 74.6111 0.324458 4.28072 0
M  V30 745 C 73.8441 -0.460274 5.31712 0
M  V30 746 O 74.0671 -1.693 5.44696 0
M  V30 747 O 73.0011 0.160391 6.01686 0
M  V30 748 H 76.8271 1.07739 2.83947 0
M  V30 749 H 74.4121 0.59093 1.37217 0
M  V30 750 H 76.2941 -1.03582 4.08471 0
M  V30 751 H 74.9691 -1.36513 2.93506 0
M  V30 752 H 73.8761 0.840659 3.64532 0
M  V30 753 H 75.2091 1.08685 4.8005 0
M  V30 754 N 76.8612 -1.46375 0.584142 0
M  V30 755 C 77.8242 -2.28784 -0.138108 0
M  V30 756 C 78.8242 -1.38471 -0.817462 0
M  V30 757 O 80.0142 -1.60833 -0.669199 0
M  V30 758 C 77.1462 -3.18892 -1.20503 0
M  V30 759 H 78.3392 -2.94117 0.586127 0
M  V30 760 H 75.8922 -1.52509 0.342171 0
M  V30 761 H 76.6272 -2.58309 -1.96079 0
M  V30 762 H 76.4122 -3.85388 -0.722384 0
M  V30 763 H 77.9022 -3.80914 -1.71155 0
M  V30 764 N 78.3393 -0.321999 -1.54275 0
M  V30 765 C 79.3023 0.531975 -2.22941 0
M  V30 766 C 80.3023 1.04478 -1.22234 0
M  V30 767 O 81.4923 0.937452 -1.46825 0
M  V30 768 C 78.6243 1.73874 -2.93224 0
M  V30 769 H 79.8173 -0.0682612 -2.99822 0
M  V30 770 H 77.3703 -0.0730644 -1.56129 0
M  V30 771 H 78.1053 2.37825 -2.20476 0
M  V30 772 H 77.8903 1.37847 -3.6707 0
M  V30 773 H 79.3803 2.34496 -3.45545 0
M  V30 774 N 79.8174 1.5752 -0.0501392 0
M  V30 775 C 81.0634 1.92936 0.624798 0
M  V30 776 C 81.3964 0.928685 1.70555 0
M  V30 777 O 80.6714 -0.0454779 1.94447 0
M  V30 778 C 80.9544 3.38737 1.22185 0
M  V30 779 C 80.8074 4.49552 0.149218 0
M  V30 780 C 82.1264 3.84913 2.13378 0
M  V30 781 H 79.2454 0.701604 0.225657 0
M  V30 782 H 81.8874 1.89671 -0.111693 0
M  V30 783 H 80.0374 3.4165 1.84953 0
M  V30 784 H 81.7094 4.58768 -0.482648 0
M  V30 785 H 79.9524 4.30638 -0.522841 0
M  V30 786 H 80.6234 5.48653 0.606966 0
M  V30 787 H 83.0994 3.8387 1.60572 0
M  V30 788 H 81.9754 4.87584 2.52097 0
M  V30 789 H 82.2364 3.21611 3.03346 0
M  V30 790 N 81.2955 -0.223234 1.56011 0
M  V30 791 C 82.5425 -0.947875 1.78946 0
M  V30 792 C 82.8705 -1.844 0.618608 0
M  V30 793 O 82.1255 -1.91629 -0.397093 0
M  V30 794 C 82.4245 -1.81948 3.0762 0
M  V30 795 C 82.0905 -1.07672 4.37856 0
M  V30 796 C 80.7525 -0.871544 4.73242 0
M  V30 797 C 83.1045 -0.552081 5.18268 0
M  V30 798 C 80.4325 -0.129791 5.86556 0
M  V30 799 C 82.7845 0.17632 6.32354 0
M  V30 800 C 81.4485 0.39277 6.66343 0
M  V30 801 H 80.7185 -0.346852 0.654809 0
M  V30 802 H 83.3655 -0.216171 1.90276 0
M  V30 803 H 81.6705 -2.61899 2.91404 0
M  V30 804 H 83.3675 -2.38227 3.22566 0
M  V30 805 H 79.9575 -1.24662 4.1007 0
M  V30 806 H 84.1415 -0.698076 4.91366 0
M  V30 807 H 79.3975 0.048153 6.11381 0
M  V30 808 H 83.5715 0.590367 6.93893 0
M  V30 809 H 81.1985 0.969466 7.53993 0
M  V30 810 N 82.7736 -1.49793 -0.48987 0
M  V30 811 C 84.1846 -1.52914 -1.07118 0
M  V30 812 C 84.5356 -0.321738 -1.93544 0
M  V30 813 O 83.6606 0.567338 -2.08831 0
M  V30 814 C 84.2556 -2.771 -1.94938 0
M  V30 815 C 82.8146 -2.82963 -2.48212 0
M  V30 816 C 81.9616 -2.46972 -1.26096 0
M  V30 817 H 84.9126 -1.56329 -0.273289 0
M  V30 818 H 84.9336 -2.57892 -2.79771 0
M  V30 819 H 84.4456 -3.64959 -1.32009 0
M  V30 820 H 82.5466 -1.99411 -3.14748 0
M  V30 821 H 82.6596 -3.85406 -2.84603 0
M  V30 822 H 81.0236 -1.98994 -1.58976 0
M  V30 823 H 81.8066 -3.37118 -0.648581 0
M  V30 824 N 84.2517 0.741722 -1.39055 0
M  V30 825 C 85.1617 1.88621 -1.39496 0
M  V30 826 C 86.1777 1.71557 -0.290578 0
M  V30 827 O 87.3537 1.94275 -0.530954 0
M  V30 828 C 84.4187 3.24134 -1.23037 0
M  V30 829 C 83.4797 3.5364 -2.43387 0
M  V30 830 C 82.7127 4.82687 -2.27703 0
M  V30 831 O 82.9357 5.55922 -1.27696 0
M  V30 832 O 81.8697 5.1194 -3.16545 0
M  V30 833 H 85.6957 1.91203 -2.35956 0
M  V30 834 H 83.2807 0.888625 -1.20099 0
M  V30 835 H 85.1627 4.0513 -1.15964 0
M  V30 836 H 83.8377 3.22337 -0.296691 0
M  V30 837 H 82.7447 2.72758 -2.56035 0
M  V30 838 H 84.0777 3.60209 -3.35425 0
M  V30 839 N 85.7298 1.2412 0.971189 0
M  V30 840 C 86.9758 1.08041 1.71625 0
M  V30 841 C 87.3088 -0.380407 1.90438 0
M  V30 842 O 86.5838 -1.28127 1.46334 0
M  V30 843 C 86.8668 1.81682 3.10908 0
M  V30 844 C 86.7198 3.35493 2.99608 0
M  V30 845 C 88.0388 1.58671 4.10501 0
M  V30 846 H 85.1578 0.39388 0.622919 0
M  V30 847 H 87.7998 1.52743 1.13003 0
M  V30 848 H 85.9498 1.43684 3.60953 0
M  V30 849 H 87.6218 3.83068 2.57015 0
M  V30 850 H 85.8648 3.64052 2.35899 0
M  V30 851 H 86.5358 3.82217 3.98264 0
M  V30 852 H 89.0118 1.91719 3.69301 0
M  V30 853 H 87.8878 2.1266 5.06031 0
M  V30 854 H 88.1488 0.524161 4.38982 0
M  V30 855 N 87.2079 -1.17134 1.05439 0
M  V30 856 C 88.1709 -2.19439 0.661764 0
M  V30 857 C 89.1709 -1.58199 -0.288042 0
M  V30 858 O 90.3609 -1.74053 -0.0715803 0
M  V30 859 C 87.4929 -3.40889 -0.0276209 0
M  V30 860 H 88.6859 -2.55688 1.56728 0
M  V30 861 H 86.2389 -1.31259 0.848567 0
M  V30 862 H 86.9739 -3.10187 -0.94629 0
M  V30 863 H 86.7589 -3.86586 0.655238 0
M  V30 864 H 88.2489 -4.16603 -0.288342 0
M  V30 865 N 88.686 -0.835752 -1.33615 0
M  V30 866 C 89.932 -0.430596 -1.98176 0
M  V30 867 C 90.265 1.00684 -1.66061 0
M  V30 868 O 89.54 1.70339 -0.938877 0
M  V30 869 C 89.823 -0.648065 -3.5422 0
M  V30 870 C 89.676 -2.13255 -3.96033 0
M  V30 871 C 90.995 -0.0922113 -4.40003 0
M  V30 872 H 88.114 -0.157924 -0.719881 0
M  V30 873 H 90.756 -1.05069 -1.58305 0
M  V30 874 H 88.906 -0.120237 -3.88314 0
M  V30 875 H 90.578 -2.725 -3.72211 0
M  V30 876 H 88.821 -2.61823 -3.45878 0
M  V30 877 H 89.492 -2.23547 -5.04708 0
M  V30 878 H 91.968 -0.543343 -4.12537 0
M  V30 879 H 90.844 -0.274083 -5.48215 0
M  V30 880 H 91.105 1.00378 -4.30554 0
M  V30 881 N 90.1641 1.46063 -0.591896 0
M  V30 882 C 91.1271 2.28854 0.125973 0
M  V30 883 C 92.1271 1.38903 0.810107 0
M  V30 884 O 93.3171 1.61186 0.66066 0
M  V30 885 C 90.4491 3.19526 1.1881 0
M  V30 886 H 91.6421 2.93802 -0.601717 0
M  V30 887 H 89.1951 1.52325 -0.350254 0
M  V30 888 H 89.9301 2.59345 1.94707 0
M  V30 889 H 89.7151 3.85766 0.701936 0
M  V30 890 H 91.2051 3.81817 1.69132 0
M  V30 891 N 91.6422 0.330177 1.54103 0
M  V30 892 C 92.5522 -0.541534 2.28264 0
M  V30 893 C 93.5682 -1.12351 1.32866 0
M  V30 894 O 94.7442 -1.14206 1.65888 0
M  V30 895 C 91.8092 -1.68322 3.03098 0
M  V30 896 C 90.8702 -1.13238 4.14096 0
M  V30 897 C 90.1032 -2.21966 4.85352 0
M  V30 898 O 90.3262 -3.42437 4.56172 0
M  V30 899 O 89.2602 -1.87013 5.7211 0
M  V30 900 H 93.0862 0.060938 3.03639 0
M  V30 901 H 90.6712 0.09565 1.49093 0
M  V30 902 H 92.5532 -2.34777 3.49939 0
M  V30 903 H 91.2282 -2.27176 2.30593 0
M  V30 904 H 90.1352 -0.432736 3.71589 0
M  V30 905 H 91.4682 -0.588898 4.88664 0
M  V30 906 N 93.1203 -1.57491 0.0584922 0
M  V30 907 C 94.3683 -1.92597 -0.612436 0
M  V30 908 C 94.6893 -0.938162 -1.70949 0
M  V30 909 O 93.9593 0.0158301 -1.95894 0
M  V30 910 H 92.5393 -0.710964 -0.229214 0
M  V30 911 H 95.2013 -1.94571 0.113218 0
M  V30 912 H 94.2973 -2.94038 -1.04633 0
M  V30 913 N 94.5984 0.214957 -1.56127 0
M  V30 914 C 96.0094 0.781386 -1.69562 0
M  V30 915 C 96.3604 1.84707 -0.66165 0
M  V30 916 O 95.4854 2.156 0.185927 0
M  V30 917 C 96.0804 1.42411 -3.07416 0
M  V30 918 C 94.6394 1.93786 -3.22683 0
M  V30 919 C 93.7864 0.800438 -2.65496 0
M  V30 920 H 96.7374 -0.00980633 -1.58697 0
M  V30 921 H 96.7584 2.29309 -3.0364 0
M  V30 922 H 96.2704 0.64826 -3.82648 0
M  V30 923 H 94.3714 2.74152 -2.52332 0
M  V30 924 H 94.4844 2.1133 -4.29973 0
M  V30 925 H 92.8484 1.2095 -2.2415 0
M  V30 926 H 93.6314 0.0371471 -3.4328 0
M  V30 927 N 96.0765 1.50051 0.48192 0
M  V30 928 C 97.3235 1.60498 1.23477 0
M  V30 929 C 97.6515 0.300331 1.92167 0
M  V30 930 O 96.9065 -0.713094 1.82246 0
M  V30 931 C 97.2055 2.72717 2.30998 0
M  V30 932 C 96.8715 4.13572 1.79636 0
M  V30 933 C 95.5335 4.519 1.65348 0
M  V30 934 C 97.8855 5.01649 1.41412 0
M  V30 935 C 95.2135 5.76057 1.11244 0
M  V30 936 C 97.5655 6.26343 0.887538 0
M  V30 937 C 96.2295 6.63483 0.731207 0
M  V30 938 H 95.4995 0.587303 0.451836 0
M  V30 939 H 98.1465 1.83948 0.532468 0
M  V30 940 H 96.4515 2.43312 3.07094 0
M  V30 941 H 98.1485 2.78006 2.88988 0
M  V30 942 H 94.7385 3.83329 1.91721 0
M  V30 943 H 98.9225 4.72679 1.51289 0
M  V30 944 H 94.1785 6.03516 0.978686 0
M  V30 945 H 98.3525 6.93958 0.582654 0
M  V30 946 H 95.9795 7.59568 0.309806 0
M  V30 947 N 97.5546 -0.734337 1.39446 0
M  V30 948 C 98.8036 -1.48937 1.36017 0
M  V30 949 C 99.1166 -1.95557 -0.0409005 0
M  V30 950 O 100.323 -2.70779 -0.19778 0
M  V30 951 C 98.7786 -2.69125 2.38955 0
M  V30 952 C 98.3866 -2.29452 3.8478 0
M  V30 953 C 100.131 -3.46944 2.44603 0
M  V30 954 C 98.0376 -3.46366 4.79358 0
M  V30 955 H 96.9676 -0.559296 0.505672 0
M  V30 956 H 99.6186 -0.800983 1.65095 0
M  V30 957 H 98.0006 -3.40041 2.02948 0
M  V30 958 H 99.1746 -1.66077 4.29831 0
M  V30 959 H 97.4896 -1.64723 3.82433 0
M  V30 960 H 100.087 -4.33907 3.12456 0
M  V30 961 H 100.43 -3.89454 1.47076 0
M  V30 962 H 100.963 -2.83056 2.79507 0
M  V30 963 H 97.7016 -3.08905 5.78151 0
M  V30 964 H 97.2216 -4.08719 4.38986 0
M  V30 965 H 98.9006 -4.12691 4.98292 0
M  V30 966 N 99.0327 -1.24633 -0.964593 0
M  V30 967 C 100.261 -1.11501 -1.74285 0
M  V30 968 C 100.676 0.332165 -1.85855 0
M  V30 969 O 100.033 1.22903 -1.34911 0
M  V30 970 C 100.084 -1.75258 -3.16175 0
M  V30 971 O 99.8047 -3.14318 -3.05182 0
M  V30 972 C 101.306 -1.67776 -4.10324 0
M  V30 973 H 98.5257 -0.389407 -0.546446 0
M  V30 974 H 101.07 -1.64801 -1.21083 0
M  V30 975 H 99.2247 -1.25954 -3.66353 0
M  V30 976 H 99.6387 -3.4551 -3.94618 0
M  V30 977 H 101.113 -2.17064 -5.0753 0
M  V30 978 H 101.59 -0.639584 -4.34518 0
M  V30 979 H 102.196 -2.16522 -3.66058 0
M  V30 980 N 100.511 1.16574 -1.06058 0
M  V30 981 C 101.759 1.86677 -0.77434 0
M  V30 982 C 102.08 1.81959 0.701147 0
M  V30 983 O 101.35 1.2515 1.50713 0
M  V30 984 H 99.9298 0.691134 -0.283449 0
M  V30 985 H 102.592 1.41378 -1.34158 0
M  V30 986 H 101.688 2.92181 -1.09711 0
M  V30 987 N 101.989 0.842826 1.3317 0
M  V30 988 C 102.899 0.281444 2.32906 0
M  V30 989 C 103.915 -0.594587 1.63526 0
M  V30 990 O 105.091 -0.49777 1.95152 0
M  V30 991 C 102.156 -0.530929 3.42611 0
M  V30 992 C 101.217 0.369843 4.27704 0
M  V30 993 C 100.45 -0.403853 5.3217 0
M  V30 994 O 100.673 -1.63513 5.46461 0
M  V30 995 O 99.6069 0.224199 6.01482 0
M  V30 996 H 103.433 1.10744 2.82789 0
M  V30 997 H 101.018 0.60545 1.36582 0
M  V30 998 H 102.9 -0.992437 4.09547 0
M  V30 999 H 101.575 -1.33392 2.94938 0
M  V30 1000 H 100.482 0.879275 3.6362 0
M  V30 1001 H 101.815 1.13771 4.78871 0
M  V30 1002 N 103.467 -1.45747 0.599634 0
M  V30 1003 C 104.415 -2.322 -0.136426 0
M  V30 1004 C 105.409 -1.45497 -0.867583 0
M  V30 1005 O 106.615 -1.62027 -0.78405 0
M  V30 1006 H 102.99 -0.749368 -0.0628588 0
M  V30 1007 H 104.961 -2.92072 0.611281 0
M  V30 1008 C 103.71 -3.28974 -1.12567 0
M  V30 1009 H 103.033 -3.9568 -0.572484 0
M  V30 1010 H 104.473 -3.92212 -1.61077 0
M  V30 1011 C 102.932 -2.55561 -2.19523 0
M  V30 1012 O 103.462 -2.33111 -3.27143 0
M  V30 1013 N 101.668 -2.15832 -1.94589 0
M  V30 1014 H 101.215 -2.3429 -1.07078 0
M  V30 1015 H 101.173 -1.67034 -2.66359 0
M  V30 1016 N 104.945 -0.338344 -1.53925 0
M  V30 1017 C 106.194 0.260732 -2.00008 0
M  V30 1018 C 106.507 1.52073 -1.23017 0
M  V30 1019 O 107.713 2.19672 -1.5955 0
M  V30 1020 C 106.169 0.51515 -3.56194 0
M  V30 1021 C 105.777 -0.728645 -4.42035 0
M  V30 1022 C 107.521 1.07337 -4.10706 0
M  V30 1023 C 105.428 -0.445315 -5.89721 0
M  V30 1024 H 104.358 0.101205 -0.747177 0
M  V30 1025 H 107.009 -0.452866 -1.77824 0
M  V30 1026 H 105.391 1.28932 -3.74423 0
M  V30 1027 H 106.565 -1.50352 -4.35581 0
M  V30 1028 H 104.88 -1.20813 -3.98489 0
M  V30 1029 H 107.477 1.30022 -5.18651 0
M  V30 1030 H 107.82 2.0273 -3.63602 0
M  V30 1031 H 108.353 0.360034 -3.96167 0
M  V30 1032 H 105.092 -1.36883 -6.41049 0
M  V30 1033 H 104.612 0.291569 -5.99091 0
M  V30 1034 H 106.291 -0.0606218 -6.46972 0
M  V30 1035 N 106.423 1.57458 -0.0668435 0
M  V30 1036 C 107.7 1.8469 0.644132 0
M  V30 1037 C 108.08 0.958343 1.88093 0
M  V30 1038 O 107.428 0.0233579 2.28488 0
M  V30 1039 C 107.638 3.34767 0.986509 0
M  V30 1040 C 108.986 4.02159 1.36212 0
M  V30 1041 O 110.01 3.39484 1.07839 0
M  V30 1042 O 108.869 5.12694 1.89227 0
M  V30 1043 H 105.963 0.762816 0.319437 0
M  V30 1044 H 108.509 1.6942 -0.0973986 0
M  V30 1045 H 107.281 3.91151 0.107883 0
M  V30 1046 H 106.904 3.55281 1.78497 0
M  V30 1047 N 107.901 -0.206675 1.56239 0
M  V30 1048 C 109.129 -0.945345 1.8404 0
M  V30 1049 C 109.544 -1.77336 0.647885 0
M  V30 1050 O 108.901 -1.78425 -0.383511 0
M  V30 1051 C 108.952 -1.8509 3.10522 0
M  V30 1052 O 108.673 -1.05634 4.25174 0
M  V30 1053 C 110.174 -2.70222 3.51418 0
M  V30 1054 H 107.394 -0.276372 0.61144 0
M  V30 1055 H 109.938 -0.217417 2.03341 0
M  V30 1056 H 108.093 -2.53259 2.93153 0
M  V30 1057 H 108.507 -1.67238 4.97124 0
M  V30 1058 H 109.981 -3.29438 4.42916 0
M  V30 1059 H 110.458 -3.43358 2.73864 0
M  V30 1060 H 111.064 -2.07443 3.71278 0
M  V30 1061 N 109.379 -1.50304 -0.473955 0
M  V30 1062 C 110.604 -1.65175 -1.25427 0
M  V30 1063 C 111.029 -0.333673 -1.85117 0
M  V30 1064 O 110.387 0.702114 -1.67153 0
M  V30 1065 C 110.435 -2.74295 -2.34082 0
M  V30 1066 O 109.539 -2.35349 -3.38651 0
M  V30 1067 H 108.88 -0.551944 -0.369126 0
M  V30 1068 H 111.41 -1.96662 -0.564364 0
M  V30 1069 H 111.42 -2.97285 -2.79438 0
M  V30 1070 H 110.095 -3.69959 -1.90008 0
M  V30 1071 H 108.672 -2.22794 -2.99027 0
M  V30 1072 N 110.857 0.726932 -1.39834 0
M  V30 1073 C 112.082 1.52121 -1.40976 0
M  V30 1074 C 112.507 1.88098 -0.00826029 0
M  V30 1075 O 111.865 1.52479 0.980807 0
M  V30 1076 C 111.913 2.78021 -2.29644 0
M  V30 1077 O 111.017 3.74272 -1.73188 0
M  V30 1078 H 110.358 0.45908 -0.479731 0
M  V30 1079 H 112.888 0.896207 -1.83927 0
M  V30 1080 H 112.898 3.26671 -2.44438 0
M  V30 1081 H 111.573 2.51169 -3.31492 0
M  V30 1082 H 110.15 3.33073 -1.6768 0
M  V30 1083 N 112.336 1.25143 0.95797 0
M  V30 1084 C 113.613 1.00472 1.67823 0
M  V30 1085 C 113.993 -0.470056 2.058 0
M  V30 1086 O 113.341 -1.44663 1.76875 0
M  V30 1087 C 113.551 1.9372 2.90299 0
M  V30 1088 C 114.899 2.21371 3.62326 0
M  V30 1089 O 115.923 1.91451 3.00375 0
M  V30 1090 O 114.782 2.72231 4.7387 0
M  V30 1091 H 111.876 0.380752 0.734137 0
M  V30 1092 H 114.422 1.36283 1.01119 0
M  V30 1093 H 113.194 2.93316 2.59001 0
M  V30 1094 H 112.817 1.58286 3.64735 0
M  V30 1095 N 113.814 -1.1601 1.06675 0
M  V30 1096 C 114.744 -2.22688 0.702307 0
M  V30 1097 C 115.725 -1.67306 -0.307032 0
M  V30 1098 O 116.91 -1.93352 -0.181305 0
M  V30 1099 C 114.04 -3.47178 0.092038 0
M  V30 1100 C 112.994 -4.15477 1.02777 0
M  V30 1101 C 112.32 -5.33963 0.28061 0
M  V30 1102 C 113.62 -4.66019 2.35846 0
M  V30 1103 H 115.314 -2.53429 1.59419 0
M  V30 1104 H 112.86 -1.21813 0.767961 0
M  V30 1105 H 114.813 -4.21037 -0.174814 0
M  V30 1106 H 113.537 -3.15749 -0.834877 0
M  V30 1107 H 112.196 -3.43549 1.27944 0
M  V30 1108 H 111.844 -4.98788 -0.649545 0
M  V30 1109 H 111.544 -5.806 0.904258 0
M  V30 1110 H 113.068 -6.10596 0.021396 0
M  V30 1111 H 114.482 -5.3144 2.15045 0
M  V30 1112 H 112.879 -5.23293 2.93743 0
M  V30 1113 H 113.949 -3.82023 2.98641 0
M  V30 1114 N 115.292 -0.849877 -1.32721 0
M  V30 1115 C 116.225 -0.235903 -2.26977 0
M  V30 1116 C 117.203 0.623355 -1.50177 0
M  V30 1117 O 118.387 0.581207 -1.79316 0
M  V30 1118 C 115.514 0.667712 -3.32053 0
M  V30 1119 C 114.56 -0.11753 -4.26338 0
M  V30 1120 S 115.393 -1.48277 -5.14562 0
M  V30 1121 C 116.549 -0.584741 -6.23163 0
M  V30 1122 H 116.782 -1.03495 -2.78704 0
M  V30 1123 H 114.315 -0.64724 -1.40179 0
M  V30 1124 H 116.273 1.18343 -3.93072 0
M  V30 1125 H 114.934 1.44052 -2.7912 0
M  V30 1126 H 114.127 0.57051 -5.00761 0
M  V30 1127 H 113.729 -0.564668 -3.69713 0
M  V30 1128 H 116.021 0.212968 -6.77165 0
M  V30 1129 H 116.964 -1.29947 -6.96074 0
M  V30 1130 H 117.372 -0.161202 -5.6427 0
M  V30 1131 N 116.77 1.45427 -0.607355 0
M  V30 1132 C 117.7 2.3329 0.0989352 0
M  V30 1133 C 118.681 1.46816 0.859007 0
M  V30 1134 O 119.866 1.75588 0.829604 0
M  V30 1135 C 116.996 3.29518 1.09705 0
M  V30 1136 C 115.95 4.25626 0.450206 0
M  V30 1137 C 115.276 5.11542 1.55655 0
M  V30 1138 C 116.576 5.18505 -0.628455 0
M  V30 1139 H 118.27 2.92595 -0.634716 0
M  V30 1140 H 115.816 1.40696 -0.306681 0
M  V30 1141 H 117.769 3.89855 1.59971 0
M  V30 1142 H 116.493 2.68372 1.86129 0
M  V30 1143 H 115.152 3.66586 -0.0315886 0
M  V30 1144 H 114.8 4.46765 2.31107 0
M  V30 1145 H 114.5 5.76647 1.12925 0
M  V30 1146 H 116.024 5.74748 2.06148 0
M  V30 1147 H 117.438 5.72916 -0.209877 0
M  V30 1148 H 115.835 5.92085 -0.977489 0
M  V30 1149 H 116.905 4.60948 -1.50514 0
M  V30 1150 N 118.248 0.346503 1.53744 0
M  V30 1151 C 119.211 -0.496439 2.23759 0
M  V30 1152 C 120.211 -1.0252 1.2388 0
M  V30 1153 O 121.401 -0.913974 1.48297 0
M  V30 1154 C 118.533 -1.69187 2.95954 0
M  V30 1155 H 119.726 0.115952 2.99676 0
M  V30 1156 H 117.279 0.0978939 1.55993 0
M  V30 1157 H 118.014 -2.34288 2.24231 0
M  V30 1158 H 117.799 -1.31989 3.69217 0
M  V30 1159 H 119.289 -2.28969 3.49232 0
M  V30 1160 N 119.726 -1.57421 0.075193 0
M  V30 1161 C 120.658 -2.09904 -0.920483 0
M  V30 1162 C 121.671 -1.03191 -1.25918 0
M  V30 1163 O 122.86 -1.30695 -1.21577 0
M  V30 1164 C 119.96 -2.54726 -2.23534 0
M  V30 1165 C 119.133 -3.8505 -2.07498 0
M  V30 1166 C 118.192 -4.15929 -3.22319 0
M  V30 1167 O 117.218 -4.85474 -2.9716 0
M  V30 1168 N 118.42 -3.69745 -4.47514 0
M  V30 1169 H 121.185 -2.95954 -0.472359 0
M  V30 1170 H 118.746 -1.61523 -0.110444 0
M  V30 1171 H 120.738 -2.72443 -2.9926 0
M  V30 1172 H 119.308 -1.73795 -2.59835 0
M  V30 1173 H 118.528 -3.76679 -1.16219 0
M  V30 1174 H 119.816 -4.70348 -1.94038 0
M  V30 1175 H 119.214 -3.13569 -4.7084 0
M  V30 1176 H 117.771 -3.92655 -5.20255 0
M  V30 1177 N 121.204 0.198386 -1.56346 0
M  V30 1178 C 122.137 1.27381 -1.89339 0
M  V30 1179 C 123.115 1.44106 -0.753134 0
M  V30 1180 O 124.299 1.59549 -1.00381 0
M  V30 1181 C 121.426 2.6409 -2.12071 0
M  V30 1182 C 120.472 2.64253 -3.34772 0
M  V30 1183 S 121.305 2.16013 -4.89999 0
M  V30 1184 C 122.461 3.54553 -5.15794 0
M  V30 1185 H 122.694 0.992058 -2.8026 0
M  V30 1186 H 120.227 0.401726 -1.49082 0
M  V30 1187 H 122.185 3.42786 -2.2585 0
M  V30 1188 H 120.846 2.89478 -1.21906 0
M  V30 1189 H 120.039 3.64768 -3.47794 0
M  V30 1190 H 119.641 1.93637 -3.1997 0
M  V30 1191 H 121.933 4.50396 -5.06112 0
M  V30 1192 H 122.876 3.46428 -6.1757 0
M  V30 1193 H 123.284 3.49313 -4.43442 0
M  V30 1194 N 122.682 1.50554 0.465978 0
M  V30 1195 C 123.612 1.72722 1.57128 0
M  V30 1196 C 124.593 0.576294 1.6004 0
M  V30 1197 O 125.778 0.81598 1.76225 0
M  V30 1198 C 122.908 1.82605 2.95419 0
M  V30 1199 C 121.862 2.97835 3.07373 0
M  V30 1200 C 121.188 2.92867 4.47363 0
M  V30 1201 C 122.488 4.38265 2.84114 0
M  V30 1202 H 124.182 2.65267 1.38829 0
M  V30 1203 H 121.728 1.2765 0.666441 0
M  V30 1204 H 123.681 1.96698 3.72677 0
M  V30 1205 H 122.405 0.866858 3.14886 0
M  V30 1206 H 121.064 2.83401 2.3255 0
M  V30 1207 H 120.712 1.94783 4.63755 0
M  V30 1208 H 120.412 3.70227 4.56296 0
M  V30 1209 H 121.936 3.09015 5.26633 0
M  V30 1210 H 123.35 4.53198 3.51118 0
M  V30 1211 H 121.747 5.17115 3.04487 0
M  V30 1212 H 122.817 4.50281 1.7993 0
M  V30 1213 N 124.16 -0.719506 1.40217 0
M  V30 1214 C 125.092 -1.84428 1.36084 0
M  V30 1215 C 126.105 -1.60597 0.266913 0
M  V30 1216 O 127.294 -1.70544 0.526983 0
M  V30 1217 C 124.394 -3.20757 1.094 0
M  V30 1218 C 123.567 -3.71817 2.30372 0
M  V30 1219 C 122.626 -4.86748 1.99907 0
M  V30 1220 O 121.652 -4.99603 2.72737 0
M  V30 1221 N 122.854 -5.7226 0.974635 0
M  V30 1222 H 125.619 -1.88473 2.33019 0
M  V30 1223 H 123.18 -0.900885 1.3452 0
M  V30 1224 H 125.172 -3.95235 0.870116 0
M  V30 1225 H 123.742 -3.11884 0.211452 0
M  V30 1226 H 122.962 -2.88514 2.68614 0
M  V30 1227 H 124.25 -4.02666 3.11026 0
M  V30 1228 H 123.648 -5.6448 0.371368 0
M  V30 1229 H 122.205 -6.46739 0.810656 0
M  V30 1230 N 125.638 -1.25649 -0.95132 0
M  V30 1231 C 126.571 -1.00644 -2.04807 0
M  V30 1232 C 127.549 0.0654271 -1.62468 0
M  V30 1233 O 128.733 -0.074911 -1.88351 0
M  V30 1234 C 125.86 -0.522052 -3.34653 0
M  V30 1235 C 124.906 -1.58495 -3.95957 0
M  V30 1236 S 125.739 -3.17108 -4.31512 0
M  V30 1237 C 126.895 -2.70412 -5.64471 0
M  V30 1238 H 127.128 -1.93508 -2.25703 0
M  V30 1239 H 124.661 -1.09216 -1.09139 0
M  V30 1240 H 126.619 -0.24923 -4.09743 0
M  V30 1241 H 125.28 0.386146 -3.11717 0
M  V30 1242 H 124.473 -1.1968 -4.89584 0
M  V30 1243 H 124.075 -1.80862 -3.2736 0
M  V30 1244 H 126.367 -2.14245 -6.42733 0
M  V30 1245 H 127.31 -3.62693 -6.08161 0
M  V30 1246 H 127.718 -2.10302 -5.23864 0
M  V30 1247 N 127.117 1.15442 -1.07289 0
M  V30 1248 C 128.027 2.23786 -0.704057 0
M  V30 1249 C 129.043 1.7166 0.284413 0
M  V30 1250 O 130.219 2.00972 0.131205 0
M  V30 1251 C 127.284 3.46535 -0.106792 0
M  V30 1252 C 126.345 4.13654 -1.14842 0
M  V30 1253 C 125.578 5.30544 -0.57956 0
M  V30 1254 O 125.801 5.67187 0.604585 0
M  V30 1255 O 124.735 5.87154 -1.32414 0
M  V30 1256 H 128.561 2.57664 -1.60757 0
M  V30 1257 H 126.146 1.23152 -0.845803 0
M  V30 1258 H 128.028 4.20804 0.224048 0
M  V30 1259 H 126.703 3.14407 0.770049 0
M  V30 1260 H 125.61 3.4131 -1.5316 0
M  V30 1261 H 126.943 4.49861 -1.99714 0
M  V30 1262 N 128.595 0.856903 1.32268 0
M  V30 1263 C 129.825 0.47475 2.01071 0
M  V30 1264 C 130.233 -0.933746 1.64553 0
M  V30 1265 O 129.576 -1.62114 0.863989 0
M  V30 1266 C 129.638 0.536746 3.55471 0
M  V30 1267 C 129.302 1.90453 4.15423 0
M  V30 1268 C 130.299 2.87029 4.33486 0
M  V30 1269 C 127.984 2.20229 4.51447 0
M  V30 1270 C 129.978 4.11532 4.86744 0
M  V30 1271 C 127.665 3.44984 5.0441 0
M  V30 1272 C 128.663 4.40452 5.22007 0
M  V30 1273 O 128.351 5.62998 5.73837 0
M  V30 1274 H 128.083 0.184778 0.650256 0
M  V30 1275 H 130.637 1.15615 1.69771 0
M  V30 1276 H 128.867 -0.20152 3.86175 0
M  V30 1277 H 130.556 0.169875 4.05544 0
M  V30 1278 H 131.322 2.6533 4.05986 0
M  V30 1279 H 127.201 1.46705 4.37034 0
M  V30 1280 H 130.745 4.86056 5.00395 0
M  V30 1281 H 126.642 3.66532 5.31342 0
M  V30 1282 H 127.41 5.64987 5.92226 0
M  V30 1283 N 130.073 -1.45103 0.615059 0
M  V30 1284 C 131.35 -1.95549 0.0448276 0
M  V30 1285 C 131.73 -1.55737 -1.4251 0
M  V30 1286 O 131.078 -0.823556 -2.13143 0
M  V30 1287 C 131.288 -3.48098 0.250785 0
M  V30 1288 C 132.636 -4.24384 0.135509 0
M  V30 1289 O 133.66 -3.55738 0.181299 0
M  V30 1290 O 132.519 -5.46493 0.0268878 0
M  V30 1291 H 129.613 -0.8264 -0.0314845 0
M  V30 1292 H 132.159 -1.55232 0.685642 0
M  V30 1293 H 130.931 -3.7007 1.27139 0
M  V30 1294 H 130.554 -3.95323 -0.424937 0
M  V30 1295 N 131.551 -0.354651 -1.53558 0
M  V30 1296 C 132.967 -0.00315426 -1.596 0
M  V30 1297 C 133.167 1.47741 -1.37021 0
M  V30 1298 O 132.223 2.23759 -1.16996 0
M  V30 1299 C 133.536 -0.44929 -2.97325 0
M  V30 1300 C 135.084 -0.402578 -3.104 0
M  V30 1301 C 135.559 -0.824355 -4.5052 0
M  V30 1302 N 137.05 -0.778979 -4.56603 0
M  V30 1303 C 137.785 -1.07715 -5.63192 0
M  V30 1304 N 137.281 -1.44405 -6.77583 0
M  V30 1305 N 139.074 -1.00066 -5.53121 0
M  V30 1306 H 131.225 -1.31893 -1.66487 0
M  V30 1307 H 133.488 -0.538388 -0.780284 0
M  V30 1308 H 133.194 -1.48202 -3.1895 0
M  V30 1309 H 133.068 0.169772 -3.76818 0
M  V30 1310 H 135.455 0.621004 -2.88492 0
M  V30 1311 H 135.536 -1.05699 -2.32941 0
M  V30 1312 H 135.18 -1.846 -4.73165 0
M  V30 1313 H 135.11 -0.147304 -5.26394 0
M  V30 1314 H 137.601 -0.508528 -3.74463 0
M  V30 1315 H 137.914 -1.65612 -7.54846 0
M  V30 1316 H 136.259 -1.4826 -6.79002 0
M  V30 1317 H 139.45 -0.713293 -4.62633 0
M  V30 1318 H 139.623 -1.23638 -6.36096 0
M  V30 1319 N 133.029 1.57378 -0.0835403 0
M  V30 1320 C 133.939 2.16897 0.894021 0
M  V30 1321 C 134.955 1.13528 1.31861 0
M  V30 1322 O 136.131 1.45848 1.3889 0
M  V30 1323 C 133.196 2.72831 2.13925 0
M  V30 1324 C 132.257 3.91115 1.76997 0
M  V30 1325 C 131.49 4.44371 2.95584 0
M  V30 1326 O 131.713 3.96596 4.09961 0
M  V30 1327 O 130.647 5.35549 2.74719 0
M  V30 1328 H 134.473 3.00814 0.417679 0
M  V30 1329 H 132.058 1.48741 0.140181 0
M  V30 1330 H 133.94 3.0863 2.86924 0
M  V30 1331 H 132.615 1.91967 2.60635 0
M  V30 1332 H 131.522 3.60148 1.01214 0
M  V30 1333 H 132.855 4.73307 1.3506 0
M  V30 1334 N 134.507 -0.190092 1.56449 0
M  V30 1335 C 135.737 -0.92443 1.84764 0
M  V30 1336 C 136.145 -1.77146 0.664529 0
M  V30 1337 O 135.488 -1.79812 -0.375957 0
M  V30 1338 C 135.55 -1.86651 3.07248 0
M  V30 1339 C 135.214 -1.20094 4.40938 0
M  V30 1340 C 136.211 -0.575445 5.16706 0
M  V30 1341 C 133.896 -1.2033 4.87674 0
M  V30 1342 C 135.89 0.0388111 6.37388 0
M  V30 1343 C 133.577 -0.585214 6.08291 0
M  V30 1344 C 134.575 0.0347578 6.82991 0
M  V30 1345 O 134.263 0.643147 8.01323 0
M  V30 1346 H 133.995 -0.274974 0.617548 0
M  V30 1347 H 136.549 -0.200788 2.04416 0
M  V30 1348 H 134.779 -2.62998 2.83494 0
M  V30 1349 H 136.468 -2.46907 3.22167 0
M  V30 1350 H 137.234 -0.565728 4.81689 0
M  V30 1351 H 133.113 -1.67526 4.29484 0
M  V30 1352 H 136.657 0.523329 6.95634 0
M  V30 1353 H 132.554 -0.592451 6.42775 0
M  V30 1354 H 133.322 0.540545 8.16713 0
M  V30 1355 N 135.985 -1.50799 -0.457987 0
M  V30 1356 C 137.262 -1.52968 -1.21902 0
M  V30 1357 C 137.642 -0.281906 -2.09209 0
M  V30 1358 O 136.99 0.734076 -2.16388 0
M  V30 1359 C 137.2 -2.8326 -2.03875 0
M  V30 1360 C 138.548 -3.34425 -2.6162 0
M  V30 1361 O 139.572 -2.8467 -2.14106 0
M  V30 1362 O 138.431 -4.21188 -3.48228 0
M  V30 1363 H 135.525 -0.614129 -0.553873 0
M  V30 1364 H 138.071 -1.63098 -0.468739 0
M  V30 1365 H 136.843 -3.65543 -1.39621 0
M  V30 1366 H 136.466 -2.76195 -2.8601 0
M  V30 1367 N 137.463 0.71206 -1.40597 0
M  V30 1368 C 138.426 1.80785 -1.40888 0
M  V30 1369 C 139.426 1.57937 -0.302103 0
M  V30 1370 O 140.616 1.64913 -0.561182 0
M  V30 1371 C 137.748 3.18927 -1.20409 0
M  V30 1372 H 138.941 1.81924 -2.38419 0
M  V30 1373 H 136.494 0.91805 -1.26497 0
M  V30 1374 H 137.229 3.23436 -0.236522 0
M  V30 1375 H 137.014 3.36911 -2.00582 0
M  V30 1376 H 138.504 3.98949 -1.23408 0
M  V30 1377 N 138.941 1.26152 0.944643 0
M  V30 1378 C 139.873 1.03199 2.04652 0
M  V30 1379 C 140.886 -0.00642356 1.62799 0
M  V30 1380 O 142.075 0.233263 1.76969 0
M  V30 1381 C 139.175 0.540111 3.34568 0
M  V30 1382 C 138.348 1.64697 4.05208 0
M  V30 1383 C 137.407 1.15374 5.13396 0
M  V30 1384 O 136.433 1.85013 5.38293 0
M  V30 1385 N 137.635 0.00031529 5.805 0
M  V30 1386 H 140.4 1.9808 2.2491 0
M  V30 1387 H 137.961 1.17491 1.11389 0
M  V30 1388 H 139.953 0.194401 4.04233 0
M  V30 1389 H 138.523 -0.315021 3.11009 0
M  V30 1390 H 137.743 2.16379 3.29506 0
M  V30 1391 H 139.031 2.3903 4.49157 0
M  V30 1392 H 138.429 -0.581336 5.62705 0
M  V30 1393 H 136.986 -0.286346 6.51171 0
M  V30 1394 N 140.419 -1.14872 1.07899 0
M  V30 1395 C 141.349 -2.2193 0.725887 0
M  V30 1396 C 142.33 -1.67622 -0.28927 0
M  V30 1397 O 143.515 -1.93533 -0.160787 0
M  V30 1398 C 140.645 -3.47061 0.128856 0
M  V30 1399 C 139.599 -4.14363 1.07178 0
M  V30 1400 C 138.925 -5.33636 0.337229 0
M  V30 1401 C 140.225 -4.63492 2.40775 0
M  V30 1402 H 141.919 -2.51724 1.62097 0
M  V30 1403 H 139.465 -1.20991 0.780838 0
M  V30 1404 H 141.418 -4.21199 -0.130147 0
M  V30 1405 H 140.142 -3.16617 -0.80134 0
M  V30 1406 H 138.801 -3.42173 1.3158 0
M  V30 1407 H 138.449 -4.99449 -0.596606 0
M  V30 1408 H 138.149 -5.79609 0.965788 0
M  V30 1409 H 139.673 -6.10539 0.0861567 0
M  V30 1410 H 141.087 -5.2913 2.20669 0
M  V30 1411 H 139.484 -5.20148 2.99276 0
M  V30 1412 H 140.554 -3.78834 3.02676 0
M  V30 1413 N 141.898 -0.863906 -1.31812 0
M  V30 1414 C 143.314 -0.555004 -1.49639 0
M  V30 1415 C 143.514 0.912266 -1.79666 0
M  V30 1416 O 142.57 1.69479 -1.87171 0
M  V30 1417 C 143.883 -1.44998 -2.63431 0
M  V30 1418 C 145.431 -1.45138 -2.77316 0
M  V30 1419 C 145.906 -2.33179 -3.94197 0
M  V30 1420 N 147.397 -2.31025 -4.01474 0
M  V30 1421 C 148.132 -2.95871 -4.9117 0
M  V30 1422 N 147.628 -3.69863 -5.8581 0
M  V30 1423 N 149.421 -2.85211 -4.84367 0
M  V30 1424 H 141.572 -1.81339 -1.10589 0
M  V30 1425 H 143.835 -0.77505 -0.545895 0
M  V30 1426 H 143.541 -2.49377 -2.48 0
M  V30 1427 H 143.415 -1.14409 -3.59431 0
M  V30 1428 H 145.802 -0.415201 -2.92164 0
M  V30 1429 H 145.883 -1.79747 -1.82001 0
M  V30 1430 H 145.527 -3.3687 -3.80107 0
M  V30 1431 H 145.457 -1.95897 -4.88807 0
M  V30 1432 H 147.948 -1.77238 -3.33759 0
M  V30 1433 H 148.261 -4.16486 -6.50968 0
M  V30 1434 H 146.606 -3.73971 -5.85808 0
M  V30 1435 H 149.797 -2.26948 -4.09405 0
M  V30 1436 H 149.97 -3.36027 -5.54066 0
M  V30 1437 N 143.376 1.44774 -0.622745 0
M  V30 1438 C 144.792 1.56986 -0.287652 0
M  V30 1439 C 144.992 1.61167 1.20944 0
M  V30 1440 O 144.048 1.55015 1.99315 0
M  V30 1441 C 145.361 2.84551 -0.972188 0
M  V30 1442 C 146.909 2.9825 -0.949536 0
M  V30 1443 C 147.384 4.28605 -1.61437 0
M  V30 1444 N 148.875 4.35399 -1.58057 0
M  V30 1445 C 149.61 5.34964 -2.064 0
M  V30 1446 N 149.106 6.40981 -2.62897 0
M  V30 1447 N 150.899 5.26419 -1.97078 0
M  V30 1448 H 143.05 1.40304 -1.59463 0
M  V30 1449 H 145.313 0.671794 -0.668878 0
M  V30 1450 H 145.019 2.87417 -2.02693 0
M  V30 1451 H 144.893 3.73807 -0.504771 0
M  V30 1452 H 147.28 2.94941 0.0967067 0
M  V30 1453 H 147.361 2.10364 -1.45536 0
M  V30 1454 H 147.005 4.32672 -2.66002 0
M  V30 1455 H 146.935 5.15334 -1.08344 0
M  V30 1456 H 149.426 3.59397 -1.16801 0
M  V30 1457 H 149.739 7.13225 -2.97539 0
M  V30 1458 H 148.084 6.4169 -2.66943 0
M  V30 1459 H 151.275 4.42504 -1.52669 0
M  V30 1460 H 151.448 6.03861 -2.35066 0
M  V30 1461 N 144.854 0.36279 1.53368 0
M  V30 1462 C 145.764 -0.492994 2.29362 0
M  V30 1463 C 146.78 -1.09507 1.35219 0
M  V30 1464 O 147.956 -1.10662 1.68273 0
M  V30 1465 C 145.021 -1.61855 3.066 0
M  V30 1466 C 144.082 -1.04429 4.16405 0
M  V30 1467 C 143.315 -2.11621 4.89951 0
M  V30 1468 O 143.538 -3.32684 4.63333 0
M  V30 1469 O 142.472 -1.74835 5.75948 0
M  V30 1470 H 146.298 0.125331 3.03441 0
M  V30 1471 H 143.883 0.127253 1.48857 0
M  V30 1472 H 145.765 -2.27302 3.54841 0
M  V30 1473 H 144.44 -2.22233 2.3536 0
M  V30 1474 H 143.347 -0.353819 3.72423 0
M  V30 1475 H 144.68 -0.485113 4.89804 0
M  V30 1476 N 146.332 -1.57332 0.0918853 0
M  V30 1477 C 147.242 -2.17368 -0.882505 0
M  V30 1478 C 148.258 -1.14226 -1.31257 0
M  V30 1479 O 149.434 -1.46582 -1.38115 0
M  V30 1480 C 146.499 -2.73962 -2.12476 0
M  V30 1481 C 145.56 -3.92048 -1.7492 0
M  V30 1482 C 144.793 -4.45933 -2.93223 0
M  V30 1483 O 145.016 -3.98764 -4.07852 0
M  V30 1484 O 143.95 -5.36999 -2.71875 0
M  V30 1485 H 147.776 -3.01031 -0.40172 0
M  V30 1486 H 145.361 -1.48813 -0.132291 0
M  V30 1487 H 147.243 -3.10147 -2.85283 0
M  V30 1488 H 145.918 -1.93347 -2.59613 0
M  V30 1489 H 144.825 -3.6068 -0.993025 0
M  V30 1490 H 146.158 -4.74017 -1.32548 0
M  V30 1491 N 147.81 0.181792 -1.56548 0
M  V30 1492 C 148.757 1.22521 -1.95595 0
M  V30 1493 C 149.727 1.4454 -0.818373 0
M  V30 1494 O 150.912 1.57454 -1.07763 0
M  V30 1495 C 148.052 2.56193 -2.31212 0
M  V30 1496 C 147.165 2.41641 -3.58097 0
M  V30 1497 C 146.3 3.68108 -3.82975 0
M  V30 1498 C 145.339 3.48445 -5.03242 0
M  V30 1499 N 144.476 4.66956 -5.24306 0
M  V30 1500 H 149.316 0.885226 -2.84548 0
M  V30 1501 H 146.853 0.425718 -1.40805 0
M  V30 1502 H 148.811 3.34088 -2.49882 0
M  V30 1503 H 147.441 2.88208 -1.45382 0
M  V30 1504 H 146.493 1.54976 -3.474 0
M  V30 1505 H 147.805 2.23052 -4.46149 0
M  V30 1506 H 146.959 4.54441 -4.01956 0
M  V30 1507 H 145.698 3.89666 -2.93278 0
M  V30 1508 H 144.703 2.60499 -4.8417 0
M  V30 1509 H 145.928 3.2832 -5.9446 0
M  V30 1510 H 143.874 4.88752 -4.37559 0
M  V30 1511 H 143.791 4.51242 -6.06561 0
M  V30 1512 H 145.059 5.54602 -5.47756 0
M  V30 1513 N 149.288 1.51039 0.449983 0
M  V30 1514 C 150.235 1.71439 1.54523 0
M  V30 1515 C 151.205 0.555871 1.56522 0
M  V30 1516 O 152.39 0.788871 1.73728 0
M  V30 1517 C 149.53 1.83384 2.92343 0
M  V30 1518 C 148.643 3.10873 2.9997 0
M  V30 1519 C 147.778 3.13488 4.28834 0
M  V30 1520 C 146.817 4.35343 4.30282 0
M  V30 1521 N 145.954 4.35579 5.5065 0
M  V30 1522 H 150.794 2.64934 1.36433 0
M  V30 1523 H 148.331 1.31312 0.662982 0
M  V30 1524 H 150.289 1.88291 3.72293 0
M  V30 1525 H 148.919 0.933086 3.0902 0
M  V30 1526 H 147.971 3.15336 2.12761 0
M  V30 1527 H 149.283 4.00814 2.96901 0
M  V30 1528 H 148.437 3.17241 5.17149 0
M  V30 1529 H 147.176 2.21414 4.34543 0
M  V30 1530 H 146.181 4.3178 3.40362 0
M  V30 1531 H 147.406 5.28668 4.26248 0
M  V30 1532 H 145.352 3.46369 5.57104 0
M  V30 1533 H 145.269 5.19313 5.49409 0
M  V30 1534 H 146.537 4.43507 6.41032 0
M  V30 1535 N 150.766 -0.704594 1.40972 0
M  V30 1536 C 152.013 -1.46458 1.39844 0
M  V30 1537 C 152.341 -1.94499 0.00447594 0
M  V30 1538 O 151.596 -1.69275 -0.982057 0
M  V30 1539 C 151.895 -2.698 2.34399 0
M  V30 1540 C 151.561 -2.40464 3.81429 0
M  V30 1541 C 150.223 -2.32174 4.21484 0
M  V30 1542 C 152.575 -2.16086 4.74296 0
M  V30 1543 C 149.903 -1.97589 5.52427 0
M  V30 1544 C 152.255 -1.83011 6.05549 0
M  V30 1545 C 150.919 -1.7321 6.44635 0
M  V30 1546 H 150.189 -0.535927 0.511725 0
M  V30 1547 H 152.836 -0.806124 1.73706 0
M  V30 1548 H 151.141 -3.40536 1.93759 0
M  V30 1549 H 152.838 -3.27919 2.30804 0
M  V30 1550 H 149.428 -2.47808 3.49699 0
M  V30 1551 H 153.612 -2.2144 4.4416 0
M  V30 1552 H 148.868 -1.88547 5.81601 0
M  V30 1553 H 153.042 -1.63164 6.77016 0
M  V30 1554 H 150.669 -1.46179 7.46013 0
M  V30 1555 N 152.244 -1.26651 -0.937939 0
M  V30 1556 C 153.192 -1.08308 -2.05845 0
M  V30 1557 C 154.186 -0.0090757 -1.69398 0
M  V30 1558 O 155.392 -0.166007 -1.79233 0
M  V30 1559 H 151.767 -0.333416 -0.674046 0
M  V30 1560 H 153.738 -2.03261 -2.18467 0
M  V30 1561 C 152.487 -0.736229 -3.39816 0
M  V30 1562 H 151.81 -1.55453 -3.6834 0
M  V30 1563 H 153.25 -0.64769 -4.19024 0
M  V30 1564 C 151.709 0.558824 -3.32233 0
M  V30 1565 O 152.239 1.59621 -3.68624 0
M  V30 1566 N 150.445 0.550657 -2.85335 0
M  V30 1567 H 149.992 -0.293943 -2.55917 0
M  V30 1568 H 149.95 1.41726 -2.80644 0
M  V30 1569 N 153.722 1.14298 -1.08507 0
M  V30 1570 C 154.97 1.84993 -0.813763 0
M  V30 1571 C 155.291 1.83405 0.662393 0
M  V30 1572 O 154.561 1.28319 1.48024 0
M  V30 1573 H 153.141 0.684966 -0.298045 0
M  V30 1574 H 155.803 1.385 -1.37126 0
M  V30 1575 H 154.899 2.89788 -1.15884 0
M  V30 1576 N 155.201 0.870884 1.31352 0
M  V30 1577 C 156.478 0.402907 1.91405 0
M  V30 1578 C 156.858 -1.11512 1.79244 0
M  V30 1579 O 156.206 -1.94411 1.2007 0
M  V30 1580 C 156.416 0.885301 3.37585 0
M  V30 1581 C 157.764 0.911971 4.14691 0
M  V30 1582 O 158.788 0.831016 3.46371 0
M  V30 1583 O 157.647 1.02927 5.3672 0
M  V30 1584 H 154.741 0.120698 0.818145 0
M  V30 1585 H 157.287 0.958857 1.40014 0
M  V30 1586 H 156.059 1.92889 3.40455 0
M  V30 1587 H 155.682 0.307714 3.96407 0
M  V30 1588 N 156.679 -1.44442 0.630414 0
M  V30 1589 C 157.904 -2.06927 0.139944 0
M  V30 1590 C 158.329 -1.46795 -1.17613 0
M  V30 1591 O 157.687 -0.569144 -1.72135 0
M  V30 1592 C 157.735 -3.6058 0.0379581 0
M  V30 1593 O 156.839 -3.99937 -1.0062 0
M  V30 1594 H 156.18 -0.658608 0.0844483 0
M  V30 1595 H 158.71 -1.85327 0.866891 0
M  V30 1596 H 158.72 -4.07714 -0.152856 0
M  V30 1597 H 157.395 -4.03728 0.998809 0
M  V30 1598 H 155.972 -3.64436 -0.79001 0
M  V30 1599 N 158.157 -0.370918 -1.53173 0
M  V30 1600 C 159.104 0.473035 -2.259 0
M  V30 1601 C 160.074 1.07311 -1.26781 0
M  V30 1602 O 161.259 1.1046 -1.55574 0
M  V30 1603 C 158.399 1.60405 -3.05556 0
M  V30 1604 C 157.512 1.02863 -4.19575 0
M  V30 1605 C 156.647 2.12918 -4.86661 0
M  V30 1606 C 155.686 1.52869 -5.92704 0
M  V30 1607 N 154.823 2.56779 -6.53459 0
M  V30 1608 H 159.663 -0.153649 -2.97604 0
M  V30 1609 H 157.2 -0.0875946 -1.46839 0
M  V30 1610 H 159.158 2.27034 -3.50016 0
M  V30 1611 H 157.788 2.20131 -2.36097 0
M  V30 1612 H 156.84 0.252465 -3.79561 0
M  V30 1613 H 158.152 0.549642 -4.95762 0
M  V30 1614 H 157.306 2.87356 -5.34333 0
M  V30 1615 H 156.045 2.6417 -4.09958 0
M  V30 1616 H 155.05 0.769479 -5.44389 0
M  V30 1617 H 156.275 1.02435 -6.7133 0
M  V30 1618 H 154.221 3.07235 -5.79606 0
M  V30 1619 H 154.138 2.13583 -7.25202 0
M  V30 1620 H 155.406 3.30903 -7.05779 0
M  V30 1621 N 159.635 1.57281 -0.100228 0
M  V30 1622 C 160.881 1.94826 0.563101 0
M  V30 1623 C 161.214 0.982475 1.67514 0
M  V30 1624 O 160.489 0.0164069 1.94493 0
M  V30 1625 C 160.772 3.42453 1.11346 0
M  V30 1626 C 160.625 4.498 0.00612081 0
M  V30 1627 C 161.944 3.91506 2.01024 0
M  V30 1628 H 159.063 0.708428 0.203221 0
M  V30 1629 H 161.705 1.8922 -0.171979 0
M  V30 1630 H 159.855 3.47361 1.7399 0
M  V30 1631 H 161.527 4.57 -0.628357 0
M  V30 1632 H 159.77 4.28756 -0.659581 0
M  V30 1633 H 160.441 5.50306 0.432109 0
M  V30 1634 H 162.917 3.88784 1.48278 0
M  V30 1635 H 161.793 4.95358 2.36457 0
M  V30 1636 H 162.054 3.31099 2.92961 0
M  V30 1637 N 161.113 -0.173488 1.56642 0
M  V30 1638 C 162.338 -0.910149 1.86363 0
M  V30 1639 C 162.763 -1.75132 0.686318 0
M  V30 1640 O 162.121 -1.77595 -0.364643 0
M  V30 1641 C 162.169 -1.76447 3.14482 0
M  V30 1642 O 161.273 -2.86584 2.96553 0
M  V30 1643 H 160.614 -0.255086 0.613047 0
M  V30 1644 H 163.144 -0.172283 2.03873 0
M  V30 1645 H 163.154 -2.16483 3.45831 0
M  V30 1646 H 161.829 -1.14658 3.99783 0
M  V30 1647 H 160.406 -2.50146 2.76553 0
M  V30 1648 N 162.591 -1.51276 -0.441967 0
M  V30 1649 C 163.84 -1.6295 -1.18871 0
M  V30 1650 C 164.153 -0.349312 -1.92456 0
M  V30 1651 O 165.359 -0.345355 -2.69295 0
M  V30 1652 C 163.815 -2.87759 -2.16155 0
M  V30 1653 C 163.423 -4.22764 -1.48239 0
M  V30 1654 C 165.167 -3.08788 -2.91291 0
M  V30 1655 C 163.074 -5.38728 -2.4398 0
M  V30 1656 H 162.004 -0.606913 -0.447406 0
M  V30 1657 H 164.655 -1.77739 -0.456205 0
M  V30 1658 H 163.037 -2.66593 -2.92821 0
M  V30 1659 H 164.211 -4.54293 -0.771635 0
M  V30 1660 H 162.526 -4.07575 -0.852741 0
M  V30 1661 H 165.123 -3.92599 -3.63002 0
M  V30 1662 H 165.466 -2.21679 -3.5237 0
M  V30 1663 H 165.999 -3.30272 -2.21733 0
M  V30 1664 H 162.738 -6.28082 -1.87598 0
M  V30 1665 H 162.258 -5.1158 -3.13123 0
M  V30 1666 H 163.937 -5.70489 -3.05207 0
M  V30 1667 N 164.069 0.697108 -1.41344 0
M  V30 1668 C 165.294 1.49096 -1.44171 0
M  V30 1669 C 165.719 1.88038 -0.0481568 0
M  V30 1670 O 165.077 1.54525 0.948243 0
M  V30 1671 C 165.125 2.73088 -2.3549 0
M  V30 1672 O 164.229 3.70514 -1.81088 0
M  V30 1673 H 163.57 0.448801 -0.489361 0
M  V30 1674 H 166.1 0.856992 -1.85787 0
M  V30 1675 H 166.11 3.21413 -2.51312 0
M  V30 1676 H 164.785 2.44081 -3.36745 0
M  V30 1677 H 163.362 3.29441 -1.74708 0
M  V30 1678 N 165.547 1.27147 0.931209 0
M  V30 1679 C 166.794 1.13278 1.67852 0
M  V30 1680 C 167.122 -0.32204 1.91815 0
M  V30 1681 O 166.377 -1.25224 1.50391 0
M  V30 1682 C 166.676 1.8579 3.05314 0
M  V30 1683 C 166.342 3.35657 3.01073 0
M  V30 1684 C 165.004 3.76536 2.99623 0
M  V30 1685 C 167.356 4.31299 2.92627 0
M  V30 1686 C 164.684 5.11426 2.87506 0
M  V30 1687 C 167.036 5.66242 2.82051 0
M  V30 1688 C 165.7 6.06418 2.7895 0
M  V30 1689 H 164.97 0.414515 0.614214 0
M  V30 1690 H 167.617 1.57712 1.08624 0
M  V30 1691 H 165.922 1.33854 3.68226 0
M  V30 1692 H 167.619 1.72491 3.62005 0
M  V30 1693 H 164.209 3.03146 3.02986 0
M  V30 1694 H 168.393 4.00692 2.92848 0
M  V30 1695 H 163.649 5.41705 2.83489 0
M  V30 1696 H 167.823 6.40026 2.74481 0
M  V30 1697 H 165.45 7.10895 2.69318 0
M  V30 1698 N 167.025 -1.13721 1.09112 0
M  V30 1699 C 167.935 -2.22638 0.73957 0
M  V30 1700 C 168.951 -1.72091 -0.257068 0
M  V30 1701 O 170.127 -2.01155 -0.0992154 0
M  V30 1702 C 167.192 -3.46322 0.16191 0
M  V30 1703 C 166.253 -4.11775 1.21408 0
M  V30 1704 C 165.486 -5.29555 0.663891 0
M  V30 1705 O 165.709 -5.68077 -0.514274 0
M  V30 1706 O 164.643 -5.84973 1.41738 0
M  V30 1707 H 168.469 -2.55074 1.64836 0
M  V30 1708 H 166.054 -1.21791 0.865289 0
M  V30 1709 H 167.936 -4.21107 -0.157073 0
M  V30 1710 H 166.611 -3.15593 -0.719932 0
M  V30 1711 H 165.518 -3.3883 1.58571 0
M  V30 1712 H 166.851 -4.46627 2.06845 0
M  V30 1713 N 168.503 -0.877838 -1.30888 0
M  V30 1714 C 169.451 -0.328662 -2.30266 0
M  V30 1715 C 170.445 0.560496 -1.59859 0
M  V30 1716 O 171.651 0.445722 -1.74394 0
M  V30 1717 H 168.026 -0.0876142 -0.746879 0
M  V30 1718 H 169.997 -1.18061 -2.74051 0
M  V30 1719 C 168.746 0.448071 -3.44801 0
M  V30 1720 H 168.069 -0.226859 -3.99156 0
M  V30 1721 H 169.509 0.797541 -4.16432 0
M  V30 1722 C 167.968 1.64239 -2.94155 0
M  V30 1723 O 168.498 2.74175 -2.93583 0
M  V30 1724 N 166.704 1.47716 -2.50256 0
M  V30 1725 H 166.251 0.582821 -2.5092 0
M  V30 1726 H 166.209 2.27765 -2.16727 0
M  V30 1727 N 169.982 1.44106 -0.638065 0
M  V30 1728 C 171.212 2.06037 -0.152394 0
M  V30 1729 C 171.62 1.47808 1.18108 0
M  V30 1730 O 170.963 0.598092 1.73691 0
M  V30 1731 C 171.025 3.59488 0.0293714 0
M  V30 1732 C 170.689 4.4022 -1.22702 0
M  V30 1733 C 171.686 4.73256 -2.15232 0
M  V30 1734 C 169.371 4.8048 -1.46437 0
M  V30 1735 C 171.365 5.45444 -3.29802 0
M  V30 1736 C 169.052 5.52417 -2.61303 0
M  V30 1737 C 170.05 5.84819 -3.52811 0
M  V30 1738 O 169.738 6.55289 -4.65673 0
M  V30 1739 H 169.47 0.671233 -0.0801401 0
M  V30 1740 H 172.024 1.85851 -0.874563 0
M  V30 1741 H 170.254 3.78191 0.806758 0
M  V30 1742 H 171.943 4.03164 0.470475 0
M  V30 1743 H 172.709 4.42684 -1.98131 0
M  V30 1744 H 168.588 4.54676 -0.760977 0
M  V30 1745 H 172.132 5.70653 -4.01249 0
M  V30 1746 H 168.029 5.82404 -2.78344 0
M  V30 1747 H 168.797 6.73762 -4.64744 0
M  V30 1748 N 171.46 0.379036 1.52974 0
M  V30 1749 C 172.876 0.0285448 1.59574 0
M  V30 1750 C 173.076 -1.45542 1.39355 0
M  V30 1751 O 172.132 -2.2187 1.20541 0
M  V30 1752 C 173.445 0.496535 2.96572 0
M  V30 1753 C 174.993 0.451909 3.0972 0
M  V30 1754 C 175.468 0.895924 4.49152 0
M  V30 1755 N 176.959 0.851522 4.55306 0
M  V30 1756 C 177.694 1.16661 5.61407 0
M  V30 1757 N 177.19 1.55166 6.752 0
M  V30 1758 N 178.983 1.08853 5.51459 0
M  V30 1759 H 171.134 1.34525 1.64367 0
M  V30 1760 H 173.397 0.550733 0.771619 0
M  V30 1761 H 173.103 1.53258 3.16552 0
M  V30 1762 H 172.977 -0.109802 3.7704 0
M  V30 1763 H 175.364 -0.575029 2.89443 0
M  V30 1764 H 175.445 1.09392 2.3123 0
M  V30 1765 H 175.089 1.92104 4.70168 0
M  V30 1766 H 175.019 0.23103 5.26093 0
M  V30 1767 H 177.51 0.568038 3.73606 0
M  V30 1768 H 177.823 1.776 7.52116 0
M  V30 1769 H 176.168 1.59044 6.76557 0
M  V30 1770 H 179.359 0.786803 4.6144 0
M  V30 1771 H 179.532 1.33742 6.34048 0
M  V30 1772 N 172.938 -1.57226 0.108567 0
M  V30 1773 C 173.885 -2.14756 -0.845481 0
M  V30 1774 C 174.855 -1.06971 -1.27068 0
M  V30 1775 O 176.04 -1.34827 -1.35005 0
M  V30 1776 C 173.18 -2.74298 -2.09415 0
M  V30 1777 C 172.293 -3.96358 -1.71826 0
M  V30 1778 C 171.428 -4.44021 -2.9158 0
M  V30 1779 C 170.467 -5.58637 -2.50181 0
M  V30 1780 N 169.604 -6.01091 -3.62814 0
M  V30 1781 H 174.444 -2.95961 -0.348035 0
M  V30 1782 H 171.981 -1.46226 -0.160106 0
M  V30 1783 H 173.939 -3.06945 -2.82561 0
M  V30 1784 H 172.569 -1.95801 -2.56636 0
M  V30 1785 H 171.621 -3.69939 -0.885947 0
M  V30 1786 H 172.933 -4.79504 -1.37394 0
M  V30 1787 H 172.087 -4.78522 -3.72963 0
M  V30 1788 H 170.826 -3.59803 -3.29231 0
M  V30 1789 H 169.831 -5.23751 -1.67228 0
M  V30 1790 H 171.056 -6.44613 -2.13659 0
M  V30 1791 H 169.002 -5.19817 -4.00158 0
M  V30 1792 H 168.919 -6.79066 -3.32273 0
M  V30 1793 H 170.187 -6.40227 -4.44668 0
M  V30 1794 N 174.416 0.165178 -1.56732 0
M  V30 1795 C 175.662 0.882112 -1.82611 0
M  V30 1796 C 175.995 1.81628 -0.687378 0
M  V30 1797 O 175.27 1.92009 0.310267 0
M  V30 1798 C 175.553 1.67245 -3.18906 0
M  V30 1799 C 175.406 0.760987 -4.43316 0
M  V30 1800 C 176.725 2.63884 -3.52212 0
M  V30 1801 H 173.844 0.319242 -0.664269 0
M  V30 1802 H 176.486 0.148052 -1.89422 0
M  V30 1803 H 174.636 2.29824 -3.1323 0
M  V30 1804 H 176.308 0.147596 -4.61064 0
M  V30 1805 H 174.551 0.0694102 -4.33744 0
M  V30 1806 H 175.222 1.34962 -5.35247 0
M  V30 1807 H 177.698 2.11429 -3.58381 0
M  V30 1808 H 176.574 3.16245 -4.48643 0
M  V30 1809 H 176.835 3.44377 -2.77231 0
M  V30 1810 N 175.894 1.51508 0.433938 0
M  V30 1811 C 176.844 1.69451 1.52546 0
M  V30 1812 C 177.828 0.548474 1.51263 0
M  V30 1813 O 179.02 0.804529 1.57659 0
M  V30 1814 C 176.149 1.82604 2.90707 0
M  V30 1815 C 175.235 3.03002 2.96733 0
M  V30 1816 N 175.626 4.26121 2.72496 0
M  V30 1817 C 173.924 3.02327 3.27894 0
M  V30 1818 C 174.625 5.07407 2.84452 0
M  V30 1819 N 173.601 4.42126 3.16269 0
M  V30 1820 H 177.403 2.62305 1.32564 0
M  V30 1821 H 174.917 1.49202 0.641297 0
M  V30 1822 H 176.914 1.93569 3.69238 0
M  V30 1823 H 175.574 0.909339 3.11707 0
M  V30 1824 H 176.585 4.55009 2.4736 0
M  V30 1825 H 173.262 2.20301 3.54646 0
M  V30 1826 H 174.652 6.15422 2.69639 0
M  V30 1827 N 177.372 -0.689602 1.41712 0
M  V30 1828 C 178.783 -1.26973 1.36875 0
M  V30 1829 C 179.134 -1.96124 0.054748 0
M  V30 1830 O 178.259 -1.99141 -0.84687 0
M  V30 1831 C 178.854 -2.30912 2.47922 0
M  V30 1832 C 177.413 -2.84486 2.46464 0
M  V30 1833 C 176.56 -1.58603 2.27465 0
M  V30 1834 H 179.511 -0.48396 1.51141 0
M  V30 1835 H 179.532 -3.12331 2.17323 0
M  V30 1836 H 179.044 -1.80554 3.43543 0
M  V30 1837 H 177.145 -3.39005 1.54617 0
M  V30 1838 H 177.258 -3.34511 3.42986 0
M  V30 1839 H 175.622 -1.84632 1.75451 0
M  V30 1840 H 176.405 -1.10233 3.25121 0
M  V30 1841 N 178.85 -1.27639 -0.924453 0
M  V30 1842 C 180.08 -1.16819 -1.70402 0
M  V30 1843 C 180.488 0.277191 -1.87158 0
M  V30 1844 O 179.831 1.20025 -1.39067 0
M  V30 1845 C 179.893 -1.78305 -3.12166 0
M  V30 1846 C 179.557 -3.27502 -3.18734 0
M  V30 1847 C 180.554 -4.2409 -3.00738 0
M  V30 1848 C 178.239 -3.68269 -3.4159 0
M  V30 1849 C 180.233 -5.59422 -3.05492 0
M  V30 1850 C 177.92 -5.0373 -3.45977 0
M  V30 1851 C 178.918 -5.99116 -3.27946 0
M  V30 1852 O 178.606 -7.32108 -3.32074 0
M  V30 1853 H 178.338 -0.406931 -0.539799 0
M  V30 1854 H 180.892 -1.69078 -1.16626 0
M  V30 1855 H 179.122 -1.20528 -3.67437 0
M  V30 1856 H 180.811 -1.62154 -3.72103 0
M  V30 1857 H 181.577 -3.93931 -2.82919 0
M  V30 1858 H 177.456 -2.94496 -3.54673 0
M  V30 1859 H 181 -6.33852 -2.91337 0
M  V30 1860 H 176.897 -5.33543 -3.63321 0
M  V30 1861 H 177.665 -7.40598 -3.48507 0
M  V30 1862 N 180.328 1.1314 -1.09713 0
M  V30 1863 C 181.238 2.22242 -0.751367 0
M  V30 1864 C 182.254 1.72224 0.247938 0
M  V30 1865 O 183.43 2.01205 0.0885463 0
M  V30 1866 C 180.495 3.46231 -0.180274 0
M  V30 1867 C 179.556 4.11125 -1.2359 0
M  V30 1868 C 178.789 5.29195 -0.691966 0
M  V30 1869 O 179.012 5.68342 0.48414 0
M  V30 1870 O 177.946 5.84214 -1.44838 0
M  V30 1871 H 181.772 2.54197 -1.66186 0
M  V30 1872 H 179.357 1.21331 -0.871735 0
M  V30 1873 H 181.239 4.21185 0.134739 0
M  V30 1874 H 179.914 3.1597 0.703185 0
M  V30 1875 H 178.821 3.37985 -1.60366 0
M  V30 1876 H 180.154 4.45524 -2.09211 0
M  V30 1877 N 181.806 0.884767 1.30421 0
M  V30 1878 C 183.083 0.423185 1.90967 0
M  V30 1879 C 183.463 -1.09605 1.80416 0
M  V30 1880 O 182.811 -1.93126 1.22125 0
M  V30 1881 C 183.021 0.921056 3.36627 0
M  V30 1882 C 184.369 0.955903 4.137 0
M  V30 1883 O 185.393 0.867706 3.4547 0
M  V30 1884 O 184.252 1.08614 5.35598 0
M  V30 1885 H 181.346 0.129369 0.816819 0
M  V30 1886 H 183.892 0.973653 1.3899 0
M  V30 1887 H 182.664 1.96489 3.3839 0
M  V30 1888 H 182.287 0.349741 3.96059 0
M  V30 1889 N 183.284 -1.43765 0.645699 0
M  V30 1890 C 184.509 -2.06767 0.161883 0
M  V30 1891 C 184.934 -1.48034 -1.16049 0
M  V30 1892 O 184.292 -0.587369 -1.71522 0
M  V30 1893 C 184.34 -3.60519 0.0762003 0
M  V30 1894 O 183.444 -4.00982 -0.963721 0
M  V30 1895 H 182.785 -0.657675 0.091429 0
M  V30 1896 H 185.315 -1.84397 0.886499 0
M  V30 1897 H 185.325 -4.07853 -0.109604 0
M  V30 1898 H 184 -4.02646 1.04157 0
M  V30 1899 H 182.577 -3.65253 -0.751312 0
M  V30 1900 N 184.763 -0.387143 -1.52771 0
M  V30 1901 C 186.04 0.253197 -1.93954 0
M  V30 1902 C 186.42 1.64545 -1.32243 0
M  V30 1903 O 185.768 2.23191 -0.489699 0
M  V30 1904 C 185.978 0.281722 -3.47861 0
M  V30 1905 C 187.326 0.511715 -4.21505 0
M  V30 1906 O 188.35 0.362023 -3.54356 0
M  V30 1907 O 187.209 0.804847 -5.40541 0
M  V30 1908 H 184.303 0.156845 -0.811991 0
M  V30 1909 H 186.849 -0.441494 -1.63856 0
M  V30 1910 H 185.621 -0.693571 -3.85104 0
M  V30 1911 H 185.244 1.02142 -3.84256 0
M  V30 1912 N 186.241 1.57166 -0.116904 0
M  V30 1913 C 187.466 1.999 0.55271 0
M  V30 1914 C 187.891 0.996039 1.59564 0
M  V30 1915 O 187.249 -0.032556 1.81271 0
M  V30 1916 C 187.297 3.4152 1.15742 0
M  V30 1917 O 186.401 3.44106 2.27299 0
M  V30 1918 H 185.742 0.649447 0.138258 0
M  V30 1919 H 188.272 2.03573 -0.204759 0
M  V30 1920 H 188.282 3.79684 1.49346 0
M  V30 1921 H 186.957 4.14034 0.393493 0
M  V30 1922 H 185.534 3.17759 1.9515 0
M  V30 1923 N 187.719 -0.156864 1.56817 0
M  V30 1924 C 188.944 -0.890331 1.87318 0
M  V30 1925 C 189.369 -1.74394 0.704855 0
M  V30 1926 O 188.727 -1.77972 -0.345786 0
M  V30 1927 C 188.775 -1.73102 3.16336 0
M  V30 1928 O 187.879 -2.83422 2.99576 0
M  V30 1929 H 187.22 -0.24857 0.615718 0
M  V30 1930 H 189.75 -0.150649 2.04045 0
M  V30 1931 H 189.76 -2.12803 3.48107 0
M  V30 1932 H 188.435 -1.10412 4.00976 0
M  V30 1933 H 187.012 -2.47199 2.7919 0
M  V30 1934 N 189.197 -1.51736 -0.425897 0
M  V30 1935 C 190.107 -1.76738 -1.54275 0
M  V30 1936 C 191.123 -0.65211 -1.61318 0
M  V30 1937 O 192.299 -0.935654 -1.78346 0
M  V30 1938 C 189.364 -1.89755 -2.90162 0
M  V30 1939 C 188.425 -3.13633 -2.93143 0
M  V30 1940 C 187.658 -3.2602 -4.22548 0
M  V30 1941 O 187.881 -2.44067 -5.15546 0
M  V30 1942 O 186.815 -4.19071 -4.32046 0
M  V30 1943 H 190.641 -2.71502 -1.36089 0
M  V30 1944 H 188.226 -1.36376 -0.610069 0
M  V30 1945 H 190.108 -2.00236 -3.70788 0
M  V30 1946 H 188.783 -0.981785 -3.08452 0
M  V30 1947 H 187.69 -3.08622 -2.11431 0
M  V30 1948 H 189.023 -4.04936 -2.798 0
M  V30 1949 N 190.675 0.682077 -1.42076 0
M  V30 1950 C 191.952 1.43755 -1.32642 0
M  V30 1951 C 192.332 2.11063 0.0396611 0
M  V30 1952 O 191.68 2.02701 1.05474 0
M  V30 1953 C 191.89 2.44596 -2.48946 0
M  V30 1954 C 193.238 3.09454 -2.9073 0
M  V30 1955 O 194.262 2.54922 -2.48783 0
M  V30 1956 O 193.121 4.08253 -3.63307 0
M  V30 1957 H 190.215 0.640857 -0.522715 0
M  V30 1958 H 192.761 0.711415 -1.54068 0
M  V30 1959 H 191.533 1.93609 -3.40046 0
M  V30 1960 H 191.156 3.24701 -2.29467 0
M  V30 1961 N 192.153 1.28127 0.917671 0
M  V30 1962 C 193.063 1.13556 2.05286 0
M  V30 1963 C 194.079 0.0630914 1.73886 0
M  V30 1964 O 195.255 0.271598 1.9956 0
M  V30 1965 C 192.32 0.794676 3.3747 0
M  V30 1966 C 191.381 1.94909 3.82504 0
M  V30 1967 C 190.614 1.62437 5.0838 0
M  V30 1968 O 190.837 0.536905 5.67867 0
M  V30 1969 O 189.771 2.46677 5.4903 0
M  V30 1970 H 193.597 2.08844 2.20495 0
M  V30 1971 H 191.182 1.07409 1.03845 0
M  V30 1972 H 193.064 0.618344 4.16839 0
M  V30 1973 H 191.739 -0.128581 3.23445 0
M  V30 1974 H 190.646 2.18055 3.03978 0
M  V30 1975 H 191.979 2.85291 4.01086 0
M  V30 1976 N 193.631 -1.12557 1.10312 0
M  V30 1977 C 194.877 -1.84311 0.846011 0
M  V30 1978 C 195.21 -1.83805 -0.626859 0
M  V30 1979 O 194.485 -1.28268 -1.46211 0
M  V30 1980 C 194.768 -3.32048 1.39341 0
M  V30 1981 C 194.621 -3.41016 2.93305 0
M  V30 1982 C 195.94 -4.27764 1.03468 0
M  V30 1983 H 193.059 -0.669192 0.30879 0
M  V30 1984 H 195.701 -1.32057 1.36605 0
M  V30 1985 H 193.851 -3.76678 0.951087 0
M  V30 1986 H 195.523 -3.05031 3.46055 0
M  V30 1987 H 193.766 -2.81603 3.29973 0
M  V30 1988 H 194.437 -4.44948 3.26689 0
M  V30 1989 H 196.913 -3.91253 1.41633 0
M  V30 1990 H 195.789 -5.29549 1.44463 0
M  V30 1991 H 196.05 -4.42064 -0.0560404 0
M  V30 1992 N 195.109 -0.891671 -1.2995 0
M  V30 1993 C 196.386 -0.433307 -1.9074 0
M  V30 1994 C 196.766 1.08646 -1.80995 0
M  V30 1995 O 196.114 1.92476 -1.23147 0
M  V30 1996 C 196.324 -0.938895 -3.36134 0
M  V30 1997 C 197.672 -0.977829 -4.13187 0
M  V30 1998 O 198.696 -0.886015 -3.45005 0
M  V30 1999 O 197.555 -1.11453 -5.35015 0
M  V30 2000 H 194.649 -0.133699 -0.816121 0
M  V30 2001 H 197.195 -0.981011 -1.38471 0
M  V30 2002 H 195.967 -1.98281 -3.37343 0
M  V30 2003 H 195.59 -0.37074 -3.95868 0
M  V30 2004 N 196.587 1.43421 -0.653314 0
M  V30 2005 C 197.833 2.02641 -0.175593 0
M  V30 2006 C 198.188 1.5062 1.19713 0
M  V30 2007 O 197.481 0.689697 1.78756 0
M  V30 2008 C 197.675 3.57176 -0.126623 0
M  V30 2009 C 197.504 4.24191 -1.49306 0
M  V30 2010 C 196.274 4.60257 -2.08547 0
M  V30 2011 C 198.472 4.53193 -2.43148 0
M  V30 2012 N 196.454 5.12345 -3.38194 0
M  V30 2013 C 197.825 5.06601 -3.57429 0
M  V30 2014 C 199.88 4.35161 -2.41949 0
M  V30 2015 C 198.583 5.43875 -4.70736 0
M  V30 2016 C 200.609 4.73498 -3.54336 0
M  V30 2017 C 199.971 5.27039 -4.67343 0
M  V30 2018 H 196.07 0.77441 -0.108686 0
M  V30 2019 H 198.654 1.74596 -0.861638 0
M  V30 2020 H 196.825 3.84784 0.528766 0
M  V30 2021 H 198.557 4.03078 0.36198 0
M  V30 2022 H 195.312 4.45302 -1.61255 0
M  V30 2023 H 195.736 5.42842 -4.04538 0
M  V30 2024 H 200.378 3.9304 -1.55818 0
M  V30 2025 H 198.096 5.8494 -5.57558 0
M  V30 2026 H 201.682 4.61241 -3.5461 0
M  V30 2027 H 200.562 5.56153 -5.52868 0
M  V30 2028 N 198.065 0.39524 1.52563 0
M  V30 2029 C 198.997 -0.472201 2.24283 0
M  V30 2030 C 200.01 -1.02178 1.26742 0
M  V30 2031 O 201.199 -0.923097 1.52778 0
M  V30 2032 C 198.299 -1.66775 2.95024 0
M  V30 2033 C 197.472 -1.2445 4.19322 0
M  V30 2034 C 196.531 -2.30539 4.7301 0
M  V30 2035 O 195.557 -1.91702 5.35947 0
M  V30 2036 N 196.759 -3.6253 4.53379 0
M  V30 2037 H 199.524 0.142282 2.99362 0
M  V30 2038 H 197.085 0.2219 1.60372 0
M  V30 2039 H 199.077 -2.37283 3.27839 0
M  V30 2040 H 197.647 -2.18845 2.23217 0
M  V30 2041 H 196.867 -0.368069 3.92478 0
M  V30 2042 H 198.155 -0.938457 5.0007 0
M  V30 2043 H 197.553 -3.96841 4.03154 0
M  V30 2044 H 196.11 -4.29055 4.90668 0
M  V30 2045 N 199.544 -1.57102 0.125237 0
M  V30 2046 C 200.821 -1.86953 -0.575142 0
M  V30 2047 C 201.201 -1.02749 -1.84407 0
M  V30 2048 O 200.549 -0.108144 -2.28244 0
M  V30 2049 C 200.759 -3.38198 -0.861583 0
M  V30 2050 C 202.107 -4.06937 -1.21192 0
M  V30 2051 O 203.131 -3.43252 -0.951645 0
M  V30 2052 O 201.99 -5.19364 -1.70068 0
M  V30 2053 H 199.084 -0.774147 -0.290906 0
M  V30 2054 H 201.63 -1.68942 0.160211 0
M  V30 2055 H 200.402 -3.91282 0.0373647 0
M  V30 2056 H 200.025 -3.61661 -1.65188 0
M  V30 2057 N 201.022 0.148545 -1.56898 0
M  V30 2058 C 202.25 0.876389 -1.87422 0
M  V30 2059 C 202.665 1.74809 -0.713256 0
M  V30 2060 O 202.022 1.79725 0.317025 0
M  V30 2061 C 202.073 1.73438 -3.17178 0
M  V30 2062 O 201.794 0.897809 -4.28802 0
M  V30 2063 C 203.295 2.56993 -3.61205 0
M  V30 2064 H 200.515 0.253489 -0.621277 0
M  V30 2065 H 203.059 0.141798 -2.04008 0
M  V30 2066 H 201.214 2.42205 -3.0235 0
M  V30 2067 H 201.628 1.48672 -5.02988 0
M  V30 2068 H 203.102 3.12773 -4.54838 0
M  V30 2069 H 203.579 3.32958 -2.86419 0
M  V30 2070 H 204.185 1.9352 -3.78722 0
M  V30 2071 N 202.5 1.5196 0.417844 0
M  V30 2072 C 203.916 1.40569 0.755816 0
M  V30 2073 C 204.116 0.503316 1.95113 0
M  V30 2074 O 203.172 -0.0341925 2.52477 0
M  V30 2075 C 204.485 2.82947 1.01791 0
M  V30 2076 C 206.033 2.92231 1.12116 0
M  V30 2077 C 206.508 4.35559 1.41608 0
M  V30 2078 N 207.999 4.38753 1.48491 0
M  V30 2079 C 208.734 5.46705 1.7292 0
M  V30 2080 N 208.23 6.64788 1.95011 0
M  V30 2081 N 210.023 5.34209 1.74863 0
M  V30 2082 H 202.174 2.09168 -0.369098 0
M  V30 2083 H 204.437 0.942409 -0.102809 0
M  V30 2084 H 204.143 3.5106 0.212081 0
M  V30 2085 H 204.017 3.23462 1.94042 0
M  V30 2086 H 206.404 2.24304 1.9176 0
M  V30 2087 H 206.485 2.55185 0.177225 0
M  V30 2088 H 206.129 5.04042 0.624848 0
M  V30 2089 H 206.059 4.70133 2.37239 0
M  V30 2090 H 208.55 3.5363 1.33244 0
M  V30 2091 H 208.863 7.42845 2.13076 0
M  V30 2092 H 207.208 6.67869 1.92293 0
M  V30 2093 H 210.399 4.40937 1.57137 0
M  V30 2094 H 210.572 6.18415 1.93563 0
M  V30 2095 N 203.978 -0.674533 1.42435 0
M  V30 2096 C 205.255 -1.4305 1.33402 0
M  V30 2097 C 205.635 -2.11081 -0.0284674 0
M  V30 2098 O 204.983 -2.03257 -1.04397 0
M  V30 2099 C 205.193 -2.43272 2.50239 0
M  V30 2100 C 206.541 -3.07907 2.92367 0
M  V30 2101 O 207.565 -2.53599 2.50132 0
M  V30 2102 O 206.424 -4.0632 3.65467 0
M  V30 2103 H 203.518 -0.638076 0.526106 0
M  V30 2104 H 206.064 -0.703235 1.54443 0
M  V30 2105 H 204.836 -1.91803 3.41068 0
M  V30 2106 H 204.459 -3.23479 2.31186 0
M  V30 2107 N 205.456 -1.28612 -0.910864 0
M  V30 2108 C 206.733 -1.06632 -1.63979 0
M  V30 2109 C 207.113 0.393351 -2.07403 0
M  V30 2110 O 206.461 1.37999 -1.82122 0
M  V30 2111 C 206.671 -2.0436 -2.8291 0
M  V30 2112 C 208.019 -2.34666 -3.5386 0
M  V30 2113 O 209.043 -2.02467 -2.93062 0
M  V30 2114 O 207.902 -2.89631 -4.63439 0
M  V30 2115 H 204.996 -0.407737 -0.7195 0
M  V30 2116 H 207.542 -1.39942 -0.959914 0
M  V30 2117 H 206.314 -3.02727 -2.47936 0
M  V30 2118 H 205.937 -1.71714 -3.58609 0
M  V30 2119 N 206.934 1.1197 -1.10907 0
M  V30 2120 C 208.345 1.65114 -0.871446 0
M  V30 2121 C 208.696 1.86885 0.597353 0
M  V30 2122 O 207.821 1.59896 1.45816 0
M  V30 2123 C 208.416 2.99944 -1.5754 0
M  V30 2124 C 206.975 3.50018 -1.38435 0
M  V30 2125 C 206.122 2.24941 -1.62164 0
M  V30 2126 H 209.073 0.956851 -1.2661 0
M  V30 2127 H 209.094 3.66651 -1.01721 0
M  V30 2128 H 208.606 2.84067 -2.64438 0
M  V30 2129 H 206.707 3.71071 -0.337214 0
M  V30 2130 H 206.82 4.29165 -2.12965 0
M  V30 2131 H 205.184 2.3229 -1.04467 0
M  V30 2132 H 205.967 2.11612 -2.70324 0
M  V30 2133 N 208.412 0.89855 1.29475 0
M  V30 2134 C 209.642 0.538479 1.99459 0
M  V30 2135 C 210.05 -0.880922 1.67441 0
M  V30 2136 O 209.393 -1.59283 0.915127 0
M  V30 2137 C 209.455 0.649564 3.53583 0
M  V30 2138 C 209.119 2.03573 4.09154 0
M  V30 2139 C 210.116 3.00675 4.24135 0
M  V30 2140 C 207.801 2.3448 4.44212 0
M  V30 2141 C 209.795 4.26809 4.73405 0
M  V30 2142 C 207.482 3.60857 4.93179 0
M  V30 2143 C 208.48 4.56836 5.0773 0
M  V30 2144 O 208.168 5.80969 5.55635 0
M  V30 2145 H 207.9 0.205372 0.644048 0
M  V30 2146 H 210.454 1.20958 1.66007 0
M  V30 2147 H 208.684 -0.0785592 3.8662 0
M  V30 2148 H 210.373 0.29881 4.04799 0
M  V30 2149 H 211.139 2.78112 3.97339 0
M  V30 2150 H 207.018 1.60534 4.32145 0
M  V30 2151 H 210.562 5.0173 4.84678 0
M  V30 2152 H 206.459 3.83251 5.19412 0
M  V30 2153 H 207.227 5.83542 5.73952 0
M  V30 2154 N 209.89 -1.43072 0.660911 0
M  V30 2155 C 211.306 -1.56169 0.329173 0
M  V30 2156 C 211.506 -1.64317 -1.16629 0
M  V30 2157 O 210.562 -1.60245 -1.95135 0
M  V30 2158 C 211.875 -2.81873 1.04729 0
M  V30 2159 C 213.423 -2.95627 1.02828 0
M  V30 2160 C 213.898 -4.24174 1.72744 0
M  V30 2161 N 215.389 -4.31055 1.69545 0
M  V30 2162 C 216.124 -5.29304 2.20511 0
M  V30 2163 N 215.62 -6.33786 2.79799 0
M  V30 2164 N 217.413 -5.21008 2.10966 0
M  V30 2165 H 209.564 -1.36027 1.63127 0
M  V30 2166 H 211.827 -0.653823 0.686454 0
M  V30 2167 H 211.533 -2.81942 2.10242 0
M  V30 2168 H 211.407 -3.72338 0.603702 0
M  V30 2169 H 213.794 -2.95094 -0.0184742 0
M  V30 2170 H 213.875 -2.06431 1.51063 0
M  V30 2171 H 213.519 -4.25467 2.7738 0
M  V30 2172 H 213.449 -5.1228 1.2197 0
M  V30 2173 H 215.94 -3.56174 1.26288 0
M  V30 2174 H 216.253 -7.05086 3.16344 0
M  V30 2175 H 214.598 -6.34387 2.83863 0
M  V30 2176 H 217.789 -4.38301 1.64347 0
M  V30 2177 H 217.962 -5.97416 2.50993 0
M  V30 2178 N 211.368 -0.403325 -1.52352 0
M  V30 2179 C 212.779 0.0675782 -1.86578 0
M  V30 2180 C 213.13 1.44941 -1.32236 0
M  V30 2181 O 212.255 2.06112 -0.659307 0
M  V30 2182 C 212.85 0.129404 -3.38553 0
M  V30 2183 C 211.409 0.544629 -3.72439 0
M  V30 2184 C 210.556 -0.284551 -2.75836 0
M  V30 2185 H 213.507 -0.620631 -1.46061 0
M  V30 2186 H 213.528 0.94581 -3.68558 0
M  V30 2187 H 213.04 -0.87645 -3.78074 0
M  V30 2188 H 211.141 1.55734 -3.38493 0
M  V30 2189 H 211.254 0.293046 -4.78203 0
M  V30 2190 H 209.618 0.252258 -2.53448 0
M  V30 2191 H 210.401 -1.28865 -3.18196 0
M  V30 2192 N 212.846 1.57033 -0.133567 0
M  V30 2193 C 213.809 2.14897 0.796995 0
M  V30 2194 C 214.809 1.0874 1.18458 0
M  V30 2195 O 215.999 1.34446 1.1077 0
M  V30 2196 C 213.131 2.70112 2.07973 0
M  V30 2197 H 214.324 2.98457 0.293873 0
M  V30 2198 H 211.877 1.55871 0.115787 0
M  V30 2199 H 212.612 1.9018 2.62682 0
M  V30 2200 H 212.397 3.47764 1.81115 0
M  V30 2201 H 213.887 3.14738 2.74462 0
M  V30 2202 N 214.325 -0.140222 1.56975 0
M  V30 2203 C 215.272 -1.17292 1.98774 0
M  V30 2204 C 216.242 -1.4232 0.856408 0
M  V30 2205 O 217.427 -1.54541 1.119 0
M  V30 2206 C 214.567 -2.49973 2.37923 0
M  V30 2207 C 213.68 -2.32062 3.64378 0
M  V30 2208 C 212.815 -3.57825 3.926 0
M  V30 2209 C 211.854 -3.3498 5.12303 0
M  V30 2210 N 210.991 -4.52891 5.36502 0
M  V30 2211 H 215.831 -0.809472 2.86795 0
M  V30 2212 H 213.368 -0.388237 1.41884 0
M  V30 2213 H 215.326 -3.27346 2.58652 0
M  V30 2214 H 213.956 -2.84252 1.52972 0
M  V30 2215 H 213.008 -1.45711 3.51387 0
M  V30 2216 H 214.32 -2.11145 4.51906 0
M  V30 2217 H 213.474 -4.43624 4.13863 0
M  V30 2218 H 212.213 -3.81753 3.03506 0
M  V30 2219 H 211.218 -2.4757 4.90906 0
M  V30 2220 H 212.443 -3.12444 6.02956 0
M  V30 2221 H 210.389 -4.76979 4.50363 0
M  V30 2222 H 210.306 -4.35001 6.18312 0
M  V30 2223 H 211.574 -5.39884 5.62268 0
M  V30 2224 N 215.803 -1.52179 -0.40978 0
M  V30 2225 C 217.214 -1.58377 -0.988615 0
M  V30 2226 C 217.565 -0.423879 -1.91566 0
M  V30 2227 O 216.69 0.455844 -2.11544 0
M  V30 2228 C 217.285 -2.87044 -1.79976 0
M  V30 2229 C 215.844 -2.95722 -2.32863 0
M  V30 2230 C 214.991 -2.53309 -1.12828 0
M  V30 2231 H 217.942 -1.57558 -0.190039 0
M  V30 2232 H 217.963 -2.7236 -2.65707 0
M  V30 2233 H 217.475 -3.71444 -1.12478 0
M  V30 2234 H 215.576 -2.15814 -3.03735 0
M  V30 2235 H 215.689 -3.99951 -2.63773 0
M  V30 2236 H 214.053 -2.07142 -1.48204 0
M  V30 2237 H 214.836 -3.40082 -0.46897 0
M  V30 2238 N 217.281 0.66697 -1.42791 0
M  V30 2239 C 218.527 1.4291 -1.43891 0
M  V30 2240 C 218.86 1.94114 -0.0578972 0
M  V30 2241 O 218.135 1.71414 0.91911 0
M  V30 2242 C 218.418 2.62049 -2.46987 0
M  V30 2243 C 218.271 2.16426 -3.94309 0
M  V30 2244 C 219.59 3.64266 -2.46978 0
M  V30 2245 H 216.709 0.518306 -0.523954 0
M  V30 2246 H 219.351 0.757321 -1.74255 0
M  V30 2247 H 217.501 3.19361 -2.21225 0
M  V30 2248 H 219.173 1.64221 -4.31079 0
M  V30 2249 H 217.416 1.47925 -4.078 0
M  V30 2250 H 218.087 3.02038 -4.62036 0
M  V30 2251 H 220.563 3.16686 -2.69906 0
M  V30 2252 H 219.439 4.45196 -3.21079 0
M  V30 2253 H 219.7 4.15927 -1.49857 0
M  V30 2254 N 218.759 1.29093 0.90403 0
M  V30 2255 C 220.17 1.15186 1.46932 0
M  V30 2256 C 220.521 -0.254587 1.94541 0
M  V30 2257 O 219.646 -1.14972 1.83332 0
M  V30 2258 C 220.241 2.08492 2.67051 0
M  V30 2259 C 218.8 1.98621 3.19729 0
M  V30 2260 C 217.947 1.9967 1.92425 0
M  V30 2261 H 220.898 1.41641 0.715789 0
M  V30 2262 H 220.919 1.65461 3.42641 0
M  V30 2263 H 220.431 3.10847 2.3237 0
M  V30 2264 H 218.532 0.993389 3.59114 0
M  V30 2265 H 218.645 2.86068 3.8432 0
M  V30 2266 H 217.009 1.44208 2.09943 0
M  V30 2267 H 217.792 3.03721 1.60026 0
M  V30 2268 N 220.237 -1.11381 1.11499 0
M  V30 2269 C 221.465 -1.86934 0.88675 0
M  V30 2270 C 221.88 -1.80195 -0.563476 0
M  V30 2271 O 221.237 -1.18367 -1.38908 0
M  V30 2272 C 221.288 -3.35722 1.34064 0
M  V30 2273 O 221.009 -3.4232 2.73401 0
M  V30 2274 C 222.51 -4.2818 1.14791 0
M  V30 2275 H 219.73 -0.591117 0.317523 0
M  V30 2276 H 222.274 -1.40865 1.48248 0
M  V30 2277 H 220.429 -3.79294 0.788355 0
M  V30 2278 H 220.843 -4.34971 2.93087 0
M  V30 2279 H 222.317 -5.30817 1.5145 0
M  V30 2280 H 222.794 -4.39113 0.0875279 0
M  V30 2281 H 223.4 -3.90402 1.68721 0
M  V30 2282 N 221.715 -0.905404 -1.28997 0
M  V30 2283 C 223.126 -0.581953 -1.77398 0
M  V30 2284 C 223.477 0.902552 -1.74208 0
M  V30 2285 O 222.602 1.70584 -1.33154 0
M  V30 2286 C 223.197 -1.04961 -3.22131 0
M  V30 2287 C 221.756 -0.777229 -3.68288 0
M  V30 2288 C 220.903 -1.22109 -2.48967 0
M  V30 2289 H 223.854 -1.08754 -1.15578 0
M  V30 2290 H 223.875 -0.387387 -3.78523 0
M  V30 2291 H 223.387 -2.13008 -3.24421 0
M  V30 2292 H 221.488 0.290383 -3.71467 0
M  V30 2293 H 221.601 -1.37911 -4.58822 0
M  V30 2294 H 219.965 -0.639971 -2.46529 0
M  V30 2295 H 220.748 -2.30972 -2.53982 0
M  V30 2296 N 223.193 1.4272 -0.668489 0
M  V30 2297 C 224.14 2.30796 0.0137489 0
M  V30 2298 C 225.11 1.4561 0.799177 0
M  V30 2299 O 226.295 1.74453 0.772702 0
M  V30 2300 C 223.435 3.31377 0.963507 0
M  V30 2301 C 222.548 4.31655 0.172569 0
M  V30 2302 C 221.683 5.19312 1.1175 0
M  V30 2303 C 220.722 6.11274 0.317886 0
M  V30 2304 N 219.859 6.91504 1.2152 0
M  V30 2305 H 224.699 2.88585 -0.743161 0
M  V30 2306 H 222.236 1.42154 -0.378226 0
M  V30 2307 H 224.194 3.88214 1.52792 0
M  V30 2308 H 222.824 2.75202 1.68712 0
M  V30 2309 H 221.876 3.76988 -0.508374 0
M  V30 2310 H 223.188 4.96779 -0.448527 0
M  V30 2311 H 222.342 5.80851 1.75206 0
M  V30 2312 H 221.081 4.5435 1.77249 0
M  V30 2313 H 220.086 5.48809 -0.329918 0
M  V30 2314 H 221.311 6.78283 -0.332917 0
M  V30 2315 H 219.257 6.29176 1.85671 0
M  V30 2316 H 219.174 7.53209 0.649036 0
M  V30 2317 H 220.442 7.57535 1.83742 0
M  V30 2318 N 224.671 0.411399 1.52136 0
M  V30 2319 C 225.618 -0.412975 2.27075 0
M  V30 2320 C 226.588 -1.03912 1.29582 0
M  V30 2321 O 227.773 -1.06296 1.58448 0
M  V30 2322 C 224.913 -1.52247 3.09701 0
M  V30 2323 C 224.026 -0.917021 4.22155 0
M  V30 2324 C 223.161 -1.9994 4.92135 0
M  V30 2325 C 222.2 -1.37101 5.96548 0
M  V30 2326 N 221.337 -2.39364 6.60038 0
M  V30 2327 H 226.177 0.232499 2.97092 0
M  V30 2328 H 223.714 0.126496 1.46555 0
M  V30 2329 H 225.672 -2.17674 3.55913 0
M  V30 2330 H 224.302 -2.13794 2.41851 0
M  V30 2331 H 223.354 -0.151742 3.80097 0
M  V30 2332 H 224.666 -0.418006 4.97045 0
M  V30 2333 H 223.82 -2.73088 5.41763 0
M  V30 2334 H 222.559 -2.53208 4.16818 0
M  V30 2335 H 221.564 -0.624873 5.46237 0
M  V30 2336 H 222.789 -0.845998 6.7381 0
M  V30 2337 H 220.735 -2.91759 5.87548 0
M  V30 2338 H 220.652 -1.9428 7.3061 0
M  V30 2339 H 221.92 -3.12074 7.14304 0
M  V30 2340 N 226.149 -1.5696 0.141893 0
M  V30 2341 C 227.397 -1.95573 -0.509484 0
M  V30 2342 C 227.718 -1.02746 -1.65736 0
M  V30 2343 O 226.988 -0.0880311 -1.95702 0
M  V30 2344 H 225.568 -0.722115 -0.191205 0
M  V30 2345 H 228.23 -1.93697 0.216196 0
M  V30 2346 H 227.326 -2.99171 -0.889 0
M  V30 2347 N 227.627 0.131896 -1.57047 0
M  V30 2348 C 228.874 0.841932 -1.84168 0
M  V30 2349 C 229.202 1.8048 -0.725066 0
M  V30 2350 O 228.457 1.93618 0.284692 0
M  V30 2351 C 228.756 1.63703 -3.17704 0
M  V30 2352 C 228.422 0.81961 -4.43388 0
M  V30 2353 C 227.084 0.594148 -4.77518 0
M  V30 2354 C 229.436 0.248977 -5.20605 0
M  V30 2355 C 226.764 -0.212409 -5.86315 0
M  V30 2356 C 229.116 -0.544701 -6.30251 0
M  V30 2357 C 227.78 -0.780599 -6.6292 0
M  V30 2358 H 227.05 0.308085 -0.673917 0
M  V30 2359 H 229.697 0.104867 -1.91213 0
M  V30 2360 H 228.002 2.44464 -3.06177 0
M  V30 2361 H 229.699 2.19015 -3.35907 0
M  V30 2362 H 226.289 1.00542 -4.16641 0
M  V30 2363 H 230.473 0.410408 -4.946 0
M  V30 2364 H 225.729 -0.404524 -6.1006 0
M  V30 2365 H 229.903 -0.993922 -6.89271 0
M  V30 2366 H 227.53 -1.40742 -7.47058 0
M  V30 2367 N 229.106 1.52395 0.401703 0
M  V30 2368 C 230.355 1.66044 1.14509 0
M  V30 2369 C 230.668 0.400216 1.91462 0
M  V30 2370 O 231.874 0.416632 2.68284 0
M  V30 2371 C 230.33 2.93388 2.0845 0
M  V30 2372 C 229.938 4.26545 1.36978 0
M  V30 2373 C 231.682 3.16402 2.83001 0
M  V30 2374 C 229.589 5.45007 2.29611 0
M  V30 2375 H 228.519 0.618562 0.431158 0
M  V30 2376 H 231.17 1.78886 0.40892 0
M  V30 2377 H 229.552 2.74263 2.8565 0
M  V30 2378 H 230.726 4.56179 0.650916 0
M  V30 2379 H 229.041 4.09692 0.74438 0
M  V30 2380 H 231.638 4.02085 3.52465 0
M  V30 2381 H 231.981 2.30943 3.46368 0
M  V30 2382 H 232.514 3.36034 2.12898 0
M  V30 2383 H 229.253 6.32835 1.70879 0
M  V30 2384 H 228.773 5.19702 2.9945 0
M  V30 2385 H 230.452 5.7838 2.89974 0
M  V30 2386 N 230.584 -0.659388 1.43143 0
M  V30 2387 C 231.832 -1.41654 1.44147 0
M  V30 2388 C 232.153 -1.94893 0.0645739 0
M  V30 2389 O 231.423 -1.74044 -0.899198 0
M  V30 2390 H 230.003 -0.525708 0.530697 0
M  V30 2391 H 232.665 -0.778097 1.78694 0
M  V30 2392 H 231.761 -2.26195 2.1504 0
M  V30 2393 N 232.062 -1.29571 -0.897171 0
M  V30 2394 C 233.009 -1.14916 -2.00158 0
M  V30 2395 C 233.979 -0.0418149 -1.66047 0
M  V30 2396 O 235.164 -0.209793 -1.89643 0
M  V30 2397 C 232.304 -0.834307 -3.34863 0
M  V30 2398 C 231.417 -2.02234 -3.8174 0
M  V30 2399 C 230.552 -1.64664 -5.05034 0
M  V30 2400 C 229.591 -2.80033 -5.44286 0
M  V30 2401 N 228.728 -2.42843 -6.58765 0
M  V30 2402 H 233.568 -2.09403 -2.12025 0
M  V30 2403 H 231.105 -1.042 -1.0383 0
M  V30 2404 H 233.063 -0.632436 -4.12379 0
M  V30 2405 H 231.693 0.0736656 -3.22716 0
M  V30 2406 H 230.745 -2.33583 -3.00238 0
M  V30 2407 H 232.057 -2.88673 -4.06779 0
M  V30 2408 H 231.211 -1.4078 -5.9014 0
M  V30 2409 H 229.95 -0.753766 -4.8184 0
M  V30 2410 H 228.955 -3.04596 -4.57713 0
M  V30 2411 H 230.18 -3.69989 -5.6946 0
M  V30 2412 H 228.126 -1.56046 -6.3717 0
M  V30 2413 H 228.043 -3.22815 -6.83613 0
M  V30 2414 H 229.311 -2.22285 -7.47134 0
M  V30 2415 N 233.54 1.10788 -1.12088 0
M  V30 2416 C 234.788 1.8231 -0.872205 0
M  V30 2417 C 235.109 1.85419 0.603709 0
M  V30 2418 O 234.379 1.32963 1.43867 0
M  V30 2419 H 232.959 0.675137 -0.319686 0
M  V30 2420 H 235.621 1.34068 -1.41463 0
M  V30 2421 H 234.717 2.85955 -1.25045 0
M  V30 2422 N 235.018 0.912232 1.28515 0
M  V30 2423 C 235.965 0.397954 2.27343 0
M  V30 2424 C 236.935 -0.526766 1.57526 0
M  V30 2425 O 238.12 -0.449292 1.85435 0
M  V30 2426 C 235.26 -0.357263 3.43246 0
M  V30 2427 C 234.373 0.599788 4.27816 0
M  V30 2428 C 233.508 -0.173725 5.30916 0
M  V30 2429 C 232.547 0.777039 6.07148 0
M  V30 2430 N 231.684 0.0371398 7.0209 0
M  V30 2431 H 236.524 1.24577 2.70711 0
M  V30 2432 H 234.061 0.625612 1.33133 0
M  V30 2433 H 236.019 -0.8113 4.09236 0
M  V30 2434 H 234.649 -1.16943 3.00872 0
M  V30 2435 H 233.701 1.17235 3.61884 0
M  V30 2436 H 235.013 1.32704 4.80823 0
M  V30 2437 H 234.167 -0.688394 6.02782 0
M  V30 2438 H 232.906 -0.934041 4.78672 0
M  V30 2439 H 231.911 1.3031 5.34134 0
M  V30 2440 H 233.136 1.53689 6.61481 0
M  V30 2441 H 231.082 -0.705213 6.52198 0
M  V30 2442 H 230.999 0.704249 7.52713 0
M  V30 2443 H 232.267 -0.457383 7.78157 0
M  V30 2444 N 236.496 -1.42363 0.676048 0
M  V30 2445 C 237.773 -1.95183 0.127726 0
M  V30 2446 C 238.153 -1.61641 -1.35777 0
M  V30 2447 O 237.501 -0.913216 -2.09458 0
M  V30 2448 C 237.711 -3.46721 0.398199 0
M  V30 2449 C 239.059 -4.23427 0.315383 0
M  V30 2450 O 240.083 -3.54649 0.332016 0
M  V30 2451 O 238.942 -5.45888 0.25865 0
M  V30 2452 H 236.036 -0.826992 0.00359427 0
M  V30 2453 H 238.582 -1.52184 0.750864 0
M  V30 2454 H 237.354 -3.64344 1.4272 0
M  V30 2455 H 236.977 -3.96769 -0.256885 0
M  V30 2456 N 237.974 -0.419461 -1.51915 0
M  V30 2457 C 239.223 0.154346 -2.01109 0
M  V30 2458 C 239.536 1.45338 -1.30905 0
M  V30 2459 O 240.742 2.10906 -1.7097 0
M  V30 2460 C 239.198 0.325615 -3.58424 0
M  V30 2461 C 238.806 -0.961934 -4.37551 0
M  V30 2462 C 240.55 0.854155 -4.15818 0
M  V30 2463 C 238.457 -0.757287 -5.86531 0
M  V30 2464 H 237.387 0.0614563 -0.751491 0
M  V30 2465 H 240.038 -0.54649 -1.75173 0
M  V30 2466 H 238.42 1.08903 -3.80731 0
M  V30 2467 H 239.594 -1.7323 -4.26999 0
M  V30 2468 H 237.909 -1.41766 -3.91524 0
M  V30 2469 H 240.506 1.02346 -5.24814 0
M  V30 2470 H 240.849 1.83172 -3.73837 0
M  V30 2471 H 241.382 0.149528 -3.97519 0
M  V30 2472 H 238.121 -1.70671 -6.32892 0
M  V30 2473 H 237.641 -0.0264061 -5.99794 0
M  V30 2474 H 239.32 -0.403482 -6.45741 0
M  V30 2475 N 239.452 1.56882 -0.150215 0
M  V30 2476 C 240.68 2.00593 0.506948 0
M  V30 2477 C 241.095 1.03033 1.58208 0
M  V30 2478 O 240.452 0.0278396 1.82479 0
M  V30 2479 C 240.503 3.44209 1.10465 0
M  V30 2480 O 240.224 4.3804 0.0724636 0
M  V30 2481 C 241.725 4.03214 1.84211 0
M  V30 2482 H 238.945 0.65795 0.13169 0
M  V30 2483 H 241.489 2.03018 -0.245743 0
M  V30 2484 H 239.644 3.42625 1.80795 0
M  V30 2485 H 240.058 5.22007 0.510793 0
M  V30 2486 H 241.532 5.0569 2.21318 0
M  V30 2487 H 242.009 3.44107 2.72923 0
M  V30 2488 H 242.615 4.08437 1.18572 0
M  V30 2489 N 240.93 -0.123565 1.57115 0
M  V30 2490 C 242.158 -0.846461 1.88793 0
M  V30 2491 C 242.573 -1.73652 0.740976 0
M  V30 2492 O 241.93 -1.80207 -0.288393 0
M  V30 2493 C 241.981 -1.6837 3.19897 0
M  V30 2494 O 241.702 -0.829477 4.30176 0
M  V30 2495 C 243.203 -2.51214 3.65248 0
M  V30 2496 H 240.423 -0.243573 0.625231 0
M  V30 2497 H 242.967 -0.109324 2.04208 0
M  V30 2498 H 241.122 -2.37364 3.06165 0
M  V30 2499 H 241.536 -1.40651 5.0529 0
M  V30 2500 H 243.01 -3.05497 4.59756 0
M  V30 2501 H 243.487 -3.28359 2.9168 0
M  V30 2502 H 244.093 -1.8747 3.81752 0
M  V30 2503 N 242.408 -1.52605 -0.393616 0
M  V30 2504 C 243.355 -1.77055 -1.48054 0
M  V30 2505 C 244.325 -0.61358 -1.54352 0
M  V30 2506 O 245.51 -0.852806 -1.70681 0
M  V30 2507 C 242.65 -1.94108 -2.85335 0
M  V30 2508 C 241.763 -3.21792 -2.88226 0
M  V30 2509 C 240.898 -3.29188 -4.16904 0
M  V30 2510 C 239.937 -4.51013 -4.13828 0
M  V30 2511 N 239.074 -4.55716 -5.34105 0
M  V30 2512 H 243.914 -2.69815 -1.26506 0
M  V30 2513 H 241.451 -1.33683 -0.61379 0
M  V30 2514 H 243.409 -2.01979 -3.65049 0
M  V30 2515 H 242.039 -1.04713 -3.05344 0
M  V30 2516 H 241.091 -3.23015 -2.00911 0
M  V30 2517 H 242.403 -4.11557 -2.8182 0
M  V30 2518 H 241.557 -3.36216 -5.05018 0
M  V30 2519 H 240.296 -2.37389 -4.26026 0
M  V30 2520 H 239.301 -4.44115 -3.24102 0
M  V30 2521 H 240.526 -5.44123 -4.06333 0
M  V30 2522 H 238.472 -3.66807 -5.43865 0
M  V30 2523 H 238.389 -5.39346 -5.29756 0
M  V30 2524 H 239.657 -4.66993 -6.2413 0
M  V30 2525 N 243.887 0.651787 -1.4349 0
M  V30 2526 C 244.837 1.75783 -1.45205 0
M  V30 2527 C 245.821 1.57679 -0.320328 0
M  V30 2528 O 247.013 1.67767 -0.564211 0
M  V30 2529 C 244.142 3.14377 -1.3792 0
M  V30 2530 C 243.228 3.38023 -2.56127 0
M  V30 2531 N 243.619 3.32135 -3.81471 0
M  V30 2532 C 241.917 3.68747 -2.50882 0
M  V30 2533 C 242.618 3.55902 -4.60118 0
M  V30 2534 N 241.594 3.77783 -3.90872 0
M  V30 2535 H 245.396 1.69657 -2.39987 0
M  V30 2536 H 242.91 0.853508 -1.38163 0
M  V30 2537 H 244.907 3.93666 -1.37231 0
M  V30 2538 H 243.567 3.21683 -0.441596 0
M  V30 2539 H 244.578 3.11515 -4.13738 0
M  V30 2540 H 241.255 3.8316 -1.65816 0
M  V30 2541 H 242.645 3.57116 -5.69138 0
M  V30 2542 N 245.365 1.30045 0.890287 0
M  V30 2543 C 246.642 1.09227 1.62262 0
M  V30 2544 C 247.022 -0.360305 2.08002 0
M  V30 2545 O 246.37 -1.35084 1.84295 0
M  V30 2546 C 246.58 2.08835 2.79623 0
M  V30 2547 C 247.928 2.40266 3.50082 0
M  V30 2548 O 248.952 2.07104 2.89804 0
M  V30 2549 O 247.811 2.96967 4.58773 0
M  V30 2550 H 244.905 0.419132 0.712922 0
M  V30 2551 H 247.451 1.41451 0.937529 0
M  V30 2552 H 246.223 3.06633 2.43089 0
M  V30 2553 H 245.846 1.77397 3.55832 0
M  V30 2554 N 246.843 -1.10192 1.12674 0
M  V30 2555 C 247.753 -2.20172 0.810026 0
M  V30 2556 C 248.769 -1.72821 -0.202188 0
M  V30 2557 O 249.945 -2.01369 -0.0351691 0
M  V30 2558 C 247.01 -3.45631 0.272007 0
M  V30 2559 C 246.071 -4.07704 1.34447 0
M  V30 2560 C 245.304 -5.27175 0.832029 0
M  V30 2561 O 245.527 -5.69425 -0.333284 0
M  V30 2562 O 244.461 -5.80168 1.60277 0
M  V30 2563 H 248.287 -2.49701 1.72867 0
M  V30 2564 H 245.872 -1.18977 0.903597 0
M  V30 2565 H 247.754 -4.21394 -0.0230219 0
M  V30 2566 H 246.429 -3.17723 -0.619164 0
M  V30 2567 H 245.336 -3.33614 1.6927 0
M  V30 2568 H 246.669 -4.3982 2.2095 0
M  V30 2569 N 248.321 -0.919034 -1.28029 0
M  V30 2570 C 249.567 -0.555757 -1.95036 0
M  V30 2571 C 249.9 0.899198 -1.72128 0
M  V30 2572 O 249.175 1.64023 -1.04531 0
M  V30 2573 C 249.458 -0.872024 -3.49382 0
M  V30 2574 C 249.311 -2.3801 -3.81669 0
M  V30 2575 C 250.63 -0.37185 -4.38526 0
M  V30 2576 H 247.749 -0.203386 -0.708381 0
M  V30 2577 H 250.391 -1.14924 -1.51303 0
M  V30 2578 H 248.541 -0.366946 -3.86763 0
M  V30 2579 H 250.213 -2.9562 -3.54128 0
M  V30 2580 H 248.456 -2.83289 -3.28526 0
M  V30 2581 H 249.127 -2.55192 -4.8947 0
M  V30 2582 H 251.603 -0.804602 -4.08247 0
M  V30 2583 H 250.479 -0.622173 -5.45362 0
M  V30 2584 H 250.74 0.727934 -4.36066 0
M  V30 2585 N 249.799 1.42003 -0.683588 0
M  V30 2586 C 251.045 2.01712 -0.209825 0
M  V30 2587 C 251.378 1.53968 1.18353 0
M  V30 2588 O 250.653 0.745661 1.79639 0
M  V30 2589 C 250.936 3.59202 -0.254197 0
M  V30 2590 C 250.789 4.17102 -1.68363 0
M  V30 2591 C 252.108 4.38344 0.392709 0
M  V30 2592 H 249.227 0.732891 -0.0777189 0
M  V30 2593 H 251.869 1.68909 -0.87004 0
M  V30 2594 H 250.019 3.87278 0.307954 0
M  V30 2595 H 251.691 3.99946 -2.29871 0
M  V30 2596 H 249.934 3.72597 -2.22157 0
M  V30 2597 H 250.605 5.26249 -1.6663 0
M  V30 2598 H 253.081 4.16011 -0.0859162 0
M  V30 2599 H 251.957 5.47901 0.331063 0
M  V30 2600 H 252.218 4.16887 1.47164 0
M  V30 2601 N 251.277 0.427512 1.51691 0
M  V30 2602 C 252.517 -0.141524 2.03909 0
M  V30 2603 C 252.881 -1.40811 1.30523 0
M  V30 2604 O 254.082 -2.05676 1.73063 0
M  V30 2605 C 252.353 -0.364962 3.55532 0
M  V30 2606 S 253.912 -0.898812 4.29496 0
M  V30 2607 H 250.73 -0.0364542 0.710065 0
M  V30 2608 H 253.332 0.584659 1.86553 0
M  V30 2609 H 252.036 0.56336 4.06515 0
M  V30 2610 H 251.567 -1.1185 3.77164 0
M  V30 2611 H 253.582 -2.17747 4.45871 0
M  V30 2612 N 252.755 -1.56801 0.158532 0
M  V30 2613 C 254.003 -1.96102 -0.488712 0
M  V30 2614 C 254.324 -1.04498 -1.64636 0
M  V30 2615 O 253.594 -0.108783 -1.95598 0
M  V30 2616 H 252.174 -0.724102 -0.183535 0
M  V30 2617 H 254.836 -1.93457 0.236728 0
M  V30 2618 H 253.932 -3.00097 -0.857219 0
M  V30 2619 N 254.233 0.115231 -1.57178 0
M  V30 2620 C 255.649 0.468877 -1.52557 0
M  V30 2621 C 255.849 1.81649 -0.872125 0
M  V30 2622 O 254.905 2.48347 -0.45606 0
M  V30 2623 C 256.218 0.4499 -2.97315 0
M  V30 2624 C 257.766 0.533185 -3.08425 0
M  V30 2625 C 258.241 0.54456 -4.54751 0
M  V30 2626 N 259.732 0.605892 -4.5922 0
M  V30 2627 C 260.467 0.636203 -5.6986 0
M  V30 2628 N 259.963 0.623931 -6.89985 0
M  V30 2629 N 261.756 0.679496 -5.57978 0
M  V30 2630 H 253.907 -0.767712 -1.9804 0
M  V30 2631 H 256.17 -0.283609 -0.904583 0
M  V30 2632 H 255.876 -0.472721 -3.48509 0
M  V30 2633 H 255.75 1.27632 -3.5495 0
M  V30 2634 H 258.137 1.44623 -2.57232 0
M  V30 2635 H 258.218 -0.320995 -2.53778 0
M  V30 2636 H 257.862 -0.364452 -5.06591 0
M  V30 2637 H 257.792 1.41568 -5.07214 0
M  V30 2638 H 260.283 0.621386 -3.72756 0
M  V30 2639 H 260.596 0.649787 -7.70063 0
M  V30 2640 H 258.941 0.591296 -6.9248 0
M  V30 2641 H 262.132 0.686472 -4.63039 0
M  V30 2642 H 262.305 0.69965 -6.44212 0
M  V30 2643 N 255.711 1.52812 0.385517 0
M  V30 2644 C 256.658 1.77838 1.47113 0
M  V30 2645 C 257.628 0.621757 1.54024 0
M  V30 2646 O 258.813 0.861846 1.70226 0
M  V30 2647 C 255.953 1.95618 2.84302 0
M  V30 2648 C 255.066 3.23316 2.86515 0
M  V30 2649 C 254.201 3.31394 4.15152 0
M  V30 2650 C 253.24 4.53201 4.1143 0
M  V30 2651 N 252.377 4.58542 5.3168 0
M  V30 2652 H 257.217 2.70482 1.25073 0
M  V30 2653 H 254.754 1.34006 0.606692 0
M  V30 2654 H 256.712 2.03912 3.63972 0
M  V30 2655 H 255.342 1.06331 3.04784 0
M  V30 2656 H 254.394 3.24076 1.99195 0
M  V30 2657 H 255.706 4.13045 2.79634 0
M  V30 2658 H 254.86 3.3889 5.03228 0
M  V30 2659 H 253.599 2.39645 4.24761 0
M  V30 2660 H 252.604 4.45827 3.21742 0
M  V30 2661 H 253.829 5.46271 4.03442 0
M  V30 2662 H 251.775 3.69686 5.41912 0
M  V30 2663 H 251.692 5.42148 5.26889 0
M  V30 2664 H 252.96 4.70296 6.21644 0
M  V30 2665 N 257.189 -0.644168 1.43834 0
M  V30 2666 C 258.137 -1.77793 1.49974 0
M  V30 2667 C 259.131 -1.65253 0.372536 0
M  V30 2668 O 260.337 -1.7149 0.546924 0
M  V30 2669 H 256.712 -0.58675 0.47035 0
M  V30 2670 H 258.683 -1.69736 2.45423 0
M  V30 2671 C 257.432 -3.16087 1.4486 0
M  V30 2672 H 256.755 -3.26378 2.30905 0
M  V30 2673 H 258.195 -3.95349 1.53217 0
M  V30 2674 C 256.654 -3.36484 0.167463 0
M  V30 2675 O 257.184 -3.94298 -0.767609 0
M  V30 2676 N 255.39 -2.90504 0.0747556 0
M  V30 2677 H 254.937 -2.4364 0.836507 0
M  V30 2678 H 254.895 -3.04527 -0.781714 0
M  V30 2679 N 258.668 -1.30515 -0.883378 0
M  V30 2680 C 259.896 -1.22359 -1.66841 0
M  V30 2681 C 260.311 0.213296 -1.87591 0
M  V30 2682 O 259.668 1.14075 -1.42454 0
M  V30 2683 C 259.719 -1.95011 -3.04389 0
M  V30 2684 O 259.44 -3.3309 -2.84575 0
M  V30 2685 C 260.941 -1.93532 -3.98824 0
M  V30 2686 H 258.161 -0.423371 -0.520575 0
M  V30 2687 H 260.705 -1.72167 -1.10357 0
M  V30 2688 H 258.86 -1.48997 -3.57601 0
M  V30 2689 H 259.274 -3.69907 -3.71846 0
M  V30 2690 H 260.748 -2.48902 -4.92699 0
M  V30 2691 H 261.225 -0.914627 -4.29571 0
M  V30 2692 H 261.831 -2.39364 -3.51547 0
M  V30 2693 N 260.146 1.09593 -1.13257 0
M  V30 2694 C 261.109 2.14359 -0.811358 0
M  V30 2695 C 262.109 1.59808 0.178377 0
M  V30 2696 O 263.299 1.74132 -0.0484911 0
M  V30 2697 C 260.431 3.40269 -0.207276 0
M  V30 2698 H 261.624 2.44284 -1.73969 0
M  V30 2699 H 259.177 1.25102 -0.936973 0
M  V30 2700 H 259.912 3.15969 0.73036 0
M  V30 2701 H 259.697 3.81154 -0.919992 0
M  V30 2702 H 261.187 4.176 0.000667944 0
M  V30 2703 N 261.624 0.925811 1.2754 0
M  V30 2704 C 263.04 0.625767 1.46821 0
M  V30 2705 C 263.24 -0.825506 1.83814 0
M  V30 2706 O 262.296 -1.60356 1.95044 0
M  V30 2707 C 263.609 1.57402 2.56213 0
M  V30 2708 C 265.157 1.58204 2.70075 0
M  V30 2709 C 265.632 2.51721 3.82623 0
M  V30 2710 N 267.123 2.49917 3.89994 0
M  V30 2711 C 267.858 3.18968 4.76494 0
M  V30 2712 N 267.354 3.97391 5.67496 0
M  V30 2713 N 269.147 3.07996 4.70208 0
M  V30 2714 H 261.298 1.86409 1.01811 0
M  V30 2715 H 263.561 0.800213 0.508295 0
M  V30 2716 H 263.267 2.60925 2.35819 0
M  V30 2717 H 263.141 1.31428 3.53563 0
M  V30 2718 H 265.528 0.554124 2.89851 0
M  V30 2719 H 265.609 1.88226 1.73218 0
M  V30 2720 H 265.253 3.54622 3.63601 0
M  V30 2721 H 265.183 2.18996 4.78903 0
M  V30 2722 H 267.674 1.9296 3.24923 0
M  V30 2723 H 267.987 4.4707 6.30356 0
M  V30 2724 H 266.332 4.01495 5.67298 0
M  V30 2725 H 269.523 2.46223 3.9811 0
M  V30 2726 H 269.696 3.6208 5.37403 0
M  V30 2727 N 263.102 -1.41638 0.69111 0
M  V30 2728 C 264.035 -2.28183 -0.0274913 0
M  V30 2729 C 265.013 -1.41984 -0.792424 0
M  V30 2730 O 266.197 -1.71415 -0.784169 0
M  V30 2731 C 263.324 -3.22135 -1.04628 0
M  V30 2732 C 262.37 -4.24848 -0.375037 0
M  V30 2733 S 263.203 -5.28231 0.879321 0
M  V30 2734 C 264.359 -6.25748 -0.137983 0
M  V30 2735 H 264.592 -2.88782 0.706553 0
M  V30 2736 H 262.125 -1.46709 0.481222 0
M  V30 2737 H 264.083 -3.76797 -1.62894 0
M  V30 2738 H 262.744 -2.6064 -1.75287 0
M  V30 2739 H 261.937 -4.90837 -1.14433 0
M  V30 2740 H 261.539 -3.73758 0.134434 0
M  V30 2741 H 263.831 -6.70188 -0.992659 0
M  V30 2742 H 264.774 -7.06417 0.487867 0
M  V30 2743 H 265.182 -5.62363 -0.490762 0
M  V30 2744 N 264.58 -0.43555 -1.51462 0
M  V30 2745 C 265.49 0.383001 -2.31453 0
M  V30 2746 C 266.506 1.02931 -1.4029 0
M  V30 2747 O 267.682 1.02507 -1.73362 0
M  V30 2748 C 264.747 1.47043 -3.13973 0
M  V30 2749 C 263.808 0.844433 -4.20913 0
M  V30 2750 C 263.041 1.88004 -4.9949 0
M  V30 2751 O 263.264 3.10199 -4.78678 0
M  V30 2752 O 262.198 1.47157 -5.83634 0
M  V30 2753 H 266.024 -0.269964 -3.02498 0
M  V30 2754 H 263.609 -0.19813 -1.4808 0
M  V30 2755 H 265.491 2.10113 -3.65281 0
M  V30 2756 H 264.166 2.10751 -2.45695 0
M  V30 2757 H 263.073 0.175729 -3.73687 0
M  V30 2758 H 264.406 0.250869 -4.9156 0
M  V30 2759 N 266.058 1.56714 -0.166846 0
M  V30 2760 C 267.006 2.19056 0.782123 0
M  V30 2761 C 268 1.15328 1.24079 0
M  V30 2762 O 269.206 1.33537 1.20697 0
M  V30 2763 H 265.581 0.70167 0.270486 0
M  V30 2764 H 267.552 2.97494 0.232322 0
M  V30 2765 C 266.301 2.84206 2.00306 0
M  V30 2766 H 265.624 3.63748 1.65914 0
M  V30 2767 H 267.064 3.31302 2.64604 0
M  V30 2768 C 265.523 1.83744 2.82382 0
M  V30 2769 O 266.053 1.32014 3.79388 0
M  V30 2770 N 264.259 1.52601 2.47308 0
M  V30 2771 H 263.806 1.9486 1.68485 0
M  V30 2772 H 263.764 0.856351 3.02513 0
M  V30 2773 N 267.536 -0.106894 1.57237 0
M  V30 2774 C 268.783 -0.812526 1.85484 0
M  V30 2775 C 269.111 -1.79304 0.753687 0
M  V30 2776 O 268.366 -1.94047 -0.253853 0
M  V30 2777 C 268.665 -1.58628 3.20268 0
M  V30 2778 C 268.331 -0.748967 4.44636 0
M  V30 2779 C 266.993 -0.518104 4.78403 0
M  V30 2780 C 269.345 -0.166122 5.20935 0
M  V30 2781 C 266.673 0.305659 5.85903 0
M  V30 2782 C 269.025 0.644899 6.29304 0
M  V30 2783 C 267.689 0.885965 6.61594 0
M  V30 2784 H 266.959 -0.297324 0.678734 0
M  V30 2785 H 269.606 -0.0744332 1.91355 0
M  V30 2786 H 267.911 -2.39562 3.10028 0
M  V30 2787 H 269.608 -2.13643 3.39349 0
M  V30 2788 H 266.198 -0.939006 4.18187 0
M  V30 2789 H 270.382 -0.33167 4.95191 0
M  V30 2790 H 265.638 0.501528 6.0934 0
M  V30 2791 H 269.812 1.10345 6.87602 0
M  V30 2792 H 267.439 1.52609 7.44725 0
M  V30 2793 N 269.014 -1.53014 -0.377408 0
M  V30 2794 C 269.977 -1.77957 -1.44444 0
M  V30 2795 C 270.977 -0.649763 -1.47087 0
M  V30 2796 O 272.167 -0.917897 -1.48055 0
M  V30 2797 C 269.299 -1.89089 -2.83651 0
M  V30 2798 H 270.492 -2.73243 -1.23606 0
M  V30 2799 H 268.045 -1.43912 -0.609844 0
M  V30 2800 H 268.78 -0.958293 -3.09818 0
M  V30 2801 H 268.565 -2.71254 -2.83132 0
M  V30 2802 H 270.055 -2.1002 -3.60945 0
M  V30 2803 N 270.492 0.636531 -1.44174 0
M  V30 2804 C 271.903 1.21806 -1.41493 0
M  V30 2805 C 272.254 1.95785 -0.1275 0
M  V30 2806 O 271.379 2.02147 0.772376 0
M  V30 2807 C 271.974 2.21551 -2.56321 0
M  V30 2808 C 270.533 2.75143 -2.56853 0
M  V30 2809 C 269.68 1.50052 -2.33195 0
M  V30 2810 H 272.631 0.427531 -1.52833 0
M  V30 2811 H 272.652 3.0405 -2.28765 0
M  V30 2812 H 272.164 1.67679 -3.50008 0
M  V30 2813 H 270.265 3.33033 -1.67093 0
M  V30 2814 H 270.378 3.2155 -3.55165 0
M  V30 2815 H 268.742 1.77993 -1.82183 0
M  V30 2816 H 269.525 0.980903 -3.28988 0
M  V30 2817 N 271.97 1.30982 0.876444 0
M  V30 2818 C 272.88 1.2003 2.01569 0
M  V30 2819 C 273.896 0.11838 1.73597 0
M  V30 2820 O 275.072 0.33495 1.98595 0
M  V30 2821 C 272.137 0.901637 3.34771 0
M  V30 2822 C 271.198 2.06979 3.76109 0
M  V30 2823 C 270.431 1.78529 5.02954 0
M  V30 2824 O 270.654 0.717296 5.65872 0
M  V30 2825 O 269.588 2.64019 5.40905 0
M  V30 2826 H 273.414 2.15753 2.13739 0
M  V30 2827 H 270.999 1.10658 1.00375 0
M  V30 2828 H 272.881 0.750645 4.1466 0
M  V30 2829 H 271.556 -0.0256141 3.2369 0
M  V30 2830 H 270.463 2.27616 2.96887 0
M  V30 2831 H 271.796 2.97907 3.91807 0
M  V30 2832 N 273.449 -1.08991 1.13837 0
M  V30 2833 C 274.696 -1.81258 0.902882 0
M  V30 2834 C 275.024 -1.85936 -0.570803 0
M  V30 2835 O 274.279 -1.3267 -1.43865 0
M  V30 2836 C 274.578 -3.27042 1.44147 0
M  V30 2837 C 274.244 -3.4249 2.93276 0
M  V30 2838 C 272.906 -3.46414 3.33992 0
M  V30 2839 C 275.258 -3.4666 3.892 0
M  V30 2840 C 272.586 -3.52091 4.69307 0
M  V30 2841 C 274.938 -3.53872 5.24364 0
M  V30 2842 C 273.602 -3.56066 5.646 0
M  V30 2843 H 272.872 -0.663268 0.330388 0
M  V30 2844 H 275.519 -1.28368 1.42105 0
M  V30 2845 H 273.824 -3.82599 0.844097 0
M  V30 2846 H 275.521 -3.81499 1.23528 0
M  V30 2847 H 272.111 -3.40124 2.60794 0
M  V30 2848 H 276.295 -3.42865 3.58828 0
M  V30 2849 H 271.551 -3.52079 4.9985 0
M  V30 2850 H 275.725 -3.56043 5.98503 0
M  V30 2851 H 273.352 -3.60218 6.69438 0
M  V30 2852 N 274.927 -0.932562 -1.27047 0
M  V30 2853 C 275.859 -0.392734 -2.2581 0
M  V30 2854 C 276.872 0.479241 -1.55586 0
M  V30 2855 O 278.061 0.291078 -1.76111 0
M  V30 2856 C 275.161 0.455456 -3.35826 0
M  V30 2857 C 274.334 -0.398355 -4.35582 0
M  V30 2858 C 273.393 0.387985 -5.24768 0
M  V30 2859 O 272.419 -0.206003 -5.68827 0
M  V30 2860 N 273.621 1.68664 -5.55457 0
M  V30 2861 H 276.386 -1.24173 -2.72766 0
M  V30 2862 H 273.947 -0.800511 -1.40725 0
M  V30 2863 H 275.939 0.988692 -3.92437 0
M  V30 2864 H 274.509 1.20522 -2.88432 0
M  V30 2865 H 273.729 -1.11286 -3.78165 0
M  V30 2866 H 275.017 -0.981889 -4.99236 0
M  V30 2867 H 274.415 2.19147 -5.21528 0
M  V30 2868 H 272.972 2.1663 -6.14748 0
M  V30 2869 N 276.405 1.4127 -0.698611 0
M  V30 2870 C 277.651 2.01478 -0.231207 0
M  V30 2871 C 277.984 1.55215 1.16713 0
M  V30 2872 O 277.259 0.764672 1.78838 0
M  V30 2873 C 277.542 3.58912 -0.292281 0
M  V30 2874 C 277.395 4.15293 -1.72778 0
M  V30 2875 C 278.714 4.38736 0.346194 0
M  V30 2876 H 275.833 0.732025 -0.0854878 0
M  V30 2877 H 278.475 1.67977 -0.887906 0
M  V30 2878 H 276.625 3.87582 0.26686 0
M  V30 2879 H 278.297 3.97486 -2.341 0
M  V30 2880 H 276.54 3.7022 -2.26096 0
M  V30 2881 H 277.211 5.24452 -1.72202 0
M  V30 2882 H 279.687 4.15897 -0.130035 0
M  V30 2883 H 278.563 5.48221 0.272932 0
M  V30 2884 H 278.824 4.18425 1.42734 0
M  V30 2885 N 277.883 0.443576 1.51229 0
M  V30 2886 C 279.131 -0.120557 2.0174 0
M  V30 2887 C 279.452 -1.42665 1.32935 0
M  V30 2888 O 278.722 -1.9028 0.465866 0
M  V30 2889 H 277.302 -0.0475426 0.745486 0
M  V30 2890 H 279.964 0.587711 1.85828 0
M  V30 2891 H 279.06 -0.291972 3.10731 0
M  V30 2892 N 279.361 -1.56624 0.175154 0
M  V30 2893 C 280.638 -1.88688 -0.515373 0
M  V30 2894 C 281.018 -1.08564 -1.81044 0
M  V30 2895 O 280.366 -0.180703 -2.27784 0
M  V30 2896 C 280.576 -3.40768 -0.753552 0
M  V30 2897 C 281.924 -4.10587 -1.08184 0
M  V30 2898 O 282.948 -3.46106 -0.841961 0
M  V30 2899 O 281.807 -5.24512 -1.53459 0
M  V30 2900 H 278.901 -0.78301 -0.26613 0
M  V30 2901 H 281.447 -1.68347 0.213877 0
M  V30 2902 H 280.219 -3.90965 0.161829 0
M  V30 2903 H 279.842 -3.66733 -1.53598 0
M  V30 2904 N 280.839 0.0985539 -1.57292 0
M  V30 2905 C 282.087 0.801092 -1.85545 0
M  V30 2906 C 282.408 1.79438 -0.763353 0
M  V30 2907 O 281.678 1.94763 0.21073 0
M  V30 2908 H 280.258 0.29884 -0.684619 0
M  V30 2909 H 282.92 0.0810064 -1.94732 0
M  V30 2910 H 282.016 1.3338 -2.82163 0
M  V30 2911 N 282.317 1.53212 0.369288 0
M  V30 2912 C 283.566 1.68436 1.10961 0
M  V30 2913 C 283.879 0.440738 1.9057 0
M  V30 2914 O 285.085 0.473446 2.6734 0
M  V30 2915 C 283.541 2.97744 2.0218 0
M  V30 2916 C 283.149 4.29355 1.279 0
M  V30 2917 C 284.893 3.22334 2.76226 0
M  V30 2918 C 282.8 5.49755 2.17999 0
M  V30 2919 H 281.73 0.627568 0.41794 0
M  V30 2920 H 284.381 1.79713 0.370884 0
M  V30 2921 H 282.763 2.8026 2.79768 0
M  V30 2922 H 283.937 4.57458 0.554007 0
M  V30 2923 H 282.252 4.11179 0.657311 0
M  V30 2924 H 284.849 4.09471 3.43857 0
M  V30 2925 H 285.192 2.38238 3.41392 0
M  V30 2926 H 285.725 3.40475 2.05723 0
M  V30 2927 H 282.464 6.36318 1.57417 0
M  V30 2928 H 281.984 5.25937 2.88359 0
M  V30 2929 H 283.663 5.84401 2.77641 0
M  V30 2930 N 283.795 -0.628877 1.44509 0
M  V30 2931 C 285.043 -1.38565 1.4712 0
M  V30 2932 C 285.364 -1.94712 0.105899 0
M  V30 2933 O 284.634 -1.75912 -0.862079 0
M  V30 2934 H 283.214 -0.514333 0.541729 0
M  V30 2935 H 285.876 -0.740018 1.80305 0
M  V30 2936 H 284.972 -2.21583 2.19789 0
M  V30 2937 N 285.273 -1.31445 -0.869486 0
M  V30 2938 C 286.206 -1.13465 -1.97992 0
M  V30 2939 C 287.184 -0.0380291 -1.62556 0
M  V30 2940 O 288.368 -0.194544 -1.87493 0
M  V30 2941 C 285.495 -0.733822 -3.30655 0
M  V30 2942 C 284.541 -1.83356 -3.85075 0
M  V30 2943 S 285.374 -3.43909 -4.10472 0
M  V30 2944 C 286.53 -3.05763 -5.46132 0
M  V30 2945 H 286.763 -2.07471 -2.1294 0
M  V30 2946 H 284.296 -1.15936 -1.01972 0
M  V30 2947 H 286.254 -0.509306 -4.07328 0
M  V30 2948 H 284.915 0.187123 -3.13542 0
M  V30 2949 H 284.108 -1.50574 -4.80982 0
M  V30 2950 H 283.71 -2.01315 -3.15195 0
M  V30 2951 H 286.002 -2.54686 -6.27807 0
M  V30 2952 H 286.945 -4.00635 -5.83864 0
M  V30 2953 H 287.353 -2.43192 -5.09429 0
M  V30 2954 N 286.751 1.08385 -1.14413 0
M  V30 2955 C 288.028 1.77429 -0.823297 0
M  V30 2956 C 288.408 1.9974 0.683163 0
M  V30 2957 O 287.756 1.60739 1.62405 0
M  V30 2958 C 287.966 3.09004 -1.62227 0
M  V30 2959 C 289.314 3.83532 -1.82177 0
M  V30 2960 O 290.338 3.18786 -1.58915 0
M  V30 2961 O 289.197 4.99792 -2.21067 0
M  V30 2962 H 286.291 0.769999 -0.301712 0
M  V30 2963 H 288.837 1.14846 -1.24934 0
M  V30 2964 H 287.609 2.88316 -2.64555 0
M  V30 2965 H 287.232 3.79316 -1.19187 0
M  V30 2966 N 288.23 0.939286 1.26551 0
M  V30 2967 C 289.16 0.465044 2.28822 0
M  V30 2968 C 290.141 -0.480692 1.63167 0
M  V30 2969 O 291.326 -0.382955 1.90387 0
M  V30 2970 C 288.456 -0.27234 3.46231 0
M  V30 2971 C 287.41 0.58666 4.2396 0
M  V30 2972 C 286.736 -0.280573 5.33963 0
M  V30 2973 C 288.036 1.85704 4.88171 0
M  V30 2974 H 289.73 1.31979 2.68741 0
M  V30 2975 H 287.276 0.636061 1.29191 0
M  V30 2976 H 289.229 -0.615133 4.16886 0
M  V30 2977 H 287.953 -1.16121 3.0526 0
M  V30 2978 H 286.612 0.91232 3.55067 0
M  V30 2979 H 286.26 -1.16874 4.89234 0
M  V30 2980 H 285.96 0.29076 5.8688 0
M  V30 2981 H 287.484 -0.618678 6.07458 0
M  V30 2982 H 288.898 1.58161 5.51052 0
M  V30 2983 H 287.295 2.37279 5.51197 0
M  V30 2984 H 288.365 2.56957 4.11219 0
M  V30 2985 N 289.708 -1.40897 0.706093 0
M  V30 2986 C 290.655 -2.30751 0.0474474 0
M  V30 2987 C 291.625 -1.47678 -0.76029 0
M  V30 2988 O 292.81 -1.76441 -0.726177 0
M  V30 2989 C 289.95 -3.33815 -0.875309 0
M  V30 2990 C 289.063 -4.31961 -0.0580623 0
M  V30 2991 C 288.198 -5.22093 -0.979425 0
M  V30 2992 C 287.237 -6.11902 -0.155706 0
M  V30 2993 N 286.374 -6.94482 -1.03144 0
M  V30 2994 H 291.214 -2.86513 0.819413 0
M  V30 2995 H 288.751 -1.41102 0.415783 0
M  V30 2996 H 290.709 -3.92129 -1.42446 0
M  V30 2997 H 289.339 -2.79579 -1.61356 0
M  V30 2998 H 288.391 -3.75507 0.608147 0
M  V30 2999 H 289.703 -4.95415 0.580082 0
M  V30 3000 H 288.857 -5.85292 -1.59744 0
M  V30 3001 H 287.596 -4.5889 -1.65141 0
M  V30 3002 H 286.601 -5.47742 0.475309 0
M  V30 3003 H 287.826 -6.77162 0.512635 0
M  V30 3004 H 285.772 -6.33877 -1.68924 0
M  V30 3005 H 285.689 -7.54665 -0.449108 0
M  V30 3006 H 286.957 -7.6214 -1.63593 0
M  V30 3007 N 291.186 -0.45159 -1.50991 0
M  V30 3008 C 292.116 0.342898 -2.30969 0
M  V30 3009 C 293.097 1.00815 -1.37005 0
M  V30 3010 O 294.282 1.00907 -1.65926 0
M  V30 3011 C 291.412 1.43637 -3.16205 0
M  V30 3012 C 290.366 0.893818 -4.18563 0
M  V30 3013 C 289.692 2.08411 -4.92411 0
M  V30 3014 C 290.992 -0.0815568 -5.22236 0
M  V30 3015 H 292.686 -0.324556 -2.97636 0
M  V30 3016 H 290.232 -0.157531 -1.43136 0
M  V30 3017 H 292.185 1.9995 -3.70942 0
M  V30 3018 H 290.909 2.13232 -2.47386 0
M  V30 3019 H 289.568 0.352798 -3.64898 0
M  V30 3020 H 289.216 2.76658 -4.20082 0
M  V30 3021 H 288.916 1.72741 -5.61636 0
M  V30 3022 H 290.44 2.65251 -5.49976 0
M  V30 3023 H 291.854 0.391742 -5.7196 0
M  V30 3024 H 290.251 -0.351551 -5.99069 0
M  V30 3025 H 291.321 -1.01374 -4.74185 0
M  V30 3026 N 292.664 1.56529 -0.183458 0
M  V30 3027 C 293.889 2.02064 0.467428 0
M  V30 3028 C 294.314 1.06282 1.55196 0
M  V30 3029 O 293.672 0.0443565 1.81246 0
M  V30 3030 C 293.72 3.46122 1.01153 0
M  V30 3031 O 292.824 3.53437 2.12499 0
M  V30 3032 H 292.165 0.654726 0.110588 0
M  V30 3033 H 294.695 2.02521 -0.290917 0
M  V30 3034 H 294.705 3.85676 1.33108 0
M  V30 3035 H 293.38 4.15331 0.217533 0
M  V30 3036 H 291.957 3.2575 1.81497 0
M  V30 3037 N 294.142 -0.090211 1.57342 0
M  V30 3038 C 295.09 -1.12792 2.03422 0
M  V30 3039 C 296.084 -1.41182 0.936166 0
M  V30 3040 O 297.29 -1.40805 1.12133 0
M  V30 3041 H 293.665 -0.380986 0.648347 0
M  V30 3042 H 295.636 -0.71299 2.89757 0
M  V30 3043 C 294.385 -2.43855 2.47851 0
M  V30 3044 H 293.708 -2.22855 3.31927 0
M  V30 3045 H 295.148 -3.14955 2.83865 0
M  V30 3046 C 293.607 -3.08503 1.3538 0
M  V30 3047 O 294.137 -3.95805 0.685641 0
M  V30 3048 N 292.343 -2.68831 1.10355 0
M  V30 3049 H 291.89 -1.97929 1.64869 0
M  V30 3050 H 291.848 -3.12412 0.353031 0
M  V30 3051 N 295.62 -1.53406 -0.361157 0
M  V30 3052 C 296.57 -1.76536 -1.44287 0
M  V30 3053 C 297.554 -0.620019 -1.48474 0
M  V30 3054 O 298.746 -0.878834 -1.53641 0
M  V30 3055 C 295.875 -1.96266 -2.81664 0
M  V30 3056 C 294.961 -3.16815 -2.81938 0
M  V30 3057 N 295.352 -4.38637 -2.51855 0
M  V30 3058 C 293.65 -3.17627 -3.13096 0
M  V30 3059 C 294.351 -5.20401 -2.59919 0
M  V30 3060 N 293.327 -4.56712 -2.94814 0
M  V30 3061 H 297.129 -2.68331 -1.19899 0
M  V30 3062 H 294.643 -1.52091 -0.56938 0
M  V30 3063 H 296.64 -2.10966 -3.59582 0
M  V30 3064 H 295.3 -1.05702 -3.07013 0
M  V30 3065 H 296.311 -4.66293 -2.25369 0
M  V30 3066 H 292.988 -2.36971 -3.43731 0
M  V30 3067 H 294.378 -6.27586 -2.39969 0
M  V30 3068 N 297.098 0.621204 -1.44841 0
M  V30 3069 C 298.344 1.3826 -1.48365 0
M  V30 3070 C 298.677 1.93831 -0.119624 0
M  V30 3071 O 297.952 1.74251 0.864111 0
M  V30 3072 C 298.235 2.54058 -2.55199 0
M  V30 3073 C 298.088 2.03772 -4.00995 0
M  V30 3074 C 299.407 3.56225 -2.58442 0
M  V30 3075 H 296.526 0.501374 -0.540179 0
M  V30 3076 H 299.168 0.7015 -1.76576 0
M  V30 3077 H 297.318 3.12162 -2.31274 0
M  V30 3078 H 298.99 1.50423 -4.36086 0
M  V30 3079 H 297.233 1.34876 -4.12299 0
M  V30 3080 H 297.904 2.87185 -4.71411 0
M  V30 3081 H 300.38 3.07939 -2.79844 0
M  V30 3082 H 299.256 4.34756 -3.3508 0
M  V30 3083 H 299.517 4.10949 -1.63013 0
M  V30 3084 N 298.576 1.31904 0.862503 0
M  V30 3085 C 299.823 1.22017 1.61611 0
M  V30 3086 C 300.151 -0.21991 1.93253 0
M  V30 3087 O 299.406 -1.17076 1.56817 0
M  V30 3088 C 299.705 2.01713 2.95037 0
M  V30 3089 C 299.371 3.51145 2.82857 0
M  V30 3090 C 298.033 3.91889 2.79243 0
M  V30 3091 C 300.385 4.46204 2.69353 0
M  V30 3092 C 297.713 5.25947 2.59993 0
M  V30 3093 C 300.065 5.80397 2.5164 0
M  V30 3094 C 298.729 6.20352 2.46413 0
M  V30 3095 H 297.999 0.44649 0.591378 0
M  V30 3096 H 300.646 1.63248 1.00111 0
M  V30 3097 H 298.951 1.53185 3.60613 0
M  V30 3098 H 300.648 1.91437 3.52353 0
M  V30 3099 H 297.238 3.1878 2.86491 0
M  V30 3100 H 301.422 4.15652 2.71196 0
M  V30 3101 H 296.678 5.5597 2.54376 0
M  V30 3102 H 300.852 6.53676 2.40169 0
M  V30 3103 H 298.479 7.24172 2.31256 0
M  V30 3104 N 300.054 -1.07777 1.14986 0
M  V30 3105 C 301.002 -2.16964 0.838406 0
M  V30 3106 C 301.996 -1.68372 -0.186386 0
M  V30 3107 O 303.202 -1.79951 -0.0418465 0
M  V30 3108 H 299.577 -0.708006 0.253439 0
M  V30 3109 H 301.548 -2.40454 1.76704 0
M  V30 3110 C 300.297 -3.4604 0.339335 0
M  V30 3111 H 299.62 -3.83813 1.11927 0
M  V30 3112 H 301.06 -4.23698 0.160021 0
M  V30 3113 C 299.519 -3.23569 -0.938325 0
M  V30 3114 O 300.049 -3.47752 -2.01077 0
M  V30 3115 N 298.255 -2.77079 -0.876117 0
M  V30 3116 H 297.802 -2.576 -0.00322037 0
M  V30 3117 H 297.76 -2.62422 -1.73153 0
M  V30 3118 N 301.532 -0.945985 -1.26051 0
M  V30 3119 C 302.495 -0.463897 -2.24456 0
M  V30 3120 C 303.495 0.427655 -1.55009 0
M  V30 3121 O 304.685 0.226157 -1.72726 0
M  V30 3122 C 301.817 0.330812 -3.39291 0
M  V30 3123 H 303.01 -1.33357 -2.68619 0
M  V30 3124 H 300.563 -0.728416 -1.38289 0
M  V30 3125 H 301.298 1.21852 -3.00537 0
M  V30 3126 H 301.083 -0.308679 -3.90883 0
M  V30 3127 H 302.573 0.657865 -4.12386 0
M  V30 3128 N 303.011 1.40521 -0.713556 0
M  V30 3129 C 303.941 2.33381 -0.0743864 0
M  V30 3130 C 304.922 1.52784 0.747735 0
M  V30 3131 O 306.107 1.81258 0.697071 0
M  V30 3132 C 303.237 3.36748 0.849598 0
M  V30 3133 C 302.191 4.27793 0.133247 0
M  V30 3134 C 301.517 5.21679 1.17281 0
M  V30 3135 C 302.817 5.12415 -1.01134 0
M  V30 3136 H 304.511 2.87081 -0.850007 0
M  V30 3137 H 302.057 1.38034 -0.410201 0
M  V30 3138 H 304.01 4.00648 1.30612 0
M  V30 3139 H 302.734 2.81439 1.65709 0
M  V30 3140 H 301.393 3.65342 -0.303426 0
M  V30 3141 H 301.041 4.62677 1.9733 0
M  V30 3142 H 300.741 5.83435 0.698397 0
M  V30 3143 H 302.265 5.88456 1.62947 0
M  V30 3144 H 303.679 5.69781 -0.634274 0
M  V30 3145 H 302.076 5.83203 -1.41399 0
M  V30 3146 H 303.146 4.48514 -1.84292 0
M  V30 3147 N 304.489 0.459591 1.5075 0
M  V30 3148 C 305.436 -0.340524 2.28274 0
M  V30 3149 C 306.406 -0.997371 1.32822 0
M  V30 3150 O 307.591 -1.01202 1.61749 0
M  V30 3151 C 304.731 -1.42317 3.14388 0
M  V30 3152 C 303.844 -0.782251 4.24859 0
M  V30 3153 C 302.979 -1.84182 4.98247 0
M  V30 3154 C 302.018 -1.18053 6.00608 0
M  V30 3155 N 301.155 -2.18244 6.67319 0
M  V30 3156 H 305.995 0.326899 2.96202 0
M  V30 3157 H 303.532 0.173057 1.46078 0
M  V30 3158 H 305.49 -2.06241 3.62658 0
M  V30 3159 H 304.12 -2.05992 2.4853 0
M  V30 3160 H 303.172 -0.0307404 3.80388 0
M  V30 3161 H 304.484 -0.259663 4.98124 0
M  V30 3162 H 303.638 -2.55714 5.50177 0
M  V30 3163 H 302.377 -2.39819 4.24662 0
M  V30 3164 H 301.382 -0.450776 5.47949 0
M  V30 3165 H 302.607 -0.631202 6.7616 0
M  V30 3166 H 300.553 -2.72919 5.96533 0
M  V30 3167 H 300.47 -1.70938 7.36421 0
M  V30 3168 H 301.738 -2.89191 7.23871 0
M  V30 3169 N 305.967 -1.56429 0.191757 0
M  V30 3170 C 306.899 -2.16154 -0.762245 0
M  V30 3171 C 307.912 -1.12247 -1.17917 0
M  V30 3172 O 309.101 -1.39353 -1.11548 0
M  V30 3173 C 306.201 -2.70606 -2.04024 0
M  V30 3174 C 305.374 -3.99381 -1.78364 0
M  V30 3175 C 304.433 -4.38692 -2.90578 0
M  V30 3176 O 303.459 -5.06179 -2.6033 0
M  V30 3177 N 304.661 -4.01922 -4.18854 0
M  V30 3178 H 307.426 -2.98643 -0.251526 0
M  V30 3179 H 304.987 -1.61897 0.00967373 0
M  V30 3180 H 306.979 -2.93891 -2.78227 0
M  V30 3181 H 305.549 -1.9259 -2.46227 0
M  V30 3182 H 304.769 -3.84262 -0.879581 0
M  V30 3183 H 306.057 -4.83445 -1.58614 0
M  V30 3184 H 305.455 -3.47631 -4.46283 0
M  V30 3185 H 304.012 -4.30165 -4.89695 0
M  V30 3186 N 307.445 0.0818655 -1.57387 0
M  V30 3187 C 308.395 1.10501 -1.99433 0
M  V30 3188 C 309.379 1.35041 -0.874798 0
M  V30 3189 O 310.571 1.35511 -1.13868 0
M  V30 3190 C 307.7 2.42159 -2.43339 0
M  V30 3191 C 306.786 2.20937 -3.62005 0
M  V30 3192 N 307.177 1.69616 -4.76512 0
M  V30 3193 C 305.475 2.51451 -3.68359 0
M  V30 3194 C 306.176 1.62973 -5.58404 0
M  V30 3195 N 305.152 2.08664 -5.01956 0
M  V30 3196 H 308.954 0.701373 -2.85408 0
M  V30 3197 H 306.468 0.289096 -1.59806 0
M  V30 3198 H 308.465 3.16208 -2.71695 0
M  V30 3199 H 307.125 2.83249 -1.58746 0
M  V30 3200 H 308.136 1.38624 -4.99003 0
M  V30 3201 H 304.813 2.95975 -2.94457 0
M  V30 3202 H 306.203 1.24233 -6.60315 0
M  V30 3203 N 308.923 1.53595 0.353017 0
M  V30 3204 C 309.886 1.80232 1.41594 0
M  V30 3205 C 310.886 0.673081 1.46035 0
M  V30 3206 O 312.076 0.941335 1.46576 0
M  V30 3207 C 309.208 1.93578 2.80607 0
M  V30 3208 H 310.401 2.75174 1.19244 0
M  V30 3209 H 307.954 1.44864 0.586872 0
M  V30 3210 H 308.689 1.00746 3.08254 0
M  V30 3211 H 308.474 2.75724 2.78781 0
M  V30 3212 H 309.964 2.15735 3.57558 0
M  V30 3213 N 310.401 -0.613514 1.45168 0
M  V30 3214 C 311.631 -1.39743 1.52169 0
M  V30 3215 C 312.039 -1.88596 0.151086 0
M  V30 3216 O 311.382 -1.6251 -0.856521 0
M  V30 3217 C 311.444 -2.64035 2.43979 0
M  V30 3218 C 311.108 -2.36861 3.90827 0
M  V30 3219 C 312.105 -1.97591 4.80889 0
M  V30 3220 C 309.79 -2.49956 4.35692 0
M  V30 3221 C 311.784 -1.71768 6.1382 0
M  V30 3222 C 309.471 -2.23747 5.68665 0
M  V30 3223 C 310.469 -1.84714 6.57548 0
M  V30 3224 O 310.157 -1.58809 7.88058 0
M  V30 3225 H 309.889 -0.434382 0.517966 0
M  V30 3226 H 312.443 -0.75587 1.90986 0
M  V30 3227 H 310.673 -3.3089 2.00122 0
M  V30 3228 H 312.362 -3.26069 2.41731 0
M  V30 3229 H 313.128 -1.87015 4.47493 0
M  V30 3230 H 309.007 -2.79305 3.66756 0
M  V30 3231 H 312.551 -1.41227 6.83155 0
M  V30 3232 H 308.448 -2.33938 6.01617 0
M  V30 3233 H 309.216 -1.7291 8.00028 0
M  V30 3234 N 311.879 -1.3236 -0.855495 0
M  V30 3235 C 313.104 -1.2601 -1.64731 0
M  V30 3236 C 313.529 0.169068 -1.87339 0
M  V30 3237 O 312.887 1.12016 -1.42556 0
M  V30 3238 C 312.935 -2.02417 -2.98429 0
M  V30 3239 O 312.039 -1.3714 -3.8893 0
M  V30 3240 H 311.38 -0.434325 -0.502253 0
M  V30 3241 H 313.91 -1.74661 -1.06558 0
M  V30 3242 H 313.92 -2.12559 -3.48257 0
M  V30 3243 H 312.595 -3.06343 -2.81295 0
M  V30 3244 H 311.172 -1.3554 -3.47395 0
M  V30 3245 N 313.357 1.07166 -1.15556 0
M  V30 3246 C 314.267 2.17947 -0.868116 0
M  V30 3247 C 315.283 1.73297 0.156297 0
M  V30 3248 O 316.459 2.01392 -0.0182327 0
M  V30 3249 C 313.524 3.44789 -0.36355 0
M  V30 3250 C 312.585 4.03996 -1.45209 0
M  V30 3251 C 311.818 5.24783 -0.971508 0
M  V30 3252 O 312.041 5.70109 0.182194 0
M  V30 3253 O 310.975 5.75715 -1.75603 0
M  V30 3254 H 314.801 2.4503 -1.79427 0
M  V30 3255 H 312.386 1.16539 -0.934824 0
M  V30 3256 H 314.268 4.21307 -0.0887113 0
M  V30 3257 H 312.943 3.19253 0.534708 0
M  V30 3258 H 311.85 3.29009 -1.78056 0
M  V30 3259 H 313.183 4.33808 -2.32533 0
M  V30 3260 N 314.835 0.952656 1.25548 0
M  V30 3261 C 315.745 0.47782 2.29682 0
M  V30 3262 C 316.761 -0.453859 1.67977 0
M  V30 3263 O 317.937 -0.330587 1.98668 0
M  V30 3264 C 315.002 -0.238655 3.45878 0
M  V30 3265 C 314.063 0.730994 4.23031 0
M  V30 3266 C 313.296 0.0486165 5.33678 0
M  V30 3267 O 313.519 -1.16612 5.58353 0
M  V30 3268 O 312.453 0.733152 5.97418 0
M  V30 3269 H 316.279 1.34312 2.72386 0
M  V30 3270 H 313.864 0.719026 1.30959 0
M  V30 3271 H 315.746 -0.641774 4.16484 0
M  V30 3272 H 314.421 -1.07916 3.05181 0
M  V30 3273 H 313.328 1.18428 3.5486 0
M  V30 3274 H 314.661 1.53946 4.67506 0
M  V30 3275 N 316.313 -1.40141 0.720998 0
M  V30 3276 C 317.729 -1.54632 0.395113 0
M  V30 3277 C 317.929 -1.69115 -1.09555 0
M  V30 3278 O 316.985 -1.68377 -1.88163 0
M  V30 3279 C 318.298 -2.77177 1.1659 0
M  V30 3280 C 319.846 -2.91 1.15274 0
M  V30 3281 C 320.321 -4.16465 1.90579 0
M  V30 3282 N 321.812 -4.23476 1.87675 0
M  V30 3283 C 322.547 -5.19475 2.42762 0
M  V30 3284 N 322.043 -6.21348 3.06428 0
M  V30 3285 N 323.836 -5.11592 2.32874 0
M  V30 3286 H 315.987 -1.28986 1.68749 0
M  V30 3287 H 318.25 -0.62412 0.713567 0
M  V30 3288 H 317.956 -2.72771 2.22011 0
M  V30 3289 H 317.83 -3.69442 0.76108 0
M  V30 3290 H 320.217 -2.94907 0.106702 0
M  V30 3291 H 320.298 -1.99838 1.59682 0
M  V30 3292 H 319.942 -4.1332 2.95176 0
M  V30 3293 H 319.872 -5.06646 1.43587 0
M  V30 3294 H 322.363 -3.50497 1.41281 0
M  V30 3295 H 322.676 -6.91034 3.45965 0
M  V30 3296 H 321.021 -6.21777 3.10514 0
M  V30 3297 H 324.212 -4.30936 1.82789 0
M  V30 3298 H 324.385 -5.86233 2.76106 0
M  V30 3299 N 317.792 -0.46758 -1.50504 0
M  V30 3300 C 319.208 -0.121533 -1.59137 0
M  V30 3301 C 319.408 1.3717 -1.47603 0
M  V30 3302 O 318.464 2.14464 -1.33272 0
M  V30 3303 C 319.777 -0.6686 -2.93173 0
M  V30 3304 C 321.325 -0.631716 -3.06559 0
M  V30 3305 C 321.8 -1.15627 -4.43164 0
M  V30 3306 N 323.291 -1.11553 -4.49567 0
M  V30 3307 C 324.026 -1.49195 -5.5365 0
M  V30 3308 N 323.522 -1.94269 -6.65005 0
M  V30 3309 N 325.315 -1.4082 -5.44175 0
M  V30 3310 H 317.466 -1.4388 -1.56245 0
M  V30 3311 H 319.729 -0.594784 -0.738198 0
M  V30 3312 H 319.435 -1.71453 -3.07078 0
M  V30 3313 H 319.309 -0.11021 -3.77039 0
M  V30 3314 H 321.696 0.405297 -2.92304 0
M  V30 3315 H 321.777 -1.22687 -2.24458 0
M  V30 3316 H 321.421 -2.1919 -4.58168 0
M  V30 3317 H 321.351 -0.537365 -5.23851 0
M  V30 3318 H 323.842 -0.784895 -3.69659 0
M  V30 3319 H 324.155 -2.21148 -7.40482 0
M  V30 3320 H 322.5 -1.98219 -6.66134 0
M  V30 3321 H 325.691 -1.0545 -4.56068 0
M  V30 3322 H 325.864 -1.70481 -6.25172 0
M  V30 3323 N 319.27 1.56325 -0.20005 0
M  V30 3324 C 320.495 2.02548 0.44597 0
M  V30 3325 C 320.92 1.07922 1.5406 0
M  V30 3326 O 320.278 0.0635775 1.81188 0
M  V30 3327 C 320.326 3.47175 0.974761 0
M  V30 3328 O 319.43 3.55671 2.08739 0
M  V30 3329 H 318.771 0.655862 0.103638 0
M  V30 3330 H 321.301 2.02201 -0.312381 0
M  V30 3331 H 321.311 3.87067 1.2901 0
M  V30 3332 H 319.986 4.15538 0.17347 0
M  V30 3333 H 318.563 3.27657 1.78032 0
M  V30 3334 N 320.748 -0.0735177 1.57428 0
M  V30 3335 C 321.711 -1.07192 2.02589 0
M  V30 3336 C 322.711 -1.31695 0.922661 0
M  V30 3337 O 323.901 -1.27445 1.18758 0
M  V30 3338 C 321.033 -2.41599 2.40506 0
M  V30 3339 H 322.226 -0.682727 2.92025 0
M  V30 3340 H 319.779 -0.319193 1.53006 0
M  V30 3341 H 320.514 -2.85354 1.5409 0
M  V30 3342 H 320.299 -2.25156 3.21009 0
M  V30 3343 H 321.789 -3.13367 2.76027 0
M  V30 3344 N 322.226 -1.5378 -0.344866 0
M  V30 3345 C 323.642 -1.44015 -0.687888 0
M  V30 3346 C 323.842 -0.595834 -1.92489 0
M  V30 3347 O 322.898 -0.0863064 -2.52352 0
M  V30 3348 C 324.211 -2.87481 -0.881758 0
M  V30 3349 C 325.759 -2.97247 -0.980459 0
M  V30 3350 C 326.234 -4.41819 -1.20665 0
M  V30 3351 N 327.725 -4.45339 -1.27389 0
M  V30 3352 C 328.46 -5.54333 -1.46639 0
M  V30 3353 N 327.956 -6.73335 -1.63071 0
M  V30 3354 N 329.749 -5.41944 -1.49176 0
M  V30 3355 H 321.9 -2.07169 0.468475 0
M  V30 3356 H 324.163 -0.93643 0.147655 0
M  V30 3357 H 323.869 -3.51672 -0.0443444 0
M  V30 3358 H 323.743 -3.32352 -1.78388 0
M  V30 3359 H 326.13 -2.33197 -1.8084 0
M  V30 3360 H 326.211 -2.5574 -0.0552713 0
M  V30 3361 H 325.855 -5.06449 -0.383652 0
M  V30 3362 H 325.785 -4.80917 -2.14539 0
M  V30 3363 H 328.276 -3.59585 -1.1622 0
M  V30 3364 H 328.589 -7.52165 -1.77391 0
M  V30 3365 H 326.934 -6.76282 -1.60209 0
M  V30 3366 H 330.125 -4.47932 -1.3592 0
M  V30 3367 H 330.298 -6.26946 -1.63837 0
M  V30 3368 N 323.704 0.605807 -1.45491 0
M  V30 3369 C 324.634 1.72709 -1.57143 0
M  V30 3370 C 325.615 1.6476 -0.422884 0
M  V30 3371 O 326.8 1.83132 -0.646247 0
M  V30 3372 C 323.93 3.11316 -1.53948 0
M  V30 3373 C 322.884 3.34077 -2.67537 0
M  V30 3374 C 322.21 4.72975 -2.49397 0
M  V30 3375 C 323.51 3.24158 -4.09535 0
M  V30 3376 H 325.204 1.63214 -2.51001 0
M  V30 3377 H 322.75 0.78379 -1.208 0
M  V30 3378 H 324.703 3.89557 -1.60696 0
M  V30 3379 H 323.427 3.21655 -0.566205 0
M  V30 3380 H 322.086 2.58227 -2.6022 0
M  V30 3381 H 321.734 4.8005 -1.50205 0
M  V30 3382 H 321.434 4.8916 -3.25571 0
M  V30 3383 H 322.958 5.53414 -2.58002 0
M  V30 3384 H 324.372 3.92271 -4.18086 0
M  V30 3385 H 322.769 3.51872 -4.86113 0
M  V30 3386 H 323.839 2.2157 -4.31317 0
M  V30 3387 N 325.182 1.32811 0.848464 0
M  V30 3388 C 326.132 1.18842 1.94578 0
M  V30 3389 C 327.116 0.0937517 1.60627 0
M  V30 3390 O 328.308 0.320887 1.74067 0
M  V30 3391 C 325.437 0.91999 3.30743 0
M  V30 3392 C 324.523 2.05665 3.70894 0
M  V30 3393 N 324.914 3.30579 3.8282 0
M  V30 3394 C 323.212 1.9612 4.00566 0
M  V30 3395 C 323.913 4.05067 4.17487 0
M  V30 3396 N 322.889 3.33419 4.2934 0
M  V30 3397 H 326.691 2.13536 2.0194 0
M  V30 3398 H 324.205 1.2468 1.0406 0
M  V30 3399 H 326.202 0.800859 4.09136 0
M  V30 3400 H 324.862 -0.0185076 3.24695 0
M  V30 3401 H 325.873 3.65441 3.66978 0
M  V30 3402 H 322.55 1.09871 4.02784 0
M  V30 3403 H 323.94 5.12815 4.34131 0
M  V30 3404 N 326.66 -1.06551 1.16123 0
M  V30 3405 C 327.57 -2.17484 0.879662 0
M  V30 3406 C 328.586 -1.73377 -0.147104 0
M  V30 3407 O 329.762 -2.01379 0.0289128 0
M  V30 3408 C 326.827 -3.44591 0.381829 0
M  V30 3409 C 325.888 -4.0322 1.4735 0
M  V30 3410 C 325.121 -5.24261 0.999324 0
M  V30 3411 O 325.344 -5.70198 -0.151957 0
M  V30 3412 O 324.278 -5.74775 1.78653 0
M  V30 3413 H 328.104 -2.44075 1.80724 0
M  V30 3414 H 325.689 -1.16042 0.940992 0
M  V30 3415 H 327.571 -4.21254 0.111053 0
M  V30 3416 H 326.246 -3.19532 -0.51777 0
M  V30 3417 H 325.153 -3.2806 1.79798 0
M  V30 3418 H 326.486 -4.32568 2.34831 0
M  V30 3419 N 328.138 -0.959301 -1.25041 0
M  V30 3420 C 329.085 -0.482057 -2.2571 0
M  V30 3421 C 330.055 0.467939 -1.59372 0
M  V30 3422 O 331.24 0.380159 -1.86974 0
M  V30 3423 C 328.38 0.229623 -3.44335 0
M  V30 3424 C 327.493 -0.758156 -4.25295 0
M  V30 3425 C 326.628 -0.0234403 -5.31195 0
M  V30 3426 C 325.667 -1.00184 -6.03846 0
M  V30 3427 N 324.804 -0.29769 -7.01469 0
M  V30 3428 H 329.644 -1.34538 -2.65901 0
M  V30 3429 H 327.181 -0.674592 -1.3072 0
M  V30 3430 H 329.139 0.658856 -4.11965 0
M  V30 3431 H 327.769 1.05696 -3.05005 0
M  V30 3432 H 326.821 -1.30586 -3.57284 0
M  V30 3433 H 328.133 -1.50458 -4.75567 0
M  V30 3434 H 327.287 0.464201 -6.04922 0
M  V30 3435 H 326.026 0.755741 -4.81809 0
M  V30 3436 H 325.031 -1.50044 -5.2893 0
M  V30 3437 H 326.256 -1.78133 -6.55321 0
M  V30 3438 H 324.202 0.462668 -6.54366 0
M  V30 3439 H 324.119 -0.983128 -7.4958 0
M  V30 3440 H 325.387 0.16826 -7.79318 0
M  V30 3441 N 329.616 1.39756 -0.72842 0
M  V30 3442 C 330.563 2.30647 -0.0841519 0
M  V30 3443 C 331.533 1.48869 0.7367 0
M  V30 3444 O 332.718 1.77574 0.698015 0
M  V30 3445 C 329.858 3.35165 0.822091 0
M  V30 3446 C 328.971 4.31999 -0.0106663 0
M  V30 3447 C 328.106 5.23585 0.896241 0
M  V30 3448 C 327.145 6.12072 0.0583381 0
M  V30 3449 N 326.282 6.96035 0.920818 0
M  V30 3450 H 331.122 2.85173 -0.864891 0
M  V30 3451 H 328.659 1.40422 -0.438179 0
M  V30 3452 H 330.617 3.94345 1.36189 0
M  V30 3453 H 329.247 2.8211 1.56888 0
M  V30 3454 H 328.299 3.74492 -0.66781 0
M  V30 3455 H 329.611 4.9443 -0.658825 0
M  V30 3456 H 328.765 5.87759 1.50412 0
M  V30 3457 H 327.504 4.61459 1.57819 0
M  V30 3458 H 326.509 5.46916 -0.562389 0
M  V30 3459 H 327.734 6.76261 -0.6203 0
M  V30 3460 H 325.68 6.36485 1.58818 0
M  V30 3461 H 325.597 7.55284 0.32899 0
M  V30 3462 H 326.865 7.64646 1.51447 0
M  V30 3463 N 331.094 0.475555 1.50254 0
M  V30 3464 C 332.004 -0.321501 2.32387 0
M  V30 3465 C 333.02 -0.991755 1.42969 0
M  V30 3466 O 334.196 -0.978747 1.76018 0
M  V30 3467 C 331.261 -1.38667 3.17762 0
M  V30 3468 C 330.322 -0.732538 4.23004 0
M  V30 3469 C 329.555 -1.74695 5.04299 0
M  V30 3470 O 329.778 -2.97399 4.86734 0
M  V30 3471 O 328.712 -1.31631 5.8733 0
M  V30 3472 H 332.538 0.350071 3.01676 0
M  V30 3473 H 330.123 0.237321 1.47503 0
M  V30 3474 H 332.005 -2.00354 3.70724 0
M  V30 3475 H 330.68 -2.04163 2.51196 0
M  V30 3476 H 329.587 -0.0765902 3.74022 0
M  V30 3477 H 330.92 -0.120452 4.92053 0
M  V30 3478 N 332.573 -1.56217 0.208337 0
M  V30 3479 C 333.523 -2.16324 -0.720281 0
M  V30 3480 C 334.507 -1.10775 -1.16695 0
M  V30 3481 O 335.699 -1.36801 -1.12314 0
M  V30 3482 C 332.828 -2.83644 -1.93393 0
M  V30 3483 C 331.914 -3.96401 -1.50755 0
M  V30 3484 N 332.305 -4.99546 -0.792937 0
M  V30 3485 C 330.603 -4.08246 -1.79585 0
M  V30 3486 C 331.304 -5.78828 -0.577364 0
M  V30 3487 N 330.28 -5.31723 -1.1301 0
M  V30 3488 H 334.082 -2.93432 -0.165725 0
M  V30 3489 H 331.596 -1.62397 0.00906463 0
M  V30 3490 H 333.593 -3.25107 -2.60981 0
M  V30 3491 H 332.253 -2.08027 -2.49308 0
M  V30 3492 H 333.264 -5.15967 -0.447004 0
M  V30 3493 H 329.941 -3.4377 -2.36915 0
M  V30 3494 H 331.331 -6.71899 -0.00952956 0
M  V30 3495 N 334.051 0.0651679 -1.57465 0
M  V30 3496 C 335.276 0.779605 -1.9219 0
M  V30 3497 C 335.701 1.69988 -0.805333 0
M  V30 3498 O 335.059 1.79685 0.241435 0
M  V30 3499 C 335.107 1.54364 -3.2589 0
M  V30 3500 O 334.211 2.65474 -3.1559 0
M  V30 3501 H 333.552 0.212249 -0.629163 0
M  V30 3502 H 336.082 0.0314294 -2.04576 0
M  V30 3503 H 336.092 1.92146 -3.59922 0
M  V30 3504 H 334.767 0.868457 -4.06732 0
M  V30 3505 H 333.344 2.30501 -2.93128 0
M  V30 3506 N 335.529 1.53961 0.336706 0
M  V30 3507 C 336.757 1.75483 1.09605 0
M  V30 3508 C 337.172 0.4972 1.82136 0
M  V30 3509 O 336.529 -0.53149 1.74589 0
M  V30 3510 C 336.58 2.93943 2.10428 0
M  V30 3511 O 336.301 4.14842 1.40846 0
M  V30 3512 C 337.802 3.27571 2.98684 0
M  V30 3513 H 335.022 0.586166 0.326574 0
M  V30 3514 H 337.566 2.00808 0.38683 0
M  V30 3515 H 335.721 2.70929 2.76905 0
M  V30 3516 H 336.135 4.81383 2.08255 0
M  V30 3517 H 337.609 4.13791 3.6535 0
M  V30 3518 H 338.086 2.44168 3.65074 0
M  V30 3519 H 338.692 3.52615 2.37787 0
M  V30 3520 N 337.007 -0.598083 1.45811 0
M  V30 3521 C 337.97 -1.69018 1.54808 0
M  V30 3522 C 338.97 -1.55037 0.426652 0
M  V30 3523 O 340.16 -1.59932 0.690456 0
M  V30 3524 C 337.292 -3.0835 1.45371 0
M  V30 3525 H 338.485 -1.62403 2.52121 0
M  V30 3526 H 336.038 -0.814626 1.33392 0
M  V30 3527 H 336.773 -3.20534 0.492793 0
M  V30 3528 H 336.558 -3.19907 2.26721 0
M  V30 3529 H 338.048 -3.8788 1.54721 0
M  V30 3530 N 338.485 -1.33259 -0.841409 0
M  V30 3531 C 339.395 -1.25332 -1.98316 0
M  V30 3532 C 340.411 -0.164364 -1.73222 0
M  V30 3533 O 341.587 -0.387486 -1.97637 0
M  V30 3534 C 338.652 -0.990078 -3.32262 0
M  V30 3535 C 337.713 -2.16879 -3.70489 0
M  V30 3536 C 336.946 -1.91801 -4.98044 0
M  V30 3537 O 337.169 -0.867075 -5.63771 0
M  V30 3538 O 336.103 -2.78267 -5.33714 0
M  V30 3539 H 339.929 -2.21344 -2.07944 0
M  V30 3540 H 337.514 -1.1328 -0.974058 0
M  V30 3541 H 339.396 -0.860321 -4.12524 0
M  V30 3542 H 338.071 -0.0602155 -3.23644 0
M  V30 3543 H 336.978 -2.35407 -2.90748 0
M  V30 3544 H 338.311 -3.0819 -3.8377 0
M  V30 3545 N 339.963 1.05934 -1.16686 0
M  V30 3546 C 340.91 2.13499 -0.876748 0
M  V30 3547 C 341.88 1.65162 0.176299 0
M  V30 3548 O 343.065 1.90757 0.0407143 0
M  V30 3549 C 340.205 3.42912 -0.387967 0
M  V30 3550 C 339.318 4.04964 -1.50426 0
M  V30 3551 C 338.453 5.22266 -0.970125 0
M  V30 3552 C 337.492 5.76309 -2.06238 0
M  V30 3553 N 336.629 6.84922 -1.54356 0
M  V30 3554 H 341.469 2.37654 -1.7979 0
M  V30 3555 H 339.006 1.16598 -0.896843 0
M  V30 3556 H 340.964 4.17111 -0.086186 0
M  V30 3557 H 339.594 3.18963 0.496235 0
M  V30 3558 H 338.646 3.28277 -1.92193 0
M  V30 3559 H 339.958 4.41122 -2.32836 0
M  V30 3560 H 339.112 6.03506 -0.621743 0
M  V30 3561 H 337.851 4.87564 -0.115377 0
M  V30 3562 H 336.856 4.93704 -2.41942 0
M  V30 3563 H 338.081 6.13062 -2.92115 0
M  V30 3564 H 336.027 6.52131 -0.711406 0
M  V30 3565 H 335.944 7.20043 -2.30379 0
M  V30 3566 H 337.212 7.69832 -1.22387 0
M  V30 3567 N 341.441 0.965919 1.2453 0
M  V30 3568 C 342.404 0.499547 2.2369 0
M  V30 3569 C 343.404 -0.40294 1.5567 0
M  V30 3570 O 344.594 -0.19865 1.73064 0
M  V30 3571 C 341.726 -0.276792 3.39774 0
M  V30 3572 H 342.919 1.37613 2.66463 0
M  V30 3573 H 340.472 0.750324 1.37112 0
M  V30 3574 H 341.207 -1.17055 3.02438 0
M  V30 3575 H 340.992 0.370826 3.90343 0
M  V30 3576 H 342.482 -0.592175 4.1338 0
M  V30 3577 N 342.919 -1.39368 0.735821 0
M  V30 3578 C 344.165 -2.00794 0.284544 0
M  V30 3579 C 344.498 -1.58255 -1.12557 0
M  V30 3580 O 343.773 -0.811819 -1.76748 0
M  V30 3581 C 344.056 -3.58011 0.387337 0
M  V30 3582 C 343.909 -4.10566 1.83728 0
M  V30 3583 C 345.228 -4.395 -0.22975 0
M  V30 3584 H 342.347 -0.729501 0.104866 0
M  V30 3585 H 344.989 -1.65564 0.93213 0
M  V30 3586 H 343.139 -3.88154 -0.164006 0
M  V30 3587 H 344.811 -3.91139 2.44556 0
M  V30 3588 H 343.054 -3.64095 2.35833 0
M  V30 3589 H 343.725 -5.19702 1.86047 0
M  V30 3590 H 346.201 -4.15406 0.240257 0
M  V30 3591 H 345.077 -5.48752 -0.127485 0
M  V30 3592 H 345.338 -4.22062 -1.3159 0
M  V30 3593 N 344.397 -0.483516 -1.5 0
M  V30 3594 C 345.674 0.129337 -1.95172 0
M  V30 3595 C 346.054 1.55802 -1.4244 0
M  V30 3596 O 345.402 2.19625 -0.630649 0
M  V30 3597 C 345.612 0.0599251 -3.48949 0
M  V30 3598 C 346.96 0.242617 -4.23906 0
M  V30 3599 O 347.984 0.135933 -3.55941 0
M  V30 3600 O 346.843 0.459454 -5.44565 0
M  V30 3601 H 343.937 0.104887 -0.820322 0
M  V30 3602 H 346.483 -0.544807 -1.60717 0
M  V30 3603 H 345.255 -0.937079 -3.79914 0
M  V30 3604 H 344.878 0.774984 -3.89974 0
M  V30 3605 N 345.875 1.56104 -0.216619 0
M  V30 3606 C 347.286 1.844 0.292128 0
M  V30 3607 C 347.637 1.13788 1.59833 0
M  V30 3608 O 346.762 0.405888 2.12559 0
M  V30 3609 C 347.357 3.3452 0.53681 0
M  V30 3610 C 345.916 3.63151 0.989876 0
M  V30 3611 C 345.063 2.77255 0.0502302 0
M  V30 3612 H 348.014 1.52481 -0.439926 0
M  V30 3613 H 348.035 3.54459 1.38345 0
M  V30 3614 H 347.547 3.85885 -0.414031 0
M  V30 3615 H 345.648 3.17238 1.95425 0
M  V30 3616 H 345.761 4.71177 0.867698 0
M  V30 3617 H 344.125 2.48555 0.556117 0
M  V30 3618 H 344.908 3.31416 -0.89544 0
M  V30 3619 N 347.353 -0.0568162 1.57498 0
M  V30 3620 C 348.3 -1.06591 2.04712 0
M  V30 3621 C 349.27 -1.3758 0.930644 0
M  V30 3622 O 350.455 -1.48392 1.19935 0
M  V30 3623 C 347.595 -2.3701 2.50839 0
M  V30 3624 C 346.708 -2.12421 3.76167 0
M  V30 3625 C 345.843 -3.36511 4.11015 0
M  V30 3626 C 344.882 -3.07353 5.2934 0
M  V30 3627 N 344.019 -4.23816 5.59754 0
M  V30 3628 H 348.859 -0.65631 2.90683 0
M  V30 3629 H 346.396 -0.312481 1.43743 0
M  V30 3630 H 348.354 -3.13175 2.7564 0
M  V30 3631 H 346.984 -2.75744 1.67825 0
M  V30 3632 H 346.036 -1.2688 3.58616 0
M  V30 3633 H 347.348 -1.86894 4.62463 0
M  V30 3634 H 346.502 -4.21062 4.36797 0
M  V30 3635 H 345.241 -3.65128 3.23315 0
M  V30 3636 H 344.246 -2.212 5.03339 0
M  V30 3637 H 345.471 -2.80043 6.1867 0
M  V30 3638 H 343.417 -4.52436 4.75014 0
M  V30 3639 H 343.334 -4.01614 6.40501 0
M  V30 3640 H 344.602 -5.0932 5.90096 0
M  V30 3641 N 348.832 -1.54138 -0.328536 0
M  V30 3642 C 350.06 -1.76062 -1.08673 0
M  V30 3643 C 350.475 -0.506852 -1.81869 0
M  V30 3644 O 349.832 0.522223 -1.74869 0
M  V30 3645 C 349.883 -2.95054 -2.08866 0
M  V30 3646 O 349.604 -4.15583 -1.38644 0
M  V30 3647 C 351.105 -3.2915 -2.96943 0
M  V30 3648 H 348.325 -0.587889 -0.323461 0
M  V30 3649 H 350.869 -2.0101 -0.376175 0
M  V30 3650 H 349.024 -2.72394 -2.75464 0
M  V30 3651 H 349.438 -4.82481 -2.05699 0
M  V30 3652 H 350.912 -4.15723 -3.63151 0
M  V30 3653 H 351.389 -2.461 -3.63774 0
M  V30 3654 H 351.995 -3.53871 -2.35914 0
M  V30 3655 N 350.31 0.590341 -1.46126 0
M  V30 3656 C 351.726 0.912917 -1.30912 0
M  V30 3657 C 351.926 1.99616 -0.274893 0
M  V30 3658 O 350.982 2.50397 0.325197 0
M  V30 3659 C 352.295 1.3375 -2.69317 0
M  V30 3660 C 353.843 1.45077 -2.77348 0
M  V30 3661 C 354.318 1.90904 -4.16317 0
M  V30 3662 N 355.809 1.9811 -4.18696 0
M  V30 3663 C 356.544 2.34828 -5.23109 0
M  V30 3664 N 356.04 2.70393 -6.37856 0
M  V30 3665 N 357.833 2.35317 -5.10473 0
M  V30 3666 H 349.984 -0.125358 -2.1203 0
M  V30 3667 H 352.247 0.00658481 -0.947977 0
M  V30 3668 H 351.953 0.615614 -3.4627 0
M  V30 3669 H 351.827 2.30058 -2.9892 0
M  V30 3670 H 354.214 2.16353 -2.00687 0
M  V30 3671 H 354.295 0.4704 -2.51438 0
M  V30 3672 H 353.939 1.20209 -4.9347 0
M  V30 3673 H 353.869 2.89886 -4.39629 0
M  V30 3674 H 356.36 1.73146 -3.359 0
M  V30 3675 H 356.673 2.97341 -7.13308 0
M  V30 3676 H 355.018 2.68048 -6.41229 0
M  V30 3677 H 358.209 2.0695 -4.19868 0
M  V30 3678 H 358.382 2.63605 -5.9196 0
M  V30 3679 N 351.788 1.33704 0.83433 0
M  V30 3680 C 352.718 1.26967 1.95963 0
M  V30 3681 C 353.699 0.149337 1.69443 0
M  V30 3682 O 354.884 0.339852 1.91203 0
M  V30 3683 C 352.014 1.01275 3.32206 0
M  V30 3684 C 350.968 2.09652 3.73136 0
M  V30 3685 C 350.294 1.69166 5.07235 0
M  V30 3686 C 351.594 3.51372 3.86439 0
M  V30 3687 H 353.288 2.2112 2.01857 0
M  V30 3688 H 350.834 1.06447 0.969793 0
M  V30 3689 H 352.787 0.952106 4.10503 0
M  V30 3690 H 351.511 0.0356203 3.26581 0
M  V30 3691 H 350.17 2.14766 2.97104 0
M  V30 3692 H 349.818 0.701437 4.98085 0
M  V30 3693 H 349.518 2.41694 5.35591 0
M  V30 3694 H 351.042 1.64576 5.88003 0
M  V30 3695 H 352.456 3.48734 4.55036 0
M  V30 3696 H 350.853 4.22425 4.26236 0
M  V30 3697 H 351.923 3.89546 2.88759 0
M  V30 3698 N 353.266 -1.05314 1.17247 0
M  V30 3699 C 354.196 -2.1498 0.911362 0
M  V30 3700 C 355.177 -1.69471 -0.146169 0
M  V30 3701 O 356.362 -1.942 0.003812 0
M  V30 3702 C 353.492 -3.4472 0.422528 0
M  V30 3703 C 352.446 -4.03789 1.4191 0
M  V30 3704 C 351.772 -5.28858 0.788274 0
M  V30 3705 C 353.072 -4.41418 2.7919 0
M  V30 3706 H 354.766 -2.3708 1.82848 0
M  V30 3707 H 352.312 -1.13938 0.880569 0
M  V30 3708 H 354.265 -4.20787 0.227289 0
M  V30 3709 H 352.989 -3.22269 -0.530123 0
M  V30 3710 H 351.648 -3.2979 1.60106 0
M  V30 3711 H 351.296 -5.02709 -0.171173 0
M  V30 3712 H 350.996 -5.69338 1.45353 0
M  V30 3713 H 352.52 -6.07612 0.603282 0
M  V30 3714 H 353.934 -5.08524 2.64719 0
M  V30 3715 H 352.331 -4.92913 3.42282 0
M  V30 3716 H 353.401 -3.51819 3.33693 0
M  V30 3717 N 354.744 -0.972509 -1.24016 0
M  V30 3718 C 355.677 -0.45117 -2.23696 0
M  V30 3719 C 356.655 0.477378 -1.55434 0
M  V30 3720 O 357.839 0.407647 -1.84039 0
M  V30 3721 C 354.966 0.34818 -3.36906 0
M  V30 3722 C 354.012 -0.523355 -4.23277 0
M  V30 3723 S 354.845 -1.96647 -4.98087 0
M  V30 3724 C 356.001 -1.17604 -6.14752 0
M  V30 3725 H 356.234 -1.29588 -2.67571 0
M  V30 3726 H 353.767 -0.777903 -1.33372 0
M  V30 3727 H 355.725 0.803387 -4.02562 0
M  V30 3728 H 354.386 1.16792 -2.91579 0
M  V30 3729 H 353.579 0.0906181 -5.03919 0
M  V30 3730 H 353.181 -0.914485 -3.62647 0
M  V30 3731 H 355.473 -0.433434 -6.76112 0
M  V30 3732 H 356.416 -1.95701 -6.8052 0
M  V30 3733 H 356.824 -0.698295 -5.60164 0
M  V30 3734 N 356.222 1.38976 -0.743202 0
M  V30 3735 C 357.452 2.04339 -0.304807 0
M  V30 3736 C 357.86 1.56162 1.06819 0
M  V30 3737 O 357.203 0.725284 1.68776 0
M  V30 3738 C 357.265 3.58716 -0.237369 0
M  V30 3739 C 356.929 4.29905 -1.55018 0
M  V30 3740 C 357.926 4.55987 -2.49744 0
M  V30 3741 C 355.611 4.68294 -1.81675 0
M  V30 3742 C 357.605 5.19478 -3.69353 0
M  V30 3743 C 355.292 5.31512 -3.0156 0
M  V30 3744 C 356.29 5.57037 -3.9522 0
M  V30 3745 O 355.978 6.18941 -5.12998 0
M  V30 3746 H 355.71 0.663439 -0.12971 0
M  V30 3747 H 358.264 1.78852 -1.01001 0
M  V30 3748 H 356.494 3.83133 0.524003 0
M  V30 3749 H 358.183 4.05543 0.170121 0
M  V30 3750 H 358.949 4.26767 -2.30423 0
M  V30 3751 H 354.828 4.47779 -1.09615 0
M  V30 3752 H 358.372 5.39318 -4.42473 0
M  V30 3753 H 354.269 5.60153 -3.20778 0
M  V30 3754 H 355.037 6.37433 -5.13441 0
M  V30 3755 N 357.7 0.491464 1.49741 0
M  V30 3756 C 358.647 -0.292027 2.28945 0
M  V30 3757 C 359.617 -0.968973 1.34908 0
M  V30 3758 O 360.802 -0.97748 1.6386 0
M  V30 3759 C 357.942 -1.35617 3.17336 0
M  V30 3760 C 357.055 -0.691957 4.26422 0
M  V30 3761 C 356.19 -1.73572 5.02042 0
M  V30 3762 C 355.229 -1.05286 6.02977 0
M  V30 3763 N 354.366 -2.0404 6.71798 0
M  V30 3764 H 359.206 0.389654 2.95442 0
M  V30 3765 H 356.743 0.204003 1.45679 0
M  V30 3766 H 358.701 -1.98502 3.66951 0
M  V30 3767 H 357.331 -2.00674 2.52844 0
M  V30 3768 H 356.383 0.0499523 3.80367 0
M  V30 3769 H 357.695 -0.153946 4.98562 0
M  V30 3770 H 356.849 -2.43987 5.55478 0
M  V30 3771 H 355.588 -2.30757 4.29654 0
M  V30 3772 H 354.593 -0.334446 5.48782 0
M  V30 3773 H 355.818 -0.487636 6.77347 0
M  V30 3774 H 353.764 -2.60205 6.02187 0
M  V30 3775 H 353.681 -1.55279 7.39881 0
M  V30 3776 H 354.949 -2.73772 7.29842 0
M  V30 3777 N 359.178 -1.55987 0.224894 0
M  V30 3778 C 360.111 -2.16413 -0.723929 0
M  V30 3779 C 361.089 -1.10952 -1.18863 0
M  V30 3780 O 362.273 -1.39225 -1.27077 0
M  V30 3781 C 359.4 -2.74711 -1.98121 0
M  V30 3782 C 358.446 -3.9303 -1.6562 0
M  V30 3783 S 359.279 -5.29817 -0.778058 0
M  V30 3784 C 360.435 -5.91555 -2.04483 0
M  V30 3785 H 360.668 -2.96555 -0.210347 0
M  V30 3786 H 358.201 -1.54397 0.00955457 0
M  V30 3787 H 360.159 -3.08938 -2.70311 0
M  V30 3788 H 358.82 -1.94555 -2.46591 0
M  V30 3789 H 358.013 -4.32334 -2.59043 0
M  V30 3790 H 357.615 -3.59966 -1.01491 0
M  V30 3791 H 359.907 -6.07732 -2.99446 0
M  V30 3792 H 360.85 -6.87498 -1.69563 0
M  V30 3793 H 361.258 -5.20419 -2.18688 0
M  V30 3794 N 360.656 0.0484629 -1.57525 0
M  V30 3795 C 361.902 0.744226 -1.88651 0
M  V30 3796 C 362.235 1.76029 -0.820212 0
M  V30 3797 O 361.51 1.93782 0.166985 0
M  V30 3798 C 361.793 1.43128 -3.30434 0
M  V30 3799 C 361.646 0.43005 -4.47739 0
M  V30 3800 C 362.965 2.37031 -3.70816 0
M  V30 3801 H 360.084 0.269089 -0.68612 0
M  V30 3802 H 362.726 0.00713532 -1.89999 0
M  V30 3803 H 360.876 2.05956 -3.29415 0
M  V30 3804 H 362.548 -0.194816 -4.60888 0
M  V30 3805 H 360.791 -0.252522 -4.33064 0
M  V30 3806 H 361.462 0.948874 -5.43783 0
M  V30 3807 H 363.938 1.84263 -3.73077 0
M  V30 3808 H 362.814 2.82094 -4.70865 0
M  V30 3809 H 363.075 3.22864 -3.02012 0
M  V30 3810 N 362.134 1.5431 0.320358 0
M  V30 3811 C 363.082 1.84647 1.4145 0
M  V30 3812 C 364.076 0.718624 1.53402 0
M  V30 3813 O 365.282 0.902335 1.5575 0
M  V30 3814 H 361.657 0.585349 0.472091 0
M  V30 3815 H 363.628 2.7614 1.13089 0
M  V30 3816 C 362.377 2.09341 2.77617 0
M  V30 3817 H 361.7 2.9559 2.69196 0
M  V30 3818 H 363.14 2.3452 3.53237 0
M  V30 3819 C 361.599 0.885939 3.25043 0
M  V30 3820 O 362.129 0.0967891 4.01583 0
M  V30 3821 N 360.335 0.696682 2.82125 0
M  V30 3822 H 359.882 1.34006 2.2 0
M  V30 3823 H 359.84 -0.109712 3.14209 0
M  V30 3824 N 363.613 -0.582584 1.46437 0
M  V30 3825 C 364.838 -1.37168 1.55563 0
M  V30 3826 C 365.263 -1.87061 0.19743 0
M  V30 3827 O 364.621 -1.61572 -0.822451 0
M  V30 3828 C 364.669 -2.53511 2.56446 0
M  V30 3829 O 363.773 -3.54953 2.09958 0
M  V30 3830 H 363.114 -0.408494 0.523477 0
M  V30 3831 H 365.644 -0.706646 1.9201 0
M  V30 3832 H 365.654 -3.00426 2.76058 0
M  V30 3833 H 364.329 -2.16549 3.55076 0
M  V30 3834 H 362.906 -3.14516 2.00334 0
M  V30 3835 N 365.091 -1.34144 -0.827227 0
M  V30 3836 C 366.339 -1.26009 -1.58007 0
M  V30 3837 C 366.66 0.170971 -1.94249 0
M  V30 3838 O 365.93 1.10256 -1.61927 0
M  V30 3839 H 364.51 -0.463414 -0.585881 0
M  V30 3840 H 367.172 -1.68005 -0.987951 0
M  V30 3841 H 366.268 -1.86187 -2.50481 0
M  V30 3842 N 366.569 1.04691 -1.17803 0
M  V30 3843 C 367.502 2.12068 -0.842765 0
M  V30 3844 C 368.48 1.61455 0.192608 0
M  V30 3845 O 369.664 1.88359 0.072995 0
M  V30 3846 C 366.791 3.37715 -0.258063 0
M  V30 3847 C 365.837 4.07164 -1.26962 0
M  V30 3848 S 366.67 4.55047 -2.82299 0
M  V30 3849 C 367.826 5.83935 -2.25323 0
M  V30 3850 H 368.059 2.4018 -1.75217 0
M  V30 3851 H 365.592 1.17366 -1.00323 0
M  V30 3852 H 367.55 4.10435 0.0727935 0
M  V30 3853 H 366.211 3.0773 0.629357 0
M  V30 3854 H 365.404 4.9746 -0.809263 0
M  V30 3855 H 365.006 3.40533 -1.54639 0
M  V30 3856 H 367.298 6.57552 -1.63192 0
M  V30 3857 H 368.241 6.34725 -3.13894 0
M  V30 3858 H 368.649 5.3874 -1.68582 0
M  V30 3859 N 368.047 0.979072 1.23499 0
M  V30 3860 C 368.977 0.537606 2.27227 0
M  V30 3861 C 369.958 -0.428539 1.64613 0
M  V30 3862 O 371.143 -0.322191 1.91509 0
M  V30 3863 C 368.273 -0.162052 3.46922 0
M  V30 3864 C 367.227 0.721242 4.21879 0
M  V30 3865 C 366.553 -0.110555 5.34586 0
M  V30 3866 C 367.853 2.01141 4.82016 0
M  V30 3867 H 369.547 1.40462 2.64406 0
M  V30 3868 H 367.093 0.67684 1.27102 0
M  V30 3869 H 369.046 -0.482192 4.18632 0
M  V30 3870 H 367.77 -1.06351 3.08799 0
M  V30 3871 H 366.429 1.02482 3.51984 0
M  V30 3872 H 366.077 -1.0125 4.92704 0
M  V30 3873 H 365.777 0.477325 5.85658 0
M  V30 3874 H 367.301 -0.425107 6.09118 0
M  V30 3875 H 368.715 1.75612 5.45741 0
M  V30 3876 H 367.112 2.54695 5.43369 0
M  V30 3877 H 368.182 2.69909 4.02836 0
M  V30 3878 N 369.525 -1.3858 0.750561 0
M  V30 3879 C 370.435 -2.34278 0.122825 0
M  V30 3880 C 371.451 -1.59116 -0.704131 0
M  V30 3881 O 372.627 -1.91326 -0.628987 0
M  V30 3882 C 369.692 -3.38221 -0.762086 0
M  V30 3883 C 368.753 -4.29227 0.078896 0
M  V30 3884 C 367.986 -5.28205 -0.763874 0
M  V30 3885 O 368.209 -5.34112 -2.00201 0
M  V30 3886 O 367.143 -6.01618 -0.18428 0
M  V30 3887 H 370.969 -2.89649 0.913088 0
M  V30 3888 H 368.554 -1.40374 0.511417 0
M  V30 3889 H 370.436 -4.01872 -1.26793 0
M  V30 3890 H 369.111 -2.85211 -1.5309 0
M  V30 3891 H 368.018 -3.68747 0.630621 0
M  V30 3892 H 369.351 -4.85484 0.810289 0
M  V30 3893 N 371.003 -0.499398 -1.49478 0
M  V30 3894 C 372.231 0.0425456 -2.06856 0
M  V30 3895 C 372.646 1.30964 -1.35992 0
M  V30 3896 O 372.003 1.77172 -0.437762 0
M  V30 3897 C 372.054 0.301735 -3.60239 0
M  V30 3898 O 371.775 -0.915127 -4.28436 0
M  V30 3899 C 373.276 0.887499 -4.34325 0
M  V30 3900 H 370.496 -0.0197482 -0.670709 0
M  V30 3901 H 373.04 -0.696297 -1.92281 0
M  V30 3902 H 371.195 0.990556 -3.74522 0
M  V30 3903 H 371.609 -0.676993 -5.20113 0
M  V30 3904 H 373.083 1.01845 -5.42523 0
M  V30 3905 H 373.56 1.88488 -3.96698 0
M  V30 3906 H 374.166 0.236196 -4.24644 0
M  V30 3907 N 372.481 1.55866 -0.233164 0
M  V30 3908 C 373.73 1.97779 0.39579 0
M  V30 3909 C 374.043 1.12419 1.60066 0
M  V30 3910 O 375.249 1.44283 2.29988 0
M  V30 3911 C 373.705 3.5188 0.755556 0
M  V30 3912 C 373.313 4.45959 -0.427152 0
M  V30 3913 C 375.057 4.02479 1.34946 0
M  V30 3914 C 372.964 5.91383 -0.0443043 0
M  V30 3915 H 371.894 0.738592 0.15165 0
M  V30 3916 H 374.545 1.80486 -0.331212 0
M  V30 3917 H 372.927 3.64816 1.5403 0
M  V30 3918 H 374.101 4.44776 -1.20462 0
M  V30 3919 H 372.416 4.05765 -0.935068 0
M  V30 3920 H 375.013 5.08637 1.649 0
M  V30 3921 H 375.356 3.49014 2.26925 0
M  V30 3922 H 375.889 3.92813 0.62791 0
M  V30 3923 H 372.628 6.48857 -0.930874 0
M  V30 3924 H 372.148 5.95734 0.697238 0
M  V30 3925 H 373.827 6.45893 0.378334 0
M  V30 3926 N 373.959 -0.0401083 1.57549 0
M  V30 3927 C 375.187 -0.745196 1.93014 0
M  V30 3928 C 375.602 -1.6948 0.831984 0
M  V30 3929 O 374.959 -1.81482 -0.192463 0
M  V30 3930 C 375.01 -1.51176 3.28372 0
M  V30 3931 O 374.731 -0.600284 4.33968 0
M  V30 3932 C 376.232 -2.315 3.78051 0
M  V30 3933 H 373.452 -0.210088 0.637263 0
M  V30 3934 H 375.996 -0.000924689 2.045 0
M  V30 3935 H 374.151 -2.20801 3.18317 0
M  V30 3936 H 374.565 -1.13669 5.12035 0
M  V30 3937 H 376.039 -2.80697 4.75303 0
M  V30 3938 H 376.516 -3.12436 3.08675 0
M  V30 3939 H 377.122 -1.66971 3.91153 0
M  V30 3940 N 375.437 -1.54477 -0.31217 0
M  V30 3941 C 376.685 -1.72884 -1.04668 0
M  V30 3942 C 377.006 -0.511477 -1.88173 0
M  V30 3943 O 376.276 0.474407 -1.90069 0
M  V30 3944 H 374.856 -0.637461 -0.389425 0
M  V30 3945 H 377.518 -1.91807 -0.345852 0
M  V30 3946 H 376.614 -2.61334 -1.70619 0
M  V30 3947 N 376.915 0.57481 -1.46744 0
M  V30 3948 C 378.155 1.34369 -1.54027 0
M  V30 3949 C 378.519 1.91051 -0.190642 0
M  V30 3950 O 379.72 2.68444 -0.138255 0
M  V30 3951 C 377.991 2.43706 -2.61423 0
M  V30 3952 S 379.55 3.30915 -2.88167 0
M  V30 3953 H 376.368 0.45768 -0.544105 0
M  V30 3954 H 378.97 0.659959 -1.84024 0
M  V30 3955 H 377.674 2.0047 -3.58106 0
M  V30 3956 H 377.205 3.16842 -2.33184 0
M  V30 3957 H 379.22 4.42742 -2.24039 0
M  V30 3958 N 378.394 1.34581 0.820102 0
M  V30 3959 C 379.643 1.26437 1.57151 0
M  V30 3960 C 379.956 -0.163111 1.94919 0
M  V30 3961 O 381.162 -0.366722 2.69012 0
M  V30 3962 C 379.618 2.21658 2.83541 0
M  V30 3963 C 379.226 3.69679 2.53065 0
M  V30 3964 C 380.97 2.22428 3.61561 0
M  V30 3965 C 378.877 4.56761 3.75664 0
M  V30 3966 H 377.807 0.469707 0.589823 0
M  V30 3967 H 380.458 1.59763 0.902656 0
M  V30 3968 H 378.84 1.81287 3.52067 0
M  V30 3969 H 380.014 4.18605 1.92631 0
M  V30 3970 H 378.329 3.71384 1.88316 0
M  V30 3971 H 380.926 2.8471 4.52597 0
M  V30 3972 H 381.269 1.22434 3.97889 0
M  V30 3973 H 381.802 2.61259 2.99981 0
M  V30 3974 H 378.541 5.57702 3.44454 0
M  V30 3975 H 378.061 4.12568 4.35371 0
M  V30 3976 H 379.74 4.71509 4.43044 0
M  V30 3977 N 379.872 -1.04064 1.18357 0
M  V30 3978 C 381.097 -1.81454 1.00445 0
M  V30 3979 C 381.522 -1.82823 -0.442423 0
M  V30 3980 O 380.88 -1.24555 -1.31741 0
M  V30 3981 C 380.928 -3.24925 1.56384 0
M  V30 3982 O 380.032 -4.04856 0.785209 0
M  V30 3983 H 379.373 -0.560604 0.355835 0
M  V30 3984 H 381.903 -1.31059 1.57114 0
M  V30 3985 H 381.913 -3.75702 1.59097 0
M  V30 3986 H 380.588 -3.23244 2.61699 0
M  V30 3987 H 379.165 -3.63537 0.830399 0
M  V30 3988 N 381.35 -0.985608 -1.22978 0
M  V30 3989 C 382.578 -0.675582 -1.95559 0
M  V30 3990 C 382.993 0.758413 -1.72897 0
M  V30 3991 O 382.35 1.51094 -1.02357 0
M  V30 3992 C 382.401 -0.96293 -3.48439 0
M  V30 3993 O 382.122 -2.34057 -3.70336 0
M  V30 3994 C 383.623 -0.669585 -4.38214 0
M  V30 3995 H 380.843 -0.250523 -0.622478 0
M  V30 3996 H 383.387 -1.3184 -1.56328 0
M  V30 3997 H 381.542 -0.366033 -3.85667 0
M  V30 3998 H 381.956 -2.43424 -4.64591 0
M  V30 3999 H 383.43 -0.920967 -5.44263 0
M  V30 4000 H 383.907 0.396383 -4.37408 0
M  V30 4001 H 384.513 -1.2472 -4.06602 0
M  V30 4002 N 382.828 1.3818 -0.7579 0
M  V30 4003 C 384.076 1.99624 -0.315361 0
M  V30 4004 C 384.397 1.60464 1.10799 0
M  V30 4005 O 383.667 0.863507 1.75842 0
M  V30 4006 H 382.247 0.73831 -0.113611 0
M  V30 4007 H 384.909 1.68878 -0.972952 0
M  V30 4008 H 384.005 3.09754 -0.381931 0
M  V30 4009 N 384.306 0.507319 1.49211 0
M  V30 4010 C 385.253 -0.267728 2.29242 0
M  V30 4011 C 386.223 -0.954609 1.35928 0
M  V30 4012 O 387.408 -0.960046 1.64887 0
M  V30 4013 C 384.548 -1.32243 3.18756 0
M  V30 4014 C 383.661 -0.64669 4.27132 0
M  V30 4015 C 382.796 -1.68238 5.03855 0
M  V30 4016 C 381.835 -0.98885 6.0406 0
M  V30 4017 N 380.972 -1.96903 6.73924 0
M  V30 4018 H 385.812 0.420968 2.95012 0
M  V30 4019 H 383.349 0.219443 1.45454 0
M  V30 4020 H 385.307 -1.94599 3.69036 0
M  V30 4021 H 383.937 -1.97981 2.54958 0
M  V30 4022 H 382.989 0.0902926 3.80293 0
M  V30 4023 H 384.301 -0.101058 4.98698 0
M  V30 4024 H 383.455 -2.38081 5.58034 0
M  V30 4025 H 382.194 -2.26187 4.32077 0
M  V30 4026 H 381.199 -0.276222 5.49106 0
M  V30 4027 H 382.424 -0.415767 6.77826 0
M  V30 4028 H 380.37 -2.53803 6.04913 0
M  V30 4029 H 380.287 -1.47423 7.41487 0
M  V30 4030 H 381.555 -2.66015 7.32705 0
M  V30 4031 N 385.784 -1.5574 0.241426 0
M  V30 4032 C 386.694 -2.2479 -0.671305 0
M  V30 4033 C 387.71 -1.26217 -1.19772 0
M  V30 4034 O 388.886 -1.59079 -1.23514 0
M  V30 4035 C 385.951 -2.92966 -1.85396 0
M  V30 4036 C 385.012 -4.06935 -1.36756 0
M  V30 4037 C 384.245 -4.71851 -2.49384 0
M  V30 4038 O 384.468 -4.35823 -3.67987 0
M  V30 4039 O 383.402 -5.60467 -2.19454 0
M  V30 4040 H 387.228 -3.0349 -0.112966 0
M  V30 4041 H 384.813 -1.49397 0.0101513 0
M  V30 4042 H 386.695 -3.35927 -2.54423 0
M  V30 4043 H 385.37 -2.17211 -2.40002 0
M  V30 4044 H 384.277 -3.68503 -0.644726 0
M  V30 4045 H 385.61 -4.84492 -0.867647 0
M  V30 4046 N 387.262 0.0317525 -1.57568 0
M  V30 4047 C 388.487 0.738664 -1.938 0
M  V30 4048 C 388.912 1.68242 -0.841208 0
M  V30 4049 O 388.27 1.80157 0.203267 0
M  V30 4050 C 388.318 1.47417 -3.29091 0
M  V30 4051 O 387.422 2.5872 -3.2115 0
M  V30 4052 H 386.763 0.198856 -0.633524 0
M  V30 4053 H 389.293 -0.0119713 -2.04596 0
M  V30 4054 H 389.303 1.84468 -3.63917 0
M  V30 4055 H 387.978 0.781988 -4.08482 0
M  V30 4056 H 386.555 2.24231 -2.97951 0
M  V30 4057 N 388.74 1.54641 0.303973 0
M  V30 4058 C 389.986 1.74038 1.04109 0
M  V30 4059 C 390.319 0.523051 1.87024 0
M  V30 4060 O 389.594 -0.479874 1.88487 0
M  V30 4061 C 389.877 3.02761 1.94955 0
M  V30 4062 C 389.73 4.34787 1.1524 0
M  V30 4063 C 391.049 3.27336 2.94175 0
M  V30 4064 H 388.168 0.63323 0.377079 0
M  V30 4065 H 390.81 1.87354 0.316001 0
M  V30 4066 H 388.96 2.9154 2.56782 0
M  V30 4067 H 390.632 4.57922 0.557236 0
M  V30 4068 H 388.875 4.31407 0.455053 0
M  V30 4069 H 389.546 5.21116 1.8205 0
M  V30 4070 H 392.022 3.38148 2.42477 0
M  V30 4071 H 390.898 4.18726 3.54908 0
M  V30 4072 H 391.159 2.45491 3.67677 0
M  V30 4073 N 390.218 -0.567019 1.47046 0
M  V30 4074 C 391.464 -1.32658 1.53394 0
M  V30 4075 C 391.797 -1.93254 0.19148 0
M  V30 4076 O 391.072 -1.77338 -0.798844 0
M  V30 4077 C 391.355 -2.44412 2.64452 0
M  V30 4078 C 391.208 -1.88749 4.08282 0
M  V30 4079 C 392.527 -3.46387 2.71485 0
M  V30 4080 H 389.646 -0.48098 0.558415 0
M  V30 4081 H 392.288 -0.635481 1.79058 0
M  V30 4082 H 390.438 -3.03363 2.427 0
M  V30 4083 H 392.11 -1.34134 4.41368 0
M  V30 4084 H 390.353 -1.19481 4.17021 0
M  V30 4085 H 391.024 -2.69491 4.81745 0
M  V30 4086 H 393.5 -2.9734 2.91081 0
M  V30 4087 H 392.376 -4.2202 3.50985 0
M  V30 4088 H 392.637 -4.04616 1.78153 0
M  V30 4089 N 391.696 -1.35014 -0.812953 0
M  V30 4090 C 392.943 -1.27931 -1.56971 0
M  V30 4091 C 393.271 0.148034 -1.93936 0
M  V30 4092 O 392.526 1.11175 -1.61054 0
M  V30 4093 C 392.825 -2.12524 -2.87347 0
M  V30 4094 C 392.491 -3.61401 -2.6963 0
M  V30 4095 C 391.153 -4.01983 -2.64506 0
M  V30 4096 C 393.505 -4.55894 -2.52607 0
M  V30 4097 C 390.833 -5.35235 -2.40293 0
M  V30 4098 C 393.185 -5.89336 -2.29925 0
M  V30 4099 C 391.849 -6.2907 -2.23219 0
M  V30 4100 H 391.119 -0.468131 -0.574399 0
M  V30 4101 H 393.766 -1.66851 -0.939836 0
M  V30 4102 H 392.071 -1.66463 -3.54679 0
M  V30 4103 H 393.768 -2.04383 -3.45005 0
M  V30 4104 H 390.358 -3.29193 -2.74463 0
M  V30 4105 H 394.542 -4.25431 -2.55583 0
M  V30 4106 H 389.798 -5.65028 -2.33566 0
M  V30 4107 H 393.972 -6.62139 -2.15743 0
M  V30 4108 H 391.599 -7.32256 -2.04219 0
M  V30 4109 N 393.175 1.03435 -1.18907 0
M  V30 4110 C 394.125 2.09924 -0.889706 0
M  V30 4111 C 395.109 1.60261 0.143216 0
M  V30 4112 O 396.301 1.76892 -0.0617122 0
M  V30 4113 C 393.43 3.40669 -0.424168 0
M  V30 4114 C 392.516 3.97082 -1.48952 0
M  V30 4115 N 392.907 4.27227 -2.70759 0
M  V30 4116 C 391.205 4.25029 -1.35152 0
M  V30 4117 C 391.906 4.7246 -3.39347 0
M  V30 4118 N 390.882 4.7366 -2.66735 0
M  V30 4119 H 394.684 2.31116 -1.81555 0
M  V30 4120 H 392.198 1.21246 -1.08042 0
M  V30 4121 H 394.195 4.16461 -0.191176 0
M  V30 4122 H 392.855 3.20901 0.495263 0
M  V30 4123 H 393.866 4.16678 -3.0757 0
M  V30 4124 H 390.543 4.14554 -0.495126 0
M  V30 4125 H 391.933 5.04751 -4.43481 0
M  V30 4126 N 394.653 0.992116 1.22453 0
M  V30 4127 C 395.616 0.546883 2.2258 0
M  V30 4128 C 396.616 -0.369829 1.56489 0
M  V30 4129 O 397.806 -0.161896 1.73446 0
M  V30 4130 C 394.938 -0.204659 3.40285 0
M  V30 4131 H 396.131 1.43234 2.63484 0
M  V30 4132 H 393.684 0.779239 1.3549 0
M  V30 4133 H 394.419 -1.10614 3.04853 0
M  V30 4134 H 394.204 0.45354 3.89468 0
M  V30 4135 H 395.694 -0.504358 4.14543 0
M  V30 4136 N 396.131 -1.37776 0.765217 0
M  V30 4137 C 397.361 -2.03828 0.337277 0
M  V30 4138 C 397.769 -1.57841 -1.04321 0
M  V30 4139 O 397.112 -0.752043 -1.67601 0
M  V30 4140 C 397.174 -3.58292 0.294407 0
M  V30 4141 C 396.838 -4.27384 1.61838 0
M  V30 4142 C 397.835 -4.51956 2.56967 0
M  V30 4143 C 395.52 -4.65345 1.89102 0
M  V30 4144 C 397.514 -5.13536 3.77571 0
M  V30 4145 C 395.201 -5.26647 3.09978 0
M  V30 4146 C 396.199 -5.50679 4.04032 0
M  V30 4147 O 395.887 -6.10702 5.2278 0
M  V30 4148 H 395.619 -0.661292 0.140248 0
M  V30 4149 H 398.173 -1.77222 1.03834 0
M  V30 4150 H 396.403 -3.83918 -0.462983 0
M  V30 4151 H 398.092 -4.05763 -0.105581 0
M  V30 4152 H 398.858 -4.23048 2.37183 0
M  V30 4153 H 394.737 -4.45978 1.16725 0
M  V30 4154 H 398.281 -5.3221 4.50997 0
M  V30 4155 H 394.178 -5.54979 3.29649 0
M  V30 4156 H 394.946 -6.29183 5.23517 0
M  V30 4157 N 397.609 -0.515225 -1.4894 0
M  V30 4158 C 398.857 0.0241671 -2.02086 0
M  V30 4159 C 399.178 1.3616 -1.3959 0
M  V30 4160 O 398.448 1.87841 -0.556121 0
M  V30 4161 H 397.028 0.0119203 -0.746905 0
M  V30 4162 H 399.69 -0.675702 -1.82812 0
M  V30 4163 H 398.786 0.143385 -3.1177 0
M  V30 4164 N 399.087 1.5561 -0.249682 0
M  V30 4165 C 400.335 1.98618 0.373548 0
M  V30 4166 C 400.656 1.13919 1.58264 0
M  V30 4167 O 399.926 0.222637 1.94631 0
M  V30 4168 H 398.506 0.733571 0.141006 0
M  V30 4169 H 401.168 1.91748 -0.349117 0
M  V30 4170 H 400.264 3.04584 0.680796 0
M  V30 4171 N 400.565 -0.0233959 1.57583 0
M  V30 4172 C 401.79 -0.728376 1.94189 0
M  V30 4173 C 402.215 -1.67793 0.850119 0
M  V30 4174 O 401.573 -1.80262 -0.19371 0
M  V30 4175 C 401.621 -1.45669 3.29868 0
M  V30 4176 O 400.725 -2.57013 3.22518 0
M  V30 4177 H 400.066 -0.195493 0.63457 0
M  V30 4178 H 402.596 0.0228214 2.04587 0
M  V30 4179 H 402.606 -1.82535 3.6489 0
M  V30 4180 H 401.281 -0.760314 4.08891 0
M  V30 4181 H 399.858 -2.22648 2.99136 0
M  V30 4182 N 402.043 -1.548 -0.295768 0
M  V30 4183 C 402.976 -1.81003 -1.38972 0
M  V30 4184 C 403.954 -0.661544 -1.48534 0
M  V30 4185 O 405.138 -0.902074 -1.65514 0
M  V30 4186 C 402.265 -1.95141 -2.76835 0
M  V30 4187 C 401.311 -3.17592 -2.84671 0
M  V30 4188 S 402.144 -4.75531 -2.46232 0
M  V30 4189 C 403.3 -4.92613 -3.86114 0
M  V30 4190 H 403.533 -2.73507 -1.16537 0
M  V30 4191 H 401.066 -1.46278 -0.494168 0
M  V30 4192 H 403.024 -2.03972 -3.56238 0
M  V30 4193 H 401.685 -1.03565 -2.96535 0
M  V30 4194 H 400.878 -3.24303 -3.85803 0
M  V30 4195 H 400.48 -3.07235 -2.13267 0
M  V30 4196 H 402.772 -4.76957 -4.81164 0
M  V30 4197 H 403.715 -5.94698 -3.8437 0
M  V30 4198 H 404.123 -4.2073 -3.76359 0
M  V30 4199 N 403.521 0.559213 -1.47345 0
M  V30 4200 C 404.431 1.69388 -1.62311 0
M  V30 4201 C 405.447 1.6648 -0.505993 0
M  V30 4202 O 406.623 1.85964 -0.773262 0
M  V30 4203 C 403.688 3.05894 -1.63185 0
M  V30 4204 C 402.749 3.19885 -2.86307 0
M  V30 4205 C 401.982 4.49879 -2.87131 0
M  V30 4206 O 402.205 5.35217 -1.97229 0
M  V30 4207 O 401.139 4.67618 -3.78968 0
M  V30 4208 H 404.965 1.59706 -2.58317 0
M  V30 4209 H 402.55 0.728989 -1.30407 0
M  V30 4210 H 404.432 3.87133 -1.66451 0
M  V30 4211 H 403.107 3.15964 -0.70345 0
M  V30 4212 H 402.014 2.38052 -2.88587 0
M  V30 4213 H 403.347 3.14718 -3.78435 0
M  V30 4214 N 404.999 1.35443 0.805782 0
M  V30 4215 C 406.276 1.19325 1.54987 0
M  V30 4216 C 406.656 -0.227294 2.09873 0
M  V30 4217 O 406.004 -1.2309 1.92512 0
M  V30 4218 C 406.214 2.26196 2.65775 0
M  V30 4219 C 407.562 2.62043 3.34094 0
M  V30 4220 O 408.586 2.25115 2.76046 0
M  V30 4221 O 407.445 3.25542 4.38958 0
M  V30 4222 H 404.539 0.463623 0.684823 0
M  V30 4223 H 407.085 1.47127 0.845674 0
M  V30 4224 H 405.857 3.21471 2.23096 0
M  V30 4225 H 405.48 1.99667 3.43829 0
M  V30 4226 N 406.477 -1.02803 1.19454 0
M  V30 4227 C 407.387 -2.14575 0.948408 0
M  V30 4228 C 408.403 -1.73757 -0.091871 0
M  V30 4229 O 409.579 -2.01185 0.0929654 0
M  V30 4230 C 406.644 -3.43202 0.491265 0
M  V30 4231 C 405.705 -3.98328 1.60103 0
M  V30 4232 C 404.938 -5.20816 1.16561 0
M  V30 4233 O 405.161 -5.70392 0.0295238 0
M  V30 4234 O 404.095 -5.68801 1.96849 0
M  V30 4235 H 407.921 -2.38202 1.88397 0
M  V30 4236 H 405.506 -1.12989 0.977433 0
M  V30 4237 H 407.388 -4.20687 0.245015 0
M  V30 4238 H 406.063 -3.21018 -0.415851 0
M  V30 4239 H 404.97 -3.22174 1.90144 0
M  V30 4240 H 406.303 -4.24879 2.48473 0
M  V30 4241 N 407.956 -0.998596 -1.21925 0
M  V30 4242 C 408.903 -0.553621 -2.24062 0
M  V30 4243 C 409.873 0.416999 -1.6078 0
M  V30 4244 O 411.058 0.320482 -1.88089 0
M  V30 4245 C 408.198 0.119959 -3.44891 0
M  V30 4246 C 407.311 -0.893077 -4.22668 0
M  V30 4247 C 406.446 -0.192424 -5.30851 0
M  V30 4248 C 405.485 -1.19344 -6.00353 0
M  V30 4249 N 404.622 -0.520707 -7.00166 0
M  V30 4250 H 409.462 -1.4293 -2.61486 0
M  V30 4251 H 406.999 -0.715838 -1.28507 0
M  V30 4252 H 408.957 0.527459 -4.13852 0
M  V30 4253 H 407.587 0.959389 -3.08214 0
M  V30 4254 H 406.639 -1.41886 -3.52948 0
M  V30 4255 H 407.951 -1.65512 -4.70539 0
M  V30 4256 H 407.105 0.271515 -6.06092 0
M  V30 4257 H 405.844 0.602075 -4.83969 0
M  V30 4258 H 404.849 -1.66795 -5.23889 0
M  V30 4259 H 406.074 -1.98891 -6.49322 0
M  V30 4260 H 404.02 0.254252 -6.55507 0
M  V30 4261 H 403.937 -1.2211 -7.46073 0
M  V30 4262 H 405.205 -0.0797596 -7.79459 0
M  V30 4263 N 409.434 1.37368 -0.772513 0
M  V30 4264 C 410.344 2.34053 -0.160081 0
M  V30 4265 C 411.36 1.60216 0.678728 0
M  V30 4266 O 412.536 1.92303 0.59847 0
M  V30 4267 C 409.601 3.3939 0.708182 0
M  V30 4268 C 408.662 4.29048 -0.147172 0
M  V30 4269 C 407.895 5.29354 0.679744 0
M  V30 4270 O 408.118 5.3723 1.91678 0
M  V30 4271 O 407.052 6.01835 0.0885444 0
M  V30 4272 H 410.878 2.88159 -0.959053 0
M  V30 4273 H 408.463 1.39543 -0.533685 0
M  V30 4274 H 410.345 4.03839 1.20384 0
M  V30 4275 H 409.02 2.8761 1.48533 0
M  V30 4276 H 407.927 3.67697 -0.689205 0
M  V30 4277 H 409.26 4.84134 -0.887423 0
M  V30 4278 N 410.912 0.523116 1.48665 0
M  V30 4279 C 412.189 -0.0775449 1.95446 0
M  V30 4280 C 412.569 -1.5197 1.4652 0
M  V30 4281 O 411.917 -2.17876 0.688657 0
M  V30 4282 C 412.127 0.0326135 3.48985 0
M  V30 4283 C 413.475 -0.130141 4.24401 0
M  V30 4284 O 414.499 -0.0415142 3.56176 0
M  V30 4285 O 413.358 -0.31491 5.45592 0
M  V30 4286 H 410.452 -0.0831012 0.822814 0
M  V30 4287 H 412.998 0.587227 1.59216 0
M  V30 4288 H 411.77 1.03748 3.77296 0
M  V30 4289 H 411.393 -0.671317 3.91892 0
M  V30 4290 N 412.39 -1.55475 0.257931 0
M  V30 4291 C 413.615 -2.04064 -0.370488 0
M  V30 4292 C 414.04 -1.13565 -1.49948 0
M  V30 4293 O 413.398 -0.130781 -1.80828 0
M  V30 4294 C 413.446 -3.50554 -0.845237 0
M  V30 4295 O 412.55 -3.63173 -1.95394 0
M  V30 4296 H 411.891 -0.659257 -0.0792243 0
M  V30 4297 H 414.421 -2.00903 0.387212 0
M  V30 4298 H 414.431 -3.91588 -1.14555 0
M  V30 4299 H 413.106 -4.15896 -0.0191259 0
M  V30 4300 H 411.683 -3.34039 -1.65748 0
M  V30 4301 N 413.868 0.0150385 -1.57593 0
M  V30 4302 C 414.815 1.01126 -2.07466 0
M  V30 4303 C 415.785 1.35064 -0.966794 0
M  V30 4304 O 416.97 1.4516 -1.23827 0
M  V30 4305 C 414.11 2.30276 -2.57035 0
M  V30 4306 C 413.223 2.02373 -3.81666 0
M  V30 4307 C 412.358 3.25496 -4.19793 0
M  V30 4308 C 411.397 2.93211 -5.37303 0
M  V30 4309 N 410.534 4.08826 -5.70794 0
M  V30 4310 H 415.374 0.57901 -2.92321 0
M  V30 4311 H 412.911 0.27426 -1.44521 0
M  V30 4312 H 414.869 3.05757 -2.83846 0
M  V30 4313 H 413.499 2.71197 -1.75077 0
M  V30 4314 H 412.551 1.17327 -3.61854 0
M  V30 4315 H 413.863 1.74567 -4.67256 0
M  V30 4316 H 413.017 4.09333 -4.47807 0
M  V30 4317 H 411.756 3.56428 -3.32882 0
M  V30 4318 H 410.761 2.07777 -5.09027 0
M  V30 4319 H 411.986 2.63542 -6.25877 0
M  V30 4320 H 409.932 4.39682 -4.86842 0
M  V30 4321 H 409.849 3.84491 -6.50924 0
M  V30 4322 H 411.117 4.93496 -6.03392 0
M  V30 4323 N 415.346 1.54954 0.287554 0
M  V30 4324 C 416.592 1.75132 1.02257 0
M  V30 4325 C 416.925 0.542858 1.86458 0
M  V30 4326 O 416.2 -0.459856 1.88986 0
M  V30 4327 C 416.483 3.04812 1.91733 0
M  V30 4328 C 416.336 4.35985 1.10622 0
M  V30 4329 C 417.655 3.30438 2.90687 0
M  V30 4330 H 414.774 0.637194 0.370341 0
M  V30 4331 H 417.416 1.87678 0.296111 0
M  V30 4332 H 415.566 2.94247 2.53675 0
M  V30 4333 H 417.238 4.58487 0.508636 0
M  V30 4334 H 415.481 4.31865 0.409271 0
M  V30 4335 H 416.152 5.23017 1.76513 0
M  V30 4336 H 418.628 3.40701 2.38877 0
M  V30 4337 H 417.504 4.22467 3.50447 0
M  V30 4338 H 417.765 2.49377 3.65053 0
M  V30 4339 N 416.824 -0.551391 1.4764 0
M  V30 4340 C 418.073 -1.30467 1.53822 0
M  V30 4341 C 418.386 -1.94495 0.207661 0
M  V30 4342 O 419.592 -2.71099 0.147533 0
M  V30 4343 C 418.048 -2.36616 2.71184 0
M  V30 4344 C 417.656 -1.78754 4.10793 0
M  V30 4345 C 419.4 -3.13088 2.86663 0
M  V30 4346 C 417.307 -2.82717 5.19447 0
M  V30 4347 H 416.237 -0.490584 0.572576 0
M  V30 4348 H 418.888 -0.58494 1.73927 0
M  V30 4349 H 417.27 -3.11529 2.4447 0
M  V30 4350 H 418.444 -1.10173 4.47435 0
M  V30 4351 H 416.759 -1.14846 4.00249 0
M  V30 4352 H 419.356 -3.90736 3.65007 0
M  V30 4353 H 419.699 -3.67635 1.95321 0
M  V30 4354 H 420.232 -2.45288 3.13175 0
M  V30 4355 H 416.971 -2.33018 6.12685 0
M  V30 4356 H 416.491 -3.4969 4.87316 0
M  V30 4357 H 418.17 -3.46102 5.46646 0
M  V30 4358 N 418.302 -1.35869 -0.798587 0
M  V30 4359 C 419.713 -1.26498 -1.37314 0
M  V30 4360 C 420.064 0.0991899 -1.95949 0
M  V30 4361 O 419.189 1.0004 -1.91888 0
M  V30 4362 C 419.784 -2.29054 -2.49639 0
M  V30 4363 C 418.343 -2.234 -3.02935 0
M  V30 4364 C 417.49 -2.14329 -1.75949 0
M  V30 4365 H 420.441 -1.46881 -0.600971 0
M  V30 4366 H 420.462 -1.92166 -3.28409 0
M  V30 4367 H 419.974 -3.2833 -2.06933 0
M  V30 4368 H 418.075 -1.27562 -3.50084 0
M  V30 4369 H 418.188 -3.15703 -3.60372 0
M  V30 4370 H 416.552 -1.60435 -1.9782 0
M  V30 4371 H 417.335 -3.15477 -1.35384 0
M  V30 4372 N 419.78 1.02168 -1.19998 0
M  V30 4373 C 421.008 1.79296 -1.03249 0
M  V30 4374 C 421.423 1.84103 0.418502 0
M  V30 4375 O 420.78 1.29031 1.29063 0
M  V30 4376 C 420.831 3.24007 -1.60319 0
M  V30 4377 O 420.552 3.19512 -2.99739 0
M  V30 4378 C 422.053 4.17704 -1.48453 0
M  V30 4379 H 419.273 0.564016 -0.363493 0
M  V30 4380 H 421.817 1.28639 -1.58973 0
M  V30 4381 H 419.972 3.7183 -1.08727 0
M  V30 4382 H 420.386 4.10306 -3.26725 0
M  V30 4383 H 421.86 5.17104 -1.93153 0
M  V30 4384 H 422.337 4.37029 -0.436193 0
M  V30 4385 H 422.943 3.7576 -1.99211 0
M  V30 4386 N 421.258 1.00505 1.21394 0
M  V30 4387 C 422.168 0.574806 2.27449 0
M  V30 4388 C 423.184 -0.382206 1.6975 0
M  V30 4389 O 424.36 -0.246027 1.99892 0
M  V30 4390 C 421.425 -0.0917414 3.46579 0
M  V30 4391 C 420.486 0.909758 4.1955 0
M  V30 4392 C 419.719 0.274924 5.32991 0
M  V30 4393 O 419.942 -0.928254 5.62796 0
M  V30 4394 O 418.876 0.985877 5.93771 0
M  V30 4395 H 422.702 1.45744 2.66444 0
M  V30 4396 H 420.287 0.773923 1.27792 0
M  V30 4397 H 422.169 -0.464551 4.18832 0
M  V30 4398 H 420.844 -0.948755 3.09484 0
M  V30 4399 H 419.751 1.33372 3.49518 0
M  V30 4400 H 421.084 1.73636 4.60555 0
M  V30 4401 N 422.737 -1.36956 0.779787 0
M  V30 4402 C 423.977 -2.01328 0.353043 0
M  V30 4403 C 424.341 -1.60558 -1.05286 0
M  V30 4404 O 425.542 -2.1745 -1.58016 0
M  V30 4405 C 423.813 -3.53874 0.500822 0
M  V30 4406 S 425.372 -4.38506 0.16053 0
M  V30 4407 H 422.19 -0.69799 0.13539 0
M  V30 4408 H 424.792 -1.67016 1.01617 0
M  V30 4409 H 423.496 -3.81034 1.52451 0
M  V30 4410 H 423.027 -3.92994 -0.178574 0
M  V30 4411 H 425.042 -4.85153 -1.04121 0
M  V30 4412 N 424.215 -0.530993 -1.48385 0
M  V30 4413 C 425.178 0.220497 -2.28137 0
M  V30 4414 C 426.178 0.866851 -1.35434 0
M  V30 4415 O 427.368 0.726746 -1.58316 0
M  V30 4416 C 424.5 1.31921 -3.1434 0
M  V30 4417 H 425.693 -0.479714 -2.96038 0
M  V30 4418 H 423.246 -0.286968 -1.53643 0
M  V30 4419 H 423.981 2.05264 -2.51072 0
M  V30 4420 H 423.766 0.86085 -3.82533 0
M  V30 4421 H 425.256 1.84776 -3.74497 0
M  V30 4422 N 425.693 1.55336 -0.266172 0
M  V30 4423 C 426.942 1.98574 0.353749 0
M  V30 4424 C 427.255 1.15789 1.57646 0
M  V30 4425 O 428.461 1.49129 2.26876 0
M  V30 4426 C 426.917 3.53403 0.680747 0
M  V30 4427 C 426.525 4.44953 -0.52165 0
M  V30 4428 C 428.269 4.05251 1.26379 0
M  V30 4429 C 426.176 5.91156 -0.169736 0
M  V30 4430 H 425.106 0.741643 0.135949 0
M  V30 4431 H 427.757 1.79743 -0.369421 0
M  V30 4432 H 426.139 3.68001 1.46257 0
M  V30 4433 H 427.313 4.42121 -1.29869 0
M  V30 4434 H 425.628 4.03691 -1.02093 0
M  V30 4435 H 428.225 5.12021 1.54074 0
M  V30 4436 H 428.568 3.53749 2.19471 0
M  V30 4437 H 429.101 3.94057 0.544447 0
M  V30 4438 H 425.84 6.46736 -1.0683 0
M  V30 4439 H 425.36 5.97079 0.570717 0
M  V30 4440 H 427.039 6.4655 0.241245 0
M  V30 4441 N 427.171 -0.0066808 1.57599 0
M  V30 4442 C 428.118 -1.00024 2.08 0
M  V30 4443 C 429.088 -1.34549 0.973943 0
M  V30 4444 O 430.273 -1.44502 1.24595 0
M  V30 4445 C 427.413 -2.2891 2.58252 0
M  V30 4446 C 426.526 -2.00346 3.82734 0
M  V30 4447 C 425.661 -3.23265 4.21513 0
M  V30 4448 C 424.7 -2.90357 5.3885 0
M  V30 4449 N 423.837 -4.05793 5.72954 0
M  V30 4450 H 428.677 -0.563499 2.92624 0
M  V30 4451 H 426.214 -0.266592 1.44664 0
M  V30 4452 H 428.172 -3.04247 2.85464 0
M  V30 4453 H 426.802 -2.70265 1.76512 0
M  V30 4454 H 425.854 -1.15406 3.62471 0
M  V30 4455 H 427.166 -1.72086 4.68175 0
M  V30 4456 H 426.32 -4.06953 4.49971 0
M  V30 4457 H 425.059 -3.54657 3.34768 0
M  V30 4458 H 424.064 -2.05075 5.10122 0
M  V30 4459 H 425.289 -2.60219 6.27266 0
M  V30 4460 H 423.235 -4.37094 4.89167 0
M  V30 4461 H 423.152 -3.81034 6.52954 0
M  V30 4462 H 424.42 -4.90289 6.06001 0
M  V30 4463 N 428.649 -1.55105 -0.279332 0
M  V30 4464 C 429.895 -1.75672 -1.01327 0
M  V30 4465 C 430.228 -0.552739 -1.86168 0
M  V30 4466 O 429.503 0.449827 -1.89227 0
M  V30 4467 C 429.786 -3.05825 -1.90114 0
M  V30 4468 C 429.639 -4.36565 -1.08309 0
M  V30 4469 C 430.958 -3.31975 -2.8893 0
M  V30 4470 H 428.077 -0.639149 -0.366957 0
M  V30 4471 H 430.719 -1.87833 -0.286154 0
M  V30 4472 H 428.869 -2.95588 -2.52111 0
M  V30 4473 H 430.541 -4.58751 -0.484314 0
M  V30 4474 H 428.784 -4.32076 -0.386362 0
M  V30 4475 H 429.455 -5.23946 -1.73737 0
M  V30 4476 H 431.931 -3.41963 -2.37067 0
M  V30 4477 H 430.807 -4.2432 -3.48201 0
M  V30 4478 H 431.068 -2.51309 -3.63725 0
M  V30 4479 N 430.127 0.543554 -1.4793 0
M  V30 4480 C 431.374 1.30008 -1.55255 0
M  V30 4481 C 431.702 1.93245 -0.220612 0
M  V30 4482 O 430.957 1.79141 0.787843 0
M  V30 4483 C 431.256 2.42078 -2.62932 0
M  V30 4484 C 430.922 1.96583 -4.0579 0
M  V30 4485 C 429.584 1.83893 -4.44676 0
M  V30 4486 C 431.936 1.62034 -4.95373 0
M  V30 4487 C 429.264 1.34969 -5.70964 0
M  V30 4488 C 431.616 1.14577 -6.22137 0
M  V30 4489 C 430.28 1.00493 -6.59892 0
M  V30 4490 H 429.55 0.475735 -0.568117 0
M  V30 4491 H 432.197 0.608075 -1.81589 0
M  V30 4492 H 430.502 3.16892 -2.30406 0
M  V30 4493 H 432.199 3.00236 -2.65818 0
M  V30 4494 H 428.789 2.07407 -3.75074 0
M  V30 4495 H 432.973 1.70705 -4.66019 0
M  V30 4496 H 428.229 1.2274 -5.98953 0
M  V30 4497 H 432.403 0.869109 -6.90955 0
M  V30 4498 H 430.03 0.623624 -7.57638 0
M  V30 4499 N 431.605 1.3629 0.791371 0
M  V30 4500 C 432.552 1.30458 1.90393 0
M  V30 4501 C 433.522 0.173632 1.6519 0
M  V30 4502 O 434.707 0.35983 1.87376 0
M  V30 4503 C 431.847 1.09777 3.27174 0
M  V30 4504 C 430.96 2.31929 3.64462 0
M  V30 4505 C 430.095 2.04276 4.90352 0
M  V30 4506 C 429.134 3.224 5.20312 0
M  V30 4507 N 428.271 2.94424 6.37385 0
M  V30 4508 H 433.111 2.25589 1.94714 0
M  V30 4509 H 430.648 1.12122 0.952216 0
M  V30 4510 H 432.606 0.958133 4.06049 0
M  V30 4511 H 431.236 0.183014 3.22281 0
M  V30 4512 H 430.288 2.56703 2.80727 0
M  V30 4513 H 431.6 3.20085 3.82553 0
M  V30 4514 H 430.754 1.87231 5.77087 0
M  V30 4515 H 429.493 1.13428 4.74326 0
M  V30 4516 H 428.498 3.40005 4.32061 0
M  V30 4517 H 429.723 4.14071 5.38258 0
M  V30 4518 H 427.669 2.06185 6.22755 0
M  V30 4519 H 427.586 3.76118 6.55798 0
M  V30 4520 H 428.854 2.80953 7.27108 0
M  V30 4521 N 433.083 -1.0153 1.20538 0
M  V30 4522 C 434.311 -1.78746 1.04199 0
M  V30 4523 C 434.726 -1.84323 -0.408733 0
M  V30 4524 O 434.083 -1.29714 -1.28377 0
M  V30 4525 C 434.134 -3.23152 1.62035 0
M  V30 4526 O 433.855 -3.17918 3.0143 0
M  V30 4527 C 435.356 -4.16911 1.50666 0
M  V30 4528 H 432.576 -0.56208 0.366479 0
M  V30 4529 H 435.12 -1.27794 1.59653 0
M  V30 4530 H 433.275 -3.71248 1.10697 0
M  V30 4531 H 433.689 -4.08567 3.28897 0
M  V30 4532 H 435.163 -5.16072 1.95892 0
M  V30 4533 H 435.64 -4.36791 0.459363 0
M  V30 4534 H 436.246 -3.74698 2.01201 0
M  V30 4535 N 434.561 -1.01147 -1.20859 0
M  V30 4536 C 435.789 -0.716911 -1.94082 0
M  V30 4537 C 436.204 0.721568 -1.74467 0
M  V30 4538 O 435.561 1.48889 -1.05539 0
M  V30 4539 C 435.612 -1.03662 -3.46318 0
M  V30 4540 O 435.333 -2.4186 -3.65288 0
M  V30 4541 C 436.834 -0.762386 -4.36695 0
M  V30 4542 H 434.054 -0.26367 -0.617024 0
M  V30 4543 H 436.598 -1.35127 -1.53496 0
M  V30 4544 H 434.753 -0.447757 -3.84804 0
M  V30 4545 H 435.167 -2.53224 -4.59323 0
M  V30 4546 H 436.641 -1.03621 -5.42187 0
M  V30 4547 H 437.118 0.303514 -4.3815 0
M  V30 4548 H 437.724 -1.33316 -4.03865 0
M  V30 4549 N 436.039 1.36541 -0.78704 0
M  V30 4550 C 436.969 2.32659 -0.197992 0
M  V30 4551 C 437.95 1.56533 0.665697 0
M  V30 4552 O 439.135 1.84698 0.60001 0
M  V30 4553 C 436.265 3.40778 0.669901 0
M  V30 4554 C 435.219 4.27897 -0.0937039 0
M  V30 4555 C 434.545 5.27163 0.894629 0
M  V30 4556 C 435.845 5.06334 -1.28154 0
M  V30 4557 H 437.539 2.82171 -1.00099 0
M  V30 4558 H 435.085 1.35665 -0.482793 0
M  V30 4559 H 437.038 4.07008 1.09191 0
M  V30 4560 H 435.762 2.89827 1.50558 0
M  V30 4561 H 434.421 3.6322 -0.49666 0
M  V30 4562 H 434.069 4.72486 1.72527 0
M  V30 4563 H 433.769 5.86317 0.388149 0
M  V30 4564 H 435.293 5.96266 1.31525 0
M  V30 4565 H 436.707 5.65617 -0.93541 0
M  V30 4566 H 435.104 5.74888 -1.72115 0
M  V30 4567 H 436.174 4.38114 -2.07807 0
M  V30 4568 N 437.518 0.538854 1.48102 0
M  V30 4569 C 438.466 -0.232325 2.31437 0
M  V30 4570 C 439.46 -0.927004 1.41785 0
M  V30 4571 O 440.666 -0.850378 1.58646 0
M  V30 4572 H 437.041 -0.0937916 0.746128 0
M  V30 4573 H 439.012 0.489986 2.9435 0
M  V30 4574 C 437.761 -1.26074 3.24038 0
M  V30 4575 H 437.084 -0.735609 3.92974 0
M  V30 4576 H 438.524 -1.77157 3.85216 0
M  V30 4577 C 436.983 -2.29902 2.46265 0
M  V30 4578 O 437.513 -3.36502 2.19384 0
M  V30 4579 N 435.719 -2.03348 2.07601 0
M  V30 4580 H 435.266 -1.16675 2.29662 0
M  V30 4581 H 435.224 -2.73038 1.55877 0
M  V30 4582 N 438.996 -1.55193 0.274407 0
M  V30 4583 C 439.906 -2.26164 -0.623473 0
M  V30 4584 C 440.922 -1.28729 -1.17068 0
M  V30 4585 O 442.098 -1.61663 -1.20112 0
M  V30 4586 C 439.163 -2.96833 -1.7914 0
M  V30 4587 C 438.224 -4.09745 -1.28093 0
M  V30 4588 C 437.457 -4.77034 -2.3932 0
M  V30 4589 O 437.68 -4.4353 -3.5866 0
M  V30 4590 O 436.614 -5.64996 -2.07516 0
M  V30 4591 H 440.44 -3.03661 -0.0485661 0
M  V30 4592 H 438.025 -1.49341 0.0418382 0
M  V30 4593 H 439.907 -3.41248 -2.4724 0
M  V30 4594 H 438.582 -2.22253 -2.35341 0
M  V30 4595 H 437.489 -3.69787 -0.566416 0
M  V30 4596 H 438.822 -4.86224 -0.764683 0
M  V30 4597 N 440.474 -0.00167713 -1.576 0
M  V30 4598 C 441.721 0.68282 -1.90641 0
M  V30 4599 C 442.049 1.73686 -0.875415 0
M  V30 4600 O 441.304 1.95334 0.119575 0
M  V30 4601 C 441.603 1.36189 -3.30435 0
M  V30 4602 C 441.269 0.440887 -4.48739 0
M  V30 4603 C 439.931 0.187312 -4.80835 0
M  V30 4604 C 442.283 -0.193134 -5.20842 0
M  V30 4605 C 439.611 -0.70855 -5.82406 0
M  V30 4606 C 441.963 -1.07688 -6.23367 0
M  V30 4607 C 440.627 -1.33962 -6.53919 0
M  V30 4608 H 439.897 0.249862 -0.697603 0
M  V30 4609 H 442.544 -0.0575642 -1.91413 0
M  V30 4610 H 440.849 2.17636 -3.25794 0
M  V30 4611 H 442.546 1.89759 -3.5326 0
M  V30 4612 H 439.136 0.648694 -4.23663 0
M  V30 4613 H 443.32 -0.0102445 -4.96299 0
M  V30 4614 H 438.576 -0.920097 -6.04437 0
M  V30 4615 H 442.75 -1.57451 -6.78367 0
M  V30 4616 H 440.377 -2.03549 -7.32442 0
M  V30 4617 N 441.952 1.55251 0.271103 0
M  V30 4618 C 442.899 1.88261 1.33516 0
M  V30 4619 C 443.869 0.734296 1.48988 0
M  V30 4620 O 445.054 0.985741 1.63364 0
M  V30 4621 C 442.194 2.16168 2.69008 0
M  V30 4622 C 441.307 3.43678 2.61743 0
M  V30 4623 C 440.442 3.61276 3.89427 0
M  V30 4624 C 439.481 4.82472 3.7668 0
M  V30 4625 N 438.618 4.96717 4.96202 0
M  V30 4626 H 443.458 2.79015 1.04665 0
M  V30 4627 H 440.995 1.38137 0.505618 0
M  V30 4628 H 442.953 2.30349 3.47844 0
M  V30 4629 H 441.583 1.28646 2.96057 0
M  V30 4630 H 440.635 3.37959 1.74607 0
M  V30 4631 H 441.947 4.3265 2.48224 0
M  V30 4632 H 441.101 3.75284 4.76704 0
M  V30 4633 H 439.84 2.70492 4.05814 0
M  V30 4634 H 438.845 4.68465 2.87786 0
M  V30 4635 H 440.07 5.74692 3.61809 0
M  V30 4636 H 438.016 4.08865 5.12997 0
M  V30 4637 H 437.933 5.79738 4.85222 0
M  V30 4638 H 439.201 5.15113 5.85046 0
M  V30 4639 N 443.43 -0.535701 1.48216 0
M  V30 4640 C 444.378 -1.66179 1.62749 0
M  V30 4641 C 445.372 -1.62034 0.49409 0
M  V30 4642 O 446.578 -1.6696 0.672624 0
M  V30 4643 H 442.953 -0.550244 0.512578 0
M  V30 4644 H 444.924 -1.51063 2.57337 0
M  V30 4645 C 443.673 -3.04471 1.67907 0
M  V30 4646 H 442.996 -3.08351 2.54479 0
M  V30 4647 H 444.436 -3.82894 1.82121 0
M  V30 4648 C 442.895 -3.34314 0.416596 0
M  V30 4649 O 443.425 -3.98905 -0.473014 0
M  V30 4650 N 441.631 -2.89149 0.290038 0
M  V30 4651 H 441.178 -2.36764 1.01493 0
M  V30 4652 H 441.136 -3.09486 -0.55367 0
M  V30 4653 N 444.908 -1.36708 -0.784132 0
M  V30 4654 C 446.324 -1.17237 -1.08294 0
M  V30 4655 C 446.524 -5.93947e-05 -2.015 0
M  V30 4656 O 445.58 0.663686 -2.43622 0
M  V30 4657 C 446.893 -2.48557 -1.69233 0
M  V30 4658 C 448.441 -2.54968 -1.8155 0
M  V30 4659 C 448.916 -3.86388 -2.45904 0
M  V30 4660 N 450.407 -3.87762 -2.53367 0
M  V30 4661 C 451.142 -4.86191 -3.03983 0
M  V30 4662 N 450.638 -5.95015 -3.54866 0
M  V30 4663 N 452.431 -4.73606 -3.02743 0
M  V30 4664 H 444.582 -2.11758 -0.16501 0
M  V30 4665 H 446.845 -0.93822 -0.135822 0
M  V30 4666 H 446.551 -3.34638 -1.08215 0
M  V30 4667 H 446.425 -2.64748 -2.68679 0
M  V30 4668 H 448.812 -1.69302 -2.41704 0
M  V30 4669 H 448.893 -2.42672 -0.80895 0
M  V30 4670 H 448.537 -4.72462 -1.86392 0
M  V30 4671 H 448.467 -3.95982 -3.4714 0
M  V30 4672 H 450.958 -3.09145 -2.17343 0
M  V30 4673 H 451.271 -6.66086 -3.91854 0
M  V30 4674 H 449.616 -5.98676 -3.53003 0
M  V30 4675 H 452.807 -3.87717 -2.62284 0
M  V30 4676 H 452.98 -5.50473 -3.41881 0
M  V30 4677 N 446.386 1.0089 -1.21074 0
M  V30 4678 C 447.663 1.71834 -0.934469 0
M  V30 4679 C 448.043 2.0368 0.554753 0
M  V30 4680 O 447.391 1.70742 1.51854 0
M  V30 4681 C 447.601 2.98061 -1.8155 0
M  V30 4682 C 448.949 3.7117 -2.06199 0
M  V30 4683 O 449.973 3.08034 -1.78867 0
M  V30 4684 O 448.832 4.84721 -2.52404 0
M  V30 4685 H 445.926 0.749253 -0.35007 0
M  V30 4686 H 448.472 1.06668 -1.31985 0
M  V30 4687 H 447.244 2.70908 -2.82355 0
M  V30 4688 H 446.867 3.70968 -1.43068 0
M  V30 4689 N 447.864 1.01787 1.20321 0
M  V30 4690 C 448.811 0.589197 2.23153 0
M  V30 4691 C 449.781 -0.391367 1.61423 0
M  V30 4692 O 450.966 -0.290518 1.88575 0
M  V30 4693 C 448.106 -0.0650747 3.45039 0
M  V30 4694 C 447.219 0.960207 4.21194 0
M  V30 4695 C 446.354 0.276854 5.30478 0
M  V30 4696 C 445.393 1.2888 5.98378 0
M  V30 4697 N 444.53 0.632031 6.99249 0
M  V30 4698 H 449.37 1.47071 2.59179 0
M  V30 4699 H 446.907 0.736192 1.27352 0
M  V30 4700 H 448.865 -0.461552 4.14639 0
M  V30 4701 H 447.495 -0.910233 3.09701 0
M  V30 4702 H 446.547 1.47484 3.50646 0
M  V30 4703 H 447.859 1.72977 4.67847 0
M  V30 4704 H 447.013 -0.175056 6.06447 0
M  V30 4705 H 445.752 -0.525004 4.84866 0
M  V30 4706 H 444.757 1.75109 5.21169 0
M  V30 4707 H 445.982 2.09196 6.46076 0
M  V30 4708 H 443.928 -0.149935 6.55829 0
M  V30 4709 H 443.845 1.33964 7.44036 0
M  V30 4710 H 445.113 0.203755 7.79234 0
M  V30 4711 N 449.342 -1.36122 0.79427 0
M  V30 4712 C 450.572 -2.03067 0.380437 0
M  V30 4713 C 450.98 -1.60018 -1.00949 0
M  V30 4714 O 450.323 -0.787425 -1.65968 0
M  V30 4715 C 450.385 -3.57587 0.37034 0
M  V30 4716 C 450.049 -4.23855 1.70867 0
M  V30 4717 C 451.046 -4.46404 2.66496 0
M  V30 4718 C 448.731 -4.61229 1.9893 0
M  V30 4719 C 450.725 -5.05412 3.88378 0
M  V30 4720 C 448.412 -5.19953 3.21079 0
M  V30 4721 C 449.41 -5.41985 4.15621 0
M  V30 4722 O 449.098 -5.99475 5.35616 0
M  V30 4723 H 448.83 -0.658168 0.154243 0
M  V30 4724 H 451.384 -1.7498 1.0757 0
M  V30 4725 H 449.614 -3.84814 -0.381444 0
M  V30 4726 H 451.303 -4.05895 -0.0194894 0
M  V30 4727 H 452.069 -4.17921 2.46103 0
M  V30 4728 H 447.948 -4.43402 1.26158 0
M  V30 4729 H 451.492 -5.22524 4.62185 0
M  V30 4730 H 447.389 -5.47862 3.41347 0
M  V30 4731 H 448.157 -6.17937 5.36745 0
M  V30 4732 N 450.82 -0.546701 -1.47814 0
M  V30 4733 C 452.069 -0.0166497 -2.01693 0
M  V30 4734 C 452.382 1.33721 -1.42752 0
M  V30 4735 O 453.588 1.95658 -1.8823 0
M  V30 4736 C 452.044 0.0206769 -3.59894 0
M  V30 4737 C 451.652 -1.3293 -4.27824 0
M  V30 4738 C 453.396 0.498674 -4.21561 0
M  V30 4739 C 451.303 -1.25165 -5.78003 0
M  V30 4740 H 450.233 -0.0024541 -0.753996 0
M  V30 4741 H 452.884 -0.692984 -1.69912 0
M  V30 4742 H 451.266 0.76244 -3.88591 0
M  V30 4743 H 452.44 -2.08795 -4.10781 0
M  V30 4744 H 450.755 -1.74438 -3.78101 0
M  V30 4745 H 453.352 0.575 -5.31599 0
M  V30 4746 H 453.695 1.5083 -3.88016 0
M  V30 4747 H 454.228 -0.18791 -3.97356 0
M  V30 4748 H 450.967 -2.23695 -6.1615 0
M  V30 4749 H 450.487 -0.53464 -5.97412 0
M  V30 4750 H 452.166 -0.949299 -6.39998 0
M  V30 4751 N 452.299 1.55045 -0.282633 0
M  V30 4752 C 453.246 2.22822 0.601566 0
M  V30 4753 C 454.216 1.20431 1.14392 0
M  V30 4754 O 455.401 1.48996 1.19184 0
M  V30 4755 C 452.541 2.95873 1.77632 0
M  V30 4756 C 451.654 4.12999 1.26711 0
M  V30 4757 C 450.789 4.73676 2.40426 0
M  V30 4758 C 449.828 5.82981 1.86545 0
M  V30 4759 N 448.965 6.3769 2.93762 0
M  V30 4760 H 453.805 2.97995 0.0169528 0
M  V30 4761 H 451.342 1.471 -0.00339964 0
M  V30 4762 H 453.3 3.36447 2.46697 0
M  V30 4763 H 451.93 2.2311 2.33285 0
M  V30 4764 H 450.982 3.77494 0.469314 0
M  V30 4765 H 452.294 4.91803 0.832518 0
M  V30 4766 H 451.448 5.17008 3.17471 0
M  V30 4767 H 450.187 3.94164 2.87203 0
M  V30 4768 H 449.192 5.39092 1.07983 0
M  V30 4769 H 450.417 6.64366 1.40694 0
M  V30 4770 H 448.363 5.61069 3.39908 0
M  V30 4771 H 448.28 7.11788 2.54744 0
M  V30 4772 H 449.548 6.8568 3.7076 0
M  V30 4773 N 453.777 0.010035 1.57597 0
M  V30 4774 C 455.054 -0.710296 1.82248 0
M  V30 4775 C 455.434 -1.91426 0.889911 0
M  V30 4776 O 454.782 -2.28424 -0.0590292 0
M  V30 4777 C 454.992 -1.10655 3.30993 0
M  V30 4778 C 456.34 -1.50621 3.96987 0
M  V30 4779 O 457.364 -1.20007 3.35375 0
M  V30 4780 O 456.223 -2.07587 5.05539 0
M  V30 4781 H 453.317 -0.34673 0.750804 0
M  V30 4782 H 455.863 0.0362578 1.69661 0
M  V30 4783 H 454.635 -0.248826 3.90508 0
M  V30 4784 H 454.258 -1.91189 3.48615 0
M  V30 4785 N 455.255 -1.55392 -0.262866 0
M  V30 4786 C 456.532 -1.67204 -1.01499 0
M  V30 4787 C 456.912 -0.545186 -2.03939 0
M  V30 4788 O 456.26 0.453467 -2.23955 0
M  V30 4789 C 456.47 -3.06847 -1.6627 0
M  V30 4790 C 457.818 -3.64928 -2.17054 0
M  V30 4791 O 458.842 -3.09545 -1.76239 0
M  V30 4792 O 457.701 -4.61984 -2.91947 0
M  V30 4793 H 454.795 -0.679467 -0.471438 0
M  V30 4794 H 457.341 -1.67729 -0.257918 0
M  V30 4795 H 456.113 -3.80309 -0.920915 0
M  V30 4796 H 455.736 -3.10266 -2.48638 0
M  V30 4797 N 456.733 0.527833 -1.48498 0
M  V30 4798 C 457.98 1.28354 -1.56625 0
M  V30 4799 C 458.308 1.93 -0.241096 0
M  V30 4800 O 457.563 1.79967 0.768798 0
M  V30 4801 C 457.862 2.39275 -2.65485 0
M  V30 4802 C 457.528 1.92268 -4.07853 0
M  V30 4803 C 456.19 1.79166 -4.46602 0
M  V30 4804 C 458.542 1.56771 -4.97064 0
M  V30 4805 C 455.87 1.28905 -5.72364 0
M  V30 4806 C 458.222 1.07972 -6.23318 0
M  V30 4807 C 456.886 0.934887 -6.60921 0
M  V30 4808 H 456.156 0.469682 -0.573131 0
M  V30 4809 H 458.803 0.588781 -1.82224 0
M  V30 4810 H 457.108 3.1443 -2.33754 0
M  V30 4811 H 458.805 2.974 -2.68988 0
M  V30 4812 H 455.395 2.03417 -3.77252 0
M  V30 4813 H 459.579 1.65753 -4.67803 0
M  V30 4814 H 454.835 1.16381 -6.00221 0
M  V30 4815 H 459.009 0.795775 -6.91838 0
M  V30 4816 H 456.636 0.543231 -7.58257 0
M  V30 4817 N 458.211 1.37122 0.776871 0
M  V30 4818 C 459.627 1.1781 1.07671 0
M  V30 4819 C 459.827 0.0107454 2.01497 0
M  V30 4820 O 458.883 -0.650756 2.4397 0
M  V30 4821 C 460.196 2.49451 1.67913 0
M  V30 4822 C 461.744 2.55927 1.80195 0
M  V30 4823 C 462.219 3.87686 2.43851 0
M  V30 4824 N 463.71 3.891 2.51307 0
M  V30 4825 C 464.445 4.87797 3.014 0
M  V30 4826 N 463.941 5.96888 3.51705 0
M  V30 4827 N 465.734 4.75205 3.00227 0
M  V30 4828 H 457.885 2.11843 0.153778 0
M  V30 4829 H 460.148 0.938927 0.130844 0
M  V30 4830 H 459.854 3.35207 1.06439 0
M  V30 4831 H 459.728 2.66169 2.67271 0
M  V30 4832 H 462.115 1.70582 2.40803 0
M  V30 4833 H 462.196 2.43097 0.796069 0
M  V30 4834 H 461.84 4.73444 1.83884 0
M  V30 4835 H 461.77 3.97817 3.45035 0
M  V30 4836 H 464.261 3.10293 2.157 0
M  V30 4837 H 464.574 6.68155 3.88316 0
M  V30 4838 H 462.919 6.0054 3.49824 0
M  V30 4839 H 466.11 3.89103 2.60224 0
M  V30 4840 H 466.283 5.52279 3.38957 0
M  V30 4841 N 459.689 -1.00246 1.21608 0
M  V30 4842 C 460.936 -1.74061 1.03485 0
M  V30 4843 C 461.264 -1.89658 -0.431308 0
M  V30 4844 O 460.519 -1.42976 -1.33627 0
M  V30 4845 C 460.818 -3.15448 1.68009 0
M  V30 4846 C 460.484 -3.19792 3.17874 0
M  V30 4847 C 459.146 -3.20685 3.58768 0
M  V30 4848 C 461.498 -3.16835 4.13842 0
M  V30 4849 C 458.826 -3.16309 4.94131 0
M  V30 4850 C 461.178 -3.14001 5.49169 0
M  V30 4851 C 459.842 -3.13204 5.89457 0
M  V30 4852 H 459.112 -0.636934 0.378677 0
M  V30 4853 H 461.759 -1.17473 1.51236 0
M  V30 4854 H 460.064 -3.75284 1.12557 0
M  V30 4855 H 461.761 -3.71285 1.51487 0
M  V30 4856 H 458.351 -3.19842 2.85305 0
M  V30 4857 H 462.535 -3.15303 3.83272 0
M  V30 4858 H 457.791 -3.14032 5.24589 0
M  V30 4859 H 461.965 -3.10667 6.23265 0
M  V30 4860 H 459.592 -3.09568 6.94314 0
M  V30 4861 N 461.167 -1.02423 -1.1978 0
M  V30 4862 C 462.114 -0.601023 -2.22837 0
M  V30 4863 C 463.084 0.382801 -1.61629 0
M  V30 4864 O 464.269 0.280514 -1.88727 0
M  V30 4865 C 461.409 0.0467755 -3.45068 0
M  V30 4866 C 460.522 -0.98253 -4.20678 0
M  V30 4867 C 459.657 -0.304982 -5.30324 0
M  V30 4868 C 458.696 -1.32052 -5.97686 0
M  V30 4869 N 457.833 -0.669105 -6.98904 0
M  V30 4870 H 462.673 -1.48444 -2.58396 0
M  V30 4871 H 460.21 -0.742936 -1.2696 0
M  V30 4872 H 462.168 0.439556 -4.14878 0
M  V30 4873 H 460.798 0.893796 -3.10179 0
M  V30 4874 H 459.85 -1.49341 -3.49859 0
M  V30 4875 H 461.162 -1.75455 -4.66923 0
M  V30 4876 H 460.316 0.142893 -6.06532 0
M  V30 4877 H 459.055 0.499283 -4.85138 0
M  V30 4878 H 458.06 -1.7787 -5.20233 0
M  V30 4879 H 459.285 -2.1262 -6.44957 0
M  V30 4880 H 457.231 0.115152 -6.55899 0
M  V30 4881 H 457.148 -1.37908 -7.43315 0
M  V30 4882 H 458.416 -0.245076 -7.79115 0
M  V30 4883 N 462.645 1.35699 -0.801477 0
M  V30 4884 C 463.922 1.9324 -0.302937 0
M  V30 4885 C 464.302 1.73209 1.20672 0
M  V30 4886 O 463.65 1.09809 2.00385 0
M  V30 4887 C 463.86 3.41728 -0.708747 0
M  V30 4888 C 465.208 4.18868 -0.695328 0
M  V30 4889 O 466.232 3.5022 -0.649971 0
M  V30 4890 O 465.091 5.41342 -0.749081 0
M  V30 4891 H 462.185 0.82331 -0.0780367 0
M  V30 4892 H 464.731 1.44806 -0.884832 0
M  V30 4893 H 463.503 3.50015 -1.74944 0
M  V30 4894 H 463.126 3.97471 -0.101384 0
M  V30 4895 N 464.123 0.554532 1.47522 0
M  V30 4896 C 465.539 0.214107 1.58157 0
M  V30 4897 C 465.739 -1.28331 1.55349 0
M  V30 4898 O 464.795 -2.06329 1.45549 0
M  V30 4899 C 466.108 0.838391 2.88776 0
M  V30 4900 C 467.656 0.809374 3.02354 0
M  V30 4901 C 468.131 1.41268 4.35669 0
M  V30 4902 N 469.622 1.37574 4.42298 0
M  V30 4903 C 470.357 1.8122 5.4401 0
M  V30 4904 N 469.853 2.3271 6.52547 0
M  V30 4905 N 471.646 1.72307 5.35039 0
M  V30 4906 H 463.797 1.52744 1.4759 0
M  V30 4907 H 466.06 0.636812 0.702264 0
M  V30 4908 H 465.766 1.89065 2.96559 0
M  V30 4909 H 465.64 0.329847 3.75755 0
M  V30 4910 H 468.027 -0.234187 2.94169 0
M  V30 4911 H 468.108 1.35565 2.16924 0
M  V30 4912 H 467.752 2.45529 4.4461 0
M  V30 4913 H 467.682 0.841871 5.19827 0
M  V30 4914 H 470.173 0.999081 3.64454 0
M  V30 4915 H 470.486 2.63944 7.26329 0
M  V30 4916 H 468.831 2.36719 6.53444 0
M  V30 4917 H 472.022 1.3186 4.49144 0
M  V30 4918 H 472.195 2.06641 6.14169 0
M  V30 4919 N 465.601 -1.54893 0.290851 0
M  V30 4920 C 466.848 -1.99933 -0.321391 0
M  V30 4921 C 467.176 -1.17927 -1.54672 0
M  V30 4922 O 466.431 -0.240902 -1.94212 0
M  V30 4923 C 466.73 -3.49815 -0.732397 0
M  V30 4924 C 466.396 -4.4921 0.390056 0
M  V30 4925 C 465.058 -4.76107 0.698223 0
M  V30 4926 C 467.41 -5.08453 1.14562 0
M  V30 4927 C 464.738 -5.59514 1.76526 0
M  V30 4928 C 467.09 -5.9302 2.2025 0
M  V30 4929 C 465.754 -6.18232 2.51684 0
M  V30 4930 H 465.024 -0.731608 -0.117605 0
M  V30 4931 H 467.671 -1.87107 0.407839 0
M  V30 4932 H 465.976 -3.60199 -1.54155 0
M  V30 4933 H 467.673 -3.82083 -1.21712 0
M  V30 4934 H 464.263 -4.28372 0.13976 0
M  V30 4935 H 468.447 -4.87683 0.920801 0
M  V30 4936 H 463.703 -5.77289 2.01364 0
M  V30 4937 H 467.877 -6.37955 2.7926 0
M  V30 4938 H 465.504 -6.82653 3.34499 0
M  V30 4939 N 467.08 -0.0183926 -1.57589 0
M  V30 4940 C 468.305 0.676634 -1.96052 0
M  V30 4941 C 468.73 1.6548 -0.894307 0
M  V30 4942 O 468.088 1.80712 0.145849 0
M  V30 4943 C 468.136 1.36872 -3.33614 0
M  V30 4944 O 467.24 2.48372 -3.29219 0
M  V30 4945 H 466.581 0.1786 -0.63953 0
M  V30 4946 H 469.111 -0.077056 -2.04455 0
M  V30 4947 H 469.121 1.72797 -3.69601 0
M  V30 4948 H 467.796 0.651636 -4.10763 0
M  V30 4949 H 466.373 2.14639 -3.04934 0
M  V30 4950 N 468.558 1.5553 0.254621 0
M  V30 4951 C 469.505 1.89666 1.31512 0
M  V30 4952 C 470.475 0.750057 1.482 0
M  V30 4953 O 471.66 1.00301 1.62309 0
M  V30 4954 C 468.8 2.19009 2.667 0
M  V30 4955 C 467.913 3.46435 2.58083 0
M  V30 4956 C 467.048 3.65386 3.85573 0
M  V30 4957 C 466.087 4.8644 3.71541 0
M  V30 4958 N 465.224 5.01952 4.90906 0
M  V30 4959 H 470.064 2.80109 1.017 0
M  V30 4960 H 467.601 1.38666 0.490938 0
M  V30 4961 H 469.559 2.34025 3.45381 0
M  V30 4962 H 468.189 1.31779 2.94676 0
M  V30 4963 H 467.241 3.39792 1.71013 0
M  V30 4964 H 468.553 4.35258 2.43622 0
M  V30 4965 H 467.707 3.80319 4.72697 0
M  V30 4966 H 466.446 2.74781 4.02922 0
M  V30 4967 H 465.451 4.71491 2.82801 0
M  V30 4968 H 466.676 5.78497 3.55694 0
M  V30 4969 H 464.622 4.14283 5.08631 0
M  V30 4970 H 464.539 5.84851 4.79046 0
M  V30 4971 H 465.807 5.21289 5.7955 0
M  V30 4972 N 470.036 -0.519951 1.48776 0
M  V30 4973 C 470.966 -1.63253 1.66945 0
M  V30 4974 C 471.947 -1.62014 0.518224 0
M  V30 4975 O 473.132 -1.79053 0.751919 0
M  V30 4976 C 470.262 -3.0181 1.71836 0
M  V30 4977 C 469.216 -3.17911 2.8656 0
M  V30 4978 C 468.542 -4.5763 2.76548 0
M  V30 4979 C 469.842 -2.99729 4.27738 0
M  V30 4980 H 471.536 -1.48302 2.6009 0
M  V30 4981 H 469.082 -0.712026 1.25165 0
M  V30 4982 H 471.035 -3.79525 1.83135 0
M  V30 4983 H 469.759 -3.17806 0.752775 0
M  V30 4984 H 468.418 -2.42616 2.74833 0
M  V30 4985 H 468.066 -4.70476 1.77937 0
M  V30 4986 H 467.766 -4.69346 3.53536 0
M  V30 4987 H 469.29 -5.37431 2.89828 0
M  V30 4988 H 470.704 -3.67228 4.40246 0
M  V30 4989 H 469.101 -3.22932 5.05801 0
M  V30 4990 H 470.171 -1.96047 4.43502 0
M  V30 4991 N 471.514 -1.37532 -0.769588 0
M  V30 4992 C 472.462 -1.33561 -1.90432 0
M  V30 4993 C 473.456 -0.224027 -1.67912 0
M  V30 4994 O 474.662 -0.392174 -1.75676 0
M  V30 4995 H 471.037 -0.416279 -0.626271 0
M  V30 4996 H 473.008 -2.29348 -1.90899 0
M  V30 4997 C 471.757 -1.16162 -3.27722 0
M  V30 4998 H 471.08 -2.00951 -3.45628 0
M  V30 4999 H 472.52 -1.17434 -4.07413 0
M  V30 5000 C 470.979 0.132583 -3.36639 0
M  V30 5001 O 471.509 1.11539 -3.85904 0
M  V30 5002 N 469.715 0.184013 -2.90017 0
M  V30 5003 H 469.262 -0.616415 -2.50116 0
M  V30 5004 H 469.22 1.04956 -2.96364 0
M  V30 5005 N 472.992 0.995999 -1.22138 0
M  V30 5006 C 474.403 1.54961 -1.04135 0
M  V30 5007 C 474.754 1.92159 0.396147 0
M  V30 5008 O 473.879 1.74435 1.28069 0
M  V30 5009 C 474.474 2.81581 -1.88408 0
M  V30 5010 C 473.033 3.33396 -1.74712 0
M  V30 5011 C 472.18 2.06509 -1.85066 0
M  V30 5012 H 475.131 0.817436 -1.36028 0
M  V30 5013 H 475.152 3.53822 -1.39966 0
M  V30 5014 H 474.664 2.54476 -2.93025 0
M  V30 5015 H 472.765 3.65416 -0.728159 0
M  V30 5016 H 472.878 4.04208 -2.57202 0
M  V30 5017 H 471.242 2.19925 -1.28472 0
M  V30 5018 H 472.025 1.81804 -2.91208 0
M  V30 5019 N 474.47 1.03057 1.19235 0
M  V30 5020 C 475.886 0.747947 1.40989 0
M  V30 5021 C 476.086 -0.666752 1.90149 0
M  V30 5022 O 475.142 -1.43249 2.07933 0
M  V30 5023 C 476.455 1.7855 2.41951 0
M  V30 5024 C 478.003 1.80524 2.55695 0
M  V30 5025 C 478.478 2.83243 3.59913 0
M  V30 5026 N 479.969 2.8207 3.67411 0
M  V30 5027 C 480.704 3.58204 4.47747 0
M  V30 5028 N 480.2 4.44057 5.31775 0
M  V30 5029 N 481.993 3.46738 4.42413 0
M  V30 5030 H 474.144 1.94367 0.856468 0
M  V30 5031 H 476.407 0.840412 0.438647 0
M  V30 5032 H 476.113 2.79973 2.12857 0
M  V30 5033 H 475.987 1.6092 3.41152 0
M  V30 5034 H 478.374 0.79778 2.84112 0
M  V30 5035 H 478.455 2.02229 1.56643 0
M  V30 5036 H 478.099 3.84161 3.32239 0
M  V30 5037 H 478.029 2.58795 4.5862 0
M  V30 5038 H 480.52 2.19803 3.074 0
M  V30 5039 H 480.833 4.98884 5.90199 0
M  V30 5040 H 479.178 4.48129 5.3123 0
M  V30 5041 H 482.369 2.79077 3.75811 0
M  V30 5042 H 482.542 4.06322 5.04783 0
M  V30 5043 N 475.948 -1.35272 0.808662 0
M  V30 5044 C 476.895 -2.29764 0.218482 0
M  V30 5045 C 477.865 -1.52911 -0.648652 0
M  V30 5046 O 479.05 -1.81341 -0.593297 0
M  V30 5047 C 476.19 -3.39388 -0.625282 0
M  V30 5048 C 475.303 -4.31202 0.262516 0
M  V30 5049 C 474.438 -5.27919 -0.589451 0
M  V30 5050 C 473.477 -6.11371 0.298617 0
M  V30 5051 N 472.614 -7.0022 -0.513443 0
M  V30 5052 H 477.454 -2.79645 1.02968 0
M  V30 5053 H 474.991 -1.37629 0.519303 0
M  V30 5054 H 476.949 -4.01615 -1.12966 0
M  V30 5055 H 475.579 -2.90777 -1.40173 0
M  V30 5056 H 474.631 -3.69962 0.885013 0
M  V30 5057 H 475.943 -4.89748 0.945971 0
M  V30 5058 H 475.097 -5.95529 -1.15888 0
M  V30 5059 H 473.836 -4.69875 -1.30647 0
M  V30 5060 H 472.841 -5.42707 0.880301 0
M  V30 5061 H 474.066 -6.71494 1.01352 0
M  V30 5062 H 472.012 -6.44662 -1.21439 0
M  V30 5063 H 471.929 -7.55917 0.111922 0
M  V30 5064 H 473.197 -7.72175 -1.06608 0
M  V30 5065 N 477.426 -0.562348 -1.47226 0
M  V30 5066 C 478.675 -0.038041 -2.01664 0
M  V30 5067 C 478.988 1.32199 -1.44162 0
M  V30 5068 O 480.194 1.9365 -1.90294 0
M  V30 5069 C 478.65 -0.0174958 -3.59896 0
M  V30 5070 C 478.258 -1.3746 -4.2639 0
M  V30 5071 C 480.002 0.453934 -4.22066 0
M  V30 5072 C 477.909 -1.31289 -5.76643 0
M  V30 5073 H 476.839 -0.0104511 -0.753928 0
M  V30 5074 H 479.49 -0.710966 -1.69167 0
M  V30 5075 H 477.872 0.721182 -3.89378 0
M  V30 5076 H 479.046 -2.1314 -4.08544 0
M  V30 5077 H 477.361 -1.78438 -3.7623 0
M  V30 5078 H 479.958 0.518584 -5.32179 0
M  V30 5079 H 480.301 1.46706 -3.89594 0
M  V30 5080 H 480.834 -0.230044 -3.97134 0
M  V30 5081 H 477.573 -2.30217 -6.13743 0
M  V30 5082 H 477.093 -0.597973 -5.96812 0
M  V30 5083 H 478.772 -1.01713 -6.38955 0
M  V30 5084 N 478.904 1.54736 -0.299062 0
M  V30 5085 C 480.153 1.99279 0.311549 0
M  V30 5086 C 480.466 1.19107 1.55154 0
M  V30 5087 O 481.672 1.53908 2.23662 0
M  V30 5088 C 480.128 3.54768 0.605632 0
M  V30 5089 C 479.736 4.43746 -0.615914 0
M  V30 5090 C 481.48 4.07841 1.17754 0
M  V30 5091 C 479.387 5.90663 -0.29509 0
M  V30 5092 H 478.317 0.744359 0.120187 0
M  V30 5093 H 480.968 1.78919 -0.407464 0
M  V30 5094 H 479.35 3.71021 1.38419 0
M  V30 5095 H 480.524 4.39267 -1.39218 0
M  V30 5096 H 478.839 4.01434 -1.10633 0
M  V30 5097 H 481.436 5.15174 1.43179 0
M  V30 5098 H 481.779 3.58324 2.11918 0
M  V30 5099 H 482.312 3.95123 0.460739 0
M  V30 5100 H 479.051 6.44325 -1.20524 0
M  V30 5101 H 478.571 5.98155 0.44394 0
M  V30 5102 H 480.25 6.46916 0.104048 0
M  V30 5103 N 480.382 0.0267497 1.57577 0
M  V30 5104 C 481.798 -0.32962 1.56159 0
M  V30 5105 C 481.998 -1.73059 1.03213 0
M  V30 5106 O 481.054 -2.43233 0.677804 0
M  V30 5107 C 482.367 -0.18039 3.00158 0
M  V30 5108 C 483.915 -0.253334 3.11973 0
M  V30 5109 C 484.39 -0.132921 4.57807 0
M  V30 5110 N 485.881 -0.189979 4.6281 0
M  V30 5111 C 486.616 -0.120554 5.73273 0
M  V30 5112 N 486.112 -0.000180315 6.928 0
M  V30 5113 N 487.905 -0.174369 5.61829 0
M  V30 5114 H 480.056 0.942896 1.90324 0
M  V30 5115 H 482.319 0.3639 0.875375 0
M  V30 5116 H 482.025 0.784576 3.42837 0
M  V30 5117 H 481.899 -0.951565 3.65 0
M  V30 5118 H 484.286 -1.20876 2.69208 0
M  V30 5119 H 484.367 0.548177 2.49857 0
M  V30 5120 H 484.011 0.819073 5.01252 0
M  V30 5121 H 483.941 -0.953264 5.179 0
M  V30 5122 H 486.432 -0.283257 3.76837 0
M  V30 5123 H 486.745 0.0461666 7.72786 0
M  V30 5124 H 485.09 0.034569 6.94991 0
M  V30 5125 H 488.281 -0.266794 4.67339 0
M  V30 5126 H 488.454 -0.116802 6.47895 0
M  V30 5127 N 481.861 -1.55662 -0.24637 0
M  V30 5128 C 482.794 -1.85332 -1.33143 0
M  V30 5129 C 483.772 -0.708464 -1.46354 0
M  V30 5130 O 484.956 -0.954274 -1.6256 0
M  V30 5131 C 482.083 -2.0385 -2.70487 0
M  V30 5132 C 481.129 -3.26488 -2.74423 0
M  V30 5133 S 481.962 -4.83124 -2.30979 0
M  V30 5134 C 483.118 -5.04647 -3.70246 0
M  V30 5135 H 483.351 -2.77077 -1.07777 0
M  V30 5136 H 480.884 -1.47776 -0.44738 0
M  V30 5137 H 482.842 -2.15202 -3.49569 0
M  V30 5138 H 481.503 -1.12947 -2.9309 0
M  V30 5139 H 480.696 -3.36413 -3.7529 0
M  V30 5140 H 480.298 -3.13864 -2.03385 0
M  V30 5141 H 482.59 -4.92023 -4.65746 0
M  V30 5142 H 483.533 -6.06625 -3.65255 0
M  V30 5143 H 483.941 -4.32491 -3.62784 0
M  V30 5144 N 483.339 0.512053 -1.4905 0
M  V30 5145 C 484.585 1.26613 -1.59187 0
M  V30 5146 C 484.94 1.90494 -0.270163 0
M  V30 5147 O 484.233 1.77204 0.728648 0
M  V30 5148 C 484.427 2.36446 -2.68008 0
M  V30 5149 C 484.256 1.83334 -4.10632 0
M  V30 5150 C 483.026 1.65131 -4.77556 0
M  V30 5151 C 485.224 1.35153 -4.96224 0
M  V30 5152 N 483.206 1.06833 -6.04533 0
M  V30 5153 C 484.577 0.889186 -6.13591 0
M  V30 5154 C 486.632 1.23623 -4.82309 0
M  V30 5155 C 485.335 0.322953 -7.18575 0
M  V30 5156 C 487.361 0.683978 -5.87431 0
M  V30 5157 C 486.723 0.2318 -7.04018 0
M  V30 5158 H 482.822 0.453678 -0.636946 0
M  V30 5159 H 485.406 0.575217 -1.86009 0
M  V30 5160 H 483.577 3.03012 -2.42978 0
M  V30 5161 H 485.309 3.03485 -2.67729 0
M  V30 5162 H 482.064 1.89178 -4.34176 0
M  V30 5163 H 482.488 0.796425 -6.72299 0
M  V30 5164 H 487.13 1.57184 -3.92496 0
M  V30 5165 H 484.848 -0.024943 -8.08096 0
M  V30 5166 H 488.434 0.597694 -5.78722 0
M  V30 5167 H 487.314 -0.188869 -7.83973 0
M  V30 5168 N 484.817 1.37938 0.762283 0
M  V30 5169 C 485.78 1.34279 1.85747 0
M  V30 5170 C 486.78 0.244969 1.58923 0
M  V30 5171 O 487.97 0.501365 1.66829 0
M  V30 5172 C 485.102 1.08833 3.23061 0
M  V30 5173 H 486.295 2.31705 1.90401 0
M  V30 5174 H 483.848 1.23105 0.963057 0
M  V30 5175 H 484.583 0.119767 3.24079 0
M  V30 5176 H 484.368 1.88306 3.43923 0
M  V30 5177 H 485.858 1.08946 4.03138 0
M  V30 5178 N 486.295 -0.989507 1.22664 0
M  V30 5179 C 487.205 -2.11449 1.01619 0
M  V30 5180 C 488.221 -1.73962 -0.036545 0
M  V30 5181 O 489.397 -2.00788 0.156924 0
M  V30 5182 C 486.462 -3.41465 0.600204 0
M  V30 5183 C 485.523 -3.93033 1.72695 0
M  V30 5184 C 484.756 -5.16844 1.33071 0
M  V30 5185 O 484.979 -5.7001 0.210975 0
M  V30 5186 O 483.913 -5.6225 2.14845 0
M  V30 5187 H 487.739 -2.32088 1.9588 0
M  V30 5188 H 485.324 -1.09823 1.01289 0
M  V30 5189 H 487.206 -4.19695 0.37873 0
M  V30 5190 H 485.881 -3.22178 -0.313511 0
M  V30 5191 H 484.788 -3.15961 2.00298 0
M  V30 5192 H 486.121 -4.16758 2.61865 0
M  V30 5193 N 487.773 -1.03688 -1.18687 0
M  V30 5194 C 488.72 -0.624624 -2.22187 0
M  V30 5195 C 489.69 0.365636 -1.62026 0
M  V30 5196 O 490.875 0.260481 -1.89014 0
M  V30 5197 C 488.015 0.0101738 -3.45099 0
M  V30 5198 C 487.128 -1.02709 -4.19613 0
M  V30 5199 C 486.263 -0.361213 -5.2997 0
M  V30 5200 C 485.302 -1.38384 -5.96252 0
M  V30 5201 N 484.439 -0.743196 -6.98155 0
M  V30 5202 H 489.279 -1.51176 -2.56807 0
M  V30 5203 H 486.816 -0.75636 -1.26165 0
M  V30 5204 H 488.774 0.395528 -4.15321 0
M  V30 5205 H 487.404 0.860848 -3.1111 0
M  V30 5206 H 486.456 -1.53043 -3.48256 0
M  V30 5207 H 487.768 -1.80398 -4.65036 0
M  V30 5208 H 486.922 0.0785537 -6.06649 0
M  V30 5209 H 485.661 0.447799 -4.8564 0
M  V30 5210 H 484.666 -1.83378 -5.18317 0
M  V30 5211 H 485.891 -2.19448 -6.42666 0
M  V30 5212 H 483.837 0.0455789 -6.55984 0
M  V30 5213 H 483.754 -1.45784 -7.41811 0
M  V30 5214 H 485.022 -0.327698 -7.78811 0
M  V30 5215 N 489.251 1.34841 -0.815825 0
M  V30 5216 C 490.161 2.33425 -0.234462 0
M  V30 5217 C 491.177 1.62295 0.627413 0
M  V30 5218 O 492.353 1.94109 0.536987 0
M  V30 5219 C 489.418 3.41471 0.599849 0
M  V30 5220 C 488.479 4.28362 -0.283596 0
M  V30 5221 C 487.712 5.31248 0.51099 0
M  V30 5222 O 487.935 5.43056 1.7449 0
M  V30 5223 O 486.869 6.01812 -0.10297 0
M  V30 5224 H 490.695 2.84962 -1.05024 0
M  V30 5225 H 488.28 1.37774 -0.577809 0
M  V30 5226 H 490.162 4.07464 1.07475 0
M  V30 5227 H 488.837 2.9219 1.39308 0
M  V30 5228 H 487.744 3.65318 -0.805836 0
M  V30 5229 H 489.077 4.81066 -1.041 0
M  V30 5230 N 490.729 0.570148 1.46925 0
M  V30 5231 C 491.662 -0.218362 2.27153 0
M  V30 5232 C 492.64 -0.90847 1.34854 0
M  V30 5233 O 493.824 -0.924875 1.64251 0
M  V30 5234 C 490.951 -1.3122 3.12248 0
M  V30 5235 C 489.997 -0.729277 4.20219 0
M  V30 5236 S 490.83 0.434159 5.33737 0
M  V30 5237 C 491.986 -0.661188 6.22398 0
M  V30 5238 H 492.219 0.462393 2.93682 0
M  V30 5239 H 489.752 0.356753 1.50222 0
M  V30 5240 H 491.71 -1.93856 3.61842 0
M  V30 5241 H 490.371 -1.96485 2.45056 0
M  V30 5242 H 489.564 -1.5511 4.79538 0
M  V30 5243 H 489.166 -0.178836 3.73572 0
M  V30 5244 H 491.458 -1.55006 6.5953 0
M  V30 5245 H 492.401 -0.105046 7.08022 0
M  V30 5246 H 492.809 -0.959682 5.56283 0
M  V30 5247 N 492.207 -1.54576 0.307264 0
M  V30 5248 C 493.157 -2.20467 -0.581249 0
M  V30 5249 C 494.141 -1.17972 -1.09414 0
M  V30 5250 O 495.333 -1.43667 -1.03387 0
M  V30 5251 C 492.462 -2.95369 -1.74963 0
M  V30 5252 C 491.548 -4.05186 -1.25241 0
M  V30 5253 N 491.939 -5.03577 -0.47364 0
M  V30 5254 C 490.237 -4.18841 -1.53259 0
M  V30 5255 C 490.938 -5.81328 -0.208083 0
M  V30 5256 N 489.914 -5.37834 -0.789651 0
M  V30 5257 H 493.716 -2.93892 0.0212221 0
M  V30 5258 H 491.23 -1.62011 0.112325 0
M  V30 5259 H 493.227 -3.41046 -2.39777 0
M  V30 5260 H 491.887 -2.23461 -2.35574 0
M  V30 5261 H 492.898 -5.17766 -0.117963 0
M  V30 5262 H 489.575 -3.58141 -2.14573 0
M  V30 5263 H 490.965 -6.706 0.417793 0
M  V30 5264 N 493.685 -0.035106 -1.57561 0
M  V30 5265 C 494.633 0.962707 -2.11742 0
M  V30 5266 C 495.627 1.33296 -1.0454 0
M  V30 5267 O 496.833 1.31449 -1.22968 0
M  V30 5268 H 493.208 0.32826 -0.676572 0
M  V30 5269 H 495.179 0.48048 -2.94506 0
M  V30 5270 C 493.928 2.23388 -2.66445 0
M  V30 5271 H 493.251 1.95774 -3.48587 0
M  V30 5272 H 494.691 2.91402 -3.07995 0
M  V30 5273 C 493.15 2.96769 -1.59467 0
M  V30 5274 O 493.68 3.89105 -0.998 0
M  V30 5275 N 491.886 2.59212 -1.31369 0
M  V30 5276 H 491.433 1.84202 -1.80076 0
M  V30 5277 H 491.391 3.08618 -0.600173 0
M  V30 5278 N 495.163 1.55791 0.238111 0
M  V30 5279 C 496.093 1.94068 1.29846 0
M  V30 5280 C 497.074 0.806726 1.49753 0
M  V30 5281 O 498.259 1.06772 1.62214 0
M  V30 5282 C 495.389 2.24302 2.65153 0
M  V30 5283 C 494.343 3.40032 2.59927 0
M  V30 5284 C 493.669 3.55829 3.99111 0
M  V30 5285 C 494.969 4.75476 2.16148 0
M  V30 5286 H 496.663 2.82887 0.980563 0
M  V30 5287 H 494.209 1.36105 0.470253 0
M  V30 5288 H 496.162 2.4967 3.39475 0
M  V30 5289 H 494.886 1.32318 2.98596 0
M  V30 5290 H 493.545 3.14687 1.88063 0
M  V30 5291 H 493.193 2.6125 4.29834 0
M  V30 5292 H 492.893 4.3366 3.96501 0
M  V30 5293 H 494.417 3.83528 4.7512 0
M  V30 5294 H 495.831 5.00158 2.80205 0
M  V30 5295 H 494.228 5.56472 2.24631 0
M  V30 5296 H 495.298 4.71946 1.11333 0
M  V30 5297 N 496.642 -0.504142 1.49319 0
M  V30 5298 C 497.605 -1.5883 1.65244 0
M  V30 5299 C 498.605 -1.52009 0.524386 0
M  V30 5300 O 499.795 -1.55218 0.79077 0
M  V30 5301 C 496.927 -2.98481 1.64687 0
M  V30 5302 H 498.12 -1.4604 2.61939 0
M  V30 5303 H 495.673 -0.728144 1.38303 0
M  V30 5304 H 496.408 -3.16751 0.695644 0
M  V30 5305 H 496.193 -3.0484 2.46607 0
M  V30 5306 H 497.683 -3.77256 1.79075 0
M  V30 5307 N 498.12 -1.38341 -0.754957 0
M  V30 5308 C 499.536 -1.19508 -1.05783 0
M  V30 5309 C 499.736 -0.0428005 -2.01455 0
M  V30 5310 O 498.792 0.611861 -2.44975 0
M  V30 5311 C 500.105 -2.52091 -1.63923 0
M  V30 5312 C 501.653 -2.58762 -1.76101 0
M  V30 5313 C 502.128 -3.91517 -2.37652 0
M  V30 5314 N 503.619 -3.93049 -2.45085 0
M  V30 5315 C 504.354 -4.9253 -2.93602 0
M  V30 5316 N 503.85 -6.02408 -3.42165 0
M  V30 5317 N 505.643 -4.79921 -2.92629 0
M  V30 5318 H 497.794 -2.1206 -0.120056 0
M  V30 5319 H 500.057 -0.94089 -0.11589 0
M  V30 5320 H 499.763 -3.36858 -1.01093 0
M  V30 5321 H 499.637 -2.70388 -2.63003 0
M  V30 5322 H 502.024 -1.74391 -2.38058 0
M  V30 5323 H 502.105 -2.44333 -0.757294 0
M  V30 5324 H 501.749 -4.76309 -1.76329 0
M  V30 5325 H 501.679 -4.03256 -3.38662 0
M  V30 5326 H 504.17 -3.13685 -2.10736 0
M  V30 5327 H 504.483 -6.74248 -3.77637 0
M  V30 5328 H 502.828 -6.0603 -3.40225 0
M  V30 5329 H 506.019 -3.93194 -2.54001 0
M  V30 5330 H 506.192 -5.57601 -3.30128 0
M  V30 5331 N 499.598 0.982988 -1.23187 0
M  V30 5332 C 500.531 2.07302 -0.953993 0
M  V30 5333 C 501.509 1.62249 0.106753 0
M  V30 5334 O 502.693 1.88481 -0.0269525 0
M  V30 5335 C 499.82 3.35873 -0.436716 0
M  V30 5336 C 498.866 3.99862 -1.48367 0
M  V30 5337 S 499.699 4.39443 -3.06023 0
M  V30 5338 C 500.855 5.7117 -2.55959 0
M  V30 5339 H 501.088 2.30554 -1.87702 0
M  V30 5340 H 498.621 1.11883 -1.06403 0
M  V30 5341 H 500.579 4.10244 -0.144872 0
M  V30 5342 H 499.24 3.10634 0.465351 0
M  V30 5343 H 498.433 4.92471 -1.07182 0
M  V30 5344 H 498.035 3.31857 -1.72473 0
M  V30 5345 H 500.327 6.47977 -1.97818 0
M  V30 5346 H 501.27 6.17194 -3.47098 0
M  V30 5347 H 501.678 5.29046 -1.96902 0
M  V30 5348 N 501.076 1.04316 1.18135 0
M  V30 5349 C 502.008 0.594444 2.21357 0
M  V30 5350 C 503.021 -0.337215 1.59269 0
M  V30 5351 O 504.21 -0.131337 1.78016 0
M  V30 5352 C 501.31 -0.151251 3.38562 0
M  V30 5353 C 500.483 0.788907 4.30227 0
M  V30 5354 C 499.542 0.0860572 5.2613 0
M  V30 5355 O 498.568 0.717302 5.64662 0
M  V30 5356 N 499.77 -1.17969 5.68387 0
M  V30 5357 H 502.535 1.48227 2.60478 0
M  V30 5358 H 500.096 0.92396 1.32946 0
M  V30 5359 H 502.088 -0.631352 3.99745 0
M  V30 5360 H 500.658 -0.940639 2.98112 0
M  V30 5361 H 499.878 1.44882 3.6661 0
M  V30 5362 H 501.166 1.42738 4.88368 0
M  V30 5363 H 500.564 -1.71302 5.3914 0
M  V30 5364 H 499.121 -1.60402 6.31755 0
M  V30 5365 N 502.554 -1.34406 0.822964 0
M  V30 5366 C 503.97 -1.51275 0.508727 0
M  V30 5367 C 504.17 -1.76776 -0.967083 0
M  V30 5368 O 503.226 -1.81871 -1.75155 0
M  V30 5369 C 504.539 -2.67765 1.36829 0
M  V30 5370 C 506.087 -2.81647 1.36542 0
M  V30 5371 C 506.562 -4.01181 2.20947 0
M  V30 5372 N 508.053 -4.08388 2.18571 0
M  V30 5373 C 508.788 -5.00036 2.80627 0
M  V30 5374 N 508.284 -5.96906 3.51674 0
M  V30 5375 N 510.077 -4.92908 2.70181 0
M  V30 5376 H 502.228 -1.16113 1.77852 0
M  V30 5377 H 504.491 -0.56947 0.757897 0
M  V30 5378 H 504.197 -2.55551 2.41633 0
M  V30 5379 H 504.071 -3.62779 1.03303 0
M  V30 5380 H 506.458 -2.93303 0.325163 0
M  V30 5381 H 506.539 -1.87443 1.74066 0
M  V30 5382 H 506.183 -3.90286 3.25022 0
M  V30 5383 H 506.113 -4.94599 1.80774 0
M  V30 5384 H 508.604 -3.39051 1.66891 0
M  V30 5385 H 508.917 -6.63468 3.96271 0
M  V30 5386 H 507.262 -5.9703 3.5578 0
M  V30 5387 H 510.453 -4.1619 2.14251 0
M  V30 5388 H 510.626 -5.64137 3.18831 0
M  V30 5389 N 504.032 -0.577932 -1.46621 0
M  V30 5390 C 504.995 0.147805 -2.28723 0
M  V30 5391 C 505.995 0.823325 -1.38123 0
M  V30 5392 O 507.185 0.676011 -1.60548 0
M  V30 5393 C 504.317 1.21853 -3.18378 0
M  V30 5394 H 505.51 -0.573654 -2.94362 0
M  V30 5395 H 503.063 -0.335703 -1.52652 0
M  V30 5396 H 503.798 1.97173 -2.57475 0
M  V30 5397 H 503.583 0.738714 -3.85078 0
M  V30 5398 H 505.073 1.72768 -3.80186 0
M  V30 5399 N 505.51 1.54411 -0.315457 0
M  V30 5400 C 506.758 2.00023 0.288971 0
M  V30 5401 C 507.079 1.20529 1.5329 0
M  V30 5402 O 506.349 0.304986 1.93511 0
M  V30 5403 H 504.929 0.738891 0.109766 0
M  V30 5404 H 507.591 1.90094 -0.430129 0
M  V30 5405 H 506.687 3.07198 0.550999 0
M  V30 5406 N 506.988 0.0434614 1.5754 0
M  V30 5407 C 508.237 -0.631454 1.91561 0
M  V30 5408 C 508.55 -1.72457 0.92292 0
M  V30 5409 O 509.756 -2.45712 1.15489 0
M  V30 5410 C 508.212 -1.17447 3.40197 0
M  V30 5411 C 507.82 -0.113867 4.47855 0
M  V30 5412 C 509.564 -1.82507 3.83264 0
M  V30 5413 C 507.471 -0.669326 5.876 0
M  V30 5414 H 506.401 -0.239629 0.714908 0
M  V30 5415 H 509.052 0.111097 1.83163 0
M  V30 5416 H 507.434 -1.96909 3.43574 0
M  V30 5417 H 508.608 0.659348 4.56058 0
M  V30 5418 H 506.923 0.438821 4.14081 0
M  V30 5419 H 509.52 -2.25047 4.85034 0
M  V30 5420 H 509.863 -2.67365 3.19095 0
M  V30 5421 H 510.396 -1.09712 3.82372 0
M  V30 5422 H 507.135 0.141449 6.55347 0
M  V30 5423 H 506.655 -1.4107 5.82974 0
M  V30 5424 H 508.334 -1.15463 6.36614 0
M  V30 5425 N 508.466 -1.55915 -0.229846 0
M  V30 5426 C 509.877 -1.68809 -0.797531 0
M  V30 5427 C 510.228 -0.643995 -1.8533 0
M  V30 5428 O 509.353 0.206492 -2.15413 0
M  V30 5429 C 509.948 -3.06043 -1.45338 0
M  V30 5430 C 508.507 -3.20819 -1.96856 0
M  V30 5431 C 507.654 -2.6472 -0.825736 0
M  V30 5432 H 510.605 -1.58699 -0.00533733 0
M  V30 5433 H 510.626 -3.01438 -2.32196 0
M  V30 5434 H 510.138 -3.82012 -0.684743 0
M  V30 5435 H 508.239 -2.49704 -2.76548 0
M  V30 5436 H 508.352 -4.27937 -2.15423 0
M  V30 5437 H 506.716 -2.22985 -1.23084 0
M  V30 5438 H 507.499 -3.43229 -0.0699019 0
M  V30 5439 N 509.944 0.496216 -1.49584 0
M  V30 5440 C 511.184 1.26015 -1.60933 0
M  V30 5441 C 511.548 1.89772 -0.291646 0
M  V30 5442 O 512.749 2.67334 -0.280357 0
M  V30 5443 C 511.02 2.29506 -2.73974 0
M  V30 5444 S 512.579 3.15175 -3.05303 0
M  V30 5445 H 509.397 0.428194 -0.567601 0
M  V30 5446 H 511.999 0.561484 -1.87263 0
M  V30 5447 H 510.703 1.81205 -3.68229 0
M  V30 5448 H 510.234 3.04036 -2.49651 0
M  V30 5449 H 512.249 4.30244 -2.47193 0
M  V30 5450 N 511.423 1.38739 0.74761 0
M  V30 5451 C 512.834 1.31507 1.32524 0
M  V30 5452 C 513.185 -0.0263963 1.96182 0
M  V30 5453 O 512.31 -0.92849 1.95469 0
M  V30 5454 C 512.905 2.38162 2.40966 0
M  V30 5455 C 511.464 2.34489 2.94434 0
M  V30 5456 C 510.611 2.20712 1.67873 0
M  V30 5457 H 513.562 1.4901 0.546043 0
M  V30 5458 H 513.583 2.04222 3.21051 0
M  V30 5459 H 513.095 3.35783 1.94605 0
M  V30 5460 H 511.196 1.40467 3.45108 0
M  V30 5461 H 511.309 3.28861 3.48407 0
M  V30 5462 H 509.673 1.67667 1.91729 0
M  V30 5463 H 510.456 3.20285 1.23582 0
M  V30 5464 N 512.901 -0.976442 1.23707 0
M  V30 5465 C 514.129 -1.75341 1.09833 0
M  V30 5466 C 514.544 -1.8553 -0.349885 0
M  V30 5467 O 513.901 -1.33732 -1.24185 0
M  V30 5468 C 513.952 -3.17833 1.72233 0
M  V30 5469 O 513.673 -3.08167 3.11391 0
M  V30 5470 C 515.174 -4.11906 1.63853 0
M  V30 5471 H 512.394 -0.550137 0.384175 0
M  V30 5472 H 514.938 -1.2265 1.63638 0
M  V30 5473 H 513.093 -3.67538 1.22452 0
M  V30 5474 H 513.507 -3.97897 3.41729 0
M  V30 5475 H 514.981 -5.09579 2.12211 0
M  V30 5476 H 515.458 -4.35109 0.598092 0
M  V30 5477 H 516.064 -3.68107 2.13019 0
M  V30 5478 N 514.379 -1.04941 -1.1758 0
M  V30 5479 C 515.625 -0.759112 -1.88057 0
M  V30 5480 C 515.958 0.711918 -1.8068 0
M  V30 5481 O 515.233 1.52035 -1.21308 0
M  V30 5482 C 515.516 -1.237 -3.38187 0
M  V30 5483 C 515.369 -2.77078 -3.54327 0
M  V30 5484 C 516.688 -0.834014 -4.32125 0
M  V30 5485 H 513.807 -0.277237 -0.682868 0
M  V30 5486 H 516.449 -1.30296 -1.38286 0
M  V30 5487 H 514.599 -0.774337 -3.80705 0
M  V30 5488 H 516.271 -3.31449 -3.20842 0
M  V30 5489 H 514.514 -3.16477 -2.96689 0
M  V30 5490 H 515.185 -3.05577 -4.59703 0
M  V30 5491 H 517.661 -1.23228 -3.97434 0
M  V30 5492 H 516.537 -1.19603 -5.35711 0
M  V30 5493 H 516.798 0.262195 -4.41322 0
M  V30 5494 N 515.857 1.33968 -0.830081 0
M  V30 5495 C 517.103 1.98357 -0.422191 0
M  V30 5496 C 517.436 1.65633 1.01387 0
M  V30 5497 O 516.711 0.931648 1.70735 0
M  V30 5498 C 516.994 3.54492 -0.633043 0
M  V30 5499 C 516.847 3.96934 -2.11574 0
M  V30 5500 C 518.166 4.40039 -0.0735584 0
M  V30 5501 H 515.285 0.720544 -0.154871 0
M  V30 5502 H 517.927 1.58749 -1.04397 0
M  V30 5503 H 516.077 3.88361 -0.103775 0
M  V30 5504 H 517.749 3.73363 -2.7092 0
M  V30 5505 H 515.992 3.46984 -2.60354 0
M  V30 5506 H 516.663 5.05651 -2.21406 0
M  V30 5507 H 519.139 4.12764 -0.52585 0
M  V30 5508 H 518.015 5.48327 -0.250841 0
M  V30 5509 H 518.276 4.30124 1.02202 0
M  V30 5510 N 517.335 0.585699 1.46312 0
M  V30 5511 C 518.265 -0.133556 2.33118 0
M  V30 5512 C 519.246 -0.880707 1.45525 0
M  V30 5513 O 520.431 -0.855579 1.74337 0
M  V30 5514 C 517.561 -1.14585 3.27853 0
M  V30 5515 C 516.515 -0.513341 4.2491 0
M  V30 5516 C 515.841 -1.63231 5.09175 0
M  V30 5517 C 517.141 0.551413 5.19381 0
M  V30 5518 H 518.835 0.59121 2.93505 0
M  V30 5519 H 516.381 0.285761 1.41136 0
M  V30 5520 H 518.334 -1.65741 3.87438 0
M  V30 5521 H 517.058 -1.90093 2.65579 0
M  V30 5522 H 515.717 -0.0228349 3.66593 0
M  V30 5523 H 515.365 -2.37713 4.43285 0
M  V30 5524 H 515.065 -1.21473 5.74907 0
M  V30 5525 H 516.589 -2.14658 5.71624 0
M  V30 5526 H 518.003 0.124804 5.73164 0
M  V30 5527 H 516.4 0.889486 5.93471 0
M  V30 5528 H 517.47 1.43655 4.63132 0
M  V30 5529 N 518.813 -1.54241 0.323641 0
M  V30 5530 C 519.743 -2.27289 -0.534993 0
M  V30 5531 C 520.724 -1.28087 -1.11927 0
M  V30 5532 O 521.909 -1.56899 -1.14439 0
M  V30 5533 C 519.039 -3.03075 -1.69596 0
M  V30 5534 C 517.993 -4.09614 -1.24098 0
M  V30 5535 C 517.319 -4.73242 -2.4889 0
M  V30 5536 C 518.619 -5.21087 -0.355789 0
M  V30 5537 H 520.313 -2.99308 0.0743257 0
M  V30 5538 H 517.859 -1.43952 0.0371874 0
M  V30 5539 H 519.812 -3.52907 -2.30293 0
M  V30 5540 H 518.536 -2.28673 -2.33187 0
M  V30 5541 H 517.195 -3.60666 -0.656945 0
M  V30 5542 H 516.843 -3.95455 -3.10845 0
M  V30 5543 H 516.543 -5.45209 -2.19138 0
M  V30 5544 H 518.067 -5.25848 -3.10348 0
M  V30 5545 H 519.481 -5.66675 -0.869042 0
M  V30 5546 H 517.878 -5.9991 -0.151045 0
M  V30 5547 H 518.948 -4.81005 0.613339 0
M  V30 5548 N 520.291 -0.0518155 -1.57515 0
M  V30 5549 C 521.238 0.922352 -2.11569 0
M  V30 5550 C 522.208 1.30842 -1.02321 0
M  V30 5551 O 523.393 1.39778 -1.29872 0
M  V30 5552 C 520.533 2.19167 -2.6657 0
M  V30 5553 C 519.646 1.86003 -3.89906 0
M  V30 5554 C 518.781 3.07398 -4.33221 0
M  V30 5555 C 517.82 2.70158 -5.49255 0
M  V30 5556 N 516.957 3.84248 -5.8762 0
M  V30 5557 H 521.797 0.454506 -2.94514 0
M  V30 5558 H 519.334 0.212718 -1.45554 0
M  V30 5559 H 521.292 2.93443 -2.96559 0
M  V30 5560 H 519.922 2.63528 -1.86421 0
M  V30 5561 H 518.974 1.01874 -3.66505 0
M  V30 5562 H 520.286 1.54592 -4.74239 0
M  V30 5563 H 519.44 3.89972 -4.64765 0
M  V30 5564 H 518.179 3.41988 -3.477 0
M  V30 5565 H 517.184 1.86001 -5.17382 0
M  V30 5566 H 518.409 2.36759 -6.36492 0
M  V30 5567 H 516.355 4.18638 -5.05053 0
M  V30 5568 H 516.272 3.56538 -6.66646 0
M  V30 5569 H 517.54 4.6746 -6.2378 0
M  V30 5570 N 521.769 1.56035 0.221574 0
M  V30 5571 C 522.716 1.92413 1.27459 0
M  V30 5572 C 523.686 0.781323 1.46576 0
M  V30 5573 O 524.871 1.03721 1.60145 0
M  V30 5574 C 522.011 2.24617 2.61995 0
M  V30 5575 C 521.124 3.51831 2.50677 0
M  V30 5576 C 520.259 3.73482 3.77736 0
M  V30 5577 C 519.298 4.94211 3.6114 0
M  V30 5578 N 518.435 5.12252 4.80148 0
M  V30 5579 H 523.275 2.82203 0.957355 0
M  V30 5580 H 520.812 1.39676 0.461415 0
M  V30 5581 H 522.77 2.41298 3.40339 0
M  V30 5582 H 521.4 1.38 2.91815 0
M  V30 5583 H 520.452 3.43343 1.63767 0
M  V30 5584 H 521.764 4.40328 2.34334 0
M  V30 5585 H 520.918 3.9026 4.64523 0
M  V30 5586 H 519.657 2.83266 3.97003 0
M  V30 5587 H 518.662 4.77384 2.72736 0
M  V30 5588 H 519.887 5.85912 3.43343 0
M  V30 5589 H 517.833 4.24978 4.99729 0
M  V30 5590 H 517.75 5.94881 4.66532 0
M  V30 5591 H 519.018 5.33465 5.68362 0
M  V30 5592 N 523.247 -0.488276 1.49845 0
M  V30 5593 C 524.197 -1.58556 1.63842 0
M  V30 5594 C 525.181 -1.53142 0.493586 0
M  V30 5595 O 526.373 -1.60457 0.747169 0
M  V30 5596 C 523.502 -2.97101 1.72005 0
M  V30 5597 C 522.588 -3.07463 2.92108 0
M  V30 5598 N 522.979 -2.87681 4.16021 0
M  V30 5599 C 521.277 -3.3858 2.90309 0
M  V30 5600 C 521.978 -3.0256 4.96822 0
M  V30 5601 N 520.954 -3.32002 4.30437 0
M  V30 5602 H 524.756 -1.41935 2.57355 0
M  V30 5603 H 522.27 -0.694668 1.46793 0
M  V30 5604 H 524.267 -3.75976 1.80132 0
M  V30 5605 H 522.927 -3.14782 0.796375 0
M  V30 5606 H 523.938 -2.63603 4.45796 0
M  V30 5607 H 520.615 -3.62357 2.07372 0
M  V30 5608 H 522.005 -2.9165 6.05301 0
M  V30 5609 N 524.725 -1.39134 -0.740242 0
M  V30 5610 C 525.974 -1.35384 -1.49512 0
M  V30 5611 C 526.287 0.04919 -1.95538 0
M  V30 5612 O 527.493 0.209257 -2.70692 0
M  V30 5613 C 525.949 -2.37812 -2.70136 0
M  V30 5614 C 525.557 -3.83804 -2.31081 0
M  V30 5615 C 527.301 -2.4313 -3.47977 0
M  V30 5616 C 525.208 -4.77886 -3.48395 0
M  V30 5617 H 524.138 -0.503297 -0.561434 0
M  V30 5618 H 526.789 -1.64754 -0.807974 0
M  V30 5619 H 525.171 -2.01505 -3.40899 0
M  V30 5620 H 526.345 -4.29123 -1.67898 0
M  V30 5621 H 524.66 -3.81732 -1.66343 0
M  V30 5622 H 527.257 -3.10614 -4.35228 0
M  V30 5623 H 527.6 -1.45423 -3.90074 0
M  V30 5624 H 528.133 -2.78304 -2.84239 0
M  V30 5625 H 524.872 -5.76836 -3.11353 0
M  V30 5626 H 524.392 -4.3725 -4.10576 0
M  V30 5627 H 526.071 -4.96538 -4.148 0
M  V30 5628 N 526.204 0.969867 -1.24223 0
M  V30 5629 C 527.134 2.08191 -1.05729 0
M  V30 5630 C 528.115 1.70075 0.0290765 0
M  V30 5631 O 529.3 1.93712 -0.137583 0
M  V30 5632 C 526.43 3.40991 -0.658995 0
M  V30 5633 C 525.384 3.93054 -1.69389 0
M  V30 5634 C 524.71 5.22171 -1.15072 0
M  V30 5635 C 526.01 4.21137 -3.08935 0
M  V30 5636 H 527.704 2.23921 -1.98746 0
M  V30 5637 H 525.25 1.07602 -0.956967 0
M  V30 5638 H 527.203 4.18221 -0.51662 0
M  V30 5639 H 525.927 3.25155 0.30686 0
M  V30 5640 H 524.586 3.17977 -1.82444 0
M  V30 5641 H 524.234 5.02694 -0.175539 0
M  V30 5642 H 523.934 5.57973 -1.84229 0
M  V30 5643 H 525.458 6.02013 -1.02042 0
M  V30 5644 H 526.872 4.8908 -2.99121 0
M  V30 5645 H 525.269 4.68163 -3.75425 0
M  V30 5646 H 526.339 3.27996 -3.57137 0
M  V30 5647 N 527.682 1.05563 1.17022 0
M  V30 5648 C 528.928 0.769074 1.87652 0
M  V30 5649 C 529.261 -0.702326 1.81055 0
M  V30 5650 O 528.536 -1.5139 1.22112 0
M  V30 5651 C 528.819 1.25492 3.37526 0
M  V30 5652 C 528.672 2.78953 3.52853 0
M  V30 5653 C 529.991 0.856919 4.31677 0
M  V30 5654 H 527.11 0.280854 0.681388 0
M  V30 5655 H 529.752 1.31027 1.37593 0
M  V30 5656 H 527.902 0.794516 3.80289 0
M  V30 5657 H 529.574 3.33146 3.19079 0
M  V30 5658 H 527.817 3.18046 2.95007 0
M  V30 5659 H 528.488 3.08011 4.58076 0
M  V30 5660 H 530.964 1.25334 3.96775 0
M  V30 5661 H 529.84 1.22443 5.35069 0
M  V30 5662 H 530.101 -0.238787 4.41455 0
M  V30 5663 N 529.16 -1.33526 0.837174 0
M  V30 5664 C 530.093 -2.27192 0.214233 0
M  V30 5665 C 531.071 -1.49575 -0.637657 0
M  V30 5666 O 532.255 -1.78753 -0.598291 0
M  V30 5667 C 529.382 -3.31401 -0.699367 0
M  V30 5668 C 528.428 -4.26431 0.0768429 0
M  V30 5669 S 529.261 -5.15954 1.4336 0
M  V30 5670 C 530.417 -6.23692 0.525251 0
M  V30 5671 H 530.65 -2.79679 1.00831 0
M  V30 5672 H 528.183 -1.4079 0.633834 0
M  V30 5673 H 530.141 -3.91924 -1.22088 0
M  V30 5674 H 528.802 -2.77732 -1.46709 0
M  V30 5675 H 527.995 -5.00193 -0.618268 0
M  V30 5676 H 527.597 -3.70235 0.529364 0
M  V30 5677 H 529.889 -6.76931 -0.277575 0
M  V30 5678 H 530.832 -6.97283 1.23299 0
M  V30 5679 H 531.24 -5.64398 0.107351 0
M  V30 5680 N 530.638 -0.59345 -1.46 0
M  V30 5681 C 531.863 -0.0872365 -2.07216 0
M  V30 5682 C 532.288 1.2131 -1.43755 0
M  V30 5683 O 531.646 1.73528 -0.525152 0
M  V30 5684 C 531.694 0.0538197 -3.6056 0
M  V30 5685 O 530.798 1.10765 -3.97247 0
M  V30 5686 H 530.139 -0.0676598 -0.660544 0
M  V30 5687 H 532.669 -0.819445 -1.87473 0
M  V30 5688 H 532.679 0.256567 -4.07193 0
M  V30 5689 H 531.354 -0.895739 -4.0614 0
M  V30 5690 H 529.931 0.882501 -3.62307 0
M  V30 5691 N 532.116 1.54067 -0.331816 0
M  V30 5692 C 533.363 2.00715 0.268269 0
M  V30 5693 C 533.691 1.21986 1.51491 0
M  V30 5694 O 532.946 0.292309 1.93505 0
M  V30 5695 C 533.245 3.51634 0.639392 0
M  V30 5696 C 532.911 4.48018 -0.509019 0
M  V30 5697 C 531.573 4.74089 -0.824209 0
M  V30 5698 C 533.925 5.05237 -1.28003 0
M  V30 5699 C 531.253 5.54637 -1.91298 0
M  V30 5700 C 533.605 5.86972 -2.35895 0
M  V30 5701 C 532.269 6.11342 -2.67987 0
M  V30 5702 H 531.539 0.734469 0.0981667 0
M  V30 5703 H 534.186 1.8596 -0.457304 0
M  V30 5704 H 532.491 3.6416 1.44551 0
M  V30 5705 H 534.188 3.85175 1.11539 0
M  V30 5706 H 530.778 4.27851 -0.253287 0
M  V30 5707 H 534.962 4.8507 -1.04978 0
M  V30 5708 H 530.218 5.71747 -2.16599 0
M  V30 5709 H 534.392 6.30327 -2.96076 0
M  V30 5710 H 532.019 6.73544 -3.5248 0
M  V30 5711 N 533.594 0.0601682 1.57485 0
M  V30 5712 C 534.843 -0.611101 1.9222 0
M  V30 5713 C 535.156 -1.71469 0.941159 0
M  V30 5714 O 536.362 -2.44473 1.18089 0
M  V30 5715 C 534.818 -1.13832 3.41424 0
M  V30 5716 C 534.426 -0.0663596 4.47951 0
M  V30 5717 C 536.17 -1.78432 3.85178 0
M  V30 5718 C 534.077 -0.606965 5.88277 0
M  V30 5719 H 533.007 -0.232033 0.71741 0
M  V30 5720 H 535.658 0.130518 1.83035 0
M  V30 5721 H 534.04 -1.93254 3.45643 0
M  V30 5722 H 535.214 0.707682 4.55333 0
M  V30 5723 H 533.529 0.482715 4.13593 0
M  V30 5724 H 536.126 -2.1989 4.87394 0
M  V30 5725 H 536.469 -2.63966 3.21913 0
M  V30 5726 H 537.002 -1.05651 3.83514 0
M  V30 5727 H 533.741 0.21095 6.5516 0
M  V30 5728 H 533.261 -1.34879 5.84438 0
M  V30 5729 H 534.94 -1.08704 6.37803 0
M  V30 5730 N 535.072 -1.5615 -0.213296 0
M  V30 5731 C 536.32 -1.79191 -0.934612 0
M  V30 5732 C 536.641 -0.630112 -1.84539 0
M  V30 5733 O 535.911 0.35257 -1.92701 0
M  V30 5734 H 534.491 -0.660937 -0.348097 0
M  V30 5735 H 537.153 -1.93618 -0.22317 0
M  V30 5736 H 536.249 -2.71656 -1.53654 0
M  V30 5737 N 536.55 0.480323 -1.50102 0
M  V30 5738 C 537.5 1.57685 -1.6468 0
M  V30 5739 C 538.484 1.52878 -0.5017 0
M  V30 5740 O 539.676 1.60058 -0.755668 0
M  V30 5741 C 536.805 2.96185 -1.73578 0
M  V30 5742 C 535.891 3.0591 -2.93734 0
M  V30 5743 N 536.282 2.85471 -4.1754 0
M  V30 5744 C 534.58 3.37036 -2.92101 0
M  V30 5745 C 535.281 2.99921 -4.9842 0
M  V30 5746 N 534.257 3.29715 -4.32191 0
M  V30 5747 H 538.059 1.40568 -2.58104 0
M  V30 5748 H 535.573 0.686874 -1.47159 0
M  V30 5749 H 537.57 3.75015 -1.82124 0
M  V30 5750 H 536.23 3.14356 -0.813057 0
M  V30 5751 H 537.241 2.61235 -4.47188 0
M  V30 5752 H 533.918 3.61253 -2.09291 0
M  V30 5753 H 535.308 2.88436 -6.06839 0
M  V30 5754 N 538.028 1.39524 0.732853 0
M  V30 5755 C 539.305 1.27373 1.48444 0
M  V30 5756 C 539.685 -0.115725 2.10783 0
M  V30 5757 O 539.033 -1.12713 1.98766 0
M  V30 5758 C 539.243 2.39966 2.53412 0
M  V30 5759 C 540.591 2.79384 3.19733 0
M  V30 5760 O 541.615 2.39431 2.63725 0
M  V30 5761 O 540.474 3.48353 4.21085 0
M  V30 5762 H 537.568 0.499272 0.659285 0
M  V30 5763 H 540.114 1.51403 0.766496 0
M  V30 5764 H 538.886 3.32845 2.05742 0
M  V30 5765 H 538.509 2.17612 3.32762 0
M  V30 5766 N 539.506 -0.963266 1.24736 0
M  V30 5767 C 540.438 -2.06162 1.0015 0
M  V30 5768 C 541.451 -1.62771 -0.0305905 0
M  V30 5769 O 542.64 -1.77296 0.206966 0
M  V30 5770 C 539.74 -3.35333 0.490385 0
M  V30 5771 C 538.913 -4.07609 1.58663 0
M  V30 5772 C 537.972 -5.15052 1.0774 0
M  V30 5773 O 536.998 -5.4098 1.77002 0
M  V30 5774 N 538.2 -5.80436 -0.0858605 0
M  V30 5775 H 540.965 -2.27825 1.94719 0
M  V30 5776 H 538.526 -1.13121 1.15825 0
M  V30 5777 H 540.518 -4.04477 0.134371 0
M  V30 5778 H 539.088 -3.10507 -0.361155 0
M  V30 5779 H 538.308 -3.32681 2.11463 0
M  V30 5780 H 539.596 -4.52656 2.32336 0
M  V30 5781 H 538.994 -5.6178 -0.664806 0
M  V30 5782 H 537.551 -6.50674 -0.382981 0
M  V30 5783 N 540.985 -1.06182 -1.16461 0
M  V30 5784 C 542.231 -0.779015 -1.87241 0
M  V30 5785 C 542.564 0.692715 -1.81425 0
M  V30 5786 O 541.839 1.5074 -1.22913 0
M  V30 5787 C 542.122 -1.2728 -3.36856 0
M  V30 5788 C 541.975 -2.80821 -3.51368 0
M  V30 5789 C 543.294 -0.879799 -4.31216 0
M  V30 5790 H 540.413 -0.284464 -0.679889 0
M  V30 5791 H 543.055 -1.31755 -1.36896 0
M  V30 5792 H 541.205 -0.814673 -3.79862 0
M  V30 5793 H 542.877 -3.34833 -3.17308 0
M  V30 5794 H 541.12 -3.19606 -2.93316 0
M  V30 5795 H 541.791 -3.10435 -4.56436 0
M  V30 5796 H 544.267 -1.27436 -3.96105 0
M  V30 5797 H 543.143 -1.25278 -5.34412 0
M  V30 5798 H 543.404 0.215372 -4.41575 0
M  V30 5799 N 542.463 1.3308 -0.844243 0
M  V30 5800 C 543.874 1.7992 -0.498566 0
M  V30 5801 C 544.225 1.69808 0.982834 0
M  V30 5802 O 543.35 1.25051 1.7661 0
M  V30 5803 C 543.945 3.26677 -0.898204 0
M  V30 5804 C 542.504 3.71513 -0.604583 0
M  V30 5805 C 541.651 2.54393 -1.10362 0
M  V30 5806 H 544.602 1.20526 -1.03244 0
M  V30 5807 H 544.623 3.79918 -0.21039 0
M  V30 5808 H 544.135 3.34004 -1.97643 0
M  V30 5809 H 542.236 3.69708 0.46335 0
M  V30 5810 H 542.349 4.64755 -1.16358 0
M  V30 5811 H 540.713 2.49246 -0.524273 0
M  V30 5812 H 541.496 2.6448 -2.18873 0
M  V30 5813 N 543.941 0.601185 1.45683 0
M  V30 5814 C 544.904 -0.111398 2.28929 0
M  V30 5815 C 545.904 -0.801246 1.39416 0
M  V30 5816 O 547.094 -0.650383 1.61603 0
M  V30 5817 C 544.226 -1.16773 3.20276 0
M  V30 5818 H 545.419 0.620412 2.93413 0
M  V30 5819 H 542.972 0.359946 1.52099 0
M  V30 5820 H 543.707 -1.93051 2.60579 0
M  V30 5821 H 543.492 -0.677358 3.86205 0
M  V30 5822 H 544.982 -1.66698 3.82886 0
M  V30 5823 N 545.419 -1.53889 0.339982 0
M  V30 5824 C 546.83 -1.86139 -0.144671 0
M  V30 5825 C 547.181 -1.2613 -1.50285 0
M  V30 5826 O 546.306 -0.573515 -2.08662 0
M  V30 5827 C 546.901 -3.37728 -0.269285 0
M  V30 5828 C 545.46 -3.69868 -0.698168 0
M  V30 5829 C 544.607 -2.76777 0.170249 0
M  V30 5830 H 547.558 -1.48503 0.559704 0
M  V30 5831 H 547.579 -3.64331 -1.0974 0
M  V30 5832 H 547.091 -3.81375 0.719366 0
M  V30 5833 H 545.192 -3.31764 -1.69597 0
M  V30 5834 H 545.305 -4.76582 -0.490533 0
M  V30 5835 H 543.669 -2.52188 -0.356844 0
M  V30 5836 H 544.452 -3.23253 1.15597 0
M  V30 5837 N 546.897 -0.0685191 -1.57451 0
M  V30 5838 C 547.844 0.899861 -2.12535 0
M  V30 5839 C 548.814 1.29749 -1.03703 0
M  V30 5840 O 549.999 1.38392 -1.31348 0
M  V30 5841 C 547.139 2.16328 -2.6888 0
M  V30 5842 C 546.252 1.81857 -3.91857 0
M  V30 5843 C 545.387 3.02786 -4.36457 0
M  V30 5844 C 544.426 2.64317 -5.5209 0
M  V30 5845 N 543.563 3.77994 -5.91663 0
M  V30 5846 H 548.403 0.423243 -2.94979 0
M  V30 5847 H 545.94 0.197268 -1.45771 0
M  V30 5848 H 547.898 2.90281 -2.99655 0
M  V30 5849 H 546.528 2.61536 -1.89206 0
M  V30 5850 H 545.58 0.979808 -3.67565 0
M  V30 5851 H 546.892 1.49553 -4.75852 0
M  V30 5852 H 546.046 3.85021 -4.68875 0
M  V30 5853 H 544.785 3.38281 -3.51308 0
M  V30 5854 H 543.79 1.80503 -5.19325 0
M  V30 5855 H 545.015 2.29995 -6.38967 0
M  V30 5856 H 542.961 4.13258 -5.09464 0
M  V30 5857 H 542.878 3.49447 -6.7039 0
M  V30 5858 H 544.146 4.60818 -6.28703 0
M  V30 5859 N 548.375 1.56261 0.205012 0
M  V30 5860 C 549.305 1.96779 1.257 0
M  V30 5861 C 550.286 0.838309 1.48008 0
M  V30 5862 O 551.471 1.10189 1.59913 0
M  V30 5863 C 548.601 2.29876 2.60335 0
M  V30 5864 C 547.555 3.45469 2.52656 0
M  V30 5865 C 546.881 3.64215 3.91473 0
M  V30 5866 C 548.181 4.79954 2.06014 0
M  V30 5867 H 549.875 2.84904 0.920338 0
M  V30 5868 H 547.421 1.37072 0.441277 0
M  V30 5869 H 549.374 2.56814 3.34102 0
M  V30 5870 H 548.098 1.38622 2.95722 0
M  V30 5871 H 546.757 3.18605 1.81345 0
M  V30 5872 H 546.405 2.70309 4.24196 0
M  V30 5873 H 546.105 4.41973 3.87213 0
M  V30 5874 H 547.629 3.93519 4.66878 0
M  V30 5875 H 549.043 5.05989 2.69533 0
M  V30 5876 H 547.44 5.61111 2.12777 0
M  V30 5877 H 548.51 4.74201 1.01297 0
M  V30 5878 N 549.853 -0.472356 1.50355 0
M  V30 5879 C 550.8 -1.57051 1.69126 0
M  V30 5880 C 551.77 -1.5733 0.532574 0
M  V30 5881 O 552.955 -1.7488 0.762994 0
M  V30 5882 C 550.095 -2.95033 1.79024 0
M  V30 5883 C 549.208 -3.04552 3.06386 0
M  V30 5884 C 548.343 -4.33441 3.07087 0
M  V30 5885 C 547.382 -4.36697 4.28908 0
M  V30 5886 N 546.519 -5.57056 4.27356 0
M  V30 5887 H 551.359 -1.40351 2.62879 0
M  V30 5888 H 548.896 -0.682403 1.30314 0
M  V30 5889 H 550.854 -3.75048 1.82744 0
M  V30 5890 H 549.484 -3.10371 0.887109 0
M  V30 5891 H 548.536 -2.17419 3.12143 0
M  V30 5892 H 549.848 -3.02818 3.96362 0
M  V30 5893 H 549.002 -5.21801 3.09529 0
M  V30 5894 H 547.741 -4.37782 2.14939 0
M  V30 5895 H 546.746 -3.46734 4.2668 0
M  V30 5896 H 547.971 -4.34049 5.22282 0
M  V30 5897 H 545.917 -5.62184 3.3806 0
M  V30 5898 H 545.834 -5.57058 5.111 0
M  V30 5899 H 547.102 -6.47545 4.33942 0
M  V30 5900 N 551.331 -1.39911 -0.725443 0
M  V30 5901 C 552.241 -1.41688 -1.8698 0
M  V30 5902 C 553.257 -0.310579 -1.71206 0
M  V30 5903 O 554.433 -0.55359 -1.93642 0
M  V30 5904 C 551.498 -1.26811 -3.22676 0
M  V30 5905 C 550.559 -2.47497 -3.50776 0
M  V30 5906 C 549.792 -2.3332 -4.79997 0
M  V30 5907 O 550.015 -1.34175 -5.54394 0
M  V30 5908 O 548.949 -3.22498 -5.08211 0
M  V30 5909 H 552.775 -2.38171 -1.88436 0
M  V30 5910 H 550.36 -1.21128 -0.874548 0
M  V30 5911 H 552.242 -1.20684 -4.03749 0
M  V30 5912 H 550.917 -0.334289 -3.21969 0
M  V30 5913 H 549.824 -2.59201 -2.69751 0
M  V30 5914 H 551.157 -3.39606 -3.5627 0
M  V30 5915 N 552.809 0.956637 -1.25245 0
M  V30 5916 C 554.055 1.70352 -1.10036 0
M  V30 5917 C 554.388 1.90869 0.358156 0
M  V30 5918 O 553.663 1.47819 1.26411 0
M  V30 5919 C 553.946 3.08766 -1.85298 0
M  V30 5920 C 553.799 2.95672 -3.38966 0
M  V30 5921 C 555.118 4.08622 -1.63451 0
M  V30 5922 H 552.237 0.618279 -0.401123 0
M  V30 5923 H 554.879 1.11212 -1.54051 0
M  V30 5924 H 553.029 3.59252 -1.47887 0
M  V30 5925 H 554.701 2.52527 -3.86041 0
M  V30 5926 H 552.944 2.31634 -3.6678 0
M  V30 5927 H 553.615 3.93776 -3.86839 0
M  V30 5928 H 556.091 3.67038 -1.96015 0
M  V30 5929 H 554.967 5.03514 -2.18551 0
M  V30 5930 H 555.228 4.3834 -0.575357 0
M  V30 5931 N 554.287 1.06798 1.15896 0
M  V30 5932 C 555.234 0.683314 2.20453 0
M  V30 5933 C 556.204 -0.32255 1.62938 0
M  V30 5934 O 557.389 -0.210276 1.89638 0
M  V30 5935 C 554.529 0.0813266 3.45004 0
M  V30 5936 C 553.642 1.13799 4.16742 0
M  V30 5937 C 552.777 0.501598 5.28826 0
M  V30 5938 C 551.816 1.54144 5.92373 0
M  V30 5939 N 550.953 0.928038 6.9594 0
M  V30 5940 H 555.793 1.57932 2.52708 0
M  V30 5941 H 553.33 0.789544 1.24115 0
M  V30 5942 H 555.288 -0.285274 4.16224 0
M  V30 5943 H 553.918 -0.77806 3.13283 0
M  V30 5944 H 552.97 1.62223 3.44075 0
M  V30 5945 H 554.282 1.92664 4.60089 0
M  V30 5946 H 553.436 0.0823162 6.06644 0
M  V30 5947 H 552.175 -0.318883 4.86656 0
M  V30 5948 H 551.18 1.97056 5.13273 0
M  V30 5949 H 552.405 2.3641 6.36621 0
M  V30 5950 H 550.351 0.12836 6.55874 0
M  V30 5951 H 550.268 1.65401 7.37685 0
M  V30 5952 H 551.536 0.534071 7.77668 0
M  V30 5953 N 555.766 -1.3263 0.851289 0
M  V30 5954 C 556.696 -2.31449 0.308771 0
M  V30 5955 C 557.677 -1.59531 -0.590255 0
M  V30 5956 O 558.862 -1.87351 -0.511205 0
M  V30 5957 C 555.992 -3.43586 -0.506548 0
M  V30 5958 C 554.946 -4.26963 0.297753 0
M  V30 5959 C 554.272 -5.30831 -0.642094 0
M  V30 5960 C 555.572 -4.99643 1.52166 0
M  V30 5961 H 557.266 -2.77074 1.13447 0
M  V30 5962 H 554.812 -1.33207 0.546971 0
M  V30 5963 H 556.765 -4.11754 -0.896474 0
M  V30 5964 H 555.489 -2.96681 -1.36558 0
M  V30 5965 H 554.148 -3.60437 0.669391 0
M  V30 5966 H 553.796 -4.8018 -1.49788 0
M  V30 5967 H 553.496 -5.87501 -0.107968 0
M  V30 5968 H 555.02 -6.01862 -1.02927 0
M  V30 5969 H 556.434 -5.6051 1.20421 0
M  V30 5970 H 554.831 -5.66022 1.99347 0
M  V30 5971 H 555.901 -4.27701 2.28474 0
M  V30 5972 N 557.244 -0.608902 -1.45362 0
M  V30 5973 C 558.192 0.121639 -2.32282 0
M  V30 5974 C 559.186 0.858301 -1.46046 0
M  V30 5975 O 560.392 0.773718 -1.62523 0
M  V30 5976 H 556.767 0.058086 -0.749753 0
M  V30 5977 H 558.738 -0.629866 -2.91677 0
M  V30 5978 C 557.487 1.1047 -3.29684 0
M  V30 5979 H 556.81 0.547278 -3.96036 0
M  V30 5980 H 558.25 1.58576 -3.9323 0
M  V30 5981 C 556.709 2.17891 -2.56954 0
M  V30 5982 O 557.239 3.25652 -2.35189 0
M  V30 5983 N 555.445 1.93211 -2.17066 0
M  V30 5984 H 554.992 1.05584 -2.34967 0
M  V30 5985 H 554.95 2.6529 -1.68727 0
M  V30 5986 N 558.722 1.53707 -0.348139 0
M  V30 5987 C 559.947 2.05877 0.250883 0
M  V30 5988 C 560.372 1.22115 1.43072 0
M  V30 5989 O 559.73 0.235986 1.79758 0
M  V30 5990 C 559.778 3.54886 0.639416 0
M  V30 5991 O 558.882 3.73948 1.73888 0
M  V30 5992 H 558.223 0.662754 0.040653 0
M  V30 5993 H 560.753 1.98303 -0.503685 0
M  V30 5994 H 560.763 3.97601 0.915295 0
M  V30 5995 H 559.438 4.153 -0.223386 0
M  V30 5996 H 558.015 3.43134 1.45991 0
M  V30 5997 N 560.2 0.0768682 1.57412 0
M  V30 5998 C 561.11 -0.903207 2.16516 0
M  V30 5999 C 562.126 -1.32341 1.12968 0
M  V30 6000 O 563.302 -1.39507 1.45258 0
M  V30 6001 C 560.367 -2.1508 2.71922 0
M  V30 6002 C 559.428 -1.78653 3.90361 0
M  V30 6003 C 558.661 -2.97465 4.43114 0
M  V30 6004 O 558.884 -4.11638 3.94854 0
M  V30 6005 O 557.818 -2.76987 5.3438 0
M  V30 6006 H 561.644 -0.430427 3.00634 0
M  V30 6007 H 559.229 -0.146485 1.4868 0
M  V30 6008 H 561.111 -2.8823 3.07411 0
M  V30 6009 H 559.786 -2.61446 1.9086 0
M  V30 6010 H 558.693 -1.0274 3.59716 0
M  V30 6011 H 560.026 -1.37066 4.7273 0
M  V30 6012 N 561.678 -1.56367 -0.196722 0
M  V30 6013 C 562.588 -1.97617 -1.2643 0
M  V30 6014 C 563.604 -0.883598 -1.49895 0
M  V30 6015 O 564.78 -1.18921 -1.62541 0
M  V30 6016 C 561.845 -2.30595 -2.58895 0
M  V30 6017 C 560.906 -3.53551 -2.43516 0
M  V30 6018 C 560.139 -3.84946 -3.69665 0
M  V30 6019 O 560.362 -3.17655 -4.73763 0
M  V30 6020 O 559.296 -4.78379 -3.65291 0
M  V30 6021 H 563.122 -2.88648 -0.944233 0
M  V30 6022 H 560.707 -1.43901 -0.401592 0
M  V30 6023 H 562.589 -2.52889 -3.37083 0
M  V30 6024 H 561.264 -1.42732 -2.90533 0
M  V30 6025 H 560.171 -3.36507 -1.63445 0
M  V30 6026 H 561.504 -4.41875 -2.16812 0
M  V30 6027 N 563.156 0.464375 -1.50603 0
M  V30 6028 C 564.089 1.58052 -1.64605 0
M  V30 6029 C 565.067 1.54914 -0.494016 0
M  V30 6030 O 566.251 1.74438 -0.714393 0
M  V30 6031 C 563.378 2.96634 -1.63481 0
M  V30 6032 C 562.424 3.17901 -2.84325 0
M  V30 6033 S 563.257 2.97083 -4.45536 0
M  V30 6034 C 564.413 4.37994 -4.47115 0
M  V30 6035 H 564.646 1.45937 -2.59017 0
M  V30 6036 H 562.179 0.652189 -1.39949 0
M  V30 6037 H 564.137 3.76527 -1.63517 0
M  V30 6038 H 562.798 3.06134 -0.702928 0
M  V30 6039 H 561.991 4.19158 -2.79862 0
M  V30 6040 H 561.593 2.45792 -2.81891 0
M  V30 6041 H 563.885 5.30743 -4.21091 0
M  V30 6042 H 564.828 4.47499 -5.48772 0
M  V30 6043 H 565.236 4.20386 -3.76743 0
M  V30 6044 N 564.634 1.40294 0.718013 0
M  V30 6045 C 565.581 1.40367 1.8321 0
M  V30 6046 C 566.551 0.260952 1.64037 0
M  V30 6047 O 567.736 0.458648 1.85205 0
M  V30 6048 C 564.876 1.26965 3.20895 0
M  V30 6049 C 563.989 2.50922 3.51656 0
M  V30 6050 C 563.124 2.29981 4.78834 0
M  V30 6051 C 562.163 3.49527 5.02491 0
M  V30 6052 N 561.3 3.27796 6.20882 0
M  V30 6053 H 566.14 2.35593 1.82482 0
M  V30 6054 H 563.677 1.17012 0.891444 0
M  V30 6055 H 565.635 1.17202 4.00399 0
M  V30 6056 H 564.265 0.353591 3.20858 0
M  V30 6057 H 563.317 2.71223 2.66725 0
M  V30 6058 H 564.629 3.39913 3.65048 0
M  V30 6059 H 563.783 2.17558 5.66351 0
M  V30 6060 H 562.522 1.38411 4.67647 0
M  V30 6061 H 561.527 3.6243 4.1343 0
M  V30 6062 H 562.752 4.42021 5.15553 0
M  V30 6063 H 560.698 2.38906 6.1095 0
M  V30 6064 H 560.615 4.10351 6.34939 0
M  V30 6065 H 561.883 3.19101 7.11193 0
M  V30 6066 N 566.112 -0.949982 1.2575 0
M  V30 6067 C 567.022 -2.08109 1.08295 0
M  V30 6068 C 568.038 -1.7399 0.0188181 0
M  V30 6069 O 569.214 -2.00187 0.220724 0
M  V30 6070 C 566.279 -3.39383 0.708534 0
M  V30 6071 C 565.34 -3.8734 1.85111 0
M  V30 6072 C 564.573 -5.12349 1.49447 0
M  V30 6073 O 564.796 -5.6905 0.392212 0
M  V30 6074 O 563.73 -5.5513 2.32624 0
M  V30 6075 H 567.556 -2.25738 2.03165 0
M  V30 6076 H 565.141 -1.06545 1.04731 0
M  V30 6077 H 567.023 -4.18277 0.512061 0
M  V30 6078 H 565.698 -3.23013 -0.210854 0
M  V30 6079 H 564.605 -3.09429 2.10248 0
M  V30 6080 H 565.938 -4.08216 2.74991 0
M  V30 6081 N 567.59 -1.07411 -1.15328 0
M  V30 6082 C 568.553 -0.698914 -2.18284 0
M  V30 6083 C 569.553 0.261149 -1.58665 0
M  V30 6084 O 570.743 0.0420277 -1.74149 0
M  V30 6085 C 567.875 -0.0302427 -3.40887 0
M  V30 6086 H 569.068 -1.61045 -2.52991 0
M  V30 6087 H 566.621 -0.870724 -1.298 0
M  V30 6088 H 567.356 0.893505 -3.11748 0
M  V30 6089 H 567.141 -0.720759 -3.85419 0
M  V30 6090 H 568.631 0.21759 -4.17033 0
M  V30 6091 N 569.068 1.32177 -0.85831 0
M  V30 6092 C 570.298 2.01021 -0.476889 0
M  V30 6093 C 570.706 1.64653 0.931995 0
M  V30 6094 O 570.049 0.865713 1.62022 0
M  V30 6095 C 570.111 3.55413 -0.540528 0
M  V30 6096 C 569.775 4.1522 -1.90895 0
M  V30 6097 C 570.772 4.3318 -2.87491 0
M  V30 6098 C 568.457 4.51212 -2.20709 0
M  V30 6099 C 570.451 4.86306 -4.1205 0
M  V30 6100 C 568.138 5.04042 -3.45521 0
M  V30 6101 C 569.136 5.21538 -4.41007 0
M  V30 6102 O 568.824 5.73238 -5.63608 0
M  V30 6103 H 568.556 0.650059 -0.18547 0
M  V30 6104 H 571.11 1.69648 -1.15796 0
M  V30 6105 H 569.34 3.86196 0.19741 0
M  V30 6106 H 571.029 4.05526 -0.174191 0
M  V30 6107 H 571.795 4.05704 -2.65762 0
M  V30 6108 H 567.674 4.36878 -1.4717 0
M  V30 6109 H 571.218 4.99877 -4.86589 0
M  V30 6110 H 567.115 5.30952 -3.67098 0
M  V30 6111 H 567.883 5.91625 -5.65617 0
M  V30 6112 N 570.547 0.616602 1.45037 0
M  V30 6113 C 571.777 0.121791 2.06241 0
M  V30 6114 C 572.185 -1.20289 1.46038 0
M  V30 6115 O 571.528 -1.7456 0.572242 0
M  V30 6116 C 571.59 -0.0827345 3.59405 0
M  V30 6117 C 571.254 1.16153 4.41993 0
M  V30 6118 C 572.251 2.08183 4.76399 0
M  V30 6119 C 569.936 1.39288 4.82601 0
M  V30 6120 C 571.93 3.21668 5.5028 0
M  V30 6121 C 569.617 2.53073 5.56235 0
M  V30 6122 C 570.615 3.44091 5.89992 0
M  V30 6123 O 570.303 4.55894 6.6213 0
M  V30 6124 H 570.035 0.0701667 0.672349 0
M  V30 6125 H 572.589 0.846877 1.87129 0
M  V30 6126 H 570.819 -0.862812 3.76952 0
M  V30 6127 H 572.508 -0.530273 4.02421 0
M  V30 6128 H 573.274 1.91538 4.45576 0
M  V30 6129 H 569.153 0.693396 4.55755 0
M  V30 6130 H 572.697 3.92733 5.76547 0
M  V30 6131 H 568.594 2.69667 5.86472 0
M  V30 6132 H 569.362 4.5469 6.80587 0
M  V30 6133 N 572.025 -1.5352 0.356285 0
M  V30 6134 C 572.957 -2.23009 -0.529127 0
M  V30 6135 C 573.97 -1.241 -1.05371 0
M  V30 6136 O 575.159 -1.50379 -0.961679 0
M  V30 6137 C 572.259 -2.90685 -1.74229 0
M  V30 6138 C 571.432 -4.16019 -1.35081 0
M  V30 6139 C 570.491 -4.66989 -2.42502 0
M  V30 6140 O 569.517 -5.30895 -2.05279 0
M  V30 6141 N 570.719 -4.44006 -3.7395 0
M  V30 6142 H 573.484 -2.99627 0.0660501 0
M  V30 6143 H 571.045 -1.60885 0.181014 0
M  V30 6144 H 573.037 -3.21695 -2.4555 0
M  V30 6145 H 571.607 -2.17575 -2.24454 0
M  V30 6146 H 570.827 -3.91414 -0.467833 0
M  V30 6147 H 572.115 -4.9752 -1.06542 0
M  V30 6148 H 571.513 -3.92924 -4.06973 0
M  V30 6149 H 570.07 -4.7959 -4.41403 0
M  V30 6150 N 573.503 -0.0852151 -1.57369 0
M  V30 6151 C 574.731 0.58946 -1.98325 0
M  V30 6152 C 575.146 1.62333 -0.96403 0
M  V30 6153 O 574.503 1.82438 0.0476395 0
M  V30 6154 C 574.554 1.24604 -3.39347 0
M  V30 6155 O 574.275 0.253532 -4.37366 0
M  V30 6156 C 575.776 2.00726 -3.95252 0
M  V30 6157 H 572.996 0.158783 -0.651942 0
M  V30 6158 H 575.54 -0.161584 -2.03861 0
M  V30 6159 H 573.695 1.94808 -3.34856 0
M  V30 6160 H 574.109 0.726207 -5.19448 0
M  V30 6161 H 575.583 2.42039 -4.96106 0
M  V30 6162 H 576.06 2.86919 -3.32527 0
M  V30 6163 H 576.666 1.3536 -4.03185 0
M  V30 6164 N 574.981 1.5647 0.188427 0
M  V30 6165 C 575.911 1.98101 1.23606 0
M  V30 6166 C 576.892 0.853961 1.47111 0
M  V30 6167 O 578.077 1.11879 1.58735 0
M  V30 6168 C 575.207 2.32624 2.57882 0
M  V30 6169 C 574.161 3.48129 2.48978 0
M  V30 6170 C 573.487 3.68347 3.87588 0
M  V30 6171 C 574.787 4.82112 2.00911 0
M  V30 6172 H 576.481 2.85864 0.890068 0
M  V30 6173 H 574.027 1.37532 0.426714 0
M  V30 6174 H 575.98 2.60343 3.3136 0
M  V30 6175 H 574.704 1.41751 2.94235 0
M  V30 6176 H 573.363 3.20511 1.77956 0
M  V30 6177 H 573.011 2.74793 4.21305 0
M  V30 6178 H 572.711 4.46055 3.82503 0
M  V30 6179 H 574.235 3.98449 4.62678 0
M  V30 6180 H 575.649 5.08819 2.64151 0
M  V30 6181 H 574.046 5.63337 2.06814 0
M  V30 6182 H 575.116 4.75249 0.96262 0
M  V30 6183 N 576.459 -0.456382 1.50847 0
M  V30 6184 C 577.409 -1.55045 1.67168 0
M  V30 6185 C 578.393 -1.52061 0.525958 0
M  V30 6186 O 579.585 -1.58836 0.781036 0
M  V30 6187 C 576.714 -2.93386 1.78268 0
M  V30 6188 C 575.8 -3.01198 2.98564 0
M  V30 6189 N 576.191 -2.78792 4.22029 0
M  V30 6190 C 574.489 -3.32346 2.97426 0
M  V30 6191 C 575.19 -2.91953 5.03128 0
M  V30 6192 N 574.166 -3.22797 4.37382 0
M  V30 6193 H 577.968 -1.36444 2.60308 0
M  V30 6194 H 575.482 -0.663375 1.48233 0
M  V30 6195 H 577.479 -3.72071 1.88067 0
M  V30 6196 H 576.139 -3.13022 0.862965 0
M  V30 6197 H 577.15 -2.54087 4.51287 0
M  V30 6198 H 573.827 -3.57877 2.15012 0
M  V30 6199 H 575.217 -2.78745 6.11351 0
M  V30 6200 N 577.937 -1.40673 -0.710563 0
M  V30 6201 C 578.867 -1.44095 -1.83736 0
M  V30 6202 C 579.848 -0.301286 -1.67411 0
M  V30 6203 O 581.033 -0.510618 -1.87367 0
M  V30 6204 C 578.163 -1.30773 -3.21738 0
M  V30 6205 C 577.117 -2.42395 -3.52745 0
M  V30 6206 C 576.443 -2.14147 -4.89944 0
M  V30 6207 C 577.743 -3.84738 -3.53234 0
M  V30 6208 H 579.437 -2.38396 -1.81129 0
M  V30 6209 H 576.983 -1.14746 -0.870017 0
M  V30 6210 H 578.936 -1.31783 -4.00264 0
M  V30 6211 H 577.66 -0.329507 -3.24934 0
M  V30 6212 H 576.319 -2.40643 -2.76562 0
M  V30 6213 H 575.967 -1.14703 -4.89747 0
M  V30 6214 H 575.667 -2.88934 -5.11655 0
M  V30 6215 H 577.191 -2.16848 -5.70797 0
M  V30 6216 H 578.605 -3.88286 -4.2179 0
M  V30 6217 H 577.002 -4.59085 -3.86473 0
M  V30 6218 H 578.072 -4.13962 -2.52514 0
M  V30 6219 N 579.415 0.9433 -1.26252 0
M  V30 6220 C 580.348 2.04162 -1.01946 0
M  V30 6221 C 581.326 1.62507 0.0550808 0
M  V30 6222 O 582.51 1.883 -0.0869025 0
M  V30 6223 C 579.637 3.34313 -0.54335 0
M  V30 6224 C 578.683 3.94939 -1.61013 0
M  V30 6225 S 579.516 4.29484 -3.19849 0
M  V30 6226 C 580.672 5.62738 -2.74001 0
M  V30 6227 H 580.905 2.24466 -1.94942 0
M  V30 6228 H 578.438 1.08441 -1.09909 0
M  V30 6229 H 580.396 4.09576 -0.275315 0
M  V30 6230 H 579.057 3.11957 0.36629 0
M  V30 6231 H 578.25 4.88812 -1.22795 0
M  V30 6232 H 577.852 3.26202 -1.82943 0
M  V30 6233 H 580.144 6.41356 -2.18333 0
M  V30 6234 H 581.087 6.05839 -3.66558 0
M  V30 6235 H 581.495 5.22514 -2.13634 0
M  V30 6236 N 580.893 1.08022 1.14757 0
M  V30 6237 C 582.309 0.807072 1.3769 0
M  V30 6238 C 582.509 -0.585504 1.92806 0
M  V30 6239 O 581.565 -1.34301 2.13821 0
M  V30 6240 C 582.878 1.88651 2.34161 0
M  V30 6241 C 584.426 1.91206 2.47809 0
M  V30 6242 C 584.901 2.98253 3.47576 0
M  V30 6243 N 586.392 2.974 3.55117 0
M  V30 6244 C 587.127 3.76872 4.32152 0
M  V30 6245 N 586.623 4.66212 5.12463 0
M  V30 6246 N 588.416 3.6519 4.27309 0
M  V30 6247 H 580.567 1.97824 0.77326 0
M  V30 6248 H 582.83 0.85826 0.402608 0
M  V30 6249 H 582.536 2.88749 2.00791 0
M  V30 6250 H 582.41 1.75244 3.3402 0
M  V30 6251 H 584.797 0.917564 2.80472 0
M  V30 6252 H 584.878 2.08691 1.47925 0
M  V30 6253 H 584.522 3.97907 3.15646 0
M  V30 6254 H 584.452 2.78014 4.47231 0
M  V30 6255 H 586.943 2.32643 2.97801 0
M  V30 6256 H 587.256 5.23468 5.68508 0
M  V30 6257 H 585.601 4.70257 5.11745 0
M  V30 6258 H 588.792 2.94765 3.63636 0
M  V30 6259 H 588.965 4.27366 4.87095 0
M  V30 6260 N 582.371 -1.3172 0.865308 0
M  V30 6261 C 583.303 -2.27545 0.274906 0
M  V30 6262 C 584.316 -1.52887 -0.559413 0
M  V30 6263 O 585.505 -1.74361 -0.382166 0
M  V30 6264 C 582.605 -3.33006 -0.629286 0
M  V30 6265 C 581.778 -4.37063 0.171553 0
M  V30 6266 C 580.837 -5.22044 -0.660052 0
M  V30 6267 O 579.863 -5.69129 -0.0897527 0
M  V30 6268 N 581.065 -5.45946 -1.97289 0
M  V30 6269 H 583.83 -2.78848 1.09836 0
M  V30 6270 H 581.391 -1.44693 0.726331 0
M  V30 6271 H 583.383 -3.86772 -1.19121 0
M  V30 6272 H 581.953 -2.81782 -1.35342 0
M  V30 6273 H 581.173 -3.83436 0.914919 0
M  V30 6274 H 582.461 -5.03662 0.721235 0
M  V30 6275 H 581.859 -5.0944 -2.45942 0
M  V30 6276 H 580.416 -6.02665 -2.4827 0
M  V30 6277 N 583.85 -0.624285 -1.44708 0
M  V30 6278 C 584.779 0.0717025 -2.3339 0
M  V30 6279 C 585.76 0.841814 -1.47809 0
M  V30 6280 O 586.946 0.809056 -1.76544 0
M  V30 6281 C 584.076 1.05852 -3.30776 0
M  V30 6282 C 583.029 0.400503 -4.26122 0
M  V30 6283 C 582.356 1.49674 -5.13324 0
M  V30 6284 C 583.656 -0.688924 -5.17737 0
M  V30 6285 H 585.35 -0.668819 -2.91834 0
M  V30 6286 H 582.896 -0.32308 -1.40329 0
M  V30 6287 H 584.849 1.5541 -3.91696 0
M  V30 6288 H 583.572 1.82984 -2.70526 0
M  V30 6289 H 582.231 -0.0743687 -3.66525 0
M  V30 6290 H 581.88 2.25877 -4.49431 0
M  V30 6291 H 581.58 1.06188 -5.77926 0
M  V30 6292 H 583.104 1.99427 -5.77115 0
M  V30 6293 H 584.518 -0.276724 -5.72632 0
M  V30 6294 H 582.915 -1.04652 -5.90904 0
M  V30 6295 H 583.985 -1.55884 -4.5916 0
M  V30 6296 N 585.328 1.53329 -0.364422 0
M  V30 6297 C 586.558 2.05359 0.226096 0
M  V30 6298 C 586.966 1.23777 1.43094 0
M  V30 6299 O 586.309 0.271139 1.81688 0
M  V30 6300 C 586.371 3.52918 0.684794 0
M  V30 6301 C 586.035 4.55218 -0.403206 0
M  V30 6302 C 587.032 5.04583 -1.2527 0
M  V30 6303 C 584.717 4.99134 -0.563117 0
M  V30 6304 C 586.711 5.96463 -2.24745 0
M  V30 6305 C 584.398 5.9082 -1.56124 0
M  V30 6306 C 585.396 6.39375 -2.40184 0
M  V30 6307 O 585.084 7.29255 -3.38293 0
M  V30 6308 H 584.816 0.674588 0.0436772 0
M  V30 6309 H 587.37 1.98688 -0.520782 0
M  V30 6310 H 585.6 3.57122 1.48326 0
M  V30 6311 H 587.289 3.87812 1.19818 0
M  V30 6312 H 588.055 4.71403 -1.14034 0
M  V30 6313 H 583.934 4.60928 0.0813909 0
M  V30 6314 H 587.478 6.34285 -2.90393 0
M  V30 6315 H 583.375 6.23414 -1.67407 0
M  V30 6316 H 584.143 7.47249 -3.34009 0
M  V30 6317 N 586.806 0.0935595 1.57322 0
M  V30 6318 C 587.756 -0.876521 2.10478 0
M  V30 6319 C 588.74 -1.24482 1.01946 0
M  V30 6320 O 589.932 -1.22016 1.28223 0
M  V30 6321 C 587.061 -2.13615 2.68745 0
M  V30 6322 C 586.147 -1.79335 3.84317 0
M  V30 6323 N 586.538 -1.15606 4.92411 0
M  V30 6324 C 584.836 -2.08954 3.94023 0
M  V30 6325 C 585.537 -0.999036 5.73057 0
M  V30 6326 N 584.513 -1.51585 5.22037 0
M  V30 6327 H 588.315 -0.379829 2.91435 0
M  V30 6328 H 585.829 -0.109699 1.62029 0
M  V30 6329 H 587.826 -2.84053 3.05155 0
M  V30 6330 H 586.486 -2.63851 1.89242 0
M  V30 6331 H 587.497 -0.823063 5.11318 0
M  V30 6332 H 584.174 -2.61416 3.25527 0
M  V30 6333 H 585.564 -0.500772 6.70031 0
M  V30 6334 N 588.284 -1.56567 -0.180126 0
M  V30 6335 C 589.194 -1.98947 -1.24327 0
M  V30 6336 C 590.21 -0.899446 -1.4895 0
M  V30 6337 O 591.386 -1.20639 -1.61271 0
M  V30 6338 C 588.451 -2.33328 -2.56435 0
M  V30 6339 C 587.512 -3.56114 -2.39752 0
M  V30 6340 C 586.745 -3.88845 -3.65561 0
M  V30 6341 O 586.968 -3.22662 -4.70368 0
M  V30 6342 O 585.902 -4.82226 -3.60197 0
M  V30 6343 H 589.728 -2.89634 -0.913565 0
M  V30 6344 H 587.313 -1.44319 -0.386306 0
M  V30 6345 H 589.195 -2.5645 -3.34382 0
M  V30 6346 H 587.87 -1.45806 -2.89002 0
M  V30 6347 H 586.777 -3.38221 -1.59866 0
M  V30 6348 H 588.11 -4.4415 -2.12113 0
M  V30 6349 N 589.762 0.448376 -1.51087 0
M  V30 6350 C 591.002 1.20832 -1.64861 0
M  V30 6351 C 591.366 1.88748 -0.351873 0
M  V30 6352 O 592.567 2.66307 -0.365265 0
M  V30 6353 C 590.838 2.20674 -2.81137 0
M  V30 6354 S 592.397 3.05303 -3.15176 0
M  V30 6355 H 589.215 0.40992 -0.580936 0
M  V30 6356 H 591.817 0.501624 -1.88955 0
M  V30 6357 H 590.521 1.69399 -3.73808 0
M  V30 6358 H 590.052 2.9594 -2.59198 0
M  V30 6359 H 592.067 4.22162 -2.60756 0
M  V30 6360 N 591.24 1.41047 0.703093 0
M  V30 6361 C 592.468 1.4334 1.49202 0
M  V30 6362 C 592.883 0.0365596 1.88765 0
M  V30 6363 O 592.24 -0.942419 1.56284 0
M  V30 6364 C 592.291 2.33538 2.75939 0
M  V30 6365 O 592.012 3.67786 2.38045 0
M  V30 6366 C 593.513 2.44555 3.6974 0
M  V30 6367 H 590.733 0.488472 0.460039 0
M  V30 6368 H 593.277 1.85245 0.86629 0
M  V30 6369 H 591.432 1.94962 3.34766 0
M  V30 6370 H 591.846 4.15816 3.19683 0
M  V30 6371 H 593.32 3.11849 4.55471 0
M  V30 6372 H 593.797 1.47447 4.1371 0
M  V30 6373 H 594.403 2.83735 3.16819 0
M  V30 6374 N 592.718 -0.936591 1.26751 0
M  V30 6375 C 593.648 -2.05315 1.11212 0
M  V30 6376 C 594.629 -1.70092 0.0160262 0
M  V30 6377 O 595.814 -1.93279 0.188894 0
M  V30 6378 C 592.944 -3.39123 0.749171 0
M  V30 6379 C 591.898 -3.88425 1.79751 0
M  V30 6380 C 591.224 -5.18936 1.28876 0
M  V30 6381 C 592.524 -4.12798 3.19992 0
M  V30 6382 H 594.218 -2.18573 2.04613 0
M  V30 6383 H 591.764 -1.05027 0.985159 0
M  V30 6384 H 593.717 -4.16704 0.627323 0
M  V30 6385 H 592.441 -3.25855 -0.220543 0
M  V30 6386 H 591.1 -3.13028 1.90811 0
M  V30 6387 H 590.748 -5.02051 0.308757 0
M  V30 6388 H 590.448 -5.52892 1.98958 0
M  V30 6389 H 591.972 -5.99096 1.17967 0
M  V30 6390 H 593.386 -4.80977 3.11983 0
M  V30 6391 H 591.783 -4.58044 3.87705 0
M  V30 6392 H 592.853 -3.18412 3.65707 0
M  V30 6393 N 594.196 -1.08629 -1.14182 0
M  V30 6394 C 595.442 -0.818556 -1.85546 0
M  V30 6395 C 595.775 0.654076 -1.82854 0
M  V30 6396 O 595.05 1.48099 -1.26083 0
M  V30 6397 C 595.333 -1.34397 -3.3408 0
M  V30 6398 C 595.186 -2.8821 -3.45333 0
M  V30 6399 C 596.505 -0.971069 -4.29253 0
M  V30 6400 H 593.624 -0.298821 -0.673702 0
M  V30 6401 H 596.266 -1.34629 -1.34071 0
M  V30 6402 H 594.416 -0.895064 -3.78049 0
M  V30 6403 H 596.088 -3.41488 -3.10134 0
M  V30 6404 H 594.331 -3.25756 -2.86471 0
M  V30 6405 H 595.002 -3.20047 -4.49749 0
M  V30 6406 H 597.478 -1.35809 -3.93313 0
M  V30 6407 H 596.354 -1.36586 -5.31635 0
M  V30 6408 H 596.615 0.121659 -4.41933 0
M  V30 6409 N 595.674 1.31259 -0.872281 0
M  V30 6410 C 596.624 2.26 -0.301295 0
M  V30 6411 C 597.608 1.50729 0.562991 0
M  V30 6412 O 598.8 1.72198 0.40949 0
M  V30 6413 C 595.929 3.39724 0.494227 0
M  V30 6414 C 595.015 4.22363 -0.383432 0
M  V30 6415 N 595.406 4.83724 -1.47799 0
M  V30 6416 C 593.704 4.45652 -0.176278 0
M  V30 6417 C 594.405 5.45523 -2.01939 0
M  V30 6418 N 593.381 5.27428 -1.31608 0
M  V30 6419 H 597.183 2.70981 -1.13782 0
M  V30 6420 H 594.697 1.45552 -0.720294 0
M  V30 6421 H 596.694 4.06626 0.919828 0
M  V30 6422 H 595.354 2.96286 1.32834 0
M  V30 6423 H 596.365 4.83313 -1.8609 0
M  V30 6424 H 593.042 4.12845 0.621698 0
M  V30 6425 H 594.432 6.04268 -2.93786 0
M  V30 6426 N 597.152 0.631951 1.44375 0
M  V30 6427 C 598.115 -0.0628142 2.29114 0
M  V30 6428 C 599.115 -0.771494 1.41084 0
M  V30 6429 O 600.305 -0.615959 1.62947 0
M  V30 6430 C 597.437 -1.09953 3.22681 0
M  V30 6431 H 598.63 0.682509 2.92031 0
M  V30 6432 H 596.183 0.392128 1.51301 0
M  V30 6433 H 596.918 -1.87481 2.64616 0
M  V30 6434 H 596.703 -0.595286 3.87555 0
M  V30 6435 H 598.193 -1.58538 3.86336 0
M  V30 6436 N 598.631 -1.53133 0.372548 0
M  V30 6437 C 599.908 -1.93704 -0.271693 0
M  V30 6438 C 600.288 -1.30667 -1.65799 0
M  V30 6439 O 599.636 -0.46838 -2.23648 0
M  V30 6440 C 599.846 -3.47576 -0.314903 0
M  V30 6441 C 601.194 -4.20998 -0.551912 0
M  V30 6442 O 602.218 -3.53994 -0.39582 0
M  V30 6443 O 601.077 -5.39748 -0.85639 0
M  V30 6444 H 598.171 -0.810457 -0.164586 0
M  V30 6445 H 600.717 -1.6427 0.425838 0
M  V30 6446 H 599.489 -3.85749 0.656792 0
M  V30 6447 H 599.112 -3.83264 -1.05804 0
M  V30 6448 N 600.109 -0.101901 -1.5727 0
M  V30 6449 C 601.039 0.851544 -2.17419 0
M  V30 6450 C 602.02 1.28942 -1.10941 0
M  V30 6451 O 603.205 1.35509 -1.39107 0
M  V30 6452 C 600.335 2.10816 -2.75996 0
M  V30 6453 C 599.289 1.80867 -3.87906 0
M  V30 6454 C 598.615 3.13413 -4.33216 0
M  V30 6455 C 599.915 1.0903 -5.10793 0
M  V30 6456 H 601.609 0.350381 -2.97343 0
M  V30 6457 H 599.155 0.16709 -1.43027 0
M  V30 6458 H 601.108 2.77959 -3.16729 0
M  V30 6459 H 599.832 2.63227 -1.93337 0
M  V30 6460 H 598.491 1.16119 -3.47724 0
M  V30 6461 H 598.139 3.63725 -3.47438 0
M  V30 6462 H 597.839 2.94155 -5.08671 0
M  V30 6463 H 599.363 3.81704 -4.76586 0
M  V30 6464 H 600.777 1.66295 -5.48652 0
M  V30 6465 H 599.174 0.99927 -5.91722 0
M  V30 6466 H 600.244 0.0741704 -4.84843 0
M  V30 6467 N 601.587 1.56661 0.17182 0
M  V30 6468 C 602.812 1.86459 0.908165 0
M  V30 6469 C 603.237 0.688181 1.75059 0
M  V30 6470 O 602.595 -0.362753 1.77634 0
M  V30 6471 C 602.643 3.14669 1.76112 0
M  V30 6472 O 601.747 2.96858 2.86268 0
M  V30 6473 H 601.088 0.613318 0.254434 0
M  V30 6474 H 603.618 2.03892 0.170113 0
M  V30 6475 H 603.628 3.46061 2.16115 0
M  V30 6476 H 602.303 3.99905 1.14233 0
M  V30 6477 H 600.88 2.76819 2.49852 0
M  V30 6478 N 603.065 -0.440357 1.51323 0
M  V30 6479 C 603.975 -1.55955 1.75258 0
M  V30 6480 C 604.991 -1.61933 0.636687 0
M  V30 6481 O 606.167 -1.79231 0.918593 0
M  V30 6482 C 603.232 -2.9196 1.86977 0
M  V30 6483 C 602.293 -2.96122 3.10822 0
M  V30 6484 C 601.526 -4.2564 3.21973 0
M  V30 6485 O 601.749 -5.17851 2.39137 0
M  V30 6486 O 600.683 -4.36025 4.14929 0
M  V30 6487 H 604.509 -1.38673 2.70191 0
M  V30 6488 H 602.094 -0.623055 1.35788 0
M  V30 6489 H 603.976 -3.72682 1.96688 0
M  V30 6490 H 602.651 -3.09375 0.952307 0
M  V30 6491 H 601.558 -2.14366 3.06591 0
M  V30 6492 H 602.891 -2.83651 4.02247 0
M  V30 6493 N 604.543 -1.41418 -0.695603 0
M  V30 6494 C 605.773 -1.43921 -1.48224 0
M  V30 6495 C 606.181 -0.0428855 -1.89151 0
M  V30 6496 O 605.524 0.948138 -1.5734 0
M  V30 6497 C 605.586 -2.28466 -2.77567 0
M  V30 6498 C 605.25 -3.76629 -2.58844 0
M  V30 6499 C 606.247 -4.6879 -2.24793 0
M  V30 6500 C 603.932 -4.2067 -2.74485 0
M  V30 6501 C 605.926 -6.02981 -2.06622 0
M  V30 6502 C 603.613 -5.54926 -2.55931 0
M  V30 6503 C 604.611 -6.45897 -2.2205 0
M  V30 6504 O 604.299 -7.77675 -2.03657 0
M  V30 6505 H 604.031 -0.492252 -0.463318 0
M  V30 6506 H 606.585 -1.86347 -0.863952 0
M  V30 6507 H 604.815 -1.80853 -3.41802 0
M  V30 6508 H 606.504 -2.2267 -3.39371 0
M  V30 6509 H 607.27 -4.36055 -2.12323 0
M  V30 6510 H 603.149 -3.50167 -2.9984 0
M  V30 6511 H 606.693 -6.73951 -1.80099 0
M  V30 6512 H 602.59 -5.8724 -2.67991 0
M  V30 6513 H 603.358 -7.88819 -2.1842 0
M  V30 6514 N 606.021 0.929856 -1.27246 0
M  V30 6515 C 606.969 2.05151 -1.09616 0
M  V30 6516 C 607.963 1.69388 -0.0198617 0
M  V30 6517 O 609.169 1.79124 -0.177417 0
M  V30 6518 H 605.544 0.671909 -0.337701 0
M  V30 6519 H 607.515 2.17168 -2.04648 0
M  V30 6520 C 606.264 3.3934 -0.757851 0
M  V30 6521 H 605.587 3.67343 -1.57795 0
M  V30 6522 H 607.027 4.18603 -0.674358 0
M  V30 6523 C 605.486 3.32582 0.537658 0
M  V30 6524 O 606.016 3.69633 1.57271 0
M  V30 6525 N 604.222 2.8568 0.532478 0
M  V30 6526 H 603.769 2.55725 -0.310233 0
M  V30 6527 H 603.727 2.81541 1.39936 0
M  V30 6528 N 607.499 1.09233 1.13605 0
M  V30 6529 C 608.432 0.6739 2.18023 0
M  V30 6530 C 609.41 -0.318603 1.59448 0
M  V30 6531 O 610.594 -0.220452 1.87206 0
M  V30 6532 C 607.721 -0.00751458 3.38699 0
M  V30 6533 C 606.767 0.946481 4.15865 0
M  V30 6534 S 607.6 2.45753 4.75779 0
M  V30 6535 C 608.756 1.78846 5.99804 0
M  V30 6536 H 608.989 1.55846 2.53178 0
M  V30 6537 H 606.522 0.908118 1.2487 0
M  V30 6538 H 608.48 -0.394368 4.08601 0
M  V30 6539 H 607.141 -0.868693 3.01849 0
M  V30 6540 H 606.334 0.416742 5.02274 0
M  V30 6541 H 605.936 1.27464 3.51609 0
M  V30 6542 H 608.228 1.11135 6.68323 0
M  V30 6543 H 609.171 2.63163 6.57382 0
M  V30 6544 H 609.579 1.25823 5.50299 0
M  V30 6545 N 608.977 -1.30795 0.87923 0
M  V30 6546 C 609.907 -2.30742 0.357796 0
M  V30 6547 C 610.888 -1.60747 -0.556283 0
M  V30 6548 O 612.073 -1.88393 -0.47135 0
M  V30 6549 C 609.203 -3.44583 -0.433555 0
M  V30 6550 C 608.157 -4.26235 0.388251 0
M  V30 6551 C 607.483 -5.32073 -0.529352 0
M  V30 6552 C 608.783 -4.96303 1.62729 0
M  V30 6553 H 610.477 -2.74605 1.19299 0
M  V30 6554 H 608.023 -1.32017 0.575104 0
M  V30 6555 H 609.976 -4.13563 -0.808934 0
M  V30 6556 H 608.7 -2.99511 -1.30234 0
M  V30 6557 H 607.359 -3.58936 0.745695 0
M  V30 6558 H 607.007 -4.83249 -1.39569 0
M  V30 6559 H 606.707 -5.87598 0.0166741 0
M  V30 6560 H 608.231 -6.0391 -0.901373 0
M  V30 6561 H 609.645 -5.5783 1.32283 0
M  V30 6562 H 608.042 -5.61666 2.11309 0
M  V30 6563 H 609.112 -4.22758 2.37494 0
M  V30 6564 N 610.455 -0.639598 -1.44038 0
M  V30 6565 C 611.701 -0.156248 -2.02799 0
M  V30 6566 C 612.056 1.21145 -1.49471 0
M  V30 6567 O 611.349 1.79406 -0.672608 0
M  V30 6568 C 611.543 -0.0925348 -3.5728 0
M  V30 6569 C 611.372 -1.45252 -4.25596 0
M  V30 6570 C 610.142 -2.04145 -4.62226 0
M  V30 6571 C 612.34 -2.38812 -4.55492 0
M  V30 6572 N 610.322 -3.3329 -5.15549 0
M  V30 6573 C 611.693 -3.52578 -5.09989 0
M  V30 6574 C 613.748 -2.37785 -4.3745 0
M  V30 6575 C 612.451 -4.65525 -5.48342 0
M  V30 6576 C 614.477 -3.49802 -4.76857 0
M  V30 6577 C 613.839 -4.62292 -5.31475 0
M  V30 6578 H 609.938 -0.101292 -0.775412 0
M  V30 6579 H 612.522 -0.844938 -1.75411 0
M  V30 6580 H 610.693 0.565459 -3.84262 0
M  V30 6581 H 612.425 0.400426 -4.02714 0
M  V30 6582 H 609.18 -1.56999 -4.4682 0
M  V30 6583 H 609.604 -3.9934 -5.46678 0
M  V30 6584 H 614.246 -1.52061 -3.94509 0
M  V30 6585 H 611.964 -5.51951 -5.90233 0
M  V30 6586 H 615.55 -3.50193 -4.64603 0
M  V30 6587 H 614.43 -5.47536 -5.61403 0
M  V30 6588 N 611.933 1.52934 -0.380664 0
M  V30 6589 C 612.883 2.22989 0.475399 0
M  V30 6590 C 613.867 1.23058 1.03661 0
M  V30 6591 O 615.059 1.48436 0.964146 0
M  V30 6592 C 612.188 3.0338 1.60671 0
M  V30 6593 C 611.274 4.107 1.05766 0
M  V30 6594 N 611.665 5.05264 0.232837 0
M  V30 6595 C 609.963 4.25676 1.33101 0
M  V30 6596 C 610.664 5.81658 -0.0695134 0
M  V30 6597 N 609.64 5.40989 0.532144 0
M  V30 6598 H 613.442 2.93456 -0.161418 0
M  V30 6599 H 610.956 1.61291 -0.189495 0
M  V30 6600 H 612.953 3.52098 2.23232 0
M  V30 6601 H 611.613 2.34446 2.24644 0
M  V30 6602 H 612.624 5.17739 -0.129204 0
M  V30 6603 H 609.301 3.6797 1.97241 0
M  V30 6604 H 610.691 6.67843 -0.737269 0
M  V30 6605 N 613.412 0.11024 1.57214 0
M  V30 6606 C 614.375 -0.828808 2.1369 0
M  V30 6607 C 615.375 -1.20059 1.06969 0
M  V30 6608 O 616.565 -1.12754 1.32786 0
M  V30 6609 C 613.697 -2.11959 2.66994 0
M  V30 6610 H 614.89 -0.338146 2.97988 0
M  V30 6611 H 612.443 -0.138913 1.55681 0
M  V30 6612 H 613.178 -2.65476 1.8626 0
M  V30 6613 H 612.963 -1.86258 3.45037 0
M  V30 6614 H 614.453 -2.79105 3.10629 0
M  V30 6615 N 614.89 -1.56749 -0.16351 0
M  V30 6616 C 616.138 -1.82074 -0.87713 0
M  V30 6617 C 616.459 -0.688503 -1.82441 0
M  V30 6618 O 615.729 0.291085 -1.93725 0
M  V30 6619 H 614.309 -0.671677 -0.326893 0
M  V30 6620 H 616.971 -1.9423 -0.161459 0
M  V30 6621 H 616.067 -2.76407 -1.44934 0
M  V30 6622 N 616.368 0.432326 -1.51554 0
M  V30 6623 C 617.315 1.52512 -1.7323 0
M  V30 6624 C 618.285 1.55863 -0.5741 0
M  V30 6625 O 619.47 1.72796 -0.809093 0
M  V30 6626 C 616.61 2.90183 -1.86783 0
M  V30 6627 C 615.723 2.96322 -3.14352 0
M  V30 6628 C 614.858 4.25147 -3.18471 0
M  V30 6629 C 613.897 4.25172 -4.40335 0
M  V30 6630 N 613.034 5.45529 -4.41975 0
M  V30 6631 H 617.874 1.33332 -2.66508 0
M  V30 6632 H 615.411 0.647613 -1.32077 0
M  V30 6633 H 617.369 3.70071 -1.92623 0
M  V30 6634 H 615.999 3.0791 -0.969087 0
M  V30 6635 H 615.051 2.09066 -3.17798 0
M  V30 6636 H 616.363 2.92203 -4.04251 0
M  V30 6637 H 615.517 5.13411 -3.23255 0
M  V30 6638 H 614.256 4.31929 -2.2647 0
M  V30 6639 H 613.261 3.353 -4.35723 0
M  V30 6640 H 614.486 4.20049 -5.33606 0
M  V30 6641 H 612.432 5.53024 -3.52847 0
M  V30 6642 H 612.349 5.43311 -5.25689 0
M  V30 6643 H 613.617 6.35812 -4.50958 0
M  V30 6644 N 617.846 1.41785 0.688094 0
M  V30 6645 C 619.092 1.41753 1.4503 0
M  V30 6646 C 619.425 0.0290745 1.94178 0
M  V30 6647 O 618.7 -0.944456 1.7003 0
M  V30 6648 C 618.983 2.43069 2.65686 0
M  V30 6649 C 618.836 3.91053 2.22256 0
M  V30 6650 C 620.155 2.41543 3.67893 0
M  V30 6651 H 617.274 0.516202 0.526027 0
M  V30 6652 H 619.916 1.73111 0.783105 0
M  V30 6653 H 618.066 2.1646 3.2261 0
M  V30 6654 H 619.738 4.28594 1.70602 0
M  V30 6655 H 617.981 4.05559 1.53963 0
M  V30 6656 H 618.652 4.57501 3.08863 0
M  V30 6657 H 621.128 2.65175 3.20658 0
M  V30 6658 H 620.004 3.14434 4.49914 0
M  V30 6659 H 620.265 1.43666 4.18106 0
M  V30 6660 N 619.324 -0.923095 1.27737 0
M  V30 6661 C 620.57 -1.67409 1.15524 0
M  V30 6662 C 620.925 -1.90124 -0.295072 0
M  V30 6663 O 620.218 -1.48382 -1.21216 0
M  V30 6664 C 620.412 -3.04125 1.8773 0
M  V30 6665 C 620.241 -2.94752 3.39634 0
M  V30 6666 C 619.011 -2.96783 4.0896 0
M  V30 6667 C 621.209 -2.73524 4.35533 0
M  V30 6668 N 619.191 -2.779 5.47398 0
M  V30 6669 C 620.562 -2.63391 5.61271 0
M  V30 6670 C 622.617 -2.58447 4.2557 0
M  V30 6671 C 621.32 -2.3972 6.78179 0
M  V30 6672 C 623.346 -2.36154 5.42204 0
M  V30 6673 C 622.708 -2.26768 6.669 0
M  V30 6674 H 618.807 -0.619196 0.477619 0
M  V30 6675 H 621.391 -1.09094 1.61266 0
M  V30 6676 H 619.562 -3.60545 1.44436 0
M  V30 6677 H 621.294 -3.6819 1.67982 0
M  V30 6678 H 618.049 -3.07186 3.60463 0
M  V30 6679 H 618.473 -2.71576 6.20141 0
M  V30 6680 H 623.115 -2.6446 3.2988 0
M  V30 6681 H 620.833 -2.32447 7.73947 0
M  V30 6682 H 624.419 -2.25367 5.36378 0
M  V30 6683 H 623.299 -2.09751 7.55628 0
M  V30 6684 N 620.802 -1.09834 -1.13024 0
M  V30 6685 C 621.732 -0.763451 -2.20666 0
M  V30 6686 C 622.713 0.260778 -1.68089 0
M  V30 6687 O 623.898 0.127915 -1.93778 0
M  V30 6688 C 621.028 -0.187744 -3.46792 0
M  V30 6689 C 619.982 -1.14196 -4.12484 0
M  V30 6690 C 619.308 -0.427755 -5.32986 0
M  V30 6691 C 620.608 -2.48607 -4.59338 0
M  V30 6692 H 622.302 -1.66347 -2.48936 0
M  V30 6693 H 619.848 -0.801261 -1.19649 0
M  V30 6694 H 621.801 0.0586375 -4.21359 0
M  V30 6695 H 620.525 0.747485 -3.17931 0
M  V30 6696 H 619.184 -1.37369 -3.3989 0
M  V30 6697 H 618.832 0.511747 -5.0039 0
M  V30 6698 H 618.532 -1.06403 -5.77886 0
M  V30 6699 H 620.056 -0.189772 -6.10305 0
M  V30 6700 H 621.47 -2.29618 -5.25308 0
M  V30 6701 H 619.867 -3.08062 -5.14993 0
M  V30 6702 H 620.937 -3.09062 -3.73642 0
M  V30 6703 N 622.28 1.30327 -0.886154 0
M  V30 6704 C 623.529 1.95373 -0.501243 0
M  V30 6705 C 623.842 1.70722 0.954634 0
M  V30 6706 O 625.048 2.29761 1.44644 0
M  V30 6707 C 623.504 3.49828 -0.845493 0
M  V30 6708 C 623.112 3.83296 -2.31922 0
M  V30 6709 C 624.856 4.2118 -0.529838 0
M  V30 6710 C 622.763 5.30935 -2.60504 0
M  V30 6711 H 621.693 0.731274 -0.183722 0
M  V30 6712 H 624.344 1.48258 -1.08129 0
M  V30 6713 H 622.726 3.95522 -0.19452 0
M  V30 6714 H 623.9 3.48508 -3.01461 0
M  V30 6715 H 622.215 3.2505 -2.60253 0
M  V30 6716 H 624.812 5.29825 -0.720401 0
M  V30 6717 H 625.155 4.12902 0.530828 0
M  V30 6718 H 625.688 3.81173 -1.13806 0
M  V30 6719 H 622.427 5.44265 -3.65316 0
M  V30 6720 H 621.947 5.67019 -1.95575 0
M  V30 6721 H 623.626 5.98381 -2.46066 0
M  V30 6722 N 623.758 0.647228 1.43697 0
M  V30 6723 C 625.035 0.0883758 1.954 0
M  V30 6724 C 625.415 -1.39006 1.58873 0
M  V30 6725 O 624.763 -2.11255 0.87083 0
M  V30 6726 C 624.973 0.328263 3.47453 0
M  V30 6727 C 626.321 0.230009 4.23977 0
M  V30 6728 O 627.345 0.260496 3.55246 0
M  V30 6729 O 626.204 0.148615 5.46298 0
M  V30 6730 H 623.298 -0.0130683 0.826897 0
M  V30 6731 H 625.844 0.72005 1.53666 0
M  V30 6732 H 624.616 1.3535 3.67146 0
M  V30 6733 H 624.239 -0.336772 3.96171 0
M  V30 6734 N 625.236 -1.5273 0.388769 0
M  V30 6735 C 626.482 -2.01871 -0.193877 0
M  V30 6736 C 626.815 -1.27475 -1.46505 0
M  V30 6737 O 626.09 -0.375063 -1.90849 0
M  V30 6738 C 626.373 -3.5712 -0.462336 0
M  V30 6739 C 626.226 -4.42186 0.824091 0
M  V30 6740 C 627.545 -4.21881 -1.25319 0
M  V30 6741 H 624.664 -0.733764 -0.0689899 0
M  V30 6742 H 627.306 -1.82796 0.518231 0
M  V30 6743 H 625.456 -3.73504 -1.06896 0
M  V30 6744 H 627.128 -4.37554 1.46096 0
M  V30 6745 H 625.371 -4.09219 1.43952 0
M  V30 6746 H 626.042 -5.48828 0.590905 0
M  V30 6747 H 628.518 -4.0947 -0.73981 0
M  V30 6748 H 627.394 -5.30487 -1.40977 0
M  V30 6749 H 627.655 -3.79478 -2.26824 0
M  V30 6750 N 626.714 -0.118576 -1.57153 0
M  V30 6751 C 627.939 0.550582 -1.99958 0
M  V30 6752 C 628.364 1.59458 -0.997736 0
M  V30 6753 O 627.722 1.81274 0.0306269 0
M  V30 6754 C 627.77 1.15379 -3.41643 0
M  V30 6755 O 626.874 2.26932 -3.44348 0
M  V30 6756 H 626.215 0.137567 -0.649593 0
M  V30 6757 H 628.745 -0.206926 -2.03551 0
M  V30 6758 H 628.755 1.48942 -3.79843 0
M  V30 6759 H 627.43 0.389087 -4.14076 0
M  V30 6760 H 626.007 1.94812 -3.17967 0
M  V30 6761 N 628.193 1.56834 0.155195 0
M  V30 6762 C 629.125 1.94235 1.21677 0
M  V30 6763 C 630.138 0.83724 1.39621 0
M  V30 6764 O 631.327 1.11567 1.39338 0
M  V30 6765 C 628.427 2.19402 2.58294 0
M  V30 6766 C 627.6 3.50671 2.61436 0
M  V30 6767 C 626.659 3.64475 3.79532 0
M  V30 6768 O 625.685 4.36945 3.64784 0
M  V30 6769 N 626.887 3.00526 4.96653 0
M  V30 6770 H 629.652 2.85901 0.898932 0
M  V30 6771 H 627.213 1.58185 0.34483 0
M  V30 6772 H 629.205 2.25886 3.35794 0
M  V30 6773 H 627.775 1.34042 2.82403 0
M  V30 6774 H 626.995 3.55702 1.69912 0
M  V30 6775 H 628.283 4.3702 2.60559 0
M  V30 6776 H 627.681 2.41549 5.11538 0
M  V30 6777 H 626.238 3.12583 5.71958 0
M  V30 6778 N 629.671 -0.424282 1.51781 0
M  V30 6779 C 630.896 -1.19928 1.6921 0
M  V30 6780 C 631.321 -1.8392 0.394355 0
M  V30 6781 O 630.679 -1.69371 -0.646778 0
M  V30 6782 C 630.727 -2.24937 2.81843 0
M  V30 6783 O 629.831 -3.3073 2.46356 0
M  V30 6784 H 629.172 -0.35078 0.563781 0
M  V30 6785 H 631.702 -0.499401 1.98412 0
M  V30 6786 H 631.712 -2.69512 3.06312 0
M  V30 6787 H 630.387 -1.77742 3.76006 0
M  V30 6788 H 628.964 -2.9154 2.32505 0
M  V30 6789 N 631.149 -1.42148 -0.680565 0
M  V30 6790 C 632.395 -1.42521 -1.44277 0
M  V30 6791 C 632.728 -0.0393718 -1.9416 0
M  V30 6792 O 632.003 0.935425 -1.70529 0
M  V30 6793 C 632.286 -2.44475 -2.64394 0
M  V30 6794 C 632.139 -3.92226 -2.20179 0
M  V30 6795 C 633.458 -2.43491 -3.66606 0
M  V30 6796 H 630.577 -0.518985 -0.523282 0
M  V30 6797 H 633.219 -1.73524 -0.773914 0
M  V30 6798 H 631.369 -2.18168 -3.21458 0
M  V30 6799 H 633.041 -4.29493 -1.68327 0
M  V30 6800 H 631.284 -4.0637 -1.5181 0
M  V30 6801 H 631.955 -4.59133 -3.06433 0
M  V30 6802 H 634.431 -2.66872 -3.19247 0
M  V30 6803 H 633.307 -3.16816 -4.4824 0
M  V30 6804 H 633.568 -1.45881 -4.17338 0
M  V30 6805 N 632.627 0.916307 -1.28225 0
M  V30 6806 C 633.537 2.05165 -1.13775 0
M  V30 6807 C 634.553 1.73879 -0.0649418 0
M  V30 6808 O 635.729 1.99531 -0.273722 0
M  V30 6809 C 632.794 3.37385 -0.798267 0
M  V30 6810 C 631.855 3.82296 -1.95316 0
M  V30 6811 C 631.088 5.08206 -1.62978 0
M  V30 6812 O 631.311 5.6781 -0.542948 0
M  V30 6813 O 630.245 5.48768 -2.47261 0
M  V30 6814 H 634.071 2.20273 -2.09078 0
M  V30 6815 H 631.656 1.0373 -1.07519 0
M  V30 6816 H 633.538 4.16773 -0.62278 0
M  V30 6817 H 632.213 3.23458 0.125139 0
M  V30 6818 H 631.12 3.03746 -2.18378 0
M  V30 6819 H 632.453 4.00782 -2.85718 0
M  V30 6820 N 634.105 1.10431 1.1244 0
M  V30 6821 C 635.516 0.864439 1.65482 0
M  V30 6822 C 635.867 -0.60527 1.8663 0
M  V30 6823 O 634.992 -1.46492 1.59276 0
M  V30 6824 C 635.587 1.56267 3.0061 0
M  V30 6825 C 634.146 1.3695 3.50602 0
M  V30 6826 C 633.293 1.61209 2.25626 0
M  V30 6827 H 636.244 1.26203 0.962209 0
M  V30 6828 H 636.265 1.00166 3.67079 0
M  V30 6829 H 635.777 2.63231 2.85186 0
M  V30 6830 H 633.878 0.321481 3.71211 0
M  V30 6831 H 633.991 2.11143 4.30064 0
M  V30 6832 H 632.355 1.03482 2.32731 0
M  V30 6833 H 633.138 2.69425 2.12756 0
M  V30 6834 N 635.583 -1.29855 0.893053 0
M  V30 6835 C 636.811 -1.99976 0.530788 0
M  V30 6836 C 637.226 -1.66889 -0.882799 0
M  V30 6837 O 636.583 -0.910352 -1.58173 0
M  V30 6838 C 636.634 -3.54547 0.705587 0
M  V30 6839 O 636.355 -3.86458 2.06353 0
M  V30 6840 C 637.856 -4.41937 0.347387 0
M  V30 6841 H 635.076 -0.639129 0.204339 0
M  V30 6842 H 637.62 -1.65549 1.20057 0
M  V30 6843 H 635.775 -3.87311 0.0830685 0
M  V30 6844 H 636.189 -4.81146 2.08803 0
M  V30 6845 H 637.663 -5.4954 0.520557 0
M  V30 6846 H 638.14 -4.33339 -0.715139 0
M  V30 6847 H 638.746 -4.14633 0.946567 0
M  V30 6848 N 637.061 -0.65484 -1.43351 0
M  V30 6849 C 638.011 0.0581325 -2.27926 0
M  V30 6850 C 638.995 0.793188 -1.3999 0
M  V30 6851 O 640.187 0.675387 -1.63608 0
M  V30 6852 C 637.316 1.02272 -3.27712 0
M  V30 6853 C 636.402 0.286048 -4.23134 0
M  V30 6854 N 636.793 -0.698298 -5.00957 0
M  V30 6855 C 635.091 0.527272 -4.42872 0
M  V30 6856 C 635.792 -1.1357 -5.70506 0
M  V30 6857 N 634.768 -0.469631 -5.41568 0
M  V30 6858 H 638.57 -0.697182 -2.85511 0
M  V30 6859 H 636.084 -0.482252 -1.55074 0
M  V30 6860 H 638.081 1.5483 -3.87083 0
M  V30 6861 H 636.741 1.77807 -2.71688 0
M  V30 6862 H 637.752 -1.07708 -5.06576 0
M  V30 6863 H 634.429 1.26367 -3.97916 0
M  V30 6864 H 635.819 -1.95027 -6.42973 0
M  V30 6865 N 638.539 1.52521 -0.396863 0
M  V30 6866 C 639.95 1.86547 0.0754868 0
M  V30 6867 C 640.301 1.31621 1.45501 0
M  V30 6868 O 639.426 0.650563 2.0639 0
M  V30 6869 C 640.021 3.38495 0.143754 0
M  V30 6870 C 638.58 3.72205 0.560413 0
M  V30 6871 C 637.727 2.75954 -0.272856 0
M  V30 6872 H 640.678 1.46323 -0.614434 0
M  V30 6873 H 640.699 3.68153 0.961425 0
M  V30 6874 H 640.211 3.78442 -0.860415 0
M  V30 6875 H 638.312 3.3783 1.57167 0
M  V30 6876 H 638.425 4.78074 0.313314 0
M  V30 6877 H 636.789 2.53339 0.263 0
M  V30 6878 H 637.572 3.1874 -1.27515 0
M  V30 6879 N 640.017 0.126909 1.57088 0
M  V30 6880 C 640.967 -0.831678 2.1229 0
M  V30 6881 C 641.951 -1.22292 1.04564 0
M  V30 6882 O 643.143 -1.19269 1.30782 0
M  V30 6883 C 640.272 -2.07866 2.73215 0
M  V30 6884 C 639.358 -1.71143 3.88035 0
M  V30 6885 N 639.749 -1.05136 4.94753 0
M  V30 6886 C 638.047 -2.00549 3.98367 0
M  V30 6887 C 638.748 -0.877257 5.75047 0
M  V30 6888 N 637.724 -1.40477 5.25135 0
M  V30 6889 H 641.526 -0.317926 2.92175 0
M  V30 6890 H 639.04 -0.0753052 1.62225 0
M  V30 6891 H 641.037 -2.77516 3.11111 0
M  V30 6892 H 639.697 -2.59778 1.94796 0
M  V30 6893 H 640.708 -0.71442 5.12949 0
M  V30 6894 H 637.385 -2.54452 3.30999 0
M  V30 6895 H 638.775 -0.358536 6.70943 0
M  V30 6896 N 641.495 -1.56914 -0.146875 0
M  V30 6897 C 642.743 -1.82994 -0.85777 0
M  V30 6898 C 643.064 -0.707814 -1.817 0
M  V30 6899 O 642.334 0.270521 -1.94023 0
M  V30 6900 H 640.914 -0.675106 -0.319751 0
M  V30 6901 H 643.576 -1.9439 -0.140849 0
M  V30 6902 H 642.672 -2.77928 -1.41994 0
M  V30 6903 N 642.974 0.416227 -1.52004 0
M  V30 6904 C 643.904 1.51365 -1.77795 0
M  V30 6905 C 644.885 1.58059 -0.628601 0
M  V30 6906 O 646.07 1.73447 -0.873478 0
M  V30 6907 C 643.2 2.89256 -1.92219 0
M  V30 6908 C 642.154 2.97415 -3.0778 0
M  V30 6909 C 641.48 4.37492 -3.07417 0
M  V30 6910 C 642.78 2.69551 -4.47369 0
M  V30 6911 H 644.474 1.30033 -2.69688 0
M  V30 6912 H 642.02 0.624112 -1.29772 0
M  V30 6913 H 643.973 3.66008 -2.08845 0
M  V30 6914 H 642.697 3.11866 -0.969917 0
M  V30 6915 H 641.356 2.23107 -2.90893 0
M  V30 6916 H 641.004 4.571 -2.09925 0
M  V30 6917 H 640.704 4.43877 -3.85029 0
M  V30 6918 H 642.228 5.16188 -3.26162 0
M  V30 6919 H 643.642 3.36028 -4.64497 0
M  V30 6920 H 642.039 2.87321 -5.26846 0
M  V30 6921 H 643.109 1.65029 -4.55953 0
M  V30 6922 N 644.452 1.42507 0.673017 0
M  V30 6923 C 645.362 1.4853 1.81593 0
M  V30 6924 C 646.378 0.373907 1.69935 0
M  V30 6925 O 647.554 0.625078 1.91454 0
M  V30 6926 C 644.619 1.387 3.17747 0
M  V30 6927 C 643.68 2.60346 3.41348 0
M  V30 6928 C 642.913 2.50975 4.71007 0
M  V30 6929 O 643.136 1.54659 5.49033 0
M  V30 6930 O 642.07 3.41138 4.95892 0
M  V30 6931 H 645.896 2.45001 1.79467 0
M  V30 6932 H 643.481 1.2429 0.82899 0
M  V30 6933 H 645.363 1.35586 3.98992 0
M  V30 6934 H 644.038 0.453555 3.20507 0
M  V30 6935 H 642.945 2.69034 2.59945 0
M  V30 6936 H 644.278 3.52595 3.43421 0
M  V30 6937 N 645.93 -0.909495 1.28709 0
M  V30 6938 C 647.177 -1.65905 1.16111 0
M  V30 6939 C 647.505 -1.92334 -0.289436 0
M  V30 6940 O 646.76 -1.52495 -1.22653 0
M  V30 6941 C 647.059 -3.02117 1.90945 0
M  V30 6942 C 646.725 -2.95332 3.40719 0
M  V30 6943 C 645.387 -2.93189 3.81567 0
M  V30 6944 C 647.739 -2.85264 4.36204 0
M  V30 6945 C 645.067 -2.78784 5.16233 0
M  V30 6946 C 647.419 -2.724 5.70948 0
M  V30 6947 C 646.083 -2.68617 6.11066 0
M  V30 6948 H 645.353 -0.60709 0.42488 0
M  V30 6949 H 648 -1.05932 1.59533 0
M  V30 6950 H 646.305 -3.65901 1.40085 0
M  V30 6951 H 648.002 -3.59026 1.7861 0
M  V30 6952 H 644.592 -2.97797 3.08245 0
M  V30 6953 H 648.776 -2.86005 4.05605 0
M  V30 6954 H 644.032 -2.74254 5.46438 0
M  V30 6955 H 648.206 -2.63579 6.44592 0
M  V30 6956 H 645.833 -2.57213 7.15364 0
M  V30 6957 N 647.408 -1.11026 -1.11852 0
M  V30 6958 C 648.338 -0.786812 -2.19844 0
M  V30 6959 C 649.319 0.242935 -1.68356 0
M  V30 6960 O 650.504 0.107355 -1.93903 0
M  V30 6961 C 647.634 -0.224516 -3.46574 0
M  V30 6962 C 646.588 -1.18564 -4.1125 0
M  V30 6963 C 645.914 -0.484261 -5.32503 0
M  V30 6964 C 647.214 -2.53465 -4.56676 0
M  V30 6965 H 648.908 -1.68978 -2.47158 0
M  V30 6966 H 646.454 -0.813906 -1.18792 0
M  V30 6967 H 648.407 0.0139435 -4.21398 0
M  V30 6968 H 647.131 0.713722 -3.18706 0
M  V30 6969 H 645.79 -1.40966 -3.38414 0
M  V30 6970 H 645.438 0.458646 -5.00905 0
M  V30 6971 H 645.138 -1.12526 -5.76725 0
M  V30 6972 H 646.662 -0.254492 -6.10069 0
M  V30 6973 H 648.076 -2.35177 -5.22843 0
M  V30 6974 H 646.473 -3.13507 -5.11697 0
M  V30 6975 H 647.543 -3.13008 -3.70343 0
M  V30 6976 N 648.886 1.2938 -0.899927 0
M  V30 6977 C 650.133 1.9555 -0.525963 0
M  V30 6978 C 650.461 1.70945 0.927789 0
M  V30 6979 O 649.716 1.01545 1.67293 0
M  V30 6980 C 650.015 3.49114 -0.765113 0
M  V30 6981 C 649.681 3.93796 -2.19626 0
M  V30 6982 C 648.343 4.05707 -2.58758 0
M  V30 6983 C 650.695 4.16883 -3.12823 0
M  V30 6984 C 648.023 4.38074 -3.90267 0
M  V30 6985 C 650.375 4.50725 -4.4388 0
M  V30 6986 C 649.039 4.60845 -4.82885 0
M  V30 6987 H 648.309 0.715569 -0.192463 0
M  V30 6988 H 650.956 1.53972 -1.13863 0
M  V30 6989 H 649.261 3.91738 -0.069531 0
M  V30 6990 H 650.958 3.98409 -0.455144 0
M  V30 6991 H 647.548 3.85042 -1.88256 0
M  V30 6992 H 651.732 4.07147 -2.83804 0
M  V30 6993 H 646.988 4.44112 -4.20207 0
M  V30 6994 H 651.162 4.67538 -5.16121 0
M  V30 6995 H 648.789 4.85681 -5.84823 0
M  V30 6996 N 650.364 0.662433 1.43002 0
M  V30 6997 C 651.78 0.330835 1.56133 0
M  V30 6998 C 651.98 -1.16454 1.64441 0
M  V30 6999 O 651.036 -1.94964 1.60453 0
M  V30 7000 C 652.349 1.05029 2.81761 0
M  V30 7001 C 653.897 1.03142 2.95518 0
M  V30 7002 C 654.372 1.73196 4.2399 0
M  V30 7003 N 655.863 1.70004 4.30875 0
M  V30 7004 C 656.598 2.21074 5.29069 0
M  V30 7005 N 656.094 2.80473 6.33488 0
M  V30 7006 N 657.887 2.1152 5.20784 0
M  V30 7007 H 650.038 1.63272 1.35853 0
M  V30 7008 H 652.301 0.687149 0.653092 0
M  V30 7009 H 652.007 2.10542 2.81718 0
M  V30 7010 H 651.881 0.607664 3.72273 0
M  V30 7011 H 654.268 -0.0153339 2.95096 0
M  V30 7012 H 654.349 1.51282 2.0627 0
M  V30 7013 H 653.993 2.77833 4.25172 0
M  V30 7014 H 653.923 1.22515 5.1215 0
M  V30 7015 H 656.414 1.26667 3.56039 0
M  V30 7016 H 656.727 3.17094 7.04749 0
M  V30 7017 H 655.072 2.84538 6.34085 0
M  V30 7018 H 658.263 1.64814 4.38126 0
M  V30 7019 H 658.436 2.51629 5.97149 0
M  V30 7020 N 651.842 -1.52309 0.404946 0
M  V30 7021 C 653.119 -1.94237 -0.230544 0
M  V30 7022 C 653.499 -1.34154 -1.6299 0
M  V30 7023 O 652.847 -0.515713 -2.22604 0
M  V30 7024 C 653.057 -3.48166 -0.241106 0
M  V30 7025 C 654.405 -4.22074 -0.462488 0
M  V30 7026 O 655.429 -3.54754 -0.320644 0
M  V30 7027 O 654.288 -5.41443 -0.741708 0
M  V30 7028 H 651.382 -0.813766 -0.147358 0
M  V30 7029 H 653.928 -1.6333 0.460587 0
M  V30 7030 H 652.7 -3.84269 0.738467 0
M  V30 7031 H 652.323 -3.85422 -0.97651 0
M  V30 7032 N 653.32 -0.135238 -1.57019 0
M  V30 7033 C 654.56 0.521686 -1.9763 0
M  V30 7034 C 654.924 1.62804 -1.01778 0
M  V30 7035 O 656.125 2.345 -1.31389 0
M  V30 7036 C 654.396 1.0257 -3.42365 0
M  V30 7037 S 655.955 1.68888 -4.04997 0
M  V30 7038 H 652.773 0.169064 -0.690607 0
M  V30 7039 H 655.375 -0.224168 -1.94211 0
M  V30 7040 H 654.079 0.209556 -4.09865 0
M  V30 7041 H 653.61 1.80645 -3.49472 0
M  V30 7042 H 655.625 2.97554 -3.97084 0
M  V30 7043 N 654.798 1.5699 0.138552 0
M  V30 7044 C 656.214 1.51844 0.491472 0
M  V30 7045 C 656.414 0.845063 1.82923 0
M  V30 7046 O 655.47 0.419143 2.48997 0
M  V30 7047 C 656.783 2.96615 0.493987 0
M  V30 7048 C 658.331 3.076 0.578913 0
M  V30 7049 C 658.806 4.53893 0.612009 0
M  V30 7050 N 660.297 4.5827 0.673997 0
M  V30 7051 C 661.032 5.68852 0.720729 0
M  V30 7052 N 660.528 6.88982 0.726292 0
M  V30 7053 N 662.321 5.56908 0.762253 0
M  V30 7054 H 654.472 1.99158 -0.738228 0
M  V30 7055 H 656.735 0.908693 -0.270149 0
M  V30 7056 H 656.441 3.49172 -0.420933 0
M  V30 7057 H 656.315 3.53017 1.32887 0
M  V30 7058 H 658.702 2.55057 1.48425 0
M  V30 7059 H 658.783 2.54227 -0.283286 0
M  V30 7060 H 658.427 5.07076 -0.289208 0
M  V30 7061 H 658.357 5.05057 1.49082 0
M  V30 7062 H 660.848 3.71793 0.676654 0
M  V30 7063 H 661.161 7.69014 0.764032 0
M  V30 7064 H 659.506 6.91526 0.69403 0
M  V30 7065 H 662.697 4.61969 0.755135 0
M  V30 7066 H 662.87 6.43102 0.795207 0
M  V30 7067 N 656.276 -0.40816 1.52223 0
M  V30 7068 C 657.224 -1.51788 1.76248 0
M  V30 7069 C 658.218 -1.57264 0.629638 0
M  V30 7070 O 659.424 -1.60659 0.811704 0
M  V30 7071 H 655.799 -0.504823 0.557367 0
M  V30 7072 H 657.77 -1.2871 2.69214 0
M  V30 7073 C 656.519 -2.89145 1.93107 0
M  V30 7074 H 655.842 -2.85674 2.79697 0
M  V30 7075 H 657.282 -3.66082 2.13916 0
M  V30 7076 C 655.741 -3.29581 0.698431 0
M  V30 7077 O 656.271 -4.01479 -0.133238 0
M  V30 7078 N 654.477 -2.85651 0.53405 0
M  V30 7079 H 654.024 -2.2731 1.21194 0
M  V30 7080 H 653.982 -3.13065 -0.289387 0
M  V30 7081 N 657.755 -1.42862 -0.66545 0
M  V30 7082 C 659.001 -1.44043 -1.42757 0
M  V30 7083 C 659.334 -0.0599629 -1.94107 0
M  V30 7084 O 658.609 0.917286 -1.71511 0
M  V30 7085 C 658.892 -2.47266 -2.61786 0
M  V30 7086 C 658.745 -3.94539 -2.16007 0
M  V30 7087 C 660.064 -2.47365 -3.64003 0
M  V30 7088 H 657.183 -0.524506 -0.517748 0
M  V30 7089 H 659.825 -1.74335 -0.755466 0
M  V30 7090 H 657.975 -2.21565 -3.19126 0
M  V30 7091 H 659.647 -4.31254 -1.63762 0
M  V30 7092 H 657.89 -4.07957 -1.47491 0
M  V30 7093 H 658.561 -4.62357 -3.01546 0
M  V30 7094 H 661.037 -2.70243 -3.16399 0
M  V30 7095 H 659.913 -3.21552 -4.44854 0
M  V30 7096 H 660.174 -1.50299 -4.15767 0
M  V30 7097 N 659.233 0.902656 -1.29189 0
M  V30 7098 C 660.458 1.69167 -1.19989 0
M  V30 7099 C 660.883 1.86607 0.236495 0
M  V30 7100 O 660.241 1.38425 1.17082 0
M  V30 7101 C 660.289 3.05532 -1.91527 0
M  V30 7102 O 659.393 3.93621 -1.2303 0
M  V30 7103 H 658.734 0.517584 -0.415936 0
M  V30 7104 H 661.264 1.12785 -1.70706 0
M  V30 7105 H 661.274 3.55693 -1.99866 0
M  V30 7106 H 659.949 2.92156 -2.96003 0
M  V30 7107 H 658.526 3.52055 -1.22928 0
M  V30 7108 N 660.711 1.11618 1.11262 0
M  V30 7109 C 661.643 0.734015 2.17129 0
M  V30 7110 C 662.656 -0.235243 1.61091 0
M  V30 7111 O 663.845 -0.0178597 1.78491 0
M  V30 7112 C 660.945 0.0643682 3.38839 0
M  V30 7113 C 660.118 1.06092 4.24339 0
M  V30 7114 C 659.177 0.420482 5.24517 0
M  V30 7115 O 658.203 1.07495 5.58957 0
M  V30 7116 N 659.405 -0.815828 5.74739 0
M  V30 7117 H 662.17 1.64492 2.50524 0
M  V30 7118 H 659.731 1.00664 1.26801 0
M  V30 7119 H 661.723 -0.375851 4.02951 0
M  V30 7120 H 660.293 -0.749147 3.03491 0
M  V30 7121 H 659.513 1.67903 3.56654 0
M  V30 7122 H 660.801 1.73507 4.78302 0
M  V30 7123 H 660.199 -1.36668 5.48943 0
M  V30 7124 H 658.756 -1.199 6.40677 0
M  V30 7125 N 662.189 -1.289 0.906776 0
M  V30 7126 C 663.436 -1.95269 0.536326 0
M  V30 7127 C 663.764 -1.71435 -0.918711 0
M  V30 7128 O 663.019 -1.02431 -1.66752 0
M  V30 7129 C 663.318 -3.48704 0.783617 0
M  V30 7130 C 662.984 -3.92626 2.21711 0
M  V30 7131 C 661.646 -4.04329 2.60906 0
M  V30 7132 C 663.998 -4.15218 3.15029 0
M  V30 7133 C 661.326 -4.35998 3.92584 0
M  V30 7134 C 663.678 -4.48365 4.46264 0
M  V30 7135 C 662.342 -4.58278 4.85322 0
M  V30 7136 H 661.612 -0.714538 0.196256 0
M  V30 7137 H 664.259 -1.53366 1.14678 0
M  V30 7138 H 662.564 -3.91696 0.0903048 0
M  V30 7139 H 664.261 -3.98162 0.476267 0
M  V30 7140 H 660.851 -3.84038 1.90296 0
M  V30 7141 H 665.035 -4.05636 2.8596 0
M  V30 7142 H 660.291 -4.41878 4.22557 0
M  V30 7143 H 664.465 -4.64795 5.18593 0
M  V30 7144 H 662.092 -4.82573 5.87391 0
M  V30 7145 N 663.667 -0.670007 -1.42649 0
M  V30 7146 C 664.914 -0.190286 -2.01604 0
M  V30 7147 C 665.242 1.20155 -1.52948 0
M  V30 7148 O 664.497 1.81964 -0.72026 0
M  V30 7149 C 664.796 -0.168298 -3.57004 0
M  V30 7150 C 664.462 -1.50415 -4.25072 0
M  V30 7151 C 663.124 -1.86992 -4.43382 0
M  V30 7152 C 665.476 -2.38414 -4.63474 0
M  V30 7153 C 662.804 -3.11203 -4.97363 0
M  V30 7154 C 665.156 -3.61933 -5.18833 0
M  V30 7155 C 663.82 -3.98685 -5.35356 0
M  V30 7156 H 663.09 -0.0696305 -0.737721 0
M  V30 7157 H 665.737 -0.864044 -1.70899 0
M  V30 7158 H 664.042 0.588958 -3.87348 0
M  V30 7159 H 665.739 0.22001 -4.00396 0
M  V30 7160 H 662.329 -1.20959 -4.11177 0
M  V30 7161 H 666.513 -2.11442 -4.49006 0
M  V30 7162 H 661.769 -3.39705 -5.08341 0
M  V30 7163 H 665.943 -4.30326 -5.47533 0
M  V30 7164 H 663.57 -4.95009 -5.76949 0
M  V30 7165 N 665.145 1.52092 -0.413018 0
M  V30 7166 C 666.077 2.24819 0.445994 0
M  V30 7167 C 667.09 1.27925 1.00692 0
M  V30 7168 O 668.279 1.53845 0.905204 0
M  V30 7169 C 665.379 2.96951 1.6332 0
M  V30 7170 C 664.552 4.20746 1.19548 0
M  V30 7171 C 663.611 4.75668 2.25003 0
M  V30 7172 O 662.637 5.38148 1.85434 0
M  V30 7173 N 663.839 4.57579 3.57214 0
M  V30 7174 H 666.604 2.99176 -0.177209 0
M  V30 7175 H 664.165 1.60102 -0.240601 0
M  V30 7176 H 666.157 3.30586 2.33441 0
M  V30 7177 H 664.727 2.25756 2.16225 0
M  V30 7178 H 663.947 3.92881 0.32224 0
M  V30 7179 H 665.235 5.01132 0.880033 0
M  V30 7180 H 664.633 4.07758 3.92109 0
M  V30 7181 H 663.19 4.95642 4.23299 0
M  V30 7182 N 666.623 0.143563 1.56945 0
M  V30 7183 C 667.57 -0.797433 2.16586 0
M  V30 7184 C 668.54 -1.24654 1.09775 0
M  V30 7185 O 669.725 -1.31968 1.37801 0
M  V30 7186 C 666.865 -2.03253 2.78895 0
M  V30 7187 C 665.978 -1.62954 4.00087 0
M  V30 7188 C 665.113 -2.81617 4.50406 0
M  V30 7189 C 664.152 -2.37675 5.64072 0
M  V30 7190 N 663.289 -3.49335 6.09023 0
M  V30 7191 H 668.129 -0.282023 2.96662 0
M  V30 7192 H 665.666 -0.127494 1.46546 0
M  V30 7193 H 667.624 -2.75653 3.13163 0
M  V30 7194 H 666.254 -2.52211 2.01469 0
M  V30 7195 H 665.306 -0.803322 3.71821 0
M  V30 7196 H 666.618 -1.26679 4.82446 0
M  V30 7197 H 665.772 -3.62212 4.86711 0
M  V30 7198 H 664.511 -3.21134 3.67048 0
M  V30 7199 H 663.516 -1.55519 5.27346 0
M  V30 7200 H 664.741 -1.99247 6.49213 0
M  V30 7201 H 662.687 -3.8848 5.28601 0
M  V30 7202 H 662.604 -3.17064 6.86299 0
M  V30 7203 H 663.872 -4.30297 6.49973 0
M  V30 7204 N 668.101 -1.57061 -0.130224 0
M  V30 7205 C 669.349 -1.83893 -0.838313 0
M  V30 7206 C 669.67 -0.727046 -1.80939 0
M  V30 7207 O 668.94 0.249927 -1.94299 0
M  V30 7208 H 667.52 -0.67846 -0.312573 0
M  V30 7209 H 670.182 -1.94529 -0.120224 0
M  V30 7210 H 669.278 -2.79419 -1.39038 0
M  V30 7211 N 669.579 0.400081 -1.52437 0
M  V30 7212 C 670.827 1.14392 -1.6661 0
M  V30 7213 C 671.148 1.90792 -0.402927 0
M  V30 7214 O 670.418 1.87042 0.582425 0
M  V30 7215 H 668.998 0.425275 -0.614125 0
M  V30 7216 H 671.66 0.455076 -1.89513 0
M  V30 7217 H 670.756 1.85298 -2.51139 0
M  V30 7218 N 671.057 1.43213 0.657864 0
M  V30 7219 C 672.303 1.44798 1.41991 0
M  V30 7220 C 672.636 0.070256 1.94073 0
M  V30 7221 O 671.911 -0.908177 1.71995 0
M  V30 7222 C 672.194 2.4865 2.60471 0
M  V30 7223 C 672.047 3.95679 2.13911 0
M  V30 7224 C 673.366 2.49292 3.62686 0
M  V30 7225 H 670.485 0.527244 0.514959 0
M  V30 7226 H 673.127 1.74733 0.74621 0
M  V30 7227 H 671.277 2.23254 3.17946 0
M  V30 7228 H 672.949 4.32116 1.61472 0
M  V30 7229 H 671.192 4.08733 1.45325 0
M  V30 7230 H 671.863 4.6395 2.99089 0
M  V30 7231 H 674.339 2.71917 3.14961 0
M  V30 7232 H 673.215 3.23907 4.43143 0
M  V30 7233 H 673.476 1.52502 4.14964 0
M  V30 7234 N 672.536 -0.895792 1.29666 0
M  V30 7235 C 673.483 -2.00035 1.15129 0
M  V30 7236 C 674.453 -1.66043 0.0435819 0
M  V30 7237 O 675.638 -1.89621 0.211811 0
M  V30 7238 C 672.778 -3.34774 0.83787 0
M  V30 7239 C 671.891 -3.81525 2.0264 0
M  V30 7240 C 671.026 -5.04858 1.65201 0
M  V30 7241 C 670.065 -5.43988 2.80612 0
M  V30 7242 N 669.202 -6.58507 2.43544 0
M  V30 7243 H 674.042 -2.11802 2.09628 0
M  V30 7244 H 671.579 -1.03719 1.04311 0
M  V30 7245 H 673.537 -4.12311 0.636824 0
M  V30 7246 H 672.167 -3.22724 -0.0702314 0
M  V30 7247 H 671.219 -2.9999 2.33903 0
M  V30 7248 H 672.531 -4.06472 2.89106 0
M  V30 7249 H 671.685 -5.8999 1.41408 0
M  V30 7250 H 670.424 -4.81759 0.758893 0
M  V30 7251 H 669.429 -4.57388 3.05083 0
M  V30 7252 H 670.654 -5.69066 3.70595 0
M  V30 7253 H 668.6 -6.37004 1.56724 0
M  V30 7254 H 668.517 -6.83269 3.23542 0
M  V30 7255 H 669.785 -7.46897 2.2308 0
M  V30 7256 N 674.014 -1.12206 -1.10668 0
M  V30 7257 C 674.924 -0.800686 -2.20513 0
M  V30 7258 C 675.94 0.209512 -1.72734 0
M  V30 7259 O 677.116 0.043705 -2.01353 0
M  V30 7260 C 674.181 -0.257353 -3.45744 0
M  V30 7261 C 673.242 -1.32718 -4.0827 0
M  V30 7262 C 672.475 -0.809674 -5.27522 0
M  V30 7263 O 672.698 0.35742 -5.69279 0
M  V30 7264 O 671.632 -1.57816 -5.80842 0
M  V30 7265 H 675.458 -1.71807 -2.50432 0
M  V30 7266 H 673.043 -0.898546 -1.19359 0
M  V30 7267 H 674.925 0.0408849 -4.2138 0
M  V30 7268 H 673.6 0.632627 -3.17458 0
M  V30 7269 H 672.507 -1.67855 -3.34329 0
M  V30 7270 H 673.84 -2.19083 -4.40753 0
M  V30 7271 N 675.492 1.28418 -0.913599 0
M  V30 7272 C 676.455 2.25564 -0.406624 0
M  V30 7273 C 677.455 1.5387 0.466965 0
M  V30 7274 O 678.645 1.72094 0.270042 0
M  V30 7275 C 675.777 3.38339 0.417053 0
M  V30 7276 H 676.97 2.71926 -1.26477 0
M  V30 7277 H 674.523 1.40098 -0.692986 0
M  V30 7278 H 675.258 2.97339 1.29461 0
M  V30 7279 H 675.043 3.91542 -0.209102 0
M  V30 7280 H 676.533 4.10578 0.762602 0
M  V30 7281 N 676.97 0.677563 1.42291 0
M  V30 7282 C 677.9 0.014968 2.33495 0
M  V30 7283 C 678.881 -0.786376 1.50831 0
M  V30 7284 O 680.066 -0.742975 1.79426 0
M  V30 7285 C 677.196 -0.935023 3.34477 0
M  V30 7286 C 676.15 -0.242074 4.27315 0
M  V30 7287 C 675.476 -1.30519 5.18526 0
M  V30 7288 C 676.776 0.880604 5.14823 0
M  V30 7289 H 678.47 0.776671 2.89151 0
M  V30 7290 H 676.016 0.37494 1.39033 0
M  V30 7291 H 677.969 -1.40766 3.97194 0
M  V30 7292 H 676.693 -1.72818 2.77131 0
M  V30 7293 H 675.352 0.210351 3.65996 0
M  V30 7294 H 675 -2.09041 4.57505 0
M  V30 7295 H 674.7 -0.846652 5.81468 0
M  V30 7296 H 676.224 -1.7787 5.84119 0
M  V30 7297 H 677.638 0.489062 5.7121 0
M  V30 7298 H 676.035 1.26511 5.86613 0
M  V30 7299 H 677.105 1.72818 4.53059 0
M  V30 7300 N 678.448 -1.51871 0.421078 0
M  V30 7301 C 679.673 -2.0684 -0.152371 0
M  V30 7302 C 680.098 -1.28802 -1.37083 0
M  V30 7303 O 679.456 -0.321482 -1.78427 0
M  V30 7304 C 679.504 -3.57532 -0.469368 0
M  V30 7305 O 678.608 -3.81818 -1.55848 0
M  V30 7306 H 677.949 -0.663939 -0.00898586 0
M  V30 7307 H 680.479 -1.95674 0.597724 0
M  V30 7308 H 680.489 -4.01515 -0.724553 0
M  V30 7309 H 679.164 -4.13761 0.421276 0
M  V30 7310 H 677.741 -3.49709 -1.29453 0
M  V30 7311 N 679.926 -0.151884 -1.56866 0
M  V30 7312 C 680.836 0.798876 -2.20579 0
M  V30 7313 C 681.852 1.268 -1.19154 0
M  V30 7314 O 683.028 1.32418 -1.51748 0
M  V30 7315 C 680.093 2.01861 -2.81874 0
M  V30 7316 C 679.154 1.59825 -3.9844 0
M  V30 7317 C 678.387 2.75984 -4.56802 0
M  V30 7318 O 678.61 3.92331 -4.14044 0
M  V30 7319 O 677.544 2.51175 -5.46987 0
M  V30 7320 H 681.37 0.2865 -3.02346 0
M  V30 7321 H 678.955 0.0753806 -1.4921 0
M  V30 7322 H 680.837 2.73235 -3.20813 0
M  V30 7323 H 679.512 2.52042 -2.03117 0
M  V30 7324 H 678.419 0.854601 -3.64208 0
M  V30 7325 H 679.752 1.14355 -4.78731 0
M  V30 7326 N 681.404 1.57128 0.121893 0
M  V30 7327 C 682.82 1.52357 0.47534 0
M  V30 7328 C 683.02 0.864417 1.82017 0
M  V30 7329 O 682.076 0.445529 2.48538 0
M  V30 7330 C 683.389 2.97122 0.4625 0
M  V30 7331 C 684.937 3.08196 0.546255 0
M  V30 7332 C 685.412 4.54516 0.563833 0
M  V30 7333 N 686.903 4.58959 0.625353 0
M  V30 7334 C 687.638 5.69585 0.660354 0
M  V30 7335 N 687.134 6.89714 0.653175 0
M  V30 7336 N 688.927 5.57685 0.703143 0
M  V30 7337 H 681.078 1.98364 -0.75931 0
M  V30 7338 H 683.341 0.905777 -0.279772 0
M  V30 7339 H 683.047 3.48706 -0.457943 0
M  V30 7340 H 682.921 3.54406 1.29136 0
M  V30 7341 H 685.308 2.56617 1.45712 0
M  V30 7342 H 685.389 2.53912 -0.310234 0
M  V30 7343 H 685.033 5.06741 -0.342974 0
M  V30 7344 H 684.963 5.06609 1.43716 0
M  V30 7345 H 687.454 3.72489 0.637182 0
M  V30 7346 H 687.767 7.69781 0.682425 0
M  V30 7347 H 686.112 6.92223 0.620646 0
M  V30 7348 H 689.303 4.62744 0.706095 0
M  V30 7349 H 689.476 6.43909 0.726952 0
M  V30 7350 N 682.882 -0.391992 1.52647 0
M  V30 7351 C 683.792 -1.503 1.80131 0
M  V30 7352 C 684.808 -1.59825 0.687882 0
M  V30 7353 O 685.984 -1.76218 0.975149 0
M  V30 7354 C 683.049 -2.85863 1.96171 0
M  V30 7355 C 682.11 -2.86084 3.20085 0
M  V30 7356 C 681.343 -4.15181 3.35351 0
M  V30 7357 O 681.566 -5.09981 2.55491 0
M  V30 7358 O 680.5 -4.22603 4.28591 0
M  V30 7359 H 684.326 -1.30007 2.74466 0
M  V30 7360 H 681.911 -0.579539 1.37701 0
M  V30 7361 H 683.793 -3.66236 2.08445 0
M  V30 7362 H 682.468 -3.06189 1.05025 0
M  V30 7363 H 681.375 -2.04504 3.13256 0
M  V30 7364 H 682.708 -2.7071 4.11068 0
M  V30 7365 N 684.36 -1.4356 -0.65026 0
M  V30 7366 C 685.29 -1.51758 -1.77459 0
M  V30 7367 C 686.271 -0.372019 -1.65982 0
M  V30 7368 O 687.456 -0.589627 -1.85033 0
M  V30 7369 C 684.586 -1.44302 -3.15902 0
M  V30 7370 C 683.54 -2.57138 -3.42146 0
M  V30 7371 C 682.866 -2.34735 -4.8042 0
M  V30 7372 C 684.166 -3.99373 -3.36598 0
M  V30 7373 H 685.86 -2.45863 -1.70855 0
M  V30 7374 H 683.406 -1.18333 -0.820566 0
M  V30 7375 H 685.359 -1.48641 -3.94314 0
M  V30 7376 H 684.083 -0.467026 -3.23244 0
M  V30 7377 H 682.742 -2.52157 -2.66106 0
M  V30 7378 H 682.39 -1.35372 -4.84441 0
M  V30 7379 H 682.09 -3.10375 -4.9894 0
M  V30 7380 H 683.614 -2.40862 -5.61086 0
M  V30 7381 H 685.028 -4.05826 -4.04942 0
M  V30 7382 H 683.425 -4.75063 -3.66654 0
M  V30 7383 H 684.495 -4.243 -2.34729 0
M  V30 7384 N 685.838 0.888903 -1.30139 0
M  V30 7385 C 687.085 1.64037 -1.18736 0
M  V30 7386 C 687.413 1.92771 0.258801 0
M  V30 7387 O 686.668 1.54427 1.20212 0
M  V30 7388 C 686.967 2.99041 -1.95728 0
M  V30 7389 C 686.633 2.89874 -3.45375 0
M  V30 7390 C 685.295 2.87082 -3.86183 0
M  V30 7391 C 687.647 2.78289 -4.40687 0
M  V30 7392 C 684.975 2.70536 -5.20603 0
M  V30 7393 C 687.327 2.63282 -5.75209 0
M  V30 7394 C 685.991 2.58861 -6.15262 0
M  V30 7395 H 685.261 0.600253 -0.434485 0
M  V30 7396 H 687.908 1.0338 -1.61198 0
M  V30 7397 H 686.213 3.63626 -1.45888 0
M  V30 7398 H 687.91 3.56139 -1.843 0
M  V30 7399 H 684.5 2.92856 -3.12943 0
M  V30 7400 H 688.684 2.79516 -4.10103 0
M  V30 7401 H 683.94 2.65526 -5.50732 0
M  V30 7402 H 688.114 2.5329 -6.48704 0
M  V30 7403 H 685.741 2.45799 -7.19366 0
M  V30 7404 N 687.317 1.12792 1.10072 0
M  V30 7405 C 688.265 0.794523 2.18609 0
M  V30 7406 C 689.259 -0.220271 1.67962 0
M  V30 7407 O 690.465 -0.0780938 1.79831 0
M  V30 7408 H 686.84 0.239123 0.712969 0
M  V30 7409 H 688.811 1.71823 2.43966 0
M  V30 7410 C 687.56 0.269548 3.46654 0
M  V30 7411 H 686.883 1.04171 3.8599 0
M  V30 7412 H 688.323 0.0746242 4.23934 0
M  V30 7413 C 686.782 -1.00333 3.21613 0
M  V30 7414 O 687.312 -2.08042 3.4363 0
M  V30 7415 N 685.518 -0.931763 2.75257 0
M  V30 7416 H 685.065 -0.0551197 2.57541 0
M  V30 7417 H 685.023 -1.78405 2.58881 0
M  V30 7418 N 688.795 -1.27931 0.920396 0
M  V30 7419 C 689.758 -2.25345 0.41858 0
M  V30 7420 C 690.758 -1.54116 -0.458798 0
M  V30 7421 O 691.948 -1.72235 -0.260912 0
M  V30 7422 C 689.08 -3.38556 -0.399104 0
M  V30 7423 H 690.273 -2.71251 1.27918 0
M  V30 7424 H 687.826 -1.39728 0.700406 0
M  V30 7425 H 688.561 -2.98021 -1.27882 0
M  V30 7426 H 688.346 -3.91426 0.229863 0
M  V30 7427 H 689.836 -4.10976 -0.740817 0
M  V30 7428 N 690.273 -0.685099 -1.4193 0
M  V30 7429 C 691.519 -0.211971 -2.01689 0
M  V30 7430 C 691.852 1.18189 -1.54094 0
M  V30 7431 O 691.127 1.79559 -0.747572 0
M  V30 7432 C 691.41 -0.258019 -3.59174 0
M  V30 7433 C 691.263 -1.68807 -4.16922 0
M  V30 7434 C 692.582 0.388044 -4.38386 0
M  V30 7435 H 689.701 -0.0784987 -0.732808 0
M  V30 7436 H 692.343 -0.871837 -1.68816 0
M  V30 7437 H 690.493 0.303832 -3.8731 0
M  V30 7438 H 692.165 -2.30296 -3.99702 0
M  V30 7439 H 690.408 -2.22553 -3.72361 0
M  V30 7440 H 691.079 -1.6719 -5.26072 0
M  V30 7441 H 693.555 -0.0903432 -4.16002 0
M  V30 7442 H 692.431 0.325232 -5.47936 0
M  V30 7443 H 692.692 1.4672 -4.17044 0
M  V30 7444 N 691.751 1.51645 -0.429126 0
M  V30 7445 C 692.976 2.06917 0.141399 0
M  V30 7446 C 693.401 1.29527 1.36398 0
M  V30 7447 O 692.759 0.33094 1.78254 0
M  V30 7448 C 692.807 3.57776 0.4504 0
M  V30 7449 O 691.911 3.82639 1.53821 0
M  V30 7450 H 691.252 0.663978 0.0054647 0
M  V30 7451 H 693.782 1.95355 -0.608093 0
M  V30 7452 H 693.792 4.01894 0.703249 0
M  V30 7453 H 692.467 4.13532 -0.443213 0
M  V30 7454 H 691.044 3.5039 1.27597 0
M  V30 7455 N 693.229 0.160201 1.56784 0
M  V30 7456 C 694.477 -0.486625 1.96154 0
M  V30 7457 C 694.798 -1.64525 1.04673 0
M  V30 7458 O 694.068 -1.95586 0.110864 0
M  V30 7459 H 692.648 -0.182764 0.724297 0
M  V30 7460 H 695.31 0.238787 1.93432 0
M  V30 7461 H 694.406 -0.854025 3.00188 0
M  V30 7462 N 694.707 -1.5719 -0.113559 0
M  V30 7463 C 695.637 -2.03772 -1.14013 0
M  V30 7464 C 696.618 -0.923176 -1.42869 0
M  V30 7465 O 697.803 -1.19325 -1.53216 0
M  V30 7466 C 694.933 -2.44663 -2.4649 0
M  V30 7467 C 693.887 -3.59612 -2.32085 0
M  V30 7468 C 693.213 -3.8642 -3.69573 0
M  V30 7469 C 694.513 -4.91149 -1.7768 0
M  V30 7470 H 696.207 -2.89785 -0.752665 0
M  V30 7471 H 693.753 -1.39412 -0.360609 0
M  V30 7472 H 695.706 -2.75857 -3.18561 0
M  V30 7473 H 694.43 -1.55628 -2.87137 0
M  V30 7474 H 693.089 -3.28636 -1.62461 0
M  V30 7475 H 692.737 -2.94581 -4.07715 0
M  V30 7476 H 692.437 -4.63797 -3.60786 0
M  V30 7477 H 693.961 -4.2007 -4.4314 0
M  V30 7478 H 695.375 -5.20843 -2.39574 0
M  V30 7479 H 693.772 -5.72562 -1.79701 0
M  V30 7480 H 694.842 -4.79301 -0.734776 0
M  V30 7481 N 696.185 0.383891 -1.52853 0
M  V30 7482 C 697.133 1.48965 -1.7864 0
M  V30 7483 C 698.127 1.56242 -0.654577 0
M  V30 7484 O 699.333 1.59347 -0.83716 0
M  V30 7485 H 695.708 0.495892 -0.565328 0
M  V30 7486 H 697.679 1.24411 -2.71228 0
M  V30 7487 C 696.428 2.86036 -1.97683 0
M  V30 7488 H 695.751 2.81188 -2.84206 0
M  V30 7489 H 697.191 3.62632 -2.19713 0
M  V30 7490 C 695.65 3.28428 -0.750776 0
M  V30 7491 O 696.18 4.0164 0.0693491 0
M  V30 7492 N 694.386 2.84765 -0.579427 0
M  V30 7493 H 693.933 2.25353 -1.24795 0
M  V30 7494 H 693.891 3.13486 0.239544 0
M  V30 7495 N 697.663 1.43903 0.642637 0
M  V30 7496 C 698.912 1.45362 1.39831 0
M  V30 7497 C 699.225 0.0856289 1.95412 0
M  V30 7498 O 700.431 -0.0222856 2.71491 0
M  V30 7499 C 698.887 2.55857 2.53111 0
M  V30 7500 C 698.495 3.98811 2.04092 0
M  V30 7501 C 700.239 2.66524 3.30402 0
M  V30 7502 C 698.146 5.00751 3.14647 0
M  V30 7503 H 697.076 0.540777 0.52543 0
M  V30 7504 H 699.727 1.69929 0.692559 0
M  V30 7505 H 698.109 2.2451 3.26207 0
M  V30 7506 H 699.283 4.3967 1.37938 0
M  V30 7507 H 697.598 3.92284 1.39651 0
M  V30 7508 H 700.195 3.39858 4.12796 0
M  V30 7509 H 700.538 1.71949 3.79129 0
M  V30 7510 H 701.071 2.97224 2.64392 0
M  V30 7511 H 697.81 5.96914 2.70876 0
M  V30 7512 H 697.33 4.64495 3.79479 0
M  V30 7513 H 699.009 5.23933 3.79609 0
M  V30 7514 N 699.141 -0.881989 1.30609 0
M  V30 7515 C 700.369 -1.66711 1.22536 0
M  V30 7516 C 700.784 -1.87614 -0.2113 0
M  V30 7517 O 700.141 -1.42576 -1.13923 0
M  V30 7518 C 700.192 -3.04182 1.95335 0
M  V30 7519 O 699.913 -2.8422 3.33393 0
M  V30 7520 C 701.414 -3.98617 1.93956 0
M  V30 7521 H 698.634 -0.520124 0.423925 0
M  V30 7522 H 701.178 -1.10174 1.72285 0
M  V30 7523 H 699.333 -3.57442 1.49378 0
M  V30 7524 H 699.747 -3.71452 3.70302 0
M  V30 7525 H 701.221 -4.92433 2.49426 0
M  V30 7526 H 701.698 -4.29473 0.919198 0
M  V30 7527 H 702.304 -3.51292 2.39738 0
M  V30 7528 N 700.619 -1.13374 -1.09472 0
M  V30 7529 C 701.582 -0.813639 -2.14272 0
M  V30 7530 C 702.582 0.176677 -1.59826 0
M  V30 7531 O 703.772 -0.0503441 -1.74127 0
M  V30 7532 C 700.904 -0.210897 -3.40247 0
M  V30 7533 H 702.097 -1.74229 -2.44099 0
M  V30 7534 H 699.65 -0.938304 -1.25002 0
M  V30 7535 H 700.385 0.726998 -3.16046 0
M  V30 7536 H 700.17 -0.924048 -3.81056 0
M  V30 7537 H 701.66 -0.00377603 -4.176 0
M  V30 7538 N 702.098 1.27442 -0.927168 0
M  V30 7539 C 703.375 1.89473 -0.485742 0
M  V30 7540 C 703.755 1.83922 1.03614 0
M  V30 7541 O 703.103 1.28409 1.89007 0
M  V30 7542 C 703.313 3.33417 -1.03123 0
M  V30 7543 C 704.661 4.10333 -1.0914 0
M  V30 7544 O 705.685 3.4243 -0.98082 0
M  V30 7545 O 704.544 5.31737 -1.26165 0
M  V30 7546 H 701.638 0.812124 -0.156154 0
M  V30 7547 H 704.184 1.35713 -1.01882 0
M  V30 7548 H 702.956 3.31747 -2.07508 0
M  V30 7549 H 702.579 3.94695 -0.479767 0
M  V30 7550 N 703.576 0.692616 1.41565 0
M  V30 7551 C 704.524 0.0139952 2.32596 0
M  V30 7552 C 705.518 -0.771691 1.50802 0
M  V30 7553 O 706.724 -0.677646 1.66757 0
M  V30 7554 H 703.099 -0.0142745 0.751865 0
M  V30 7555 H 705.07 0.798851 2.87508 0
M  V30 7556 C 703.819 -0.910602 3.35564 0
M  V30 7557 H 703.142 -0.315446 3.98554 0
M  V30 7558 H 704.582 -1.3538 4.01806 0
M  V30 7559 C 703.041 -2.02539 2.6922 0
M  V30 7560 O 703.571 -3.11386 2.53775 0
M  V30 7561 N 701.777 -1.80227 2.27962 0
M  V30 7562 H 701.324 -0.917054 2.40724 0
M  V30 7563 H 701.282 -2.55001 1.83907 0
M  V30 7564 N 705.054 -1.51416 0.437162 0
M  V30 7565 C 705.964 -2.31493 -0.380537 0
M  V30 7566 C 706.98 -1.40399 -1.02782 0
M  V30 7567 O 708.156 -1.73471 -1.02323 0
M  V30 7568 C 705.221 -3.1413 -1.46709 0
M  V30 7569 C 704.282 -4.21003 -0.839953 0
M  V30 7570 C 703.515 -4.9969 -1.87473 0
M  V30 7571 O 703.738 -4.79008 -3.09689 0
M  V30 7572 O 702.672 -5.8379 -1.46536 0
M  V30 7573 H 706.498 -3.02469 0.273183 0
M  V30 7574 H 704.083 -1.48059 0.199706 0
M  V30 7575 H 705.965 -3.65505 -2.09724 0
M  V30 7576 H 704.64 -2.45919 -2.10489 0
M  V30 7577 H 703.547 -3.73706 -0.171752 0
M  V30 7578 H 704.88 -4.91587 -0.245638 0
M  V30 7579 N 706.532 -0.168513 -1.56696 0
M  V30 7580 C 707.495 0.748928 -2.16619 0
M  V30 7581 C 708.495 1.16007 -1.11351 0
M  V30 7582 O 709.685 1.07748 -1.3688 0
M  V30 7583 C 706.817 2.01904 -2.74677 0
M  V30 7584 H 708.01 0.227317 -2.99037 0
M  V30 7585 H 705.563 0.0810372 -1.5609 0
M  V30 7586 H 706.298 2.58381 -1.95985 0
M  V30 7587 H 706.083 1.73323 -3.51712 0
M  V30 7588 H 707.573 2.67383 -3.20774 0
M  V30 7589 N 708.01 1.57248 0.105221 0
M  V30 7590 C 709.287 1.76566 0.841647 0
M  V30 7591 C 709.667 0.747566 1.9742 0
M  V30 7592 O 709.015 -0.225886 2.27381 0
M  V30 7593 C 709.225 3.22016 1.3456 0
M  V30 7594 C 710.573 3.84911 1.79244 0
M  V30 7595 O 711.597 3.25703 1.44207 0
M  V30 7596 O 710.456 4.89008 2.43995 0
M  V30 7597 H 707.55 0.723443 0.400698 0
M  V30 7598 H 710.096 1.69472 0.0878893 0
M  V30 7599 H 708.868 3.87644 0.533685 0
M  V30 7600 H 708.491 3.33703 2.16167 0
M  V30 7601 N 709.488 -0.375779 1.53054 0
M  V30 7602 C 710.735 -1.11948 1.68742 0
M  V30 7603 C 711.063 -1.89596 0.434015 0
M  V30 7604 O 710.318 -1.86787 -0.583867 0
M  V30 7605 C 710.617 -2.11356 2.88207 0
M  V30 7606 C 710.283 -1.50266 4.25124 0
M  V30 7607 C 708.945 -1.33333 4.62359 0
M  V30 7608 C 711.297 -1.05976 5.10312 0
M  V30 7609 C 708.625 -0.706765 5.82427 0
M  V30 7610 C 710.977 -0.447241 6.31017 0
M  V30 7611 C 709.641 -0.265314 6.66973 0
M  V30 7612 H 708.911 -0.409648 0.61747 0
M  V30 7613 H 711.558 -0.402492 1.87222 0
M  V30 7614 H 709.863 -2.89322 2.64197 0
M  V30 7615 H 711.56 -2.68833 2.97539 0
M  V30 7616 H 708.15 -1.64437 3.95801 0
M  V30 7617 H 712.334 -1.17855 4.82104 0
M  V30 7618 H 707.59 -0.554132 6.08884 0
M  V30 7619 H 711.764 -0.0958064 6.96334 0
M  V30 7620 H 709.391 0.222267 7.59875 0
M  V30 7621 N 710.966 -1.44241 -0.634997 0
M  V30 7622 C 711.896 -1.53632 -1.7584 0
M  V30 7623 C 712.877 -0.389603 -1.65578 0
M  V30 7624 O 714.062 -0.609219 -1.84397 0
M  V30 7625 C 711.192 -1.47644 -3.14354 0
M  V30 7626 C 710.146 -2.60752 -3.394 0
M  V30 7627 C 709.472 -2.39817 -4.77904 0
M  V30 7628 C 710.772 -4.02921 -3.32343 0
M  V30 7629 H 712.466 -2.47662 -1.68238 0
M  V30 7630 H 710.012 -1.19197 -0.807969 0
M  V30 7631 H 711.965 -1.52815 -3.92716 0
M  V30 7632 H 710.689 -0.501284 -3.2273 0
M  V30 7633 H 709.348 -2.54965 -2.63417 0
M  V30 7634 H 708.996 -1.40502 -4.82978 0
M  V30 7635 H 708.696 -3.15649 -4.9562 0
M  V30 7636 H 710.22 -2.46799 -5.585 0
M  V30 7637 H 711.634 -4.10098 -4.00615 0
M  V30 7638 H 710.031 -4.78925 -3.61595 0
M  V30 7639 H 711.101 -4.26766 -2.30215 0
M  V30 7640 N 712.444 0.87505 -1.31075 0
M  V30 7641 C 713.407 1.96333 -1.18263 0
M  V30 7642 C 714.407 1.60416 -0.111106 0
M  V30 7643 O 715.597 1.7044 -0.359987 0
M  V30 7644 C 712.729 3.31036 -0.81414 0
M  V30 7645 H 713.922 2.09125 -2.14958 0
M  V30 7646 H 711.475 1.06271 -1.14614 0
M  V30 7647 H 712.21 3.23944 0.151875 0
M  V30 7648 H 711.995 3.58476 -1.58862 0
M  V30 7649 H 713.485 4.10842 -0.748249 0
M  V30 7650 N 713.922 1.13953 1.08869 0
M  V30 7651 C 714.832 0.835666 2.19212 0
M  V30 7652 C 715.848 -0.182005 1.73045 0
M  V30 7653 O 717.024 -0.0116661 2.01397 0
M  V30 7654 C 714.089 0.312325 3.4529 0
M  V30 7655 C 713.15 1.39196 4.06107 0
M  V30 7656 C 712.383 0.893496 5.26168 0
M  V30 7657 O 712.606 -0.266807 5.69776 0
M  V30 7658 O 711.54 1.67037 5.78258 0
M  V30 7659 H 715.366 1.75769 2.47667 0
M  V30 7660 H 712.951 0.917421 1.17914 0
M  V30 7661 H 714.833 0.0261582 4.21392 0
M  V30 7662 H 713.508 -0.582042 3.18424 0
M  V30 7663 H 712.415 1.73152 3.31616 0
M  V30 7664 H 713.748 2.26068 4.37212 0
M  V30 7665 N 715.4 -1.26948 0.933913 0
M  V30 7666 C 716.649 -1.93378 0.573409 0
M  V30 7667 C 716.962 -1.74148 -0.890614 0
M  V30 7668 O 718.168 -2.34971 -1.36017 0
M  V30 7669 C 716.624 -3.46449 0.974747 0
M  V30 7670 C 716.232 -3.74425 2.45988 0
M  V30 7671 C 717.976 -4.18924 0.685791 0
M  V30 7672 C 715.883 -5.209 2.8003 0
M  V30 7673 H 714.813 -0.723952 0.210736 0
M  V30 7674 H 717.464 -1.44143 1.13557 0
M  V30 7675 H 715.846 -3.94528 0.341181 0
M  V30 7676 H 717.02 -3.37079 3.14188 0
M  V30 7677 H 715.335 -3.15167 2.72138 0
M  V30 7678 H 717.932 -5.26786 0.916546 0
M  V30 7679 H 718.275 -4.14587 -0.377217 0
M  V30 7680 H 718.808 -3.76687 1.27874 0
M  V30 7681 H 715.547 -5.30332 3.85264 0
M  V30 7682 H 715.067 -5.59369 2.16485 0
M  V30 7683 H 716.746 -5.88837 2.68105 0
M  V30 7684 N 716.879 -0.700114 -1.41195 0
M  V30 7685 C 717.789 -0.0382854 -2.34569 0
M  V30 7686 C 718.805 0.761036 -1.56474 0
M  V30 7687 O 719.981 0.697553 -1.88934 0
M  V30 7688 C 717.046 0.883522 -3.35253 0
M  V30 7689 C 716.107 0.0758957 -4.29233 0
M  V30 7690 C 715.34 0.9538 -5.25108 0
M  V30 7691 O 715.563 2.19326 -5.26547 0
M  V30 7692 O 714.497 0.401049 -6.00562 0
M  V30 7693 H 718.323 -0.808073 -2.92752 0
M  V30 7694 H 715.908 -0.460479 -1.42127 0
M  V30 7695 H 717.79 1.41199 -3.9704 0
M  V30 7696 H 716.465 1.63272 -2.79506 0
M  V30 7697 H 715.372 -0.497274 -3.7078 0
M  V30 7698 H 716.705 -0.634741 -4.8809 0
M  V30 7699 N 718.357 1.51182 -0.445186 0
M  V30 7700 C 719.32 2.26501 0.350722 0
M  V30 7701 C 720.32 1.3025 0.942952 0
M  V30 7702 O 721.51 1.53897 0.816175 0
M  V30 7703 C 718.642 3.06274 1.49697 0
M  V30 7704 H 719.835 2.98299 -0.309474 0
M  V30 7705 H 717.388 1.55034 -0.198551 0
M  V30 7706 H 718.123 2.38911 2.19299 0
M  V30 7707 H 717.908 3.76979 1.0784 0
M  V30 7708 H 719.398 3.63306 2.05909 0
M  V30 7709 N 719.835 0.176821 1.56605 0
M  V30 7710 C 720.765 -0.746841 2.21234 0
M  V30 7711 C 721.746 -1.23502 1.16967 0
M  V30 7712 O 722.931 -1.28718 1.45414 0
M  V30 7713 C 720.061 -1.97407 2.8574 0
M  V30 7714 C 719.015 -1.62153 3.96094 0
M  V30 7715 C 718.341 -2.92387 4.47676 0
M  V30 7716 C 719.641 -0.845353 5.15413 0
M  V30 7717 H 721.335 -0.208116 2.98676 0
M  V30 7718 H 718.881 -0.0986594 1.43662 0
M  V30 7719 H 720.834 -2.62531 3.2963 0
M  V30 7720 H 719.558 -2.53703 2.05676 0
M  V30 7721 H 718.217 -0.993964 3.52868 0
M  V30 7722 H 717.865 -3.46734 3.64396 0
M  V30 7723 H 717.565 -2.69551 5.22127 0
M  V30 7724 H 719.089 -3.5853 4.94255 0
M  V30 7725 H 720.503 -1.39929 5.55961 0
M  V30 7726 H 718.9 -0.715814 5.95815 0
M  V30 7727 H 719.97 0.157239 4.84645 0
M  V30 7728 N 721.313 -1.57302 -0.09688 0
M  V30 7729 C 722.223 -2.05258 -1.13606 0
M  V30 7730 C 723.239 -0.977137 -1.43972 0
M  V30 7731 O 724.415 -1.29018 -1.54649 0
M  V30 7732 C 721.48 -2.46593 -2.43706 0
M  V30 7733 C 720.541 -3.68322 -2.20538 0
M  V30 7734 C 719.774 -4.07676 -3.44435 0
M  V30 7735 O 719.997 -3.47141 -4.52603 0
M  V30 7736 O 718.931 -5.00641 -3.34129 0
M  V30 7737 H 722.757 -2.94069 -0.758752 0
M  V30 7738 H 720.342 -1.46164 -0.309263 0
M  V30 7739 H 722.224 -2.73814 -3.20318 0
M  V30 7740 H 720.899 -1.6092 -2.80867 0
M  V30 7741 H 719.806 -3.4622 -1.41713 0
M  V30 7742 H 721.139 -4.54769 -1.88271 0
M  V30 7743 N 722.791 0.367657 -1.53252 0
M  V30 7744 C 723.738 1.45028 -1.79543 0
M  V30 7745 C 724.708 1.53288 -0.63969 0
M  V30 7746 O 725.893 1.69209 -0.881653 0
M  V30 7747 C 723.033 2.82 -1.98923 0
M  V30 7748 C 722.146 2.82722 -3.26638 0
M  V30 7749 C 721.281 4.11257 -3.36216 0
M  V30 7750 C 720.32 4.06113 -4.57972 0
M  V30 7751 N 719.457 5.26293 -4.64715 0
M  V30 7752 H 724.297 1.21908 -2.71923 0
M  V30 7753 H 721.834 0.591011 -1.34705 0
M  V30 7754 H 723.792 3.61568 -2.08146 0
M  V30 7755 H 722.422 3.03523 -1.09881 0
M  V30 7756 H 721.474 1.95399 -3.26379 0
M  V30 7757 H 722.786 2.74794 -4.16281 0
M  V30 7758 H 721.94 4.99239 -3.44739 0
M  V30 7759 H 720.679 4.21935 -2.44586 0
M  V30 7760 H 719.684 3.16517 -4.49552 0
M  V30 7761 H 720.909 3.97039 -5.50942 0
M  V30 7762 H 718.855 5.37561 -3.75985 0
M  V30 7763 H 718.772 5.20526 -5.4826 0
M  V30 7764 H 720.04 6.16113 -4.77519 0
M  V30 7765 N 724.269 1.44576 0.627338 0
M  V30 7766 C 725.202 1.46206 1.75212 0
M  V30 7767 C 726.18 0.320483 1.5941 0
M  V30 7768 O 727.364 0.518028 1.81242 0
M  V30 7769 C 724.491 1.29834 3.12827 0
M  V30 7770 C 723.537 2.47603 3.47268 0
M  V30 7771 S 724.37 4.10125 3.44322 0
M  V30 7772 C 725.526 3.96183 4.84551 0
M  V30 7773 H 725.759 2.41378 1.73563 0
M  V30 7774 H 723.292 1.3192 0.802283 0
M  V30 7775 H 725.25 1.21075 3.92239 0
M  V30 7776 H 723.911 0.361662 3.12011 0
M  V30 7777 H 723.104 2.3202 4.47418 0
M  V30 7778 H 722.706 2.53121 2.75329 0
M  V30 7779 H 724.998 3.60107 5.73872 0
M  V30 7780 H 725.941 4.96176 5.05188 0
M  V30 7781 H 726.349 3.28177 4.59304 0
M  V30 7782 N 725.747 -0.868086 1.31537 0
M  V30 7783 C 726.695 -1.99688 1.1928 0
M  V30 7784 C 727.689 -1.69101 0.100656 0
M  V30 7785 O 728.895 -1.78073 0.262677 0
M  V30 7786 H 725.27 -0.655032 0.369374 0
M  V30 7787 H 727.241 -2.07157 2.14776 0
M  V30 7788 C 725.99 -3.35338 0.918892 0
M  V30 7789 H 725.313 -3.59396 1.75142 0
M  V30 7790 H 726.753 -4.14909 0.873311 0
M  V30 7791 C 725.212 -3.34769 -0.378366 0
M  V30 7792 O 725.742 -3.76716 -1.39456 0
M  V30 7793 N 723.948 -2.87895 -0.39557 0
M  V30 7794 H 723.495 -2.53954 0.431889 0
M  V30 7795 H 723.453 -2.87897 -1.26344 0
M  V30 7796 N 727.225 -1.14528 -1.08264 0
M  V30 7797 C 728.135 -0.84728 -2.18765 0
M  V30 7798 C 729.151 0.172826 -1.7314 0
M  V30 7799 O 730.327 0.000985336 -2.014 0
M  V30 7800 C 727.392 -0.330633 -3.4512 0
M  V30 7801 C 726.453 -1.41348 -4.05363 0
M  V30 7802 C 725.686 -0.921387 -5.25686 0
M  V30 7803 O 725.909 0.236587 -5.69909 0
M  V30 7804 O 724.843 -1.70101 -5.77364 0
M  V30 7805 H 728.669 -1.7708 -2.46731 0
M  V30 7806 H 726.254 -0.923661 -1.17426 0
M  V30 7807 H 728.136 -0.0485053 -4.21372 0
M  V30 7808 H 726.811 0.565147 -3.18728 0
M  V30 7809 H 725.718 -1.74908 -3.30693 0
M  V30 7810 H 727.051 -2.28383 -4.36007 0
M  V30 7811 N 728.703 1.26451 -0.940633 0
M  V30 7812 C 729.98 1.88947 -0.505811 0
M  V30 7813 C 730.36 1.85011 1.01657 0
M  V30 7814 O 729.708 1.30406 1.87634 0
M  V30 7815 C 729.918 3.32304 -1.06654 0
M  V30 7816 C 731.266 4.09153 -1.13486 0
M  V30 7817 O 732.29 3.41371 -1.01708 0
M  V30 7818 O 731.149 5.30369 -1.31797 0
M  V30 7819 H 728.243 0.810422 -0.164759 0
M  V30 7820 H 730.789 1.34625 -1.03316 0
M  V30 7821 H 729.561 3.29527 -2.11015 0
M  V30 7822 H 729.184 3.94164 -0.521603 0
M  V30 7823 N 730.181 0.707592 1.40822 0
M  V30 7824 C 731.131 0.0265008 2.27985 0
M  V30 7825 C 732.115 -0.740685 1.42838 0
M  V30 7826 O 733.307 -0.6142 1.66002 0
M  V30 7827 C 730.436 -0.900382 3.31282 0
M  V30 7828 C 729.522 -0.128807 4.23904 0
M  V30 7829 N 729.913 0.883744 4.9802 0
M  V30 7830 C 728.211 -0.362539 4.44524 0
M  V30 7831 C 728.912 1.34666 5.65898 0
M  V30 7832 N 727.888 0.670306 5.39451 0
M  V30 7833 H 731.69 0.802667 2.82727 0
M  V30 7834 H 729.204 0.539475 1.53178 0
M  V30 7835 H 731.201 -1.40357 3.92563 0
M  V30 7836 H 729.861 -1.67601 2.781 0
M  V30 7837 H 730.872 1.26435 5.0223 0
M  V30 7838 H 727.549 -1.11512 4.02332 0
M  V30 7839 H 728.939 2.18756 6.35292 0
M  V30 7840 N 731.66 -1.50943 0.453197 0
M  V30 7841 C 732.906 -2.02512 -0.108082 0
M  V30 7842 C 733.239 -1.33574 -1.40967 0
M  V30 7843 O 732.514 -0.455671 -1.89087 0
M  V30 7844 C 732.797 -3.58759 -0.310453 0
M  V30 7845 C 732.65 -4.38293 1.0109 0
M  V30 7846 C 733.969 -4.26816 -1.07313 0
M  V30 7847 H 731.088 -0.73603 -0.0378064 0
M  V30 7848 H 733.73 -1.80433 0.595295 0
M  V30 7849 H 731.88 -3.77702 -0.909582 0
M  V30 7850 H 733.552 -4.30964 1.64523 0
M  V30 7851 H 731.795 -4.02745 1.61179 0
M  V30 7852 H 732.466 -5.45828 0.82315 0
M  V30 7853 H 734.942 -4.1224 -0.565473 0
M  V30 7854 H 733.818 -5.35989 -1.1835 0
M  V30 7855 H 734.079 -3.88757 -2.10525 0
M  V30 7856 N 733.138 -0.185124 -1.56509 0
M  V30 7857 C 734.07 0.771401 -2.15829 0
M  V30 7858 C 735.083 1.18392 -1.11747 0
M  V30 7859 O 736.272 1.12137 -1.38879 0
M  V30 7860 C 733.372 2.05169 -2.69739 0
M  V30 7861 C 732.545 1.80056 -3.98621 0
M  V30 7862 C 731.604 2.92435 -4.37456 0
M  V30 7863 O 730.63 2.62473 -5.05071 0
M  V30 7864 N 731.832 4.20554 -4.00143 0
M  V30 7865 H 734.597 0.264184 -2.98533 0
M  V30 7866 H 732.158 -0.00281069 -1.619 0
M  V30 7867 H 734.15 2.7947 -2.92709 0
M  V30 7868 H 732.72 2.47041 -1.91545 0
M  V30 7869 H 731.94 0.895862 -3.83885 0
M  V30 7870 H 733.228 1.60662 -4.82768 0
M  V30 7871 H 732.626 4.47753 -3.45736 0
M  V30 7872 H 731.183 4.91514 -4.28085 0
M  V30 7873 N 734.616 1.57351 0.0885366 0
M  V30 7874 C 735.563 2.02523 1.10693 0
M  V30 7875 C 736.533 0.902736 1.39427 0
M  V30 7876 O 737.718 1.16921 1.50779 0
M  V30 7877 C 734.858 2.46013 2.42016 0
M  V30 7878 C 733.971 3.7181 2.19957 0
M  V30 7879 C 733.106 4.04152 3.44724 0
M  V30 7880 C 732.145 5.2304 3.17956 0
M  V30 7881 N 731.282 5.51102 4.35007 0
M  V30 7882 H 736.122 2.89302 0.714742 0
M  V30 7883 H 733.659 1.43084 0.341378 0
M  V30 7884 H 735.617 2.69274 3.18665 0
M  V30 7885 H 734.247 1.62235 2.79069 0
M  V30 7886 H 733.299 3.55987 1.34079 0
M  V30 7887 H 734.611 4.58604 1.96173 0
M  V30 7888 H 733.765 4.28225 4.29777 0
M  V30 7889 H 732.504 3.15893 3.71568 0
M  V30 7890 H 731.509 4.98781 2.31296 0
M  V30 7891 H 732.734 6.12902 2.92451 0
M  V30 7892 H 730.68 4.65802 4.61914 0
M  V30 7893 H 730.597 6.3228 4.14437 0
M  V30 7894 H 731.865 5.79714 5.21106 0
M  V30 7895 N 736.094 -0.359525 1.53444 0
M  V30 7896 C 737.042 -1.46104 1.80987 0
M  V30 7897 C 738.036 -1.55181 0.679351 0
M  V30 7898 O 739.242 -1.57995 0.862405 0
M  V30 7899 H 735.617 -0.486835 0.573145 0
M  V30 7900 H 737.588 -1.2008 2.73173 0
M  V30 7901 C 736.337 -2.82855 2.02208 0
M  V30 7902 H 735.66 -2.76631 2.88644 0
M  V30 7903 H 737.1 -3.59091 2.25455 0
M  V30 7904 C 735.559 -3.27192 0.802931 0
M  V30 7905 O 736.089 -4.017 -0.00544286 0
M  V30 7906 N 734.295 -2.83807 0.624657 0
M  V30 7907 H 733.842 -2.23339 1.28364 0
M  V30 7908 H 733.8 -3.13828 -0.189641 0
M  V30 7909 N 737.572 -1.44907 -0.619662 0
M  V30 7910 C 738.82 -1.47999 -1.37625 0
M  V30 7911 C 739.141 -0.118295 -1.94641 0
M  V30 7912 O 738.411 0.85086 -1.76457 0
M  V30 7913 H 736.991 -0.544993 -0.510873 0
M  V30 7914 H 739.653 -1.80772 -0.728522 0
M  V30 7915 H 738.749 -2.21196 -2.20179 0
M  V30 7916 N 739.05 0.861098 -1.31996 0
M  V30 7917 C 740.466 1.14827 -1.10846 0
M  V30 7918 C 740.666 2.0117 0.11528 0
M  V30 7919 O 739.722 2.39423 0.802048 0
M  V30 7920 C 741.035 1.83183 -2.38462 0
M  V30 7921 C 742.583 1.95847 -2.44158 0
M  V30 7922 C 743.058 2.67617 -3.71679 0
M  V30 7923 N 744.549 2.75147 -3.72624 0
M  V30 7924 C 745.284 3.31314 -4.67994 0
M  V30 7925 N 744.78 3.88343 -5.73726 0
M  V30 7926 N 746.573 3.29356 -4.55501 0
M  V30 7927 H 738.724 0.285951 -2.10466 0
M  V30 7928 H 740.987 0.189303 -0.928907 0
M  V30 7929 H 740.693 1.27193 -3.27895 0
M  V30 7930 H 740.567 2.83393 -2.48935 0
M  V30 7931 H 742.954 2.50999 -1.55189 0
M  V30 7932 H 743.035 0.94653 -2.37644 0
M  V30 7933 H 742.679 2.13131 -4.61018 0
M  V30 7934 H 742.609 3.69237 -3.75462 0
M  V30 7935 H 745.1 2.34682 -2.96197 0
M  V30 7936 H 745.413 4.29338 -6.42564 0
M  V30 7937 H 743.758 3.86693 -5.77489 0
M  V30 7938 H 746.949 2.84047 -3.72069 0
M  V30 7939 H 747.122 3.7283 -5.30001 0
M  V30 7940 N 740.528 1.15101 1.07655 0
M  V30 7941 C 741.475 0.844958 2.14777 0
M  V30 7942 C 742.445 -0.200798 1.64882 0
M  V30 7943 O 743.63 -0.0690278 1.90675 0
M  V30 7944 C 740.77 0.337018 3.4345 0
M  V30 7945 C 739.883 1.44398 4.07153 0
M  V30 7946 C 739.018 0.892487 5.23649 0
M  V30 7947 C 738.057 1.9766 5.79307 0
M  V30 7948 N 737.194 1.44171 6.87138 0
M  V30 7949 H 742.034 1.76242 2.40297 0
M  V30 7950 H 739.571 0.879435 1.17917 0
M  V30 7951 H 741.529 0.024256 4.17193 0
M  V30 7952 H 740.159 -0.543531 3.18191 0
M  V30 7953 H 739.211 1.87299 3.31094 0
M  V30 7954 H 740.523 2.26262 4.4453 0
M  V30 7955 H 739.677 0.532083 6.04362 0
M  V30 7956 H 738.416 0.0429854 4.87681 0
M  V30 7957 H 737.421 2.34586 4.97242 0
M  V30 7958 H 738.646 2.82982 6.17331 0
M  V30 7959 H 736.592 0.614518 6.53115 0
M  V30 7960 H 736.509 2.19665 7.23383 0
M  V30 7961 H 737.777 1.10945 7.71564 0
M  V30 7962 N 742.006 -1.2595 0.947325 0
M  V30 7963 C 742.969 -2.24407 0.466285 0
M  V30 7964 C 743.969 -1.55054 -0.426005 0
M  V30 7965 O 745.159 -1.7275 -0.224319 0
M  V30 7966 C 742.291 -3.39326 -0.327201 0
M  V30 7967 H 743.484 -2.68477 1.33642 0
M  V30 7968 H 741.037 -1.38211 0.729887 0
M  V30 7969 H 741.772 -3.00667 -1.21532 0
M  V30 7970 H 741.557 -3.9085 0.312839 0
M  V30 7971 H 743.047 -4.12455 -0.653477 0
M  V30 7972 N 743.484 -0.715051 -1.40445 0
M  V30 7973 C 744.447 -0.0708726 -2.2909 0
M  V30 7974 C 745.447 0.687926 -1.45342 0
M  V30 7975 O 746.637 0.519908 -1.66261 0
M  V30 7976 C 743.769 0.909528 -3.28543 0
M  V30 7977 H 744.962 -0.851611 -2.87555 0
M  V30 7978 H 742.515 -0.479674 -1.48758 0
M  V30 7979 H 743.25 1.71734 -2.75096 0
M  V30 7980 H 743.035 0.368318 -3.90366 0
M  V30 7981 H 744.525 1.35744 -3.94922 0
M  V30 7982 N 744.962 1.50701 -0.461195 0
M  V30 7983 C 746.187 2.07171 0.0974773 0
M  V30 7984 C 746.612 1.32391 1.3362 0
M  V30 7985 O 745.97 0.368676 1.77512 0
M  V30 7986 C 746.018 3.58651 0.374409 0
M  V30 7987 O 745.122 3.85816 1.4567 0
M  V30 7988 H 744.463 0.663944 -0.00862047 0
M  V30 7989 H 746.993 1.94021 -0.649394 0
M  V30 7990 H 747.003 4.03295 0.617843 0
M  V30 7991 H 745.678 4.12498 -0.530829 0
M  V30 7992 H 744.255 3.53018 1.20136 0
M  V30 7993 N 746.441 0.193421 1.56409 0
M  V30 7994 C 747.688 -0.445789 1.97532 0
M  V30 7995 C 748.016 -1.61744 1.08024 0
M  V30 7996 O 747.271 -1.95338 0.118982 0
M  V30 7997 C 747.57 -0.949718 3.44551 0
M  V30 7998 C 747.236 0.108383 4.5077 0
M  V30 7999 C 745.898 0.399126 4.79542 0
M  V30 8000 C 748.25 0.825423 5.14622 0
M  V30 8001 C 745.578 1.41192 5.69457 0
M  V30 8002 C 747.93 1.82735 6.05632 0
M  V30 8003 C 746.594 2.12531 6.32761 0
M  V30 8004 H 745.864 -0.163126 0.722822 0
M  V30 8005 H 748.511 0.290035 1.89291 0
M  V30 8006 H 746.816 -1.76378 3.49854 0
M  V30 8007 H 748.513 -1.45367 3.73724 0
M  V30 8008 H 745.103 -0.128392 4.28408 0
M  V30 8009 H 749.287 0.61403 4.92487 0
M  V30 8010 H 744.543 1.6487 5.88751 0
M  V30 8011 H 748.717 2.3882 6.5417 0
M  V30 8012 H 746.344 2.91155 7.02234 0
M  V30 8013 N 747.919 -1.57396 -0.0801906 0
M  V30 8014 C 748.849 -2.06145 -1.09665 0
M  V30 8015 C 749.83 -0.953273 -1.40878 0
M  V30 8016 O 751.015 -1.22548 -1.50651 0
M  V30 8017 C 748.145 -2.49836 -2.41245 0
M  V30 8018 C 747.099 -3.64454 -2.24405 0
M  V30 8019 C 746.425 -3.94172 -3.61293 0
M  V30 8020 C 747.725 -4.94807 -1.67223 0
M  V30 8021 H 749.419 -2.91316 -0.691028 0
M  V30 8022 H 746.965 -1.40145 -0.330957 0
M  V30 8023 H 748.918 -2.82552 -3.12638 0
M  V30 8024 H 747.642 -1.61683 -2.83771 0
M  V30 8025 H 746.301 -3.32008 -1.55454 0
M  V30 8026 H 745.949 -3.03163 -4.01374 0
M  V30 8027 H 745.649 -4.71345 -3.50867 0
M  V30 8028 H 747.173 -4.29376 -4.3413 0
M  V30 8029 H 748.587 -5.25807 -2.28472 0
M  V30 8030 H 746.984 -5.76245 -1.67515 0
M  V30 8031 H 748.054 -4.80751 -0.632944 0
M  V30 8032 N 749.397 0.351382 -1.53633 0
M  V30 8033 C 750.344 1.43115 -1.81071 0
M  V30 8034 C 751.314 1.52601 -0.655913 0
M  V30 8035 O 752.499 1.68264 -0.89955 0
M  V30 8036 C 749.639 2.79874 -2.01903 0
M  V30 8037 C 748.752 2.79242 -3.29618 0
M  V30 8038 C 747.887 4.07667 -3.40559 0
M  V30 8039 C 746.926 4.01233 -4.62254 0
M  V30 8040 N 746.063 5.21334 -4.70271 0
M  V30 8041 H 750.903 1.19017 -2.73201 0
M  V30 8042 H 748.44 0.576691 -1.35324 0
M  V30 8043 H 750.398 3.5934 -2.11969 0
M  V30 8044 H 749.028 3.0234 -1.13094 0
M  V30 8045 H 748.08 1.91927 -3.28433 0
M  V30 8046 H 749.392 2.70363 -4.19172 0
M  V30 8047 H 748.546 4.95555 -3.50015 0
M  V30 8048 H 747.285 4.19317 -2.49047 0
M  V30 8049 H 746.29 3.11732 -4.52884 0
M  V30 8050 H 747.515 3.91173 -5.55122 0
M  V30 8051 H 745.461 5.33543 -3.81665 0
M  V30 8052 H 745.378 5.14681 -5.5375 0
M  V30 8053 H 746.646 6.11014 -4.84027 0
M  V30 8054 N 750.875 1.45233 0.611969 0
M  V30 8055 C 752.152 1.39495 1.37115 0
M  V30 8056 C 752.532 0.0633303 2.11005 0
M  V30 8057 O 751.88 -0.954617 2.07604 0
M  V30 8058 C 752.09 2.60579 2.32163 0
M  V30 8059 C 753.438 3.05477 2.94905 0
M  V30 8060 O 754.462 2.60921 2.42485 0
M  V30 8061 O 753.321 3.82787 3.90047 0
M  V30 8062 H 750.415 0.55335 0.614599 0
M  V30 8063 H 752.961 1.57355 0.635423 0
M  V30 8064 H 751.733 3.49085 1.76793 0
M  V30 8065 H 751.356 2.45031 3.13122 0
M  V30 8066 N 752.353 -0.854086 1.3245 0
M  V30 8067 C 753.63 -1.59188 1.1366 0
M  V30 8068 C 754.01 -2.08917 -0.302807 0
M  V30 8069 O 753.358 -1.8795 -1.29951 0
M  V30 8070 C 753.568 -2.73757 2.16467 0
M  V30 8071 C 754.916 -3.43323 2.49829 0
M  V30 8072 O 755.94 -2.83983 2.15017 0
M  V30 8073 O 754.799 -4.50409 3.09506 0
M  V30 8074 H 751.893 -0.701092 0.438633 0
M  V30 8075 H 754.439 -0.898165 1.43983 0
M  V30 8076 H 753.211 -2.3454 3.1322 0
M  V30 8077 H 752.834 -3.50804 1.87142 0
M  V30 8078 N 753.831 -1.1567 -1.07043 0
M  V30 8079 C 755.079 -0.931673 -1.79344 0
M  V30 8080 C 755.4 0.542421 -1.87304 0
M  V30 8081 O 754.67 1.39418 -1.37621 0
M  V30 8082 H 753.25 -0.34171 -0.664262 0
M  V30 8083 H 755.912 -1.45795 -1.29344 0
M  V30 8084 H 755.008 -1.34379 -2.81689 0
M  V30 8085 N 755.309 1.25446 -0.953992 0
M  V30 8086 C 756.586 1.884 -0.525823 0
M  V30 8087 C 756.966 1.86079 0.996891 0
M  V30 8088 O 756.314 1.32389 1.8624 0
M  V30 8089 C 756.524 3.31154 -1.10172 0
M  V30 8090 C 757.872 4.07926 -1.17819 0
M  V30 8091 O 758.896 3.40273 -1.05323 0
M  V30 8092 O 757.755 5.28942 -1.37415 0
M  V30 8093 H 754.849 0.808629 -0.173345 0
M  V30 8094 H 757.395 1.33522 -1.04738 0
M  V30 8095 H 756.167 3.27271 -2.14499 0
M  V30 8096 H 755.79 3.93588 -0.56338 0
M  V30 8097 N 756.787 0.722489 1.40064 0
M  V30 8098 C 758.198 0.336507 1.83642 0
M  V30 8099 C 758.549 -1.13002 1.6039 0
M  V30 8100 O 757.674 -1.87036 1.08842 0
M  V30 8101 C 758.269 0.603985 3.33373 0
M  V30 8102 C 756.828 0.271637 3.75419 0
M  V30 8103 C 755.975 0.872898 2.63203 0
M  V30 8104 H 758.926 0.921108 1.29233 0
M  V30 8105 H 758.947 -0.128471 3.80283 0
M  V30 8106 H 758.459 1.67141 3.50265 0
M  V30 8107 H 756.56 -0.790455 3.64119 0
M  V30 8108 H 756.673 0.745457 4.73265 0
M  V30 8109 H 755.037 0.300431 2.52922 0
M  V30 8110 H 755.82 1.94473 2.82905 0
M  V30 8111 N 758.265 -1.50454 0.469181 0
M  V30 8112 C 759.676 -1.86695 0.0136034 0
M  V30 8113 C 760.027 -1.38413 -1.39055 0
M  V30 8114 O 759.152 -0.748294 -2.03051 0
M  V30 8115 C 759.747 -3.38795 0.0179098 0
M  V30 8116 C 758.306 -3.74455 -0.382191 0
M  V30 8117 C 757.453 -2.74338 0.404207 0
M  V30 8118 H 760.404 -1.43225 0.683547 0
M  V30 8119 H 760.425 -3.72321 -0.78468 0
M  V30 8120 H 759.937 -3.73906 1.04 0
M  V30 8121 H 758.038 -3.44944 -1.4087 0
M  V30 8122 H 758.151 -4.79025 -0.084862 0
M  V30 8123 H 756.515 -2.54305 -0.141829 0
M  V30 8124 H 757.298 -3.12293 1.42577 0
M  V30 8125 N 759.743 -0.201713 -1.56304 0
M  V30 8126 C 760.673 0.71155 -2.22394 0
M  V30 8127 C 761.654 1.21625 -1.18917 0
M  V30 8128 O 762.839 1.26388 -1.47444 0
M  V30 8129 C 759.969 1.92837 -2.88845 0
M  V30 8130 C 758.923 1.55831 -3.98623 0
M  V30 8131 C 758.249 2.85228 -4.52271 0
M  V30 8132 C 759.549 0.763249 -5.16693 0
M  V30 8133 H 761.243 0.160573 -2.98969 0
M  V30 8134 H 758.789 0.0757916 -1.438 0
M  V30 8135 H 760.742 2.57253 -3.33764 0
M  V30 8136 H 759.466 2.50398 -2.09686 0
M  V30 8137 H 758.125 0.9377 -3.54405 0
M  V30 8138 H 757.773 3.40893 -3.69866 0
M  V30 8139 H 757.473 2.6121 -5.26349 0
M  V30 8140 H 758.997 3.50622 -4.99897 0
M  V30 8141 H 760.411 1.31066 -5.58117 0
M  V30 8142 H 758.808 0.620935 -5.96879 0
M  V30 8143 H 759.878 -0.234322 -4.84334 0
M  V30 8144 N 761.222 1.57436 0.0718424 0
M  V30 8145 C 762.152 2.06724 1.08571 0
M  V30 8146 C 763.133 0.960731 1.40371 0
M  V30 8147 O 764.318 1.23345 1.49999 0
M  V30 8148 C 761.448 2.51112 2.39916 0
M  V30 8149 C 760.402 3.65639 2.22469 0
M  V30 8150 C 759.728 3.96082 3.59198 0
M  V30 8151 C 761.028 4.95687 1.64596 0
M  V30 8152 H 762.722 2.91679 0.675569 0
M  V30 8153 H 760.268 1.40319 0.32352 0
M  V30 8154 H 762.221 2.84206 3.11135 0
M  V30 8155 H 760.945 1.63186 2.8291 0
M  V30 8156 H 759.604 3.32828 1.53691 0
M  V30 8157 H 759.252 3.05287 3.99761 0
M  V30 8158 H 758.952 4.73199 3.48362 0
M  V30 8159 H 760.476 4.31672 4.31847 0
M  V30 8160 H 761.89 5.27011 2.25681 0
M  V30 8161 H 760.287 5.77126 1.64457 0
M  V30 8162 H 761.357 4.8108 0.60744 0
M  V30 8163 N 762.7 -0.34323 1.53817 0
M  V30 8164 C 763.93 -1.10188 1.74763 0
M  V30 8165 C 764.338 -1.82829 0.486856 0
M  V30 8166 O 763.681 -1.75236 -0.551198 0
M  V30 8167 C 763.743 -2.16 2.87375 0
M  V30 8168 C 763.407 -1.62931 4.26969 0
M  V30 8169 C 764.404 -1.08147 5.08528 0
M  V30 8170 C 762.089 -1.67769 4.73454 0
M  V30 8171 C 764.083 -0.589039 6.34672 0
M  V30 8172 C 761.77 -1.18138 5.99572 0
M  V30 8173 C 762.768 -0.637979 6.80014 0
M  V30 8174 O 762.456 -0.149073 8.03762 0
M  V30 8175 H 762.188 -0.33445 0.587469 0
M  V30 8176 H 764.742 -0.401109 2.01445 0
M  V30 8177 H 762.972 -2.89637 2.56218 0
M  V30 8178 H 764.661 -2.77432 2.96287 0
M  V30 8179 H 765.427 -1.03732 4.73777 0
M  V30 8180 H 761.306 -2.09004 4.10899 0
M  V30 8181 H 764.85 -0.164233 6.97407 0
M  V30 8182 H 760.747 -1.22254 6.33817 0
M  V30 8183 H 761.515 -0.266332 8.18067 0
M  V30 8184 N 764.178 -1.45556 -0.604258 0
M  V30 8185 C 765.455 -1.40221 -1.36373 0
M  V30 8186 C 765.835 -0.0745195 -2.10968 0
M  V30 8187 O 765.183 0.943594 -2.08107 0
M  V30 8188 C 765.393 -2.61807 -2.30777 0
M  V30 8189 C 766.741 -3.07037 -2.93281 0
M  V30 8190 O 767.765 -2.62203 -2.41097 0
M  V30 8191 O 766.624 -3.8485 -3.88011 0
M  V30 8192 H 763.718 -0.556602 -0.611656 0
M  V30 8193 H 766.264 -1.57689 -0.627069 0
M  V30 8194 H 765.036 -3.50017 -1.74939 0
M  V30 8195 H 764.659 -2.46688 -3.11818 0
M  V30 8196 N 765.656 0.84705 -1.32902 0
M  V30 8197 C 766.566 1.98845 -1.2449 0
M  V30 8198 C 767.582 1.7329 -0.15702 0
M  V30 8199 O 768.758 1.978 -0.379104 0
M  V30 8200 C 765.823 3.32679 -0.975985 0
M  V30 8201 C 764.884 3.71405 -2.15306 0
M  V30 8202 C 764.117 4.98853 -1.89688 0
M  V30 8203 O 764.34 5.64134 -0.843168 0
M  V30 8204 O 763.274 5.34889 -2.76002 0
M  V30 8205 H 767.1 2.0888 -2.2046 0
M  V30 8206 H 764.685 0.978852 -1.12867 0
M  V30 8207 H 766.567 4.12885 -0.842826 0
M  V30 8208 H 765.242 3.23667 -0.0464954 0
M  V30 8209 H 764.149 2.91743 -2.34172 0
M  V30 8210 H 765.482 3.85073 -3.06561 0
M  V30 8211 O 767.173 1.28015 0.984606 0
M  V30 8212 H 767.864 1.07954 1.60828 0
M  V30 END ATOM
M  V30 BEGIN BOND
M  V30 END BOND
M  V30 END CTAB
M  END
$$$$
