drugbank_target|O14791 Apolipoprotein L1 (DB01593; DB14487; DB14533; DB14548)
 OpenBabel12092121073D

  0  0  0     0  0            999 V3000
M  V30 BEGIN CTAB
M  V30 COUNTS 6223 6273 0 0 0
M  V30 BEGIN ATOM
M  V30 1 H -0.908 1.98254 -0.117106 0
M  V30 2 N 0 1.576 0 0
M  V30 3 C 0.933 2.03868 1.02534 0
M  V30 4 C 1.911 0.928543 1.3348 0
M  V30 5 O 3.095 1.19667 1.45644 0
M  V30 6 C 0.222 2.43627 2.35294 0
M  V30 7 C -0.732 3.65373 2.2001 0
M  V30 8 S 0.101 5.13292 1.52614 0
M  V30 9 C 1.257 5.56322 2.86805 0
M  V30 10 H 1.49 2.90518 0.631377 0
M  V30 11 H -0.977 1.52953 0.210867 0
M  V30 12 H 0.981 2.67203 3.11629 0
M  V30 13 H -0.358 1.57376 2.7183 0
M  V30 14 H -1.165 3.90944 3.18086 0
M  V30 15 H -1.563 3.418 1.51819 0
M  V30 16 H 0.729 5.58782 3.83104 0
M  V30 17 H 1.672 6.56266 2.65933 0
M  V30 18 H 2.08 4.83886 2.90714 0
M  V30 19 N 1.4781 -0.272755 1.55222 0
M  V30 20 C 2.3881 -1.35918 1.91216 0
M  V30 21 C 3.4041 -1.54026 0.809436 0
M  V30 22 O 4.5801 -1.68148 1.10852 0
M  V30 23 C 1.6451 -2.69834 2.17693 0
M  V30 24 C 0.7061 -2.6047 3.41253 0
M  V30 25 C -0.0609 -3.88 3.66458 0
M  V30 26 O 0.1621 -4.88693 2.94169 0
M  V30 27 O -0.9039 -3.88189 4.59992 0
M  V30 28 H 2.9221 -1.0839 2.83699 0
M  V30 29 H 0.5071 -0.471301 1.41771 0
M  V30 30 H 2.3891 -3.49017 2.36147 0
M  V30 31 H 1.0641 -2.97148 1.28392 0
M  V30 32 H -0.0289 -1.79663 3.28134 0
M  V30 33 H 1.3041 -2.38106 4.30774 0
M  V30 34 N 2.9562 -1.48159 -0.537278 0
M  V30 35 C 4.2042 -1.55497 -1.29094 0
M  V30 36 C 4.5252 -0.227454 -1.93669 0
M  V30 37 O 3.7952 0.750386 -1.80959 0
M  V30 38 H 2.3752 -0.572832 -0.47945 0
M  V30 39 H 5.0372 -1.84579 -0.625818 0
M  V30 40 H 4.1332 -2.33216 -2.07405 0
M  V30 41 N 4.4343 0.785586 -1.36625 0
M  V30 42 C 5.3973 1.87999 -1.31107 0
M  V30 43 C 6.3973 1.59316 -0.217959 0
M  V30 44 O 7.5873 1.67656 -0.472977 0
M  V30 45 C 4.7193 3.24861 -1.03334 0
M  V30 46 H 5.9123 1.94307 -2.2844 0
M  V30 47 H 3.4653 0.983813 -1.21453 0
M  V30 48 H 4.2003 3.24235 -0.0647432 0
M  V30 49 H 3.9853 3.4707 -1.82441 0
M  V30 50 H 5.4753 4.04929 -1.02088 0
M  V30 51 N 5.9124 1.20967 1.01018 0
M  V30 52 C 6.8754 0.965918 2.07853 0
M  V30 53 C 7.8754 -0.0610545 1.60684 0
M  V30 54 O 9.0654 0.175681 1.73312 0
M  V30 55 C 6.1974 0.455513 3.37843 0
M  V30 56 H 7.3904 1.91365 2.3091 0
M  V30 57 H 4.9434 1.02594 1.17916 0
M  V30 58 H 5.6784 -0.497381 3.20463 0
M  V30 59 H 5.4634 1.19622 3.73407 0
M  V30 60 H 6.9534 0.304667 4.16487 0
M  V30 61 N 7.3905 -1.2043 1.01659 0
M  V30 62 C 8.3205 -2.25466 0.607226 0
M  V30 63 C 9.3015 -1.65853 -0.377716 0
M  V30 64 O 10.4865 -1.92409 -0.263149 0
M  V30 65 C 7.6165 -3.47256 -0.0552949 0
M  V30 66 C 6.5705 -4.19462 0.850632 0
M  V30 67 C 5.8965 -5.34673 0.0538859 0
M  V30 68 C 7.1965 -4.75603 2.15868 0
M  V30 69 H 8.8905 -2.59962 1.48526 0
M  V30 70 H 6.4365 -1.2496 0.715605 0
M  V30 71 H 8.3895 -4.19917 -0.353233 0
M  V30 72 H 7.1135 -3.11924 -0.968045 0
M  V30 73 H 5.7725 -3.48667 1.13257 0
M  V30 74 H 5.4205 -4.95585 -0.860514 0
M  V30 75 H 5.1205 -5.83913 0.657192 0
M  V30 76 H 6.6445 -6.10138 -0.237598 0
M  V30 77 H 8.0585 -5.40083 1.92311 0
M  V30 78 H 6.4555 -5.3528 2.71284 0
M  V30 79 H 7.5255 -3.94346 2.82169 0
M  V30 80 N 8.8686 -0.792821 -1.36206 0
M  V30 81 C 9.7986 -0.207853 -2.32573 0
M  V30 82 C 10.7796 0.659055 -1.56813 0
M  V30 83 O 11.9646 0.592176 -1.84951 0
M  V30 84 C 9.0946 0.655449 -3.41059 0
M  V30 85 C 8.0486 -0.111842 -4.27854 0
M  V30 86 C 7.3746 0.872274 -5.27537 0
M  V30 87 C 8.6746 -1.30299 -5.05786 0
M  V30 88 H 10.3686 -1.01294 -2.81744 0
M  V30 89 H 7.9146 -0.48854 -1.3546 0
M  V30 90 H 9.8676 1.07464 -4.07467 0
M  V30 91 H 8.5916 1.49328 -2.90463 0
M  V30 92 H 7.2506 -0.512053 -3.63006 0
M  V30 93 H 6.8986 1.70523 -4.73214 0
M  V30 94 H 6.5986 0.363291 -5.86476 0
M  V30 95 H 8.1226 1.28996 -5.96818 0
M  V30 96 H 9.5366 -0.959379 -5.65216 0
M  V30 97 H 7.9336 -1.7455 -5.74154 0
M  V30 98 H 9.0036 -2.09663 -4.37229 0
M  V30 99 N 10.3467 1.47872 -0.545128 0
M  V30 100 C 11.7627 1.5829 -0.204032 0
M  V30 101 C 11.9627 1.54529 1.29317 0
M  V30 102 O 11.0187 1.44232 2.07252 0
M  V30 103 C 12.3317 2.89304 -0.819987 0
M  V30 104 C 13.8797 3.02864 -0.790105 0
M  V30 105 C 14.3547 4.3656 -1.38491 0
M  V30 106 N 15.8457 4.43165 -1.34755 0
M  V30 107 C 16.5807 5.45153 -1.77753 0
M  V30 108 N 16.0767 6.54016 -2.2855 0
M  V30 109 N 17.8697 5.36125 -1.68897 0
M  V30 110 H 10.0207 1.4856 -1.51802 0
M  V30 111 H 12.2837 0.706305 -0.632327 0
M  V30 112 H 11.9897 2.97757 -1.87173 0
M  V30 113 H 11.8637 3.75957 -0.305915 0
M  V30 114 H 14.2507 2.94014 0.252913 0
M  V30 115 H 14.3317 2.17782 -1.34181 0
M  V30 116 H 13.9757 4.46164 -2.42693 0
M  V30 117 H 13.9057 5.20353 -0.808754 0
M  V30 118 H 16.3967 3.65083 -0.975855 0
M  V30 119 H 16.7097 7.27994 -2.59314 0
M  V30 120 H 15.0547 6.54938 -2.32553 0
M  V30 121 H 18.2457 4.49975 -1.28998 0
M  V30 122 H 18.4187 6.15472 -2.02726 0
M  V30 123 N 11.8248 0.280983 1.55075 0
M  V30 124 C 13.0708 -0.33461 2.00021 0
M  V30 125 C 13.4038 -1.55063 1.16915 0
M  V30 126 O 12.6788 -1.93006 0.240646 0
M  V30 127 C 12.9618 -0.711007 3.53011 0
M  V30 128 C 12.8148 0.512766 4.46868 0
M  V30 129 C 14.1338 -1.54522 4.12081 0
M  V30 130 H 11.2528 -0.120147 0.727141 0
M  V30 131 H 13.8948 0.389097 1.85973 0
M  V30 132 H 12.0448 -1.32761 3.65112 0
M  V30 133 H 13.7168 1.15131 4.46702 0
M  V30 134 H 11.9598 1.14975 4.18286 0
M  V30 135 H 12.6308 0.205556 5.51617 0
M  V30 136 H 15.1068 -1.02442 4.03293 0
M  V30 137 H 13.9828 -1.77739 5.19327 0
M  V30 138 H 14.2438 -2.52813 3.62682 0
M  V30 139 N 13.3029 -1.57598 0.00835791 0
M  V30 140 C 14.5279 -1.95617 -0.689103 0
M  V30 141 C 14.9529 -0.883753 -1.66046 0
M  V30 142 O 14.3109 0.157352 -1.80616 0
M  V30 143 C 14.3589 -3.32736 -1.38994 0
M  V30 144 O 13.4629 -3.27631 -2.50463 0
M  V30 145 H 12.8039 -0.638379 -0.182668 0
M  V30 146 H 15.3339 -2.045 0.064036 0
M  V30 147 H 15.3439 -3.68494 -1.75147 0
M  V30 148 H 14.0189 -4.1034 -0.677778 0
M  V30 149 H 12.5959 -3.03561 -2.16576 0
M  V30 150 N 14.781 0.264519 -1.55364 0
M  V30 151 C 16.027 0.99646 -1.76631 0
M  V30 152 C 16.36 1.85632 -0.570478 0
M  V30 153 O 15.635 1.89647 0.43175 0
M  V30 154 C 15.918 1.87187 -3.07625 0
M  V30 155 C 15.771 1.04138 -4.37579 0
M  V30 156 C 17.09 2.85749 -3.34717 0
M  V30 157 H 14.209 0.360841 -0.642622 0
M  V30 158 H 16.851 0.268218 -1.88097 0
M  V30 159 H 15.001 2.49279 -2.9798 0
M  V30 160 H 16.673 0.440517 -4.59192 0
M  V30 161 H 14.916 0.345115 -4.32425 0
M  V30 162 H 15.587 1.68729 -5.2558 0
M  V30 163 H 18.063 2.33793 -3.4421 0
M  V30 164 H 16.939 3.44136 -4.27623 0
M  V30 165 H 17.2 3.61311 -2.54768 0
M  V30 166 N 16.2591 1.48442 0.529413 0
M  V30 167 C 17.1891 1.65902 1.64313 0
M  V30 168 C 18.1701 0.507897 1.6234 0
M  V30 169 O 19.3551 0.740503 1.79528 0
M  V30 170 C 16.4851 1.69911 3.02898 0
M  V30 171 C 15.4391 2.8453 3.19729 0
M  V30 172 C 14.7651 2.73629 4.59381 0
M  V30 173 C 16.0651 4.25821 3.02447 0
M  V30 174 H 17.7591 2.5914 1.49955 0
M  V30 175 H 15.3051 1.24709 0.719982 0
M  V30 176 H 17.2581 1.80715 3.80684 0
M  V30 177 H 15.9821 0.732524 3.18279 0
M  V30 178 H 14.6411 2.73283 2.44361 0
M  V30 179 H 14.2891 1.74938 4.71599 0
M  V30 180 H 13.9891 3.50541 4.71588 0
M  V30 181 H 15.5131 2.86401 5.39265 0
M  V30 182 H 16.9271 4.37898 3.70024 0
M  V30 183 H 15.3241 5.03735 3.26146 0
M  V30 184 H 16.3941 4.42244 1.98867 0
M  V30 185 N 17.7372 -0.778329 1.37039 0
M  V30 186 C 18.9772 -1.54973 1.33276 0
M  V30 187 C 19.3412 -1.91816 -0.0839376 0
M  V30 188 O 20.5422 -2.6767 -0.246228 0
M  V30 189 C 18.8132 -2.78517 2.23971 0
M  V30 190 S 20.3722 -3.6865 2.37997 0
M  V30 191 H 17.1902 -0.530639 0.473226 0
M  V30 192 H 19.7922 -0.915806 1.72723 0
M  V30 193 H 18.4962 -2.4952 3.25835 0
M  V30 194 H 18.0272 -3.46875 1.85584 0
M  V30 195 H 20.0422 -4.70182 1.58567 0
M  V30 196 N 19.2153 -1.21501 -1.00376 0
M  V30 197 C 20.4643 -1.02718 -1.73586 0
M  V30 198 C 20.7773 0.439589 -1.90596 0
M  V30 199 O 21.9833 0.746848 -2.61026 0
M  V30 200 C 20.4393 -1.78929 -3.1227 0
M  V30 201 C 20.0473 -3.29783 -3.03228 0
M  V30 202 C 21.7913 -1.68557 -3.89601 0
M  V30 203 C 19.6983 -3.98479 -4.36999 0
M  V30 204 H 18.6283 -0.380733 -0.650814 0
M  V30 205 H 21.2793 -1.45248 -1.1214 0
M  V30 206 H 19.6613 -1.29192 -3.74333 0
M  V30 207 H 20.8353 -3.86832 -2.50395 0
M  V30 208 H 19.1503 -3.40711 -2.39385 0
M  V30 209 H 21.7473 -2.17211 -4.88593 0
M  V30 210 H 22.0903 -0.644021 -4.11288 0
M  V30 211 H 22.6233 -2.15778 -3.34193 0
M  V30 212 H 19.3623 -5.02841 -4.20513 0
M  V30 213 H 18.8823 -3.46219 -4.89788 0
M  V30 214 H 20.5613 -4.03462 -5.05794 0
M  V30 215 N 20.6934 1.19889 -1.02296 0
M  V30 216 C 21.9394 1.89973 -0.726759 0
M  V30 217 C 22.2944 1.7776 0.73614 0
M  V30 218 O 21.5874 1.15523 1.52856 0
M  V30 219 C 21.7814 3.39883 -1.10518 0
M  V30 220 C 21.6104 3.66684 -2.60332 0
M  V30 221 C 20.3804 3.85045 -3.27213 0
M  V30 222 C 22.5784 3.68727 -3.58532 0
M  V30 223 N 20.5604 3.99422 -4.66192 0
M  V30 224 C 21.9314 3.88604 -4.83101 0
M  V30 225 C 23.9864 3.51722 -3.52414 0
M  V30 226 C 22.6894 3.9324 -6.02292 0
M  V30 227 C 24.7154 3.57632 -4.71013 0
M  V30 228 C 24.0774 3.77988 -5.94394 0
M  V30 229 H 20.1764 0.714551 -0.317712 0
M  V30 230 H 22.7604 1.44123 -1.30907 0
M  V30 231 H 20.9314 3.8447 -0.551142 0
M  V30 232 H 22.6634 3.97464 -0.761853 0
M  V30 233 H 19.4184 3.83689 -2.77632 0
M  V30 234 H 19.8424 4.10473 -5.38368 0
M  V30 235 H 24.4844 3.34945 -2.58015 0
M  V30 236 H 22.2024 4.08811 -6.97065 0
M  V30 237 H 25.7884 3.45773 -4.67902 0
M  V30 238 H 24.6684 3.82428 -6.8463 0
M  V30 239 N 22.1715 0.800033 1.35784 0
M  V30 240 C 23.1045 0.151499 2.27697 0
M  V30 241 C 24.0825 -0.678663 1.4776 0
M  V30 242 O 25.2665 -0.647358 1.77035 0
M  V30 243 C 22.3935 -0.790492 3.29346 0
M  V30 244 C 21.4395 -0.0407832 4.26481 0
M  V30 245 S 22.2725 1.29077 5.19711 0
M  V30 246 C 23.4285 0.353055 6.24903 0
M  V30 247 H 23.6615 0.930796 2.82353 0
M  V30 248 H 21.1945 0.594767 1.42485 0
M  V30 249 H 23.1525 -1.3285 3.88409 0
M  V30 250 H 21.8135 -1.54312 2.73581 0
M  V30 251 H 21.0065 -0.755971 4.98298 0
M  V30 252 H 20.6085 0.427063 3.71554 0
M  V30 253 H 22.9005 -0.464147 6.75908 0
M  V30 254 H 23.8435 1.04023 7.00418 0
M  V30 255 H 24.2515 -0.0483344 5.64479 0
M  V30 256 N 23.6496 -1.47581 0.552962 0
M  V30 257 C 24.8746 -2.07378 0.0300593 0
M  V30 258 C 25.2996 -1.40355 -1.25229 0
M  V30 259 O 24.6576 -0.477099 -1.7491 0
M  V30 260 C 24.7056 -3.60274 -0.153231 0
M  V30 261 O 23.8096 -3.94041 -1.21678 0
M  V30 262 H 23.1506 -0.662158 0.0494182 0
M  V30 263 H 25.6806 -1.89662 0.767434 0
M  V30 264 H 25.6906 -4.0633 -0.368761 0
M  V30 265 H 24.3656 -4.08455 0.783397 0
M  V30 266 H 22.9426 -3.59735 -0.982079 0
M  V30 267 N 25.1277 -0.289203 -1.54924 0
M  V30 268 C 26.0907 0.579144 -2.21762 0
M  V30 269 C 27.0907 1.07047 -1.1999 0
M  V30 270 O 28.2807 0.968384 -1.44803 0
M  V30 271 C 25.4127 1.80055 -2.8947 0
M  V30 272 H 26.6057 -0.00464908 -2.999 0
M  V30 273 H 24.1587 -0.0399306 -1.56249 0
M  V30 274 H 24.8937 2.42449 -2.15381 0
M  V30 275 H 24.6787 1.45602 -3.64064 0
M  V30 276 H 26.1687 2.41773 -3.40493 0
M  V30 277 N 26.6058 1.57591 -0.0167156 0
M  V30 278 C 27.5358 2.12496 0.967858 0
M  V30 279 C 28.5168 1.03807 1.34752 0
M  V30 280 O 29.7018 1.31577 1.42833 0
M  V30 281 C 26.8318 2.64194 2.25431 0
M  V30 282 C 25.7858 3.77559 2.01576 0
M  V30 283 C 25.1118 4.15636 3.36379 0
M  V30 284 C 26.4118 5.04151 1.36489 0
M  V30 285 H 28.1058 2.95013 0.510643 0
M  V30 286 H 25.6518 1.41915 0.244181 0
M  V30 287 H 27.6048 3.01236 2.94678 0
M  V30 288 H 26.3288 1.78821 2.73296 0
M  V30 289 H 24.9878 3.40937 1.34751 0
M  V30 290 H 24.6358 3.27263 3.81979 0
M  V30 291 H 24.3358 4.92022 3.21229 0
M  V30 292 H 25.8598 4.5525 4.06915 0
M  V30 293 H 27.2738 5.38857 1.95718 0
M  V30 294 H 25.6708 5.85453 1.31776 0
M  V30 295 H 26.7408 4.83733 0.336219 0
M  V30 296 N 28.0839 -0.256276 1.55502 0
M  V30 297 C 29.3309 -0.985619 1.76895 0
M  V30 298 C 29.6589 -1.85671 0.579355 0
M  V30 299 O 28.9139 -1.90744 -0.437651 0
M  V30 300 C 29.2129 -1.88432 3.03691 0
M  V30 301 C 28.8789 -1.16936 4.35473 0
M  V30 302 C 27.5409 -0.97173 4.71286 0
M  V30 303 C 29.8929 -0.661889 5.1698 0
M  V30 304 C 27.2209 -0.254179 5.86149 0
M  V30 305 C 29.5729 0.042149 6.32586 0
M  V30 306 C 28.2369 0.25134 6.67027 0
M  V30 307 H 27.5069 -0.360663 0.647304 0
M  V30 308 H 30.1539 -0.256483 1.89775 0
M  V30 309 H 28.4589 -2.68021 2.85783 0
M  V30 310 H 30.1559 -2.45015 3.1744 0
M  V30 311 H 26.7459 -1.33332 4.07333 0
M  V30 312 H 30.9299 -0.802145 4.89775 0
M  V30 313 H 26.1859 -0.0815408 6.11346 0
M  V30 314 H 30.3599 0.443049 6.94989 0
M  V30 315 H 27.9869 0.809314 7.5588 0
M  V30 316 N 29.562 -1.4872 -0.521534 0
M  V30 317 C 30.492 -1.66771 -1.63431 0
M  V30 318 C 31.473 -0.516499 -1.62069 0
M  V30 319 O 32.658 -0.750013 -1.79132 0
M  V30 320 C 29.788 -1.71515 -3.01993 0
M  V30 321 C 28.742 -2.86222 -3.18216 0
M  V30 322 C 28.068 -2.76061 -4.57924 0
M  V30 323 C 29.368 -4.27419 -3.00184 0
M  V30 324 H 31.062 -2.59932 -1.48579 0
M  V30 325 H 28.608 -1.25089 -0.713358 0
M  V30 326 H 30.561 -1.82731 -3.7972 0
M  V30 327 H 29.285 -0.749393 -3.17886 0
M  V30 328 H 27.944 -2.74575 -2.42908 0
M  V30 329 H 27.592 -1.77437 -4.70665 0
M  V30 330 H 27.292 -3.53037 -4.69722 0
M  V30 331 H 28.816 -2.89256 -5.37739 0
M  V30 332 H 30.23 -4.39855 -3.67697 0
M  V30 333 H 28.627 -5.05458 -3.2347 0
M  V30 334 H 29.697 -4.43293 -1.96518 0
M  V30 335 N 31.0401 0.771051 -1.3745 0
M  V30 336 C 32.2881 1.52661 -1.32435 0
M  V30 337 C 32.6091 1.9479 0.0905024 0
M  V30 338 O 31.8791 1.66348 1.03466 0
M  V30 339 H 30.4591 0.566218 -0.487244 0
M  V30 340 H 33.1211 0.917636 -1.71946 0
M  V30 341 H 32.2171 2.42568 -1.96385 0
M  V30 342 N 32.5182 1.22032 0.997298 0
M  V30 343 C 33.7642 1.04376 1.73878 0
M  V30 344 C 34.0972 -0.420716 1.89588 0
M  V30 345 O 33.3722 -1.31202 1.43583 0
M  V30 346 C 33.6552 1.75047 3.14691 0
M  V30 347 C 33.5082 3.29062 3.06656 0
M  V30 348 C 34.8272 1.49928 4.13775 0
M  V30 349 H 31.9462 0.380578 0.631133 0
M  V30 350 H 34.5882 1.50312 1.16217 0
M  V30 351 H 32.7382 1.35996 3.63919 0
M  V30 352 H 34.4102 3.7753 2.65083 0
M  V30 353 H 32.6532 3.58967 2.43568 0
M  V30 354 H 33.3242 3.73683 4.06282 0
M  V30 355 H 35.8002 1.83842 3.73285 0
M  V30 356 H 34.6762 2.01878 5.10428 0
M  V30 357 H 34.9372 0.430929 4.39995 0
M  V30 358 N 33.9963 -1.19345 1.0293 0
M  V30 359 C 35.2443 -1.88665 0.724574 0
M  V30 360 C 35.5653 -1.80036 -0.749144 0
M  V30 361 O 34.8353 -1.2111 -1.53978 0
M  V30 362 H 33.4153 -0.698406 0.265025 0
M  V30 363 H 36.0773 -1.44885 1.30362 0
M  V30 364 H 35.1733 -2.94987 1.01926 0
M  V30 365 N 35.4744 -0.807222 -1.35358 0
M  V30 366 C 36.7204 -0.388463 -1.99045 0
M  V30 367 C 37.0534 1.04184 -1.63888 0
M  V30 368 O 36.3284 1.72292 -0.902535 0
M  V30 369 C 36.6114 -0.572783 -3.55515 0
M  V30 370 C 36.4644 -2.04807 -4.00468 0
M  V30 371 C 37.7834 0.00114064 -4.401 0
M  V30 372 H 34.9024 -0.142619 -0.723069 0
M  V30 373 H 37.5444 -1.01687 -1.60498 0
M  V30 374 H 35.6944 -0.0378425 -3.88482 0
M  V30 375 H 37.3664 -2.64544 -3.77908 0
M  V30 376 H 35.6094 -2.54427 -3.51353 0
M  V30 377 H 36.2804 -2.12792 -5.09337 0
M  V30 378 H 38.7564 -0.455716 -4.13597 0
M  V30 379 H 37.6324 -0.157737 -5.48673 0
M  V30 380 H 37.8934 1.09488 -4.28328 0
M  V30 381 N 36.9525 1.47285 -0.560781 0
M  V30 382 C 38.3685 1.58065 -0.22081 0
M  V30 383 C 38.5685 1.55892 1.27671 0
M  V30 384 O 37.6245 1.46422 2.0571 0
M  V30 385 C 38.9375 2.88418 -0.850625 0
M  V30 386 C 40.4855 3.02009 -0.822184 0
M  V30 387 C 40.9605 4.35066 -1.43113 0
M  V30 388 N 42.4515 4.41711 -1.39448 0
M  V30 389 C 43.1865 5.43237 -1.83525 0
M  V30 390 N 42.6825 6.51555 -2.35474 0
M  V30 391 N 44.4755 5.34304 -1.74574 0
M  V30 392 H 36.6265 1.46941 -1.53369 0
M  V30 393 H 38.8895 0.699558 -0.639783 0
M  V30 394 H 38.5955 2.95755 -1.9032 0
M  V30 395 H 38.4695 3.75612 -0.345773 0
M  V30 396 H 40.8565 2.94266 0.221714 0
M  V30 397 H 40.9375 2.16347 -1.36483 0
M  V30 398 H 40.5815 4.43565 -2.47412 0
M  V30 399 H 40.5115 5.19465 -0.863899 0
M  V30 400 H 43.0025 3.64027 -1.01452 0
M  V30 401 H 43.3155 7.25203 -2.67021 0
M  V30 402 H 41.6605 6.52435 -2.39487 0
M  V30 403 H 44.8515 4.48581 -1.33763 0
M  V30 404 H 45.0245 6.13288 -2.09242 0
M  V30 405 N 38.4306 0.297415 1.54768 0
M  V30 406 C 39.3936 -0.567375 2.22066 0
M  V30 407 C 40.3936 -1.06409 1.20556 0
M  V30 408 O 41.5836 -0.960691 1.45315 0
M  V30 409 C 38.7156 -1.78517 2.90421 0
M  V30 410 H 39.9086 0.0205534 2.99893 0
M  V30 411 H 37.4616 0.0482163 1.56226 0
M  V30 412 H 38.1966 -2.41303 2.16664 0
M  V30 413 H 37.9816 -1.43669 3.64831 0
M  V30 414 H 39.4716 -2.39964 3.41771 0
M  V30 415 N 39.9087 -1.5758 0.0250728 0
M  V30 416 C 40.8187 -2.1343 -0.973905 0
M  V30 417 C 41.8347 -1.08556 -1.35984 0
M  V30 418 O 43.0107 -1.40592 -1.44207 0
M  V30 419 C 40.0757 -2.64703 -2.23904 0
M  V30 420 C 39.1367 -3.84276 -1.91391 0
M  V30 421 C 38.3697 -4.33095 -3.11873 0
M  V30 422 O 38.5927 -3.81107 -4.24398 0
M  V30 423 O 37.5267 -5.24984 -2.94406 0
M  V30 424 H 41.3527 -2.99057 -0.529036 0
M  V30 425 H 38.9377 -1.48118 -0.195288 0
M  V30 426 H 40.8197 -2.97769 -2.98181 0
M  V30 427 H 39.4947 -1.82161 -2.6758 0
M  V30 428 H 38.4017 -3.56143 -1.14511 0
M  V30 429 H 39.7347 -4.67968 -1.52534 0
M  V30 430 N 41.3868 0.248026 -1.55636 0
M  V30 431 C 42.2968 1.32859 -1.93354 0
M  V30 432 C 43.3128 1.52719 -0.833838 0
M  V30 433 O 44.4888 1.66363 -1.13513 0
M  V30 434 C 41.5538 2.66337 -2.21958 0
M  V30 435 C 40.6148 2.55008 -3.45354 0
M  V30 436 C 39.8478 3.82121 -3.72584 0
M  V30 437 O 40.0708 4.83951 -3.01907 0
M  V30 438 O 39.0048 3.80822 -4.6611 0
M  V30 439 H 42.8308 1.03862 -2.85388 0
M  V30 440 H 40.4158 0.448686 -1.42503 0
M  V30 441 H 42.2978 3.45216 -2.4167 0
M  V30 442 H 40.9728 2.95068 -1.33103 0
M  V30 443 H 39.8798 1.7442 -3.30951 0
M  V30 444 H 41.2128 2.31222 -4.34508 0
M  V30 445 N 42.8649 1.48995 0.513639 0
M  V30 446 C 43.8279 1.64229 1.59879 0
M  V30 447 C 44.8279 0.514696 1.5234 0
M  V30 448 O 46.0179 0.78087 1.55718 0
M  V30 449 C 43.1499 1.62783 2.99524 0
M  V30 450 H 44.3429 2.61004 1.47705 0
M  V30 451 H 41.8959 1.37837 0.736936 0
M  V30 452 H 42.6309 0.675461 3.17188 0
M  V30 453 H 42.4159 2.4466 3.06404 0
M  V30 454 H 43.9059 1.76669 3.78388 0
M  V30 455 N 44.343 -0.763751 1.37857 0
M  V30 456 C 45.591 -1.51957 1.33243 0
M  V30 457 C 45.912 -1.94835 -0.0801709 0
M  V30 458 O 45.182 -1.66894 -1.02582 0
M  V30 459 H 43.762 -0.563626 0.49024 0
M  V30 460 H 46.424 -0.908504 1.7243 0
M  V30 461 H 45.52 -2.41523 1.97669 0
M  V30 462 N 45.8211 -1.22559 -0.990812 0
M  V30 463 C 46.7841 -0.998863 -2.0629 0
M  V30 464 C 47.7841 0.0354834 -1.60761 0
M  V30 465 O 48.9741 -0.203231 -1.7301 0
M  V30 466 C 46.1061 -0.509203 -3.37076 0
M  V30 467 H 47.2991 -1.95014 -2.27837 0
M  V30 468 H 44.8521 -1.04456 -1.16269 0
M  V30 469 H 45.5871 0.446335 -3.21214 0
M  V30 470 H 45.3721 -1.25547 -3.71457 0
M  V30 471 H 46.8621 -0.370888 -4.1595 0
M  V30 472 N 47.2992 1.18797 -1.03562 0
M  V30 473 C 48.7152 1.40671 -0.753917 0
M  V30 474 C 48.9152 1.9043 0.658686 0
M  V30 475 O 47.9712 2.08538 1.42366 0
M  V30 476 C 49.2842 2.41192 -1.79574 0
M  V30 477 C 50.8322 2.54928 -1.81606 0
M  V30 478 C 51.3072 3.58709 -2.84766 0
M  V30 479 N 52.7982 3.66212 -2.83625 0
M  V30 480 C 53.5332 4.46225 -3.60098 0
M  V30 481 N 53.0292 5.29888 -4.46308 0
M  V30 482 N 54.8222 4.40939 -3.4861 0
M  V30 483 H 46.9732 0.848221 -1.94728 0
M  V30 484 H 49.2362 0.435081 -0.842264 0
M  V30 485 H 48.9422 2.11669 -2.80872 0
M  V30 486 H 48.8162 3.40467 -1.62365 0
M  V30 487 H 51.2032 2.83771 -0.809817 0
M  V30 488 H 51.2842 1.55784 -2.02891 0
M  V30 489 H 50.9282 3.30607 -3.85566 0
M  V30 490 H 50.8582 4.57519 -2.60737 0
M  V30 491 H 53.3492 3.06466 -2.21105 0
M  V30 492 H 53.6622 5.88078 -5.01382 0
M  V30 493 H 52.0072 5.29326 -4.50377 0
M  V30 494 H 55.1982 3.74624 -2.80668 0
M  V30 495 H 55.3712 5.03056 -4.08459 0
M  V30 496 N 48.7773 0.814389 1.34928 0
M  V30 497 C 50.0233 0.399013 1.98836 0
M  V30 498 C 50.3563 -1.03314 1.64438 0
M  V30 499 O 49.6313 -1.71811 0.911659 0
M  V30 500 C 49.9143 0.591629 3.55207 0
M  V30 501 C 49.7673 2.06928 3.99376 0
M  V30 502 C 51.0863 0.022199 4.40094 0
M  V30 503 H 48.2053 0.146451 0.722303 0
M  V30 504 H 50.8473 1.02537 1.59957 0
M  V30 505 H 48.9973 0.0584441 3.88456 0
M  V30 506 H 50.6693 2.66544 3.76499 0
M  V30 507 H 48.9123 2.56287 3.49999 0
M  V30 508 H 49.5833 2.1549 5.08201 0
M  V30 509 H 52.0593 0.477643 4.13349 0
M  V30 510 H 50.9353 0.186832 5.48582 0
M  V30 511 H 51.1963 -1.07215 4.28902 0
M  V30 512 N 50.2554 -1.46986 0.568584 0
M  V30 513 C 51.1874 -2.28233 -0.210337 0
M  V30 514 C 52.2004 -1.37682 -0.868767 0
M  V30 515 O 53.3894 -1.62406 -0.740705 0
M  V30 516 C 50.4894 -3.12293 -1.3163 0
M  V30 517 C 49.6624 -4.30878 -0.7525 0
M  V30 518 C 48.7214 -4.96445 -1.74439 0
M  V30 519 O 47.7474 -5.54482 -1.286 0
M  V30 520 N 48.9494 -4.92171 -3.07812 0
M  V30 521 H 51.7144 -2.95723 0.486648 0
M  V30 522 H 49.2754 -1.56742 0.405409 0
M  V30 523 H 51.2674 -3.53022 -1.97883 0
M  V30 524 H 49.8374 -2.46971 -1.91636 0
M  V30 525 H 49.0574 -3.94104 0.0871128 0
M  V30 526 H 50.3454 -5.07558 -0.35536 0
M  V30 527 H 49.7434 -4.46239 -3.47688 0
M  V30 528 H 48.3004 -5.36884 -3.69592 0
M  V30 529 N 51.7335 -0.305618 -1.54608 0
M  V30 530 C 52.6655 0.602161 -2.21149 0
M  V30 531 C 53.6785 1.09394 -1.20569 0
M  V30 532 O 54.8675 1.0106 -1.47136 0
M  V30 533 C 51.9675 1.83692 -2.84799 0
M  V30 534 C 51.1405 1.48686 -4.11353 0
M  V30 535 C 50.1995 2.57725 -4.58764 0
M  V30 536 O 49.2255 2.22623 -5.23858 0
M  V30 537 N 50.4275 3.88346 -4.31471 0
M  V30 538 H 53.1925 0.0324966 -2.99682 0
M  V30 539 H 50.7535 -0.128021 -1.61393 0
M  V30 540 H 52.7455 2.55994 -3.13448 0
M  V30 541 H 51.3155 2.31486 -2.10078 0
M  V30 542 H 50.5355 0.596269 -3.89664 0
M  V30 543 H 51.8235 1.22842 -4.93748 0
M  V30 544 H 51.2215 4.19671 -3.79331 0
M  V30 545 H 49.7785 4.56932 -4.64818 0
M  V30 546 N 53.2116 1.57565 -0.0334293 0
M  V30 547 C 54.1596 2.1164 0.96496 0
M  V30 548 C 55.1536 1.04398 1.33407 0
M  V30 549 O 56.3596 1.22828 1.3158 0
M  V30 550 H 52.7346 0.676222 0.32898 0
M  V30 551 H 54.7056 2.94455 0.483614 0
M  V30 552 C 53.4546 2.66207 2.23672 0
M  V30 553 H 52.7776 3.48378 1.96145 0
M  V30 554 H 54.2176 3.07685 2.9173 0
M  V30 555 C 52.6766 1.59151 2.96939 0
M  V30 556 O 53.2066 0.993858 3.89211 0
M  V30 557 N 51.4126 1.31093 2.59351 0
M  V30 558 H 50.9596 1.7988 1.84393 0
M  V30 559 H 50.9176 0.596889 3.08682 0
M  V30 560 N 54.6897 -0.239769 1.55765 0
M  V30 561 C 55.9357 -0.968234 1.78194 0
M  V30 562 C 56.2687 -1.84701 0.599938 0
M  V30 563 O 55.5437 -1.9031 -0.401524 0
M  V30 564 C 55.8267 -1.8227 3.10564 0
M  V30 565 C 55.6797 -0.971633 4.3918 0
M  V30 566 C 56.9987 -2.80388 3.39221 0
M  V30 567 H 54.1177 -0.350572 0.648281 0
M  V30 568 H 56.7597 -0.238259 1.885 0
M  V30 569 H 54.9097 -2.44507 3.01908 0
M  V30 570 H 56.5817 -0.367408 4.59835 0
M  V30 571 H 54.8247 -0.276276 4.32919 0
M  V30 572 H 55.4957 -1.60346 5.28198 0
M  V30 573 H 57.9717 -2.28287 3.47885 0
M  V30 574 H 56.8477 -3.3729 4.33044 0
M  V30 575 H 57.1087 -3.57212 2.60484 0
M  V30 576 N 56.1678 -1.49265 -0.50573 0
M  V30 577 C 57.5788 -1.51769 -1.08734 0
M  V30 578 C 57.9298 -0.301192 -1.93874 0
M  V30 579 O 57.0548 0.589456 -2.08217 0
M  V30 580 C 57.6498 -2.75017 -1.97867 0
M  V30 581 C 56.2088 -2.80314 -2.51199 0
M  V30 582 C 55.3558 -2.4562 -1.28709 0
M  V30 583 H 58.3068 -1.56031 -0.289855 0
M  V30 584 H 58.3278 -2.5491 -2.82491 0
M  V30 585 H 57.8398 -3.63539 -1.35873 0
M  V30 586 H 55.9408 -1.96061 -3.16845 0
M  V30 587 H 56.0538 -3.82366 -2.88675 0
M  V30 588 H 54.4178 -1.97297 -1.61078 0
M  V30 589 H 55.2008 -3.36411 -0.6843 0
M  V30 590 N 57.6459 0.756429 -1.3826 0
M  V30 591 C 58.8709 1.55077 -1.37717 0
M  V30 592 C 59.2959 1.88073 0.03164 0
M  V30 593 O 58.6539 1.50364 1.01293 0
M  V30 594 C 58.7019 2.8283 -2.23695 0
M  V30 595 O 57.8059 3.77862 -1.6521 0
M  V30 596 H 57.1469 0.469152 -0.469885 0
M  V30 597 H 59.6769 0.935019 -1.81985 0
M  V30 598 H 59.6869 3.31783 -2.37453 0
M  V30 599 H 58.3619 2.58144 -3.2609 0
M  V30 600 H 56.9389 3.36555 -1.60578 0
M  V30 601 N 59.124 1.23083 0.984299 0
M  V30 602 C 60.372 1.05848 1.72165 0
M  V30 603 C 60.693 -0.406049 1.90726 0
M  V30 604 O 59.963 -1.29139 1.47309 0
M  V30 605 H 58.543 0.388685 0.637913 0
M  V30 606 H 61.205 1.54736 1.18503 0
M  V30 607 H 60.301 1.54327 2.71274 0
M  V30 608 N 60.6021 -1.18246 1.0419 0
M  V30 609 C 61.8301 -1.92195 0.766072 0
M  V30 610 C 62.2451 -1.76247 -0.676933 0
M  V30 611 O 61.6021 -1.09293 -1.46155 0
M  V30 612 C 61.6531 -3.43568 1.12442 0
M  V30 613 O 61.3741 -3.59015 2.51078 0
M  V30 614 C 62.8751 -4.34613 0.873275 0
M  V30 615 H 60.0951 -0.610114 0.279288 0
M  V30 616 H 62.6391 -1.50007 1.38989 0
M  V30 617 H 60.7941 -3.8354 0.545542 0
M  V30 618 H 61.2081 -4.5273 2.64831 0
M  V30 619 H 62.6821 -5.39374 1.17385 0
M  V30 620 H 63.1591 -4.38781 -0.191909 0
M  V30 621 H 63.7651 -4.00341 1.43551 0
M  V30 622 N 62.0802 -0.821533 -1.34494 0
M  V30 623 C 63.3572 -0.33159 -1.92769 0
M  V30 624 C 63.7372 1.18088 -1.74981 0
M  V30 625 O 63.0852 1.98733 -1.12772 0
M  V30 626 C 63.2952 -0.759398 -3.40638 0
M  V30 627 C 64.6432 -0.757433 -4.1779 0
M  V30 628 O 65.6672 -0.70189 -3.49216 0
M  V30 629 O 64.5262 -0.829361 -5.4017 0
M  V30 630 H 61.6202 -0.0902502 -0.822061 0
M  V30 631 H 64.1662 -0.906231 -1.43477 0
M  V30 632 H 62.9382 -1.8012 -3.47379 0
M  V30 633 H 62.5612 -0.160378 -3.97276 0
M  V30 634 N 63.5583 1.46682 -0.576371 0
M  V30 635 C 64.7863 2.06798 -0.0649635 0
M  V30 636 C 65.2013 1.42612 1.23723 0
M  V30 637 O 64.5583 0.529203 1.74659 0
M  V30 638 C 64.6093 3.6132 0.114202 0
M  V30 639 O 64.3303 4.23104 -1.13644 0
M  V30 640 C 65.8313 4.38349 0.66069 0
M  V30 641 H 63.0513 0.668778 -0.0545616 0
M  V30 642 H 65.5953 1.88404 -0.795237 0
M  V30 643 H 63.7503 3.79162 0.794673 0
M  V30 644 H 64.1643 5.15894 -0.946253 0
M  V30 645 H 65.6383 5.47081 0.73526 0
M  V30 646 H 66.1153 4.05953 1.67627 0
M  V30 647 H 66.7213 4.25297 0.0152951 0
M  V30 648 N 65.0364 0.313813 1.54444 0
M  V30 649 C 66.2844 -0.291099 1.99993 0
M  V30 650 C 66.6054 -1.53418 1.20366 0
M  V30 651 O 65.8754 -1.93544 0.302927 0
M  V30 652 H 64.4554 -0.110552 0.738774 0
M  V30 653 H 67.1174 0.428106 1.9014 0
M  V30 654 H 66.2134 -0.554268 3.07139 0
M  V30 655 N 66.5145 -1.57545 0.0417849 0
M  V30 656 C 67.7915 -1.83642 -0.673433 0
M  V30 657 C 68.1715 -0.928298 -1.89594 0
M  V30 658 O 67.5195 0.0129955 -2.28496 0
M  V30 659 C 67.7295 -3.33155 -1.03964 0
M  V30 660 C 69.0775 -3.99941 -1.42592 0
M  V30 661 O 70.1015 -3.37725 -1.13226 0
M  V30 662 O 68.9605 -5.09619 -1.9736 0
M  V30 663 H 66.0545 -0.757638 -0.331533 0
M  V30 664 H 68.6005 -1.69554 0.070433 0
M  V30 665 H 67.3725 -3.9093 -0.170098 0
M  V30 666 H 66.9955 -3.52396 -1.84126 0
M  V30 667 N 67.9926 0.231505 -1.5589 0
M  V30 668 C 69.4036 0.799327 -1.68724 0
M  V30 669 C 69.7546 1.85398 -0.642022 0
M  V30 670 O 68.8796 2.1539 0.208784 0
M  V30 671 C 69.4746 1.45664 -3.05888 0
M  V30 672 C 68.0336 1.97197 -3.20609 0
M  V30 673 C 67.1806 0.828552 -2.64632 0
M  V30 674 H 70.1316 0.00702616 -1.58698 0
M  V30 675 H 70.1526 2.32517 -3.01191 0
M  V30 676 H 69.6646 0.688808 -3.81939 0
M  V30 677 H 67.7656 2.76813 -2.4941 0
M  V30 678 H 67.8786 2.15878 -4.27707 0
M  V30 679 H 66.2426 1.23321 -2.22854 0
M  V30 680 H 67.0256 0.0735544 -3.43221 0
M  V30 681 N 69.4707 1.49531 0.497807 0
M  V30 682 C 70.4027 1.62559 1.61578 0
M  V30 683 C 71.4157 0.508134 1.54667 0
M  V30 684 O 72.6047 0.780309 1.60541 0
M  V30 685 C 69.7047 1.56925 3.00379 0
M  V30 686 C 68.8777 2.84257 3.3244 0
M  V30 687 C 67.9367 2.71632 4.50669 0
M  V30 688 O 66.9627 3.4557 4.52294 0
M  V30 689 N 68.1647 1.83391 5.5077 0
M  V30 690 H 70.9297 2.58981 1.50828 0
M  V30 691 H 68.4907 1.4666 0.685743 0
M  V30 692 H 70.4827 1.46129 3.77397 0
M  V30 693 H 69.0527 0.683483 3.05037 0
M  V30 694 H 68.2727 3.09381 2.44289 0
M  V30 695 H 69.5607 3.68666 3.5066 0
M  V30 696 H 68.9587 1.22583 5.52259 0
M  V30 697 H 67.5157 1.78515 6.26878 0
M  V30 698 N 70.9488 -0.749086 1.3866 0
M  V30 699 C 72.1738 -1.54344 1.38538 0
M  V30 700 C 72.5988 -1.88088 -0.0216655 0
M  V30 701 O 71.9568 -1.50899 -1.00494 0
M  V30 702 C 72.0048 -2.8164 2.25192 0
M  V30 703 O 71.1088 -3.7698 1.67212 0
M  V30 704 H 70.4498 -0.466654 0.472367 0
M  V30 705 H 72.9798 -0.925355 1.82478 0
M  V30 706 H 72.9898 -3.30519 2.3921 0
M  V30 707 H 71.6648 -2.56411 3.27454 0
M  V30 708 H 70.2418 -3.35699 1.6236 0
M  V30 709 N 72.4269 -1.23603 -0.977757 0
M  V30 710 C 73.3739 -1.01954 -2.07061 0
M  V30 711 C 74.3439 0.0638697 -1.65977 0
M  V30 712 O 75.5289 -0.0887624 -1.90593 0
M  V30 713 C 72.6689 -0.619658 -3.39491 0
M  V30 714 C 71.7819 -1.77547 -3.93829 0
M  V30 715 C 70.9169 -1.32212 -5.14484 0
M  V30 716 C 69.9559 -2.44852 -5.60994 0
M  V30 717 N 69.0929 -2.00456 -6.72876 0
M  V30 718 H 73.9329 -1.95495 -2.24913 0
M  V30 719 H 71.4699 -0.973861 -1.10247 0
M  V30 720 H 73.4279 -0.368898 -4.15566 0
M  V30 721 H 72.0579 0.278752 -3.21594 0
M  V30 722 H 71.1099 -2.14016 -3.14486 0
M  V30 723 H 72.4219 -2.62219 -4.24314 0
M  V30 724 H 71.5759 -1.02965 -5.97899 0
M  V30 725 H 70.3149 -0.445808 -4.85658 0
M  V30 726 H 69.3199 -2.74871 -4.76157 0
M  V30 727 H 70.5449 -3.33024 -5.91837 0
M  V30 728 H 68.4909 -1.15208 -6.45804 0
M  V30 729 H 68.4079 -2.78687 -7.02759 0
M  V30 730 H 69.6759 -1.7432 -7.59758 0
M  V30 731 N 73.905 1.17692 -1.04816 0
M  V30 732 C 75.316 1.69501 -0.782698 0
M  V30 733 C 75.667 1.83456 0.695577 0
M  V30 734 O 74.792 1.51942 1.54086 0
M  V30 735 C 75.387 3.07874 -1.41419 0
M  V30 736 C 73.946 3.56864 -1.19686 0
M  V30 737 C 73.093 2.3322 -1.50012 0
M  V30 738 H 76.044 1.02262 -1.2136 0
M  V30 739 H 76.065 3.71528 -0.821428 0
M  V30 740 H 75.577 2.97685 -2.49009 0
M  V30 741 H 73.678 3.72337 -0.140043 0
M  V30 742 H 73.791 4.39851 -1.89916 0
M  V30 743 H 72.155 2.37501 -0.920071 0
M  V30 744 H 72.938 2.25644 -2.58727 0
M  V30 745 N 75.3831 0.828654 1.34056 0
M  V30 746 C 76.3131 0.269443 2.3194 0
M  V30 747 C 77.2941 -0.617247 1.58506 0
M  V30 748 O 78.4791 -0.542931 1.86456 0
M  V30 749 C 75.6091 -0.564793 3.42677 0
M  V30 750 C 74.5631 0.225241 4.27407 0
M  V30 751 C 73.8891 -0.7321 5.29664 0
M  V30 752 C 75.1891 1.43663 5.02154 0
M  V30 753 H 76.8831 1.08728 2.7896 0
M  V30 754 H 74.4291 0.524283 1.34117 0
M  V30 755 H 76.3821 -0.966233 4.10173 0
M  V30 756 H 75.1061 -1.41574 2.9432 0
M  V30 757 H 73.7651 0.608117 3.61521 0
M  V30 758 H 73.4131 -1.57916 4.77568 0
M  V30 759 H 73.1131 -0.20767 5.87233 0
M  V30 760 H 74.6371 -1.13128 6.00029 0
M  V30 761 H 76.0511 1.1089 5.62473 0
M  V30 762 H 74.4481 1.89711 5.69324 0
M  V30 763 H 75.5181 2.21181 4.31517 0
M  V30 764 N 76.8612 -1.46375 0.584142 0
M  V30 765 C 78.1092 -2.01978 0.0701287 0
M  V30 766 C 78.4302 -1.4579 -1.295 0
M  V30 767 O 77.7002 -0.64314 -1.85042 0
M  V30 768 H 76.2802 -0.746648 0.0229345 0
M  V30 769 H 78.9422 -1.79461 0.760245 0
M  V30 770 H 78.0382 -3.121 0.0022064 0
M  V30 771 N 78.3393 -0.321999 -1.54275 0
M  V30 772 C 79.6163 0.335232 -1.92706 0
M  V30 773 C 79.9963 1.70006 -1.25145 0
M  V30 774 O 79.3443 2.25067 -0.394596 0
M  V30 775 C 79.5543 0.429008 -3.46353 0
M  V30 776 C 80.9023 0.690029 -4.18956 0
M  V30 777 O 81.9263 0.511992 -3.52501 0
M  V30 778 O 80.7853 1.03338 -5.36641 0
M  V30 779 H 77.8793 0.191143 -0.804608 0
M  V30 780 H 80.4253 -0.3716 -1.65581 0
M  V30 781 H 79.1973 -0.529611 -3.87699 0
M  V30 782 H 78.8203 1.18348 -3.79578 0
M  V30 783 N 79.8174 1.5752 -0.0501392 0
M  V30 784 C 81.0634 1.93755 0.618901 0
M  V30 785 C 81.4184 0.928514 1.68512 0
M  V30 786 O 80.7114 -0.0524613 1.91528 0
M  V30 787 C 80.9054 3.34467 1.25963 0
M  V30 788 C 80.7344 4.48965 0.257 0
M  V30 789 C 79.5044 5.05075 -0.150656 0
M  V30 790 C 81.7024 5.11891 -0.497166 0
M  V30 791 N 79.6844 6.03104 -1.14626 0
M  V30 792 C 81.0554 6.05216 -1.34588 0
M  V30 793 C 83.1104 4.9479 -0.55559 0
M  V30 794 C 81.8134 6.83277 -2.24778 0
M  V30 795 C 83.8394 5.73477 -1.44492 0
M  V30 796 C 83.2014 6.66433 -2.28136 0
M  V30 797 H 79.3004 0.756479 0.198149 0
M  V30 798 H 81.8844 1.94316 -0.122229 0
M  V30 799 H 80.0554 3.34685 1.97079 0
M  V30 800 H 81.7874 3.57994 1.88739 0
M  V30 801 H 78.5424 4.7305 0.228094 0
M  V30 802 H 78.9664 6.56813 -1.64092 0
M  V30 803 H 83.6084 4.2273 0.0768625 0
M  V30 804 H 81.3264 7.54629 -2.89069 0
M  V30 805 H 84.9124 5.62273 -1.49468 0
M  V30 806 H 83.7924 7.26258 -2.95835 0
M  V30 807 N 81.2955 -0.223234 1.56011 0
M  V30 808 C 82.2585 -1.26014 1.9145 0
M  V30 809 C 83.2585 -1.3989 0.792937 0
M  V30 810 O 84.4485 -1.38184 1.0607 0
M  V30 811 C 81.5805 -2.63422 2.16383 0
M  V30 812 H 82.7735 -0.95796 2.84189 0
M  V30 813 H 80.3265 -0.463576 1.49267 0
M  V30 814 H 81.0615 -2.98741 1.2619 0
M  V30 815 H 80.8465 -2.54728 2.98088 0
M  V30 816 H 82.3365 -3.38249 2.44903 0
M  V30 817 N 82.7736 -1.49793 -0.48987 0
M  V30 818 C 83.7366 -1.66752 -1.57246 0
M  V30 819 C 84.7366 -0.538867 -1.51502 0
M  V30 820 O 85.9266 -0.805545 -1.54456 0
M  V30 821 C 83.0586 -1.67528 -2.96896 0
M  V30 822 H 84.2516 -2.63321 -1.43534 0
M  V30 823 H 81.8046 -1.38992 -0.714914 0
M  V30 824 H 82.5396 -0.725837 -3.16073 0
M  V30 825 H 82.3246 -2.49504 -3.02473 0
M  V30 826 H 83.8146 -1.82667 -3.7553 0
M  V30 827 N 84.2517 0.741722 -1.39055 0
M  V30 828 C 85.4997 1.49818 -1.35643 0
M  V30 829 C 85.8207 1.94938 0.0491642 0
M  V30 830 O 85.0907 1.68505 0.999141 0
M  V30 831 H 83.6707 0.555755 -0.499144 0
M  V30 832 H 86.3327 0.880957 -1.73854 0
M  V30 833 H 85.4287 2.38348 -2.01486 0
M  V30 834 N 85.7298 1.2412 0.971189 0
M  V30 835 C 86.9578 1.10575 1.74874 0
M  V30 836 C 87.3728 -0.342017 1.85676 0
M  V30 837 O 86.7298 -1.23617 1.34258 0
M  V30 838 C 86.7808 1.73579 3.171 0
M  V30 839 O 86.5018 3.12695 3.06844 0
M  V30 840 C 88.0028 1.65598 4.11208 0
M  V30 841 H 85.2228 0.386504 0.548503 0
M  V30 842 H 87.7668 1.64156 1.21955 0
M  V30 843 H 85.9218 1.24009 3.67016 0
M  V30 844 H 86.3358 3.43412 3.96445 0
M  V30 845 H 87.8098 2.1437 5.08674 0
M  V30 846 H 88.2868 0.616532 4.34851 0
M  V30 847 H 88.8928 2.14578 3.67201 0
M  V30 848 N 87.2079 -1.17134 1.05439 0
M  V30 849 C 88.1409 -2.2012 0.601855 0
M  V30 850 C 89.1189 -1.58314 -0.370854 0
M  V30 851 O 90.3029 -1.8638 -0.281882 0
M  V30 852 C 87.4299 -3.38491 -0.118868 0
M  V30 853 C 86.4759 -4.18752 0.809242 0
M  V30 854 S 87.3089 -4.83602 2.29977 0
M  V30 855 C 88.4649 -6.0536 1.59029 0
M  V30 856 H 88.6979 -2.58165 1.47438 0
M  V30 857 H 86.2309 -1.27788 0.866573 0
M  V30 858 H 88.1889 -4.07084 -0.528495 0
M  V30 859 H 86.8499 -2.98829 -0.967465 0
M  V30 860 H 86.0429 -5.03373 0.251379 0
M  V30 861 H 85.6449 -3.5561 1.15835 0
M  V30 862 H 87.9369 -6.71615 0.891017 0
M  V30 863 H 88.8799 -6.65679 2.41407 0
M  V30 864 H 89.2879 -5.54138 1.07663 0
M  V30 865 N 88.686 -0.835752 -1.33615 0
M  V30 866 C 89.963 -0.352017 -1.92406 0
M  V30 867 C 90.343 1.16225 -1.76224 0
M  V30 868 O 89.691 1.97526 -1.14873 0
M  V30 869 C 89.901 -0.795485 -3.39813 0
M  V30 870 C 91.249 -0.801703 -4.16963 0
M  V30 871 O 92.273 -0.738889 -3.48452 0
M  V30 872 O 91.132 -0.886607 -5.3926 0
M  V30 873 H 88.226 -0.0989641 -0.821057 0
M  V30 874 H 90.772 -0.921397 -1.42507 0
M  V30 875 H 89.544 -1.83795 -3.45449 0
M  V30 876 H 89.167 -0.202505 -3.97084 0
M  V30 877 N 90.1641 1.46063 -0.591896 0
M  V30 878 C 91.5751 1.85944 -0.167822 0
M  V30 879 C 91.9261 1.49429 1.27143 0
M  V30 880 O 91.0511 0.913515 1.96173 0
M  V30 881 C 91.6461 3.37489 -0.297794 0
M  V30 882 C 90.2051 3.76332 0.0714732 0
M  V30 883 C 89.3521 2.7006 -0.629509 0
M  V30 884 H 92.3031 1.37087 -0.799555 0
M  V30 885 H 92.3241 3.77532 0.474349 0
M  V30 886 H 91.8361 3.64034 -1.3454 0
M  V30 887 H 89.9371 3.55405 1.11886 0
M  V30 888 H 90.0501 4.78088 -0.311245 0
M  V30 889 H 88.4141 2.54607 -0.0687867 0
M  V30 890 H 89.1971 2.99444 -1.67894 0
M  V30 891 N 91.6422 0.330177 1.54103 0
M  V30 892 C 92.5522 -0.541534 2.28264 0
M  V30 893 C 93.5682 -1.12351 1.32866 0
M  V30 894 O 94.7442 -1.14206 1.65888 0
M  V30 895 C 91.8092 -1.68322 3.03098 0
M  V30 896 C 90.8702 -1.13238 4.14096 0
M  V30 897 C 90.1032 -2.21966 4.85352 0
M  V30 898 O 90.3262 -3.42437 4.56172 0
M  V30 899 O 89.2602 -1.87013 5.7211 0
M  V30 900 H 93.0862 0.060938 3.03639 0
M  V30 901 H 90.6712 0.09565 1.49093 0
M  V30 902 H 92.5532 -2.34777 3.49939 0
M  V30 903 H 91.2282 -2.27176 2.30593 0
M  V30 904 H 90.1352 -0.432736 3.71589 0
M  V30 905 H 91.4682 -0.588898 4.88664 0
M  V30 906 N 93.1203 -1.57491 0.0584922 0
M  V30 907 C 94.3453 -1.97711 -0.62652 0
M  V30 908 C 94.7703 -0.936132 -1.63151 0
M  V30 909 O 94.1283 0.099811 -1.81025 0
M  V30 910 C 94.1763 -3.36989 -1.28338 0
M  V30 911 O 93.2803 -3.35433 -2.39913 0
M  V30 912 H 92.6213 -0.643868 -0.162266 0
M  V30 913 H 95.1513 -2.04193 0.129064 0
M  V30 914 H 95.1613 -3.73879 -1.63335 0
M  V30 915 H 93.8363 -4.12289 -0.546889 0
M  V30 916 H 92.4133 -3.10298 -2.06809 0
M  V30 917 N 94.5984 0.214957 -1.56127 0
M  V30 918 C 95.8234 0.95924 -1.83884 0
M  V30 919 C 96.2484 1.7689 -0.639644 0
M  V30 920 O 95.6064 1.76566 0.411601 0
M  V30 921 C 95.6544 1.84723 -3.09693 0
M  V30 922 O 94.7584 2.94346 -2.8885 0
M  V30 923 H 94.0994 0.27125 -0.606069 0
M  V30 924 H 96.6294 0.226276 -2.03345 0
M  V30 925 H 96.6394 2.25576 -3.39969 0
M  V30 926 H 95.3144 1.25218 -3.96602 0
M  V30 927 H 93.8914 2.57391 -2.69823 0
M  V30 928 N 96.0765 1.50051 0.48192 0
M  V30 929 C 97.3255 1.59741 1.23149 0
M  V30 930 C 97.6385 0.298163 1.93314 0
M  V30 931 O 98.8445 0.273835 2.70116 0
M  V30 932 C 97.3005 2.81926 2.23708 0
M  V30 933 C 96.9085 4.18685 1.59396 0
M  V30 934 C 98.6525 3.00956 2.99375 0
M  V30 935 C 96.5595 5.3207 2.58178 0
M  V30 936 H 95.4895 0.594838 0.46334 0
M  V30 937 H 98.1405 1.76467 0.503169 0
M  V30 938 H 96.5225 2.58736 2.99786 0
M  V30 939 H 97.6965 4.52088 0.891811 0
M  V30 940 H 96.0115 4.05171 0.960503 0
M  V30 941 H 98.6085 3.82836 3.73283 0
M  V30 942 H 98.9515 2.12258 3.58123 0
M  V30 943 H 99.4845 3.24277 2.30411 0
M  V30 944 H 96.2235 6.22888 2.04184 0
M  V30 945 H 95.7435 5.03098 3.26577 0
M  V30 946 H 97.4225 5.62196 3.20225 0
M  V30 947 N 97.5546 -0.734337 1.39446 0
M  V30 948 C 98.8016 -1.49391 1.36706 0
M  V30 949 C 99.1296 -1.94465 -0.0367813 0
M  V30 950 O 98.3846 -1.67154 -1.01774 0
M  V30 951 C 98.6836 -2.74711 2.28623 0
M  V30 952 C 98.3496 -2.48501 3.76242 0
M  V30 953 C 97.0116 -2.41062 4.16464 0
M  V30 954 C 99.3636 -2.26098 4.69606 0
M  V30 955 C 96.6916 -2.09262 5.48112 0
M  V30 956 C 99.0436 -1.95814 6.01531 0
M  V30 957 C 97.7076 -1.86845 6.40816 0
M  V30 958 H 96.9776 -0.546661 0.500243 0
M  V30 959 H 99.6246 -0.842788 1.71957 0
M  V30 960 H 97.9296 -3.44569 1.86492 0
M  V30 961 H 99.6266 -3.32741 2.23796 0
M  V30 962 H 96.2166 -2.55169 3.44364 0
M  V30 963 H 100.401 -2.30812 4.39363 0
M  V30 964 H 95.6566 -2.00841 5.77471 0
M  V30 965 H 99.8306 -1.77488 6.73403 0
M  V30 966 H 97.4576 -1.6197 7.42745 0
M  V30 967 N 99.0327 -1.24633 -0.964593 0
M  V30 968 C 100.282 -1.08188 -1.7023 0
M  V30 969 C 100.595 0.37873 -1.91898 0
M  V30 970 O 101.801 0.663427 -2.6327 0
M  V30 971 C 100.257 -1.88773 -3.06419 0
M  V30 972 C 99.8647 -3.39263 -2.92582 0
M  V30 973 C 101.609 -1.80867 -3.84041 0
M  V30 974 C 99.5157 -4.1218 -4.24101 0
M  V30 975 H 98.4457 -0.401245 -0.638372 0
M  V30 976 H 101.097 -1.48742 -1.07462 0
M  V30 977 H 99.4787 -1.41035 -3.70034 0
M  V30 978 H 100.653 -3.94603 -2.37961 0
M  V30 979 H 98.9677 -3.48154 -2.28424 0
M  V30 980 H 101.565 -2.32646 -4.81435 0
M  V30 981 H 101.908 -0.774543 -4.09031 0
M  V30 982 H 102.441 -2.26301 -3.27159 0
M  V30 983 H 99.1797 -5.15965 -4.04303 0
M  V30 984 H 98.6997 -3.61626 -4.78526 0
M  V30 985 H 100.379 -4.19349 -4.92702 0
M  V30 986 N 100.511 1.16574 -1.06058 0
M  V30 987 C 101.421 2.2452 -0.680282 0
M  V30 988 C 102.437 1.71348 0.302604 0
M  V30 989 O 103.613 2.00822 0.152513 0
M  V30 990 C 100.678 3.46629 -0.0700315 0
M  V30 991 C 99.7388 4.14849 -1.10448 0
M  V30 992 C 98.9718 5.31129 -0.523256 0
M  V30 993 O 99.1948 5.66514 0.664709 0
M  V30 994 O 98.1288 5.88526 -1.26179 0
M  V30 995 H 101.955 2.59355 -1.58015 0
M  V30 996 H 99.5398 1.24043 -0.832694 0
M  V30 997 H 101.422 4.20543 0.268667 0
M  V30 998 H 100.097 3.13573 0.803353 0
M  V30 999 H 99.0038 3.42916 -1.49532 0
M  V30 1000 H 100.337 4.51954 -1.94931 0
M  V30 1001 N 101.989 0.842826 1.3317 0
M  V30 1002 C 103.266 0.362216 1.92217 0
M  V30 1003 C 103.646 -1.15289 1.76838 0
M  V30 1004 O 102.994 -1.96914 1.15919 0
M  V30 1005 C 103.204 0.813495 3.39387 0
M  V30 1006 C 104.552 0.823804 4.16532 0
M  V30 1007 O 105.576 0.757358 3.48055 0
M  V30 1008 O 104.435 0.915193 5.38782 0
M  V30 1009 H 101.529 0.103317 0.820521 0
M  V30 1010 H 104.075 0.928942 1.42017 0
M  V30 1011 H 102.847 1.85624 3.4447 0
M  V30 1012 H 102.47 0.223561 3.96971 0
M  V30 1013 N 103.467 -1.45747 0.599634 0
M  V30 1014 C 104.43 -2.28917 -0.113835 0
M  V30 1015 C 105.43 -1.3933 -0.802729 0
M  V30 1016 O 106.62 -1.61534 -0.652103 0
M  V30 1017 C 103.752 -3.20152 -1.17114 0
M  V30 1018 H 104.945 -2.93478 0.617289 0
M  V30 1019 H 102.498 -1.52137 0.358327 0
M  V30 1020 H 103.233 -2.60374 -1.93329 0
M  V30 1021 H 103.018 -3.86133 -0.681468 0
M  V30 1022 H 104.508 -3.82708 -1.67105 0
M  V30 1023 N 104.945 -0.338344 -1.53925 0
M  V30 1024 C 106.194 0.260732 -2.00008 0
M  V30 1025 C 106.507 1.52073 -1.23017 0
M  V30 1026 O 107.713 2.19672 -1.5955 0
M  V30 1027 C 106.169 0.51515 -3.56194 0
M  V30 1028 C 105.777 -0.728645 -4.42035 0
M  V30 1029 C 107.521 1.07337 -4.10706 0
M  V30 1030 C 105.428 -0.445315 -5.89721 0
M  V30 1031 H 104.358 0.101205 -0.747177 0
M  V30 1032 H 107.009 -0.452866 -1.77824 0
M  V30 1033 H 105.391 1.28932 -3.74423 0
M  V30 1034 H 106.565 -1.50352 -4.35581 0
M  V30 1035 H 104.88 -1.20813 -3.98489 0
M  V30 1036 H 107.477 1.30022 -5.18651 0
M  V30 1037 H 107.82 2.0273 -3.63602 0
M  V30 1038 H 108.353 0.360034 -3.96167 0
M  V30 1039 H 105.092 -1.36883 -6.41049 0
M  V30 1040 H 104.612 0.291569 -5.99091 0
M  V30 1041 H 106.291 -0.0606218 -6.46972 0
M  V30 1042 N 106.423 1.57458 -0.0668435 0
M  V30 1043 C 107.37 2.12439 0.902122 0
M  V30 1044 C 108.34 1.03565 1.2986 0
M  V30 1045 O 109.525 1.312 1.38532 0
M  V30 1046 C 106.665 2.6865 2.16614 0
M  V30 1047 C 105.778 3.91663 1.82274 0
M  V30 1048 C 104.913 4.36134 3.0325 0
M  V30 1049 C 103.952 5.51808 2.64904 0
M  V30 1050 N 103.089 5.9126 3.78624 0
M  V30 1051 H 107.929 2.94934 0.426382 0
M  V30 1052 H 105.466 1.4575 0.198819 0
M  V30 1053 H 107.424 2.99346 2.90599 0
M  V30 1054 H 106.054 1.88928 2.61737 0
M  V30 1055 H 105.106 3.6746 0.983719 0
M  V30 1056 H 106.418 4.75693 1.50059 0
M  V30 1057 H 105.572 4.68465 3.85519 0
M  V30 1058 H 104.311 3.50948 3.38655 0
M  V30 1059 H 103.316 5.19133 1.81055 0
M  V30 1060 H 104.541 6.38722 2.30675 0
M  V30 1061 H 102.487 5.09024 4.138 0
M  V30 1062 H 102.404 6.70018 3.5016 0
M  V30 1063 H 103.672 6.28212 4.61486 0
M  V30 1064 N 107.901 -0.206675 1.56239 0
M  V30 1065 C 109.131 -0.943975 1.83773 0
M  V30 1066 C 109.539 -1.77841 0.645703 0
M  V30 1067 O 108.882 -1.79403 -0.395008 0
M  V30 1068 C 108.944 -1.899 3.05251 0
M  V30 1069 C 108.608 -1.24764 4.39639 0
M  V30 1070 C 109.605 -0.630216 5.16066 0
M  V30 1071 C 107.29 -1.25496 4.8637 0
M  V30 1072 C 109.284 -0.0287946 6.37393 0
M  V30 1073 C 106.971 -0.649698 6.07637 0
M  V30 1074 C 107.969 -0.0376845 6.8299 0
M  V30 1075 O 107.657 0.55812 8.0196 0
M  V30 1076 H 107.389 -0.281508 0.614597 0
M  V30 1077 H 109.943 -0.222458 2.04192 0
M  V30 1078 H 108.173 -2.6599 2.80689 0
M  V30 1079 H 109.862 -2.5031 3.1953 0
M  V30 1080 H 110.628 -0.616785 4.81062 0
M  V30 1081 H 106.507 -1.72072 4.27683 0
M  V30 1082 H 110.051 0.449518 6.9615 0
M  V30 1083 H 105.948 -0.660592 6.42111 0
M  V30 1084 H 106.716 0.453891 8.17241 0
M  V30 1085 N 109.379 -1.50304 -0.473955 0
M  V30 1086 C 110.626 -1.6115 -1.22625 0
M  V30 1087 C 110.954 -0.310517 -1.92005 0
M  V30 1088 O 110.209 0.703419 -1.82621 0
M  V30 1089 C 110.508 -2.73938 -2.29549 0
M  V30 1090 C 110.174 -4.14519 -1.7744 0
M  V30 1091 C 108.836 -4.5277 -1.62949 0
M  V30 1092 C 111.188 -5.02392 -1.3875 0
M  V30 1093 C 108.516 -5.76639 -1.08187 0
M  V30 1094 C 110.868 -6.26805 -0.854309 0
M  V30 1095 C 109.532 -6.63861 -0.696011 0
M  V30 1096 H 108.802 -0.589691 -0.448715 0
M  V30 1097 H 111.449 -1.84228 -0.522705 0
M  V30 1098 H 109.754 -2.44937 -3.05799 0
M  V30 1099 H 111.451 -2.79534 -2.87509 0
M  V30 1100 H 108.041 -3.8434 -1.89685 0
M  V30 1101 H 112.225 -4.73474 -1.4878 0
M  V30 1102 H 107.481 -6.04027 -0.946666 0
M  V30 1103 H 111.655 -6.94258 -0.545843 0
M  V30 1104 H 109.282 -7.59722 -0.26952 0
M  V30 1105 N 110.857 0.726932 -1.39834 0
M  V30 1106 C 111.804 1.841 -1.39197 0
M  V30 1107 C 112.774 1.642 -0.250502 0
M  V30 1108 O 113.959 1.85494 -0.446846 0
M  V30 1109 C 111.099 3.21697 -1.24919 0
M  V30 1110 C 110.212 3.53247 -2.48678 0
M  V30 1111 C 109.347 4.80289 -2.26928 0
M  V30 1112 C 108.386 5.04707 -3.4632 0
M  V30 1113 N 107.523 6.22956 -3.23836 0
M  V30 1114 H 112.363 1.83979 -2.34427 0
M  V30 1115 H 109.9 0.898876 -1.16442 0
M  V30 1116 H 111.858 4.01137 -1.1465 0
M  V30 1117 H 110.488 3.21076 -0.333153 0
M  V30 1118 H 109.54 2.68447 -2.69519 0
M  V30 1119 H 110.852 3.67205 -3.37582 0
M  V30 1120 H 110.006 5.67725 -2.13947 0
M  V30 1121 H 108.745 4.68519 -1.35431 0
M  V30 1122 H 107.75 4.1573 -3.5979 0
M  V30 1123 H 108.975 5.18357 -4.38729 0
M  V30 1124 H 106.921 6.12459 -2.35011 0
M  V30 1125 H 106.838 6.37539 -4.063 0
M  V30 1126 H 108.106 7.1321 -3.14566 0
M  V30 1127 N 112.336 1.25143 0.95797 0
M  V30 1128 C 113.246 1.06968 2.08794 0
M  V30 1129 C 114.262 0.00773911 1.73998 0
M  V30 1130 O 115.438 0.207972 2.00323 0
M  V30 1131 C 112.503 0.68691 3.39827 0
M  V30 1132 C 111.564 1.82641 3.88511 0
M  V30 1133 C 110.797 1.46181 5.1329 0
M  V30 1134 O 111.02 0.355971 5.69288 0
M  V30 1135 O 109.954 2.29085 5.566 0
M  V30 1136 H 113.78 2.01723 2.27027 0
M  V30 1137 H 111.365 1.04051 1.07209 0
M  V30 1138 H 113.247 0.485417 4.18595 0
M  V30 1139 H 111.922 -0.231417 3.22872 0
M  V30 1140 H 110.829 2.08274 3.10762 0
M  V30 1141 H 112.162 2.72386 4.09959 0
M  V30 1142 N 113.814 -1.1601 1.06675 0
M  V30 1143 C 114.761 -2.20525 0.680967 0
M  V30 1144 C 115.731 -1.62904 -0.324283 0
M  V30 1145 O 116.916 -1.89615 -0.212294 0
M  V30 1146 C 114.056 -3.45013 0.0776551 0
M  V30 1147 C 113.169 -4.16863 1.13355 0
M  V30 1148 C 112.304 -5.2888 0.49597 0
M  V30 1149 C 111.343 -5.92537 1.53513 0
M  V30 1150 N 110.48 -6.96038 0.920631 0
M  V30 1151 H 115.32 -2.52876 1.57663 0
M  V30 1152 H 112.857 -1.24199 0.788223 0
M  V30 1153 H 114.815 -4.16193 -0.289704 0
M  V30 1154 H 113.445 -3.132 -0.781393 0
M  V30 1155 H 112.497 -3.44248 1.61857 0
M  V30 1156 H 113.809 -4.60294 1.92174 0
M  V30 1157 H 112.963 -6.06653 0.0758604 0
M  V30 1158 H 111.702 -4.86622 -0.324062 0
M  V30 1159 H 110.707 -5.13482 1.9651 0
M  V30 1160 H 111.932 -6.36873 2.35733 0
M  V30 1161 H 109.878 -6.55888 0.12138 0
M  V30 1162 H 109.795 -7.3786 1.64616 0
M  V30 1163 H 111.063 -7.77725 0.525795 0
M  V30 1164 N 115.292 -0.849877 -1.32721 0
M  V30 1165 C 116.538 -0.451591 -1.97708 0
M  V30 1166 C 116.871 0.989175 -1.6712 0
M  V30 1167 O 116.146 1.69334 -0.956891 0
M  V30 1168 C 116.429 -0.685598 -3.53513 0
M  V30 1169 C 116.282 -2.17444 -3.93749 0
M  V30 1170 C 117.601 -0.138874 -4.39881 0
M  V30 1171 H 114.72 -0.16555 -0.718166 0
M  V30 1172 H 117.362 -1.06742 -1.57182 0
M  V30 1173 H 115.512 -0.161416 -3.88165 0
M  V30 1174 H 117.184 -2.76433 -3.693 0
M  V30 1175 H 115.427 -2.65476 -3.43081 0
M  V30 1176 H 116.098 -2.28888 -5.02309 0
M  V30 1177 H 118.574 -0.587068 -4.11938 0
M  V30 1178 H 117.45 -0.332213 -5.47894 0
M  V30 1179 H 117.711 0.95806 -4.31594 0
M  V30 1180 N 116.77 1.45427 -0.607355 0
M  V30 1181 C 117.995 2.07124 -0.107006 0
M  V30 1182 C 118.42 1.44906 1.19933 0
M  V30 1183 O 117.778 0.541687 1.73019 0
M  V30 1184 C 117.826 3.60595 0.0194119 0
M  V30 1185 O 116.93 3.98285 1.0697 0
M  V30 1186 H 116.271 0.659868 -0.0739597 0
M  V30 1187 H 118.801 1.86683 -0.837297 0
M  V30 1188 H 118.811 4.07419 0.2177 0
M  V30 1189 H 117.486 4.05266 -0.934453 0
M  V30 1190 H 116.063 3.63133 0.847889 0
M  V30 1191 N 118.248 0.346503 1.53744 0
M  V30 1192 C 119.476 -0.25041 2.05379 0
M  V30 1193 C 119.891 -1.43979 1.22129 0
M  V30 1194 O 119.248 -1.80677 0.257321 0
M  V30 1195 C 119.299 -0.662575 3.55376 0
M  V30 1196 O 119.02 0.479515 4.35468 0
M  V30 1197 C 120.521 -1.31989 4.23195 0
M  V30 1198 H 117.741 -0.0478198 0.669294 0
M  V30 1199 H 120.285 0.499346 1.9831 0
M  V30 1200 H 118.44 -1.36227 3.62658 0
M  V30 1201 H 118.854 0.15037 5.24284 0
M  V30 1202 H 120.328 -1.55902 5.29527 0
M  V30 1203 H 120.805 -2.27436 3.75725 0
M  V30 1204 H 121.411 -0.662154 4.20114 0
M  V30 1205 N 119.726 -1.57421 0.075193 0
M  V30 1206 C 120.658 -2.09904 -0.920483 0
M  V30 1207 C 121.671 -1.03191 -1.25918 0
M  V30 1208 O 122.86 -1.30695 -1.21577 0
M  V30 1209 C 119.96 -2.54726 -2.23534 0
M  V30 1210 C 119.133 -3.8505 -2.07498 0
M  V30 1211 C 118.192 -4.15929 -3.22319 0
M  V30 1212 O 117.218 -4.85474 -2.9716 0
M  V30 1213 N 118.42 -3.69745 -4.47514 0
M  V30 1214 H 121.185 -2.95954 -0.472359 0
M  V30 1215 H 118.746 -1.61523 -0.110444 0
M  V30 1216 H 120.738 -2.72443 -2.9926 0
M  V30 1217 H 119.308 -1.73795 -2.59835 0
M  V30 1218 H 118.528 -3.76679 -1.16219 0
M  V30 1219 H 119.816 -4.70348 -1.94038 0
M  V30 1220 H 119.214 -3.13569 -4.7084 0
M  V30 1221 H 117.771 -3.92655 -5.20255 0
M  V30 1222 N 121.204 0.198386 -1.56346 0
M  V30 1223 C 122.152 1.26538 -1.95169 0
M  V30 1224 C 123.146 1.47295 -0.836685 0
M  V30 1225 O 124.352 1.48195 -1.02167 0
M  V30 1226 H 120.727 0.424744 -0.620561 0
M  V30 1227 H 122.698 0.910904 -2.84157 0
M  V30 1228 C 121.447 2.6035 -2.30463 0
M  V30 1229 H 120.77 2.45192 -3.15786 0
M  V30 1230 H 122.21 3.33762 -2.61494 0
M  V30 1231 C 120.669 3.17096 -1.13806 0
M  V30 1232 O 121.199 3.99588 -0.41135 0
M  V30 1233 N 119.405 2.75795 -0.915736 0
M  V30 1234 H 118.952 2.08816 -1.50843 0
M  V30 1235 H 118.91 3.14101 -0.136979 0
M  V30 1236 N 122.682 1.50554 0.465978 0
M  V30 1237 C 123.612 1.72722 1.57128 0
M  V30 1238 C 124.593 0.576294 1.6004 0
M  V30 1239 O 125.778 0.81598 1.76225 0
M  V30 1240 C 122.908 1.82605 2.95419 0
M  V30 1241 C 121.862 2.97835 3.07373 0
M  V30 1242 C 121.188 2.92867 4.47363 0
M  V30 1243 C 122.488 4.38265 2.84114 0
M  V30 1244 H 124.182 2.65267 1.38829 0
M  V30 1245 H 121.728 1.2765 0.666441 0
M  V30 1246 H 123.681 1.96698 3.72677 0
M  V30 1247 H 122.405 0.866858 3.14886 0
M  V30 1248 H 121.064 2.83401 2.3255 0
M  V30 1249 H 120.712 1.94783 4.63755 0
M  V30 1250 H 120.412 3.70227 4.56296 0
M  V30 1251 H 121.936 3.09015 5.26633 0
M  V30 1252 H 123.35 4.53198 3.51118 0
M  V30 1253 H 121.747 5.17115 3.04487 0
M  V30 1254 H 122.817 4.50281 1.7993 0
M  V30 1255 N 124.16 -0.719506 1.40217 0
M  V30 1256 C 125.09 -1.8465 1.42922 0
M  V30 1257 C 126.071 -1.67599 0.29062 0
M  V30 1258 O 127.256 -1.87688 0.498677 0
M  V30 1259 C 124.386 -3.22565 1.28722 0
M  V30 1260 C 123.34 -3.54281 2.40144 0
M  V30 1261 C 122.666 -4.91298 2.11023 0
M  V30 1262 C 123.966 -3.55676 3.82481 0
M  V30 1263 H 125.66 -1.82644 2.37237 0
M  V30 1264 H 123.206 -0.877305 1.1419 0
M  V30 1265 H 125.159 -4.01095 1.29232 0
M  V30 1266 H 123.883 -3.25137 0.308811 0
M  V30 1267 H 122.542 -2.78088 2.38877 0
M  V30 1268 H 122.19 -4.90468 1.11582 0
M  V30 1269 H 121.89 -5.13485 2.8567 0
M  V30 1270 H 123.414 -5.72166 2.13209 0
M  V30 1271 H 124.828 -4.24254 3.85592 0
M  V30 1272 H 123.225 -3.89388 4.56614 0
M  V30 1273 H 124.295 -2.55144 4.12346 0
M  V30 1274 N 125.638 -1.25649 -0.95132 0
M  V30 1275 C 126.568 -1.08808 -2.06599 0
M  V30 1276 C 127.549 0.00382547 -1.701 0
M  V30 1277 O 128.734 -0.166325 -1.93486 0
M  V30 1278 C 125.864 -0.709542 -3.39975 0
M  V30 1279 C 124.818 -1.75206 -3.90496 0
M  V30 1280 C 124.144 -1.22811 -5.20405 0
M  V30 1281 C 125.444 -3.15153 -4.16504 0
M  V30 1282 H 127.138 -2.02048 -2.20946 0
M  V30 1283 H 124.684 -0.972835 -1.06169 0
M  V30 1284 H 126.637 -0.578649 -4.17408 0
M  V30 1285 H 125.361 0.258556 -3.25575 0
M  V30 1286 H 124.02 -1.87145 -3.15234 0
M  V30 1287 H 123.668 -0.250145 -5.02378 0
M  V30 1288 H 123.368 -1.92492 -5.55176 0
M  V30 1289 H 124.892 -1.10968 -6.00432 0
M  V30 1290 H 126.306 -3.06349 -4.84586 0
M  V30 1291 H 124.703 -3.82333 -4.62538 0
M  V30 1292 H 125.773 -3.61966 -3.22658 0
M  V30 1293 N 127.117 1.15442 -1.07289 0
M  V30 1294 C 128.047 2.22312 -0.714107 0
M  V30 1295 C 129.028 1.67467 0.298155 0
M  V30 1296 O 130.213 1.93445 0.171048 0
M  V30 1297 C 127.343 3.47124 -0.110448 0
M  V30 1298 C 126.297 4.14926 -1.04979 0
M  V30 1299 C 125.623 5.33807 -0.308924 0
M  V30 1300 C 126.923 4.64762 -2.38314 0
M  V30 1301 H 128.617 2.5258 -1.6076 0
M  V30 1302 H 126.163 1.21404 -0.77441 0
M  V30 1303 H 128.116 4.21124 0.152482 0
M  V30 1304 H 126.84 3.16187 0.81812 0
M  V30 1305 H 125.499 3.42866 -1.29764 0
M  V30 1306 H 125.147 4.99126 0.623084 0
M  V30 1307 H 124.847 5.80113 -0.935036 0
M  V30 1308 H 126.371 6.10576 -0.0537771 0
M  V30 1309 H 127.785 5.30292 -2.1786 0
M  V30 1310 H 126.182 5.21728 -2.96514 0
M  V30 1311 H 127.252 3.80434 -3.00663 0
M  V30 1312 N 128.595 0.856903 1.32268 0
M  V30 1313 C 129.525 0.31858 2.31316 0
M  V30 1314 C 130.506 -0.583487 1.59779 0
M  V30 1315 O 131.691 -0.503259 1.87566 0
M  V30 1316 C 128.821 -0.491979 3.43798 0
M  V30 1317 C 127.775 0.315849 4.26833 0
M  V30 1318 C 127.101 -0.619586 5.31098 0
M  V30 1319 C 128.401 1.54282 4.98993 0
M  V30 1320 H 130.095 1.14621 2.76591 0
M  V30 1321 H 127.641 0.552613 1.32974 0
M  V30 1322 H 129.594 -0.879012 4.1213 0
M  V30 1323 H 128.318 -1.35299 2.97257 0
M  V30 1324 H 126.977 0.684664 3.6015 0
M  V30 1325 H 126.625 -1.47751 4.8081 0
M  V30 1326 H 126.325 -0.0830621 5.87541 0
M  V30 1327 H 127.849 -1.00375 6.02293 0
M  V30 1328 H 129.263 1.22796 5.59995 0
M  V30 1329 H 127.66 2.01745 5.65172 0
M  V30 1330 H 128.73 2.30285 4.26728 0
M  V30 1331 N 130.073 -1.45103 0.615059 0
M  V30 1332 C 131.301 -2.06553 0.11977 0
M  V30 1333 C 131.716 -1.45842 -1.19898 0
M  V30 1334 O 131.073 -0.575325 -1.73194 0
M  V30 1335 C 131.124 -3.61495 -0.018364 0
M  V30 1336 O 130.845 -4.19942 1.24822 0
M  V30 1337 C 132.346 -4.39947 -0.544237 0
M  V30 1338 H 129.566 -0.667096 0.0722739 0
M  V30 1339 H 132.11 -1.8623 0.84491 0
M  V30 1340 H 130.265 -3.81135 -0.693865 0
M  V30 1341 H 130.679 -5.13204 1.0827 0
M  V30 1342 H 132.153 -5.48838 -0.589953 0
M  V30 1343 H 132.63 -4.10255 -1.56805 0
M  V30 1344 H 133.236 -4.25188 0.0974703 0
M  V30 1345 N 131.551 -0.354651 -1.53558 0
M  V30 1346 C 132.828 0.294281 -1.93374 0
M  V30 1347 C 133.208 1.67313 -1.28723 0
M  V30 1348 O 132.556 2.24179 -0.442247 0
M  V30 1349 C 132.766 0.355445 -3.47185 0
M  V30 1350 C 134.114 0.601007 -4.20325 0
M  V30 1351 O 135.138 0.437106 -3.53508 0
M  V30 1352 O 133.997 0.919322 -5.38712 0
M  V30 1353 H 131.091 0.174033 -0.808481 0
M  V30 1354 H 133.637 -0.406638 -1.64756 0
M  V30 1355 H 132.409 -0.611729 -3.86489 0
M  V30 1356 H 132.032 1.1027 -3.82003 0
M  V30 1357 N 133.029 1.57378 -0.0835403 0
M  V30 1358 C 133.977 2.14602 0.89714 0
M  V30 1359 C 134.971 1.08589 1.30018 0
M  V30 1360 O 136.177 1.26952 1.27606 0
M  V30 1361 H 132.552 0.686346 0.3073 0
M  V30 1362 H 134.523 2.95845 0.38969 0
M  V30 1363 C 133.272 2.73188 2.15089 0
M  V30 1364 H 132.595 3.54442 1.84962 0
M  V30 1365 H 134.035 3.1681 2.81793 0
M  V30 1366 C 132.494 1.68517 2.91725 0
M  V30 1367 O 133.024 1.11718 3.85852 0
M  V30 1368 N 131.23 1.39277 2.55049 0
M  V30 1369 H 130.777 1.85655 1.78577 0
M  V30 1370 H 130.735 0.694791 3.06627 0
M  V30 1371 N 134.507 -0.190092 1.56449 0
M  V30 1372 C 135.417 -1.25591 1.98152 0
M  V30 1373 C 136.433 -1.49519 0.889944 0
M  V30 1374 O 137.609 -1.62036 1.19609 0
M  V30 1375 C 134.674 -2.57916 2.3169 0
M  V30 1376 C 133.735 -2.42015 3.5458 0
M  V30 1377 C 132.968 -3.6803 3.8651 0
M  V30 1378 O 133.191 -4.72413 3.1966 0
M  V30 1379 O 132.125 -3.6326 4.79923 0
M  V30 1380 H 135.951 -0.931988 2.89046 0
M  V30 1381 H 133.536 -0.395488 1.4407 0
M  V30 1382 H 135.418 -3.36008 2.54316 0
M  V30 1383 H 134.093 -2.89925 1.43963 0
M  V30 1384 H 133 -1.62017 3.37196 0
M  V30 1385 H 134.333 -2.14937 4.4279 0
M  V30 1386 N 135.985 -1.50799 -0.457987 0
M  V30 1387 C 136.948 -1.7005 -1.53674 0
M  V30 1388 C 137.948 -0.570881 -1.50325 0
M  V30 1389 O 139.138 -0.838126 -1.52712 0
M  V30 1390 C 136.27 -1.73788 -2.93276 0
M  V30 1391 H 137.463 -2.66306 -1.37917 0
M  V30 1392 H 135.016 -1.40477 -0.685271 0
M  V30 1393 H 135.751 -0.792717 -3.14462 0
M  V30 1394 H 135.536 -2.55864 -2.97113 0
M  V30 1395 H 137.026 -1.90591 -3.71571 0
M  V30 1396 N 137.463 0.71206 -1.40597 0
M  V30 1397 C 138.709 1.47292 -1.40274 0
M  V30 1398 C 139.064 1.92399 -0.00576812 0
M  V30 1399 O 138.357 1.65507 0.965297 0
M  V30 1400 C 138.551 2.71039 -2.32965 0
M  V30 1401 C 138.38 2.38035 -3.81536 0
M  V30 1402 C 137.15 2.29203 -4.50327 0
M  V30 1403 C 139.348 2.02076 -4.72938 0
M  V30 1404 N 137.33 1.88911 -5.84111 0
M  V30 1405 C 138.701 1.72412 -5.95545 0
M  V30 1406 C 140.756 1.88742 -4.60739 0
M  V30 1407 C 139.459 1.30756 -7.07316 0
M  V30 1408 C 141.485 1.4849 -5.72455 0
M  V30 1409 C 140.847 1.19726 -6.94151 0
M  V30 1410 H 136.946 0.536919 -0.568544 0
M  V30 1411 H 139.53 0.825424 -1.76337 0
M  V30 1412 H 137.701 3.33533 -1.99023 0
M  V30 1413 H 139.433 3.37404 -2.23474 0
M  V30 1414 H 136.188 2.47059 -4.04053 0
M  V30 1415 H 136.612 1.71293 -6.54972 0
M  V30 1416 H 141.254 2.0964 -3.67166 0
M  V30 1417 H 138.972 1.08601 -8.00769 0
M  V30 1418 H 142.558 1.38747 -5.65014 0
M  V30 1419 H 141.438 0.890482 -7.79128 0
M  V30 1420 N 138.941 1.26152 0.944643 0
M  V30 1421 C 139.889 1.07215 2.06417 0
M  V30 1422 C 140.883 9.2007e-05 1.694 0
M  V30 1423 O 142.089 0.1565 1.79318 0
M  V30 1424 H 138.464 0.329837 0.675805 0
M  V30 1425 H 140.435 2.02099 2.19541 0
M  V30 1426 C 139.184 0.718197 3.40202 0
M  V30 1427 H 138.507 1.53497 3.69159 0
M  V30 1428 H 139.947 0.625459 4.19361 0
M  V30 1429 C 138.406 -0.576435 3.31932 0
M  V30 1430 O 138.936 -1.61574 3.67773 0
M  V30 1431 N 137.142 -0.565781 2.85039 0
M  V30 1432 H 136.689 0.280367 2.5607 0
M  V30 1433 H 136.647 -1.43213 2.79888 0
M  V30 1434 N 140.419 -1.14872 1.07899 0
M  V30 1435 C 141.667 -1.85422 0.803941 0
M  V30 1436 C 141.988 -1.83051 -0.67211 0
M  V30 1437 O 141.258 -1.27532 -1.48703 0
M  V30 1438 H 139.838 -0.686537 0.294408 0
M  V30 1439 H 142.5 -1.39226 1.3639 0
M  V30 1440 H 141.596 -2.90399 1.14346 0
M  V30 1441 N 141.898 -0.863906 -1.31812 0
M  V30 1442 C 143.145 -0.471836 -1.96926 0
M  V30 1443 C 143.473 0.974578 -1.68322 0
M  V30 1444 O 142.728 1.7003 -0.968933 0
M  V30 1445 C 143.027 -0.668547 -3.51091 0
M  V30 1446 C 142.693 -2.08683 -3.99703 0
M  V30 1447 C 141.355 -2.47471 -4.12688 0
M  V30 1448 C 143.707 -3.01207 -4.25351 0
M  V30 1449 C 141.035 -3.78037 -4.4867 0
M  V30 1450 C 143.387 -4.31282 -4.62794 0
M  V30 1451 C 142.051 -4.69992 -4.73987 0
M  V30 1452 H 141.321 -0.172657 -0.720604 0
M  V30 1453 H 143.968 -1.09573 -1.57054 0
M  V30 1454 H 142.273 0.0385252 -3.91781 0
M  V30 1455 H 143.97 -0.345102 -3.99512 0
M  V30 1456 H 140.56 -1.77566 -3.90087 0
M  V30 1457 H 144.744 -2.72469 -4.14819 0
M  V30 1458 H 140 -4.078 -4.55532 0
M  V30 1459 H 144.174 -5.03031 -4.81594 0
M  V30 1460 H 141.801 -5.71207 -5.01624 0
M  V30 1461 N 143.376 1.44774 -0.622745 0
M  V30 1462 C 144.622 2.0242 -0.124083 0
M  V30 1463 C 144.955 1.4881 1.24777 0
M  V30 1464 O 144.23 0.668799 1.8264 0
M  V30 1465 C 144.513 3.59957 -0.101619 0
M  V30 1466 C 144.366 4.23867 -1.50521 0
M  V30 1467 C 145.685 4.36284 0.578272 0
M  V30 1468 H 142.804 0.735528 -0.0465645 0
M  V30 1469 H 145.446 1.72447 -0.797617 0
M  V30 1470 H 143.596 3.85623 0.471934 0
M  V30 1471 H 145.268 4.09336 -2.12701 0
M  V30 1472 H 143.511 3.81684 -2.06154 0
M  V30 1473 H 144.182 5.32843 -1.4416 0
M  V30 1474 H 146.658 4.16001 0.0906057 0
M  V30 1475 H 145.534 5.46004 0.563149 0
M  V30 1476 H 145.795 4.10271 1.64713 0
M  V30 1477 N 144.854 0.36279 1.53368 0
M  V30 1478 C 145.817 -0.472679 2.24273 0
M  V30 1479 C 146.817 -1.012 1.24961 0
M  V30 1480 O 148.007 -0.898194 1.49259 0
M  V30 1481 C 145.139 -1.66039 2.97731 0
M  V30 1482 H 146.332 0.14773 2.99536 0
M  V30 1483 H 143.885 0.114434 1.55881 0
M  V30 1484 H 144.62 -2.31896 2.26704 0
M  V30 1485 H 144.405 -1.28066 3.70596 0
M  V30 1486 H 145.895 -2.25252 3.51641 0
M  V30 1487 N 146.332 -1.57332 0.0918853 0
M  V30 1488 C 147.295 -2.12708 -0.85369 0
M  V30 1489 C 148.295 -1.05561 -1.213 0
M  V30 1490 O 149.485 -1.31461 -1.14296 0
M  V30 1491 C 146.617 -2.64503 -2.15061 0
M  V30 1492 H 147.81 -2.97573 -0.3729 0
M  V30 1493 H 145.363 -1.55509 -0.157072 0
M  V30 1494 H 146.098 -1.83149 -2.67632 0
M  V30 1495 H 145.883 -3.4284 -1.90272 0
M  V30 1496 H 147.373 -3.07351 -2.82711 0
M  V30 1497 N 147.81 0.181792 -1.56548 0
M  V30 1498 C 148.773 1.20894 -1.94724 0
M  V30 1499 C 149.773 1.37738 -0.829747 0
M  V30 1500 O 150.963 1.35323 -1.09697 0
M  V30 1501 C 148.095 2.57593 -2.23291 0
M  V30 1502 H 149.288 0.882275 -2.86629 0
M  V30 1503 H 146.841 0.423838 -1.50444 0
M  V30 1504 H 147.576 2.95291 -1.34067 0
M  V30 1505 H 147.361 2.46735 -3.04736 0
M  V30 1506 H 148.851 3.31637 -2.53785 0
M  V30 1507 N 149.288 1.51039 0.449983 0
M  V30 1508 C 150.198 1.74261 1.57067 0
M  V30 1509 C 151.214 0.626363 1.62335 0
M  V30 1510 O 152.39 0.907162 1.79812 0
M  V30 1511 C 149.455 1.85114 2.93144 0
M  V30 1512 C 148.516 3.0893 2.98095 0
M  V30 1513 C 147.749 3.19256 4.27681 0
M  V30 1514 O 147.972 2.35835 5.19363 0
M  V30 1515 O 146.906 4.12144 4.38658 0
M  V30 1516 H 150.732 2.69303 1.40391 0
M  V30 1517 H 148.317 1.35389 0.631688 0
M  V30 1518 H 150.199 1.94311 3.73926 0
M  V30 1519 H 148.874 0.932588 3.09975 0
M  V30 1520 H 147.781 3.0522 2.16314 0
M  V30 1521 H 149.114 4.00433 2.86206 0
M  V30 1522 N 150.766 -0.704594 1.40972 0
M  V30 1523 C 151.696 -1.83124 1.44872 0
M  V30 1524 C 152.677 -1.67281 0.30838 0
M  V30 1525 O 153.862 -1.87149 0.518556 0
M  V30 1526 C 150.992 -3.21181 1.32136 0
M  V30 1527 C 149.946 -3.51714 2.43888 0
M  V30 1528 C 149.272 -4.89032 2.16222 0
M  V30 1529 C 150.572 -3.516 3.86232 0
M  V30 1530 H 152.266 -1.80117 2.39161 0
M  V30 1531 H 149.812 -0.865145 1.15114 0
M  V30 1532 H 151.765 -3.99702 1.33479 0
M  V30 1533 H 150.489 -3.24791 0.343279 0
M  V30 1534 H 149.148 -2.75539 2.41813 0
M  V30 1535 H 148.796 -4.89256 1.16778 0
M  V30 1536 H 148.496 -5.10426 2.911 0
M  V30 1537 H 150.02 -5.69873 2.19265 0
M  V30 1538 H 151.434 -4.2014 3.9007 0
M  V30 1539 H 149.831 -3.84523 4.60719 0
M  V30 1540 H 150.901 -2.50757 4.15029 0
M  V30 1541 N 152.244 -1.26651 -0.937939 0
M  V30 1542 C 153.655 -1.1125 -1.49934 0
M  V30 1543 C 154.006 0.306077 -1.93798 0
M  V30 1544 O 153.131 1.19792 -1.80219 0
M  V30 1545 C 153.726 -2.01339 -2.72485 0
M  V30 1546 C 152.285 -1.90074 -3.24883 0
M  V30 1547 C 151.432 -1.94498 -1.97651 0
M  V30 1548 H 154.383 -1.39693 -0.753091 0
M  V30 1549 H 154.404 -1.56319 -3.46907 0
M  V30 1550 H 153.916 -3.04577 -2.40529 0
M  V30 1551 H 152.017 -0.897827 -3.61621 0
M  V30 1552 H 152.13 -2.75778 -3.9177 0
M  V30 1553 H 150.494 -1.38591 -2.13693 0
M  V30 1554 H 151.277 -2.99372 -1.68022 0
M  V30 1555 N 153.722 1.14298 -1.08507 0
M  V30 1556 C 155.138 1.37347 -0.812901 0
M  V30 1557 C 155.338 1.93052 0.577325 0
M  V30 1558 O 154.394 2.14389 1.33393 0
M  V30 1559 C 155.707 2.33359 -1.89642 0
M  V30 1560 C 157.255 2.46996 -1.92255 0
M  V30 1561 C 157.73 3.46309 -2.99724 0
M  V30 1562 N 159.221 3.53853 -2.98902 0
M  V30 1563 C 159.956 4.3055 -3.787 0
M  V30 1564 N 159.452 5.10482 -4.6838 0
M  V30 1565 N 161.245 4.25757 -3.66998 0
M  V30 1566 H 153.396 0.764867 -1.9815 0
M  V30 1567 H 155.659 0.398966 -0.859959 0
M  V30 1568 H 155.365 1.99565 -2.89597 0
M  V30 1569 H 155.239 3.33274 -1.76659 0
M  V30 1570 H 157.626 2.80081 -0.929445 0
M  V30 1571 H 157.707 1.47039 -2.09316 0
M  V30 1572 H 157.351 3.13957 -3.99241 0
M  V30 1573 H 157.281 4.46049 -2.79907 0
M  V30 1574 H 159.772 2.96812 -2.33904 0
M  V30 1575 H 160.085 5.66284 -5.25873 0
M  V30 1576 H 158.43 5.09747 -4.72422 0
M  V30 1577 H 161.621 3.62383 -2.96304 0
M  V30 1578 H 161.794 4.85279 -4.29427 0
M  V30 1579 N 155.201 0.870884 1.31352 0
M  V30 1580 C 156.149 0.316445 2.30437 0
M  V30 1581 C 157.143 -0.568965 1.59559 0
M  V30 1582 O 158.349 -0.454964 1.74155 0
M  V30 1583 H 154.724 0.0836521 0.747333 0
M  V30 1584 H 156.695 1.16606 2.74673 0
M  V30 1585 C 155.444 -0.46635 3.44558 0
M  V30 1586 H 154.767 0.205687 3.99271 0
M  V30 1587 H 156.207 -0.819614 4.16003 0
M  V30 1588 C 154.666 -1.65797 2.9328 0
M  V30 1589 O 155.196 -2.75728 2.92125 0
M  V30 1590 N 153.402 -1.49041 2.4947 0
M  V30 1591 H 152.949 -0.59612 2.50608 0
M  V30 1592 H 152.907 -2.28911 2.15516 0
M  V30 1593 N 156.679 -1.44442 0.630414 0
M  V30 1594 C 157.589 -2.34476 -0.0761693 0
M  V30 1595 C 158.605 -1.52576 -0.836449 0
M  V30 1596 O 159.781 -1.85307 -0.788874 0
M  V30 1597 C 156.846 -3.30545 -1.04599 0
M  V30 1598 C 155.907 -4.28352 -0.28516 0
M  V30 1599 C 155.14 -5.19831 -1.20878 0
M  V30 1600 O 155.363 -5.15223 -2.44747 0
M  V30 1601 O 154.297 -5.97892 -0.693491 0
M  V30 1602 H 158.123 -2.96345 0.664324 0
M  V30 1603 H 155.708 -1.44203 0.39061 0
M  V30 1604 H 157.59 -3.89681 -1.60396 0
M  V30 1605 H 156.265 -2.7121 -1.76711 0
M  V30 1606 H 155.172 -3.72764 0.315837 0
M  V30 1607 H 156.505 -4.90605 0.395924 0
M  V30 1608 N 158.157 -0.370918 -1.53173 0
M  V30 1609 C 159.12 0.460778 -2.24521 0
M  V30 1610 C 160.12 1.00536 -1.25496 0
M  V30 1611 O 161.31 0.890266 -1.49733 0
M  V30 1612 C 158.442 1.64457 -2.98608 0
M  V30 1613 H 159.635 -0.163613 -2.99453 0
M  V30 1614 H 157.188 -0.122699 -1.55818 0
M  V30 1615 H 157.923 2.30691 -2.2793 0
M  V30 1616 H 157.708 1.26099 -3.7127 0
M  V30 1617 H 159.198 2.23384 -3.5283 0
M  V30 1618 N 159.635 1.57281 -0.100228 0
M  V30 1619 C 160.912 1.86014 0.604812 0
M  V30 1620 C 161.292 0.998025 1.86018 0
M  V30 1621 O 160.64 0.0718184 2.28387 0
M  V30 1622 C 160.85 3.36784 0.915278 0
M  V30 1623 C 162.198 4.04957 1.27651 0
M  V30 1624 O 163.222 3.41695 1.00613 0
M  V30 1625 O 162.081 5.16593 1.7831 0
M  V30 1626 H 159.175 0.76942 0.303185 0
M  V30 1627 H 161.721 1.69176 -0.133313 0
M  V30 1628 H 160.493 3.91292 0.0248896 0
M  V30 1629 H 160.116 3.58987 1.70921 0
M  V30 1630 N 161.113 -0.173488 1.56642 0
M  V30 1631 C 162.023 -1.23482 1.99473 0
M  V30 1632 C 163.039 -1.48567 0.905752 0
M  V30 1633 O 164.215 -1.60758 1.21321 0
M  V30 1634 C 161.28 -2.55444 2.34413 0
M  V30 1635 C 160.341 -2.38241 3.57127 0
M  V30 1636 C 159.574 -3.63909 3.90392 0
M  V30 1637 O 159.797 -4.68996 3.24653 0
M  V30 1638 O 158.731 -3.58149 4.83749 0
M  V30 1639 H 162.557 -0.901279 2.90018 0
M  V30 1640 H 160.142 -0.380185 1.44482 0
M  V30 1641 H 162.024 -3.33292 2.57865 0
M  V30 1642 H 160.699 -2.88382 1.4703 0
M  V30 1643 H 159.606 -1.58431 3.38896 0
M  V30 1644 H 160.939 -2.10228 4.45045 0
M  V30 1645 N 162.591 -1.51276 -0.441967 0
M  V30 1646 C 163.521 -1.752 -1.54361 0
M  V30 1647 C 164.502 -0.601682 -1.59103 0
M  V30 1648 O 165.687 -0.843913 -1.74905 0
M  V30 1649 C 162.817 -1.87282 -2.92477 0
M  V30 1650 C 161.771 -3.02687 -3.02596 0
M  V30 1651 C 161.097 -2.99947 -4.42647 0
M  V30 1652 C 162.397 -4.4273 -2.77106 0
M  V30 1653 H 164.091 -2.67442 -1.34592 0
M  V30 1654 H 161.637 -1.28694 -0.646048 0
M  V30 1655 H 163.59 -2.02602 -3.695 0
M  V30 1656 H 162.314 -0.916844 -3.13467 0
M  V30 1657 H 160.973 -2.87065 -2.28012 0
M  V30 1658 H 160.621 -2.02136 -4.60597 0
M  V30 1659 H 160.321 -3.77439 -4.50348 0
M  V30 1660 H 161.845 -3.17354 -5.2165 0
M  V30 1661 H 163.259 -4.58727 -3.43864 0
M  V30 1662 H 161.656 -5.21893 -2.96222 0
M  V30 1663 H 162.726 -4.53087 -1.72744 0
M  V30 1664 N 164.069 0.697108 -1.41344 0
M  V30 1665 C 165.485 1.00751 -1.2378 0
M  V30 1666 C 165.685 2.01105 -0.126066 0
M  V30 1667 O 164.741 2.47295 0.51004 0
M  V30 1668 C 166.054 1.53359 -2.58653 0
M  V30 1669 C 167.602 1.6525 -2.65822 0
M  V30 1670 C 168.077 2.2126 -4.01009 0
M  V30 1671 N 169.568 2.28622 -4.02847 0
M  V30 1672 C 170.303 2.72984 -5.04249 0
M  V30 1673 N 169.799 3.16962 -6.16041 0
M  V30 1674 N 171.592 2.72534 -4.91611 0
M  V30 1675 H 163.743 0.0322662 -2.12375 0
M  V30 1676 H 166.006 0.0768853 -0.944877 0
M  V30 1677 H 165.712 0.870773 -3.4075 0
M  V30 1678 H 165.586 2.51597 -2.81032 0
M  V30 1679 H 167.973 2.30644 -1.84086 0
M  V30 1680 H 168.054 0.655614 -2.47256 0
M  V30 1681 H 167.698 1.56482 -4.83193 0
M  V30 1682 H 167.628 3.21698 -4.16915 0
M  V30 1683 H 170.119 1.97585 -3.22131 0
M  V30 1684 H 170.432 3.49434 -6.89287 0
M  V30 1685 H 168.777 3.14875 -6.1958 0
M  V30 1686 H 171.968 2.37525 -4.0336 0
M  V30 1687 H 172.141 3.06789 -5.70775 0
M  V30 1688 N 165.547 1.27147 0.931209 0
M  V30 1689 C 166.494 1.09568 2.03134 0
M  V30 1690 C 167.464 -0.00222433 1.661 0
M  V30 1691 O 168.649 0.159439 1.90133 0
M  V30 1692 C 165.789 0.745231 3.36957 0
M  V30 1693 C 164.902 1.92041 3.86968 0
M  V30 1694 C 164.037 1.51216 5.09222 0
M  V30 1695 C 163.076 2.65504 5.5152 0
M  V30 1696 N 162.213 2.25291 6.64972 0
M  V30 1697 H 167.053 2.03708 2.17502 0
M  V30 1698 H 164.59 1.01411 1.06556 0
M  V30 1699 H 166.548 0.522878 4.1391 0
M  V30 1700 H 165.178 -0.159202 3.22407 0
M  V30 1701 H 164.23 2.25541 3.06326 0
M  V30 1702 H 165.542 2.77787 4.1429 0
M  V30 1703 H 164.696 1.25084 5.93666 0
M  V30 1704 H 163.435 0.625749 4.83669 0
M  V30 1705 H 162.44 2.92354 4.65628 0
M  V30 1706 H 163.665 3.54761 5.7907 0
M  V30 1707 H 161.611 1.39098 6.41083 0
M  V30 1708 H 161.528 3.04577 6.91931 0
M  V30 1709 H 162.796 2.02398 7.52765 0
M  V30 1710 N 167.025 -1.13721 1.09112 0
M  V30 1711 C 167.988 -2.17222 0.731241 0
M  V30 1712 C 168.988 -1.59035 -0.237566 0
M  V30 1713 O 170.178 -1.74192 -0.0161704 0
M  V30 1714 C 167.31 -3.40804 0.0808443 0
M  V30 1715 H 168.503 -2.50573 1.64783 0
M  V30 1716 H 166.056 -1.28493 0.889897 0
M  V30 1717 H 166.791 -3.1304 -0.847127 0
M  V30 1718 H 166.576 -3.84306 0.777896 0
M  V30 1719 H 168.066 -4.1731 -0.155657 0
M  V30 1720 N 168.503 -0.877838 -1.30888 0
M  V30 1721 C 169.433 -0.35534 -2.3078 0
M  V30 1722 C 170.414 0.557994 -1.60687 0
M  V30 1723 O 171.599 0.473355 -1.88343 0
M  V30 1724 C 168.729 0.437221 -3.44537 0
M  V30 1725 C 167.683 -0.383715 -4.26276 0
M  V30 1726 C 167.009 0.535014 -5.32017 0
M  V30 1727 C 168.309 -1.62201 -4.96476 0
M  V30 1728 H 170.003 -1.19007 -2.74732 0
M  V30 1729 H 167.549 -0.573698 -1.32078 0
M  V30 1730 H 169.502 0.813334 -4.13477 0
M  V30 1731 H 168.226 1.30553 -2.99372 0
M  V30 1732 H 166.885 -0.741874 -3.59015 0
M  V30 1733 H 166.533 1.40083 -4.831 0
M  V30 1734 H 166.233 -0.0104211 -5.87599 0
M  V30 1735 H 167.757 0.907799 -6.03814 0
M  V30 1736 H 169.171 -1.31689 -5.5797 0
M  V30 1737 H 167.568 -2.10711 -5.61891 0
M  V30 1738 H 168.638 -2.37044 -4.23011 0
M  V30 1739 N 169.982 1.44106 -0.638065 0
M  V30 1740 C 171.259 1.95453 -0.0759321 0
M  V30 1741 C 171.639 1.57984 1.40015 0
M  V30 1742 O 170.987 0.857361 2.11806 0
M  V30 1743 C 171.197 3.47655 -0.306132 0
M  V30 1744 C 172.545 4.24114 -0.203008 0
M  V30 1745 O 173.569 3.55405 -0.237871 0
M  V30 1746 O 172.428 5.46381 -0.113827 0
M  V30 1747 H 169.522 0.826797 0.0183332 0
M  V30 1748 H 172.068 1.54122 -0.710251 0
M  V30 1749 H 170.84 3.68 -1.3301 0
M  V30 1750 H 170.463 3.95949 0.361991 0
M  V30 1751 N 171.46 0.379036 1.52974 0
M  V30 1752 C 172.408 -0.476033 2.27677 0
M  V30 1753 C 173.402 -1.0719 1.31174 0
M  V30 1754 O 174.608 -1.01355 1.48752 0
M  V30 1755 H 170.983 -0.172255 0.732006 0
M  V30 1756 H 172.954 0.175615 2.97883 0
M  V30 1757 C 171.703 -1.5967 3.0887 0
M  V30 1758 H 171.026 -1.1475 3.82978 0
M  V30 1759 H 172.466 -2.16943 3.64296 0
M  V30 1760 C 170.925 -2.54682 2.20542 0
M  V30 1761 O 171.455 -3.57836 1.82527 0
M  V30 1762 N 169.661 -2.24183 1.84907 0
M  V30 1763 H 169.208 -1.40333 2.1602 0
M  V30 1764 H 169.166 -2.88006 1.26096 0
M  V30 1765 N 172.938 -1.57226 0.108567 0
M  V30 1766 C 173.868 -2.17778 -0.84232 0
M  V30 1767 C 174.849 -1.11487 -1.2847 0
M  V30 1768 O 176.034 -1.39681 -1.34918 0
M  V30 1769 C 173.164 -2.76888 -2.09644 0
M  V30 1770 C 172.118 -3.88669 -1.79221 0
M  V30 1771 C 171.444 -4.34541 -3.11574 0
M  V30 1772 C 172.744 -5.11251 -1.06864 0
M  V30 1773 H 174.438 -2.97489 -0.337774 0
M  V30 1774 H 171.984 -1.43097 -0.161025 0
M  V30 1775 H 173.937 -3.17904 -2.76614 0
M  V30 1776 H 172.661 -1.94451 -2.62405 0
M  V30 1777 H 171.32 -3.48213 -1.14644 0
M  V30 1778 H 170.968 -3.48977 -3.62249 0
M  V30 1779 H 170.668 -5.09914 -2.91996 0
M  V30 1780 H 172.192 -4.782 -3.7968 0
M  V30 1781 H 173.606 -5.49352 -1.63968 0
M  V30 1782 H 172.003 -5.9214 -0.974178 0
M  V30 1783 H 173.073 -4.8487 -0.0536168 0
M  V30 1784 N 174.416 0.165178 -1.56732 0
M  V30 1785 C 175.379 1.18822 -1.95995 0
M  V30 1786 C 176.379 1.3685 -0.84431 0
M  V30 1787 O 177.569 1.34152 -1.11126 0
M  V30 1788 C 174.701 2.5521 -2.26011 0
M  V30 1789 H 175.894 0.851825 -2.87548 0
M  V30 1790 H 173.447 0.407857 -1.50885 0
M  V30 1791 H 174.182 2.93852 -1.37191 0
M  V30 1792 H 173.967 2.43489 -3.07336 0
M  V30 1793 H 175.457 3.28927 -2.57288 0
M  V30 1794 N 175.894 1.51508 0.433938 0
M  V30 1795 C 177.31 1.39759 0.770682 0
M  V30 1796 C 177.51 0.482594 1.95636 0
M  V30 1797 O 176.566 -0.0609691 2.52426 0
M  V30 1798 C 177.879 2.81851 1.04787 0
M  V30 1799 C 179.427 2.91025 1.1521 0
M  V30 1800 C 179.902 4.34032 1.46219 0
M  V30 1801 N 181.393 4.37154 1.53136 0
M  V30 1802 C 182.128 5.4484 1.78709 0
M  V30 1803 N 181.624 6.62682 2.02051 0
M  V30 1804 N 183.417 5.32324 1.80519 0
M  V30 1805 H 175.568 2.09548 -0.346892 0
M  V30 1806 H 177.831 0.943446 -0.0928074 0
M  V30 1807 H 177.537 3.50815 0.249304 0
M  V30 1808 H 177.411 3.21386 1.97461 0
M  V30 1809 H 179.798 2.22257 1.94128 0
M  V30 1810 H 179.879 2.54983 0.204281 0
M  V30 1811 H 179.523 5.03351 0.678274 0
M  V30 1812 H 179.453 4.6759 2.42212 0
M  V30 1813 H 181.944 3.52197 1.36987 0
M  V30 1814 H 182.257 7.40543 2.20943 0
M  V30 1815 H 180.602 6.65791 1.99366 0
M  V30 1816 H 183.793 4.39246 1.61805 0
M  V30 1817 H 183.966 6.16328 2.00111 0
M  V30 1818 N 177.372 -0.689602 1.41712 0
M  V30 1819 C 178.304 -1.815 1.39966 0
M  V30 1820 C 179.317 -1.59995 0.300917 0
M  V30 1821 O 180.506 -1.69387 0.563039 0
M  V30 1822 C 177.606 -3.18364 1.16179 0
M  V30 1823 C 176.779 -3.66847 2.38206 0
M  V30 1824 C 175.838 -4.82398 2.10186 0
M  V30 1825 O 174.864 -4.93706 2.83272 0
M  V30 1826 N 176.066 -5.70064 1.0958 0
M  V30 1827 H 178.831 -1.83488 2.36965 0
M  V30 1828 H 176.392 -0.872149 1.36401 0
M  V30 1829 H 178.384 -3.93301 0.953756 0
M  V30 1830 H 176.954 -3.11365 0.27756 0
M  V30 1831 H 176.174 -2.82751 2.74673 0
M  V30 1832 H 177.462 -3.95978 3.19498 0
M  V30 1833 H 176.86 -5.63565 0.491019 0
M  V30 1834 H 175.417 -6.44874 0.947656 0
M  V30 1835 N 178.85 -1.27639 -0.924453 0
M  V30 1836 C 179.783 -1.04966 -2.02626 0
M  V30 1837 C 180.761 0.0309505 -1.62571 0
M  V30 1838 O 181.945 -0.114846 -1.8815 0
M  V30 1839 C 179.072 -0.59292 -3.3347 0
M  V30 1840 C 178.118 -1.66858 -3.92506 0
M  V30 1841 S 178.951 -3.2619 -4.24689 0
M  V30 1842 C 180.107 -2.82325 -5.58609 0
M  V30 1843 H 180.34 -1.98252 -2.21547 0
M  V30 1844 H 177.873 -1.11506 -1.06798 0
M  V30 1845 H 179.831 -0.336086 -4.09122 0
M  V30 1846 H 178.492 0.319939 -3.12466 0
M  V30 1847 H 177.685 -1.30038 -4.86935 0
M  V30 1848 H 177.287 -1.87766 -3.2345 0
M  V30 1849 H 179.579 -2.2783 -6.38044 0
M  V30 1850 H 180.522 -3.75511 -6.00331 0
M  V30 1851 H 180.93 -2.21367 -5.19285 0
M  V30 1852 N 180.328 1.1314 -1.09713 0
M  V30 1853 C 181.577 1.83838 -0.829851 0
M  V30 1854 C 181.89 1.84599 0.646728 0
M  V30 1855 O 183.096 2.51218 1.02965 0
M  V30 1856 C 181.552 3.30069 -1.43466 0
M  V30 1857 C 181.16 3.37688 -2.94399 0
M  V30 1858 C 182.904 4.05788 -1.24645 0
M  V30 1859 C 180.811 4.78209 -3.47952 0
M  V30 1860 H 179.741 0.68877 -0.306777 0
M  V30 1861 H 182.392 1.27448 -1.3202 0
M  V30 1862 H 180.774 3.8628 -0.871996 0
M  V30 1863 H 181.948 2.91456 -3.56918 0
M  V30 1864 H 180.263 2.75436 -3.12289 0
M  V30 1865 H 182.86 5.09535 -1.62107 0
M  V30 1866 H 183.203 4.15878 -0.187357 0
M  V30 1867 H 183.736 3.55915 -1.77678 0
M  V30 1868 H 180.475 4.73311 -4.53495 0
M  V30 1869 H 179.995 5.24924 -2.90198 0
M  V30 1870 H 181.674 5.47133 -3.45332 0
M  V30 1871 N 181.806 0.884767 1.30421 0
M  V30 1872 C 182.739 0.295999 2.26272 0
M  V30 1873 C 183.717 -0.58332 1.51777 0
M  V30 1874 O 184.901 -0.53346 1.80794 0
M  V30 1875 C 182.028 -0.57944 3.33707 0
M  V30 1876 C 181.074 0.230525 4.25877 0
M  V30 1877 S 181.907 1.61867 5.1045 0
M  V30 1878 C 183.063 0.749756 6.21393 0
M  V30 1879 H 183.296 1.10848 2.75862 0
M  V30 1880 H 180.829 0.684178 1.38414 0
M  V30 1881 H 182.787 -1.07879 3.96071 0
M  V30 1882 H 181.448 -1.36601 2.82841 0
M  V30 1883 H 180.641 -0.437542 5.02097 0
M  V30 1884 H 180.243 0.662493 3.68086 0
M  V30 1885 H 182.535 -0.0333547 6.77492 0
M  V30 1886 H 183.478 1.48356 6.92384 0
M  V30 1887 H 183.886 0.310751 5.63644 0
M  V30 1888 N 183.284 -1.43765 0.645699 0
M  V30 1889 C 184.231 -2.30745 -0.0504648 0
M  V30 1890 C 185.201 -1.4432 -0.822241 0
M  V30 1891 O 186.386 -1.73202 -0.800358 0
M  V30 1892 C 183.526 -3.29802 -1.0161 0
M  V30 1893 C 182.639 -4.31326 -0.241219 0
M  V30 1894 C 181.774 -5.17469 -1.19998 0
M  V30 1895 C 180.813 -6.10691 -0.415094 0
M  V30 1896 N 179.95 -6.89483 -1.32506 0
M  V30 1897 H 184.79 -2.8973 0.697155 0
M  V30 1898 H 182.327 -1.42738 0.355563 0
M  V30 1899 H 184.285 -3.85734 -1.58949 0
M  V30 1900 H 182.915 -2.72483 -1.73069 0
M  V30 1901 H 181.967 -3.77749 0.448334 0
M  V30 1902 H 183.279 -4.9743 0.369437 0
M  V30 1903 H 182.433 -5.7799 -1.84424 0
M  V30 1904 H 181.172 -4.51473 -1.84455 0
M  V30 1905 H 180.177 -5.49265 0.242565 0
M  V30 1906 H 181.402 -6.78727 0.224966 0
M  V30 1907 H 179.348 -6.26142 -1.95657 0
M  V30 1908 H 179.265 -7.52081 -0.768783 0
M  V30 1909 H 180.533 -7.54516 -1.9577 0
M  V30 1910 N 184.763 -0.387143 -1.52771 0
M  V30 1911 C 186.04 0.253197 -1.93954 0
M  V30 1912 C 186.42 1.64545 -1.32243 0
M  V30 1913 O 185.768 2.23191 -0.489699 0
M  V30 1914 C 185.978 0.281722 -3.47861 0
M  V30 1915 C 187.326 0.511715 -4.21505 0
M  V30 1916 O 188.35 0.362023 -3.54356 0
M  V30 1917 O 187.209 0.804847 -5.40541 0
M  V30 1918 H 184.303 0.156845 -0.811991 0
M  V30 1919 H 186.849 -0.441494 -1.63856 0
M  V30 1920 H 185.621 -0.693571 -3.85104 0
M  V30 1921 H 185.244 1.02142 -3.84256 0
M  V30 1922 N 186.241 1.57166 -0.116904 0
M  V30 1923 C 187.188 2.15202 0.83408 0
M  V30 1924 C 188.158 1.07644 1.26499 0
M  V30 1925 O 189.343 1.35541 1.34288 0
M  V30 1926 C 186.483 2.75405 2.07957 0
M  V30 1927 C 185.596 3.97264 1.69721 0
M  V30 1928 C 184.731 4.45561 2.89221 0
M  V30 1929 C 183.77 5.59956 2.47215 0
M  V30 1930 N 182.907 6.03006 3.59622 0
M  V30 1931 H 187.747 2.96141 0.332335 0
M  V30 1932 H 185.284 1.46309 0.152349 0
M  V30 1933 H 187.242 3.08439 2.80929 0
M  V30 1934 H 185.872 1.97159 2.55594 0
M  V30 1935 H 184.924 3.70404 0.866316 0
M  V30 1936 H 186.236 4.80226 1.34849 0
M  V30 1937 H 185.39 4.80493 3.7042 0
M  V30 1938 H 184.129 3.61544 3.27318 0
M  V30 1939 H 183.134 5.2463 1.64448 0
M  V30 1940 H 184.359 6.45738 2.10238 0
M  V30 1941 H 182.305 5.21931 3.97396 0
M  V30 1942 H 182.222 6.80819 3.28667 0
M  V30 1943 H 183.49 6.42576 4.41267 0
M  V30 1944 N 187.719 -0.156864 1.56817 0
M  V30 1945 C 188.667 -1.21319 1.98455 0
M  V30 1946 C 189.661 -1.45025 0.875444 0
M  V30 1947 O 190.867 -1.45435 1.0606 0
M  V30 1948 H 187.242 -0.408142 0.631605 0
M  V30 1949 H 189.213 -0.835244 2.86472 0
M  V30 1950 C 187.962 -2.54148 2.37285 0
M  V30 1951 H 187.285 -2.36733 3.22176 0
M  V30 1952 H 188.725 -3.26712 2.70251 0
M  V30 1953 C 187.184 -3.13967 1.22173 0
M  V30 1954 O 187.714 -3.98357 0.517149 0
M  V30 1955 N 185.92 -2.7327 0.988536 0
M  V30 1956 H 185.467 -2.04744 1.56326 0
M  V30 1957 H 185.425 -3.13628 0.220209 0
M  V30 1958 N 189.197 -1.51736 -0.425897 0
M  V30 1959 C 190.443 -1.66174 -1.17294 0
M  V30 1960 C 190.798 -0.37876 -1.88635 0
M  V30 1961 O 190.091 0.626021 -1.81084 0
M  V30 1962 C 190.285 -2.81103 -2.20717 0
M  V30 1963 C 190.114 -4.20453 -1.59529 0
M  V30 1964 C 188.884 -4.86225 -1.37525 0
M  V30 1965 C 191.082 -5.03146 -1.06528 0
M  V30 1966 N 189.064 -6.09657 -0.720537 0
M  V30 1967 C 190.435 -6.17674 -0.536506 0
M  V30 1968 C 192.49 -4.88594 -0.958127 0
M  V30 1969 C 191.193 -7.19245 0.0888917 0
M  V30 1970 C 193.219 -5.90383 -0.346608 0
M  V30 1971 C 192.581 -7.04191 0.171564 0
M  V30 1972 H 188.68 -0.661871 -0.416475 0
M  V30 1973 H 191.264 -1.88997 -0.467801 0
M  V30 1974 H 189.435 -2.59924 -2.88607 0
M  V30 1975 H 191.167 -2.84662 -2.87663 0
M  V30 1976 H 187.922 -4.44293 -1.64015 0
M  V30 1977 H 188.346 -6.75756 -0.410292 0
M  V30 1978 H 192.988 -4.0085 -1.34459 0
M  V30 1979 H 190.706 -8.06628 0.48746 0
M  V30 1980 H 194.292 -5.81194 -0.265451 0
M  V30 1981 H 193.172 -7.81606 0.637309 0
M  V30 1982 N 190.675 0.682077 -1.42076 0
M  V30 1983 C 191.625 1.78823 -1.41444 0
M  V30 1984 C 192.609 1.58323 -0.28681 0
M  V30 1985 O 193.801 1.68926 -0.528498 0
M  V30 1986 C 190.93 3.17232 -1.3122 0
M  V30 1987 C 190.016 3.4338 -2.489 0
M  V30 1988 N 190.407 3.40152 -3.7434 0
M  V30 1989 C 188.705 3.73986 -2.43003 0
M  V30 1990 C 189.406 3.65581 -4.52466 0
M  V30 1991 N 188.382 3.85989 -3.8277 0
M  V30 1992 H 192.184 1.7471 -2.36334 0
M  V30 1993 H 189.698 0.882622 -1.36321 0
M  V30 1994 H 191.695 3.96489 -1.2885 0
M  V30 1995 H 190.355 3.22547 -0.373263 0
M  V30 1996 H 191.366 3.20221 -4.07037 0
M  V30 1997 H 188.043 3.86591 -1.57651 0
M  V30 1998 H 189.433 3.69108 -5.61435 0
M  V30 1999 N 192.153 1.28127 0.917671 0
M  V30 2000 C 193.43 1.05761 1.64542 0
M  V30 2001 C 193.81 -0.404344 2.07191 0
M  V30 2002 O 193.158 -1.38963 1.81388 0
M  V30 2003 C 193.368 2.02857 2.83989 0
M  V30 2004 C 194.716 2.32786 3.551 0
M  V30 2005 O 195.74 2.0091 2.94132 0
M  V30 2006 O 194.599 2.87169 4.64969 0
M  V30 2007 H 191.693 0.403916 0.721652 0
M  V30 2008 H 194.239 1.39431 0.967322 0
M  V30 2009 H 193.011 3.01407 2.49538 0
M  V30 2010 H 192.634 1.69809 3.59514 0
M  V30 2011 N 193.631 -1.12557 1.10312 0
M  V30 2012 C 194.578 -2.18247 0.750781 0
M  V30 2013 C 195.548 -1.63853 -0.272293 0
M  V30 2014 O 196.733 -1.90195 -0.151862 0
M  V30 2015 C 193.873 -3.44591 0.187379 0
M  V30 2016 C 192.986 -4.13046 1.2656 0
M  V30 2017 C 192.121 -5.27034 0.663978 0
M  V30 2018 C 191.16 -5.87353 1.72287 0
M  V30 2019 N 190.297 -6.92757 1.1416 0
M  V30 2020 H 195.137 -2.47732 1.65628 0
M  V30 2021 H 192.674 -1.21629 0.827337 0
M  V30 2022 H 194.632 -4.16904 -0.157148 0
M  V30 2023 H 193.262 -3.15527 -0.681355 0
M  V30 2024 H 192.314 -3.38924 1.72727 0
M  V30 2025 H 193.626 -4.53947 2.06721 0
M  V30 2026 H 192.78 -6.06104 0.268824 0
M  V30 2027 H 191.519 -4.87407 -0.169082 0
M  V30 2028 H 190.524 -5.06971 2.12746 0
M  V30 2029 H 191.749 -6.29051 2.55875 0
M  V30 2030 H 189.695 -6.5517 0.329984 0
M  V30 2031 H 189.612 -7.3225 1.88007 0
M  V30 2032 H 190.88 -7.75658 0.772956 0
M  V30 2033 N 195.109 -0.891671 -1.2995 0
M  V30 2034 C 196.357 -0.512486 -1.95494 0
M  V30 2035 C 196.678 0.942776 -1.70695 0
M  V30 2036 O 195.948 1.66374 -1.03424 0
M  V30 2037 H 194.528 -0.186533 -0.723336 0
M  V30 2038 H 197.19 -1.13621 -1.58355 0
M  V30 2039 H 196.286 -0.688342 -3.04415 0
M  V30 2040 N 196.587 1.43421 -0.653314 0
M  V30 2041 C 197.519 2.29071 0.0769134 0
M  V30 2042 C 198.532 1.42513 0.787017 0
M  V30 2043 O 199.721 1.66449 0.644757 0
M  V30 2044 C 196.821 3.19436 1.13199 0
M  V30 2045 C 195.994 4.34533 0.500006 0
M  V30 2046 C 195.053 5.05771 1.45198 0
M  V30 2047 O 194.079 5.61037 0.960538 0
M  V30 2048 N 195.281 5.0928 2.78594 0
M  V30 2049 H 198.046 2.92382 -0.658235 0
M  V30 2050 H 195.607 1.54112 -0.496104 0
M  V30 2051 H 197.599 3.63958 1.76964 0
M  V30 2052 H 196.169 2.57724 1.7691 0
M  V30 2053 H 195.389 3.92925 -0.316738 0
M  V30 2054 H 196.677 5.08766 0.0588345 0
M  V30 2055 H 196.075 4.65751 3.2108 0
M  V30 2056 H 194.632 5.57519 3.37662 0
M  V30 2057 N 198.065 0.39524 1.52563 0
M  V30 2058 C 198.997 -0.472201 2.24283 0
M  V30 2059 C 200.01 -1.02178 1.26742 0
M  V30 2060 O 201.199 -0.923097 1.52778 0
M  V30 2061 C 198.299 -1.66775 2.95024 0
M  V30 2062 C 197.472 -1.2445 4.19322 0
M  V30 2063 C 196.531 -2.30539 4.7301 0
M  V30 2064 O 195.557 -1.91702 5.35947 0
M  V30 2065 N 196.759 -3.6253 4.53379 0
M  V30 2066 H 199.524 0.142282 2.99362 0
M  V30 2067 H 197.085 0.2219 1.60372 0
M  V30 2068 H 199.077 -2.37283 3.27839 0
M  V30 2069 H 197.647 -2.18845 2.23217 0
M  V30 2070 H 196.867 -0.368069 3.92478 0
M  V30 2071 H 198.155 -0.938457 5.0007 0
M  V30 2072 H 197.553 -3.96841 4.03154 0
M  V30 2073 H 196.11 -4.29055 4.90668 0
M  V30 2074 N 199.544 -1.57102 0.125237 0
M  V30 2075 C 200.774 -1.99472 -0.538015 0
M  V30 2076 C 201.182 -1.00395 -1.60366 0
M  V30 2077 O 200.525 0.0103875 -1.83697 0
M  V30 2078 C 200.587 -3.38262 -1.21734 0
M  V30 2079 C 200.251 -4.56021 -0.298897 0
M  V30 2080 C 201.248 -5.17817 0.464943 0
M  V30 2081 C 198.933 -5.01869 -0.208149 0
M  V30 2082 C 200.927 -6.23852 1.3072 0
M  V30 2083 C 198.614 -6.07763 0.637736 0
M  V30 2084 C 199.612 -6.68622 1.39403 0
M  V30 2085 O 199.3 -7.7247 2.22586 0
M  V30 2086 H 199.032 -0.659934 -0.146501 0
M  V30 2087 H 201.586 -2.04321 0.210267 0
M  V30 2088 H 199.816 -3.30185 -2.01282 0
M  V30 2089 H 201.505 -3.6488 -1.77813 0
M  V30 2090 H 202.271 -4.83308 0.404741 0
M  V30 2091 H 198.15 -4.54241 -0.786522 0
M  V30 2092 H 201.694 -6.71284 1.898 0
M  V30 2093 H 197.591 -6.41701 0.699309 0
M  V30 2094 H 198.359 -7.89595 2.15596 0
M  V30 2095 N 201.022 0.148545 -1.56898 0
M  V30 2096 C 202.438 0.501131 -1.51528 0
M  V30 2097 C 202.638 1.83458 -0.833399 0
M  V30 2098 O 201.694 2.49259 -0.40328 0
M  V30 2099 C 203.007 0.512864 -2.96294 0
M  V30 2100 C 204.555 0.598487 -3.07225 0
M  V30 2101 C 205.03 0.640897 -4.53494 0
M  V30 2102 N 206.521 0.703163 -4.57832 0
M  V30 2103 C 207.256 0.756935 -5.68382 0
M  V30 2104 N 206.752 0.770147 -6.88506 0
M  V30 2105 N 208.545 0.797698 -5.56411 0
M  V30 2106 H 200.696 -0.725532 -1.99624 0
M  V30 2107 H 202.959 -0.264358 -0.910395 0
M  V30 2108 H 202.665 -0.398691 -3.49433 0
M  V30 2109 H 202.539 1.35133 -3.52163 0
M  V30 2110 H 204.926 1.50046 -2.54106 0
M  V30 2111 H 205.007 -0.267093 -2.54402 0
M  V30 2112 H 204.651 -0.256915 -5.0725 0
M  V30 2113 H 204.581 1.52295 -5.04097 0
M  V30 2114 H 207.072 0.700314 -3.71354 0
M  V30 2115 H 207.385 0.812983 -7.68512 0
M  V30 2116 H 205.73 0.738049 -6.9107 0
M  V30 2117 H 208.921 0.784535 -4.61479 0
M  V30 2118 H 209.094 0.83614 -6.42583 0
M  V30 2119 N 202.5 1.5196 0.417844 0
M  V30 2120 C 203.448 1.75278 1.52907 0
M  V30 2121 C 204.442 0.619611 1.57662 0
M  V30 2122 O 205.648 0.801457 1.61173 0
M  V30 2123 H 202.023 0.554141 0.508362 0
M  V30 2124 H 203.994 2.68389 1.30422 0
M  V30 2125 C 202.743 1.91262 2.90369 0
M  V30 2126 H 202.066 2.77872 2.8745 0
M  V30 2127 H 203.506 2.11581 3.67436 0
M  V30 2128 C 201.965 0.677431 3.30019 0
M  V30 2129 O 202.495 -0.158799 4.01386 0
M  V30 2130 N 200.701 0.515851 2.85985 0
M  V30 2131 H 200.248 1.19744 2.28077 0
M  V30 2132 H 200.206 -0.309315 3.12875 0
M  V30 2133 N 203.978 -0.674533 1.42435 0
M  V30 2134 C 205.224 -1.43521 1.4413 0
M  V30 2135 C 205.579 -1.92316 0.0567773 0
M  V30 2136 O 204.872 -1.68008 -0.921076 0
M  V30 2137 C 205.066 -2.64767 2.40069 0
M  V30 2138 C 204.895 -2.27836 3.87713 0
M  V30 2139 C 203.665 -2.17183 4.56245 0
M  V30 2140 C 205.863 -1.89466 4.78129 0
M  V30 2141 N 203.845 -1.73358 5.88915 0
M  V30 2142 C 205.216 -1.56561 5.99907 0
M  V30 2143 C 207.271 -1.7646 4.65582 0
M  V30 2144 C 205.974 -1.11957 7.10534 0
M  V30 2145 C 208 -1.3326 5.76191 0
M  V30 2146 C 207.362 -1.0128 6.97081 0
M  V30 2147 H 203.461 -0.521656 0.582579 0
M  V30 2148 H 206.045 -0.778381 1.78464 0
M  V30 2149 H 204.216 -3.28139 2.07796 0
M  V30 2150 H 205.948 -3.3136 2.32342 0
M  V30 2151 H 202.703 -2.3626 4.10461 0
M  V30 2152 H 203.127 -1.53867 6.59283 0
M  V30 2153 H 207.769 -1.99831 3.72595 0
M  V30 2154 H 205.487 -0.873318 8.03367 0
M  V30 2155 H 209.073 -1.23717 5.68494 0
M  V30 2156 H 207.953 -0.683597 7.81215 0
M  V30 2157 N 205.456 -1.28612 -0.910864 0
M  V30 2158 C 206.703 -1.15934 -1.66029 0
M  V30 2159 C 207.031 0.291483 -1.92303 0
M  V30 2160 O 206.286 1.22816 -1.52364 0
M  V30 2161 C 206.585 -1.90624 -3.0232 0
M  V30 2162 C 206.251 -3.40405 -2.95695 0
M  V30 2163 C 204.913 -3.81255 -2.93595 0
M  V30 2164 C 207.265 -4.359 -2.85728 0
M  V30 2165 C 204.593 -5.15936 -2.79334 0
M  V30 2166 C 206.945 -5.70657 -2.73007 0
M  V30 2167 C 205.609 -6.10779 -2.69267 0
M  V30 2168 H 204.879 -0.424234 -0.607541 0
M  V30 2169 H 207.526 -1.5942 -1.06101 0
M  V30 2170 H 205.831 -1.39696 -3.6605 0
M  V30 2171 H 207.528 -1.78228 -3.59215 0
M  V30 2172 H 204.118 -3.07927 -2.98125 0
M  V30 2173 H 208.302 -4.053 -2.86436 0
M  V30 2174 H 203.558 -5.46146 -2.74835 0
M  V30 2175 H 207.732 -6.44311 -2.64264 0
M  V30 2176 H 205.359 -7.1509 -2.57974 0
M  V30 2177 N 206.934 1.1197 -1.10907 0
M  V30 2178 C 207.864 2.19928 -0.784473 0
M  V30 2179 C 208.845 1.6833 0.244726 0
M  V30 2180 O 210.03 1.93892 0.109418 0
M  V30 2181 C 207.16 3.46597 -0.220827 0
M  V30 2182 C 206.114 4.11376 -1.18127 0
M  V30 2183 C 205.44 5.32554 -0.478594 0
M  V30 2184 C 206.74 4.56945 -2.52979 0
M  V30 2185 H 208.434 2.47337 -1.68715 0
M  V30 2186 H 205.98 1.18879 -0.812642 0
M  V30 2187 H 207.933 4.21396 0.0184278 0
M  V30 2188 H 206.657 3.1863 0.717113 0
M  V30 2189 H 205.316 3.38564 -1.40606 0
M  V30 2190 H 204.964 5.00856 0.463976 0
M  V30 2191 H 204.664 5.76844 -1.11912 0
M  V30 2192 H 206.188 6.10096 -0.248 0
M  V30 2193 H 207.602 5.23093 -2.3462 0
M  V30 2194 H 205.999 5.1203 -3.12962 0
M  V30 2195 H 207.069 3.70676 -3.12614 0
M  V30 2196 N 208.412 0.89855 1.29475 0
M  V30 2197 C 209.359 0.373819 2.27753 0
M  V30 2198 C 210.329 -0.543444 1.56958 0
M  V30 2199 O 211.514 -0.468934 1.84948 0
M  V30 2200 C 208.654 -0.393648 3.42848 0
M  V30 2201 C 207.767 0.554379 4.28428 0
M  V30 2202 C 206.902 -0.230026 5.30702 0
M  V30 2203 C 205.941 0.712599 6.07938 0
M  V30 2204 N 205.078 -0.0373283 7.0209 0
M  V30 2205 H 209.918 1.21699 2.72017 0
M  V30 2206 H 207.455 0.611456 1.33789 0
M  V30 2207 H 209.413 -0.85466 4.08352 0
M  V30 2208 H 208.043 -1.20128 2.99615 0
M  V30 2209 H 207.095 1.13391 3.63107 0
M  V30 2210 H 208.407 1.27597 4.82204 0
M  V30 2211 H 207.561 -0.752288 6.02018 0
M  V30 2212 H 206.3 -0.984758 4.77654 0
M  V30 2213 H 205.305 1.24637 5.35486 0
M  V30 2214 H 206.53 1.46664 6.63074 0
M  V30 2215 H 204.476 -0.774348 6.51414 0
M  V30 2216 H 204.393 0.624374 7.53417 0
M  V30 2217 H 205.661 -0.539891 7.77628 0
M  V30 2218 N 209.89 -1.43072 0.660911 0
M  V30 2219 C 210.8 -2.34585 -0.0264163 0
M  V30 2220 C 211.816 -1.54316 -0.803898 0
M  V30 2221 O 212.992 -1.86939 -0.749391 0
M  V30 2222 C 210.057 -3.32689 -0.975639 0
M  V30 2223 C 209.118 -4.2886 -0.194236 0
M  V30 2224 C 208.351 -5.22278 -1.09825 0
M  V30 2225 O 208.574 -5.20299 -2.33763 0
M  V30 2226 O 207.508 -5.99228 -0.566513 0
M  V30 2227 H 211.334 -2.94869 0.727034 0
M  V30 2228 H 208.919 -1.43342 0.42111 0
M  V30 2229 H 210.801 -3.92995 -1.52094 0
M  V30 2230 H 209.476 -2.74898 -1.70918 0
M  V30 2231 H 208.383 -3.72011 0.394835 0
M  V30 2232 H 209.716 -4.89655 0.499899 0
M  V30 2233 N 211.368 -0.403325 -1.52352 0
M  V30 2234 C 212.615 0.174347 -2.01748 0
M  V30 2235 C 212.943 1.45636 -1.2892 0
M  V30 2236 O 212.198 1.9193 -0.382258 0
M  V30 2237 C 212.497 0.474665 -3.54234 0
M  V30 2238 C 212.163 -0.717458 -4.45155 0
M  V30 2239 C 210.825 -1.04447 -4.69728 0
M  V30 2240 C 213.177 -1.51432 -4.98716 0
M  V30 2241 C 210.505 -2.16963 -5.45109 0
M  V30 2242 C 212.857 -2.6302 -5.75329 0
M  V30 2243 C 211.521 -2.96213 -5.98175 0
M  V30 2244 H 210.791 0.0637981 -0.738248 0
M  V30 2245 H 213.438 -0.543553 -1.83624 0
M  V30 2246 H 211.743 1.27406 -3.70506 0
M  V30 2247 H 213.44 0.934496 -3.89959 0
M  V30 2248 H 210.03 -0.452596 -4.26204 0
M  V30 2249 H 214.214 -1.27491 -4.79645 0
M  V30 2250 H 209.47 -2.43034 -5.61021 0
M  V30 2251 H 213.644 -3.25158 -6.15829 0
M  V30 2252 H 211.271 -3.83516 -6.56368 0
M  V30 2253 N 212.846 1.57033 -0.133567 0
M  V30 2254 C 214.257 1.82593 0.389464 0
M  V30 2255 C 214.608 1.05156 1.6564 0
M  V30 2256 O 213.733 0.292644 2.14412 0
M  V30 2257 C 214.328 3.31204 0.713377 0
M  V30 2258 C 212.887 3.57393 1.18098 0
M  V30 2259 C 212.034 2.76598 0.197126 0
M  V30 2260 H 214.985 1.54598 -0.358481 0
M  V30 2261 H 215.006 3.46627 1.56939 0
M  V30 2262 H 214.518 3.87537 -0.2089 0
M  V30 2263 H 212.619 3.06433 2.11966 0
M  V30 2264 H 212.732 4.65915 1.11624 0
M  V30 2265 H 211.096 2.45257 0.687088 0
M  V30 2266 H 211.879 3.35697 -0.718504 0
M  V30 2267 N 214.325 -0.140222 1.56975 0
M  V30 2268 C 215.741 -0.493088 1.51792 0
M  V30 2269 C 215.941 -1.83013 0.843116 0
M  V30 2270 O 214.997 -2.49041 0.416493 0
M  V30 2271 C 216.31 -0.497144 2.96562 0
M  V30 2272 C 217.858 -0.582186 3.07538 0
M  V30 2273 C 218.333 -0.616838 4.53827 0
M  V30 2274 N 219.824 -0.678873 4.58198 0
M  V30 2275 C 220.559 -0.726782 5.68775 0
M  V30 2276 N 220.055 -0.733623 6.88905 0
M  V30 2277 N 221.848 -0.768179 5.56826 0
M  V30 2278 H 213.999 0.736108 1.99237 0
M  V30 2279 H 216.262 0.269182 0.90898 0
M  V30 2280 H 215.968 0.417217 3.49217 0
M  V30 2281 H 215.842 -1.33263 3.52875 0
M  V30 2282 H 218.229 -1.48697 2.54899 0
M  V30 2283 H 218.31 0.280581 2.54257 0
M  V30 2284 H 217.954 0.283812 5.07106 0
M  V30 2285 H 217.884 -1.49619 5.04898 0
M  V30 2286 H 220.375 -0.68061 3.7172 0
M  V30 2287 H 220.688 -0.772215 7.68932 0
M  V30 2288 H 219.033 -0.701389 6.91452 0
M  V30 2289 H 222.224 -0.760051 4.61888 0
M  V30 2290 H 222.397 -0.80205 6.43017 0
M  V30 2291 N 215.803 -1.52179 -0.40978 0
M  V30 2292 C 216.733 -1.78435 -1.5061 0
M  V30 2293 C 217.714 -0.635295 -1.57791 0
M  V30 2294 O 218.899 -0.880823 -1.73076 0
M  V30 2295 C 216.029 -1.93444 -2.88439 0
M  V30 2296 C 214.983 -3.09038 -2.96108 0
M  V30 2297 C 214.309 -3.09268 -4.36185 0
M  V30 2298 C 215.609 -4.48508 -2.67652 0
M  V30 2299 H 217.303 -2.70237 -1.28889 0
M  V30 2300 H 214.849 -1.30036 -0.618605 0
M  V30 2301 H 216.802 -2.10394 -3.65119 0
M  V30 2302 H 215.526 -0.983129 -3.11452 0
M  V30 2303 H 214.185 -2.91837 -2.21872 0
M  V30 2304 H 213.833 -2.11861 -4.56206 0
M  V30 2305 H 213.533 -3.86907 -4.42241 0
M  V30 2306 H 215.057 -3.28348 -5.14801 0
M  V30 2307 H 216.471 -4.65918 -3.34056 0
M  V30 2308 H 214.868 -5.28059 -2.85085 0
M  V30 2309 H 215.938 -4.56649 -1.63095 0
M  V30 2310 N 217.281 0.66697 -1.42791 0
M  V30 2311 C 218.228 1.7803 -1.4688 0
M  V30 2312 C 219.198 1.6299 -0.319919 0
M  V30 2313 O 220.383 1.83432 -0.525118 0
M  V30 2314 C 217.523 3.1611 -1.38451 0
M  V30 2315 C 216.636 3.42381 -2.63437 0
M  V30 2316 C 215.771 4.70232 -2.47094 0
M  V30 2317 C 214.81 4.89564 -3.67415 0
M  V30 2318 N 213.947 6.08661 -3.49966 0
M  V30 2319 H 218.787 1.7387 -2.42019 0
M  V30 2320 H 216.324 0.84868 -1.20149 0
M  V30 2321 H 218.282 3.95914 -1.31561 0
M  V30 2322 H 216.912 3.19374 -0.469033 0
M  V30 2323 H 215.964 2.56774 -2.80662 0
M  V30 2324 H 217.276 3.52557 -3.52853 0
M  V30 2325 H 216.43 5.5814 -2.37834 0
M  V30 2326 H 215.169 4.62353 -1.5518 0
M  V30 2327 H 214.174 4.00096 -3.77099 0
M  V30 2328 H 215.399 4.99282 -4.6032 0
M  V30 2329 H 213.345 6.0194 -2.60776 0
M  V30 2330 H 213.262 6.19733 -4.32975 0
M  V30 2331 H 214.53 6.99226 -3.44532 0
M  V30 2332 N 218.759 1.29093 0.90403 0
M  V30 2333 C 219.984 1.19809 1.69294 0
M  V30 2334 C 220.409 -0.238481 1.86582 0
M  V30 2335 O 219.767 -1.1723 1.383 0
M  V30 2336 C 219.815 1.91202 3.05736 0
M  V30 2337 O 218.919 1.22611 3.93752 0
M  V30 2338 H 218.26 0.415385 0.518027 0
M  V30 2339 H 220.79 1.70586 1.12967 0
M  V30 2340 H 220.8 1.99487 3.55906 0
M  V30 2341 H 219.475 2.95692 2.92471 0
M  V30 2342 H 218.052 1.22554 3.52186 0
M  V30 2343 N 220.237 -1.11381 1.11499 0
M  V30 2344 C 221.147 -2.21019 0.786628 0
M  V30 2345 C 222.163 -1.72597 -0.220507 0
M  V30 2346 O 223.339 -2.01321 -0.0565251 0
M  V30 2347 C 220.404 -3.459 0.235333 0
M  V30 2348 C 219.465 -4.09107 1.30115 0
M  V30 2349 C 218.698 -5.28027 0.776068 0
M  V30 2350 O 218.921 -5.6904 -0.393661 0
M  V30 2351 O 217.855 -5.81835 1.54114 0
M  V30 2352 H 221.681 -2.51521 1.70209 0
M  V30 2353 H 219.266 -1.19928 0.890928 0
M  V30 2354 H 221.148 -4.21346 -0.067715 0
M  V30 2355 H 219.823 -3.17049 -0.652828 0
M  V30 2356 H 218.73 -3.35391 1.65722 0
M  V30 2357 H 220.063 -4.42139 2.16273 0
M  V30 2358 N 221.715 -0.905404 -1.28997 0
M  V30 2359 C 222.645 -0.404212 -2.29975 0
M  V30 2360 C 223.626 0.523784 -1.61835 0
M  V30 2361 O 224.811 0.433298 -1.89304 0
M  V30 2362 C 221.941 0.364042 -3.45387 0
M  V30 2363 C 220.895 -0.474048 -4.25367 0
M  V30 2364 C 220.221 0.422045 -5.33032 0
M  V30 2365 C 221.521 -1.72696 -4.92923 0
M  V30 2366 H 223.215 -1.24807 -2.72146 0
M  V30 2367 H 220.761 -0.601585 -1.30832 0
M  V30 2368 H 222.714 0.725447 -4.15109 0
M  V30 2369 H 221.438 1.24174 -3.02074 0
M  V30 2370 H 220.097 -0.81786 -3.57361 0
M  V30 2371 H 219.745 1.29804 -4.85963 0
M  V30 2372 H 219.445 -0.135057 -5.87445 0
M  V30 2373 H 220.969 0.779517 -6.05604 0
M  V30 2374 H 222.383 -1.43495 -5.55051 0
M  V30 2375 H 220.78 -2.22582 -5.57295 0
M  V30 2376 H 221.85 -2.45964 -4.17887 0
M  V30 2377 N 223.193 1.4272 -0.668489 0
M  V30 2378 C 224.103 2.34596 0.0139753 0
M  V30 2379 C 225.119 1.5474 0.795703 0
M  V30 2380 O 226.295 1.87334 0.739466 0
M  V30 2381 C 223.36 3.33202 0.957982 0
M  V30 2382 C 222.421 4.28957 0.17149 0
M  V30 2383 C 221.654 5.22853 1.07053 0
M  V30 2384 O 221.877 5.21531 2.31001 0
M  V30 2385 O 220.811 5.9952 0.534727 0
M  V30 2386 H 224.637 2.9448 -0.742661 0
M  V30 2387 H 222.222 1.43117 -0.428705 0
M  V30 2388 H 224.104 3.93796 1.50008 0
M  V30 2389 H 222.779 2.758 1.69458 0
M  V30 2390 H 221.686 3.71796 -0.414558 0
M  V30 2391 H 223.019 4.89383 -0.52586 0
M  V30 2392 N 224.671 0.411399 1.52136 0
M  V30 2393 C 225.948 -0.222308 1.94333 0
M  V30 2394 C 226.328 -1.6242 1.34844 0
M  V30 2395 O 225.676 -2.22384 0.525145 0
M  V30 2396 C 225.886 -0.226345 3.48265 0
M  V30 2397 C 227.234 -0.444592 4.22266 0
M  V30 2398 O 228.258 -0.305602 3.54887 0
M  V30 2399 O 227.117 -0.718749 5.41753 0
M  V30 2400 H 224.211 -0.143907 0.814383 0
M  V30 2401 H 226.757 0.467506 1.63133 0
M  V30 2402 H 225.529 0.75475 3.83952 0
M  V30 2403 H 225.152 -0.960163 3.85832 0
M  V30 2404 N 226.149 -1.5696 0.141893 0
M  V30 2405 C 227.097 -2.17784 -0.816874 0
M  V30 2406 C 228.091 -1.1334 -1.25899 0
M  V30 2407 O 229.297 -1.316 -1.22806 0
M  V30 2408 H 225.672 -0.697278 -0.281615 0
M  V30 2409 H 227.643 -2.97087 -0.279621 0
M  V30 2410 C 226.392 -2.80983 -2.04802 0
M  V30 2411 H 225.715 -3.61062 -1.7168 0
M  V30 2412 H 227.155 -3.2705 -2.69841 0
M  V30 2413 C 225.614 -1.79228 -2.8527 0
M  V30 2414 O 226.144 -1.25962 -3.8144 0
M  V30 2415 N 224.35 -1.48647 -2.49704 0
M  V30 2416 H 223.897 -1.92155 -1.71564 0
M  V30 2417 H 223.855 -0.808115 -3.03837 0
M  V30 2418 N 227.627 0.131896 -1.57047 0
M  V30 2419 C 228.876 0.84044 -1.83356 0
M  V30 2420 C 229.189 1.81646 -0.725535 0
M  V30 2421 O 230.395 2.57025 -0.874659 0
M  V30 2422 C 228.851 1.54528 -3.25037 0
M  V30 2423 C 228.459 0.610902 -4.43815 0
M  V30 2424 C 230.203 2.23972 -3.60606 0
M  V30 2425 C 228.11 1.31823 -5.76521 0
M  V30 2426 H 227.04 0.317599 -0.683847 0
M  V30 2427 H 229.691 0.0931561 -1.83263 0
M  V30 2428 H 228.073 2.33873 -3.19561 0
M  V30 2429 H 229.247 -0.148407 -4.60561 0
M  V30 2430 H 227.562 0.0241016 -4.16393 0
M  V30 2431 H 230.159 2.77558 -4.57018 0
M  V30 2432 H 230.502 3.01173 -2.87403 0
M  V30 2433 H 231.035 1.51529 -3.6781 0
M  V30 2434 H 227.774 0.587771 -6.52859 0
M  V30 2435 H 227.294 2.04987 -5.63685 0
M  V30 2436 H 228.973 1.855 -6.19838 0
M  V30 2437 N 229.106 1.52395 0.401703 0
M  V30 2438 C 230.522 1.41363 0.740864 0
M  V30 2439 C 230.722 0.523982 1.94568 0
M  V30 2440 O 229.778 -0.00741204 2.52499 0
M  V30 2441 C 231.091 2.84011 0.987847 0
M  V30 2442 C 232.639 2.93404 1.09011 0
M  V30 2443 C 233.114 4.37036 1.3698 0
M  V30 2444 N 234.605 4.40304 1.43829 0
M  V30 2445 C 235.34 5.48508 1.67112 0
M  V30 2446 N 234.836 6.66819 1.87949 0
M  V30 2447 N 236.629 5.36034 1.69187 0
M  V30 2448 H 228.78 2.08765 -0.391262 0
M  V30 2449 H 231.043 0.941265 -0.112798 0
M  V30 2450 H 230.749 3.51265 0.174835 0
M  V30 2451 H 230.623 3.25502 1.906 0
M  V30 2452 H 233.01 2.26325 1.8937 0
M  V30 2453 H 233.091 2.55359 0.15015 0
M  V30 2454 H 232.735 5.04676 0.571353 0
M  V30 2455 H 232.665 4.72623 2.3224 0
M  V30 2456 H 235.156 3.55024 1.29486 0
M  V30 2457 H 235.469 7.45063 2.05185 0
M  V30 2458 H 233.814 6.6987 1.85199 0
M  V30 2459 H 237.005 4.42579 1.52451 0
M  V30 2460 H 237.178 6.20434 1.86993 0
M  V30 2461 N 230.584 -0.659388 1.43143 0
M  V30 2462 C 232 -0.974337 1.26407 0
M  V30 2463 C 232.2 -2.007 0.179341 0
M  V30 2464 O 231.256 -2.4856 -0.444295 0
M  V30 2465 C 232.569 -1.46447 2.62628 0
M  V30 2466 C 234.117 -1.58144 2.7011 0
M  V30 2467 C 234.592 -2.1055 4.06734 0
M  V30 2468 N 236.083 -2.17861 4.08767 0
M  V30 2469 C 236.818 -2.59519 5.1131 0
M  V30 2470 N 236.314 -3.00518 6.24228 0
M  V30 2471 N 238.107 -2.59404 4.98664 0
M  V30 2472 H 230.258 0.0240528 2.12386 0
M  V30 2473 H 232.521 -0.0518065 0.946583 0
M  V30 2474 H 232.227 -0.780123 3.42939 0
M  V30 2475 H 232.101 -2.44058 2.87603 0
M  V30 2476 H 234.488 -2.25682 1.90136 0
M  V30 2477 H 234.569 -0.589828 2.48907 0
M  V30 2478 H 234.213 -1.43616 4.87172 0
M  V30 2479 H 234.143 -3.10531 4.25298 0
M  V30 2480 H 236.634 -1.88975 3.27257 0
M  V30 2481 H 236.947 -3.31036 6.98309 0
M  V30 2482 H 235.292 -2.98337 6.2771 0
M  V30 2483 H 238.483 -2.26747 4.09516 0
M  V30 2484 H 238.656 -2.91548 5.78709 0
M  V30 2485 N 232.062 -1.29571 -0.897171 0
M  V30 2486 C 232.992 -1.17473 -2.01798 0
M  V30 2487 C 233.973 -0.068323 -1.69963 0
M  V30 2488 O 235.158 -0.248239 -1.92607 0
M  V30 2489 C 232.288 -0.853099 -3.36659 0
M  V30 2490 C 231.242 -1.9161 -3.82713 0
M  V30 2491 C 230.568 -1.44773 -5.14728 0
M  V30 2492 C 231.868 -3.32535 -4.02763 0
M  V30 2493 H 233.562 -2.11237 -2.12177 0
M  V30 2494 H 231.108 -1.01699 -1.01948 0
M  V30 2495 H 233.061 -0.755165 -4.14578 0
M  V30 2496 H 231.785 0.120236 -3.26379 0
M  V30 2497 H 230.444 -2.00346 -3.07013 0
M  V30 2498 H 230.092 -0.462995 -5.00865 0
M  V30 2499 H 229.792 -2.15865 -5.46513 0
M  V30 2500 H 231.316 -1.36334 -5.95185 0
M  V30 2501 H 232.73 -3.26626 -4.71156 0
M  V30 2502 H 231.127 -4.01607 -4.45905 0
M  V30 2503 H 232.197 -3.75326 -3.07016 0
M  V30 2504 N 233.54 1.10788 -1.12088 0
M  V30 2505 C 234.956 1.34691 -0.856186 0
M  V30 2506 C 235.156 1.94791 0.515615 0
M  V30 2507 O 234.212 2.18524 1.26505 0
M  V30 2508 C 235.525 2.27208 -1.9697 0
M  V30 2509 C 237.073 2.40755 -2.00016 0
M  V30 2510 C 237.548 3.36598 -3.1059 0
M  V30 2511 N 239.039 3.44164 -3.10008 0
M  V30 2512 C 239.774 4.18284 -3.92206 0
M  V30 2513 N 239.27 4.95322 -4.84384 0
M  V30 2514 N 241.063 4.13865 -3.80357 0
M  V30 2515 H 233.214 0.70144 -2.00483 0
M  V30 2516 H 235.477 0.371405 -0.872217 0
M  V30 2517 H 235.183 1.90251 -2.958 0
M  V30 2518 H 235.057 3.27485 -1.87172 0
M  V30 2519 H 237.444 2.76982 -1.01808 0
M  V30 2520 H 237.525 1.40305 -2.13888 0
M  V30 2521 H 237.169 3.01096 -4.09028 0
M  V30 2522 H 237.099 4.36918 -2.93956 0
M  V30 2523 H 239.59 2.8922 -2.43228 0
M  V30 2524 H 239.903 5.49267 -5.43623 0
M  V30 2525 H 238.248 4.94459 -4.884 0
M  V30 2526 H 241.439 3.52773 -3.07683 0
M  V30 2527 H 241.612 4.71372 -4.44649 0
M  V30 2528 N 235.018 0.912232 1.28515 0
M  V30 2529 C 235.981 0.404223 2.25607 0
M  V30 2530 C 236.981 -0.468602 1.53821 0
M  V30 2531 O 238.171 -0.271873 1.72065 0
M  V30 2532 C 235.303 -0.420653 3.38295 0
M  V30 2533 H 236.496 1.26188 2.7206 0
M  V30 2534 H 234.049 0.691495 1.40171 0
M  V30 2535 H 234.784 -1.29777 2.97201 0
M  V30 2536 H 234.569 0.204935 3.91564 0
M  V30 2537 H 236.059 -0.766971 4.10496 0
M  V30 2538 N 236.496 -1.42363 0.676048 0
M  V30 2539 C 237.426 -2.33497 0.0124832 0
M  V30 2540 C 238.407 -1.50748 -0.787981 0
M  V30 2541 O 239.592 -1.79346 -0.744884 0
M  V30 2542 C 236.722 -3.34377 -0.938582 0
M  V30 2543 C 235.676 -4.27289 -0.246622 0
M  V30 2544 C 235.002 -5.18386 -1.31071 0
M  V30 2545 C 236.302 -5.14916 0.875125 0
M  V30 2546 H 237.996 -2.89233 0.773593 0
M  V30 2547 H 235.542 -1.39073 0.37346 0
M  V30 2548 H 237.495 -3.97044 -1.41188 0
M  V30 2549 H 236.219 -2.76947 -1.73113 0
M  V30 2550 H 234.878 -3.66018 0.206456 0
M  V30 2551 H 234.526 -4.57282 -2.09528 0
M  V30 2552 H 234.226 -5.81378 -0.852839 0
M  V30 2553 H 235.75 -5.83929 -1.78492 0
M  V30 2554 H 237.164 -5.71262 0.482983 0
M  V30 2555 H 235.561 -5.86747 1.25887 0
M  V30 2556 H 236.631 -4.53242 1.72335 0
M  V30 2557 N 237.974 -0.419461 -1.51915 0
M  V30 2558 C 238.937 0.389116 -2.25873 0
M  V30 2559 C 239.937 0.964924 -1.28631 0
M  V30 2560 O 241.127 0.842179 -1.52489 0
M  V30 2561 C 238.259 1.54874 -3.03689 0
M  V30 2562 H 239.452 -0.258799 -2.98781 0
M  V30 2563 H 237.005 -0.172209 -1.55348 0
M  V30 2564 H 237.74 2.23323 -2.35154 0
M  V30 2565 H 237.525 1.14223 -3.75094 0
M  V30 2566 H 239.015 2.12046 -3.59759 0
M  V30 2567 N 239.452 1.56882 -0.150215 0
M  V30 2568 C 240.729 1.87844 0.545327 0
M  V30 2569 C 241.109 1.0567 1.82749 0
M  V30 2570 O 240.457 0.144442 2.28043 0
M  V30 2571 C 240.667 3.39526 0.80767 0
M  V30 2572 C 242.015 4.08814 1.14703 0
M  V30 2573 O 243.039 3.44723 0.896917 0
M  V30 2574 O 241.898 5.22004 1.61784 0
M  V30 2575 H 238.992 0.778677 0.278553 0
M  V30 2576 H 241.538 1.68666 -0.187068 0
M  V30 2577 H 240.31 3.91173 -0.0996096 0
M  V30 2578 H 239.933 3.64243 1.59413 0
M  V30 2579 N 240.93 -0.123565 1.57115 0
M  V30 2580 C 242.178 -0.83051 1.84247 0
M  V30 2581 C 242.499 -1.80629 0.73471 0
M  V30 2582 O 241.769 -1.94403 -0.241688 0
M  V30 2583 H 240.349 -0.309694 0.679778 0
M  V30 2584 H 243.011 -0.111976 1.94578 0
M  V30 2585 H 242.107 -1.37852 2.80006 0
M  V30 2586 N 242.408 -1.52605 -0.393616 0
M  V30 2587 C 243.654 -1.67672 -1.14079 0
M  V30 2588 C 243.987 -0.413121 -1.89755 0
M  V30 2589 O 243.262 0.588952 -1.85369 0
M  V30 2590 C 243.545 -2.9088 -2.12276 0
M  V30 2591 C 243.398 -4.27329 -1.40394 0
M  V30 2592 C 244.717 -3.09628 -3.12759 0
M  V30 2593 H 241.836 -0.610168 -0.413356 0
M  V30 2594 H 244.478 -1.85193 -0.424696 0
M  V30 2595 H 242.628 -2.76073 -2.73342 0
M  V30 2596 H 244.3 -4.53894 -0.82327 0
M  V30 2597 H 242.543 -4.2802 -0.705801 0
M  V30 2598 H 243.214 -5.09615 -2.12123 0
M  V30 2599 H 245.69 -3.23436 -2.61779 0
M  V30 2600 H 244.566 -3.97322 -3.78717 0
M  V30 2601 H 244.827 -2.23637 -3.81365 0
M  V30 2602 N 243.887 0.651787 -1.4349 0
M  V30 2603 C 244.819 1.77725 -1.44729 0
M  V30 2604 C 245.832 1.59141 -0.343231 0
M  V30 2605 O 247.021 1.67835 -0.607751 0
M  V30 2606 C 244.121 3.15172 -1.24579 0
M  V30 2607 C 243.294 3.60402 -2.47849 0
M  V30 2608 C 242.353 4.76656 -2.22902 0
M  V30 2609 O 241.379 4.86022 -2.96263 0
M  V30 2610 N 242.581 5.66958 -1.24656 0
M  V30 2611 H 245.346 1.77141 -2.41746 0
M  V30 2612 H 242.907 0.835678 -1.38665 0
M  V30 2613 H 244.899 3.90634 -1.0577 0
M  V30 2614 H 243.469 3.1052 -0.360015 0
M  V30 2615 H 242.689 2.75369 -2.82073 0
M  V30 2616 H 243.977 3.87368 -3.29884 0
M  V30 2617 H 243.375 5.62065 -0.640265 0
M  V30 2618 H 241.932 6.42135 -1.1183 0
M  V30 2619 N 245.365 1.30045 0.890287 0
M  V30 2620 C 246.312 1.15976 1.99545 0
M  V30 2621 C 247.282 0.0506202 1.66023 0
M  V30 2622 O 248.467 0.219847 1.89529 0
M  V30 2623 C 245.607 0.852054 3.34416 0
M  V30 2624 C 244.72 2.04255 3.80662 0
M  V30 2625 C 243.855 1.6734 5.04154 0
M  V30 2626 C 242.894 2.82916 5.42794 0
M  V30 2627 N 242.031 2.46333 6.57468 0
M  V30 2628 H 246.871 2.10524 2.10911 0
M  V30 2629 H 244.408 1.04749 1.03276 0
M  V30 2630 H 246.366 0.654296 4.12037 0
M  V30 2631 H 244.996 -0.0565502 3.2275 0
M  V30 2632 H 244.048 2.35172 2.98995 0
M  V30 2633 H 245.36 2.90826 4.05242 0
M  V30 2634 H 244.514 1.43908 5.89386 0
M  V30 2635 H 243.253 0.779308 4.81433 0
M  V30 2636 H 242.258 3.0702 4.56091 0
M  V30 2637 H 243.483 3.73004 5.6749 0
M  V30 2638 H 241.429 1.59423 6.36334 0
M  V30 2639 H 241.346 3.26436 6.81891 0
M  V30 2640 H 242.614 2.26244 7.45945 0
M  V30 2641 N 246.843 -1.10192 1.12674 0
M  V30 2642 C 248.089 -1.82475 0.884915 0
M  V30 2643 C 248.422 -1.85093 -0.58773 0
M  V30 2644 O 247.697 -1.3134 -1.43457 0
M  V30 2645 C 247.98 -3.29018 1.46353 0
M  V30 2646 C 247.833 -3.34718 3.00473 0
M  V30 2647 C 249.152 -4.25473 1.12519 0
M  V30 2648 H 246.271 -0.662492 0.322915 0
M  V30 2649 H 248.913 -1.2913 1.39375 0
M  V30 2650 H 247.063 -3.74576 1.03077 0
M  V30 2651 H 248.735 -2.97622 3.52447 0
M  V30 2652 H 246.978 -2.74541 3.35872 0
M  V30 2653 H 247.649 -4.37918 3.36053 0
M  V30 2654 H 250.125 -3.88161 1.499 0
M  V30 2655 H 249.001 -5.26365 1.55663 0
M  V30 2656 H 249.262 -4.42084 0.0377407 0
M  V30 2657 N 248.321 -0.919034 -1.28029 0
M  V30 2658 C 249.271 -0.382574 -2.24767 0
M  V30 2659 C 250.255 0.508286 -1.52661 0
M  V30 2660 O 251.447 0.347145 -1.73562 0
M  V30 2661 C 248.576 0.371432 -3.41285 0
M  V30 2662 C 247.662 -0.535449 -4.20706 0
M  V30 2663 N 248.053 -1.65141 -4.78082 0
M  V30 2664 C 246.351 -0.336824 -4.44726 0
M  V30 2665 C 247.052 -2.21475 -5.37888 0
M  V30 2666 N 246.028 -1.50537 -5.22341 0
M  V30 2667 H 249.83 -1.23477 -2.66703 0
M  V30 2668 H 247.344 -0.772299 -1.42861 0
M  V30 2669 H 249.341 0.772638 -4.09678 0
M  V30 2670 H 248.001 1.22066 -3.00882 0
M  V30 2671 H 249.012 -2.03392 -4.7629 0
M  V30 2672 H 245.689 0.47246 -4.14818 0
M  V30 2673 H 247.079 -3.15379 -5.93284 0
M  V30 2674 N 249.799 1.42003 -0.683588 0
M  V30 2675 C 250.746 2.30798 -0.0107309 0
M  V30 2676 C 251.716 1.4645 0.783688 0
M  V30 2677 O 252.901 1.75263 0.754156 0
M  V30 2678 C 250.041 3.3238 0.928306 0
M  V30 2679 C 249.154 4.31814 0.126776 0
M  V30 2680 C 248.289 5.20468 1.06236 0
M  V30 2681 C 247.328 6.11577 0.253035 0
M  V30 2682 N 246.465 6.92754 1.14179 0
M  V30 2683 H 251.305 2.8778 -0.773727 0
M  V30 2684 H 248.842 1.41745 -0.393283 0
M  V30 2685 H 250.8 3.89813 1.48666 0
M  V30 2686 H 249.43 2.76976 1.65783 0
M  V30 2687 H 248.482 3.76427 -0.54833 0
M  V30 2688 H 249.794 4.96276 -0.501192 0
M  V30 2689 H 248.948 5.82677 1.69035 0
M  V30 2690 H 247.687 4.56204 1.7242 0
M  V30 2691 H 246.692 5.48428 -0.388108 0
M  V30 2692 H 247.917 6.77892 -0.404839 0
M  V30 2693 H 245.863 6.3111 1.78987 0
M  V30 2694 H 245.78 7.53855 0.569111 0
M  V30 2695 H 247.048 7.59441 1.75697 0
M  V30 2696 N 251.277 0.427512 1.51691 0
M  V30 2697 C 252.525 -0.141948 2.01601 0
M  V30 2698 C 252.846 -1.44067 1.31414 0
M  V30 2699 O 252.116 -1.90763 0.445658 0
M  V30 2700 H 250.696 -0.0554468 0.744939 0
M  V30 2701 H 253.358 0.567968 1.86441 0
M  V30 2702 H 252.454 -0.324913 3.10404 0
M  V30 2703 N 252.755 -1.56801 0.158532 0
M  V30 2704 C 253.983 -2.00859 -0.496303 0
M  V30 2705 C 254.398 -1.03871 -1.57659 0
M  V30 2706 O 253.755 -0.0375165 -1.82461 0
M  V30 2707 C 253.806 -3.4479 -1.08638 0
M  V30 2708 O 253.527 -4.38072 -0.0492322 0
M  V30 2709 C 255.028 -4.04185 -1.8207 0
M  V30 2710 H 252.248 -0.65864 -0.128199 0
M  V30 2711 H 254.792 -2.02885 0.256506 0
M  V30 2712 H 252.947 -3.43579 -1.78975 0
M  V30 2713 H 253.361 -5.2227 -0.483102 0
M  V30 2714 H 254.835 -5.06857 -2.18633 0
M  V30 2715 H 255.312 -3.45549 -2.71095 0
M  V30 2716 H 255.918 -4.0906 -1.16405 0
M  V30 2717 N 254.233 0.115231 -1.57178 0
M  V30 2718 C 255.461 0.836437 -1.89239 0
M  V30 2719 C 255.876 1.73256 -0.750175 0
M  V30 2720 O 255.233 1.80357 0.278832 0
M  V30 2721 C 255.284 1.66671 -3.20785 0
M  V30 2722 O 255.005 0.806652 -4.3061 0
M  V30 2723 C 256.506 2.49274 -3.66575 0
M  V30 2724 H 253.726 0.240253 -0.626514 0
M  V30 2725 H 256.27 0.0984932 -2.04263 0
M  V30 2726 H 254.425 2.35737 -3.0742 0
M  V30 2727 H 254.839 1.37969 -5.06028 0
M  V30 2728 H 256.313 3.03055 -4.6137 0
M  V30 2729 H 256.79 3.26807 -2.93417 0
M  V30 2730 H 257.396 1.85443 -3.82741 0
M  V30 2731 N 255.711 1.52812 0.385517 0
M  V30 2732 C 256.96 1.67249 1.12741 0
M  V30 2733 C 257.273 0.4205 1.91027 0
M  V30 2734 O 258.479 0.445064 2.67827 0
M  V30 2735 C 256.935 2.95583 2.05326 0
M  V30 2736 C 256.543 4.27974 1.32447 0
M  V30 2737 C 258.287 3.19386 2.7963 0
M  V30 2738 C 256.194 5.47412 2.23818 0
M  V30 2739 H 255.124 0.6231 0.424573 0
M  V30 2740 H 257.775 1.79309 0.389924 0
M  V30 2741 H 256.157 2.77277 2.82725 0
M  V30 2742 H 257.331 4.56844 0.602495 0
M  V30 2743 H 255.646 4.10459 0.700885 0
M  V30 2744 H 258.243 4.05801 3.48181 0
M  V30 2745 H 258.586 2.34604 3.43899 0
M  V30 2746 H 259.119 3.38274 2.09322 0
M  V30 2747 H 255.858 6.34612 1.64157 0
M  V30 2748 H 255.378 5.22849 2.93921 0
M  V30 2749 H 257.057 5.81423 2.83824 0
M  V30 2750 N 257.189 -0.644168 1.43834 0
M  V30 2751 C 258.152 -1.73857 1.49353 0
M  V30 2752 C 259.152 -1.56315 0.377112 0
M  V30 2753 O 260.342 -1.62048 0.639226 0
M  V30 2754 C 257.474 -3.12819 1.35488 0
M  V30 2755 H 258.667 -1.70342 2.46827 0
M  V30 2756 H 256.22 -0.856652 1.30733 0
M  V30 2757 H 256.955 -3.2194 0.390569 0
M  V30 2758 H 256.74 -3.26958 2.16428 0
M  V30 2759 H 258.23 -3.92606 1.42302 0
M  V30 2760 N 258.668 -1.30515 -0.883378 0
M  V30 2761 C 259.616 -1.16941 -2.01066 0
M  V30 2762 C 260.61 -0.0809148 -1.69207 0
M  V30 2763 O 261.816 -0.241877 -1.78367 0
M  V30 2764 H 258.191 -0.361705 -0.659298 0
M  V30 2765 H 260.162 -2.12344 -2.09649 0
M  V30 2766 C 258.911 -0.879694 -3.36388 0
M  V30 2767 H 258.234 -1.70936 -3.61415 0
M  V30 2768 H 259.674 -0.82483 -4.159 0
M  V30 2769 C 258.133 0.417409 -3.34304 0
M  V30 2770 O 258.663 1.43843 -3.75063 0
M  V30 2771 N 256.869 0.429141 -2.87414 0
M  V30 2772 H 256.416 -0.402222 -2.5444 0
M  V30 2773 H 256.374 1.29696 -2.86403 0
M  V30 2774 N 260.146 1.09593 -1.13257 0
M  V30 2775 C 261.392 1.82003 -0.89458 0
M  V30 2776 C 261.725 1.85402 0.577906 0
M  V30 2777 O 261 1.32099 1.42759 0
M  V30 2778 C 261.283 3.28237 -1.48096 0
M  V30 2779 C 261.136 3.3312 -3.02244 0
M  V30 2780 C 262.455 4.24871 -1.14774 0
M  V30 2781 H 259.574 0.66077 -0.326424 0
M  V30 2782 H 262.216 1.28389 -1.40058 0
M  V30 2783 H 260.366 3.74024 -1.05062 0
M  V30 2784 H 262.038 2.95748 -3.54021 0
M  V30 2785 H 260.281 2.72756 -3.37323 0
M  V30 2786 H 260.952 4.3613 -3.38371 0
M  V30 2787 H 263.428 3.87361 -1.51957 0
M  V30 2788 H 262.304 5.25532 -1.58452 0
M  V30 2789 H 262.565 4.42058 -0.0611849 0
M  V30 2790 N 261.624 0.925811 1.2754 0
M  V30 2791 C 262.87 0.566092 1.94739 0
M  V30 2792 C 263.203 -0.890057 1.72603 0
M  V30 2793 O 262.478 -1.63467 1.05399 0
M  V30 2794 C 262.761 0.89054 3.48915 0
M  V30 2795 C 262.614 2.4003 3.80402 0
M  V30 2796 C 263.933 0.395101 4.38323 0
M  V30 2797 H 261.052 0.20714 0.707292 0
M  V30 2798 H 263.694 1.15725 1.50691 0
M  V30 2799 H 261.844 0.387452 3.86563 0
M  V30 2800 H 263.516 2.97494 3.52555 0
M  V30 2801 H 261.759 2.85028 3.2702 0
M  V30 2802 H 262.43 2.57785 4.8811 0
M  V30 2803 H 264.906 0.826241 4.07814 0
M  V30 2804 H 263.782 0.651086 5.45025 0
M  V30 2805 H 264.043 -0.704798 4.36446 0
M  V30 2806 N 263.102 -1.41638 0.69111 0
M  V30 2807 C 264.327 -2.06148 0.227583 0
M  V30 2808 C 264.752 -1.51652 -1.11281 0
M  V30 2809 O 264.11 -0.64164 -1.69566 0
M  V30 2810 C 264.158 -3.60095 0.190858 0
M  V30 2811 O 263.262 -4.03845 -0.835664 0
M  V30 2812 H 262.603 -0.654434 0.112306 0
M  V30 2813 H 265.133 -1.81484 0.944714 0
M  V30 2814 H 265.143 -4.07995 0.020207 0
M  V30 2815 H 263.818 -3.99129 1.16915 0
M  V30 2816 H 262.395 -3.67458 -0.63473 0
M  V30 2817 N 264.58 -0.43555 -1.51462 0
M  V30 2818 C 265.828 0.131254 -2.01673 0
M  V30 2819 C 266.149 1.43368 -1.32177 0
M  V30 2820 O 265.419 1.90524 -0.455769 0
M  V30 2821 H 263.999 0.0514954 -0.745223 0
M  V30 2822 H 266.661 -0.577847 -1.86137 0
M  V30 2823 H 265.757 0.308446 -3.10572 0
M  V30 2824 N 266.058 1.56714 -0.166846 0
M  V30 2825 C 267.283 2.01557 0.488833 0
M  V30 2826 C 267.708 1.0463 1.56314 0
M  V30 2827 O 267.066 0.0251304 1.81283 0
M  V30 2828 C 267.114 3.4503 1.04818 0
M  V30 2829 O 266.218 3.51163 2.16236 0
M  V30 2830 H 265.559 0.653516 0.117526 0
M  V30 2831 H 268.089 2.02818 -0.269421 0
M  V30 2832 H 268.099 3.84243 1.37191 0
M  V30 2833 H 266.774 4.15077 0.261572 0
M  V30 2834 H 265.351 3.23807 1.84942 0
M  V30 2835 N 267.536 -0.106894 1.57237 0
M  V30 2836 C 268.466 -1.13148 2.04254 0
M  V30 2837 C 269.447 -1.42476 0.929224 0
M  V30 2838 O 270.632 -1.52709 1.19973 0
M  V30 2839 C 267.762 -2.4545 2.45706 0
M  V30 2840 C 266.716 -2.30558 3.60592 0
M  V30 2841 C 266.042 -3.67931 3.87983 0
M  V30 2842 C 267.342 -1.75597 4.91897 0
M  V30 2843 H 269.036 -0.740374 2.90101 0
M  V30 2844 H 266.582 -0.354696 1.39563 0
M  V30 2845 H 268.535 -3.17389 2.77205 0
M  V30 2846 H 267.259 -2.86475 1.56843 0
M  V30 2847 H 265.918 -1.61067 3.29322 0
M  V30 2848 H 265.566 -4.06462 2.96306 0
M  V30 2849 H 265.266 -3.58817 4.65322 0
M  V30 2850 H 266.79 -4.41356 4.21945 0
M  V30 2851 H 268.204 -2.37364 5.21854 0
M  V30 2852 H 266.601 -1.77272 5.73319 0
M  V30 2853 H 267.671 -0.714451 4.79608 0
M  V30 2854 N 269.014 -1.53014 -0.377408 0
M  V30 2855 C 270.239 -1.72818 -1.14668 0
M  V30 2856 C 270.664 -0.450725 -1.8262 0
M  V30 2857 O 270.022 0.59439 -1.7128 0
M  V30 2858 C 270.07 -2.88627 -2.16164 0
M  V30 2859 O 269.174 -2.56409 -3.22998 0
M  V30 2860 H 268.515 -0.574301 -0.333278 0
M  V30 2861 H 271.045 -1.99853 -0.438152 0
M  V30 2862 H 271.055 -3.14455 -2.59966 0
M  V30 2863 H 269.73 -3.81294 -1.66095 0
M  V30 2864 H 268.307 -2.4136 -2.84253 0
M  V30 2865 N 270.492 0.636531 -1.44174 0
M  V30 2866 C 271.741 1.39213 -1.45954 0
M  V30 2867 C 272.054 1.95374 -0.0939119 0
M  V30 2868 O 273.26 2.71498 0.0107767 0
M  V30 2869 C 271.716 2.52025 -2.56927 0
M  V30 2870 C 271.324 2.024 -3.99673 0
M  V30 2871 C 273.068 3.29269 -2.67922 0
M  V30 2872 C 270.975 3.12521 -5.0208 0
M  V30 2873 H 269.905 0.523132 -0.542999 0
M  V30 2874 H 272.556 0.685349 -1.70221 0
M  V30 2875 H 270.938 3.25253 -2.25891 0
M  V30 2876 H 272.112 1.36073 -4.40251 0
M  V30 2877 H 270.427 1.37987 -3.92872 0
M  V30 2878 H 273.024 4.11352 -3.41605 0
M  V30 2879 H 273.367 3.78397 -1.73555 0
M  V30 2880 H 273.9 2.63129 -2.98342 0
M  V30 2881 H 270.639 2.68343 -5.98057 0
M  V30 2882 H 270.159 3.77507 -4.66099 0
M  V30 2883 H 271.838 3.77385 -5.25538 0
M  V30 2884 N 271.97 1.30982 0.876444 0
M  V30 2885 C 273.195 1.23373 1.66715 0
M  V30 2886 C 273.62 -0.19885 1.87046 0
M  V30 2887 O 272.978 -1.1427 1.40756 0
M  V30 2888 C 273.026 1.97644 3.01611 0
M  V30 2889 O 272.13 1.30935 3.91062 0
M  V30 2890 H 271.471 0.426279 0.509099 0
M  V30 2891 H 274.001 1.72944 1.09323 0
M  V30 2892 H 274.011 2.06992 3.51594 0
M  V30 2893 H 272.686 3.01829 2.86133 0
M  V30 2894 H 271.263 1.29996 3.49507 0
M  V30 2895 N 273.449 -1.08991 1.13837 0
M  V30 2896 C 274.674 -1.85551 0.926585 0
M  V30 2897 C 275.099 -1.80782 -0.519566 0
M  V30 2898 O 274.457 -1.18855 -1.36906 0
M  V30 2899 C 274.505 -3.31266 1.42462 0
M  V30 2900 O 273.609 -4.07822 0.612789 0
M  V30 2901 H 272.95 -0.575192 0.331738 0
M  V30 2902 H 275.48 -1.37604 1.51414 0
M  V30 2903 H 275.49 -3.82112 1.43019 0
M  V30 2904 H 274.165 -3.34052 2.47754 0
M  V30 2905 H 272.742 -3.66731 0.675463 0
M  V30 2906 N 274.927 -0.932562 -1.27047 0
M  V30 2907 C 276.175 -0.574422 -1.93765 0
M  V30 2908 C 276.496 0.887993 -1.73608 0
M  V30 2909 O 275.766 1.62999 -1.08665 0
M  V30 2910 H 274.346 -0.209451 -0.717035 0
M  V30 2911 H 277.008 -1.18601 -1.5466 0
M  V30 2912 H 276.104 -0.784841 -3.02071 0
M  V30 2913 N 276.405 1.4127 -0.698611 0
M  V30 2914 C 277.654 2.00408 -0.227949 0
M  V30 2915 C 277.967 1.55981 1.18023 0
M  V30 2916 O 279.173 2.07699 1.74852 0
M  V30 2917 C 277.629 3.58129 -0.356636 0
M  V30 2918 C 277.237 4.11536 -1.77037 0
M  V30 2919 C 278.981 4.24466 0.0540969 0
M  V30 2920 C 276.888 5.61701 -1.85055 0
M  V30 2921 H 275.818 0.749586 -0.0814657 0
M  V30 2922 H 278.469 1.61713 -0.867249 0
M  V30 2923 H 276.851 3.94442 0.350965 0
M  V30 2924 H 278.025 3.86636 -2.50698 0
M  V30 2925 H 276.34 3.57736 -2.13105 0
M  V30 2926 H 278.937 5.34698 0.0146723 0
M  V30 2927 H 279.28 4.01687 1.09332 0
M  V30 2928 H 279.813 3.93198 -0.603337 0
M  V30 2929 H 276.552 5.89312 -2.8704 0
M  V30 2930 H 276.072 5.88519 -1.15783 0
M  V30 2931 H 277.751 6.26524 -1.61484 0
M  V30 2932 N 277.883 0.443576 1.51229 0
M  V30 2933 C 278.813 -0.355142 2.30783 0
M  V30 2934 C 279.794 -1.0154 1.36468 0
M  V30 2935 O 280.979 -1.01785 1.65389 0
M  V30 2936 C 278.109 -1.45312 3.15439 0
M  V30 2937 C 277.063 -0.916002 4.18083 0
M  V30 2938 C 276.389 -2.1102 4.91299 0
M  V30 2939 C 277.689 0.0538602 5.22272 0
M  V30 2940 H 279.383 0.308767 2.97804 0
M  V30 2941 H 276.929 0.149937 1.43217 0
M  V30 2942 H 278.882 -2.01914 3.69876 0
M  V30 2943 H 277.606 -2.14541 2.46252 0
M  V30 2944 H 276.265 -0.372145 3.64706 0
M  V30 2945 H 275.913 -2.78882 4.18609 0
M  V30 2946 H 275.613 -1.75717 5.60712 0
M  V30 2947 H 277.137 -2.68164 5.48562 0
M  V30 2948 H 278.551 -0.422069 5.71744 0
M  V30 2949 H 276.948 0.319776 5.99247 0
M  V30 2950 H 278.018 0.98858 4.74716 0
M  V30 2951 N 279.361 -1.56624 0.175154 0
M  V30 2952 C 280.589 -2.01374 -0.474971 0
M  V30 2953 C 281.004 -1.05537 -1.56548 0
M  V30 2954 O 280.361 -0.0568668 -1.82411 0
M  V30 2955 C 280.412 -3.45923 -1.04975 0
M  V30 2956 O 280.133 -4.381 -0.00276605 0
M  V30 2957 C 281.634 -4.06093 -1.77773 0
M  V30 2958 H 278.854 -0.659962 -0.121206 0
M  V30 2959 H 281.398 -2.02601 0.27801 0
M  V30 2960 H 279.553 -3.45458 -1.75321 0
M  V30 2961 H 279.967 -5.22753 -0.427681 0
M  V30 2962 H 281.441 -5.09147 -2.13245 0
M  V30 2963 H 281.918 -3.48405 -2.67414 0
M  V30 2964 H 282.524 -4.10272 -1.12059 0
M  V30 2965 N 280.839 0.0985539 -1.57292 0
M  V30 2966 C 281.769 1.12064 -2.04851 0
M  V30 2967 C 282.75 1.41981 -0.936767 0
M  V30 2968 O 283.935 1.52071 -1.20781 0
M  V30 2969 C 281.065 2.44144 -2.47004 0
M  V30 2970 C 280.019 2.28643 -3.6181 0
M  V30 2971 C 279.345 3.65869 -3.89929 0
M  V30 2972 C 280.645 1.72986 -4.92822 0
M  V30 2973 H 282.339 0.724979 -2.9049 0
M  V30 2974 H 279.885 0.34729 -1.39749 0
M  V30 2975 H 281.838 3.15914 -2.78884 0
M  V30 2976 H 280.562 2.85639 -1.5836 0
M  V30 2977 H 279.221 1.59318 -3.30172 0
M  V30 2978 H 278.869 4.04885 -2.98458 0
M  V30 2979 H 278.569 3.56344 -4.67218 0
M  V30 2980 H 280.093 4.39112 -4.2428 0
M  V30 2981 H 281.507 2.34593 -5.23105 0
M  V30 2982 H 279.904 1.74229 -5.74251 0
M  V30 2983 H 280.974 0.689007 -4.7998 0
M  V30 2984 N 282.317 1.53212 0.369288 0
M  V30 2985 C 283.563 1.69466 1.11397 0
M  V30 2986 C 283.896 0.443257 1.89074 0
M  V30 2987 O 283.171 -0.559386 1.86282 0
M  V30 2988 C 283.454 2.9422 2.07621 0
M  V30 2989 C 283.307 4.29508 1.33577 0
M  V30 2990 C 284.626 3.14565 3.07794 0
M  V30 2991 H 281.745 0.616667 0.403597 0
M  V30 2992 H 284.387 1.85845 0.395179 0
M  V30 2993 H 282.537 2.80387 2.68916 0
M  V30 2994 H 284.209 4.55147 0.750955 0
M  V30 2995 H 282.452 4.29088 0.637618 0
M  V30 2996 H 283.123 5.12926 2.03989 0
M  V30 2997 H 285.599 3.2756 2.56601 0
M  V30 2998 H 284.475 4.03297 3.72348 0
M  V30 2999 H 284.736 2.29675 3.77759 0
M  V30 3000 N 283.795 -0.628877 1.44509 0
M  V30 3001 C 285.043 -1.38565 1.4712 0
M  V30 3002 C 285.364 -1.94712 0.105899 0
M  V30 3003 O 284.634 -1.75912 -0.862079 0
M  V30 3004 H 283.214 -0.514333 0.541729 0
M  V30 3005 H 285.876 -0.740018 1.80305 0
M  V30 3006 H 284.972 -2.21583 2.19789 0
M  V30 3007 N 285.273 -1.31445 -0.869486 0
M  V30 3008 C 286.206 -1.13465 -1.97992 0
M  V30 3009 C 287.184 -0.0380291 -1.62556 0
M  V30 3010 O 288.368 -0.194544 -1.87493 0
M  V30 3011 C 285.495 -0.733822 -3.30655 0
M  V30 3012 C 284.541 -1.83356 -3.85075 0
M  V30 3013 S 285.374 -3.43909 -4.10472 0
M  V30 3014 C 286.53 -3.05763 -5.46132 0
M  V30 3015 H 286.763 -2.07471 -2.1294 0
M  V30 3016 H 284.296 -1.15936 -1.01972 0
M  V30 3017 H 286.254 -0.509306 -4.07328 0
M  V30 3018 H 284.915 0.187123 -3.13542 0
M  V30 3019 H 284.108 -1.50574 -4.80982 0
M  V30 3020 H 283.71 -2.01315 -3.15195 0
M  V30 3021 H 286.002 -2.54686 -6.27807 0
M  V30 3022 H 286.945 -4.00635 -5.83864 0
M  V30 3023 H 287.353 -2.43192 -5.09429 0
M  V30 3024 N 286.751 1.08385 -1.14413 0
M  V30 3025 C 287.999 1.80419 -0.910679 0
M  V30 3026 C 288.32 1.86658 0.564243 0
M  V30 3027 O 287.59 1.35985 1.41014 0
M  V30 3028 H 286.17 0.668204 -0.333934 0
M  V30 3029 H 288.832 1.31037 -1.44275 0
M  V30 3030 H 287.928 2.83238 -1.31082 0
M  V30 3031 N 288.23 0.939286 1.26551 0
M  V30 3032 C 289.16 0.465044 2.28822 0
M  V30 3033 C 290.141 -0.480692 1.63167 0
M  V30 3034 O 291.326 -0.382955 1.90387 0
M  V30 3035 C 288.456 -0.27234 3.46231 0
M  V30 3036 C 287.41 0.58666 4.2396 0
M  V30 3037 C 286.736 -0.280573 5.33963 0
M  V30 3038 C 288.036 1.85704 4.88171 0
M  V30 3039 H 289.73 1.31979 2.68741 0
M  V30 3040 H 287.276 0.636061 1.29191 0
M  V30 3041 H 289.229 -0.615133 4.16886 0
M  V30 3042 H 287.953 -1.16121 3.0526 0
M  V30 3043 H 286.612 0.91232 3.55067 0
M  V30 3044 H 286.26 -1.16874 4.89234 0
M  V30 3045 H 285.96 0.29076 5.8688 0
M  V30 3046 H 287.484 -0.618678 6.07458 0
M  V30 3047 H 288.898 1.58161 5.51052 0
M  V30 3048 H 287.295 2.37279 5.51197 0
M  V30 3049 H 288.365 2.56957 4.11219 0
M  V30 3050 N 289.708 -1.40897 0.706093 0
M  V30 3051 C 290.671 -2.29131 0.0562841 0
M  V30 3052 C 291.671 -1.44901 -0.697166 0
M  V30 3053 O 292.861 -1.65926 -0.530484 0
M  V30 3054 C 289.993 -3.27957 -0.93043 0
M  V30 3055 H 291.186 -2.88091 0.833284 0
M  V30 3056 H 288.739 -1.4906 0.470192 0
M  V30 3057 H 289.474 -2.73997 -1.73482 0
M  V30 3058 H 289.259 -3.90124 -0.393166 0
M  V30 3059 H 290.749 -3.94049 -1.38256 0
M  V30 3060 N 291.186 -0.45159 -1.50991 0
M  V30 3061 C 292.597 0.00818571 -1.86698 0
M  V30 3062 C 292.948 1.40661 -1.3678 0
M  V30 3063 O 292.073 2.0391 -0.724546 0
M  V30 3064 C 292.668 0.0216303 -3.38793 0
M  V30 3065 C 291.227 0.425865 -3.73983 0
M  V30 3066 C 290.374 -0.372163 -2.74791 0
M  V30 3067 H 293.325 -0.666785 -1.44013 0
M  V30 3068 H 293.346 0.828078 -3.7138 0
M  V30 3069 H 292.858 -0.996288 -3.75094 0
M  V30 3070 H 290.959 1.44886 -3.43277 0
M  V30 3071 H 291.072 0.140761 -4.78893 0
M  V30 3072 H 289.436 0.171498 -2.54122 0
M  V30 3073 H 290.219 -1.38922 -3.13935 0
M  V30 3074 N 292.664 1.56529 -0.183458 0
M  V30 3075 C 293.911 1.97244 0.458357 0
M  V30 3076 C 294.239 1.06992 1.62428 0
M  V30 3077 O 293.494 0.106542 1.9541 0
M  V30 3078 C 293.793 3.43939 0.971637 0
M  V30 3079 C 293.459 4.5083 -0.0796784 0
M  V30 3080 C 292.121 4.79786 -0.368584 0
M  V30 3081 C 294.473 5.15138 -0.792638 0
M  V30 3082 C 291.801 5.70345 -1.37563 0
M  V30 3083 C 294.153 6.06784 -1.78875 0
M  V30 3084 C 292.817 6.34102 -2.08497 0
M  V30 3085 H 292.087 0.721768 0.167725 0
M  V30 3086 H 294.734 1.89472 -0.277976 0
M  V30 3087 H 293.039 3.48724 1.78602 0
M  V30 3088 H 294.736 3.72791 1.47744 0
M  V30 3089 H 291.326 4.28317 0.155668 0
M  V30 3090 H 295.51 4.92868 -0.582659 0
M  V30 3091 H 290.766 5.89789 -1.61118 0
M  V30 3092 H 294.94 6.55677 -2.3465 0
M  V30 3093 H 292.567 7.04074 -2.86678 0
M  V30 3094 N 294.142 -0.090211 1.57342 0
M  V30 3095 C 295.37 -0.806224 1.90546 0
M  V30 3096 C 295.785 -1.72041 0.777644 0
M  V30 3097 O 295.142 -1.80778 -0.250103 0
M  V30 3098 C 295.193 -1.61546 3.23396 0
M  V30 3099 O 294.914 -0.738043 4.31839 0
M  V30 3100 C 296.415 -2.4341 3.70495 0
M  V30 3101 H 293.635 -0.230256 0.630257 0
M  V30 3102 H 296.179 -0.0659843 2.04394 0
M  V30 3103 H 294.334 -2.30816 3.11131 0
M  V30 3104 H 294.748 -1.29901 5.08159 0
M  V30 3105 H 296.222 -2.95676 4.66133 0
M  V30 3106 H 296.699 -3.22098 2.98579 0
M  V30 3107 H 297.305 -1.79331 3.85643 0
M  V30 3108 N 295.62 -1.53406 -0.361157 0
M  V30 3109 C 296.53 -1.83122 -1.4664 0
M  V30 3110 C 297.546 -0.719943 -1.58407 0
M  V30 3111 O 298.722 -1.01046 -1.74218 0
M  V30 3112 C 295.787 -2.01891 -2.81853 0
M  V30 3113 C 294.848 -3.25784 -2.79577 0
M  V30 3114 C 294.081 -3.43648 -4.0834 0
M  V30 3115 O 294.304 -2.65714 -5.0473 0
M  V30 3116 O 293.238 -4.37018 -4.13883 0
M  V30 3117 H 297.064 -2.7703 -1.24451 0
M  V30 3118 H 294.649 -1.38841 -0.551678 0
M  V30 3119 H 296.531 -2.15782 -3.61962 0
M  V30 3120 H 295.206 -1.11173 -3.0401 0
M  V30 3121 H 294.113 -3.17312 -1.98151 0
M  V30 3122 H 295.446 -4.16439 -2.62373 0
M  V30 3123 N 297.098 0.621204 -1.44841 0
M  V30 3124 C 298.346 1.37783 -1.47852 0
M  V30 3125 C 298.667 1.94653 -0.116224 0
M  V30 3126 O 297.937 1.76367 0.852737 0
M  V30 3127 H 296.517 0.511453 -0.544449 0
M  V30 3128 H 299.179 0.730446 -1.80694 0
M  V30 3129 H 298.275 2.20414 -2.20961 0
M  V30 3130 N 298.576 1.31904 0.862503 0
M  V30 3131 C 299.824 1.21776 1.61292 0
M  V30 3132 C 300.145 -0.222413 1.93727 0
M  V30 3133 O 299.415 -1.1451 1.58947 0
M  V30 3134 H 297.995 0.447717 0.597962 0
M  V30 3135 H 300.657 1.65326 1.03215 0
M  V30 3136 H 299.753 1.7948 2.5533 0
M  V30 3137 N 300.054 -1.07777 1.14986 0
M  V30 3138 C 301.279 -1.84558 0.946213 0
M  V30 3139 C 301.704 -1.81323 -0.500362 0
M  V30 3140 O 301.062 -1.20301 -1.35637 0
M  V30 3141 C 301.11 -3.29736 1.45968 0
M  V30 3142 O 300.214 -4.07149 0.65601 0
M  V30 3143 H 299.555 -0.571641 0.33782 0
M  V30 3144 H 302.085 -1.35991 1.52865 0
M  V30 3145 H 302.095 -3.80574 1.47063 0
M  V30 3146 H 300.77 -3.31406 2.51283 0
M  V30 3147 H 299.347 -3.65994 0.714322 0
M  V30 3148 N 301.532 -0.945985 -1.26051 0
M  V30 3149 C 302.462 -0.477172 -2.28572 0
M  V30 3150 C 303.443 0.472032 -1.63419 0
M  V30 3151 O 304.628 0.372853 -1.90587 0
M  V30 3152 C 301.758 0.253975 -3.4637 0
M  V30 3153 C 300.712 -0.609135 -4.23643 0
M  V30 3154 C 300.038 0.252252 -5.34105 0
M  V30 3155 C 301.338 -1.8829 -4.8718 0
M  V30 3156 H 303.032 -1.33402 -2.68038 0
M  V30 3157 H 300.578 -0.642904 -1.28852 0
M  V30 3158 H 302.531 0.593016 -4.17207 0
M  V30 3159 H 301.255 1.145 -3.05871 0
M  V30 3160 H 299.914 -0.931138 -3.54578 0
M  V30 3161 H 299.562 1.14278 -4.89846 0
M  V30 3162 H 299.262 -0.32188 -5.86718 0
M  V30 3163 H 300.786 0.586454 -6.07777 0
M  V30 3164 H 302.2 -1.61081 -5.50205 0
M  V30 3165 H 300.597 -2.40199 -5.49931 0
M  V30 3166 H 301.667 -2.59134 -4.09851 0
M  V30 3167 N 303.011 1.40521 -0.713556 0
M  V30 3168 C 304.257 2.01221 -0.252564 0
M  V30 3169 C 304.59 1.56444 1.1506 0
M  V30 3170 O 303.865 0.783597 1.78017 0
M  V30 3171 C 304.148 3.58582 -0.330332 0
M  V30 3172 C 304.001 4.13437 -1.77173 0
M  V30 3173 C 305.32 4.39079 0.299641 0
M  V30 3174 H 302.439 0.731077 -0.0932471 0
M  V30 3175 H 305.081 1.67026 -0.905673 0
M  V30 3176 H 303.231 3.87844 0.225737 0
M  V30 3177 H 304.903 3.9498 -2.38303 0
M  V30 3178 H 303.146 3.67801 -2.3001 0
M  V30 3179 H 303.817 5.22597 -1.77755 0
M  V30 3180 H 306.293 4.15735 -0.174139 0
M  V30 3181 H 305.169 5.4848 0.214771 0
M  V30 3182 H 305.43 4.19915 1.38288 0
M  V30 3183 N 304.489 0.459591 1.5075 0
M  V30 3184 C 305.419 -0.330644 2.31147 0
M  V30 3185 C 306.4 -1.00087 1.37538 0
M  V30 3186 O 307.585 -1.00025 1.66459 0
M  V30 3187 C 304.715 -1.41958 3.16962 0
M  V30 3188 C 303.669 -0.871608 4.19031 0
M  V30 3189 C 302.995 -2.05797 4.9351 0
M  V30 3190 C 304.295 0.109251 5.22186 0
M  V30 3191 H 305.989 0.340336 2.97459 0
M  V30 3192 H 303.535 0.165119 1.4305 0
M  V30 3193 H 305.488 -1.9798 3.71997 0
M  V30 3194 H 304.212 -2.11917 2.48513 0
M  V30 3195 H 302.871 -0.333442 3.6508 0
M  V30 3196 H 302.519 -2.74427 4.21544 0
M  V30 3197 H 302.219 -1.6976 5.62544 0
M  V30 3198 H 303.743 -2.62331 5.51375 0
M  V30 3199 H 305.157 -0.361405 5.7216 0
M  V30 3200 H 303.554 0.383316 5.98875 0
M  V30 3201 H 304.624 1.03887 4.73641 0
M  V30 3202 N 305.967 -1.56429 0.191757 0
M  V30 3203 C 306.897 -2.21937 -0.725696 0
M  V30 3204 C 307.878 -1.1814 -1.2238 0
M  V30 3205 O 309.063 -1.46636 -1.27325 0
M  V30 3206 C 306.193 -2.87611 -1.94672 0
M  V30 3207 C 305.147 -3.97623 -1.58366 0
M  V30 3208 C 304.473 -4.50446 -2.88102 0
M  V30 3209 C 305.773 -5.16197 -0.796133 0
M  V30 3210 H 307.467 -2.98861 -0.179606 0
M  V30 3211 H 305.013 -1.43749 -0.0849464 0
M  V30 3212 H 306.966 -3.3212 -2.59373 0
M  V30 3213 H 305.69 -2.08087 -2.51728 0
M  V30 3214 H 304.349 -3.53801 -0.960247 0
M  V30 3215 H 303.997 -3.67688 -3.43241 0
M  V30 3216 H 303.697 -5.24675 -2.64556 0
M  V30 3217 H 305.221 -4.97654 -3.53798 0
M  V30 3218 H 306.635 -5.57271 -1.34618 0
M  V30 3219 H 305.032 -5.96471 -0.658928 0
M  V30 3220 H 306.102 -4.84473 0.203478 0
M  V30 3221 N 307.445 0.0818655 -1.57387 0
M  V30 3222 C 308.355 1.11642 -2.06333 0
M  V30 3223 C 309.371 1.43033 -0.99083 0
M  V30 3224 O 310.547 1.53411 -1.30488 0
M  V30 3225 C 307.612 2.41342 -2.48907 0
M  V30 3226 C 306.673 2.17014 -3.7041 0
M  V30 3227 C 305.906 3.4053 -4.10944 0
M  V30 3228 O 306.129 4.4927 -3.51444 0
M  V30 3229 O 305.063 3.29336 -5.03807 0
M  V30 3230 H 308.889 0.730657 -2.9478 0
M  V30 3231 H 306.474 0.295301 -1.46452 0
M  V30 3232 H 308.356 3.17691 -2.76858 0
M  V30 3233 H 307.031 2.79319 -1.63593 0
M  V30 3234 H 305.938 1.38403 -3.47556 0
M  V30 3235 H 307.271 1.83923 -4.56545 0
M  V30 3236 N 308.923 1.53595 0.353017 0
M  V30 3237 C 310.334 1.61937 0.929153 0
M  V30 3238 C 310.685 0.494686 1.89861 0
M  V30 3239 O 309.81 -0.377017 2.1309 0
M  V30 3240 C 310.405 2.93526 1.69199 0
M  V30 3241 C 308.964 3.04161 2.21727 0
M  V30 3242 C 308.111 2.57322 1.03348 0
M  V30 3243 H 311.062 1.58155 0.131431 0
M  V30 3244 H 311.083 2.82034 2.55416 0
M  V30 3245 H 310.595 3.75362 0.986144 0
M  V30 3246 H 308.696 2.26938 2.95516 0
M  V30 3247 H 308.809 4.09465 2.48748 0
M  V30 3248 H 307.173 2.12499 1.40414 0
M  V30 3249 H 307.956 3.41588 0.342428 0
M  V30 3250 N 310.401 -0.613514 1.45168 0
M  V30 3251 C 311.649 -1.36997 1.48581 0
M  V30 3252 C 311.97 -1.94589 0.126545 0
M  V30 3253 O 311.24 -1.76816 -0.843372 0
M  V30 3254 H 309.82 -0.508558 0.547154 0
M  V30 3255 H 312.482 -0.720853 1.81079 0
M  V30 3256 H 311.578 -2.1924 2.22127 0
M  V30 3257 N 311.879 -1.3236 -0.855495 0
M  V30 3258 C 312.812 -1.15559 -1.96777 0
M  V30 3259 C 313.79 -0.0552681 -1.62506 0
M  V30 3260 O 314.974 -0.214419 -1.87277 0
M  V30 3261 C 312.101 -0.768851 -3.29858 0
M  V30 3262 C 311.147 -1.87429 -3.83109 0
M  V30 3263 S 311.98 -3.48243 -4.06801 0
M  V30 3264 C 313.136 -3.11539 -5.42858 0
M  V30 3265 H 313.369 -2.09717 -2.10727 0
M  V30 3266 H 310.902 -1.17011 -1.00737 0
M  V30 3267 H 312.86 -0.55248 -4.06765 0
M  V30 3268 H 311.521 0.153857 -3.13723 0
M  V30 3269 H 310.714 -1.55667 -4.79358 0
M  V30 3270 H 310.316 -2.04647 -3.13042 0
M  V30 3271 H 312.608 -2.61331 -6.2507 0
M  V30 3272 H 313.551 -4.06806 -5.79582 0
M  V30 3273 H 313.959 -2.48582 -5.06821 0
M  V30 3274 N 313.357 1.07166 -1.15556 0
M  V30 3275 C 314.267 2.17947 -0.868116 0
M  V30 3276 C 315.283 1.73297 0.156297 0
M  V30 3277 O 316.459 2.01392 -0.0182327 0
M  V30 3278 C 313.524 3.44789 -0.36355 0
M  V30 3279 C 312.585 4.03996 -1.45209 0
M  V30 3280 C 311.818 5.24783 -0.971508 0
M  V30 3281 O 312.041 5.70109 0.182194 0
M  V30 3282 O 310.975 5.75715 -1.75603 0
M  V30 3283 H 314.801 2.4503 -1.79427 0
M  V30 3284 H 312.386 1.16539 -0.934824 0
M  V30 3285 H 314.268 4.21307 -0.0887113 0
M  V30 3286 H 312.943 3.19253 0.534708 0
M  V30 3287 H 311.85 3.29009 -1.78056 0
M  V30 3288 H 313.183 4.33808 -2.32533 0
M  V30 3289 N 314.835 0.952656 1.25548 0
M  V30 3290 C 315.765 0.489287 2.28316 0
M  V30 3291 C 316.746 -0.463359 1.63667 0
M  V30 3292 O 317.931 -0.36274 1.90782 0
M  V30 3293 C 315.061 -0.235603 3.465 0
M  V30 3294 C 314.015 0.631593 4.23314 0
M  V30 3295 C 313.341 -0.223923 5.34231 0
M  V30 3296 C 314.641 1.90871 4.86174 0
M  V30 3297 H 316.335 1.34822 2.67326 0
M  V30 3298 H 313.881 0.649728 1.28509 0
M  V30 3299 H 315.834 -0.570882 4.17515 0
M  V30 3300 H 314.558 -1.12877 3.06474 0
M  V30 3301 H 313.217 0.949929 3.54079 0
M  V30 3302 H 312.865 -1.11678 4.90446 0
M  V30 3303 H 312.565 0.35299 5.86539 0
M  V30 3304 H 314.089 -0.554214 6.0808 0
M  V30 3305 H 315.503 1.63997 5.49343 0
M  V30 3306 H 313.9 2.43112 5.4865 0
M  V30 3307 H 314.97 2.61304 4.08471 0
M  V30 3308 N 316.313 -1.40141 0.720998 0
M  V30 3309 C 317.561 -2.0039 0.262323 0
M  V30 3310 C 317.882 -1.57469 -1.15015 0
M  V30 3311 O 317.152 -0.816582 -1.78069 0
M  V30 3312 H 315.732 -0.741063 0.093996 0
M  V30 3313 H 318.394 -1.71398 0.927835 0
M  V30 3314 H 317.49 -3.10658 0.299671 0
M  V30 3315 N 317.792 -0.46758 -1.50504 0
M  V30 3316 C 319.041 0.0902868 -2.01498 0
M  V30 3317 C 319.354 1.411 -1.35463 0
M  V30 3318 O 320.56 2.0536 -1.77594 0
M  V30 3319 C 319.016 0.21142 -3.59278 0
M  V30 3320 C 318.624 -1.10065 -4.34269 0
M  V30 3321 C 320.368 0.721433 -4.18325 0
M  V30 3322 C 318.275 -0.943505 -5.83825 0
M  V30 3323 H 317.205 0.037517 -0.753066 0
M  V30 3324 H 319.856 -0.601943 -1.73346 0
M  V30 3325 H 318.238 0.967352 -3.84003 0
M  V30 3326 H 319.412 -1.86726 -4.21272 0
M  V30 3327 H 317.727 -1.5415 -3.86816 0
M  V30 3328 H 320.324 0.85598 -5.27804 0
M  V30 3329 H 320.667 1.71186 -3.79475 0
M  V30 3330 H 321.2 0.0229843 -3.97793 0
M  V30 3331 H 317.939 -1.90719 -6.27141 0
M  V30 3332 H 317.459 -0.217213 -5.99407 0
M  V30 3333 H 319.138 -0.608715 -6.4413 0
M  V30 3334 N 319.27 1.56325 -0.20005 0
M  V30 3335 C 320.498 2.02105 0.442874 0
M  V30 3336 C 320.913 1.08014 1.5485 0
M  V30 3337 O 320.27 0.0858797 1.82298 0
M  V30 3338 C 320.321 3.47549 0.994583 0
M  V30 3339 O 320.042 4.38049 -0.0669322 0
M  V30 3340 C 321.543 4.0887 1.7129 0
M  V30 3341 H 318.763 0.661807 0.110691 0
M  V30 3342 H 321.307 2.02134 -0.310207 0
M  V30 3343 H 319.462 3.48204 1.69803 0
M  V30 3344 H 319.876 5.23368 0.344462 0
M  V30 3345 H 321.35 5.12475 2.05118 0
M  V30 3346 H 321.827 3.52615 2.61838 0
M  V30 3347 H 322.433 4.12002 1.05518 0
M  V30 3348 N 320.748 -0.0735177 1.57428 0
M  V30 3349 C 321.711 -1.07192 2.02589 0
M  V30 3350 C 322.711 -1.31695 0.922661 0
M  V30 3351 O 323.901 -1.27445 1.18758 0
M  V30 3352 C 321.033 -2.41599 2.40506 0
M  V30 3353 H 322.226 -0.682727 2.92025 0
M  V30 3354 H 319.779 -0.319193 1.53006 0
M  V30 3355 H 320.514 -2.85354 1.5409 0
M  V30 3356 H 320.299 -2.25156 3.21009 0
M  V30 3357 H 321.789 -3.13367 2.76027 0
M  V30 3358 N 322.226 -1.5378 -0.344866 0
M  V30 3359 C 323.189 -1.80981 -1.40637 0
M  V30 3360 C 324.189 -0.680816 -1.45676 0
M  V30 3361 O 325.379 -0.949095 -1.46075 0
M  V30 3362 C 322.511 -1.95063 -2.79577 0
M  V30 3363 H 323.704 -2.75803 -1.17783 0
M  V30 3364 H 321.257 -1.45173 -0.579181 0
M  V30 3365 H 321.992 -1.02379 -3.07716 0
M  V30 3366 H 321.777 -2.77198 -2.77315 0
M  V30 3367 H 323.267 -2.17629 -3.56409 0
M  V30 3368 N 323.704 0.605807 -1.45491 0
M  V30 3369 C 324.634 1.72709 -1.57143 0
M  V30 3370 C 325.615 1.6476 -0.422884 0
M  V30 3371 O 326.8 1.83132 -0.646247 0
M  V30 3372 C 323.93 3.11316 -1.53948 0
M  V30 3373 C 322.884 3.34077 -2.67537 0
M  V30 3374 C 322.21 4.72975 -2.49397 0
M  V30 3375 C 323.51 3.24158 -4.09535 0
M  V30 3376 H 325.204 1.63214 -2.51001 0
M  V30 3377 H 322.75 0.78379 -1.208 0
M  V30 3378 H 324.703 3.89557 -1.60696 0
M  V30 3379 H 323.427 3.21655 -0.566205 0
M  V30 3380 H 322.086 2.58227 -2.6022 0
M  V30 3381 H 321.734 4.8005 -1.50205 0
M  V30 3382 H 321.434 4.8916 -3.25571 0
M  V30 3383 H 322.958 5.53414 -2.58002 0
M  V30 3384 H 324.372 3.92271 -4.18086 0
M  V30 3385 H 322.769 3.51872 -4.86113 0
M  V30 3386 H 323.839 2.2157 -4.31317 0
M  V30 3387 N 325.182 1.32811 0.848464 0
M  V30 3388 C 326.41 1.26739 1.63538 0
M  V30 3389 C 326.825 -0.163484 1.88091 0
M  V30 3390 O 326.182 -1.10258 1.45429 0
M  V30 3391 C 326.233 2.03013 2.99112 0
M  V30 3392 O 325.954 3.40518 2.75643 0
M  V30 3393 C 327.455 2.04038 3.93552 0
M  V30 3394 H 324.675 0.437024 0.509167 0
M  V30 3395 H 327.219 1.75033 1.05753 0
M  V30 3396 H 325.374 1.58426 3.53525 0
M  V30 3397 H 325.788 3.79635 3.61908 0
M  V30 3398 H 327.262 2.61877 4.85926 0
M  V30 3399 H 327.739 1.0282 4.26995 0
M  V30 3400 H 328.345 2.486 3.45077 0
M  V30 3401 N 326.66 -1.06551 1.16123 0
M  V30 3402 C 327.908 -1.78947 0.939267 0
M  V30 3403 C 328.229 -1.87532 -0.534476 0
M  V30 3404 O 327.499 -1.38211 -1.38833 0
M  V30 3405 H 326.079 -0.662807 0.344523 0
M  V30 3406 H 328.741 -1.28725 1.46342 0
M  V30 3407 H 327.837 -2.81117 1.35572 0
M  V30 3408 N 328.138 -0.959301 -1.25041 0
M  V30 3409 C 329.387 -0.612254 -1.92183 0
M  V30 3410 C 329.7 0.855347 -1.75907 0
M  V30 3411 O 330.906 1.31256 -2.37664 0
M  V30 3412 C 329.362 -1.04435 -3.44414 0
M  V30 3413 C 328.97 -2.53482 -3.69393 0
M  V30 3414 C 330.714 -0.770055 -4.17457 0
M  V30 3415 C 328.621 -2.90468 -5.15153 0
M  V30 3416 H 327.551 -0.225279 -0.719559 0
M  V30 3417 H 330.202 -1.16438 -1.41825 0
M  V30 3418 H 328.584 -0.4206 -3.9376 0
M  V30 3419 H 329.758 -3.20916 -3.30681 0
M  V30 3420 H 328.073 -2.78432 -3.0962 0
M  V30 3421 H 330.67 -1.02249 -5.24832 0
M  V30 3422 H 331.013 0.293611 -4.15263 0
M  V30 3423 H 331.546 -1.35437 -3.74034 0
M  V30 3424 H 328.285 -3.95871 -5.22462 0
M  V30 3425 H 327.805 -2.27711 -5.54894 0
M  V30 3426 H 329.484 -2.79914 -5.83315 0
M  V30 3427 N 329.616 1.39756 -0.72842 0
M  V30 3428 C 330.844 2.04948 -0.283528 0
M  V30 3429 C 331.259 1.54908 1.0793 0
M  V30 3430 O 330.616 0.711135 1.68075 0
M  V30 3431 C 330.667 3.60498 -0.268957 0
M  V30 3432 O 330.388 4.08695 -1.57798 0
M  V30 3433 C 331.889 4.4288 0.192912 0
M  V30 3434 H 329.109 0.659243 -0.125056 0
M  V30 3435 H 331.653 1.78927 -0.990226 0
M  V30 3436 H 329.808 3.85444 0.388801 0
M  V30 3437 H 330.222 5.02977 -1.48709 0
M  V30 3438 H 331.696 5.51791 0.151952 0
M  V30 3439 H 332.173 4.21418 1.23708 0
M  V30 3440 H 332.779 4.23069 -0.435039 0
M  V30 3441 N 331.094 0.475555 1.50254 0
M  V30 3442 C 332.319 -0.0777042 2.07254 0
M  V30 3443 C 332.744 -1.3235 1.3366 0
M  V30 3444 O 332.102 -1.77152 0.385597 0
M  V30 3445 C 332.15 -0.340169 3.58992 0
M  V30 3446 O 331.254 -1.41982 3.87188 0
M  V30 3447 H 330.595 0.0149556 0.663832 0
M  V30 3448 H 333.125 0.667878 1.93392 0
M  V30 3449 H 333.135 -0.579332 4.03866 0
M  V30 3450 H 331.81 0.570167 4.11973 0
M  V30 3451 H 330.387 -1.16762 3.54148 0
M  V30 3452 N 332.573 -1.56217 0.208337 0
M  V30 3453 C 333.798 -2.02782 -0.435222 0
M  V30 3454 C 334.223 -1.08738 -1.53485 0
M  V30 3455 O 333.581 -0.0731855 -1.81152 0
M  V30 3456 C 333.629 -3.47687 -0.956335 0
M  V30 3457 O 332.733 -3.56773 -2.06849 0
M  V30 3458 H 332.074 -0.656403 -0.100158 0
M  V30 3459 H 334.604 -2.02033 0.3231 0
M  V30 3460 H 334.614 -3.87745 -1.26955 0
M  V30 3461 H 333.289 -4.15624 -0.15143 0
M  V30 3462 H 331.866 -3.28597 -1.76292 0
M  V30 3463 N 334.051 0.0651679 -1.57465 0
M  V30 3464 C 335.279 0.775808 -1.91804 0
M  V30 3465 C 335.694 1.70782 -0.804916 0
M  V30 3466 O 335.051 1.81153 0.221311 0
M  V30 3467 C 335.102 1.56381 -3.25925 0
M  V30 3468 O 334.823 0.669248 -4.32958 0
M  V30 3469 C 336.324 2.37485 -3.7432 0
M  V30 3470 H 333.544 0.2202 -0.63384 0
M  V30 3471 H 336.088 0.0334587 -2.04473 0
M  V30 3472 H 334.243 2.25837 -3.14764 0
M  V30 3473 H 334.657 1.21801 -5.10162 0
M  V30 3474 H 336.131 2.88223 -4.70778 0
M  V30 3475 H 336.608 3.17307 -3.03666 0
M  V30 3476 H 337.214 1.73173 -3.88447 0
M  V30 3477 N 335.529 1.53961 0.336706 0
M  V30 3478 C 336.462 1.77255 1.43722 0
M  V30 3479 C 337.44 0.62193 1.50236 0
M  V30 3480 O 338.624 0.857874 1.67847 0
M  V30 3481 C 335.751 1.87733 2.81912 0
M  V30 3482 C 334.797 3.09933 2.92991 0
M  V30 3483 S 335.63 4.68836 2.58753 0
M  V30 3484 C 336.786 4.82202 3.99039 0
M  V30 3485 H 337.019 2.70322 1.23748 0
M  V30 3486 H 334.552 1.44917 0.532777 0
M  V30 3487 H 336.51 1.94455 3.61521 0
M  V30 3488 H 335.171 0.956666 2.99177 0
M  V30 3489 H 334.364 3.1396 3.94265 0
M  V30 3490 H 333.966 3.01472 2.21338 0
M  V30 3491 H 336.258 4.64032 4.9364 0
M  V30 3492 H 337.201 5.84298 4.00002 0
M  V30 3493 H 337.609 4.10604 3.87382 0
M  V30 3494 N 337.007 -0.598083 1.45811 0
M  V30 3495 C 338.284 -1.35777 1.40797 0
M  V30 3496 C 338.664 -2.10935 0.083462 0
M  V30 3497 O 338.012 -2.08505 -0.934763 0
M  V30 3498 C 338.222 -2.29666 2.62783 0
M  V30 3499 C 339.57 -2.91977 3.08277 0
M  V30 3500 O 340.594 -2.39984 2.63223 0
M  V30 3501 O 339.453 -3.86376 3.86491 0
M  V30 3502 H 336.547 -0.609291 0.55919 0
M  V30 3503 H 339.093 -0.620379 1.57954 0
M  V30 3504 H 337.865 -1.73454 3.50756 0
M  V30 3505 H 337.488 -3.1077 2.48008 0
M  V30 3506 N 338.485 -1.33259 -0.841409 0
M  V30 3507 C 339.715 -1.2742 -1.62628 0
M  V30 3508 C 340.123 0.157604 -1.88542 0
M  V30 3509 O 339.466 1.10938 -1.46419 0
M  V30 3510 C 339.528 -1.97797 -3.00194 0
M  V30 3511 C 339.192 -3.47109 -2.97261 0
M  V30 3512 C 340.189 -4.42358 -2.73159 0
M  V30 3513 C 337.874 -3.89247 -3.17478 0
M  V30 3514 C 339.868 -5.77718 -2.69296 0
M  V30 3515 C 337.555 -5.24713 -3.13241 0
M  V30 3516 C 338.553 -6.1876 -2.89181 0
M  V30 3517 O 338.241 -7.51745 -2.84843 0
M  V30 3518 H 337.973 -0.440436 -0.512827 0
M  V30 3519 H 340.527 -1.76153 -1.05638 0
M  V30 3520 H 338.757 -1.43652 -3.59028 0
M  V30 3521 H 340.446 -1.8549 -3.61038 0
M  V30 3522 H 341.212 -4.11127 -2.57294 0
M  V30 3523 H 337.091 -3.16456 -3.35226 0
M  V30 3524 H 340.635 -6.51097 -2.50436 0
M  V30 3525 H 336.532 -5.55569 -3.28654 0
M  V30 3526 H 337.3 -7.61262 -3.00702 0
M  V30 3527 N 339.963 1.05934 -1.16686 0
M  V30 3528 C 341.211 1.78447 -0.948744 0
M  V30 3529 C 341.532 1.87813 0.524523 0
M  V30 3530 O 340.802 1.38945 1.38098 0
M  V30 3531 H 339.382 0.660971 -0.348033 0
M  V30 3532 H 342.044 1.27947 -1.47022 0
M  V30 3533 H 341.14 2.80394 -1.37061 0
M  V30 3534 N 341.441 0.965919 1.2453 0
M  V30 3535 C 342.388 0.49402 2.25451 0
M  V30 3536 C 343.358 -0.45948 1.59618 0
M  V30 3537 O 344.543 -0.370238 1.87173 0
M  V30 3538 C 341.683 -0.211359 3.44452 0
M  V30 3539 C 340.796 0.7807 4.24887 0
M  V30 3540 C 339.931 0.0516105 5.31175 0
M  V30 3541 C 338.97 1.03385 6.03306 0
M  V30 3542 N 338.107 0.334887 7.01301 0
M  V30 3543 H 342.947 1.35946 2.65184 0
M  V30 3544 H 340.484 0.681515 1.3036 0
M  V30 3545 H 342.442 -0.637 4.12308 0
M  V30 3546 H 341.072 -1.04077 3.05562 0
M  V30 3547 H 340.124 1.32479 3.56586 0
M  V30 3548 H 341.436 1.52978 4.74762 0
M  V30 3549 H 340.59 -0.432114 6.05159 0
M  V30 3550 H 339.329 -0.730179 4.82203 0
M  V30 3551 H 338.334 1.52847 5.28127 0
M  V30 3552 H 339.559 1.81606 6.54367 0
M  V30 3553 H 337.505 -0.427959 6.54603 0
M  V30 3554 H 337.422 1.02287 7.49048 0
M  V30 3555 H 338.69 -0.126928 7.79397 0
M  V30 3556 N 342.919 -1.39368 0.735821 0
M  V30 3557 C 343.866 -2.30599 0.0963825 0
M  V30 3558 C 344.836 -1.49257 -0.728794 0
M  V30 3559 O 346.021 -1.77941 -0.688588 0
M  V30 3560 C 343.161 -3.35596 -0.804305 0
M  V30 3561 C 342.274 -4.31987 0.0335761 0
M  V30 3562 C 341.409 -5.24053 -0.868461 0
M  V30 3563 C 340.448 -6.12095 -0.0258776 0
M  V30 3564 N 339.585 -6.96514 -0.883893 0
M  V30 3565 H 344.425 -2.8471 0.880002 0
M  V30 3566 H 341.962 -1.40188 0.445619 0
M  V30 3567 H 343.92 -3.95062 -1.34096 0
M  V30 3568 H 342.55 -2.82938 -1.55389 0
M  V30 3569 H 341.602 -3.74133 0.68766 0
M  V30 3570 H 342.914 -4.94074 0.685036 0
M  V30 3571 H 342.068 -5.88549 -1.47293 0
M  V30 3572 H 340.807 -4.62289 -1.5537 0
M  V30 3573 H 339.812 -5.4661 0.591386 0
M  V30 3574 H 341.037 -6.75923 0.656156 0
M  V30 3575 H 338.983 -6.37318 -1.55441 0
M  V30 3576 H 338.9 -7.55448 -0.288931 0
M  V30 3577 H 340.168 -7.65439 -1.4739 0
M  V30 3578 N 344.397 -0.483516 -1.5 0
M  V30 3579 C 345.643 0.0593261 -2.03313 0
M  V30 3580 C 345.998 1.36288 -1.35806 0
M  V30 3581 O 345.291 1.85519 -0.478897 0
M  V30 3582 C 345.485 0.286226 -3.56252 0
M  V30 3583 C 345.314 -0.993788 -4.38582 0
M  V30 3584 C 344.084 -1.54064 -4.81241 0
M  V30 3585 C 346.282 -1.89249 -4.78215 0
M  V30 3586 N 344.264 -2.76838 -5.47936 0
M  V30 3587 C 345.635 -2.96606 -5.44449 0
M  V30 3588 C 347.69 -1.90138 -4.60165 0
M  V30 3589 C 346.393 -4.04857 -5.94544 0
M  V30 3590 C 348.419 -2.97353 -5.1121 0
M  V30 3591 C 347.781 -4.03429 -5.77429 0
M  V30 3592 H 343.88 -0.0186322 -0.781778 0
M  V30 3593 H 346.464 -0.654489 -1.8337 0
M  V30 3594 H 344.635 0.969086 -3.76116 0
M  V30 3595 H 346.367 0.824515 -3.96212 0
M  V30 3596 H 343.122 -1.08813 -4.6093 0
M  V30 3597 H 343.546 -3.39221 -5.85882 0
M  V30 3598 H 348.188 -1.09441 -4.0839 0
M  V30 3599 H 345.906 -4.86363 -6.4535 0
M  V30 3600 H 349.492 -2.99039 -4.99066 0
M  V30 3601 H 348.372 -4.85025 -6.16214 0
M  V30 3602 N 345.875 1.56104 -0.216619 0
M  V30 3603 C 347.121 1.99219 0.410301 0
M  V30 3604 C 347.476 1.10169 1.57735 0
M  V30 3605 O 346.769 0.150598 1.91007 0
M  V30 3606 C 346.963 3.45923 0.898464 0
M  V30 3607 C 346.792 4.49163 -0.219748 0
M  V30 3608 C 345.562 5.00642 -0.684516 0
M  V30 3609 C 347.76 5.03751 -1.03629 0
M  V30 3610 N 345.742 5.87579 -1.7783 0
M  V30 3611 C 347.113 5.87566 -1.97904 0
M  V30 3612 C 349.168 4.86128 -1.07629 0
M  V30 3613 C 347.871 6.5564 -2.95851 0
M  V30 3614 C 349.897 5.54958 -2.04392 0
M  V30 3615 C 349.259 6.38536 -2.97407 0
M  V30 3616 H 345.358 0.773206 0.11695 0
M  V30 3617 H 347.942 1.9193 -0.327258 0
M  V30 3618 H 346.113 3.53669 1.6054 0
M  V30 3619 H 347.845 3.75963 1.49779 0
M  V30 3620 H 344.6 4.72807 -0.27399 0
M  V30 3621 H 345.024 6.3575 -2.32705 0
M  V30 3622 H 349.666 4.21168 -0.371099 0
M  V30 3623 H 347.384 7.19785 -3.67335 0
M  V30 3624 H 350.97 5.43289 -2.08154 0
M  V30 3625 H 349.85 6.90858 -3.71059 0
M  V30 3626 N 347.353 -0.0568162 1.57498 0
M  V30 3627 C 348.581 -0.765626 1.92213 0
M  V30 3628 C 348.996 -1.70353 0.813961 0
M  V30 3629 O 348.353 -1.81268 -0.211701 0
M  V30 3630 C 348.404 -1.5465 3.2675 0
M  V30 3631 O 348.125 -0.646278 4.33307 0
M  V30 3632 C 349.626 -2.35497 3.75574 0
M  V30 3633 H 346.846 -0.216835 0.634999 0
M  V30 3634 H 349.39 -0.0226146 2.04487 0
M  V30 3635 H 347.545 -2.24165 3.15957 0
M  V30 3636 H 347.959 -1.19093 5.108 0
M  V30 3637 H 349.433 -2.85722 4.72299 0
M  V30 3638 H 349.91 -3.15692 3.05344 0
M  V30 3639 H 350.516 -1.7111 3.8936 0
M  V30 3640 N 348.832 -1.54138 -0.328536 0
M  V30 3641 C 349.764 -1.79509 -1.4251 0
M  V30 3642 C 350.777 -0.67688 -1.48061 0
M  V30 3643 O 351.966 -0.953898 -1.50874 0
M  V30 3644 C 349.066 -1.89337 -2.81078 0
M  V30 3645 C 348.239 -3.19443 -2.98789 0
M  V30 3646 C 347.298 -3.20036 -4.17688 0
M  V30 3647 O 346.324 -3.93697 -4.11086 0
M  V30 3648 N 347.526 -2.43467 -5.26976 0
M  V30 3649 H 350.291 -2.74139 -1.21111 0
M  V30 3650 H 347.852 -1.53373 -0.518499 0
M  V30 3651 H 349.844 -1.87167 -3.58818 0
M  V30 3652 H 348.414 -1.01826 -2.95551 0
M  V30 3653 H 347.634 -3.34614 -2.08391 0
M  V30 3654 H 348.922 -4.05354 -3.07515 0
M  V30 3655 H 348.32 -1.83201 -5.35214 0
M  V30 3656 H 346.877 -2.4708 -6.03154 0
M  V30 3657 N 350.31 0.590341 -1.46126 0
M  V30 3658 C 351.273 1.68194 -1.55703 0
M  V30 3659 C 352.273 1.54808 -0.434868 0
M  V30 3660 O 353.463 1.59564 -0.698928 0
M  V30 3661 C 350.595 3.07575 -1.47005 0
M  V30 3662 H 351.788 1.61064 -2.52979 0
M  V30 3663 H 349.341 0.807541 -1.33823 0
M  V30 3664 H 350.076 3.20268 -0.509785 0
M  V30 3665 H 349.861 3.187 -2.28414 0
M  V30 3666 H 351.351 3.87055 -1.56776 0
M  V30 3667 N 351.788 1.33704 0.83433 0
M  V30 3668 C 352.72 1.20172 1.9517 0
M  V30 3669 C 353.733 0.131572 1.62267 0
M  V30 3670 O 354.922 0.382406 1.74356 0
M  V30 3671 C 352.022 0.821716 3.28787 0
M  V30 3672 C 351.195 1.98446 3.89792 0
M  V30 3673 C 350.254 1.58469 5.01771 0
M  V30 3674 O 349.28 2.29968 5.20676 0
M  V30 3675 N 350.482 0.492291 5.78409 0
M  V30 3676 H 353.247 2.16429 2.07313 0
M  V30 3677 H 350.808 1.26509 1.0103 0
M  V30 3678 H 352.8 0.536291 4.01131 0
M  V30 3679 H 351.37 -0.0503058 3.1256 0
M  V30 3680 H 350.59 2.43526 3.09982 0
M  V30 3681 H 351.878 2.76236 4.27283 0
M  V30 3682 H 351.276 -0.102349 5.65607 0
M  V30 3683 H 349.833 0.266555 6.51255 0
M  V30 3684 N 353.266 -1.05314 1.17247 0
M  V30 3685 C 354.229 -2.112 0.890357 0
M  V30 3686 C 355.229 -1.60359 -0.118943 0
M  V30 3687 O 356.419 -1.73833 0.113086 0
M  V30 3688 C 353.551 -3.39266 0.333422 0
M  V30 3689 H 354.744 -2.37659 1.82916 0
M  V30 3690 H 352.297 -1.21538 0.982758 0
M  V30 3691 H 353.032 -3.18462 -0.612587 0
M  V30 3692 H 352.817 -3.77477 1.06082 0
M  V30 3693 H 354.307 -4.17315 0.154322 0
M  V30 3694 N 354.744 -0.972509 -1.24016 0
M  V30 3695 C 355.694 -0.477561 -2.22942 0
M  V30 3696 C 356.678 0.44308 -1.54679 0
M  V30 3697 O 357.87 0.273219 -1.74879 0
M  V30 3698 C 354.999 0.226348 -3.42553 0
M  V30 3699 C 354.085 -0.713403 -4.18057 0
M  V30 3700 N 354.476 -1.8527 -4.70647 0
M  V30 3701 C 352.774 -0.525145 -4.42898 0
M  V30 3702 C 353.475 -2.44089 -5.28011 0
M  V30 3703 N 352.451 -1.72556 -5.15486 0
M  V30 3704 H 356.253 -1.34678 -2.61226 0
M  V30 3705 H 353.767 -0.832196 -1.39457 0
M  V30 3706 H 355.764 0.598184 -4.12586 0
M  V30 3707 H 354.424 1.09195 -3.05788 0
M  V30 3708 H 355.435 -2.2341 -4.67235 0
M  V30 3709 H 352.112 0.296096 -4.16449 0
M  V30 3710 H 353.502 -3.40259 -5.79374 0
M  V30 3711 N 356.222 1.38976 -0.743202 0
M  V30 3712 C 357.499 1.94351 -0.220705 0
M  V30 3713 C 357.879 1.67935 1.2791 0
M  V30 3714 O 357.227 1.01211 2.04862 0
M  V30 3715 C 357.437 3.44426 -0.563171 0
M  V30 3716 C 358.785 4.2144 -0.517046 0
M  V30 3717 O 359.809 3.52661 -0.500846 0
M  V30 3718 O 358.668 5.44032 -0.518806 0
M  V30 3719 H 355.762 0.825879 -0.043047 0
M  V30 3720 H 358.308 1.48429 -0.822618 0
M  V30 3721 H 357.08 3.5712 -1.59941 0
M  V30 3722 H 356.703 3.97543 0.0672883 0
M  V30 3723 N 357.7 0.491464 1.49741 0
M  V30 3724 C 358.63 -0.28154 2.31796 0
M  V30 3725 C 359.611 -0.971473 1.3963 0
M  V30 3726 O 360.796 -0.964719 1.68543 0
M  V30 3727 C 357.926 -1.35203 3.19902 0
M  V30 3728 C 356.88 -0.782529 4.20786 0
M  V30 3729 C 356.206 -1.95283 4.97764 0
M  V30 3730 C 357.506 0.21999 5.21837 0
M  V30 3731 H 359.2 0.403355 2.96671 0
M  V30 3732 H 356.746 0.195425 1.42668 0
M  V30 3733 H 358.699 -1.90045 3.76113 0
M  V30 3734 H 357.423 -2.06598 2.52953 0
M  V30 3735 H 356.082 -0.255928 3.65706 0
M  V30 3736 H 355.73 -2.65423 4.2727 0
M  V30 3737 H 355.43 -1.57789 5.66018 0
M  V30 3738 H 356.954 -2.50577 5.56816 0
M  V30 3739 H 358.368 -0.23996 5.72798 0
M  V30 3740 H 356.765 0.51026 5.97927 0
M  V30 3741 H 357.835 1.13911 4.7133 0
M  V30 3742 N 359.178 -1.55987 0.224894 0
M  V30 3743 C 360.424 -1.98684 -0.406502 0
M  V30 3744 C 360.757 -1.11248 -1.59177 0
M  V30 3745 O 360.032 -0.170909 -1.93748 0
M  V30 3746 C 360.315 -3.50218 -0.837808 0
M  V30 3747 C 360.168 -4.48426 0.351332 0
M  V30 3748 C 361.487 -4.06243 -1.69278 0
M  V30 3749 H 358.606 -0.722337 -0.146283 0
M  V30 3750 H 361.248 -1.87255 0.321799 0
M  V30 3751 H 359.398 -3.60089 -1.45837 0
M  V30 3752 H 361.07 -4.50562 0.989526 0
M  V30 3753 H 359.313 -4.22159 0.998207 0
M  V30 3754 H 359.984 -5.52 0.00655905 0
M  V30 3755 H 362.46 -3.99337 -1.16914 0
M  V30 3756 H 361.336 -5.12581 -1.96346 0
M  V30 3757 H 361.597 -3.53332 -2.65723 0
M  V30 3758 N 360.656 0.0484629 -1.57525 0
M  V30 3759 C 361.905 0.742065 -1.87553 0
M  V30 3760 C 362.218 1.77545 -0.820802 0
M  V30 3761 O 363.424 2.52027 -1.00967 0
M  V30 3762 C 361.88 1.37081 -3.32771 0
M  V30 3763 C 361.488 0.374786 -4.4643 0
M  V30 3764 C 363.232 2.04542 -3.71972 0
M  V30 3765 C 361.139 1.01077 -5.82698 0
M  V30 3766 H 360.069 0.280903 -0.699721 0
M  V30 3767 H 362.72 -0.00411877 -1.835 0
M  V30 3768 H 361.102 2.16605 -3.31509 0
M  V30 3769 H 362.276 -0.392331 -4.59127 0
M  V30 3770 H 360.591 -0.196653 -4.15935 0
M  V30 3771 H 363.188 2.52943 -4.71088 0
M  V30 3772 H 363.531 2.85515 -3.02964 0
M  V30 3773 H 364.064 1.31819 -3.75325 0
M  V30 3774 H 360.803 0.240878 -6.55057 0
M  V30 3775 H 360.323 1.74819 -5.73758 0
M  V30 3776 H 362.002 1.52383 -6.28799 0
M  V30 3777 N 362.134 1.5431 0.320358 0
M  V30 3778 C 363.081 1.83918 1.39438 0
M  V30 3779 C 364.051 0.686525 1.51248 0
M  V30 3780 O 365.236 0.933269 1.66417 0
M  V30 3781 C 362.376 2.075 2.75749 0
M  V30 3782 C 361.489 3.35177 2.72544 0
M  V30 3783 C 360.624 3.48704 4.00723 0
M  V30 3784 C 359.663 4.70244 3.91838 0
M  V30 3785 N 358.8 4.80679 5.11754 0
M  V30 3786 H 363.64 2.75544 1.13489 0
M  V30 3787 H 361.177 1.36459 0.549309 0
M  V30 3788 H 363.135 2.19166 3.54996 0
M  V30 3789 H 361.765 1.19163 3 0
M  V30 3790 H 360.817 3.32233 1.85271 0
M  V30 3791 H 362.129 4.24534 2.61863 0
M  V30 3792 H 361.283 3.59928 4.88402 0
M  V30 3793 H 360.022 2.57445 4.14214 0
M  V30 3794 H 359.027 4.59072 3.02544 0
M  V30 3795 H 360.252 5.6289 3.7991 0
M  V30 3796 H 358.198 3.92337 5.25745 0
M  V30 3797 H 358.115 5.64007 5.0342 0
M  V30 3798 H 359.383 4.96239 6.01138 0
M  V30 3799 N 363.613 -0.582584 1.46437 0
M  V30 3800 C 364.838 -1.37168 1.55563 0
M  V30 3801 C 365.263 -1.87061 0.19743 0
M  V30 3802 O 364.621 -1.61572 -0.822451 0
M  V30 3803 C 364.669 -2.53511 2.56446 0
M  V30 3804 O 363.773 -3.54953 2.09958 0
M  V30 3805 H 363.114 -0.408494 0.523477 0
M  V30 3806 H 365.644 -0.706646 1.9201 0
M  V30 3807 H 365.654 -3.00426 2.76058 0
M  V30 3808 H 364.329 -2.16549 3.55076 0
M  V30 3809 H 362.906 -3.14516 2.00334 0
M  V30 3810 N 365.091 -1.34144 -0.827227 0
M  V30 3811 C 366.021 -1.28005 -1.95287 0
M  V30 3812 C 367.002 -0.158321 -1.69362 0
M  V30 3813 O 368.187 -0.349987 -1.9102 0
M  V30 3814 C 365.317 -1.03036 -3.31664 0
M  V30 3815 C 364.271 -2.11628 -3.72019 0
M  V30 3816 C 363.597 -1.71854 -5.0633 0
M  V30 3817 C 364.897 -3.53417 -3.8457 0
M  V30 3818 H 366.591 -2.22187 -2.00682 0
M  V30 3819 H 364.137 -1.0696 -0.964135 0
M  V30 3820 H 366.09 -0.973863 -4.09993 0
M  V30 3821 H 364.814 -0.0529391 -3.26557 0
M  V30 3822 H 363.473 -2.16339 -2.95961 0
M  V30 3823 H 363.121 -0.727841 -4.97706 0
M  V30 3824 H 362.821 -2.44531 -5.34302 0
M  V30 3825 H 364.345 -1.67692 -5.87122 0
M  V30 3826 H 365.759 -3.51142 -4.5318 0
M  V30 3827 H 364.156 -4.24679 -4.2399 0
M  V30 3828 H 365.226 -3.91072 -2.86689 0
M  V30 3829 N 366.569 1.04691 -1.17803 0
M  V30 3830 C 367.846 1.7472 -0.879328 0
M  V30 3831 C 368.226 2.01812 0.619271 0
M  V30 3832 O 367.574 1.65824 1.57209 0
M  V30 3833 C 367.784 3.03686 -1.71976 0
M  V30 3834 C 369.132 3.77542 -1.94286 0
M  V30 3835 O 370.156 3.13569 -1.68976 0
M  V30 3836 O 369.015 4.92506 -2.36855 0
M  V30 3837 H 366.109 0.760011 -0.326056 0
M  V30 3838 H 368.655 1.10813 -1.28525 0
M  V30 3839 H 367.427 2.79754 -2.73594 0
M  V30 3840 H 367.05 3.75332 -1.31194 0
M  V30 3841 N 368.047 0.979072 1.23499 0
M  V30 3842 C 368.994 0.517904 2.24914 0
M  V30 3843 C 369.964 -0.442525 1.60097 0
M  V30 3844 O 371.149 -0.350365 1.87556 0
M  V30 3845 C 368.289 -0.174813 3.44657 0
M  V30 3846 C 367.402 0.825721 4.24035 0
M  V30 3847 C 366.537 0.107946 5.3109 0
M  V30 3848 C 365.576 1.09778 6.02175 0
M  V30 3849 N 364.713 0.40925 7.00906 0
M  V30 3850 H 369.553 1.38751 2.63727 0
M  V30 3851 H 367.09 0.695303 1.2963 0
M  V30 3852 H 369.048 -0.593233 4.12961 0
M  V30 3853 H 367.678 -1.0083 3.06648 0
M  V30 3854 H 366.73 1.36253 3.55161 0
M  V30 3855 H 368.042 1.58005 4.73113 0
M  V30 3856 H 367.196 -0.367904 6.05583 0
M  V30 3857 H 365.935 -0.678994 4.8295 0
M  V30 3858 H 364.94 1.5844 5.26476 0
M  V30 3859 H 366.165 1.88536 6.52404 0
M  V30 3860 H 364.111 -0.358506 6.5502 0
M  V30 3861 H 364.028 1.10226 7.47921 0
M  V30 3862 H 365.296 -0.0442557 7.79487 0
M  V30 3863 N 369.525 -1.3858 0.750561 0
M  V30 3864 C 370.455 -2.33102 0.136237 0
M  V30 3865 C 371.436 -1.54713 -0.706965 0
M  V30 3866 O 372.621 -1.83043 -0.648769 0
M  V30 3867 C 369.751 -3.38882 -0.760017 0
M  V30 3868 C 368.705 -4.27995 -0.0197785 0
M  V30 3869 C 368.031 -5.24605 -1.03408 0
M  V30 3870 C 369.331 -5.09554 1.14684 0
M  V30 3871 H 371.025 -2.84726 0.925822 0
M  V30 3872 H 368.571 -1.36898 0.446654 0
M  V30 3873 H 370.524 -4.0397 -1.19943 0
M  V30 3874 H 369.248 -2.85734 -1.58189 0
M  V30 3875 H 367.907 -3.64409 0.400184 0
M  V30 3876 H 367.555 -4.67746 -1.84994 0
M  V30 3877 H 367.255 -5.85081 -0.543464 0
M  V30 3878 H 368.779 -5.9257 -1.47288 0
M  V30 3879 H 370.193 -5.67899 0.785118 0
M  V30 3880 H 368.59 -5.7925 1.56812 0
M  V30 3881 H 369.66 -4.4347 1.96118 0
M  V30 3882 N 371.003 -0.499398 -1.49478 0
M  V30 3883 C 371.95 0.279881 -2.29097 0
M  V30 3884 C 372.92 0.961805 -1.3542 0
M  V30 3885 O 374.105 0.968777 -1.64376 0
M  V30 3886 C 371.245 1.33932 -3.18051 0
M  V30 3887 C 370.358 0.669333 -4.26783 0
M  V30 3888 C 369.493 1.70907 -5.02955 0
M  V30 3889 C 368.532 1.02087 -6.03527 0
M  V30 3890 N 367.669 2.00474 -6.7287 0
M  V30 3891 H 372.509 -0.405317 -2.95231 0
M  V30 3892 H 370.046 -0.211726 -1.45568 0
M  V30 3893 H 372.004 1.96553 -3.67998 0
M  V30 3894 H 370.634 1.9933 -2.53904 0
M  V30 3895 H 369.686 -0.0701234 -3.80335 0
M  V30 3896 H 370.998 0.127503 -4.98637 0
M  V30 3897 H 370.152 2.41037 -5.56764 0
M  V30 3898 H 368.891 2.28476 -4.30871 0
M  V30 3899 H 367.896 0.305338 -5.48951 0
M  V30 3900 H 369.121 0.451708 -6.77596 0
M  V30 3901 H 367.067 2.57007 -6.03559 0
M  V30 3902 H 366.984 1.51353 -7.40694 0
M  V30 3903 H 368.252 2.69897 -7.31284 0
M  V30 3904 N 372.481 1.55866 -0.233164 0
M  V30 3905 C 373.391 2.24431 0.683217 0
M  V30 3906 C 374.407 1.2558 1.2044 0
M  V30 3907 O 375.583 1.58422 1.24356 0
M  V30 3908 C 372.648 2.91979 1.86947 0
M  V30 3909 C 371.709 4.06204 1.38912 0
M  V30 3910 C 370.942 4.70522 2.51883 0
M  V30 3911 O 371.165 4.33865 3.70293 0
M  V30 3912 O 370.099 5.59296 2.22423 0
M  V30 3913 H 373.925 3.03426 0.129059 0
M  V30 3914 H 371.51 1.494 -0.0022283 0
M  V30 3915 H 373.392 3.34573 2.56201 0
M  V30 3916 H 372.067 2.15935 2.41151 0
M  V30 3917 H 370.974 3.68155 0.664259 0
M  V30 3918 H 372.307 4.84025 0.893328 0
M  V30 3919 N 373.959 -0.0401083 1.57549 0
M  V30 3920 C 375.205 -0.734211 1.89043 0
M  V30 3921 C 375.538 -1.75591 0.829535 0
M  V30 3922 O 374.813 -1.93868 -0.156706 0
M  V30 3923 C 375.096 -1.41374 3.31188 0
M  V30 3924 C 374.949 -0.406299 4.47961 0
M  V30 3925 C 376.268 -2.35061 3.72068 0
M  V30 3926 H 373.387 -0.265447 0.687537 0
M  V30 3927 H 376.029 0.00294087 1.9 0
M  V30 3928 H 374.179 -2.04206 3.30503 0
M  V30 3929 H 375.851 0.219255 4.60779 0
M  V30 3930 H 374.094 0.275485 4.32924 0
M  V30 3931 H 374.765 -0.920022 5.44279 0
M  V30 3932 H 377.241 -1.82282 3.74049 0
M  V30 3933 H 376.117 -2.79593 4.72355 0
M  V30 3934 H 376.378 -3.21258 3.0372 0
M  V30 3935 N 375.437 -1.54477 -0.31217 0
M  V30 3936 C 376.853 -1.45442 -0.657185 0
M  V30 3937 C 377.053 -0.63653 -1.91182 0
M  V30 3938 O 376.109 -0.139815 -2.52113 0
M  V30 3939 C 377.422 -2.89287 -0.82058 0
M  V30 3940 C 378.97 -2.9926 -0.917188 0
M  V30 3941 C 379.445 -4.44279 -1.11267 0
M  V30 3942 N 380.936 -4.4794 -1.17914 0
M  V30 3943 C 381.671 -5.57318 -1.34848 0
M  V30 3944 N 381.167 -6.76642 -1.48752 0
M  V30 3945 N 382.96 -5.44986 -1.37647 0
M  V30 3946 H 375.111 -2.06129 0.512313 0
M  V30 3947 H 377.374 -0.933088 0.167485 0
M  V30 3948 H 377.08 -3.51687 0.0302604 0
M  V30 3949 H 376.954 -3.36061 -1.71298 0
M  V30 3950 H 379.341 -2.36981 -1.75852 0
M  V30 3951 H 379.422 -2.558 -0.00101257 0
M  V30 3952 H 379.066 -5.07149 -0.27614 0
M  V30 3953 H 378.996 -4.85359 -2.04289 0
M  V30 3954 H 381.487 -3.61969 -1.08567 0
M  V30 3955 H 381.8 -7.55758 -1.61397 0
M  V30 3956 H 380.145 -6.79529 -1.45828 0
M  V30 3957 H 383.336 -4.50715 -1.26388 0
M  V30 3958 H 383.509 -6.3028 -1.50501 0
M  V30 3959 N 376.915 0.57481 -1.46744 0
M  V30 3960 C 377.825 1.711 -1.60505 0
M  V30 3961 C 378.841 1.67008 -0.488307 0
M  V30 3962 O 380.017 1.86774 -0.753495 0
M  V30 3963 C 377.082 3.07608 -1.59932 0
M  V30 3964 C 376.143 3.22904 -2.82898 0
M  V30 3965 C 375.376 4.529 -2.82343 0
M  V30 3966 O 375.599 5.37278 -1.91542 0
M  V30 3967 O 374.533 4.71611 -3.73987 0
M  V30 3968 H 378.359 1.62436 -2.56609 0
M  V30 3969 H 375.944 0.742779 -1.29627 0
M  V30 3970 H 377.826 3.88877 -1.62336 0
M  V30 3971 H 376.501 3.16692 -0.669898 0
M  V30 3972 H 375.408 2.41099 -2.86046 0
M  V30 3973 H 376.741 3.18715 -3.75076 0
M  V30 3974 N 378.394 1.34581 0.820102 0
M  V30 3975 C 379.641 1.27096 1.57648 0
M  V30 3976 C 379.969 -0.158317 1.93855 0
M  V30 3977 O 379.224 -1.12028 1.60463 0
M  V30 3978 C 379.523 2.10997 2.8847 0
M  V30 3979 C 379.189 3.59966 2.71543 0
M  V30 3980 C 377.851 4.00575 2.66634 0
M  V30 3981 C 380.203 4.54548 2.55021 0
M  V30 3982 C 377.531 5.33953 2.43128 0
M  V30 3983 C 379.883 5.88109 2.33047 0
M  V30 3984 C 378.547 6.27878 2.26552 0
M  V30 3985 H 377.817 0.465078 0.576874 0
M  V30 3986 H 380.464 1.6635 0.948671 0
M  V30 3987 H 378.769 1.6458 3.55557 0
M  V30 3988 H 380.466 2.0255 3.46084 0
M  V30 3989 H 377.056 3.27733 2.76205 0
M  V30 3990 H 381.24 4.24069 2.57835 0
M  V30 3991 H 376.496 5.63781 2.3656 0
M  V30 3992 H 380.67 6.60985 2.19251 0
M  V30 3993 H 378.297 7.31162 2.081 0
M  V30 3994 N 379.872 -1.04064 1.18357 0
M  V30 3995 C 380.802 -2.14001 0.934113 0
M  V30 3996 C 381.783 -1.69616 -0.128186 0
M  V30 3997 O 382.968 -1.94185 0.0244093 0
M  V30 3998 C 380.098 -3.44253 0.459066 0
M  V30 3999 C 379.052 -4.02261 1.46185 0
M  V30 4000 C 378.378 -5.27992 0.844322 0
M  V30 4001 C 379.678 -4.38432 2.83856 0
M  V30 4002 H 381.372 -2.35127 1.85352 0
M  V30 4003 H 378.918 -1.12998 0.892604 0
M  V30 4004 H 380.871 -4.20522 0.271907 0
M  V30 4005 H 379.595 -3.22813 -0.495912 0
M  V30 4006 H 378.254 -3.28074 1.63595 0
M  V30 4007 H 377.902 -5.02862 -0.117845 0
M  V30 4008 H 377.602 -5.67765 1.51384 0
M  V30 4009 H 379.126 -6.06938 0.667693 0
M  V30 4010 H 380.54 -5.05688 2.70098 0
M  V30 4011 H 378.937 -4.89254 3.47491 0
M  V30 4012 H 380.007 -3.4826 3.37406 0
M  V30 4013 N 381.35 -0.985608 -1.22978 0
M  V30 4014 C 382.598 -0.656087 -1.91154 0
M  V30 4015 C 382.919 0.813561 -1.77218 0
M  V30 4016 O 382.189 1.58244 -1.1548 0
M  V30 4017 H 380.769 -0.239674 -0.707506 0
M  V30 4018 H 383.431 -1.25054 -1.49491 0
M  V30 4019 H 382.527 -0.912253 -2.9847 0
M  V30 4020 N 382.828 1.3818 -0.7579 0
M  V30 4021 C 383.738 2.3421 -0.135247 0
M  V30 4022 C 384.754 1.59487 0.695683 0
M  V30 4023 O 385.93 1.91657 0.618832 0
M  V30 4024 C 382.995 3.3862 0.744139 0
M  V30 4025 C 382.056 4.2918 -0.101658 0
M  V30 4026 C 381.289 5.28603 0.735851 0
M  V30 4027 O 381.512 5.35166 1.97366 0
M  V30 4028 O 380.446 6.01707 0.152372 0
M  V30 4029 H 384.272 2.8916 -0.928436 0
M  V30 4030 H 381.857 1.40101 -0.518855 0
M  V30 4031 H 383.739 4.02539 1.2466 0
M  V30 4032 H 382.414 2.86019 1.51575 0
M  V30 4033 H 381.321 3.68407 -0.650167 0
M  V30 4034 H 382.654 4.85048 -0.836024 0
M  V30 4035 N 384.306 0.507319 1.49211 0
M  V30 4036 C 385.254 -0.281364 2.30892 0
M  V30 4037 C 386.248 -0.95687 1.39787 0
M  V30 4038 O 387.454 -0.883838 1.56807 0
M  V30 4039 H 383.829 -0.109597 0.743971 0
M  V30 4040 H 385.8 0.42744 2.95323 0
M  V30 4041 C 384.549 -1.32918 3.21291 0
M  V30 4042 H 383.872 -0.818799 3.91326 0
M  V30 4043 H 385.312 -1.85288 3.81372 0
M  V30 4044 C 383.771 -2.35074 2.41333 0
M  V30 4045 O 384.301 -3.4108 2.12197 0
M  V30 4046 N 382.507 -2.07705 2.03241 0
M  V30 4047 H 382.054 -1.2152 2.27136 0
M  V30 4048 H 382.012 -2.76283 1.50051 0
M  V30 4049 N 385.784 -1.5574 0.241426 0
M  V30 4050 C 387.033 -1.97986 -0.385295 0
M  V30 4051 C 387.346 -1.13267 -1.59468 0
M  V30 4052 O 388.552 -1.45501 -2.2922 0
M  V30 4053 C 387.008 -3.52275 -0.736884 0
M  V30 4054 C 386.616 -4.45726 0.450796 0
M  V30 4055 C 388.36 -4.03189 -1.3281 0
M  V30 4056 C 386.267 -5.91352 0.0756662 0
M  V30 4057 H 385.197 -0.739386 -0.147731 0
M  V30 4058 H 387.848 -1.80308 0.340779 0
M  V30 4059 H 386.23 -3.65628 -1.52094 0
M  V30 4060 H 387.404 -4.44131 1.22819 0
M  V30 4061 H 385.719 -4.05264 0.956573 0
M  V30 4062 H 388.316 -5.09505 -1.62201 0
M  V30 4063 H 388.659 -3.50212 -2.25071 0
M  V30 4064 H 389.192 -3.93141 -0.607069 0
M  V30 4065 H 385.931 -6.48354 0.965272 0
M  V30 4066 H 385.451 -5.96095 -0.665635 0
M  V30 4067 H 387.13 -6.46084 -0.344075 0
M  V30 4068 N 387.262 0.0317525 -1.57568 0
M  V30 4069 C 388.487 0.738664 -1.938 0
M  V30 4070 C 388.912 1.68242 -0.841208 0
M  V30 4071 O 388.27 1.80157 0.203267 0
M  V30 4072 C 388.318 1.47417 -3.29091 0
M  V30 4073 O 387.422 2.5872 -3.2115 0
M  V30 4074 H 386.763 0.198856 -0.633524 0
M  V30 4075 H 389.293 -0.0119713 -2.04596 0
M  V30 4076 H 389.303 1.84468 -3.63917 0
M  V30 4077 H 387.978 0.781988 -4.08482 0
M  V30 4078 H 386.555 2.24231 -2.97951 0
M  V30 4079 N 388.74 1.54641 0.303973 0
M  V30 4080 C 389.688 1.86137 1.39484 0
M  V30 4081 C 390.682 0.734854 1.52631 0
M  V30 4082 O 391.888 0.918803 1.54784 0
M  V30 4083 H 388.263 0.590324 0.465856 0
M  V30 4084 H 390.234 2.77324 1.10154 0
M  V30 4085 C 388.983 2.12274 2.75382 0
M  V30 4086 H 388.306 2.98429 2.66046 0
M  V30 4087 H 389.746 2.38254 3.5073 0
M  V30 4088 C 388.205 0.920365 3.24085 0
M  V30 4089 O 388.735 0.139377 4.01458 0
M  V30 4090 N 386.941 0.726566 2.81371 0
M  V30 4091 H 386.488 1.36332 2.18567 0
M  V30 4092 H 386.446 -0.0763799 3.14307 0
M  V30 4093 N 390.218 -0.567019 1.47046 0
M  V30 4094 C 391.465 -1.32462 1.53167 0
M  V30 4095 C 391.793 -1.93571 0.189841 0
M  V30 4096 O 391.048 -1.77865 -0.816243 0
M  V30 4097 C 391.347 -2.4623 2.59047 0
M  V30 4098 C 391.013 -2.03014 4.02612 0
M  V30 4099 C 389.675 -1.90944 4.41694 0
M  V30 4100 C 392.027 -1.69895 4.92732 0
M  V30 4101 C 389.355 -1.44035 5.68745 0
M  V30 4102 C 391.707 -1.2446 6.20236 0
M  V30 4103 C 390.371 -1.10979 6.5821 0
M  V30 4104 H 389.641 -0.484713 0.560477 0
M  V30 4105 H 392.288 -0.636888 1.80599 0
M  V30 4106 H 390.593 -3.20517 2.25335 0
M  V30 4107 H 392.29 -3.04427 2.61008 0
M  V30 4108 H 388.88 -2.13348 3.71726 0
M  V30 4109 H 393.064 -1.78098 4.63244 0
M  V30 4110 H 388.32 -1.32254 5.96925 0
M  V30 4111 H 392.494 -0.978924 6.89485 0
M  V30 4112 H 390.121 -0.744078 7.5655 0
M  V30 4113 N 391.696 -1.35014 -0.812953 0
M  V30 4114 C 392.626 -1.30069 -1.93919 0
M  V30 4115 C 393.607 -0.176275 -1.69184 0
M  V30 4116 O 394.792 -0.370227 -1.90638 0
M  V30 4117 C 391.922 -1.06547 -3.30552 0
M  V30 4118 C 390.876 -2.15561 -3.69753 0
M  V30 4119 C 390.202 -1.77214 -5.04479 0
M  V30 4120 C 391.502 -3.57476 -3.808 0
M  V30 4121 H 393.196 -2.24303 -1.98314 0
M  V30 4122 H 390.742 -1.07977 -0.952736 0
M  V30 4123 H 392.695 -1.01729 -4.08937 0
M  V30 4124 H 391.419 -0.0875719 -3.26483 0
M  V30 4125 H 390.078 -2.19466 -2.9365 0
M  V30 4126 H 389.726 -0.780589 -4.96906 0
M  V30 4127 H 389.426 -2.50184 -5.31678 0
M  V30 4128 H 390.95 -1.7391 -5.8531 0
M  V30 4129 H 392.364 -3.55929 -4.4943 0
M  V30 4130 H 390.761 -4.29152 -4.19462 0
M  V30 4131 H 391.831 -3.94091 -2.82525 0
M  V30 4132 N 393.175 1.03435 -1.18907 0
M  V30 4133 C 394.4 1.80919 -1.01406 0
M  V30 4134 C 394.825 1.83055 0.432721 0
M  V30 4135 O 394.183 1.25252 1.31079 0
M  V30 4136 C 394.231 3.24091 -1.58105 0
M  V30 4137 O 393.335 4.04434 -0.806669 0
M  V30 4138 H 392.676 0.558709 -0.358803 0
M  V30 4139 H 395.206 1.30223 -1.57807 0
M  V30 4140 H 395.216 3.74853 -1.61087 0
M  V30 4141 H 393.891 3.21851 -2.6341 0
M  V30 4142 H 392.468 3.63091 -0.849666 0
M  V30 4143 N 394.653 0.992116 1.22453 0
M  V30 4144 C 395.583 0.561677 2.26644 0
M  V30 4145 C 396.564 -0.411055 1.65059 0
M  V30 4146 O 397.749 -0.301861 1.9184 0
M  V30 4147 C 394.879 -0.125247 3.47074 0
M  V30 4148 C 393.833 0.765948 4.21091 0
M  V30 4149 C 393.159 -0.0538484 5.34673 0
M  V30 4150 C 394.459 2.06242 4.79856 0
M  V30 4151 H 396.153 1.43259 2.62902 0
M  V30 4152 H 393.699 0.690283 1.26377 0
M  V30 4153 H 395.652 -0.437764 4.1912 0
M  V30 4154 H 394.376 -1.03069 3.0991 0
M  V30 4155 H 393.035 1.0621 3.50878 0
M  V30 4156 H 392.683 -0.960188 4.9375 0
M  V30 4157 H 392.383 0.539415 5.85119 0
M  V30 4158 H 393.907 -0.360477 6.09535 0
M  V30 4159 H 395.321 1.8139 5.43848 0
M  V30 4160 H 393.718 2.60444 5.40638 0
M  V30 4161 H 394.788 2.74167 3.99951 0
M  V30 4162 N 396.131 -1.37776 0.765217 0
M  V30 4163 C 397.094 -2.28686 0.153416 0
M  V30 4164 C 398.094 -1.47727 -0.635081 0
M  V30 4165 O 399.284 -1.68027 -0.459632 0
M  V30 4166 C 396.416 -3.31608 -0.790495 0
M  V30 4167 H 397.609 -2.84297 0.954723 0
M  V30 4168 H 395.162 -1.46932 0.53299 0
M  V30 4169 H 395.897 -2.81109 -1.61705 0
M  V30 4170 H 395.682 -3.9144 -0.227348 0
M  V30 4171 H 397.172 -3.99559 -1.21419 0
M  V30 4172 N 397.609 -0.515225 -1.4894 0
M  V30 4173 C 398.857 0.0241671 -2.02086 0
M  V30 4174 C 399.178 1.3616 -1.3959 0
M  V30 4175 O 398.448 1.87841 -0.556121 0
M  V30 4176 H 397.028 0.0119203 -0.746905 0
M  V30 4177 H 399.69 -0.675702 -1.82812 0
M  V30 4178 H 398.786 0.143385 -3.1177 0
M  V30 4179 N 399.087 1.5561 -0.249682 0
M  V30 4180 C 400.035 2.22894 0.664906 0
M  V30 4181 C 401.029 1.21743 1.17792 0
M  V30 4182 O 402.235 1.39748 1.13449 0
M  V30 4183 H 398.61 0.715022 0.232912 0
M  V30 4184 H 400.581 2.98307 0.0742998 0
M  V30 4185 C 399.33 2.94424 1.84959 0
M  V30 4186 H 398.653 3.72031 1.46399 0
M  V30 4187 H 400.093 3.44862 2.4667 0
M  V30 4188 C 398.552 1.98454 2.72245 0
M  V30 4189 O 399.082 1.51939 3.71857 0
M  V30 4190 N 397.288 1.65496 2.38871 0
M  V30 4191 H 396.835 2.03517 1.57919 0
M  V30 4192 H 396.793 1.0155 2.97548 0
M  V30 4193 N 400.565 -0.0233959 1.57583 0
M  V30 4194 C 401.793 -0.724682 1.93794 0
M  V30 4195 C 402.208 -1.68588 0.849912 0
M  V30 4196 O 401.565 -1.81676 -0.173204 0
M  V30 4197 C 401.616 -1.47684 3.29957 0
M  V30 4198 O 401.337 -0.554222 4.3458 0
M  V30 4199 C 402.838 -2.27477 3.80485 0
M  V30 4200 H 400.058 -0.203317 0.639455 0
M  V30 4201 H 402.602 0.0207653 2.04489 0
M  V30 4202 H 400.757 -2.17412 3.20641 0
M  V30 4203 H 401.171 -1.08232 5.13212 0
M  V30 4204 H 402.645 -2.7564 4.78254 0
M  V30 4205 H 403.122 -3.09144 3.11972 0
M  V30 4206 H 403.728 -1.62813 3.92902 0
M  V30 4207 N 402.043 -1.548 -0.295768 0
M  V30 4208 C 403.273 -1.78069 -1.04762 0
M  V30 4209 C 403.681 -0.542847 -1.81245 0
M  V30 4210 O 403.024 0.497051 -1.76848 0
M  V30 4211 C 403.086 -2.93881 -2.07061 0
M  V30 4212 C 402.75 -4.31777 -1.49725 0
M  V30 4213 C 403.747 -5.11613 -0.924581 0
M  V30 4214 C 401.432 -4.78389 -1.5313 0
M  V30 4215 C 403.426 -6.36184 -0.393594 0
M  V30 4216 C 401.113 -6.02921 -0.996447 0
M  V30 4217 C 402.111 -6.81654 -0.428569 0
M  V30 4218 O 401.799 -8.0384 0.0981593 0
M  V30 4219 H 401.531 -0.597475 -0.316226 0
M  V30 4220 H 404.085 -2.02584 -0.338973 0
M  V30 4221 H 402.315 -2.65003 -2.81621 0
M  V30 4222 H 404.004 -3.04679 -2.6819 0
M  V30 4223 H 404.77 -4.76743 -0.891136 0
M  V30 4224 H 400.649 -4.17132 -1.9627 0
M  V30 4225 H 404.193 -6.97582 0.0503014 0
M  V30 4226 H 400.09 -6.37277 -1.02706 0
M  V30 4227 H 400.858 -8.18499 -0.0146455 0
M  V30 4228 N 403.521 0.559213 -1.47345 0
M  V30 4229 C 404.453 1.68161 -1.55738 0
M  V30 4230 C 405.466 1.56636 -0.443744 0
M  V30 4231 O 406.655 1.6363 -0.713258 0
M  V30 4232 C 403.755 3.06611 -1.4437 0
M  V30 4233 C 402.928 3.4391 -2.70268 0
M  V30 4234 C 401.987 4.61515 -2.52765 0
M  V30 4235 O 401.013 4.66197 -3.26572 0
M  V30 4236 N 402.215 5.57883 -1.6046 0
M  V30 4237 H 404.98 1.61408 -2.52522 0
M  V30 4238 H 402.541 0.7458 -1.43699 0
M  V30 4239 H 404.533 3.83117 -1.30398 0
M  V30 4240 H 403.103 3.07602 -0.556766 0
M  V30 4241 H 402.323 2.56873 -2.99015 0
M  V30 4242 H 403.611 3.65605 -3.53851 0
M  V30 4243 H 403.009 5.56855 -0.996422 0
M  V30 4244 H 401.566 6.33723 -1.52441 0
M  V30 4245 N 404.999 1.35443 0.805782 0
M  V30 4246 C 405.929 1.31095 1.93226 0
M  V30 4247 C 406.91 0.185244 1.69088 0
M  V30 4248 O 408.095 0.380332 1.90439 0
M  V30 4249 C 405.225 1.08299 3.29983 0
M  V30 4250 C 404.179 2.17519 3.68605 0
M  V30 4251 C 403.505 1.79887 5.03532 0
M  V30 4252 C 404.805 3.5949 3.78898 0
M  V30 4253 H 406.499 2.25352 1.97122 0
M  V30 4254 H 404.045 1.0848 0.946996 0
M  V30 4255 H 405.998 1.03897 4.08391 0
M  V30 4256 H 404.722 0.104885 3.26432 0
M  V30 4257 H 403.381 2.2102 2.92482 0
M  V30 4258 H 403.029 0.80693 4.96485 0
M  V30 4259 H 402.729 2.53001 5.30344 0
M  V30 4260 H 404.253 1.77011 5.84379 0
M  V30 4261 H 405.667 3.58307 4.47536 0
M  V30 4262 H 404.064 4.31371 4.1718 0
M  V30 4263 H 405.134 3.95584 2.80431 0
M  V30 4264 N 406.477 -1.02803 1.19454 0
M  V30 4265 C 407.705 -1.79841 1.02297 0
M  V30 4266 C 408.12 -1.83879 -0.428259 0
M  V30 4267 O 407.477 -1.28345 -1.29745 0
M  V30 4268 C 407.528 -3.24852 1.58598 0
M  V30 4269 O 407.249 -3.21097 2.98041 0
M  V30 4270 C 408.75 -4.18485 1.46236 0
M  V30 4271 H 405.97 -0.565936 0.360496 0
M  V30 4272 H 408.514 -1.2948 1.58288 0
M  V30 4273 H 406.669 -3.72401 1.06753 0
M  V30 4274 H 407.083 -4.12033 3.24545 0
M  V30 4275 H 408.557 -5.18121 1.90407 0
M  V30 4276 H 409.034 -4.37254 0.41301 0
M  V30 4277 H 409.64 -3.76811 1.97215 0
M  V30 4278 N 407.956 -0.998596 -1.21925 0
M  V30 4279 C 409.372 -0.710303 -1.42923 0
M  V30 4280 C 409.572 0.716933 -1.88314 0
M  V30 4281 O 408.628 1.48712 -2.04062 0
M  V30 4282 C 409.941 -1.72072 -2.466 0
M  V30 4283 C 411.489 -1.73681 -2.60392 0
M  V30 4284 C 411.964 -2.73601 -3.67296 0
M  V30 4285 N 413.455 -2.7223 -3.7476 0
M  V30 4286 C 414.19 -3.46206 -4.57087 0
M  V30 4287 N 413.686 -4.29802 -5.43362 0
M  V30 4288 N 415.479 -3.34886 -4.51451 0
M  V30 4289 H 407.63 -1.92028 -0.9077 0
M  V30 4290 H 409.893 -0.828487 -0.460775 0
M  V30 4291 H 409.599 -2.74231 -2.20206 0
M  V30 4292 H 409.473 -1.51818 -3.45299 0
M  V30 4293 H 411.86 -0.722173 -2.86127 0
M  V30 4294 H 411.941 -1.98005 -1.61949 0
M  V30 4295 H 411.585 -3.75217 -3.42307 0
M  V30 4296 H 411.515 -2.46545 -4.65321 0
M  V30 4297 H 414.006 -2.11576 -3.1312 0
M  V30 4298 H 414.319 -4.83061 -6.03218 0
M  V30 4299 H 412.664 -4.33887 -5.42925 0
M  V30 4300 H 415.855 -2.69015 -3.83078 0
M  V30 4301 H 416.028 -3.92796 -5.15379 0
M  V30 4302 N 409.434 1.37368 -0.772513 0
M  V30 4303 C 410.682 1.99279 -0.336516 0
M  V30 4304 C 411.003 1.6163 1.09091 0
M  V30 4305 O 410.273 0.882109 1.74916 0
M  V30 4306 H 408.853 0.737063 -0.121435 0
M  V30 4307 H 411.515 1.67836 -0.990809 0
M  V30 4308 H 410.611 3.09332 -0.414763 0
M  V30 4309 N 410.912 0.523116 1.48665 0
M  V30 4310 C 412.161 -0.01544 2.01694 0
M  V30 4311 C 412.474 -1.35975 1.40606 0
M  V30 4312 O 413.68 -1.98627 1.85093 0
M  V30 4313 C 412.136 -0.0779303 3.59816 0
M  V30 4314 C 411.744 1.26107 4.29885 0
M  V30 4315 C 413.488 -0.565678 4.20714 0
M  V30 4316 C 411.395 1.15954 5.79921 0
M  V30 4317 H 410.325 -0.00954163 0.75394 0
M  V30 4318 H 412.976 0.665865 1.70993 0
M  V30 4319 H 411.358 -0.824165 3.87329 0
M  V30 4320 H 412.532 2.02233 4.14051 0
M  V30 4321 H 410.847 1.68401 3.80828 0
M  V30 4322 H 413.444 -0.6595 5.30617 0
M  V30 4323 H 413.787 -1.56984 3.85567 0
M  V30 4324 H 414.32 0.12467 3.97605 0
M  V30 4325 H 411.059 2.13864 6.19631 0
M  V30 4326 H 410.579 0.439529 5.98187 0
M  V30 4327 H 412.258 0.847361 6.41427 0
M  V30 4328 N 412.39 -1.55475 0.257931 0
M  V30 4329 C 413.638 -1.98813 -0.363009 0
M  V30 4330 C 413.959 -1.14757 -1.57657 0
M  V30 4331 O 413.229 -0.232956 -1.9451 0
M  V30 4332 H 411.809 -0.734308 -0.137113 0
M  V30 4333 H 414.471 -1.9156 0.359281 0
M  V30 4334 H 413.567 -3.04941 -0.664634 0
M  V30 4335 N 413.868 0.0150385 -1.57593 0
M  V30 4336 C 414.815 1.01126 -2.07466 0
M  V30 4337 C 415.785 1.35064 -0.966794 0
M  V30 4338 O 416.97 1.4516 -1.23827 0
M  V30 4339 C 414.11 2.30276 -2.57035 0
M  V30 4340 C 413.223 2.02373 -3.81666 0
M  V30 4341 C 412.358 3.25496 -4.19793 0
M  V30 4342 C 411.397 2.93211 -5.37303 0
M  V30 4343 N 410.534 4.08826 -5.70794 0
M  V30 4344 H 415.374 0.57901 -2.92321 0
M  V30 4345 H 412.911 0.27426 -1.44521 0
M  V30 4346 H 414.869 3.05757 -2.83846 0
M  V30 4347 H 413.499 2.71197 -1.75077 0
M  V30 4348 H 412.551 1.17327 -3.61854 0
M  V30 4349 H 413.863 1.74567 -4.67256 0
M  V30 4350 H 413.017 4.09333 -4.47807 0
M  V30 4351 H 411.756 3.56428 -3.32882 0
M  V30 4352 H 410.761 2.07777 -5.09027 0
M  V30 4353 H 411.986 2.63542 -6.25877 0
M  V30 4354 H 409.932 4.39682 -4.86842 0
M  V30 4355 H 409.849 3.84491 -6.50924 0
M  V30 4356 H 411.117 4.93496 -6.03392 0
M  V30 4357 N 415.346 1.54954 0.287554 0
M  V30 4358 C 416.623 1.65569 1.04146 0
M  V30 4359 C 417.003 0.512672 2.0478 0
M  V30 4360 O 416.351 -0.489038 2.23205 0
M  V30 4361 C 416.561 3.04163 1.71131 0
M  V30 4362 C 417.909 3.61429 2.22832 0
M  V30 4363 O 418.933 3.06702 1.81141 0
M  V30 4364 O 417.792 4.57281 2.9926 0
M  V30 4365 H 414.886 0.671881 0.482188 0
M  V30 4366 H 417.432 1.67297 0.28457 0
M  V30 4367 H 416.204 3.78796 0.981303 0
M  V30 4368 H 415.827 3.06271 2.53543 0
M  V30 4369 N 416.824 -0.551391 1.4764 0
M  V30 4370 C 418.073 -1.30467 1.53822 0
M  V30 4371 C 418.386 -1.94495 0.207661 0
M  V30 4372 O 419.592 -2.71099 0.147533 0
M  V30 4373 C 418.048 -2.36616 2.71184 0
M  V30 4374 C 417.656 -1.78754 4.10793 0
M  V30 4375 C 419.4 -3.13088 2.86663 0
M  V30 4376 C 417.307 -2.82717 5.19447 0
M  V30 4377 H 416.237 -0.490584 0.572576 0
M  V30 4378 H 418.888 -0.58494 1.73927 0
M  V30 4379 H 417.27 -3.11529 2.4447 0
M  V30 4380 H 418.444 -1.10173 4.47435 0
M  V30 4381 H 416.759 -1.14846 4.00249 0
M  V30 4382 H 419.356 -3.90736 3.65007 0
M  V30 4383 H 419.699 -3.67635 1.95321 0
M  V30 4384 H 420.232 -2.45288 3.13175 0
M  V30 4385 H 416.971 -2.33018 6.12685 0
M  V30 4386 H 416.491 -3.4969 4.87316 0
M  V30 4387 H 418.17 -3.46102 5.46646 0
M  V30 4388 N 418.302 -1.35869 -0.798587 0
M  V30 4389 C 419.718 -1.16082 -1.09532 0
M  V30 4390 C 419.918 0.0213124 -2.01489 0
M  V30 4391 O 418.974 0.689488 -2.42904 0
M  V30 4392 C 420.287 -2.46748 -1.7186 0
M  V30 4393 C 421.835 -2.53028 -1.84244 0
M  V30 4394 C 422.31 -3.83758 -2.49988 0
M  V30 4395 N 423.801 -3.85053 -2.57465 0
M  V30 4396 C 424.536 -4.8294 -3.09122 0
M  V30 4397 N 424.032 -5.91217 -3.61157 0
M  V30 4398 N 425.825 -4.70369 -3.0775 0
M  V30 4399 H 417.976 -2.11571 -0.187461 0
M  V30 4400 H 420.239 -0.936726 -0.145765 0
M  V30 4401 H 419.945 -3.33471 -1.11759 0
M  V30 4402 H 419.819 -2.61883 -2.71472 0
M  V30 4403 H 422.206 -1.66729 -2.43486 0
M  V30 4404 H 422.287 -2.418 -0.834643 0
M  V30 4405 H 421.931 -4.70459 -1.91393 0
M  V30 4406 H 421.861 -3.92278 -3.5132 0
M  V30 4407 H 424.352 -3.06822 -2.20609 0
M  V30 4408 H 424.665 -6.61892 -3.98896 0
M  V30 4409 H 423.01 -5.94899 -3.59333 0
M  V30 4410 H 426.201 -3.84914 -2.66381 0
M  V30 4411 H 426.374 -5.46816 -3.47701 0
M  V30 4412 N 419.78 1.02168 -1.19998 0
M  V30 4413 C 420.743 2.08765 -0.94604 0
M  V30 4414 C 421.743 1.60618 0.0763846 0
M  V30 4415 O 422.933 1.73472 -0.159135 0
M  V30 4416 C 420.065 3.38262 -0.423255 0
M  V30 4417 H 421.258 2.32726 -1.89153 0
M  V30 4418 H 418.811 1.1889 -1.01464 0
M  V30 4419 H 419.546 3.19974 0.527938 0
M  V30 4420 H 419.331 3.74532 -1.16053 0
M  V30 4421 H 420.821 4.16759 -0.264911 0
M  V30 4422 N 421.258 1.00505 1.21394 0
M  V30 4423 C 422.188 0.585684 2.26035 0
M  V30 4424 C 423.169 -0.393525 1.65485 0
M  V30 4425 O 424.354 -0.281497 1.92149 0
M  V30 4426 C 421.484 -0.0884283 3.47187 0
M  V30 4427 C 420.438 0.810567 4.20254 0
M  V30 4428 C 419.764 0.00286382 5.347 0
M  V30 4429 C 421.064 2.1132 4.77641 0
M  V30 4430 H 422.758 1.46039 2.61368 0
M  V30 4431 H 420.304 0.703648 1.25638 0
M  V30 4432 H 422.257 -0.393286 4.19561 0
M  V30 4433 H 420.981 -0.997766 3.10986 0
M  V30 4434 H 419.64 1.09925 3.49731 0
M  V30 4435 H 419.288 -0.907765 4.94741 0
M  V30 4436 H 418.988 0.601444 5.84514 0
M  V30 4437 H 420.512 -0.295808 6.09883 0
M  V30 4438 H 421.926 1.87148 5.41893 0
M  V30 4439 H 420.323 2.66164 5.37845 0
M  V30 4440 H 421.393 2.78393 3.9702 0
M  V30 4441 N 422.737 -1.36956 0.779787 0
M  V30 4442 C 424.153 -1.52817 0.460342 0
M  V30 4443 C 424.353 -1.7361 -1.02283 0
M  V30 4444 O 423.409 -1.76207 -1.80852 0
M  V30 4445 C 424.722 -2.71983 1.28241 0
M  V30 4446 C 426.27 -2.85849 1.27512 0
M  V30 4447 C 426.745 -4.08008 2.08072 0
M  V30 4448 N 428.236 -4.15135 2.05467 0
M  V30 4449 C 428.971 -5.08711 2.64577 0
M  V30 4450 N 428.467 -6.07792 3.32506 0
M  V30 4451 N 430.26 -5.01254 2.54363 0
M  V30 4452 H 422.411 -1.21713 1.74068 0
M  V30 4453 H 424.674 -0.593294 0.739396 0
M  V30 4454 H 424.38 -2.63109 2.33381 0
M  V30 4455 H 424.254 -3.65882 0.917088 0
M  V30 4456 H 426.641 -2.94189 0.231686 0
M  V30 4457 H 426.722 -1.92886 1.68014 0
M  V30 4458 H 426.366 -4.00429 3.12441 0
M  V30 4459 H 426.296 -5.001 1.64947 0
M  V30 4460 H 428.787 -3.44189 1.5602 0
M  V30 4461 H 429.1 -6.75739 3.74963 0
M  V30 4462 H 427.445 -6.08047 3.36606 0
M  V30 4463 H 430.636 -4.22795 2.00902 0
M  V30 4464 H 430.809 -5.73995 3.00722 0
M  V30 4465 N 424.215 -0.530993 -1.48385 0
M  V30 4466 C 425.631 -0.188919 -1.58478 0
M  V30 4467 C 425.831 1.30786 -1.53288 0
M  V30 4468 O 424.887 2.08619 -1.42248 0
M  V30 4469 C 426.2 -0.792343 -2.90073 0
M  V30 4470 C 427.748 -0.76117 -3.03604 0
M  V30 4471 C 428.223 -1.34319 -4.37861 0
M  V30 4472 N 429.714 -1.3052 -4.44431 0
M  V30 4473 C 430.449 -1.72543 -5.46824 0
M  V30 4474 N 429.945 -2.22299 -6.56167 0
M  V30 4475 N 431.738 -1.63773 -5.37712 0
M  V30 4476 H 423.889 -1.50377 -1.50002 0
M  V30 4477 H 426.152 -0.625559 -0.712306 0
M  V30 4478 H 425.858 -1.84323 -2.99529 0
M  V30 4479 H 425.732 -0.270026 -3.76232 0
M  V30 4480 H 428.119 0.280957 -2.93759 0
M  V30 4481 H 428.2 -1.32097 -2.19053 0
M  V30 4482 H 427.844 -2.38425 -4.4846 0
M  V30 4483 H 427.774 -0.759064 -5.21101 0
M  V30 4484 H 430.265 -0.940973 -3.65997 0
M  V30 4485 H 430.578 -2.52356 -7.30436 0
M  V30 4486 H 428.923 -2.26293 -6.57127 0
M  V30 4487 H 432.114 -1.24698 -4.51185 0
M  V30 4488 H 432.287 -1.96844 -6.17379 0
M  V30 4489 N 425.693 1.55336 -0.266172 0
M  V30 4490 C 426.656 2.20878 0.612001 0
M  V30 4491 C 427.656 1.18388 1.08816 0
M  V30 4492 O 428.846 1.4335 0.989774 0
M  V30 4493 C 425.978 2.86765 1.84332 0
M  V30 4494 H 427.171 2.99873 0.0398718 0
M  V30 4495 H 424.724 1.56291 -0.0167309 0
M  V30 4496 H 425.459 2.11759 2.45619 0
M  V30 4497 H 425.244 3.61862 1.5099 0
M  V30 4498 H 426.734 3.36867 2.46801 0
M  V30 4499 N 427.171 -0.0066808 1.57599 0
M  V30 4500 C 428.587 -0.36267 1.55425 0
M  V30 4501 C 428.787 -1.75209 0.995187 0
M  V30 4502 O 427.843 -2.44616 0.626058 0
M  V30 4503 C 429.156 -0.244017 2.99708 0
M  V30 4504 C 430.704 -0.319451 3.11366 0
M  V30 4505 C 431.179 -0.229998 4.57422 0
M  V30 4506 N 432.67 -0.288105 4.62303 0
M  V30 4507 C 433.405 -0.242127 5.72889 0
M  V30 4508 N 432.901 -0.147133 6.92644 0
M  V30 4509 N 434.694 -0.293502 5.61333 0
M  V30 4510 H 426.845 0.902314 1.92281 0
M  V30 4511 H 429.108 0.34525 0.882896 0
M  V30 4512 H 428.814 0.711678 3.44424 0
M  V30 4513 H 428.688 -1.02877 3.629 0
M  V30 4514 H 431.075 -1.26559 2.66584 0
M  V30 4515 H 431.156 0.495055 2.50964 0
M  V30 4516 H 430.8 0.712566 5.02877 0
M  V30 4517 H 430.73 -1.0629 5.15761 0
M  V30 4518 H 433.221 -0.363126 3.76151 0
M  V30 4519 H 433.534 -0.117763 7.7271 0
M  V30 4520 H 431.879 -0.112857 6.94908 0
M  V30 4521 H 435.07 -0.365864 4.66668 0
M  V30 4522 H 435.243 -0.254204 6.47501 0
M  V30 4523 N 428.649 -1.55105 -0.279332 0
M  V30 4524 C 429.612 -1.86783 -1.32834 0
M  V30 4525 C 430.612 -0.74199 -1.42657 0
M  V30 4526 O 431.802 -1.0102 -1.41918 0
M  V30 4527 C 428.934 -2.06746 -2.71052 0
M  V30 4528 H 430.127 -2.8055 -1.05979 0
M  V30 4529 H 427.68 -1.47499 -0.517087 0
M  V30 4530 H 428.415 -1.15339 -3.03097 0
M  V30 4531 H 428.2 -2.88711 -2.65309 0
M  V30 4532 H 429.69 -2.32549 -3.46858 0
M  V30 4533 N 430.127 0.543554 -1.4793 0
M  V30 4534 C 431.075 1.67039 -1.61866 0
M  V30 4535 C 432.069 1.62294 -0.48549 0
M  V30 4536 O 433.275 1.67315 -0.66376 0
M  V30 4537 H 429.65 0.552954 -0.509652 0
M  V30 4538 H 431.621 1.52426 -2.56533 0
M  V30 4539 C 430.37 3.05357 -1.6629 0
M  V30 4540 H 429.693 3.09696 -2.5284 0
M  V30 4541 H 431.133 3.83855 -1.80088 0
M  V30 4542 C 429.592 3.34531 -0.398861 0
M  V30 4543 O 430.122 3.98649 0.494162 0
M  V30 4544 N 428.328 2.89299 -0.2747 0
M  V30 4545 H 427.875 2.37298 -1.00236 0
M  V30 4546 H 427.833 3.09188 0.570075 0
M  V30 4547 N 431.605 1.3629 0.791371 0
M  V30 4548 C 432.535 1.33137 1.91825 0
M  V30 4549 C 433.516 0.203168 1.68882 0
M  V30 4550 O 434.701 0.400509 1.90025 0
M  V30 4551 C 431.831 1.11793 3.28816 0
M  V30 4552 C 430.785 2.21417 3.66277 0
M  V30 4553 C 430.111 1.85218 5.01596 0
M  V30 4554 C 431.411 3.63489 3.75064 0
M  V30 4555 H 433.105 2.2743 1.9472 0
M  V30 4556 H 430.651 1.09479 0.935437 0
M  V30 4557 H 432.604 1.08222 4.07266 0
M  V30 4558 H 431.328 0.139501 3.26302 0
M  V30 4559 H 429.987 2.2411 2.90121 0
M  V30 4560 H 429.635 0.859544 4.95602 0
M  V30 4561 H 429.335 2.58611 5.27631 0
M  V30 4562 H 430.859 1.832 5.82469 0
M  V30 4563 H 432.273 3.63034 4.43711 0
M  V30 4564 H 430.67 4.35771 4.12582 0
M  V30 4565 H 431.74 3.98536 2.76219 0
M  V30 4566 N 433.083 -1.0153 1.20538 0
M  V30 4567 C 434.015 -2.10224 0.913155 0
M  V30 4568 C 435.028 -1.62495 -0.0995998 0
M  V30 4569 O 436.217 -1.78014 0.131582 0
M  V30 4570 C 433.317 -3.37111 0.347717 0
M  V30 4571 C 432.49 -4.13971 1.41233 0
M  V30 4572 C 431.549 -5.19158 0.857976 0
M  V30 4573 O 430.575 -5.48 1.53897 0
M  V30 4574 N 431.777 -5.7955 -0.331966 0
M  V30 4575 H 434.542 -2.35879 1.84881 0
M  V30 4576 H 432.103 -1.17931 1.10923 0
M  V30 4577 H 434.095 -4.04683 -0.0373026 0
M  V30 4578 H 432.665 -3.08696 -0.492527 0
M  V30 4579 H 431.885 -3.41351 1.97163 0
M  V30 4580 H 433.173 -4.62103 2.12928 0
M  V30 4581 H 432.571 -5.58455 -0.902478 0
M  V30 4582 H 431.128 -6.48464 -0.65861 0
M  V30 4583 N 434.561 -1.01147 -1.20859 0
M  V30 4584 C 435.786 -0.716698 -1.94623 0
M  V30 4585 C 436.211 0.715415 -1.73964 0
M  V30 4586 O 435.569 1.49157 -1.03062 0
M  V30 4587 C 435.617 -1.0513 -3.44935 0
M  V30 4588 O 434.721 -0.160131 -4.12089 0
M  V30 4589 H 434.062 -0.266404 -0.608214 0
M  V30 4590 H 436.592 -1.35346 -1.53436 0
M  V30 4591 H 436.602 -1.00086 -3.95533 0
M  V30 4592 H 435.277 -2.09475 -3.59295 0
M  V30 4593 H 433.854 -0.267657 -3.71938 0
M  V30 4594 N 436.039 1.36541 -0.78704 0
M  V30 4595 C 437.285 1.99599 -0.358872 0
M  V30 4596 C 437.618 1.62323 1.06606 0
M  V30 4597 O 436.893 0.876858 1.73613 0
M  V30 4598 C 437.176 3.56327 -0.519944 0
M  V30 4599 C 437.029 4.03464 -1.98839 0
M  V30 4600 C 438.348 4.4005 0.0664737 0
M  V30 4601 H 435.467 0.725107 -0.131869 0
M  V30 4602 H 438.109 1.6199 -0.992936 0
M  V30 4603 H 436.259 3.88495 0.0198321 0
M  V30 4604 H 437.931 3.81793 -2.58905 0
M  V30 4605 H 436.174 3.55092 -2.49183 0
M  V30 4606 H 436.845 5.12439 -2.05207 0
M  V30 4607 H 439.321 4.14228 -0.394267 0
M  V30 4608 H 438.197 5.48847 -0.0762682 0
M  V30 4609 H 438.458 4.26655 1.15835 0
M  V30 4610 N 437.518 0.538854 1.48102 0
M  V30 4611 C 438.929 0.100679 1.86428 0
M  V30 4612 C 439.28 -1.32447 1.44749 0
M  V30 4613 O 438.405 -1.99339 0.842199 0
M  V30 4614 C 439 0.175933 3.38343 0
M  V30 4615 C 437.559 -0.207098 3.7583 0
M  V30 4616 C 436.706 0.531741 2.72154 0
M  V30 4617 H 439.657 0.749614 1.3988 0
M  V30 4618 H 439.678 -0.610144 3.75576 0
M  V30 4619 H 439.19 1.21328 3.68648 0
M  V30 4620 H 437.291 -1.24626 3.5114 0
M  V30 4621 H 437.404 0.138687 4.78899 0
M  V30 4622 H 435.768 -0.0230462 2.5469 0
M  V30 4623 H 436.551 1.56989 3.05302 0
M  V30 4624 N 438.996 -1.55193 0.274407 0
M  V30 4625 C 439.946 -2.19184 -0.627882 0
M  V30 4626 C 440.93 -1.15625 -1.11892 0
M  V30 4627 O 442.122 -1.41441 -1.06411 0
M  V30 4628 C 439.251 -2.91591 -1.81189 0
M  V30 4629 C 438.337 -4.02438 -1.33807 0
M  V30 4630 N 438.728 -5.0246 -0.580349 0
M  V30 4631 C 437.026 -4.15496 -1.62109 0
M  V30 4632 C 437.727 -5.80756 -0.331344 0
M  V30 4633 N 436.703 -5.36038 -0.903556 0
M  V30 4634 H 440.505 -2.93871 -0.0411216 0
M  V30 4635 H 438.019 -1.62213 0.0779348 0
M  V30 4636 H 440.016 -3.35883 -2.46957 0
M  V30 4637 H 438.676 -2.18414 -2.40261 0
M  V30 4638 H 439.687 -5.17399 -0.227762 0
M  V30 4639 H 436.364 -3.53509 -2.22121 0
M  V30 4640 H 437.754 -6.71335 0.275454 0
M  V30 4641 N 440.474 -0.00167713 -1.576 0
M  V30 4642 C 441.437 0.974046 -2.07473 0
M  V30 4643 C 442.437 1.27143 -0.984444 0
M  V30 4644 O 443.627 1.21633 -1.24703 0
M  V30 4645 C 440.759 2.29849 -2.51759 0
M  V30 4646 H 441.952 0.54262 -2.9495 0
M  V30 4647 H 439.505 0.245829 -1.54355 0
M  V30 4648 H 440.24 2.77677 -1.67529 0
M  V30 4649 H 440.025 2.09584 -3.31386 0
M  V30 4650 H 441.515 2.9984 -2.90664 0
M  V30 4651 N 441.952 1.55251 0.271103 0
M  V30 4652 C 443.177 1.80306 1.02491 0
M  V30 4653 C 443.602 0.575457 1.79081 0
M  V30 4654 O 442.96 -0.474987 1.74967 0
M  V30 4655 C 443.008 3.02832 1.95768 0
M  V30 4656 O 442.112 2.78051 3.04568 0
M  V30 4657 H 441.453 0.595896 0.292923 0
M  V30 4658 H 443.983 2.02397 0.299436 0
M  V30 4659 H 443.993 3.31616 2.37686 0
M  V30 4660 H 442.668 3.9183 1.39434 0
M  V30 4661 H 441.245 2.60369 2.66951 0
M  V30 4662 N 443.43 -0.535701 1.48216 0
M  V30 4663 C 444.393 -1.623 1.61838 0
M  V30 4664 C 445.393 -1.53087 0.492024 0
M  V30 4665 O 446.583 -1.5686 0.757668 0
M  V30 4666 C 443.715 -3.01907 1.58319 0
M  V30 4667 H 444.908 -1.51564 2.58783 0
M  V30 4668 H 442.461 -0.757317 1.36727 0
M  V30 4669 H 443.196 -3.18155 0.628299 0
M  V30 4670 H 442.981 -3.10003 2.40085 0
M  V30 4671 H 444.471 -3.80969 1.71033 0
M  V30 4672 N 444.908 -1.36708 -0.784132 0
M  V30 4673 C 446.133 -1.34565 -1.5782 0
M  V30 4674 C 446.558 0.0695257 -1.87971 0
M  V30 4675 O 445.916 1.04302 -1.48293 0
M  V30 4676 C 445.964 -2.17952 -2.87279 0
M  V30 4677 O 445.068 -1.57563 -3.81114 0
M  V30 4678 H 444.409 -0.460337 -0.478524 0
M  V30 4679 H 446.939 -1.80064 -0.971495 0
M  V30 4680 H 446.949 -2.30721 -3.365 0
M  V30 4681 H 445.624 -3.20823 -2.64661 0
M  V30 4682 H 444.201 -1.53764 -3.39722 0
M  V30 4683 N 446.386 1.0089 -1.21074 0
M  V30 4684 C 447.802 1.2695 -0.967257 0
M  V30 4685 C 448.002 1.9846 0.348673 0
M  V30 4686 O 447.058 2.28459 1.0753 0
M  V30 4687 C 448.371 2.09697 -2.15517 0
M  V30 4688 C 449.919 2.22937 -2.197 0
M  V30 4689 C 450.394 3.09064 -3.37999 0
M  V30 4690 N 451.885 3.16653 -3.38061 0
M  V30 4691 C 452.62 3.8354 -4.26245 0
M  V30 4692 N 452.116 4.52488 -5.2462 0
M  V30 4693 N 453.909 3.80141 -4.14064 0
M  V30 4694 H 446.06 0.529005 -2.05707 0
M  V30 4695 H 448.323 0.296148 -0.900556 0
M  V30 4696 H 448.029 1.64497 -3.10859 0
M  V30 4697 H 447.903 3.10444 -2.14253 0
M  V30 4698 H 450.29 2.67357 -1.24916 0
M  V30 4699 H 450.371 1.21673 -2.2501 0
M  V30 4700 H 450.015 2.65347 -4.33074 0
M  V30 4701 H 449.945 4.10433 -3.29928 0
M  V30 4702 H 452.436 2.67566 -2.66865 0
M  V30 4703 H 452.749 5.01219 -5.88217 0
M  V30 4704 H 451.094 4.51288 -5.28549 0
M  V30 4705 H 454.285 3.25427 -3.36474 0
M  V30 4706 H 454.458 4.31992 -4.82998 0
M  V30 4707 N 447.864 1.01787 1.20321 0
M  V30 4708 C 449.275 0.739307 1.71438 0
M  V30 4709 C 449.626 -0.742041 1.81627 0
M  V30 4710 O 448.751 -1.57903 1.47971 0
M  V30 4711 C 449.346 1.33538 3.11373 0
M  V30 4712 C 447.905 1.10566 3.59795 0
M  V30 4713 C 447.052 1.44028 2.36962 0
M  V30 4714 H 450.003 1.18718 1.05317 0
M  V30 4715 H 450.024 0.726611 3.73498 0
M  V30 4716 H 449.536 2.41352 3.03926 0
M  V30 4717 H 447.637 0.0452405 3.72573 0
M  V30 4718 H 447.75 1.78661 4.44542 0
M  V30 4719 H 446.114 0.85933 2.39766 0
M  V30 4720 H 446.897 2.52901 2.32155 0
M  V30 4721 N 449.342 -1.36122 0.79427 0
M  V30 4722 C 450.758 -1.5232 0.476525 0
M  V30 4723 C 450.958 -1.74685 -1.00436 0
M  V30 4724 O 450.014 -1.78115 -1.78973 0
M  V30 4725 C 451.327 -2.70607 1.31119 0
M  V30 4726 C 452.875 -2.8448 1.30537 0
M  V30 4727 C 453.35 -4.05778 2.12387 0
M  V30 4728 N 454.841 -4.12933 2.09859 0
M  V30 4729 C 455.576 -5.05876 2.69957 0
M  V30 4730 N 455.072 -6.04232 3.38934 0
M  V30 4731 N 456.865 -4.98528 2.59665 0
M  V30 4732 H 449.016 -1.1986 1.75349 0
M  V30 4733 H 451.279 -0.585418 0.745647 0
M  V30 4734 H 450.985 -2.60619 2.36158 0
M  V30 4735 H 450.859 -3.64888 0.955843 0
M  V30 4736 H 453.246 -2.93927 0.262876 0
M  V30 4737 H 453.327 -1.91093 1.70051 0
M  V30 4738 H 452.971 -3.97092 3.1667 0
M  V30 4739 H 452.901 -4.98323 1.70242 0
M  V30 4740 H 455.392 -3.42515 1.59662 0
M  V30 4741 H 455.705 -6.71724 3.82109 0
M  V30 4742 H 454.05 -6.04443 3.43036 0
M  V30 4743 H 457.241 -4.20641 2.05375 0
M  V30 4744 H 457.414 -5.70773 3.06793 0
M  V30 4745 N 450.82 -0.546701 -1.47814 0
M  V30 4746 C 452.066 -0.0187684 -2.02791 0
M  V30 4747 C 452.399 1.32338 -1.42128 0
M  V30 4748 O 451.674 1.85867 -0.573023 0
M  V30 4749 C 451.957 0.0854985 -3.59998 0
M  V30 4750 C 451.81 -1.283 -4.31114 0
M  V30 4751 C 453.129 0.80412 -4.32691 0
M  V30 4752 H 450.248 -0.0082946 -0.736953 0
M  V30 4753 H 452.89 -0.706962 -1.76358 0
M  V30 4754 H 451.04 0.671609 -3.82651 0
M  V30 4755 H 452.712 -1.91151 -4.19832 0
M  V30 4756 H 450.955 -1.86049 -3.91878 0
M  V30 4757 H 451.626 -1.16287 -5.39612 0
M  V30 4758 H 454.102 0.306576 -4.14969 0
M  V30 4759 H 452.978 0.846011 -5.42341 0
M  V30 4760 H 453.239 1.85802 -4.01161 0
M  V30 4761 N 452.299 1.55045 -0.282633 0
M  V30 4762 C 453.527 2.04168 0.33512 0
M  V30 4763 C 453.942 1.16071 1.48906 0
M  V30 4764 O 453.299 0.182391 1.81586 0
M  V30 4765 C 453.35 3.52332 0.808957 0
M  V30 4766 O 453.071 4.37078 -0.299038 0
M  V30 4767 C 454.572 4.17375 1.49375 0
M  V30 4768 H 451.792 0.666744 0.0754543 0
M  V30 4769 H 454.336 2.00205 -0.416918 0
M  V30 4770 H 452.491 3.56715 1.51106 0
M  V30 4771 H 452.905 5.24458 0.0665514 0
M  V30 4772 H 454.379 5.22627 1.77664 0
M  V30 4773 H 454.856 3.65999 2.42778 0
M  V30 4774 H 455.462 4.17016 0.835305 0
M  V30 4775 N 453.777 0.010035 1.57597 0
M  V30 4776 C 454.687 -0.994226 2.12491 0
M  V30 4777 C 455.703 -1.37013 1.07254 0
M  V30 4778 O 456.879 -1.45542 1.3921 0
M  V30 4779 C 453.944 -2.2642 2.62555 0
M  V30 4780 C 453.005 -1.95049 3.82432 0
M  V30 4781 C 452.238 -3.15991 4.30099 0
M  V30 4782 O 452.461 -4.28015 3.7704 0
M  V30 4783 O 451.395 -2.99403 5.22151 0
M  V30 4784 H 455.221 -0.557549 2.98538 0
M  V30 4785 H 452.806 -0.209413 1.47925 0
M  V30 4786 H 454.688 -3.01009 2.9491 0
M  V30 4787 H 453.363 -2.69306 1.796 0
M  V30 4788 H 452.27 -1.17904 3.55034 0
M  V30 4789 H 453.603 -1.56992 4.66491 0
M  V30 4790 N 455.255 -1.55392 -0.262866 0
M  V30 4791 C 456.666 -1.67079 -0.833158 0
M  V30 4792 C 457.017 -0.604539 -1.86654 0
M  V30 4793 O 456.142 0.252138 -2.14926 0
M  V30 4794 C 456.737 -3.02891 -1.51797 0
M  V30 4795 C 455.296 -3.16571 -2.03617 0
M  V30 4796 C 454.443 -2.62909 -0.881701 0
M  V30 4797 H 457.394 -1.58652 -0.0389986 0
M  V30 4798 H 457.415 -2.96445 -2.38538 0
M  V30 4799 H 456.927 -3.80473 -0.765619 0
M  V30 4800 H 455.028 -2.43782 -2.81782 0
M  V30 4801 H 455.141 -4.23271 -2.24452 0
M  V30 4802 H 453.505 -2.20324 -1.27786 0
M  V30 4803 H 454.288 -3.43003 -0.14269 0
M  V30 4804 N 456.733 0.527833 -1.48498 0
M  V30 4805 C 457.982 1.28003 -1.55878 0
M  V30 4806 C 458.295 1.9414 -0.238577 0
M  V30 4807 O 459.501 2.7083 -0.190643 0
M  V30 4808 C 457.957 2.32272 -2.74914 0
M  V30 4809 C 457.565 1.72196 -4.13585 0
M  V30 4810 C 459.309 3.08488 -2.91608 0
M  V30 4811 C 457.216 2.74417 -5.23879 0
M  V30 4812 H 456.146 0.481413 -0.580308 0
M  V30 4813 H 458.797 0.557195 -1.74836 0
M  V30 4814 H 457.179 3.07601 -2.49395 0
M  V30 4815 H 458.353 1.03041 -4.49132 0
M  V30 4816 H 456.668 1.08464 -4.02025 0
M  V30 4817 H 459.265 3.84879 -3.71177 0
M  V30 4818 H 459.608 3.64481 -2.01145 0
M  V30 4819 H 460.141 2.40274 -3.17038 0
M  V30 4820 H 456.88 2.23242 -6.16314 0
M  V30 4821 H 456.4 3.41893 -4.92818 0
M  V30 4822 H 458.079 3.37362 -5.52083 0
M  V30 4823 N 458.211 1.37122 0.776871 0
M  V30 4824 C 459.436 1.354 1.57104 0
M  V30 4825 C 459.861 -0.0595562 1.88006 0
M  V30 4826 O 459.219 -1.03514 1.48844 0
M  V30 4827 C 459.267 2.19472 2.8612 0
M  V30 4828 O 458.371 1.59582 3.80273 0
M  V30 4829 H 457.712 0.462869 0.476076 0
M  V30 4830 H 460.242 1.80577 0.961932 0
M  V30 4831 H 460.252 2.32502 3.35271 0
M  V30 4832 H 458.927 3.22222 2.62956 0
M  V30 4833 H 457.504 1.55564 3.38902 0
M  V30 4834 N 459.689 -1.00246 1.21608 0
M  V30 4835 C 460.652 -2.07233 0.979133 0
M  V30 4836 C 461.652 -1.6072 -0.0508219 0
M  V30 4837 O 462.842 -1.73196 0.186712 0
M  V30 4838 C 459.974 -3.37546 0.477016 0
M  V30 4839 H 461.167 -2.29687 1.92831 0
M  V30 4840 H 458.72 -1.17261 1.03342 0
M  V30 4841 H 459.455 -3.20773 -0.476966 0
M  V30 4842 H 459.24 -3.72638 1.21997 0
M  V30 4843 H 460.73 -4.16285 0.331181 0
M  V30 4844 N 461.167 -1.02423 -1.1978 0
M  V30 4845 C 462.077 -0.610919 -2.26506 0
M  V30 4846 C 463.093 0.355152 -1.70337 0
M  V30 4847 O 464.269 0.214195 -2.00258 0
M  V30 4848 C 461.334 0.0365921 -3.46681 0
M  V30 4849 C 460.395 -0.976389 -4.18049 0
M  V30 4850 C 459.628 -0.359683 -5.32487 0
M  V30 4851 O 459.851 0.838601 -5.64202 0
M  V30 4852 O 458.785 -1.08022 -5.92127 0
M  V30 4853 H 462.611 -1.49965 -2.64091 0
M  V30 4854 H 460.196 -0.794156 -1.26545 0
M  V30 4855 H 462.078 0.39786 -4.19518 0
M  V30 4856 H 460.753 0.899398 -3.10954 0
M  V30 4857 H 459.66 -1.38916 -3.47352 0
M  V30 4858 H 460.993 -1.80941 -4.57735 0
M  V30 4859 N 462.645 1.35699 -0.801477 0
M  V30 4860 C 463.87 2.03687 -0.390678 0
M  V30 4861 C 464.295 1.60015 0.988778 0
M  V30 4862 O 463.653 0.774357 1.63931 0
M  V30 4863 C 463.701 3.57439 -0.476404 0
M  V30 4864 O 462.805 4.09208 0.512106 0
M  V30 4865 H 462.146 0.64344 -0.163956 0
M  V30 4866 H 464.676 1.73403 -1.08594 0
M  V30 4867 H 464.686 4.06544 -0.344357 0
M  V30 4868 H 463.361 3.88576 -1.48262 0
M  V30 4869 H 461.938 3.7134 0.340721 0
M  V30 4870 N 464.123 0.554532 1.47522 0
M  V30 4871 C 465.371 0.0294208 2.02079 0
M  V30 4872 C 465.692 -1.32411 1.43151 0
M  V30 4873 O 464.962 -1.863 0.605728 0
M  V30 4874 H 463.542 0.00788672 0.746958 0
M  V30 4875 H 466.204 0.723934 1.80956 0
M  V30 4876 H 465.3 -0.0606745 3.12041 0
M  V30 4877 N 465.601 -1.54893 0.290851 0
M  V30 4878 C 466.511 -2.26812 -0.59945 0
M  V30 4879 C 467.527 -1.29963 -1.15696 0
M  V30 4880 O 468.703 -1.62928 -1.18391 0
M  V30 4881 C 465.768 -2.98716 -1.75982 0
M  V30 4882 C 464.829 -4.1108 -1.2374 0
M  V30 4883 C 464.062 -4.79546 -2.34246 0
M  V30 4884 O 464.285 -4.47309 -3.53936 0
M  V30 4885 O 463.219 -5.67165 -2.01512 0
M  V30 4886 H 467.045 -3.03696 -0.0163561 0
M  V30 4887 H 464.63 -1.49289 0.0576755 0
M  V30 4888 H 466.512 -3.43851 -2.43607 0
M  V30 4889 H 465.187 -2.24737 -2.3297 0
M  V30 4890 H 464.094 -3.70367 -0.527163 0
M  V30 4891 H 465.427 -4.87007 -0.71307 0
M  V30 4892 N 467.08 -0.0183926 -1.57589 0
M  V30 4893 C 468.012 0.995557 -2.06449 0
M  V30 4894 C 469.025 1.29556 -0.985849 0
M  V30 4895 O 470.214 1.2621 -1.26227 0
M  V30 4896 C 467.314 2.32572 -2.46502 0
M  V30 4897 C 466.487 2.21245 -3.77319 0
M  V30 4898 C 465.546 3.37104 -4.04039 0
M  V30 4899 O 464.572 3.14468 -4.74445 0
M  V30 4900 N 465.774 4.60553 -3.53372 0
M  V30 4901 H 468.539 0.578746 -2.94059 0
M  V30 4902 H 466.1 0.168603 -1.6102 0
M  V30 4903 H 468.092 3.08887 -2.61478 0
M  V30 4904 H 466.662 2.65931 -1.64315 0
M  V30 4905 H 465.882 1.29723 -3.72244 0
M  V30 4906 H 467.17 2.10868 -4.63047 0
M  V30 4907 H 466.568 4.81839 -2.96391 0
M  V30 4908 H 465.125 5.34072 -3.73644 0
M  V30 4909 N 468.558 1.5553 0.254621 0
M  V30 4910 C 469.804 1.77262 0.985193 0
M  V30 4911 C 470.137 0.582286 1.85265 0
M  V30 4912 O 469.412 -0.419666 1.89919 0
M  V30 4913 C 469.695 3.0881 1.85225 0
M  V30 4914 C 469.548 4.38233 1.0135 0
M  V30 4915 C 470.867 3.3653 2.83612 0
M  V30 4916 H 467.986 0.644906 0.356742 0
M  V30 4917 H 470.628 1.88264 0.256236 0
M  V30 4918 H 468.778 2.99562 2.47376 0
M  V30 4919 H 470.45 4.59463 0.411269 0
M  V30 4920 H 468.693 4.32636 0.317574 0
M  V30 4921 H 469.364 5.26644 1.65379 0
M  V30 4922 H 471.84 3.45691 2.31596 0
M  V30 4923 H 470.716 4.29805 3.41407 0
M  V30 4924 H 470.977 2.57064 3.59681 0
M  V30 4925 N 470.036 -0.519951 1.48776 0
M  V30 4926 C 470.946 -1.65025 1.66745 0
M  V30 4927 C 471.962 -1.6508 0.549954 0
M  V30 4928 O 473.138 -1.83848 0.822295 0
M  V30 4929 C 470.203 -3.0146 1.71238 0
M  V30 4930 C 469.264 -3.12182 2.94688 0
M  V30 4931 C 468.497 -4.42109 2.98958 0
M  V30 4932 O 468.72 -5.29799 2.1135 0
M  V30 4933 O 467.654 -4.57406 3.91233 0
M  V30 4934 H 471.48 -1.52801 2.62461 0
M  V30 4935 H 469.065 -0.694157 1.32294 0
M  V30 4936 H 470.947 -3.82584 1.76657 0
M  V30 4937 H 469.622 -3.13988 0.786975 0
M  V30 4938 H 468.529 -2.30316 2.94797 0
M  V30 4939 H 469.862 -3.04574 3.86646 0
M  V30 4940 N 471.514 -1.37532 -0.769588 0
M  V30 4941 C 472.93 -1.18379 -1.07045 0
M  V30 4942 C 473.13 -0.0214312 -2.01489 0
M  V30 4943 O 472.186 0.637809 -2.44312 0
M  V30 4944 C 473.499 -2.50338 -1.66588 0
M  V30 4945 C 475.047 -2.56879 -1.78835 0
M  V30 4946 C 475.522 -3.88974 -2.41792 0
M  V30 4947 N 477.013 -3.90428 -2.4924 0
M  V30 4948 C 477.748 -4.89388 -2.98809 0
M  V30 4949 N 477.244 -5.98745 -3.48535 0
M  V30 4950 N 479.037 -4.76791 -2.97703 0
M  V30 4951 H 471.188 -2.11921 -0.142541 0
M  V30 4952 H 473.451 -0.939608 -0.125863 0
M  V30 4953 H 473.157 -3.35767 -1.0466 0
M  V30 4954 H 473.031 -2.67583 -2.65856 0
M  V30 4955 H 475.418 -1.71856 -2.39895 0
M  V30 4956 H 475.499 -2.43516 -0.783166 0
M  V30 4957 H 475.143 -4.74412 -1.81371 0
M  V30 4958 H 475.073 -3.99641 -3.4292 0
M  V30 4959 H 477.564 -3.11433 -2.14052 0
M  V30 4960 H 477.877 -6.70205 -3.84767 0
M  V30 4961 H 476.222 -6.02387 -3.46634 0
M  V30 4962 H 479.413 -3.90478 -2.58157 0
M  V30 4963 H 479.586 -5.54069 -3.36024 0
M  V30 4964 N 472.992 0.995999 -1.22138 0
M  V30 4965 C 474.238 1.73767 -1.04561 0
M  V30 4966 C 474.571 1.89633 0.418698 0
M  V30 4967 O 473.846 1.43723 1.3105 0
M  V30 4968 C 474.129 3.14505 -1.75382 0
M  V30 4969 C 473.982 3.06306 -3.29388 0
M  V30 4970 C 475.301 4.13615 -1.50369 0
M  V30 4971 H 472.42 0.630728 -0.38125 0
M  V30 4972 H 475.062 1.16057 -1.50435 0
M  V30 4973 H 473.212 3.63775 -1.36383 0
M  V30 4974 H 474.884 2.64681 -3.77812 0
M  V30 4975 H 473.127 2.43186 -3.59226 0
M  V30 4976 H 473.798 4.05884 -3.74116 0
M  V30 4977 H 476.274 3.73089 -1.84239 0
M  V30 4978 H 475.15 5.10212 -2.02421 0
M  V30 4979 H 475.411 4.39949 -0.435611 0
M  V30 4980 N 474.47 1.03057 1.19235 0
M  V30 4981 C 475.418 0.606391 2.24557 0
M  V30 4982 C 476.412 -0.361826 1.65491 0
M  V30 4983 O 477.618 -0.23022 1.78522 0
M  V30 4984 H 473.993 0.177838 0.730669 0
M  V30 4985 H 475.964 1.50529 2.5765 0
M  V30 4986 C 474.713 -0.0252127 3.47691 0
M  V30 4987 H 474.036 0.710838 3.9343 0
M  V30 4988 H 475.476 -0.284931 4.23042 0
M  V30 4989 C 473.935 -1.27229 3.11953 0
M  V30 4990 O 474.465 -2.36416 3.24762 0
M  V30 4991 N 472.671 -1.16169 2.6637 0
M  V30 4992 H 472.218 -0.273189 2.56147 0
M  V30 4993 H 472.176 -1.99703 2.42829 0
M  V30 4994 N 475.948 -1.35272 0.808662 0
M  V30 4995 C 476.858 -2.33546 0.222079 0
M  V30 4996 C 477.874 -1.6196 -0.636011 0
M  V30 4997 O 479.05 -1.93822 -0.547274 0
M  V30 4998 C 476.115 -3.41148 -0.61795 0
M  V30 4999 C 475.176 -4.28507 0.260875 0
M  V30 5000 C 474.409 -5.3097 -0.539156 0
M  V30 5001 O 474.632 -5.42123 -1.77367 0
M  V30 5002 O 473.566 -6.01858 0.0710526 0
M  V30 5003 H 477.392 -2.85515 1.03512 0
M  V30 5004 H 474.977 -1.38079 0.570495 0
M  V30 5005 H 476.859 -4.06889 -1.09634 0
M  V30 5006 H 475.534 -2.91447 -1.40855 0
M  V30 5007 H 474.441 -3.6574 0.786451 0
M  V30 5008 H 475.774 -4.81611 1.01547 0
M  V30 5009 N 477.426 -0.562348 -1.47226 0
M  V30 5010 C 478.837 -0.130325 -1.86245 0
M  V30 5011 C 479.188 1.30128 -1.46838 0
M  V30 5012 O 478.313 1.97974 -0.873805 0
M  V30 5013 C 478.908 -0.229738 -3.3802 0
M  V30 5014 C 477.467 0.14728 -3.76112 0
M  V30 5015 C 476.614 -0.574971 -2.71274 0
M  V30 5016 H 479.565 -0.771773 -1.3867 0
M  V30 5017 H 479.586 0.550316 -3.76499 0
M  V30 5018 H 479.098 -1.27178 -3.66671 0
M  V30 5019 H 477.199 1.19023 -3.53078 0
M  V30 5020 H 477.312 -0.214858 -4.78618 0
M  V30 5021 H 475.676 -0.0174756 -2.54694 0
M  V30 5022 H 476.459 -1.61827 -3.02766 0
M  V30 5023 N 478.904 1.54736 -0.299062 0
M  V30 5024 C 480.129 2.04975 0.316254 0
M  V30 5025 C 480.554 1.17501 1.46885 0
M  V30 5026 O 479.912 0.178678 1.80417 0
M  V30 5027 C 479.96 3.52672 0.751997 0
M  V30 5028 O 479.064 3.68226 1.85697 0
M  V30 5029 H 478.405 0.661126 0.0617175 0
M  V30 5030 H 480.935 1.99805 -0.440341 0
M  V30 5031 H 480.945 3.94488 1.04133 0
M  V30 5032 H 479.62 4.158 -0.0911482 0
M  V30 5033 H 478.197 3.38316 1.56834 0
M  V30 5034 N 480.382 0.0267497 1.57577 0
M  V30 5035 C 481.631 -0.651736 1.9088 0
M  V30 5036 C 481.944 -1.73427 0.904576 0
M  V30 5037 O 483.15 -2.46923 1.12877 0
M  V30 5038 C 481.606 -1.21048 3.38933 0
M  V30 5039 C 481.214 -0.161362 4.47709 0
M  V30 5040 C 482.958 -1.86562 3.81307 0
M  V30 5041 C 480.865 -0.731611 5.86857 0
M  V30 5042 H 479.795 -0.247198 0.712326 0
M  V30 5043 H 482.446 0.0916641 1.83271 0
M  V30 5044 H 480.828 -2.00542 3.41466 0
M  V30 5045 H 482.002 0.61094 4.56732 0
M  V30 5046 H 480.317 0.394877 4.14523 0
M  V30 5047 H 482.914 -2.30178 4.8262 0
M  V30 5048 H 483.257 -2.70735 3.16241 0
M  V30 5049 H 483.79 -1.13762 3.81186 0
M  V30 5050 H 480.529 0.0719329 6.55461 0
M  V30 5051 H 480.049 -1.47245 5.81445 0
M  V30 5052 H 481.728 -1.22208 6.35354 0
M  V30 5053 N 481.861 -1.55662 -0.24637 0
M  V30 5054 C 482.791 -1.93377 -1.30873 0
M  V30 5055 C 483.772 -0.798773 -1.50179 0
M  V30 5056 O 484.957 -1.0591 -1.62778 0
M  V30 5057 C 482.087 -2.22893 -2.66338 0
M  V30 5058 C 481.041 -3.38649 -2.61727 0
M  V30 5059 C 480.367 -3.53708 -4.00992 0
M  V30 5060 C 481.667 -4.74323 -2.18666 0
M  V30 5061 H 483.361 -2.82363 -0.995552 0
M  V30 5062 H 480.907 -1.35854 -0.477464 0
M  V30 5063 H 482.86 -2.47866 -3.40794 0
M  V30 5064 H 481.584 -1.30733 -2.99293 0
M  V30 5065 H 480.243 -3.13685 -1.89729 0
M  V30 5066 H 479.891 -2.58967 -4.31214 0
M  V30 5067 H 479.591 -4.31551 -3.98795 0
M  V30 5068 H 481.115 -3.81003 -4.77147 0
M  V30 5069 H 482.529 -4.98665 -2.82854 0
M  V30 5070 H 480.926 -5.55273 -2.27579 0
M  V30 5071 H 481.996 -4.71349 -1.13834 0
M  V30 5072 N 483.339 0.512053 -1.4905 0
M  V30 5073 C 484.249 1.64139 -1.67617 0
M  V30 5074 C 485.265 1.64786 -0.558701 0
M  V30 5075 O 486.441 1.8341 -0.832034 0
M  V30 5076 C 483.506 3.00548 -1.72835 0
M  V30 5077 C 482.567 3.10615 -2.96339 0
M  V30 5078 C 481.8 4.40517 -3.01298 0
M  V30 5079 O 482.023 5.28671 -2.14157 0
M  V30 5080 O 480.957 4.55325 -3.93653 0
M  V30 5081 H 484.783 1.51407 -2.63267 0
M  V30 5082 H 482.368 0.687131 -1.32661 0
M  V30 5083 H 484.25 3.81641 -1.78683 0
M  V30 5084 H 482.925 3.13566 -0.803616 0
M  V30 5085 H 481.832 2.2875 -2.96014 0
M  V30 5086 H 483.165 3.0252 -3.88256 0
M  V30 5087 N 484.817 1.37938 0.762283 0
M  V30 5088 C 485.75 1.2884 1.88349 0
M  V30 5089 C 486.728 0.167084 1.61739 0
M  V30 5090 O 487.912 0.34292 1.85355 0
M  V30 5091 C 485.039 0.994257 3.23778 0
M  V30 5092 C 484.085 2.13376 3.69287 0
M  V30 5093 S 484.918 3.75439 3.81845 0
M  V30 5094 C 486.074 3.48195 5.20107 0
M  V30 5095 H 486.307 2.23736 1.95779 0
M  V30 5096 H 483.84 1.23672 0.924368 0
M  V30 5097 H 485.798 0.83138 4.01993 0
M  V30 5098 H 484.459 0.0626251 3.14038 0
M  V30 5099 H 483.652 1.88319 4.67495 0
M  V30 5100 H 483.254 2.25726 2.98201 0
M  V30 5101 H 485.546 3.0377 6.05583 0
M  V30 5102 H 486.489 4.45765 5.50181 0
M  V30 5103 H 486.897 2.82905 4.88493 0
M  V30 5104 N 486.295 -0.989507 1.22664 0
M  V30 5105 C 487.52 -1.77031 1.08051 0
M  V30 5106 C 487.945 -1.84535 -0.364483 0
M  V30 5107 O 487.303 -1.3003 -1.2634 0
M  V30 5108 C 487.351 -3.18 1.70024 0
M  V30 5109 O 486.455 -4.01161 0.956216 0
M  V30 5110 H 485.796 -0.545008 0.379292 0
M  V30 5111 H 488.326 -1.24277 1.62531 0
M  V30 5112 H 488.336 -3.68616 1.74888 0
M  V30 5113 H 487.011 -3.11853 2.75174 0
M  V30 5114 H 485.588 -3.59687 0.98384 0
M  V30 5115 N 487.773 -1.03688 -1.18687 0
M  V30 5116 C 489.189 -0.755413 -1.4059 0
M  V30 5117 C 489.389 0.656659 -1.905 0
M  V30 5118 O 488.445 1.42144 -2.08689 0
M  V30 5119 C 489.758 -1.7983 -2.41001 0
M  V30 5120 C 491.306 -1.81877 -2.54735 0
M  V30 5121 C 491.781 -2.85148 -3.58406 0
M  V30 5122 N 493.272 -2.84015 -3.6591 0
M  V30 5123 C 494.007 -3.60573 -4.45841 0
M  V30 5124 N 493.503 -4.46871 -5.29413 0
M  V30 5125 N 495.296 -3.49079 -4.40568 0
M  V30 5126 H 487.447 -1.94818 -0.846148 0
M  V30 5127 H 489.71 -0.842727 -0.434184 0
M  V30 5128 H 489.416 -2.81097 -2.1137 0
M  V30 5129 H 489.29 -1.62727 -3.40294 0
M  V30 5130 H 491.677 -0.812836 -2.83685 0
M  V30 5131 H 491.758 -2.03057 -1.55568 0
M  V30 5132 H 491.402 -3.85918 -3.30197 0
M  V30 5133 H 491.332 -2.61224 -4.57241 0
M  V30 5134 H 493.823 -2.21431 -3.0623 0
M  V30 5135 H 494.136 -5.02007 -5.87545 0
M  V30 5136 H 492.481 -4.5094 -5.28846 0
M  V30 5137 H 495.672 -2.81066 -3.74325 0
M  V30 5138 H 495.845 -4.08994 -5.02621 0
M  V30 5139 N 489.251 1.34841 -0.815825 0
M  V30 5140 C 490.499 1.98107 -0.399744 0
M  V30 5141 C 490.82 1.65019 1.03894 0
M  V30 5142 O 490.09 0.937311 1.72021 0
M  V30 5143 H 488.67 0.732827 -0.144823 0
M  V30 5144 H 491.332 1.64599 -1.0437 0
M  V30 5145 H 490.428 3.07856 -0.512965 0
M  V30 5146 N 490.729 0.570148 1.46925 0
M  V30 5147 C 491.975 0.0510284 2.02736 0
M  V30 5148 C 492.308 -1.3006 1.44215 0
M  V30 5149 O 491.583 -1.84932 0.602521 0
M  V30 5150 C 491.866 -0.028215 3.60089 0
M  V30 5151 C 491.719 1.35142 4.29018 0
M  V30 5152 C 493.038 -0.735181 4.33916 0
M  V30 5153 H 490.157 0.0200178 0.736728 0
M  V30 5154 H 492.799 0.73493 1.75211 0
M  V30 5155 H 490.949 -0.610648 3.83671 0
M  V30 5156 H 492.621 1.97806 4.16738 0
M  V30 5157 H 490.864 1.9226 3.88868 0
M  V30 5158 H 491.535 1.24857 5.37694 0
M  V30 5159 H 494.011 -0.240519 4.15404 0
M  V30 5160 H 492.887 -0.759622 5.43618 0
M  V30 5161 H 493.148 -1.79397 4.04066 0
M  V30 5162 N 492.207 -1.54576 0.307264 0
M  V30 5163 C 493.154 -2.23751 -0.56604 0
M  V30 5164 C 494.124 -1.22235 -1.12462 0
M  V30 5165 O 495.309 -1.50873 -1.16799 0
M  V30 5166 C 492.449 -2.98661 -1.72903 0
M  V30 5167 C 491.562 -4.14963 -1.20124 0
M  V30 5168 C 490.697 -4.77441 -2.3286 0
M  V30 5169 C 489.736 -5.85875 -1.77247 0
M  V30 5170 N 488.873 -6.42282 -2.8358 0
M  V30 5171 H 493.713 -2.97984 0.0304578 0
M  V30 5172 H 491.25 -1.47076 0.0268015 0
M  V30 5173 H 493.208 -3.40329 -2.41313 0
M  V30 5174 H 491.838 -2.26793 -2.29706 0
M  V30 5175 H 490.89 -3.78193 -0.409198 0
M  V30 5176 H 492.202 -4.93066 -0.754171 0
M  V30 5177 H 491.356 -5.21993 -3.09205 0
M  V30 5178 H 490.095 -3.98684 -2.80896 0
M  V30 5179 H 489.1 -5.40741 -0.993926 0
M  V30 5180 H 490.325 -6.6652 -1.30107 0
M  V30 5181 H 488.271 -5.66406 -3.30939 0
M  V30 5182 H 488.188 -7.1575 -2.43388 0
M  V30 5183 H 489.456 -6.91492 -3.59804 0
M  V30 5184 N 493.685 -0.035106 -1.57561 0
M  V30 5185 C 494.615 0.942993 -2.13612 0
M  V30 5186 C 495.596 1.33531 -1.05373 0
M  V30 5187 O 496.781 1.41287 -1.33235 0
M  V30 5188 C 493.911 2.22332 -2.66807 0
M  V30 5189 C 492.865 1.97156 -3.79886 0
M  V30 5190 C 492.191 3.31506 -4.19533 0
M  V30 5191 C 493.491 1.30596 -5.05709 0
M  V30 5192 H 495.185 0.476179 -2.95589 0
M  V30 5193 H 492.731 0.227602 -1.4219 0
M  V30 5194 H 494.684 2.91142 -3.04654 0
M  V30 5195 H 493.408 2.7119 -1.81999 0
M  V30 5196 H 492.067 1.30763 -3.42486 0
M  V30 5197 H 491.715 3.78134 -3.31698 0
M  V30 5198 H 491.415 3.15465 -4.95738 0
M  V30 5199 H 492.939 4.01574 -4.59968 0
M  V30 5200 H 494.353 1.89416 -5.41105 0
M  V30 5201 H 492.75 1.24934 -5.86951 0
M  V30 5202 H 493.82 0.279742 -4.84092 0
M  V30 5203 N 495.163 1.55791 0.238111 0
M  V30 5204 C 496.391 1.82098 0.982233 0
M  V30 5205 C 496.806 0.612025 1.78605 0
M  V30 5206 O 496.163 -0.419381 1.77616 0
M  V30 5207 C 496.214 3.0673 1.91309 0
M  V30 5208 O 495.935 4.2296 1.14179 0
M  V30 5209 C 497.436 3.45903 2.77248 0
M  V30 5210 H 494.656 0.605748 0.288635 0
M  V30 5211 H 497.2 2.02862 0.258341 0
M  V30 5212 H 495.355 2.87991 2.59114 0
M  V30 5213 H 495.769 4.93653 1.7722 0
M  V30 5214 H 497.243 4.36189 3.38295 0
M  V30 5215 H 497.72 2.66891 3.48806 0
M  V30 5216 H 498.326 3.67024 2.14881 0
M  V30 5217 N 496.642 -0.504142 1.49319 0
M  V30 5218 C 497.919 -1.26548 1.49147 0
M  V30 5219 C 498.299 -2.09977 0.21744 0
M  V30 5220 O 497.647 -2.14028 -0.800269 0
M  V30 5221 C 497.857 -2.12489 2.76857 0
M  V30 5222 C 499.205 -2.7178 3.26222 0
M  V30 5223 O 500.229 -2.22758 2.77952 0
M  V30 5224 O 499.088 -3.61015 4.10281 0
M  V30 5225 H 496.182 -0.572495 0.596806 0
M  V30 5226 H 498.728 -0.51867 1.61579 0
M  V30 5227 H 497.5 -1.50796 3.61077 0
M  V30 5228 H 497.123 -2.94368 2.6727 0
M  V30 5229 N 498.12 -1.38341 -0.754957 0
M  V30 5230 C 499.366 -1.34672 -1.51628 0
M  V30 5231 C 499.699 0.0636036 -1.94096 0
M  V30 5232 O 498.974 1.0245 -1.6533 0
M  V30 5233 C 499.257 -2.30116 -2.76981 0
M  V30 5234 C 499.11 -3.80003 -2.4066 0
M  V30 5235 C 500.429 -2.23715 -3.78998 0
M  V30 5236 H 497.548 -0.490517 -0.550056 0
M  V30 5237 H 500.19 -1.69178 -0.864807 0
M  V30 5238 H 498.34 -2.00821 -3.3257 0
M  V30 5239 H 500.012 -4.19966 -1.90856 0
M  V30 5240 H 498.255 -3.97751 -1.73137 0
M  V30 5241 H 498.926 -4.42244 -3.30339 0
M  V30 5242 H 501.402 -2.49574 -3.32945 0
M  V30 5243 H 500.278 -2.9261 -4.64403 0
M  V30 5244 H 500.539 -1.23554 -4.24484 0
M  V30 5245 N 499.598 0.982988 -1.23187 0
M  V30 5246 C 500.561 2.05649 -1.01198 0
M  V30 5247 C 501.561 1.6078 0.0252464 0
M  V30 5248 O 502.751 1.72878 -0.214243 0
M  V30 5249 C 499.883 3.36744 -0.530656 0
M  V30 5250 H 501.076 2.2659 -1.96461 0
M  V30 5251 H 498.629 1.15602 -1.05195 0
M  V30 5252 H 499.364 3.21492 0.425873 0
M  V30 5253 H 499.149 3.7065 -1.2791 0
M  V30 5254 H 500.639 4.15705 -0.397366 0
M  V30 5255 N 501.076 1.04316 1.18135 0
M  V30 5256 C 502.487 0.775505 1.69832 0
M  V30 5257 C 502.838 -0.703348 1.8316 0
M  V30 5258 O 501.963 -1.54729 1.51287 0
M  V30 5259 C 502.558 1.40112 3.0847 0
M  V30 5260 C 501.117 1.18172 3.57368 0
M  V30 5261 C 500.264 1.49022 2.33854 0
M  V30 5262 H 503.215 1.20925 1.02775 0
M  V30 5263 H 503.236 0.805672 3.71873 0
M  V30 5264 H 502.748 2.47744 2.98738 0
M  V30 5265 H 500.849 0.124258 3.72393 0
M  V30 5266 H 500.962 1.8805 4.40652 0
M  V30 5267 H 499.326 0.909995 2.37889 0
M  V30 5268 H 500.109 2.57768 2.26738 0
M  V30 5269 N 502.554 -1.34406 0.822964 0
M  V30 5270 C 503.8 -1.98578 0.411666 0
M  V30 5271 C 504.133 -1.65093 -1.02264 0
M  V30 5272 O 503.408 -0.92258 -1.71227 0
M  V30 5273 C 503.691 -3.54823 0.614235 0
M  V30 5274 C 503.544 -3.9805 2.09466 0
M  V30 5275 C 504.863 -4.40071 0.050221 0
M  V30 5276 H 501.982 -0.721355 0.151047 0
M  V30 5277 H 504.624 -1.59301 1.03554 0
M  V30 5278 H 502.774 -3.88411 0.0831774 0
M  V30 5279 H 504.446 -3.74795 2.68936 0
M  V30 5280 H 502.689 -3.4836 2.5851 0
M  V30 5281 H 503.36 -5.06819 2.18721 0
M  V30 5282 H 505.836 -4.13037 0.503953 0
M  V30 5283 H 504.712 -5.48452 0.221759 0
M  V30 5284 H 504.973 -4.29576 -1.04482 0
M  V30 5285 N 504.032 -0.577932 -1.46621 0
M  V30 5286 C 505.257 -0.0652536 -2.07297 0
M  V30 5287 C 505.682 1.22828 -1.4246 0
M  V30 5288 O 505.04 1.74075 -0.506718 0
M  V30 5289 C 505.088 0.0920589 -3.60482 0
M  V30 5290 O 504.192 1.14972 -3.96049 0
M  V30 5291 H 503.533 -0.06065 -0.661224 0
M  V30 5292 H 506.063 -0.799515 -1.88332 0
M  V30 5293 H 506.073 0.299741 -4.06897 0
M  V30 5294 H 504.748 -0.852612 -4.07067 0
M  V30 5295 H 503.325 0.920879 -3.61351 0
M  V30 5296 N 505.51 1.54411 -0.315457 0
M  V30 5297 C 506.757 2.00419 0.289543 0
M  V30 5298 C 507.085 1.20373 1.52776 0
M  V30 5299 O 506.34 0.271769 1.93804 0
M  V30 5300 C 506.639 3.50936 0.676652 0
M  V30 5301 C 506.305 4.48532 -0.461472 0
M  V30 5302 C 504.967 4.74936 -0.773879 0
M  V30 5303 C 507.319 5.06567 -1.22637 0
M  V30 5304 C 504.647 5.56634 -1.85405 0
M  V30 5305 C 506.999 5.89441 -2.29657 0
M  V30 5306 C 505.663 6.1415 -2.61488 0
M  V30 5307 H 504.933 0.733386 0.105951 0
M  V30 5308 H 507.58 1.86434 -0.437554 0
M  V30 5309 H 505.885 3.62606 1.48405 0
M  V30 5310 H 507.582 3.83971 1.15618 0
M  V30 5311 H 504.172 4.28096 -0.207893 0
M  V30 5312 H 508.356 4.86157 -0.998271 0
M  V30 5313 H 503.612 5.74012 -2.10523 0
M  V30 5314 H 507.786 6.33432 -2.89374 0
M  V30 5315 H 505.413 6.77245 -3.45317 0
M  V30 5316 N 506.988 0.0434614 1.5754 0
M  V30 5317 C 508.235 -0.632035 1.92384 0
M  V30 5318 C 508.563 -1.71304 0.921157 0
M  V30 5319 O 507.818 -1.95583 -0.067744 0
M  V30 5320 C 508.117 -1.2738 3.3393 0
M  V30 5321 C 507.783 -0.321757 4.49751 0
M  V30 5322 C 506.445 -0.0597611 4.81163 0
M  V30 5323 C 508.797 0.331158 5.20147 0
M  V30 5324 C 506.125 0.862715 5.80322 0
M  V30 5325 C 508.477 1.24178 6.20292 0
M  V30 5326 C 507.141 1.51252 6.50138 0
M  V30 5327 H 506.411 -0.231278 0.703983 0
M  V30 5328 H 509.058 0.108294 1.91194 0
M  V30 5329 H 507.363 -2.08921 3.3145 0
M  V30 5330 H 509.06 -1.80326 3.58167 0
M  V30 5331 H 505.65 -0.53614 4.25233 0
M  V30 5332 H 509.834 0.141826 4.96097 0
M  V30 5333 H 505.09 1.08003 6.01785 0
M  V30 5334 H 509.264 1.75381 6.73954 0
M  V30 5335 H 506.891 2.22897 7.26788 0
M  V30 5336 N 508.466 -1.55915 -0.229846 0
M  V30 5337 C 509.396 -1.94754 -1.28815 0
M  V30 5338 C 510.377 -0.814657 -1.49323 0
M  V30 5339 O 511.562 -1.07631 -1.61645 0
M  V30 5340 C 508.692 -2.25705 -2.63959 0
M  V30 5341 C 507.646 -3.41406 -2.5812 0
M  V30 5342 C 506.972 -3.57941 -3.97218 0
M  V30 5343 C 508.272 -4.76616 -2.13623 0
M  V30 5344 H 509.966 -2.83404 -0.965547 0
M  V30 5345 H 507.512 -1.36353 -0.463028 0
M  V30 5346 H 509.465 -2.51467 -3.38146 0
M  V30 5347 H 508.189 -1.339 -2.9789 0
M  V30 5348 H 506.848 -3.1568 -1.86391 0
M  V30 5349 H 506.496 -2.63526 -4.28443 0
M  V30 5350 H 506.196 -4.35757 -3.94195 0
M  V30 5351 H 507.72 -3.86042 -4.73079 0
M  V30 5352 H 509.134 -5.01637 -2.77549 0
M  V30 5353 H 507.531 -5.57655 -2.21677 0
M  V30 5354 H 508.601 -4.7253 -1.08829 0
M  V30 5355 N 509.944 0.496216 -1.49584 0
M  V30 5356 C 511.19 1.25189 -1.59548 0
M  V30 5357 C 511.523 1.9212 -0.283466 0
M  V30 5358 O 510.798 1.80947 0.713324 0
M  V30 5359 C 511.081 2.31516 -2.75812 0
M  V30 5360 C 510.934 1.69054 -4.16822 0
M  V30 5361 C 512.253 3.3304 -2.87702 0
M  V30 5362 H 509.372 0.45379 -0.580727 0
M  V30 5363 H 512.014 0.549327 -1.81886 0
M  V30 5364 H 510.164 2.91438 -2.56897 0
M  V30 5365 H 511.836 1.12923 -4.47265 0
M  V30 5366 H 510.079 0.994485 -4.22247 0
M  V30 5367 H 510.75 2.462 -4.94054 0
M  V30 5368 H 513.226 2.83114 -3.04936 0
M  V30 5369 H 512.102 4.04794 -3.7072 0
M  V30 5370 H 512.363 3.95655 -1.97255 0
M  V30 5371 N 511.423 1.38739 0.74761 0
M  V30 5372 C 512.353 1.39173 1.87492 0
M  V30 5373 C 513.334 0.256794 1.6815 0
M  V30 5374 O 514.519 0.460762 1.88655 0
M  V30 5375 C 511.649 1.22197 3.25093 0
M  V30 5376 C 510.603 2.32957 3.59047 0
M  V30 5377 C 509.929 2.01082 4.95449 0
M  V30 5378 C 511.229 3.75237 3.6331 0
M  V30 5379 H 512.923 2.3351 1.87386 0
M  V30 5380 H 510.469 1.12399 0.900134 0
M  V30 5381 H 512.422 1.21124 4.03617 0
M  V30 5382 H 511.146 0.243241 3.25693 0
M  V30 5383 H 509.805 2.33226 2.82845 0
M  V30 5384 H 509.453 1.01678 4.92616 0
M  V30 5385 H 509.153 2.75267 5.19136 0
M  V30 5386 H 510.677 2.01638 5.76346 0
M  V30 5387 H 512.091 3.76966 4.31937 0
M  V30 5388 H 510.488 4.48677 3.98509 0
M  V30 5389 H 511.558 4.07122 2.634 0
M  V30 5390 N 512.901 -0.976442 1.23707 0
M  V30 5391 C 514.178 -1.69296 0.979699 0
M  V30 5392 C 514.558 -2.0508 -0.500555 0
M  V30 5393 O 513.906 -1.74708 -1.47273 0
M  V30 5394 C 514.116 -2.93143 1.89389 0
M  V30 5395 C 515.464 -3.65572 2.15968 0
M  V30 5396 O 516.488 -3.03184 1.86971 0
M  V30 5397 O 515.347 -4.77859 2.65167 0
M  V30 5398 H 512.441 -0.739708 0.369812 0
M  V30 5399 H 514.987 -1.03131 1.34767 0
M  V30 5400 H 513.759 -2.63327 2.89439 0
M  V30 5401 H 513.382 -3.67044 1.52854 0
M  V30 5402 N 514.379 -1.04941 -1.1758 0
M  V30 5403 C 515.625 -0.759112 -1.88057 0
M  V30 5404 C 515.958 0.711918 -1.8068 0
M  V30 5405 O 515.233 1.52035 -1.21308 0
M  V30 5406 C 515.516 -1.237 -3.38187 0
M  V30 5407 C 515.369 -2.77078 -3.54327 0
M  V30 5408 C 516.688 -0.834014 -4.32125 0
M  V30 5409 H 513.807 -0.277237 -0.682868 0
M  V30 5410 H 516.449 -1.30296 -1.38286 0
M  V30 5411 H 514.599 -0.774337 -3.80705 0
M  V30 5412 H 516.271 -3.31449 -3.20842 0
M  V30 5413 H 514.514 -3.16477 -2.96689 0
M  V30 5414 H 515.185 -3.05577 -4.59703 0
M  V30 5415 H 517.661 -1.23228 -3.97434 0
M  V30 5416 H 516.537 -1.19603 -5.35711 0
M  V30 5417 H 516.798 0.262195 -4.41322 0
M  V30 5418 N 515.857 1.33968 -0.830081 0
M  V30 5419 C 517.103 1.98357 -0.422191 0
M  V30 5420 C 517.436 1.65633 1.01387 0
M  V30 5421 O 516.711 0.931648 1.70735 0
M  V30 5422 C 516.994 3.54492 -0.633043 0
M  V30 5423 C 516.847 3.96934 -2.11574 0
M  V30 5424 C 518.166 4.40039 -0.0735584 0
M  V30 5425 H 515.285 0.720544 -0.154871 0
M  V30 5426 H 517.927 1.58749 -1.04397 0
M  V30 5427 H 516.077 3.88361 -0.103775 0
M  V30 5428 H 517.749 3.73363 -2.7092 0
M  V30 5429 H 515.992 3.46984 -2.60354 0
M  V30 5430 H 516.663 5.05651 -2.21406 0
M  V30 5431 H 519.139 4.12764 -0.52585 0
M  V30 5432 H 518.015 5.48327 -0.250841 0
M  V30 5433 H 518.276 4.30124 1.02202 0
M  V30 5434 N 517.335 0.585699 1.46312 0
M  V30 5435 C 518.565 0.0780166 2.06453 0
M  V30 5436 C 518.973 -1.2336 1.43454 0
M  V30 5437 O 518.316 -1.75734 0.535086 0
M  V30 5438 C 518.378 -0.158951 3.59148 0
M  V30 5439 C 518.042 1.06752 4.44357 0
M  V30 5440 C 519.039 1.98031 4.80708 0
M  V30 5441 C 516.724 1.2902 4.85447 0
M  V30 5442 C 518.718 3.09924 5.5698 0
M  V30 5443 C 516.405 2.41218 5.61478 0
M  V30 5444 C 517.403 3.31499 5.97158 0
M  V30 5445 O 517.091 4.41747 6.71651 0
M  V30 5446 H 516.823 0.0558894 0.673686 0
M  V30 5447 H 519.377 0.806994 1.88883 0
M  V30 5448 H 517.607 -0.942575 3.75037 0
M  V30 5449 H 519.296 -0.615513 4.01206 0
M  V30 5450 H 520.062 1.82043 4.49539 0
M  V30 5451 H 515.941 0.596567 4.57124 0
M  V30 5452 H 519.485 3.80415 5.84748 0
M  V30 5453 H 515.382 2.57167 5.9206 0
M  V30 5454 H 516.15 4.40152 6.90079 0
M  V30 5455 N 518.813 -1.54241 0.323641 0
M  V30 5456 C 519.743 -2.27289 -0.534993 0
M  V30 5457 C 520.724 -1.28087 -1.11927 0
M  V30 5458 O 521.909 -1.56899 -1.14439 0
M  V30 5459 C 519.039 -3.03075 -1.69596 0
M  V30 5460 C 517.993 -4.09614 -1.24098 0
M  V30 5461 C 517.319 -4.73242 -2.4889 0
M  V30 5462 C 518.619 -5.21087 -0.355789 0
M  V30 5463 H 520.313 -2.99308 0.0743257 0
M  V30 5464 H 517.859 -1.43952 0.0371874 0
M  V30 5465 H 519.812 -3.52907 -2.30293 0
M  V30 5466 H 518.536 -2.28673 -2.33187 0
M  V30 5467 H 517.195 -3.60666 -0.656945 0
M  V30 5468 H 516.843 -3.95455 -3.10845 0
M  V30 5469 H 516.543 -5.45209 -2.19138 0
M  V30 5470 H 518.067 -5.25848 -3.10348 0
M  V30 5471 H 519.481 -5.66675 -0.869042 0
M  V30 5472 H 517.878 -5.9991 -0.151045 0
M  V30 5473 H 518.948 -4.81005 0.613339 0
M  V30 5474 N 520.291 -0.0518155 -1.57515 0
M  V30 5475 C 521.537 0.622745 -1.93002 0
M  V30 5476 C 521.87 1.70456 -0.930499 0
M  V30 5477 O 521.145 1.94452 0.0434086 0
M  V30 5478 C 521.428 1.21824 -3.38867 0
M  V30 5479 C 521.281 0.144434 -4.49568 0
M  V30 5480 C 522.6 2.12968 -3.8514 0
M  V30 5481 H 519.719 0.22491 -0.701844 0
M  V30 5482 H 522.361 -0.113711 -1.89659 0
M  V30 5483 H 520.511 1.8459 -3.41846 0
M  V30 5484 H 522.183 -0.48753 -4.58717 0
M  V30 5485 H 520.426 -0.527424 -4.30582 0
M  V30 5486 H 521.097 0.601127 -5.48717 0
M  V30 5487 H 523.573 1.60163 -3.8404 0
M  V30 5488 H 522.449 2.51578 -4.87852 0
M  V30 5489 H 522.71 3.03004 -3.21934 0
M  V30 5490 N 521.769 1.56035 0.221574 0
M  V30 5491 C 522.999 1.82864 0.961468 0
M  V30 5492 C 523.407 0.628703 1.78449 0
M  V30 5493 O 522.75 -0.412109 1.79018 0
M  V30 5494 C 522.812 3.03425 1.92804 0
M  V30 5495 C 522.476 4.38429 1.28954 0
M  V30 5496 C 523.473 5.15441 0.679431 0
M  V30 5497 C 521.158 4.85151 1.30131 0
M  V30 5498 C 523.152 6.37337 0.0896148 0
M  V30 5499 C 520.839 6.06989 0.707651 0
M  V30 5500 C 521.837 6.82923 0.102855 0
M  V30 5501 O 521.525 8.02456 -0.48157 0
M  V30 5502 H 521.257 0.611883 0.28736 0
M  V30 5503 H 523.811 2.0397 0.241932 0
M  V30 5504 H 522.041 2.78138 2.68656 0
M  V30 5505 H 523.73 3.17127 2.53348 0
M  V30 5506 H 524.496 4.80452 0.662661 0
M  V30 5507 H 520.375 4.26021 1.76145 0
M  V30 5508 H 523.919 6.96547 -0.383069 0
M  V30 5509 H 519.816 6.41451 0.721834 0
M  V30 5510 H 520.584 8.17636 -0.375887 0
M  V30 5511 N 523.247 -0.488276 1.49845 0
M  V30 5512 C 524.157 -1.61451 1.70207 0
M  V30 5513 C 525.173 -1.63877 0.584846 0
M  V30 5514 O 526.349 -1.82063 0.861107 0
M  V30 5515 C 523.414 -2.9776 1.77594 0
M  V30 5516 C 522.475 -3.05861 3.01243 0
M  V30 5517 C 521.708 -4.35668 3.08268 0
M  V30 5518 O 521.931 -5.25197 2.22541 0
M  V30 5519 O 520.865 -4.49005 4.00847 0
M  V30 5520 H 524.691 -1.47199 2.65643 0
M  V30 5521 H 522.276 -0.665939 1.33737 0
M  V30 5522 H 524.158 -3.7875 1.84732 0
M  V30 5523 H 522.833 -3.12248 0.8534 0
M  V30 5524 H 521.74 -2.24012 2.99616 0
M  V30 5525 H 523.073 -2.96304 3.9302 0
M  V30 5526 N 524.725 -1.39134 -0.740242 0
M  V30 5527 C 525.95 -1.39518 -1.53459 0
M  V30 5528 C 526.375 0.00968883 -1.88098 0
M  V30 5529 O 525.733 0.995312 -1.51536 0
M  V30 5530 C 525.781 -2.26981 -2.802 0
M  V30 5531 O 524.885 -1.69609 -3.75908 0
M  V30 5532 H 524.226 -0.475328 -0.463637 0
M  V30 5533 H 526.756 -1.83064 -0.913717 0
M  V30 5534 H 526.766 -2.41309 -3.28989 0
M  V30 5535 H 525.441 -3.29081 -2.5432 0
M  V30 5536 H 524.018 -1.64495 -3.34658 0
M  V30 5537 N 526.204 0.969867 -1.24223 0
M  V30 5538 C 527.151 2.06407 -1.0327 0
M  V30 5539 C 528.121 1.66014 0.0533 0
M  V30 5540 O 529.306 1.90533 -0.100896 0
M  V30 5541 C 526.446 3.3909 -0.641262 0
M  V30 5542 C 525.559 3.9269 -1.80051 0
M  V30 5543 C 524.694 5.13631 -1.35486 0
M  V30 5544 C 523.733 5.59423 -2.48419 0
M  V30 5545 N 522.87 6.71586 -2.04737 0
M  V30 5546 H 527.71 2.23663 -1.96923 0
M  V30 5547 H 525.247 1.09624 -0.980862 0
M  V30 5548 H 527.205 4.15323 -0.395351 0
M  V30 5549 H 525.835 3.21765 0.258269 0
M  V30 5550 H 524.887 3.13116 -2.16014 0
M  V30 5551 H 526.199 4.22636 -2.64916 0
M  V30 5552 H 525.353 5.97231 -1.0677 0
M  V30 5553 H 524.092 4.85364 -0.476722 0
M  V30 5554 H 523.097 4.74398 -2.77897 0
M  V30 5555 H 524.322 5.89705 -3.36786 0
M  V30 5556 H 522.268 6.45058 -1.19318 0
M  V30 5557 H 522.185 7.0097 -2.83156 0
M  V30 5558 H 523.453 7.58633 -1.79154 0
M  V30 5559 N 527.682 1.05563 1.17022 0
M  V30 5560 C 528.632 0.630007 2.19123 0
M  V30 5561 C 529.616 -0.335472 1.57364 0
M  V30 5562 O 530.808 -0.1521 1.76345 0
M  V30 5563 C 527.937 0.0101676 3.43298 0
M  V30 5564 C 527.023 0.999698 4.12149 0
M  V30 5565 N 527.414 2.17251 4.56766 0
M  V30 5566 C 525.712 0.829 4.38228 0
M  V30 5567 C 526.413 2.79883 5.09942 0
M  V30 5568 N 525.389 2.07656 5.02374 0
M  V30 5569 H 529.191 1.52353 2.51328 0
M  V30 5570 H 526.705 0.926288 1.33393 0
M  V30 5571 H 528.702 -0.312541 4.15727 0
M  V30 5572 H 527.362 -0.878707 3.12584 0
M  V30 5573 H 528.373 2.55067 4.50734 0
M  V30 5574 H 525.05 -0.00850974 4.17499 0
M  V30 5575 H 526.44 3.79362 5.54558 0
M  V30 5576 N 529.16 -1.33526 0.837174 0
M  V30 5577 C 530.09 -2.31764 0.284206 0
M  V30 5578 C 531.071 -1.58896 -0.607142 0
M  V30 5579 O 532.256 -1.86798 -0.531047 0
M  V30 5580 C 529.386 -3.43029 -0.542962 0
M  V30 5581 C 528.34 -4.27255 0.252451 0
M  V30 5582 C 527.666 -5.3012 -0.69836 0
M  V30 5583 C 528.966 -5.01229 1.46858 0
M  V30 5584 H 530.66 -2.78262 1.10502 0
M  V30 5585 H 528.206 -1.3378 0.532812 0
M  V30 5586 H 530.159 -4.1078 -0.940096 0
M  V30 5587 H 528.883 -2.95216 -1.39697 0
M  V30 5588 H 527.542 -3.61127 0.631124 0
M  V30 5589 H 527.19 -4.78564 -1.54872 0
M  V30 5590 H 526.89 -5.87353 -0.170274 0
M  V30 5591 H 528.414 -6.00737 -1.09305 0
M  V30 5592 H 529.828 -5.61756 1.14469 0
M  V30 5593 H 528.225 -5.68104 1.93333 0
M  V30 5594 H 529.295 -4.301 2.23924 0
M  V30 5595 N 530.638 -0.59345 -1.46 0
M  V30 5596 C 531.588 0.154751 -2.27474 0
M  V30 5597 C 532.572 0.851849 -1.365 0
M  V30 5598 O 533.764 0.744171 -1.60596 0
M  V30 5599 C 530.893 1.16079 -3.2308 0
M  V30 5600 C 529.979 0.465256 -4.2154 0
M  V30 5601 N 530.37 -0.485197 -5.03467 0
M  V30 5602 C 528.668 0.714634 -4.40237 0
M  V30 5603 C 529.369 -0.892709 -5.74809 0
M  V30 5604 N 528.345 -0.239511 -5.43072 0
M  V30 5605 H 532.147 -0.57546 -2.88211 0
M  V30 5606 H 529.661 -0.416046 -1.5698 0
M  V30 5607 H 531.658 1.71108 -3.80168 0
M  V30 5608 H 530.318 1.89171 -2.63903 0
M  V30 5609 H 531.329 -0.861258 -5.10689 0
M  V30 5610 H 528.006 1.43131 -3.92199 0
M  V30 5611 H 529.396 -1.67581 -6.50666 0
M  V30 5612 N 532.116 1.54067 -0.331816 0
M  V30 5613 C 533.026 2.28322 0.539104 0
M  V30 5614 C 534.042 1.32985 1.1221 0
M  V30 5615 O 535.218 1.6601 1.1403 0
M  V30 5616 C 532.283 3.03277 1.68 0
M  V30 5617 C 531.344 4.14216 1.12798 0
M  V30 5618 C 530.577 4.85588 2.2145 0
M  V30 5619 O 530.8 4.56536 3.41952 0
M  V30 5620 O 529.734 5.72309 1.86404 0
M  V30 5621 H 533.56 3.03632 -0.0641692 0
M  V30 5622 H 531.145 1.49083 -0.0972365 0
M  V30 5623 H 533.027 3.50189 2.34405 0
M  V30 5624 H 531.702 2.30834 2.2693 0
M  V30 5625 H 530.609 3.71635 0.428782 0
M  V30 5626 H 531.942 4.88727 0.583698 0
M  V30 5627 N 533.594 0.0601682 1.57485 0
M  V30 5628 C 534.842 -0.610386 1.92662 0
M  V30 5629 C 535.163 -1.70849 0.939981 0
M  V30 5630 O 534.433 -1.95895 -0.0137455 0
M  V30 5631 H 533.013 -0.228457 0.711208 0
M  V30 5632 H 535.675 0.115288 1.94559 0
M  V30 5633 H 534.771 -1.0432 2.94149 0
M  V30 5634 N 535.072 -1.5615 -0.213296 0
M  V30 5635 C 536.035 -1.92249 -1.24792 0
M  V30 5636 C 537.035 -0.801828 -1.39382 0
M  V30 5637 O 538.225 -1.06948 -1.37506 0
M  V30 5638 C 535.357 -2.18056 -2.62039 0
M  V30 5639 H 536.55 -2.84793 -0.939845 0
M  V30 5640 H 534.103 -1.49559 -0.454062 0
M  V30 5641 H 534.838 -1.2809 -2.97932 0
M  V30 5642 H 534.623 -2.99703 -2.52825 0
M  V30 5643 H 536.113 -2.47051 -3.36683 0
M  V30 5644 N 536.55 0.480323 -1.50102 0
M  V30 5645 C 537.497 1.57946 -1.6829 0
M  V30 5646 C 538.467 1.57611 -0.524223 0
M  V30 5647 O 539.652 1.75282 -0.753709 0
M  V30 5648 C 536.792 2.95978 -1.77457 0
M  V30 5649 C 535.905 3.06173 -3.04766 0
M  V30 5650 C 535.04 4.35063 -3.04784 0
M  V30 5651 C 534.079 4.38966 -4.26586 0
M  V30 5652 N 533.216 5.59314 -4.24396 0
M  V30 5653 H 538.056 1.41743 -2.62131 0
M  V30 5654 H 535.593 0.689304 -1.2995 0
M  V30 5655 H 537.551 3.76011 -1.80752 0
M  V30 5656 H 536.181 3.10837 -0.870637 0
M  V30 5657 H 535.233 2.19071 -3.10986 0
M  V30 5658 H 536.545 3.04916 -3.9475 0
M  V30 5659 H 535.699 5.23436 -3.06757 0
M  V30 5660 H 534.438 4.38915 -2.12614 0
M  V30 5661 H 533.443 3.48992 -4.24835 0
M  V30 5662 H 534.668 4.36813 -5.19972 0
M  V30 5663 H 532.614 5.63969 -3.35074 0
M  V30 5664 H 532.531 5.5976 -5.08138 0
M  V30 5665 H 533.799 6.49837 -4.30502 0
M  V30 5666 N 538.028 1.39524 0.732853 0
M  V30 5667 C 539.253 1.40329 1.52717 0
M  V30 5668 C 539.678 0.000286574 1.881 0
M  V30 5669 O 539.036 -0.987262 1.52062 0
M  V30 5670 C 539.084 2.28464 2.78992 0
M  V30 5671 O 538.188 1.716 3.75003 0
M  V30 5672 H 537.529 0.47778 0.461109 0
M  V30 5673 H 540.059 1.83546 0.903996 0
M  V30 5674 H 540.069 2.43051 3.27705 0
M  V30 5675 H 538.744 3.30425 2.52572 0
M  V30 5676 H 537.321 1.66267 3.33781 0
M  V30 5677 N 539.506 -0.963266 1.24736 0
M  V30 5678 C 540.416 -2.09246 1.06082 0
M  V30 5679 C 541.432 -1.74 0.000363101 0
M  V30 5680 O 542.608 -2.0041 0.199479 0
M  V30 5681 C 539.673 -3.40115 0.672498 0
M  V30 5682 C 538.734 -3.89282 1.80993 0
M  V30 5683 C 537.967 -5.13905 1.44004 0
M  V30 5684 O 538.19 -5.69434 0.331835 0
M  V30 5685 O 537.124 -5.57566 2.26723 0
M  V30 5686 H 540.95 -2.27881 2.00759 0
M  V30 5687 H 538.535 -1.07649 1.03595 0
M  V30 5688 H 540.417 -4.18797 0.467668 0
M  V30 5689 H 539.092 -3.22771 -0.245102 0
M  V30 5690 H 537.999 -3.11642 2.06955 0
M  V30 5691 H 539.332 -4.1111 2.70646 0
M  V30 5692 N 540.985 -1.06182 -1.16461 0
M  V30 5693 C 542.213 -0.798583 -1.90867 0
M  V30 5694 C 542.628 0.646921 -1.77371 0
M  V30 5695 O 541.985 1.44279 -1.11758 0
M  V30 5696 C 542.036 -1.18258 -3.4161 0
M  V30 5697 O 541.757 -2.57135 -3.54701 0
M  V30 5698 C 543.258 -0.946917 -4.33069 0
M  V30 5699 H 540.478 -0.289603 -0.605286 0
M  V30 5700 H 543.022 -1.41515 -1.47627 0
M  V30 5701 H 541.177 -0.610562 -3.82558 0
M  V30 5702 H 541.591 -2.72477 -4.4817 0
M  V30 5703 H 543.065 -1.26523 -5.37304 0
M  V30 5704 H 543.542 0.117406 -4.39043 0
M  V30 5705 H 544.148 -1.50326 -3.97847 0
M  V30 5706 N 542.463 1.3308 -0.844243 0
M  V30 5707 C 543.426 2.27403 -0.286485 0
M  V30 5708 C 544.426 1.51179 0.547872 0
M  V30 5709 O 545.616 1.70421 0.360886 0
M  V30 5710 C 542.748 3.35653 0.595813 0
M  V30 5711 H 543.941 2.78248 -1.11885 0
M  V30 5712 H 541.494 1.43574 -0.617749 0
M  V30 5713 H 542.229 2.90058 1.4504 0
M  V30 5714 H 542.014 3.921 -0.00125994 0
M  V30 5715 H 543.504 4.05958 0.979168 0
M  V30 5716 N 543.941 0.601185 1.45683 0
M  V30 5717 C 544.851 -0.123395 2.34275 0
M  V30 5718 C 545.867 -0.86702 1.5086 0
M  V30 5719 O 547.043 -0.826049 1.8368 0
M  V30 5720 C 544.108 -1.11237 3.2837 0
M  V30 5721 C 543.169 -0.371405 4.2769 0
M  V30 5722 C 542.402 -1.31327 5.1729 0
M  V30 5723 O 542.625 -2.55078 5.10188 0
M  V30 5724 O 541.559 -0.813811 5.96373 0
M  V30 5725 H 545.385 0.604483 2.97623 0
M  V30 5726 H 542.97 0.361477 1.44961 0
M  V30 5727 H 544.852 -1.68214 3.8637 0
M  V30 5728 H 543.527 -1.82139 2.67595 0
M  V30 5729 H 542.434 0.24067 3.73325 0
M  V30 5730 H 543.767 0.296998 4.91303 0
M  V30 5731 N 545.419 -1.53889 0.339982 0
M  V30 5732 C 546.329 -2.28604 -0.526988 0
M  V30 5733 C 547.345 -1.33578 -1.11503 0
M  V30 5734 O 548.521 -1.66612 -1.13148 0
M  V30 5735 C 545.586 -3.04164 -1.66389 0
M  V30 5736 C 544.647 -4.14809 -1.10599 0
M  V30 5737 C 543.88 -4.86756 -2.18871 0
M  V30 5738 O 544.103 -4.58343 -3.39526 0
M  V30 5739 O 543.037 -5.73289 -1.83366 0
M  V30 5740 H 546.863 -3.03594 0.0802707 0
M  V30 5741 H 544.448 -1.4903 0.105141 0
M  V30 5742 H 546.33 -3.51427 -2.32544 0
M  V30 5743 H 545.005 -2.32035 -2.25703 0
M  V30 5744 H 543.912 -3.71857 -0.409067 0
M  V30 5745 H 545.245 -4.89029 -0.557771 0
M  V30 5746 N 546.897 -0.0685191 -1.57451 0
M  V30 5747 C 547.827 0.89747 -2.15564 0
M  V30 5748 C 548.808 1.31266 -1.08181 0
M  V30 5749 O 549.993 1.38429 -1.36202 0
M  V30 5750 C 547.123 2.16623 -2.71463 0
M  V30 5751 C 546.077 1.89054 -3.83982 0
M  V30 5752 C 545.403 3.22532 -4.26471 0
M  V30 5753 C 546.703 1.1984 -5.08366 0
M  V30 5754 H 548.397 0.413373 -2.96533 0
M  V30 5755 H 545.943 0.197391 -1.42641 0
M  V30 5756 H 547.896 2.84614 -3.10761 0
M  V30 5757 H 546.62 2.67269 -1.8771 0
M  V30 5758 H 545.279 1.23469 -3.45183 0
M  V30 5759 H 544.927 3.71013 -3.39644 0
M  V30 5760 H 544.627 3.04879 -5.02317 0
M  V30 5761 H 546.151 3.91727 -4.68383 0
M  V30 5762 H 547.565 1.77896 -5.45001 0
M  V30 5763 H 545.962 1.12456 -5.89469 0
M  V30 5764 H 547.032 0.176996 -4.84577 0
M  V30 5765 N 548.375 1.56261 0.205012 0
M  V30 5766 C 549.322 1.93754 1.25411 0
M  V30 5767 C 550.292 0.796826 1.45739 0
M  V30 5768 O 551.477 1.05414 1.59036 0
M  V30 5769 C 548.617 2.27383 2.59598 0
M  V30 5770 C 547.73 3.5447 2.46931 0
M  V30 5771 C 546.865 3.77468 3.73753 0
M  V30 5772 C 545.904 4.98014 3.55877 0
M  V30 5773 N 545.041 5.17316 4.74688 0
M  V30 5774 H 549.881 2.83203 0.92737 0
M  V30 5775 H 547.418 1.40158 0.446574 0
M  V30 5776 H 549.376 2.44895 3.37761 0
M  V30 5777 H 548.006 1.41088 2.90335 0
M  V30 5778 H 547.058 3.45061 1.60116 0
M  V30 5779 H 548.37 4.42789 2.29651 0
M  V30 5780 H 547.524 3.95165 4.60358 0
M  V30 5781 H 546.263 2.87461 3.93976 0
M  V30 5782 H 545.268 4.80249 2.67657 0
M  V30 5783 H 546.493 5.8952 3.37109 0
M  V30 5784 H 544.439 4.30255 4.95194 0
M  V30 5785 H 544.356 5.99796 4.60197 0
M  V30 5786 H 545.624 5.39463 5.62672 0
M  V30 5787 N 549.853 -0.472356 1.50355 0
M  V30 5788 C 550.8 -1.57051 1.69126 0
M  V30 5789 C 551.77 -1.5733 0.532574 0
M  V30 5790 O 552.955 -1.7488 0.762994 0
M  V30 5791 C 550.095 -2.95033 1.79024 0
M  V30 5792 C 549.208 -3.04552 3.06386 0
M  V30 5793 C 548.343 -4.33441 3.07087 0
M  V30 5794 C 547.382 -4.36697 4.28908 0
M  V30 5795 N 546.519 -5.57056 4.27356 0
M  V30 5796 H 551.359 -1.40351 2.62879 0
M  V30 5797 H 548.896 -0.682403 1.30314 0
M  V30 5798 H 550.854 -3.75048 1.82744 0
M  V30 5799 H 549.484 -3.10371 0.887109 0
M  V30 5800 H 548.536 -2.17419 3.12143 0
M  V30 5801 H 549.848 -3.02818 3.96362 0
M  V30 5802 H 549.002 -5.21801 3.09529 0
M  V30 5803 H 547.741 -4.37782 2.14939 0
M  V30 5804 H 546.746 -3.46734 4.2668 0
M  V30 5805 H 547.971 -4.34049 5.22282 0
M  V30 5806 H 545.917 -5.62184 3.3806 0
M  V30 5807 H 545.834 -5.57058 5.111 0
M  V30 5808 H 547.102 -6.47545 4.33942 0
M  V30 5809 N 551.331 -1.39911 -0.725443 0
M  V30 5810 C 552.577 -1.37858 -1.48738 0
M  V30 5811 C 552.91 0.0224187 -1.94187 0
M  V30 5812 O 552.185 0.989204 -1.67466 0
M  V30 5813 C 552.468 -2.3594 -2.72038 0
M  V30 5814 C 552.321 -3.85023 -2.32546 0
M  V30 5815 C 553.64 -2.31704 -3.74167 0
M  V30 5816 H 550.759 -0.502074 -0.539528 0
M  V30 5817 H 553.401 -1.70974 -0.828728 0
M  V30 5818 H 551.551 -2.0783 -3.28236 0
M  V30 5819 H 553.223 -4.2392 -1.81905 0
M  V30 5820 H 551.466 -4.01334 -1.64661 0
M  V30 5821 H 552.137 -4.49152 -3.20884 0
M  V30 5822 H 554.613 -2.5658 -3.27576 0
M  V30 5823 H 553.489 -3.02395 -4.58092 0
M  V30 5824 H 553.75 -1.3253 -4.21768 0
M  V30 5825 N 552.809 0.956637 -1.25245 0
M  V30 5826 C 553.772 2.03457 -1.05537 0
M  V30 5827 C 554.772 1.60798 -0.00886317 0
M  V30 5828 O 555.962 1.72384 -0.250865 0
M  V30 5829 C 553.094 3.35543 -0.601965 0
M  V30 5830 H 554.287 2.22372 -2.01223 0
M  V30 5831 H 551.84 1.13344 -1.07623 0
M  V30 5832 H 552.575 3.22323 0.357584 0
M  V30 5833 H 552.36 3.67854 -1.35743 0
M  V30 5834 H 553.85 4.14769 -0.485454 0
M  V30 5835 N 554.287 1.06798 1.15896 0
M  V30 5836 C 555.219 0.641263 2.20046 0
M  V30 5837 C 556.232 -0.303355 1.59949 0
M  V30 5838 O 557.421 -0.0935478 1.78255 0
M  V30 5839 C 554.521 -0.0794029 3.38807 0
M  V30 5840 C 553.694 0.879986 4.28457 0
M  V30 5841 C 552.753 0.197638 5.25829 0
M  V30 5842 O 551.779 0.836913 5.63014 0
M  V30 5843 N 552.981 -1.05886 5.70761 0
M  V30 5844 H 555.746 1.53718 2.57276 0
M  V30 5845 H 553.307 0.951951 1.30956 0
M  V30 5846 H 555.299 -0.546418 4.00994 0
M  V30 5847 H 553.869 -0.877193 3.0004 0
M  V30 5848 H 553.089 1.52625 3.63454 0
M  V30 5849 H 554.377 1.53065 4.8523 0
M  V30 5850 H 553.775 -1.59828 5.42652 0
M  V30 5851 H 552.332 -1.46965 6.35015 0
M  V30 5852 N 555.766 -1.3263 0.851289 0
M  V30 5853 C 556.676 -2.32722 0.296268 0
M  V30 5854 C 557.692 -1.63901 -0.584162 0
M  V30 5855 O 558.868 -1.95465 -0.485334 0
M  V30 5856 C 555.933 -3.42942 -0.509103 0
M  V30 5857 C 554.994 -4.2746 0.397069 0
M  V30 5858 C 554.227 -5.32416 -0.36996 0
M  V30 5859 O 554.45 -5.47491 -1.6003 0
M  V30 5860 O 553.384 -6.01327 0.262493 0
M  V30 5861 H 557.21 -2.82078 1.12543 0
M  V30 5862 H 554.795 -1.36194 0.614135 0
M  V30 5863 H 556.677 -4.1017 -0.96634 0
M  V30 5864 H 555.352 -2.95781 -1.31512 0
M  V30 5865 H 554.259 -3.63053 0.902411 0
M  V30 5866 H 555.592 -4.78136 1.16818 0
M  V30 5867 N 557.244 -0.608902 -1.45362 0
M  V30 5868 C 558.174 0.0964526 -2.33301 0
M  V30 5869 C 559.155 0.857444 -1.46908 0
M  V30 5870 O 560.34 0.827735 -1.75676 0
M  V30 5871 C 557.47 1.09354 -3.29635 0
M  V30 5872 C 556.424 0.445676 -4.25673 0
M  V30 5873 C 555.75 1.5511 -5.11708 0
M  V30 5874 C 557.05 -0.633972 -5.18438 0
M  V30 5875 H 558.744 -0.637829 -2.92527 0
M  V30 5876 H 556.29 -0.308178 -1.40664 0
M  V30 5877 H 558.243 1.59556 -3.90025 0
M  V30 5878 H 556.967 1.85843 -2.6857 0
M  V30 5879 H 555.626 -0.0354897 -3.66583 0
M  V30 5880 H 555.274 2.30631 -4.4701 0
M  V30 5881 H 554.974 1.12311 -5.76767 0
M  V30 5882 H 556.498 2.05537 -5.74967 0
M  V30 5883 H 557.912 -0.215974 -5.72893 0
M  V30 5884 H 556.309 -0.983789 -5.91981 0
M  V30 5885 H 557.379 -1.51005 -4.60788 0
M  V30 5886 N 558.722 1.53707 -0.348139 0
M  V30 5887 C 559.632 2.28881 0.514857 0
M  V30 5888 C 560.648 1.34168 1.10793 0
M  V30 5889 O 561.824 1.6721 1.12262 0
M  V30 5890 C 558.889 3.05042 1.64774 0
M  V30 5891 C 557.95 4.15389 1.08398 0
M  V30 5892 C 557.183 4.87909 2.16287 0
M  V30 5893 O 557.406 4.60137 3.3709 0
M  V30 5894 O 556.34 5.74254 1.80323 0
M  V30 5895 H 560.166 3.03547 -0.0963699 0
M  V30 5896 H 557.751 1.48972 -0.113043 0
M  V30 5897 H 559.633 3.52656 2.30677 0
M  V30 5898 H 558.308 2.33228 2.24469 0
M  V30 5899 H 557.215 3.72068 0.389341 0
M  V30 5900 H 558.548 4.89318 0.531829 0
M  V30 5901 N 560.2 0.0768682 1.57412 0
M  V30 5902 C 561.11 -0.903207 2.16516 0
M  V30 5903 C 562.126 -1.32341 1.12968 0
M  V30 5904 O 563.302 -1.39507 1.45258 0
M  V30 5905 C 560.367 -2.1508 2.71922 0
M  V30 5906 C 559.428 -1.78653 3.90361 0
M  V30 5907 C 558.661 -2.97465 4.43114 0
M  V30 5908 O 558.884 -4.11638 3.94854 0
M  V30 5909 O 557.818 -2.76987 5.3438 0
M  V30 5910 H 561.644 -0.430427 3.00634 0
M  V30 5911 H 559.229 -0.146485 1.4868 0
M  V30 5912 H 561.111 -2.8823 3.07411 0
M  V30 5913 H 559.786 -2.61446 1.9086 0
M  V30 5914 H 558.693 -1.0274 3.59716 0
M  V30 5915 H 560.026 -1.37066 4.7273 0
M  V30 5916 N 561.678 -1.56367 -0.196722 0
M  V30 5917 C 562.625 -1.94417 -1.24382 0
M  V30 5918 C 563.595 -0.804543 -1.45315 0
M  V30 5919 O 564.78 -1.06256 -1.58475 0
M  V30 5920 C 561.92 -2.28757 -2.58388 0
M  V30 5921 C 561.033 -3.55775 -2.45047 0
M  V30 5922 C 560.168 -3.79445 -3.71746 0
M  V30 5923 C 559.207 -4.99894 -3.53231 0
M  V30 5924 N 558.344 -5.19826 -4.71938 0
M  V30 5925 H 563.184 -2.83691 -0.912338 0
M  V30 5926 H 560.721 -1.40392 -0.439135 0
M  V30 5927 H 562.679 -2.46682 -3.36457 0
M  V30 5928 H 561.309 -1.42625 -2.89582 0
M  V30 5929 H 560.361 -3.45905 -1.58284 0
M  V30 5930 H 561.673 -4.44 -2.27299 0
M  V30 5931 H 560.827 -3.97601 -4.58256 0
M  V30 5932 H 559.566 -2.89546 -3.92446 0
M  V30 5933 H 558.571 -4.81662 -2.65107 0
M  V30 5934 H 559.796 -5.913 -3.33978 0
M  V30 5935 H 557.742 -4.32875 -4.92905 0
M  V30 5936 H 557.659 -6.02228 -4.57009 0
M  V30 5937 H 558.927 -5.42439 -5.59803 0
M  V30 5938 N 563.156 0.464375 -1.50603 0
M  V30 5939 C 564.086 1.56944 -1.72889 0
M  V30 5940 C 565.067 1.59979 -0.577997 0
M  V30 5941 O 566.252 1.76138 -0.817855 0
M  V30 5942 C 563.382 2.95225 -1.8292 0
M  V30 5943 C 562.336 3.07056 -2.98162 0
M  V30 5944 C 561.662 4.47051 -2.93343 0
M  V30 5945 C 562.962 2.83648 -4.38567 0
M  V30 5946 H 564.656 1.38547 -2.65415 0
M  V30 5947 H 562.202 0.665082 -1.27721 0
M  V30 5948 H 564.155 3.72467 -1.97095 0
M  V30 5949 H 562.879 3.14793 -0.870209 0
M  V30 5950 H 561.538 2.32248 -2.83648 0
M  V30 5951 H 561.186 4.63547 -1.95276 0
M  V30 5952 H 560.886 4.55902 -3.70712 0
M  V30 5953 H 562.41 5.26304 -3.09575 0
M  V30 5954 H 563.824 3.50636 -4.53572 0
M  V30 5955 H 562.221 3.03937 -5.17438 0
M  V30 5956 H 563.291 1.79451 -4.50472 0
M  V30 5957 N 564.634 1.40294 0.718013 0
M  V30 5958 C 565.582 1.40536 1.85344 0
M  V30 5959 C 566.576 0.286192 1.66965 0
M  V30 5960 O 567.782 0.457105 1.74099 0
M  V30 5961 H 564.157 0.439236 0.61039 0
M  V30 5962 H 566.128 2.36275 1.82255 0
M  V30 5963 C 564.877 1.28245 3.23185 0
M  V30 5964 H 564.2 2.1364 3.37932 0
M  V30 5965 H 565.64 1.32474 4.02774 0
M  V30 5966 C 564.099 -0.0075503 3.36899 0
M  V30 5967 O 564.629 -0.971391 3.89778 0
M  V30 5968 N 562.835 -0.0762479 2.905 0
M  V30 5969 H 562.382 0.708819 2.47656 0
M  V30 5970 H 562.34 -0.938846 3.00055 0
M  V30 5971 N 566.112 -0.949982 1.2575 0
M  V30 5972 C 567.361 -1.68956 1.10168 0
M  V30 5973 C 567.674 -1.92327 -0.356309 0
M  V30 5974 O 568.88 -2.64026 -0.632657 0
M  V30 5975 C 567.336 -3.04196 1.92336 0
M  V30 5976 C 566.944 -2.88603 3.42655 0
M  V30 5977 C 568.688 -3.81904 1.85336 0
M  V30 5978 C 566.595 -4.19262 4.17101 0
M  V30 5979 H 565.525 -0.633645 0.408668 0
M  V30 5980 H 568.176 -1.05719 1.49986 0
M  V30 5981 H 566.558 -3.68363 1.45344 0
M  V30 5982 H 567.732 -2.3334 3.97353 0
M  V30 5983 H 566.047 -2.24345 3.50796 0
M  V30 5984 H 568.644 -4.78688 2.38248 0
M  V30 5985 H 568.987 -4.08099 0.822226 0
M  V30 5986 H 569.52 -3.24495 2.30104 0
M  V30 5987 H 566.259 -3.98254 5.20648 0
M  V30 5988 H 565.779 -4.74273 3.67186 0
M  V30 5989 H 567.458 -4.87775 4.25071 0
M  V30 5990 N 567.59 -1.07411 -1.15328 0
M  V30 5991 C 568.52 -0.716472 -2.22236 0
M  V30 5992 C 569.501 0.296373 -1.67498 0
M  V30 5993 O 570.686 0.168989 -1.93463 0
M  V30 5994 C 567.816 -0.114142 -3.47112 0
M  V30 5995 C 566.77 -1.05421 -4.14814 0
M  V30 5996 C 566.096 -0.314604 -5.33774 0
M  V30 5997 C 567.396 -2.38808 -4.64508 0
M  V30 5998 H 569.09 -1.61029 -2.52408 0
M  V30 5999 H 566.636 -0.775702 -1.21321 0
M  V30 6000 H 568.589 0.148001 -4.2114 0
M  V30 6001 H 567.313 0.814755 -3.16274 0
M  V30 6002 H 565.972 -1.30128 -3.42728 0
M  V30 6003 H 565.62 0.617772 -4.99192 0
M  V30 6004 H 565.32 -0.941209 -5.80013 0
M  V30 6005 H 566.844 -0.0602747 -6.1057 0
M  V30 6006 H 568.258 -2.18424 -5.3006 0
M  V30 6007 H 566.655 -2.97069 -5.21412 0
M  V30 6008 H 567.725 -3.01067 -3.80114 0
M  V30 6009 N 569.068 1.32177 -0.85831 0
M  V30 6010 C 570.016 2.30729 -0.294442 0
M  V30 6011 C 571.01 1.59009 0.584165 0
M  V30 6012 O 572.216 1.73713 0.471562 0
M  V30 6013 H 568.591 0.748097 -0.0765171 0
M  V30 6014 H 570.562 2.75774 -1.1398 0
M  V30 6015 C 569.311 3.44098 0.499208 0
M  V30 6016 H 568.634 3.99449 -0.167579 0
M  V30 6017 H 570.074 4.15202 0.859273 0
M  V30 6018 C 568.533 2.91684 1.68588 0
M  V30 6019 O 569.063 2.89481 2.78503 0
M  V30 6020 N 567.269 2.48036 1.51415 0
M  V30 6021 H 566.816 2.50027 0.620006 0
M  V30 6022 H 566.774 2.13322 2.30957 0
M  V30 6023 N 570.547 0.616602 1.45037 0
M  V30 6024 C 571.495 -0.109318 2.32343 0
M  V30 6025 C 572.489 -0.850543 1.465 0
M  V30 6026 O 573.695 -0.765088 1.62931 0
M  V30 6027 H 570.07 -0.0541091 0.750051 0
M  V30 6028 H 572.041 0.645326 2.91338 0
M  V30 6029 C 570.79 -1.0872 3.30266 0
M  V30 6030 H 570.113 -0.526267 3.96321 0
M  V30 6031 H 571.553 -1.56489 3.94065 0
M  V30 6032 C 570.012 -2.16525 2.58105 0
M  V30 6033 O 570.542 -3.244 2.36913 0
M  V30 6034 N 568.748 -1.92057 2.18088 0
M  V30 6035 H 568.295 -1.04337 2.35524 0
M  V30 6036 H 568.253 -2.64391 1.70131 0
M  V30 6037 N 572.025 -1.5352 0.356285 0
M  V30 6038 C 572.973 -2.26945 -0.50978 0
M  V30 6039 C 573.967 -1.29569 -1.09125 0
M  V30 6040 O 575.173 -1.47231 -1.03552 0
M  V30 6041 H 571.548 -0.729368 -0.183102 0
M  V30 6042 H 573.519 -2.98111 0.131374 0
M  V30 6043 C 572.268 -3.06466 -1.64237 0
M  V30 6044 H 571.591 -3.81233 -1.20423 0
M  V30 6045 H 573.031 -3.61035 -2.22327 0
M  V30 6046 C 571.49 -2.16737 -2.57928 0
M  V30 6047 O 572.02 -1.77195 -3.60507 0
M  V30 6048 N 570.226 -1.81558 -2.26903 0
M  V30 6049 H 569.773 -2.13913 -1.43524 0
M  V30 6050 H 569.731 -1.21806 -2.89846 0
M  V30 6051 N 573.503 -0.0852151 -1.57369 0
M  V30 6052 C 574.733 0.588605 -1.98038 0
M  V30 6053 C 575.141 1.62869 -0.962817 0
M  V30 6054 O 574.484 1.83611 0.057134 0
M  V30 6055 C 574.546 1.30303 -3.35054 0
M  V30 6056 C 574.21 0.414855 -4.55113 0
M  V30 6057 C 575.207 -0.333011 -5.18832 0
M  V30 6058 C 572.892 0.335804 -5.01176 0
M  V30 6059 C 574.886 -1.14801 -6.26976 0
M  V30 6060 C 572.573 -0.482857 -6.09189 0
M  V30 6061 C 573.571 -1.22342 -6.71953 0
M  V30 6062 O 573.259 -2.02855 -7.77885 0
M  V30 6063 H 572.991 0.163249 -0.655992 0
M  V30 6064 H 575.545 -0.1582 -2.0479 0
M  V30 6065 H 573.775 2.0962 -3.24956 0
M  V30 6066 H 575.464 1.87041 -3.60237 0
M  V30 6067 H 576.23 -0.281611 -4.84182 0
M  V30 6068 H 572.109 0.901869 -4.52092 0
M  V30 6069 H 575.653 -1.72654 -6.75897 0
M  V30 6070 H 571.55 -0.535773 -6.43273 0
M  V30 6071 H 572.318 -1.95432 -7.94826 0
M  V30 6072 N 574.981 1.5647 0.188427 0
M  V30 6073 C 575.928 1.95073 1.23349 0
M  V30 6074 C 576.898 0.812238 1.44886 0
M  V30 6075 O 578.083 1.07095 1.57909 0
M  V30 6076 C 575.223 2.30124 2.57171 0
M  V30 6077 C 574.336 3.57069 2.43157 0
M  V30 6078 C 573.471 3.81411 3.69729 0
M  V30 6079 C 572.51 5.0176 3.50575 0
M  V30 6080 N 571.647 5.22321 4.69175 0
M  V30 6081 H 576.487 2.84171 0.89728 0
M  V30 6082 H 574.024 1.40623 0.431683 0
M  V30 6083 H 575.982 2.48463 3.35145 0
M  V30 6084 H 574.612 1.44159 2.88822 0
M  V30 6085 H 573.664 3.4674 1.56447 0
M  V30 6086 H 574.976 4.452 2.24942 0
M  V30 6087 H 574.13 4.00026 4.56141 0
M  V30 6088 H 572.869 2.91624 3.90905 0
M  V30 6089 H 571.874 4.83061 2.62549 0
M  V30 6090 H 573.099 5.93063 3.30837 0
M  V30 6091 H 571.045 4.35483 4.90602 0
M  V30 6092 H 570.962 6.04643 4.53809 0
M  V30 6093 H 572.23 5.45401 5.56919 0
M  V30 6094 N 576.459 -0.456382 1.50847 0
M  V30 6095 C 577.708 -1.2042 1.61808 0
M  V30 6096 C 578.021 -1.9278 0.330932 0
M  V30 6097 O 579.227 -2.69612 0.319643 0
M  V30 6098 C 577.683 -2.18891 2.85683 0
M  V30 6099 C 577.291 -1.52267 4.2133 0
M  V30 6100 C 579.035 -2.94224 3.05994 0
M  V30 6101 C 576.942 -2.4911 5.36375 0
M  V30 6102 H 575.872 -0.453177 0.602616 0
M  V30 6103 H 578.523 -0.473144 1.77295 0
M  V30 6104 H 576.905 -2.95351 2.63787 0
M  V30 6105 H 578.079 -0.814949 4.53536 0
M  V30 6106 H 576.394 -0.891594 4.06743 0
M  V30 6107 H 578.991 -3.66732 3.89117 0
M  V30 6108 H 579.334 -3.54469 2.18306 0
M  V30 6109 H 579.867 -2.24874 3.28141 0
M  V30 6110 H 576.606 -1.93582 6.26264 0
M  V30 6111 H 576.126 -3.17991 5.08569 0
M  V30 6112 H 577.805 -3.10637 5.67551 0
M  V30 6113 N 577.937 -1.40673 -0.710563 0
M  V30 6114 C 578.867 -1.44095 -1.83736 0
M  V30 6115 C 579.848 -0.301286 -1.67411 0
M  V30 6116 O 581.033 -0.510618 -1.87367 0
M  V30 6117 C 578.163 -1.30773 -3.21738 0
M  V30 6118 C 577.117 -2.42395 -3.52745 0
M  V30 6119 C 576.443 -2.14147 -4.89944 0
M  V30 6120 C 577.743 -3.84738 -3.53234 0
M  V30 6121 H 579.437 -2.38396 -1.81129 0
M  V30 6122 H 576.983 -1.14746 -0.870017 0
M  V30 6123 H 578.936 -1.31783 -4.00264 0
M  V30 6124 H 577.66 -0.329507 -3.24934 0
M  V30 6125 H 576.319 -2.40643 -2.76562 0
M  V30 6126 H 575.967 -1.14703 -4.89747 0
M  V30 6127 H 575.667 -2.88934 -5.11655 0
M  V30 6128 H 577.191 -2.16848 -5.70797 0
M  V30 6129 H 578.605 -3.88286 -4.2179 0
M  V30 6130 H 577.002 -4.59085 -3.86473 0
M  V30 6131 H 578.072 -4.13962 -2.52514 0
M  V30 6132 N 579.415 0.9433 -1.26252 0
M  V30 6133 C 580.347 2.04542 -1.03417 0
M  V30 6134 C 581.36 1.62799 0.0046911 0
M  V30 6135 O 582.549 1.76944 -0.235146 0
M  V30 6136 C 579.649 3.34511 -0.543671 0
M  V30 6137 C 578.822 4.05033 -1.65128 0
M  V30 6138 C 577.881 5.13273 -1.1592 0
M  V30 6139 O 576.907 5.38095 -1.85586 0
M  V30 6140 N 578.109 5.805 -0.00649279 0
M  V30 6141 H 580.874 2.24699 -1.98319 0
M  V30 6142 H 578.435 1.11264 -1.1761 0
M  V30 6143 H 580.427 4.04212 -0.198703 0
M  V30 6144 H 578.997 3.11042 0.311711 0
M  V30 6145 H 578.217 3.29275 -2.16729 0
M  V30 6146 H 579.505 4.48903 -2.39508 0
M  V30 6147 H 578.903 5.62767 0.575347 0
M  V30 6148 H 577.46 6.51201 0.279416 0
M  V30 6149 N 580.893 1.08022 1.14757 0
M  V30 6150 C 581.856 0.71048 2.1791 0
M  V30 6151 C 582.856 -0.252731 1.58801 0
M  V30 6152 O 584.046 -0.0327915 1.74169 0
M  V30 6153 C 581.178 0.0483203 3.40866 0
M  V30 6154 H 582.371 1.62384 2.52134 0
M  V30 6155 H 579.924 0.877595 1.29337 0
M  V30 6156 H 580.659 -0.876959 3.12218 0
M  V30 6157 H 580.444 0.741189 3.85031 0
M  V30 6158 H 581.934 -0.195471 4.17142 0
M  V30 6159 N 582.371 -1.3172 0.865308 0
M  V30 6160 C 583.648 -1.91574 0.394789 0
M  V30 6161 C 584.028 -1.78769 -1.12271 0
M  V30 6162 O 583.376 -1.19245 -1.94918 0
M  V30 6163 C 583.586 -3.37957 0.870982 0
M  V30 6164 C 584.934 -4.15073 0.894384 0
M  V30 6165 O 585.958 -3.4672 0.816325 0
M  V30 6166 O 584.817 -5.37151 1.00651 0
M  V30 6167 H 581.911 -0.818649 0.117229 0
M  V30 6168 H 584.457 -1.4042 0.952913 0
M  V30 6169 H 583.229 -3.41269 1.91444 0
M  V30 6170 H 582.852 -3.96534 0.290907 0
M  V30 6171 N 583.85 -0.624285 -1.44708 0
M  V30 6172 C 584.782 0.12305 -2.28869 0
M  V30 6173 C 585.795 0.81557 -1.40898 0
M  V30 6174 O 586.984 0.678162 -1.65116 0
M  V30 6175 C 584.084 1.19612 -3.1709 0
M  V30 6176 C 583.257 0.587452 -4.33437 0
M  V30 6177 C 582.316 1.55358 -5.02743 0
M  V30 6178 O 581.341 1.07338 -5.58988 0
M  V30 6179 N 582.543 2.88798 -5.03563 0
M  V30 6180 H 585.308 -0.599193 -2.93649 0
M  V30 6181 H 582.87 -0.464954 -1.5508 0
M  V30 6182 H 584.861 1.84261 -3.60319 0
M  V30 6183 H 583.432 1.82067 -2.54107 0
M  V30 6184 H 582.652 -0.237509 -3.93484 0
M  V30 6185 H 583.94 0.161326 -5.08544 0
M  V30 6186 H 583.338 3.30399 -4.59188 0
M  V30 6187 H 581.894 3.48826 -5.50603 0
M  V30 6188 N 585.328 1.53329 -0.364422 0
M  V30 6189 C 586.238 2.29414 0.490552 0
M  V30 6190 C 587.254 1.35335 1.09363 0
M  V30 6191 O 588.43 1.68391 1.10483 0
M  V30 6192 C 585.495 3.06772 1.61529 0
M  V30 6193 C 584.556 4.16516 1.03986 0
M  V30 6194 C 583.789 4.90176 2.111 0
M  V30 6195 O 584.012 4.63687 3.32191 0
M  V30 6196 O 582.946 5.76134 1.74222 0
M  V30 6197 H 586.772 3.03428 -0.12856 0
M  V30 6198 H 584.357 1.48843 -0.128837 0
M  V30 6199 H 586.239 3.55082 2.26924 0
M  V30 6200 H 584.914 2.35596 2.21983 0
M  V30 6201 H 583.821 3.7246 0.349856 0
M  V30 6202 H 585.154 4.89855 0.4799 0
M  V30 6203 N 586.806 0.0935595 1.57322 0
M  V30 6204 C 587.736 -0.863062 2.16964 0
M  V30 6205 C 588.717 -1.29528 1.10256 0
M  V30 6206 O 589.902 -1.36245 1.38387 0
M  V30 6207 C 587.032 -2.12276 2.74875 0
M  V30 6208 C 585.986 -1.82921 3.86942 0
M  V30 6209 C 585.312 -3.15707 4.31548 0
M  V30 6210 C 586.612 -1.11737 5.10208 0
M  V30 6211 H 588.306 -0.366145 2.97153 0
M  V30 6212 H 585.852 -0.174673 1.42937 0
M  V30 6213 H 587.805 -2.79634 3.1525 0
M  V30 6214 H 586.529 -2.64248 1.91938 0
M  V30 6215 H 585.188 -1.17961 3.47103 0
M  V30 6216 H 584.836 -3.65563 3.45504 0
M  V30 6217 H 584.536 -2.96849 5.07104 0
M  V30 6218 H 586.06 -3.84226 4.74555 0
M  V30 6219 H 587.474 -1.69203 5.47762 0
M  V30 6220 H 585.871 -1.03064 5.91183 0
M  V30 6221 H 586.941 -0.0998818 4.84797 0
M  V30 6222 O 588.323 -1.61433 -0.0465113 0
M  V30 6223 H 589.014 -1.8177 -0.669292 0
M  V30 END ATOM
M  V30 BEGIN BOND
M  V30 END BOND
M  V30 END CTAB
M  END
$$$$
