drugbank_target|O14735 CDP-diacylglycerol--inositol 3-phosphatidyltransferase (DB03106)
 OpenBabel12092120073D

  0  0  0     0  0            999 V3000
M  V30 BEGIN CTAB
M  V30 COUNTS 3337 3379 0 0 0
M  V30 BEGIN ATOM
M  V30 1 H -0.908 1.98254 -0.117106 0
M  V30 2 N 0 1.576 0 0
M  V30 3 C 0.933 2.03868 1.02534 0
M  V30 4 C 1.911 0.928543 1.3348 0
M  V30 5 O 3.095 1.19667 1.45644 0
M  V30 6 C 0.222 2.43627 2.35294 0
M  V30 7 C -0.732 3.65373 2.2001 0
M  V30 8 S 0.101 5.13292 1.52614 0
M  V30 9 C 1.257 5.56322 2.86805 0
M  V30 10 H 1.49 2.90518 0.631377 0
M  V30 11 H -0.977 1.52953 0.210867 0
M  V30 12 H 0.981 2.67203 3.11629 0
M  V30 13 H -0.358 1.57376 2.7183 0
M  V30 14 H -1.165 3.90944 3.18086 0
M  V30 15 H -1.563 3.418 1.51819 0
M  V30 16 H 0.729 5.58782 3.83104 0
M  V30 17 H 1.672 6.56266 2.65933 0
M  V30 18 H 2.08 4.83886 2.90714 0
M  V30 19 N 1.4781 -0.272755 1.55222 0
M  V30 20 C 2.8891 -0.84378 1.66545 0
M  V30 21 C 3.2401 -1.87035 0.592641 0
M  V30 22 O 2.3651 -2.14761 -0.265818 0
M  V30 23 C 2.9601 -1.53723 3.01918 0
M  V30 24 C 1.5191 -2.05628 3.15268 0
M  V30 25 C 0.6661 -0.898424 2.62343 0
M  V30 26 H 3.6171 -0.0490998 1.58624 0
M  V30 27 H 3.6381 -2.40421 2.94921 0
M  V30 28 H 3.1501 -0.78983 3.79978 0
M  V30 29 H 1.2511 -2.83329 2.41983 0
M  V30 30 H 1.3641 -2.27142 4.21833 0
M  V30 31 H -0.2719 -1.29186 2.19506 0
M  V30 32 H 0.5111 -0.164528 3.42906 0
M  V30 33 N 2.9562 -1.48159 -0.537278 0
M  V30 34 C 4.2332 -1.46291 -1.29839 0
M  V30 35 C 4.6132 -0.170613 -2.10409 0
M  V30 36 O 3.9612 0.847746 -2.12192 0
M  V30 37 C 4.1712 -2.72055 -2.18603 0
M  V30 38 C 5.5192 -3.20087 -2.7898 0
M  V30 39 O 6.5432 -2.72921 -2.28894 0
M  V30 40 O 5.4022 -4.02138 -3.70064 0
M  V30 41 H 2.4962 -0.583906 -0.585647 0
M  V30 42 H 5.0422 -1.60384 -0.554534 0
M  V30 43 H 3.8142 -3.57628 -1.58801 0
M  V30 44 H 3.4372 -2.60646 -3.00249 0
M  V30 45 N 4.4343 0.785586 -1.36625 0
M  V30 46 C 5.3443 1.92964 -1.33425 0
M  V30 47 C 6.3603 1.72394 -0.235851 0
M  V30 48 O 7.5363 1.95866 -0.468878 0
M  V30 49 C 4.6013 3.27884 -1.12662 0
M  V30 50 C 3.6623 3.61204 -2.32013 0
M  V30 51 C 2.8953 4.89687 -2.12231 0
M  V30 52 O 3.1183 5.59704 -1.09945 0
M  V30 53 O 2.0523 5.21752 -3.00098 0
M  V30 54 H 5.8783 1.98613 -2.29753 0
M  V30 55 H 3.4633 0.926384 -1.17211 0
M  V30 56 H 5.3453 4.08614 -1.03016 0
M  V30 57 H 4.0203 3.23118 -0.193991 0
M  V30 58 H 2.9273 2.80765 -2.47228 0
M  V30 59 H 4.2603 3.70698 -3.23796 0
M  V30 60 N 5.9124 1.20967 1.01018 0
M  V30 61 C 6.8604 0.961223 2.1181 0
M  V30 62 C 7.8544 -0.0897034 1.69162 0
M  V30 63 O 9.0604 0.0612271 1.79896 0
M  V30 64 H 5.4354 0.29355 0.692338 0
M  V30 65 H 7.4064 1.90178 2.29946 0
M  V30 66 C 6.1554 0.536854 3.4353 0
M  V30 67 H 5.4784 1.33713 3.76777 0
M  V30 68 H 6.9184 0.402286 4.22087 0
M  V30 69 C 5.3774 -0.751574 3.2841 0
M  V30 70 O 5.9074 -1.80841 3.58691 0
M  V30 71 N 4.1134 -0.716079 2.81639 0
M  V30 72 H 3.6604 0.144236 2.57196 0
M  V30 73 H 3.6184 -1.57847 2.71904 0
M  V30 74 N 7.3905 -1.2043 1.01659 0
M  V30 75 C 8.6395 -1.89118 0.701237 0
M  V30 76 C 8.9525 -1.79705 -0.772358 0
M  V30 77 O 10.1585 -2.43528 -1.20026 0
M  V30 78 C 8.6145 -3.39168 1.20388 0
M  V30 79 C 8.2225 -3.57166 2.70438 0
M  V30 80 C 9.9665 -4.1341 0.963953 0
M  V30 81 C 7.8735 -5.01042 3.14183 0
M  V30 82 H 6.8035 -0.708267 0.2586 0
M  V30 83 H 9.4545 -1.36239 1.22927 0
M  V30 84 H 7.8365 -3.91369 0.603824 0
M  V30 85 H 9.0105 -3.15351 3.35992 0
M  V30 86 H 7.3255 -2.96294 2.92572 0
M  V30 87 H 9.9225 -5.19491 1.26621 0
M  V30 88 H 10.2655 -4.16181 -0.099578 0
M  V30 89 H 10.7985 -3.67309 1.52738 0
M  V30 90 H 7.5375 -5.03426 4.19812 0
M  V30 91 H 7.0575 -5.43668 2.53348 0
M  V30 92 H 8.7365 -5.69623 3.0682 0
M  V30 93 N 8.8686 -0.792821 -1.36206 0
M  V30 94 C 10.1156 -0.366786 -1.99151 0
M  V30 95 C 10.4436 1.06243 -1.62919 0
M  V30 96 O 9.6986 1.74927 -0.877442 0
M  V30 97 C 9.9976 -0.481501 -3.54142 0
M  V30 98 C 9.6636 -1.87202 -4.10203 0
M  V30 99 C 8.3256 -2.25248 -4.25226 0
M  V30 100 C 10.6776 -2.78237 -4.40719 0
M  V30 101 C 8.0056 -3.53723 -4.68078 0
M  V30 102 C 10.3576 -4.06144 -4.85005 0
M  V30 103 C 9.0216 -4.44207 -4.98234 0
M  V30 104 H 8.2916 -0.134217 -0.728743 0
M  V30 105 H 10.9386 -1.01094 -1.62641 0
M  V30 106 H 9.2436 0.246146 -3.91026 0
M  V30 107 H 10.9406 -0.132844 -4.0078 0
M  V30 108 H 7.5306 -1.56639 -3.98951 0
M  V30 109 H 11.7146 -2.50097 -4.28679 0
M  V30 110 H 6.9706 -3.8308 -4.76508 0
M  V30 111 H 11.1446 -4.76796 -5.07581 0
M  V30 112 H 8.7716 -5.43814 -5.31197 0
M  V30 113 N 10.3467 1.47872 -0.545128 0
M  V30 114 C 11.2767 2.32661 0.197793 0
M  V30 115 C 12.2577 1.43041 0.920504 0
M  V30 116 O 13.4427 1.71912 0.90333 0
M  V30 117 C 10.5727 3.24569 1.23582 0
M  V30 118 C 9.5267 4.23333 0.630323 0
M  V30 119 C 8.8527 5.0448 1.77211 0
M  V30 120 C 10.1527 5.20704 -0.407974 0
M  V30 121 H 11.8467 2.95024 -0.510045 0
M  V30 122 H 9.3927 1.4187 -0.246731 0
M  V30 123 H 11.3457 3.8272 1.76362 0
M  V30 124 H 10.0697 2.60236 1.97344 0
M  V30 125 H 8.7287 3.6639 0.123922 0
M  V30 126 H 8.3767 4.36561 2.49847 0
M  V30 127 H 8.0767 5.71339 1.37281 0
M  V30 128 H 9.6007 5.65487 2.3034 0
M  V30 129 H 11.0147 5.7329 0.033305 0
M  V30 130 H 9.4117 5.95699 -0.725486 0
M  V30 131 H 10.4817 4.66917 -1.30828 0
M  V30 132 N 11.8248 0.280983 1.55075 0
M  V30 133 C 13.0718 -0.334115 1.99725 0
M  V30 134 C 13.3998 -1.5542 1.1694 0
M  V30 135 O 12.6548 -1.94361 0.228531 0
M  V30 136 C 12.9538 -0.754656 3.49342 0
M  V30 137 C 12.6198 0.361445 4.49449 0
M  V30 138 C 11.2818 0.667893 4.76542 0
M  V30 139 C 13.6338 1.11322 5.09173 0
M  V30 140 C 10.9618 1.7296 5.60626 0
M  V30 141 C 13.3138 2.1647 5.9441 0
M  V30 142 C 11.9778 2.47742 6.19822 0
M  V30 143 H 11.2478 -0.122261 0.730844 0
M  V30 144 H 13.8948 0.395917 1.87363 0
M  V30 145 H 12.1998 -1.56446 3.5921 0
M  V30 146 H 13.8968 -1.24142 3.813 0
M  V30 147 H 10.4868 0.112481 4.28452 0
M  V30 148 H 14.6708 0.88973 4.8826 0
M  V30 149 H 9.9268 1.97684 5.78559 0
M  V30 150 H 14.1008 2.75193 6.3972 0
M  V30 151 H 11.7278 3.30145 6.84769 0
M  V30 152 N 13.3029 -1.57598 0.00835791 0
M  V30 153 C 14.5489 -1.91211 -0.675732 0
M  V30 154 C 14.8819 -0.883139 -1.72958 0
M  V30 155 O 14.1569 0.097016 -1.94258 0
M  V30 156 C 14.4399 -3.35379 -1.31123 0
M  V30 157 C 14.2929 -4.48999 -0.268356 0
M  V30 158 C 15.6119 -3.7912 -2.23508 0
M  V30 159 H 12.7309 -0.695374 -0.244179 0
M  V30 160 H 15.3729 -1.89901 0.0613655 0
M  V30 161 H 13.5229 -3.36626 -1.93946 0
M  V30 162 H 15.1949 -4.59887 0.360844 0
M  V30 163 H 13.4379 -4.31873 0.408482 0
M  V30 164 H 14.1089 -5.46851 -0.752218 0
M  V30 165 H 16.5849 -3.79477 -1.70693 0
M  V30 166 H 15.4609 -4.80729 -2.64936 0
M  V30 167 H 15.7219 -3.13455 -3.11766 0
M  V30 168 N 14.781 0.264519 -1.55364 0
M  V30 169 C 16.192 0.834936 -1.6699 0
M  V30 170 C 16.543 1.86718 -0.602552 0
M  V30 171 O 15.668 2.14899 0.254425 0
M  V30 172 C 16.263 1.5212 -3.02729 0
M  V30 173 C 14.822 2.03954 -3.16354 0
M  V30 174 C 13.969 0.884498 -2.62815 0
M  V30 175 H 16.92 0.0406869 -1.58648 0
M  V30 176 H 16.941 2.38853 -2.96191 0
M  V30 177 H 16.453 0.769668 -3.80392 0
M  V30 178 H 14.554 2.82041 -2.43482 0
M  V30 179 H 14.667 2.24902 -4.23032 0
M  V30 180 H 13.031 1.2802 -2.20188 0
M  V30 181 H 13.814 0.14634 -3.42988 0
M  V30 182 N 16.2591 1.48442 0.529413 0
M  V30 183 C 17.2071 1.63452 1.65487 0
M  V30 184 C 18.2011 0.500955 1.61823 0
M  V30 185 O 19.4071 0.679695 1.66674 0
M  V30 186 H 15.7821 0.514905 0.548066 0
M  V30 187 H 17.7531 2.57975 1.49971 0
M  V30 188 C 16.5021 1.69196 3.03756 0
M  V30 189 H 15.8251 2.55784 3.07269 0
M  V30 190 H 17.2651 1.83743 3.82119 0
M  V30 191 C 15.7241 0.430765 3.34135 0
M  V30 192 O 16.2541 -0.4561 3.99102 0
M  V30 193 N 14.4601 0.302293 2.89023 0
M  V30 194 H 14.0071 1.02496 2.36331 0
M  V30 195 H 13.9651 -0.540546 3.09718 0
M  V30 196 N 17.7372 -0.778329 1.37039 0
M  V30 197 C 18.6672 -1.90546 1.34962 0
M  V30 198 C 19.6482 -1.68681 0.219274 0
M  V30 199 O 20.8332 -1.89634 0.418624 0
M  V30 200 C 17.9632 -3.27734 1.14925 0
M  V30 201 C 16.9172 -3.64147 2.24902 0
M  V30 202 C 16.2432 -4.99806 1.89996 0
M  V30 203 C 17.5432 -3.71579 3.67051 0
M  V30 204 H 19.2372 -1.92541 2.29277 0
M  V30 205 H 16.7832 -0.924948 1.10366 0
M  V30 206 H 18.7362 -4.06215 1.12104 0
M  V30 207 H 17.4602 -3.26154 0.170631 0
M  V30 208 H 16.1192 -2.8797 2.26868 0
M  V30 209 H 15.7672 -4.94759 0.906796 0
M  V30 210 H 15.4672 -5.25139 2.63634 0
M  V30 211 H 16.9912 -5.80694 1.88749 0
M  V30 212 H 18.4052 -4.40227 3.67251 0
M  V30 213 H 16.8022 -4.08405 4.39688 0
M  V30 214 H 17.8722 -2.72404 4.01154 0
M  V30 215 N 19.2153 -1.21501 -1.00376 0
M  V30 216 C 20.4643 -1.02718 -1.73586 0
M  V30 217 C 20.7773 0.439589 -1.90596 0
M  V30 218 O 21.9833 0.746848 -2.61026 0
M  V30 219 C 20.4393 -1.78929 -3.1227 0
M  V30 220 C 20.0473 -3.29783 -3.03228 0
M  V30 221 C 21.7913 -1.68557 -3.89601 0
M  V30 222 C 19.6983 -3.98479 -4.36999 0
M  V30 223 H 18.6283 -0.380733 -0.650814 0
M  V30 224 H 21.2793 -1.45248 -1.1214 0
M  V30 225 H 19.6613 -1.29192 -3.74333 0
M  V30 226 H 20.8353 -3.86832 -2.50395 0
M  V30 227 H 19.1503 -3.40711 -2.39385 0
M  V30 228 H 21.7473 -2.17211 -4.88593 0
M  V30 229 H 22.0903 -0.644021 -4.11288 0
M  V30 230 H 22.6233 -2.15778 -3.34193 0
M  V30 231 H 19.3623 -5.02841 -4.20513 0
M  V30 232 H 18.8823 -3.46219 -4.89788 0
M  V30 233 H 20.5613 -4.03462 -5.05794 0
M  V30 234 N 20.6934 1.19889 -1.02296 0
M  V30 235 C 21.9414 1.89046 -0.714558 0
M  V30 236 C 22.2624 1.79636 0.758681 0
M  V30 237 O 21.5324 1.20292 1.54618 0
M  V30 238 H 20.1124 0.699802 -0.261317 0
M  V30 239 H 22.7744 1.45574 -1.29592 0
M  V30 240 H 21.8704 2.95524 -1.0036 0
M  V30 241 N 22.1715 0.800033 1.35784 0
M  V30 242 C 23.4015 0.389041 2.02904 0
M  V30 243 C 23.8095 -1.0027 1.60445 0
M  V30 244 O 23.1525 -1.65633 0.794453 0
M  V30 245 C 23.2145 0.385495 3.57427 0
M  V30 246 C 22.8785 1.72662 4.23127 0
M  V30 247 C 23.8755 2.68385 4.4527 0
M  V30 248 C 21.5605 2.00883 4.60381 0
M  V30 249 C 23.5545 3.90517 5.03761 0
M  V30 250 C 21.2415 3.2328 5.18588 0
M  V30 251 C 22.2395 4.17915 5.40218 0
M  V30 252 O 21.9275 5.38153 5.97199 0
M  V30 253 H 21.6595 0.157032 0.657508 0
M  V30 254 H 24.2135 1.08311 1.74522 0
M  V30 255 H 22.4435 -0.365128 3.84972 0
M  V30 256 H 24.1325 -0.00228296 4.059 0
M  V30 257 H 24.8985 2.47872 4.16874 0
M  V30 258 H 20.7775 1.28037 4.42863 0
M  V30 259 H 24.3215 4.64395 5.2056 0
M  V30 260 H 20.2185 3.43667 5.4641 0
M  V30 261 H 20.9865 5.3936 6.15656 0
M  V30 262 N 23.6496 -1.47581 0.552962 0
M  V30 263 C 24.6126 -2.28439 -0.186605 0
M  V30 264 C 25.6126 -1.36706 -0.84665 0
M  V30 265 O 26.8026 -1.59378 -0.703164 0
M  V30 266 C 23.9346 -3.16264 -1.2724 0
M  V30 267 H 25.1276 -2.95294 0.523609 0
M  V30 268 H 22.6806 -1.532 0.309745 0
M  V30 269 H 23.4156 -2.54091 -2.01514 0
M  V30 270 H 23.2006 -3.83769 -0.803968 0
M  V30 271 H 24.6906 -3.77198 -1.79196 0
M  V30 272 N 25.1277 -0.289203 -1.54924 0
M  V30 273 C 26.5437 0.0645403 -1.59469 0
M  V30 274 C 26.7437 1.53419 -1.30632 0
M  V30 275 O 25.7997 2.2852 -1.074 0
M  V30 276 C 27.1127 -0.32278 -2.98963 0
M  V30 277 C 28.6607 -0.270564 -3.11828 0
M  V30 278 C 29.1357 -0.632532 -4.53611 0
M  V30 279 N 30.6267 -0.584617 -4.59496 0
M  V30 280 C 31.3617 -0.837314 -5.67254 0
M  V30 281 N 30.8577 -1.15536 -6.83098 0
M  V30 282 N 32.6507 -0.765166 -5.56868 0
M  V30 283 H 24.8017 -1.24714 -1.71931 0
M  V30 284 H 27.0647 -0.504809 -0.802416 0
M  V30 285 H 26.7707 -1.34541 -3.24948 0
M  V30 286 H 26.6447 0.32944 -3.75759 0
M  V30 287 H 29.0317 0.742805 -2.85598 0
M  V30 288 H 29.1127 -0.957242 -2.37214 0
M  V30 289 H 28.7567 -1.64365 -4.80569 0
M  V30 290 H 28.6867 0.07609 -5.26545 0
M  V30 291 H 31.1777 -0.349248 -3.76283 0
M  V30 292 H 31.4907 -1.33447 -7.61191 0
M  V30 293 H 29.8357 -1.19328 -6.84679 0
M  V30 294 H 33.0267 -0.516432 -4.65243 0
M  V30 295 H 33.1997 -0.965477 -6.40767 0
M  V30 296 N 26.6058 1.57591 -0.0167156 0
M  V30 297 C 27.8548 1.90461 0.663877 0
M  V30 298 C 28.1678 0.893515 1.73999 0
M  V30 299 O 29.3738 1.11302 2.47637 0
M  V30 300 C 27.8298 3.38155 1.23204 0
M  V30 301 C 27.4378 4.47597 0.189866 0
M  V30 302 C 29.1818 3.80111 1.88986 0
M  V30 303 C 27.0888 5.86379 0.768964 0
M  V30 304 H 26.0188 0.710738 0.251729 0
M  V30 305 H 28.6698 1.83326 -0.0799926 0
M  V30 306 H 27.0518 3.40182 2.02712 0
M  V30 307 H 28.2258 4.57112 -0.581846 0
M  V30 308 H 26.5408 4.14766 -0.368475 0
M  V30 309 H 29.1378 4.81145 2.33247 0
M  V30 310 H 29.4808 3.14511 2.72743 0
M  V30 311 H 30.0138 3.80454 1.16187 0
M  V30 312 H 26.7528 6.55493 -0.0301957 0
M  V30 313 H 26.2728 5.80496 1.50945 0
M  V30 314 H 27.9518 6.34563 1.26251 0
M  V30 315 N 28.0839 -0.256276 1.55502 0
M  V30 316 C 29.3299 -0.987079 1.77157 0
M  V30 317 C 29.6629 -1.85327 0.580315 0
M  V30 318 O 28.9379 -1.89874 -0.421686 0
M  V30 319 C 29.2209 -1.85553 3.08613 0
M  V30 320 C 29.0739 -1.01816 4.38125 0
M  V30 321 C 30.3929 -2.8397 3.36228 0
M  V30 322 H 27.5119 -0.357428 0.644526 0
M  V30 323 H 30.1539 -0.258239 1.88237 0
M  V30 324 H 28.3039 -2.47695 2.99298 0
M  V30 325 H 29.9759 -0.416159 4.59419 0
M  V30 326 H 28.2189 -0.322178 4.32602 0
M  V30 327 H 28.8899 -1.65939 5.26468 0
M  V30 328 H 31.3659 -2.31964 3.45445 0
M  V30 329 H 30.2419 -3.41864 4.29442 0
M  V30 330 H 30.5029 -3.59955 2.56681 0
M  V30 331 N 29.562 -1.4872 -0.521534 0
M  V30 332 C 30.809 -1.57168 -1.27689 0
M  V30 333 C 31.137 -0.249275 -1.92896 0
M  V30 334 O 30.392 0.761162 -1.80291 0
M  V30 335 C 30.691 -2.66497 -2.38148 0
M  V30 336 C 30.357 -4.08664 -1.90538 0
M  V30 337 C 29.019 -4.47357 -1.77271 0
M  V30 338 C 31.371 -4.97724 -1.54663 0
M  V30 339 C 28.699 -5.72905 -1.26478 0
M  V30 340 C 31.051 -6.2377 -1.05329 0
M  V30 341 C 29.715 -6.61311 -0.906861 0
M  V30 342 H 28.985 -0.575117 -0.467249 0
M  V30 343 H 31.632 -1.82472 -0.581051 0
M  V30 344 H 29.937 -2.35085 -3.13437 0
M  V30 345 H 31.634 -2.70246 -2.96257 0
M  V30 346 H 28.224 -3.78111 -2.01816 0
M  V30 347 H 32.408 -4.68501 -1.63768 0
M  V30 348 H 27.664 -6.00709 -1.13835 0
M  V30 349 H 31.838 -6.9217 -0.76644 0
M  V30 350 H 29.465 -7.5848 -0.511083 0
M  V30 351 N 31.0401 0.771051 -1.3745 0
M  V30 352 C 32.0031 1.86598 -1.33093 0
M  V30 353 C 33.0031 1.59076 -0.234845 0
M  V30 354 O 34.1931 1.67145 -0.490732 0
M  V30 355 C 31.3251 3.23747 -1.06773 0
M  V30 356 H 32.5181 1.91873 -2.30488 0
M  V30 357 H 30.0711 0.970876 -1.2249 0
M  V30 358 H 30.8061 3.24148 -0.099129 0
M  V30 359 H 30.5911 3.45115 -1.86112 0
M  V30 360 H 32.0811 4.03824 -1.06377 0
M  V30 361 N 32.5182 1.22032 0.997298 0
M  V30 362 C 33.7672 1.03637 1.73038 0
M  V30 363 C 34.0802 -0.429475 1.90827 0
M  V30 364 O 35.2862 -0.732995 2.61418 0
M  V30 365 C 33.7422 1.80582 3.11317 0
M  V30 366 C 33.3502 3.31387 3.01474 0
M  V30 367 C 35.0942 1.70621 3.88701 0
M  V30 368 C 33.0012 4.00791 4.3488 0
M  V30 369 H 31.9312 0.384179 0.648785 0
M  V30 370 H 34.5822 1.4584 1.11368 0
M  V30 371 H 32.9642 1.31175 3.73643 0
M  V30 372 H 34.1382 3.88155 2.4834 0
M  V30 373 H 32.4532 3.41976 2.37575 0
M  V30 374 H 35.0502 2.19799 4.87434 0
M  V30 375 H 35.3932 0.665823 4.10941 0
M  V30 376 H 35.9262 2.17547 3.33044 0
M  V30 377 H 32.6652 5.05064 4.1784 0
M  V30 378 H 32.1852 3.48811 4.87945 0
M  V30 379 H 33.8642 4.06139 5.03647 0
M  V30 380 N 33.9963 -1.19345 1.0293 0
M  V30 381 C 35.2453 -1.88363 0.721256 0
M  V30 382 C 35.5583 -1.80514 -0.753254 0
M  V30 383 O 36.7643 -2.44788 -1.17436 0
M  V30 384 C 35.2203 -3.37872 1.23978 0
M  V30 385 C 34.8283 -3.54278 2.74211 0
M  V30 386 C 36.5723 -4.12365 1.00775 0
M  V30 387 C 34.4793 -4.97682 3.19479 0
M  V30 388 H 33.4093 -0.705484 0.266098 0
M  V30 389 H 36.0603 -1.34928 1.24365 0
M  V30 390 H 34.4423 -3.90707 0.6453 0
M  V30 391 H 35.6163 -3.11769 3.39318 0
M  V30 392 H 33.9313 -2.93174 2.95699 0
M  V30 393 H 36.5283 -5.18119 1.32123 0
M  V30 394 H 36.8713 -4.16263 -0.0554308 0
M  V30 395 H 37.4043 -3.65668 1.56625 0
M  V30 396 H 34.1433 -4.98945 4.25128 0
M  V30 397 H 33.6633 -5.4095 2.591 0
M  V30 398 H 35.3423 -5.66337 3.12845 0
M  V30 399 N 35.4744 -0.807222 -1.35358 0
M  V30 400 C 36.6994 -0.399309 -2.0352 0
M  V30 401 C 37.1244 0.981986 -1.60433 0
M  V30 402 O 36.4824 1.63601 -0.781299 0
M  V30 403 C 36.5304 -0.491552 -3.57234 0
M  V30 404 O 35.6344 0.494754 -4.09421 0
M  V30 405 H 34.9754 -0.166682 -0.642739 0
M  V30 406 H 37.5054 -1.09328 -1.72941 0
M  V30 407 H 37.5154 -0.361588 -4.06395 0
M  V30 408 H 36.1904 -1.49907 -3.87944 0
M  V30 409 H 34.7674 0.324977 -3.71481 0
M  V30 410 N 36.9525 1.47285 -0.560781 0
M  V30 411 C 38.1995 2.02464 -0.038062 0
M  V30 412 C 38.5275 1.43474 1.31322 0
M  V30 413 O 37.7825 0.581311 1.86867 0
M  V30 414 C 38.0815 3.57258 0.100784 0
M  V30 415 C 37.7475 4.35184 -1.18007 0
M  V30 416 C 36.4095 4.56194 -1.53103 0
M  V30 417 C 38.7615 4.80098 -2.02867 0
M  V30 418 C 36.0895 5.19367 -2.729 0
M  V30 419 C 38.4415 5.44593 -3.21871 0
M  V30 420 C 37.1055 5.63835 -3.57276 0
M  V30 421 H 36.3755 0.740869 -0.0139279 0
M  V30 422 H 39.0225 1.76916 -0.733012 0
M  V30 423 H 37.3275 3.81819 0.878724 0
M  V30 424 H 39.0245 3.97606 0.520639 0
M  V30 425 H 35.6145 4.19113 -0.8968 0
M  V30 426 H 39.7985 4.63642 -1.7706 0
M  V30 427 H 35.0545 5.32459 -3.00496 0
M  V30 428 H 39.2285 5.78358 -3.87911 0
M  V30 429 H 36.8555 6.12557 -4.50197 0
M  V30 430 N 38.4306 0.297415 1.54768 0
M  V30 431 C 39.6606 -0.315165 2.04182 0
M  V30 432 C 40.0686 -1.4834 1.17439 0
M  V30 433 O 39.4116 -1.82695 0.191891 0
M  V30 434 C 39.4736 -0.837583 3.49607 0
M  V30 435 C 39.1376 0.204912 4.5654 0
M  V30 436 C 40.1346 1.03214 5.09552 0
M  V30 437 C 37.8196 0.345578 5.0111 0
M  V30 438 C 39.8136 1.986 6.05671 0
M  V30 439 C 37.5006 1.30289 5.97049 0
M  V30 440 C 38.4986 2.12159 6.49213 0
M  V30 441 O 38.1866 3.06268 7.43273 0
M  V30 442 H 37.9186 -0.0729646 0.672051 0
M  V30 443 H 40.4726 0.433907 2.00765 0
M  V30 444 H 38.7026 -1.63712 3.50336 0
M  V30 445 H 40.3916 -1.36566 3.82236 0
M  V30 446 H 41.1576 0.934312 4.75916 0
M  V30 447 H 37.0366 -0.28171 4.60138 0
M  V30 448 H 40.5806 2.62542 6.46311 0
M  V30 449 H 36.4776 1.40145 6.30103 0
M  V30 450 H 37.2456 3.01205 7.61064 0
M  V30 451 N 39.9087 -1.5758 0.0250728 0
M  V30 452 C 41.1557 -1.91633 -0.654444 0
M  V30 453 C 41.4837 -0.901103 -1.72367 0
M  V30 454 O 40.7387 0.0905647 -1.9549 0
M  V30 455 C 41.0377 -3.32421 -1.31268 0
M  V30 456 C 40.7037 -4.49344 -0.374223 0
M  V30 457 C 39.3657 -4.8106 -0.115911 0
M  V30 458 C 41.7177 -5.20498 0.270432 0
M  V30 459 C 39.0457 -5.8129 0.79493 0
M  V30 460 C 41.3977 -6.21699 1.1693 0
M  V30 461 C 40.0617 -6.51859 1.43655 0
M  V30 462 H 39.3317 -0.701236 -0.239478 0
M  V30 463 H 41.9787 -1.91307 0.0859734 0
M  V30 464 H 40.2837 -3.28989 -2.12775 0
M  V30 465 H 41.9807 -3.56038 -1.84494 0
M  V30 466 H 38.5707 -4.24579 -0.58573 0
M  V30 467 H 42.7547 -4.96229 0.0839194 0
M  V30 468 H 38.0107 -6.03005 1.00973 0
M  V30 469 H 42.1847 -6.75955 1.67504 0
M  V30 470 H 39.8117 -7.2934 2.144 0
M  V30 471 N 41.3868 0.248026 -1.55636 0
M  V30 472 C 42.3198 1.3334 -1.85191 0
M  V30 473 C 43.2978 1.46429 -0.706906 0
M  V30 474 O 44.4818 1.62662 -0.952544 0
M  V30 475 C 41.6088 2.70703 -2.03562 0
M  V30 476 C 40.6548 2.7477 -3.26196 0
M  V30 477 S 41.4878 2.31493 -4.82878 0
M  V30 478 C 42.6438 3.70783 -5.04253 0
M  V30 479 H 42.8768 1.08072 -2.76962 0
M  V30 480 H 40.4098 0.448952 -1.47729 0
M  V30 481 H 42.3678 3.49798 -2.1483 0
M  V30 482 H 41.0288 2.9321 -1.12635 0
M  V30 483 H 40.2218 3.75648 -3.36013 0
M  V30 484 H 39.8238 2.03719 -3.13647 0
M  V30 485 H 42.1158 4.6627 -4.91527 0
M  V30 486 H 43.0588 3.65901 -6.06236 0
M  V30 487 H 43.4668 3.63244 -4.32105 0
M  V30 488 N 42.8649 1.48995 0.513639 0
M  V30 489 C 44.2759 1.5119 1.09537 0
M  V30 490 C 44.6269 0.290906 1.94031 0
M  V30 491 O 43.7519 -0.60049 2.07902 0
M  V30 492 C 44.3469 2.73964 1.99322 0
M  V30 493 C 42.9059 2.78978 2.52682 0
M  V30 494 C 42.0529 2.44934 1.30009 0
M  V30 495 H 45.0039 1.55875 0.298125 0
M  V30 496 H 45.0249 2.53409 2.83838 0
M  V30 497 H 44.5369 3.62813 1.37799 0
M  V30 498 H 42.6379 1.94378 3.1788 0
M  V30 499 H 42.7509 3.8083 2.90698 0
M  V30 500 H 41.1149 1.9644 1.62122 0
M  V30 501 H 41.8979 3.36043 0.702131 0
M  V30 502 N 44.343 -0.763751 1.37857 0
M  V30 503 C 45.583 -1.53551 1.34913 0
M  V30 504 C 45.947 -1.91895 -0.0635882 0
M  V30 505 O 47.148 -2.67916 -0.217825 0
M  V30 506 C 45.419 -2.76126 2.26912 0
M  V30 507 S 46.978 -3.66105 2.41893 0
M  V30 508 H 43.796 -0.52559 0.478828 0
M  V30 509 H 46.398 -0.897435 1.73685 0
M  V30 510 H 45.102 -2.4605 3.28463 0
M  V30 511 H 44.633 -3.44887 1.89253 0
M  V30 512 H 46.648 -4.68473 1.63545 0
M  V30 513 N 45.8211 -1.22559 -0.990812 0
M  V30 514 C 47.0611 -1.06302 -1.74583 0
M  V30 515 C 47.4251 0.394737 -1.87898 0
M  V30 516 O 48.6261 0.678214 -2.60103 0
M  V30 517 C 46.8971 -1.75699 -3.11231 0
M  V30 518 S 48.4561 -1.74882 -4.02445 0
M  V30 519 H 45.2741 -0.380639 -0.600529 0
M  V30 520 H 47.8761 -1.55532 -1.18449 0
M  V30 521 H 46.5801 -2.80923 -2.99183 0
M  V30 522 H 46.1111 -1.26708 -3.72436 0
M  V30 523 H 48.1261 -0.799997 -4.89709 0
M  V30 524 N 47.2992 1.18797 -1.03562 0
M  V30 525 C 48.7102 1.70322 -0.764676 0
M  V30 526 C 49.0612 1.82708 0.714996 0
M  V30 527 O 48.1862 1.50299 1.55689 0
M  V30 528 C 48.7812 3.09356 -1.38145 0
M  V30 529 C 47.3402 3.58114 -1.15895 0
M  V30 530 C 46.4872 2.34798 -1.4753 0
M  V30 531 H 49.4382 1.03543 -1.20268 0
M  V30 532 H 49.4592 3.72378 -0.781977 0
M  V30 533 H 48.9712 3.00309 -2.45837 0
M  V30 534 H 47.0722 3.72464 -0.100544 0
M  V30 535 H 47.1852 4.4184 -1.8524 0
M  V30 536 H 45.5492 2.38464 -0.894829 0
M  V30 537 H 46.3322 2.28375 -2.56319 0
M  V30 538 N 48.7773 0.814389 1.34928 0
M  V30 539 C 49.7073 0.244827 2.32213 0
M  V30 540 C 50.6883 -0.634024 1.57842 0
M  V30 541 O 51.8733 -0.562676 1.8587 0
M  V30 542 C 49.0033 -0.601106 3.42058 0
M  V30 543 C 47.9573 0.179896 4.27622 0
M  V30 544 C 47.2833 -0.788237 5.28858 0
M  V30 545 C 48.5833 1.38329 5.03649 0
M  V30 546 H 50.2773 1.05763 2.80097 0
M  V30 547 H 47.8233 0.510029 1.34665 0
M  V30 548 H 49.7763 -1.00968 4.09125 0
M  V30 549 H 48.5003 -1.44688 2.92802 0
M  V30 550 H 47.1593 0.569739 3.62146 0
M  V30 551 H 46.8073 -1.62973 4.75866 0
M  V30 552 H 46.5073 -0.269942 5.8698 0
M  V30 553 H 48.0313 -1.19485 5.98795 0
M  V30 554 H 49.4453 1.04918 5.63618 0
M  V30 555 H 47.8423 1.83662 5.71304 0
M  V30 556 H 48.9123 2.16592 4.33839 0
M  V30 557 N 50.2554 -1.46986 0.568584 0
M  V30 558 C 51.4834 -2.0683 0.0539956 0
M  V30 559 C 51.8984 -1.41953 -1.24478 0
M  V30 560 O 51.2554 -0.519933 -1.74937 0
M  V30 561 C 51.3064 -3.61254 -0.133362 0
M  V30 562 O 51.0274 -4.237 1.11399 0
M  V30 563 C 52.5284 -4.37992 -0.683927 0
M  V30 564 H 49.7484 -0.669058 0.0510141 0
M  V30 565 H 52.2924 -1.88824 0.785234 0
M  V30 566 H 50.4474 -3.78735 -0.81477 0
M  V30 567 H 50.8614 -5.16388 0.91888 0
M  V30 568 H 52.3354 -5.46684 -0.764263 0
M  V30 569 H 52.8124 -4.05058 -1.69778 0
M  V30 570 H 53.4184 -4.25283 -0.0378494 0
M  V30 571 N 51.7335 -0.305618 -1.54608 0
M  V30 572 C 52.6965 0.555591 -2.22364 0
M  V30 573 C 53.6965 1.05768 -1.21119 0
M  V30 574 O 54.8865 0.952972 -1.45822 0
M  V30 575 C 52.0185 1.76974 -2.91364 0
M  V30 576 H 53.2115 -0.0364572 -2.99878 0
M  V30 577 H 50.7645 -0.0565007 -1.56198 0
M  V30 578 H 51.4995 2.40151 -2.17941 0
M  V30 579 H 51.2845 1.41732 -3.65588 0
M  V30 580 H 52.7745 2.38148 -3.43038 0
M  V30 581 N 53.2116 1.57565 -0.0334293 0
M  V30 582 C 54.4366 1.96689 0.657895 0
M  V30 583 C 54.8616 0.910057 1.64619 0
M  V30 584 O 54.2196 -0.128598 1.80843 0
M  V30 585 C 54.2676 3.34905 1.33683 0
M  V30 586 O 53.3716 3.31574 2.45219 0
M  V30 587 H 52.7126 0.641205 0.172489 0
M  V30 588 H 55.2426 2.04372 -0.0965621 0
M  V30 589 H 55.2526 3.71234 1.69262 0
M  V30 590 H 53.9276 4.11366 0.612411 0
M  V30 591 H 52.5046 3.06968 2.11719 0
M  V30 592 N 54.6897 -0.239769 1.55765 0
M  V30 593 C 55.9147 -0.988373 1.82335 0
M  V30 594 C 56.3397 -1.77886 0.611421 0
M  V30 595 O 55.6977 -1.75889 -0.439639 0
M  V30 596 C 55.7457 -1.89627 3.06715 0
M  V30 597 O 54.8497 -2.98904 2.84131 0
M  V30 598 H 54.1907 -0.280858 0.601677 0
M  V30 599 H 56.7207 -0.258597 2.02959 0
M  V30 600 H 56.7307 -2.30957 3.36338 0
M  V30 601 H 55.4057 -1.31511 3.9456 0
M  V30 602 H 53.9827 -2.61651 2.65694 0
M  V30 603 N 56.1678 -1.49265 -0.50573 0
M  V30 604 C 57.4148 -1.58513 -1.26015 0
M  V30 605 C 57.7428 -0.26972 -1.92621 0
M  V30 606 O 56.9978 0.741997 -1.81088 0
M  V30 607 C 57.2968 -2.69008 -2.35308 0
M  V30 608 C 56.9628 -4.10662 -1.86192 0
M  V30 609 C 55.6248 -4.49212 -1.72516 0
M  V30 610 C 57.9768 -4.99336 -1.49375 0
M  V30 611 C 55.3048 -5.74214 -1.20394 0
M  V30 612 C 57.6568 -6.24852 -0.987072 0
M  V30 613 C 56.3208 -6.62236 -0.836669 0
M  V30 614 H 55.5908 -0.580041 -0.461122 0
M  V30 615 H 58.2378 -1.83078 -0.561665 0
M  V30 616 H 56.5428 -2.38396 -3.10926 0
M  V30 617 H 58.2398 -2.73373 -2.93374 0
M  V30 618 H 54.8298 -3.8023 -1.97795 0
M  V30 619 H 59.0138 -4.70212 -1.5879 0
M  V30 620 H 54.2698 -6.01883 -1.07458 0
M  V30 621 H 58.4438 -6.92944 -0.692983 0
M  V30 622 H 56.0708 -7.58979 -0.430607 0
M  V30 623 N 57.6459 0.756429 -1.3826 0
M  V30 624 C 58.8759 1.54341 -1.3734 0
M  V30 625 C 59.2839 1.89159 0.0393917 0
M  V30 626 O 58.6269 1.5307 1.01565 0
M  V30 627 C 58.6889 2.87238 -2.16182 0
M  V30 628 C 58.3529 2.74973 -3.65019 0
M  V30 629 C 59.3499 2.44962 -4.58574 0
M  V30 630 C 57.0349 2.92515 -4.08338 0
M  V30 631 C 59.0289 2.32642 -5.93428 0
M  V30 632 C 56.7159 2.79815 -5.43274 0
M  V30 633 C 57.7139 2.49921 -6.35632 0
M  V30 634 O 57.4019 2.37275 -7.68086 0
M  V30 635 H 57.1339 0.484281 -0.471643 0
M  V30 636 H 59.6879 0.944152 -1.82414 0
M  V30 637 H 57.9179 3.49342 -1.65822 0
M  V30 638 H 59.6069 3.48731 -2.07705 0
M  V30 639 H 60.3729 2.31081 -4.26412 0
M  V30 640 H 56.2519 3.14781 -3.368 0
M  V30 641 H 59.7959 2.0923 -6.65484 0
M  V30 642 H 55.6929 2.93269 -5.75034 0
M  V30 643 H 56.4609 2.52509 -7.78577 0
M  V30 644 N 59.124 1.23083 0.984299 0
M  V30 645 C 60.054 1.03292 2.09411 0
M  V30 646 C 61.035 -0.048923 1.7003 0
M  V30 647 O 62.22 0.114967 1.93859 0
M  V30 648 C 59.35 0.619155 3.41736 0
M  V30 649 C 58.304 1.64791 3.95004 0
M  V30 650 C 57.63 1.0897 5.23478 0
M  V30 651 C 58.93 3.03999 4.24714 0
M  V30 652 H 60.624 1.96119 2.26225 0
M  V30 653 H 58.17 0.944344 1.08711 0
M  V30 654 H 60.123 0.467777 4.18796 0
M  V30 655 H 58.847 -0.344786 3.24775 0
M  V30 656 H 57.506 1.78721 3.20085 0
M  V30 657 H 57.154 0.11686 5.02864 0
M  V30 658 H 56.854 1.77704 5.60085 0
M  V30 659 H 58.378 0.950093 6.03163 0
M  V30 660 H 59.792 2.93393 4.92538 0
M  V30 661 H 58.189 3.69936 4.72512 0
M  V30 662 H 59.259 3.53285 3.32142 0
M  V30 663 N 60.6021 -1.18246 1.0419 0
M  V30 664 C 61.5321 -2.24127 0.654914 0
M  V30 665 C 62.5131 -1.66617 -0.342451 0
M  V30 666 O 63.6981 -1.92924 -0.222277 0
M  V30 667 C 60.8281 -3.47295 0.0183757 0
M  V30 668 C 59.7821 -4.17563 0.939414 0
M  V30 669 C 59.1081 -5.34438 0.167286 0
M  V30 670 C 60.4081 -4.70917 2.25908 0
M  V30 671 H 62.1021 -2.56753 1.54007 0
M  V30 672 H 59.6481 -1.23414 0.74195 0
M  V30 673 H 61.6011 -4.20572 -0.264082 0
M  V30 674 H 60.3251 -3.13907 -0.901664 0
M  V30 675 H 58.9841 -3.46186 1.20628 0
M  V30 676 H 58.6321 -4.97298 -0.7552 0
M  V30 677 H 58.3321 -5.82388 0.780901 0
M  V30 678 H 59.8561 -6.10504 -0.108125 0
M  V30 679 H 61.2701 -5.35882 2.03724 0
M  V30 680 H 59.6671 -5.29406 2.82577 0
M  V30 681 H 60.7371 -3.88272 2.9047 0
M  V30 682 N 62.0802 -0.821533 -1.34494 0
M  V30 683 C 63.3052 -0.420873 -2.03085 0
M  V30 684 C 63.7302 0.964915 -1.61465 0
M  V30 685 O 63.0882 1.62763 -0.798607 0
M  V30 686 C 63.1362 -0.529414 -3.56693 0
M  V30 687 O 62.2402 0.451302 -4.09923 0
M  V30 688 H 61.5812 -0.173489 -0.640935 0
M  V30 689 H 64.1112 -1.11157 -1.71771 0
M  V30 690 H 64.1212 -0.404671 -4.05988 0
M  V30 691 H 62.7962 -1.54014 -3.86332 0
M  V30 692 H 61.3732 0.285558 -3.71805 0
M  V30 693 N 63.5583 1.46682 -0.576371 0
M  V30 694 C 64.8063 2.02013 -0.0594163 0
M  V30 695 C 65.1273 1.45101 1.30271 0
M  V30 696 O 64.3973 0.633317 1.8538 0
M  V30 697 H 62.9773 0.746759 -0.0189745 0
M  V30 698 H 65.6393 1.79862 -0.750717 0
M  V30 699 H 64.7353 3.12097 0.014345 0
M  V30 700 N 65.0364 0.313813 1.54444 0
M  V30 701 C 65.9664 -0.549454 2.26943 0
M  V30 702 C 66.9474 -1.12741 1.27372 0
M  V30 703 O 68.1324 -1.15436 1.56167 0
M  V30 704 C 65.2624 -1.71523 3.01989 0
M  V30 705 C 64.2164 -1.26703 4.08816 0
M  V30 706 C 63.5424 -2.51898 4.71647 0
M  V30 707 C 64.8424 -0.388962 5.2085 0
M  V30 708 H 66.5364 0.0552661 2.99349 0
M  V30 709 H 64.0824 0.0280207 1.43973 0
M  V30 710 H 66.0354 -2.32535 3.51433 0
M  V30 711 H 64.7594 -2.34639 2.27183 0
M  V30 712 H 63.4184 -0.679896 3.6024 0
M  V30 713 H 63.0664 -3.13356 3.93468 0
M  V30 714 H 62.7664 -2.22605 5.43802 0
M  V30 715 H 64.2904 -3.1369 5.23861 0
M  V30 716 H 65.7044 -0.905107 5.6611 0
M  V30 717 H 64.1014 -0.18924 5.99802 0
M  V30 718 H 65.1714 0.582699 4.81386 0
M  V30 719 N 66.5145 -1.57545 0.0417849 0
M  V30 720 C 67.4445 -2.14009 -0.933929 0
M  V30 721 C 68.4255 -1.05938 -1.33083 0
M  V30 722 O 69.6105 -1.33833 -1.40721 0
M  V30 723 C 66.7405 -2.67747 -2.21199 0
M  V30 724 C 65.6945 -3.80718 -1.95544 0
M  V30 725 C 65.0205 -4.20935 -3.29724 0
M  V30 726 C 66.3205 -5.06258 -1.28452 0
M  V30 727 H 68.0145 -2.95788 -0.463645 0
M  V30 728 H 65.5605 -1.42285 -0.221573 0
M  V30 729 H 67.5135 -3.05886 -2.89848 0
M  V30 730 H 66.2375 -1.83147 -2.70416 0
M  V30 731 H 64.8965 -3.43037 -1.2931 0
M  V30 732 H 64.5445 -3.33298 -3.76724 0
M  V30 733 H 64.2445 -4.9707 -3.13361 0
M  V30 734 H 65.7685 -4.61666 -3.9962 0
M  V30 735 H 67.1825 -5.41903 -1.8712 0
M  V30 736 H 65.5795 -5.87475 -1.22445 0
M  V30 737 H 66.6495 -4.84207 -0.259219 0
M  V30 738 N 67.9926 0.231505 -1.5589 0
M  V30 739 C 69.2696 0.981096 -1.69215 0
M  V30 740 C 69.6496 2.02799 -0.586164 0
M  V30 741 O 68.9976 2.24823 0.408253 0
M  V30 742 C 69.2076 1.60054 -3.10135 0
M  V30 743 C 70.5556 2.09658 -3.69227 0
M  V30 744 O 71.5796 1.69967 -3.13033 0
M  V30 745 O 70.4386 2.8258 -4.67772 0
M  V30 746 H 67.5326 0.457653 -0.688827 0
M  V30 747 H 70.0786 0.224073 -1.68214 0
M  V30 748 H 68.8506 0.844105 -3.82087 0
M  V30 749 H 68.4736 2.42336 -3.15212 0
M  V30 750 N 69.4707 1.49531 0.497807 0
M  V30 751 C 70.4337 1.65916 1.58128 0
M  V30 752 C 71.4337 0.530825 1.51786 0
M  V30 753 O 72.6237 0.797342 1.54881 0
M  V30 754 C 69.7557 1.65951 2.9778 0
M  V30 755 H 70.9487 2.62556 1.44929 0
M  V30 756 H 68.5017 1.38611 0.722275 0
M  V30 757 H 69.2367 0.709065 3.16453 0
M  V30 758 H 69.0217 2.47897 3.03792 0
M  V30 759 H 70.5117 1.80673 3.76493 0
M  V30 760 N 70.9488 -0.749086 1.3866 0
M  V30 761 C 72.1958 -1.50833 1.35114 0
M  V30 762 C 72.5238 -1.94415 -0.0574049 0
M  V30 763 O 71.7788 -1.66065 -1.03541 0
M  V30 764 C 72.0778 -2.7712 2.25697 0
M  V30 765 C 71.7438 -2.52477 3.73585 0
M  V30 766 C 70.4058 -2.45466 4.13884 0
M  V30 767 C 72.7578 -2.31066 4.67181 0
M  V30 768 C 70.0858 -2.15064 5.45861 0
M  V30 769 C 72.4378 -2.02183 5.9942 0
M  V30 770 C 71.1018 -1.93631 6.38798 0
M  V30 771 H 70.3718 -0.551936 0.494416 0
M  V30 772 H 73.0188 -0.860979 1.71054 0
M  V30 773 H 71.3238 -3.46528 1.82827 0
M  V30 774 H 73.0208 -3.35096 2.20254 0
M  V30 775 H 69.6108 -2.58807 3.41638 0
M  V30 776 H 73.7948 -2.35459 4.3689 0
M  V30 777 H 69.0508 -2.06954 5.75308 0
M  V30 778 H 73.2248 -1.8462 6.71482 0
M  V30 779 H 70.8518 -1.69839 7.40985 0
M  V30 780 N 72.4269 -1.23603 -0.977757 0
M  V30 781 C 73.7039 -0.977897 -1.69401 0
M  V30 782 C 74.0839 0.502738 -2.05026 0
M  V30 783 O 73.4319 1.47459 -1.74551 0
M  V30 784 C 73.6419 -1.89077 -2.93345 0
M  V30 785 C 74.9899 -2.15579 -3.65802 0
M  V30 786 O 76.0139 -1.86648 -3.03383 0
M  V30 787 O 74.8729 -2.64658 -4.78141 0
M  V30 788 H 71.9669 -0.369025 -0.740101 0
M  V30 789 H 74.5129 -1.34657 -1.03274 0
M  V30 790 H 73.2849 -2.89158 -2.63634 0
M  V30 791 H 72.9079 -1.52463 -3.67207 0
M  V30 792 N 73.905 1.17692 -1.04816 0
M  V30 793 C 75.153 1.87488 -0.754497 0
M  V30 794 C 75.474 1.81205 0.720407 0
M  V30 795 O 74.744 1.23544 1.52032 0
M  V30 796 H 73.324 0.694101 -0.276102 0
M  V30 797 H 75.986 1.42793 -1.32651 0
M  V30 798 H 75.082 2.93328 -1.06606 0
M  V30 799 N 75.3831 0.828654 1.34056 0
M  V30 800 C 76.3331 0.226828 2.26869 0
M  V30 801 C 77.3171 -0.612243 1.48796 0
M  V30 802 O 78.5091 -0.465884 1.70759 0
M  V30 803 C 75.6381 -0.605654 3.37915 0
M  V30 804 C 74.7241 0.244361 4.23395 0
M  V30 805 N 75.1151 1.31815 4.88322 0
M  V30 806 C 73.4131 0.0296616 4.4599 0
M  V30 807 C 74.1141 1.83895 5.51867 0
M  V30 808 N 73.0901 1.14196 5.3147 0
M  V30 809 H 76.8921 1.04811 2.74576 0
M  V30 810 H 74.4061 0.67205 1.47842 0
M  V30 811 H 76.4031 -1.05302 4.03382 0
M  V30 812 H 75.0631 -1.42504 2.91758 0
M  V30 813 H 76.0741 1.70099 4.8917 0
M  V30 814 H 72.7511 -0.757097 4.10578 0
M  V30 815 H 74.1411 2.7376 6.136 0
M  V30 816 N 76.8612 -1.46375 0.584142 0
M  V30 817 C 77.8242 -2.28784 -0.138108 0
M  V30 818 C 78.8242 -1.38471 -0.817462 0
M  V30 819 O 80.0142 -1.60833 -0.669199 0
M  V30 820 C 77.1462 -3.18892 -1.20503 0
M  V30 821 H 78.3392 -2.94117 0.586127 0
M  V30 822 H 75.8922 -1.52509 0.342171 0
M  V30 823 H 76.6272 -2.58309 -1.96079 0
M  V30 824 H 76.4122 -3.85388 -0.722384 0
M  V30 825 H 77.9022 -3.80914 -1.71155 0
M  V30 826 N 78.3393 -0.321999 -1.54275 0
M  V30 827 C 79.3023 0.531975 -2.22941 0
M  V30 828 C 80.3023 1.04478 -1.22234 0
M  V30 829 O 81.4923 0.937452 -1.46825 0
M  V30 830 C 78.6243 1.73874 -2.93224 0
M  V30 831 H 79.8173 -0.0682612 -2.99822 0
M  V30 832 H 77.3703 -0.0730644 -1.56129 0
M  V30 833 H 78.1053 2.37825 -2.20476 0
M  V30 834 H 77.8903 1.37847 -3.6707 0
M  V30 835 H 79.3803 2.34496 -3.45545 0
M  V30 836 N 79.8174 1.5752 -0.0501392 0
M  V30 837 C 81.2334 1.56631 0.306402 0
M  V30 838 C 81.4334 1.0577 1.71508 0
M  V30 839 O 80.4894 0.713837 2.422 0
M  V30 840 C 81.8024 3.00393 0.135811 0
M  V30 841 C 83.3504 3.12315 0.206993 0
M  V30 842 C 83.8254 4.57954 0.064944 0
M  V30 843 N 85.3164 4.63041 0.121254 0
M  V30 844 C 86.0514 5.73389 0.0354381 0
M  V30 845 N 85.5474 6.92724 -0.102666 0
M  V30 846 N 87.3404 5.62026 0.090946 0
M  V30 847 H 79.4914 1.88903 -0.971046 0
M  V30 848 H 81.7544 0.869876 -0.376855 0
M  V30 849 H 81.4604 3.41635 -0.835384 0
M  V30 850 H 81.3344 3.66373 0.897275 0
M  V30 851 H 83.7214 2.70973 1.16866 0
M  V30 852 H 83.8024 2.49016 -0.585208 0
M  V30 853 H 83.4464 4.99981 -0.893394 0
M  V30 854 H 83.3764 5.19258 0.876277 0
M  V30 855 H 85.8674 3.77216 0.227284 0
M  V30 856 H 86.1804 7.72633 -0.160882 0
M  V30 857 H 84.5254 6.94864 -0.137737 0
M  V30 858 H 87.7164 4.67684 0.197388 0
M  V30 859 H 87.8894 6.47997 0.0206089 0
M  V30 860 N 81.2955 -0.223234 1.56011 0
M  V30 861 C 82.2585 -1.26014 1.9145 0
M  V30 862 C 83.2585 -1.3989 0.792937 0
M  V30 863 O 84.4485 -1.38184 1.0607 0
M  V30 864 C 81.5805 -2.63422 2.16383 0
M  V30 865 H 82.7735 -0.95796 2.84189 0
M  V30 866 H 80.3265 -0.463576 1.49267 0
M  V30 867 H 81.0615 -2.98741 1.2619 0
M  V30 868 H 80.8465 -2.54728 2.98088 0
M  V30 869 H 82.3365 -3.38249 2.44903 0
M  V30 870 N 82.7736 -1.49793 -0.48987 0
M  V30 871 C 83.7036 -1.70201 -1.59856 0
M  V30 872 C 84.6846 -0.55076 -1.60937 0
M  V30 873 O 85.8696 -0.787841 -1.77501 0
M  V30 874 C 82.9996 -1.77882 -2.98287 0
M  V30 875 C 81.9536 -2.92907 -3.12073 0
M  V30 876 C 81.2796 -2.85712 -4.51965 0
M  V30 877 C 82.5796 -4.3369 -2.91051 0
M  V30 878 H 84.2736 -2.63025 -1.43032 0
M  V30 879 H 81.8196 -1.26574 -0.686664 0
M  V30 880 H 83.7726 -1.90744 -3.75759 0
M  V30 881 H 82.4966 -0.816653 -3.16225 0
M  V30 882 H 81.1556 -2.79665 -2.37029 0
M  V30 883 H 80.8036 -1.8738 -4.66795 0
M  V30 884 H 80.5036 -3.62921 -4.62128 0
M  V30 885 H 82.0276 -3.00598 -5.31482 0
M  V30 886 H 83.4416 -4.47555 -3.58284 0
M  V30 887 H 81.8386 -5.12205 -3.12675 0
M  V30 888 H 82.9086 -4.47362 -1.87071 0
M  V30 889 N 84.2517 0.741722 -1.39055 0
M  V30 890 C 85.1997 1.87702 -1.3737 0
M  V30 891 C 86.1937 1.67427 -0.257812 0
M  V30 892 O 87.3997 1.7485 -0.427489 0
M  V30 893 H 83.7747 0.617757 -0.428812 0
M  V30 894 H 85.7457 1.86239 -2.33147 0
M  V30 895 C 84.4947 3.25315 -1.22741 0
M  V30 896 H 83.8177 3.41509 -2.07873 0
M  V30 897 H 85.2577 4.04964 -1.25618 0
M  V30 898 C 83.7167 3.36838 0.0647316 0
M  V30 899 O 84.2467 3.88073 1.03741 0
M  V30 900 N 82.4527 2.90329 0.125544 0
M  V30 901 H 81.9997 2.48823 -0.666682 0
M  V30 902 H 81.9577 2.98418 0.989639 0
M  V30 903 N 85.7298 1.2412 0.971189 0
M  V30 904 C 86.6618 0.988349 2.06795 0
M  V30 905 C 87.6748 -0.0409541 1.62748 0
M  V30 906 O 88.8638 0.195673 1.77424 0
M  V30 907 C 85.9638 0.469023 3.35639 0
M  V30 908 C 85.1368 1.56065 4.08611 0
M  V30 909 C 84.1958 1.04458 5.15728 0
M  V30 910 O 83.2218 1.73553 5.42096 0
M  V30 911 N 84.4238 -0.122817 5.8037 0
M  V30 912 H 87.1888 1.93265 2.29061 0
M  V30 913 H 84.7498 1.15102 1.13856 0
M  V30 914 H 86.7418 0.108613 4.04554 0
M  V30 915 H 85.3118 -0.380919 3.1027 0
M  V30 916 H 84.5318 2.09341 3.34021 0
M  V30 917 H 85.8198 2.29449 4.54126 0
M  V30 918 H 85.2178 -0.700563 5.61345 0
M  V30 919 H 83.7748 -0.424404 6.50417 0
M  V30 920 N 87.2079 -1.17134 1.05439 0
M  V30 921 C 88.4559 -1.87085 0.764429 0
M  V30 922 C 88.7769 -1.81584 -0.710787 0
M  V30 923 O 88.0469 -1.24349 -1.51374 0
M  V30 924 H 86.6269 -0.692627 0.279779 0
M  V30 925 H 89.2889 -1.42087 1.33406 0
M  V30 926 H 88.3849 -2.92759 1.0816 0
M  V30 927 N 88.686 -0.835752 -1.33615 0
M  V30 928 C 89.914 -0.443344 -2.02094 0
M  V30 929 C 90.329 0.954522 -1.62894 0
M  V30 930 O 89.686 1.61982 -0.840723 0
M  V30 931 C 89.737 -0.550775 -3.5728 0
M  V30 932 O 89.458 -1.89356 -3.95065 0
M  V30 933 C 90.959 -0.154919 -4.43029 0
M  V30 934 H 88.179 -0.176359 -0.647409 0
M  V30 935 H 90.723 -1.12746 -1.70612 0
M  V30 936 H 88.878 0.0853997 -3.87306 0
M  V30 937 H 89.292 -1.87687 -4.89769 0
M  V30 938 H 90.766 -0.281144 -5.51284 0
M  V30 939 H 91.243 0.902863 -4.2982 0
M  V30 940 H 91.849 -0.765404 -4.18356 0
M  V30 941 N 90.1641 1.46063 -0.591896 0
M  V30 942 C 91.5801 1.57561 -0.254288 0
M  V30 943 C 91.7801 1.58565 1.24336 0
M  V30 944 O 90.8361 1.50753 2.02558 0
M  V30 945 C 92.1491 2.86549 -0.911611 0
M  V30 946 C 93.6971 3.00197 -0.886059 0
M  V30 947 C 94.1721 4.31933 -1.5231 0
M  V30 948 N 95.6631 4.38654 -1.48786 0
M  V30 949 C 96.3981 5.39222 -1.95006 0
M  V30 950 N 95.8941 6.46414 -2.49241 0
M  V30 951 N 97.6871 5.3048 -1.85868 0
M  V30 952 H 89.8381 1.43655 -1.56451 0
M  V30 953 H 92.1011 0.68583 -0.654478 0
M  V30 954 H 91.8071 2.91651 -1.96551 0
M  V30 955 H 91.6811 3.74794 -0.425368 0
M  V30 956 H 94.0681 2.9467 0.159246 0
M  V30 957 H 94.1491 2.13403 -1.41041 0
M  V30 958 H 93.7931 4.38217 -2.56765 0
M  V30 959 H 93.7231 5.17516 -0.973891 0
M  V30 960 H 96.2141 3.61793 -1.09151 0
M  V30 961 H 96.5271 7.19376 -2.82344 0
M  V30 962 H 94.8721 6.47208 -2.53272 0
M  V30 963 H 98.0631 4.45643 -1.43248 0
M  V30 964 H 98.2361 6.08711 -2.22204 0
M  V30 965 N 91.6422 0.330177 1.54103 0
M  V30 966 C 92.8892 -0.270405 2.00686 0
M  V30 967 C 93.2172 -1.51621 1.21825 0
M  V30 968 O 92.4722 -1.93536 0.29025 0
M  V30 969 C 92.7712 -0.643134 3.51566 0
M  V30 970 C 92.4372 0.504251 4.48072 0
M  V30 971 C 91.0992 0.819163 4.74176 0
M  V30 972 C 93.4512 1.27465 5.05373 0
M  V30 973 C 90.7792 1.90708 5.5484 0
M  V30 974 C 93.1312 2.35271 5.87223 0
M  V30 975 C 91.7952 2.67336 6.11627 0
M  V30 976 H 91.0652 -0.0989482 0.734364 0
M  V30 977 H 93.7122 0.455324 1.86008 0
M  V30 978 H 92.0172 -1.44938 3.64006 0
M  V30 979 H 93.7142 -1.11949 3.85056 0
M  V30 980 H 90.3042 0.248733 4.27878 0
M  V30 981 H 94.4882 1.04462 4.85182 0
M  V30 982 H 89.7442 2.15991 5.71977 0
M  V30 983 H 93.9182 2.95405 6.30641 0
M  V30 984 H 91.5452 3.51763 6.73919 0
M  V30 985 N 93.1203 -1.57491 0.0584922 0
M  V30 986 C 94.3683 -1.92597 -0.612436 0
M  V30 987 C 94.6893 -0.938162 -1.70949 0
M  V30 988 O 93.9593 0.0158301 -1.95894 0
M  V30 989 H 92.5393 -0.710964 -0.229214 0
M  V30 990 H 95.2013 -1.94571 0.113218 0
M  V30 991 H 94.2973 -2.94038 -1.04633 0
M  V30 992 N 94.5984 0.214957 -1.56127 0
M  V30 993 C 95.5614 1.24997 -1.92116 0
M  V30 994 C 96.5614 1.39467 -0.800344 0
M  V30 995 O 97.7514 1.37619 -1.06802 0
M  V30 996 C 94.8834 2.62271 -2.17777 0
M  V30 997 H 96.0764 0.942875 -2.84693 0
M  V30 998 H 93.6294 0.455654 -1.49511 0
M  V30 999 H 94.3644 2.98068 -1.27773 0
M  V30 1000 H 94.1494 2.53143 -2.99434 0
M  V30 1001 H 95.6394 3.36946 -2.46693 0
M  V30 1002 N 96.0765 1.50051 0.48192 0
M  V30 1003 C 97.0095 1.62749 1.59963 0
M  V30 1004 C 97.9875 0.475903 1.5548 0
M  V30 1005 O 99.1715 0.693986 1.7526 0
M  V30 1006 C 96.2985 1.60008 2.98522 0
M  V30 1007 C 95.3445 2.80596 3.21198 0
M  V30 1008 S 96.1775 4.42038 3.02262 0
M  V30 1009 C 97.3335 4.41973 4.43182 0
M  V30 1010 H 97.5665 2.57296 1.4895 0
M  V30 1011 H 95.0995 1.39179 0.668477 0
M  V30 1012 H 97.0575 1.59112 3.78409 0
M  V30 1013 H 95.7185 0.667153 3.06933 0
M  V30 1014 H 94.9115 2.74952 4.22395 0
M  V30 1015 H 94.5135 2.79003 2.49065 0
M  V30 1016 H 96.8055 4.14868 5.35622 0
M  V30 1017 H 97.7485 5.43512 4.53873 0
M  V30 1018 H 98.1565 3.71812 4.24755 0
M  V30 1019 N 97.5546 -0.734337 1.39446 0
M  V30 1020 C 98.4846 -1.86155 1.40955 0
M  V30 1021 C 99.4656 -1.67898 0.272827 0
M  V30 1022 O 100.651 -1.88207 0.478743 0
M  V30 1023 C 97.7806 -3.23912 1.25294 0
M  V30 1024 C 96.7346 -3.56808 2.36373 0
M  V30 1025 C 96.0606 -4.93508 2.058 0
M  V30 1026 C 97.3606 -3.59713 3.78687 0
M  V30 1027 H 99.0546 -1.8515 2.35287 0
M  V30 1028 H 96.6006 -0.889367 1.13253 0
M  V30 1029 H 98.5536 -4.02443 1.2497 0
M  V30 1030 H 97.2776 -3.25446 0.274308 0
M  V30 1031 H 95.9366 -2.80606 2.35914 0
M  V30 1032 H 95.5846 -4.91623 1.06374 0
M  V30 1033 H 95.2846 -5.16486 2.80208 0
M  V30 1034 H 96.8086 -5.74396 2.07128 0
M  V30 1035 H 98.2226 -4.2832 3.81071 0
M  V30 1036 H 96.6196 -3.94209 4.52459 0
M  V30 1037 H 97.6896 -2.59504 4.09617 0
M  V30 1038 N 99.0327 -1.24633 -0.964593 0
M  V30 1039 C 100.31 -0.995809 -1.68354 0
M  V30 1040 C 100.69 0.480964 -2.05548 0
M  V30 1041 O 100.038 1.45599 -1.76105 0
M  V30 1042 C 100.248 -1.92177 -2.91323 0
M  V30 1043 C 101.596 -2.19446 -3.63495 0
M  V30 1044 O 102.62 -1.89855 -3.01386 0
M  V30 1045 O 101.479 -2.69714 -4.75307 0
M  V30 1046 H 98.5727 -0.376854 -0.736146 0
M  V30 1047 H 101.119 -1.35745 -1.0184 0
M  V30 1048 H 99.8907 -2.91938 -2.60553 0
M  V30 1049 H 99.5137 -1.56349 -3.65569 0
M  V30 1050 N 100.511 1.16574 -1.06058 0
M  V30 1051 C 101.444 2.19798 -0.61352 0
M  V30 1052 C 102.422 1.58509 0.362453 0
M  V30 1053 O 103.606 1.86527 0.271994 0
M  V30 1054 C 100.733 3.3855 0.100915 0
M  V30 1055 C 99.7788 4.18317 -0.831438 0
M  V30 1056 S 100.612 4.82375 -2.32539 0
M  V30 1057 C 101.768 6.04508 -1.62238 0
M  V30 1058 H 102.001 2.5738 -1.48805 0
M  V30 1059 H 99.5338 1.27327 -0.873338 0
M  V30 1060 H 101.492 4.07358 0.506898 0
M  V30 1061 H 100.153 2.99338 0.951604 0
M  V30 1062 H 99.3458 5.03232 -0.278071 0
M  V30 1063 H 98.9478 3.5499 -1.17719 0
M  V30 1064 H 101.24 6.71133 -0.926622 0
M  V30 1065 H 102.183 6.64389 -2.44934 0
M  V30 1066 H 102.591 5.53559 -1.106 0
M  V30 1067 N 101.989 0.842826 1.3317 0
M  V30 1068 C 102.919 0.294028 2.31641 0
M  V30 1069 C 103.9 -0.600401 1.59151 0
M  V30 1070 O 105.085 -0.523124 1.87022 0
M  V30 1071 C 102.215 -0.528416 3.43257 0
M  V30 1072 C 101.169 0.27056 4.27144 0
M  V30 1073 C 100.495 -0.675881 5.30411 0
M  V30 1074 C 101.795 1.48981 5.00602 0
M  V30 1075 H 103.489 1.11681 2.77791 0
M  V30 1076 H 101.035 0.538478 1.33553 0
M  V30 1077 H 102.988 -0.922674 4.11175 0
M  V30 1078 H 101.712 -1.38445 2.95805 0
M  V30 1079 H 100.371 0.646427 3.60856 0
M  V30 1080 H 100.019 -1.52842 4.79216 0
M  V30 1081 H 99.7189 -0.145374 5.8742 0
M  V30 1082 H 101.243 -1.06757 6.01195 0
M  V30 1083 H 102.657 1.16849 5.61266 0
M  V30 1084 H 101.054 1.95739 5.6728 0
M  V30 1085 H 102.124 2.25746 4.29147 0
M  V30 1086 N 103.467 -1.45747 0.599634 0
M  V30 1087 C 104.695 -2.06668 0.0978551 0
M  V30 1088 C 105.11 -1.44562 -1.21439 0
M  V30 1089 O 104.467 -0.556923 -1.73795 0
M  V30 1090 C 104.518 -3.61456 -0.0567044 0
M  V30 1091 O 104.239 -4.21242 1.20361 0
M  V30 1092 C 105.74 -4.39345 -0.590869 0
M  V30 1093 H 102.96 -0.667825 0.0651943 0
M  V30 1094 H 105.504 -1.87115 0.82511 0
M  V30 1095 H 103.659 -3.80378 -0.734251 0
M  V30 1096 H 104.073 -5.14323 1.02821 0
M  V30 1097 H 105.547 -5.48182 -0.648131 0
M  V30 1098 H 106.024 -4.08568 -1.61147 0
M  V30 1099 H 106.63 -4.25268 0.0523679 0
M  V30 1100 N 104.945 -0.338344 -1.53925 0
M  V30 1101 C 106.222 0.314774 -1.93051 0
M  V30 1102 C 106.602 1.68669 -1.26941 0
M  V30 1103 O 105.95 2.24636 -0.418445 0
M  V30 1104 C 106.16 0.392249 -3.46789 0
M  V30 1105 C 107.508 0.645554 -4.19664 0
M  V30 1106 O 108.532 0.474575 -3.53024 0
M  V30 1107 O 107.391 0.976408 -5.37707 0
M  V30 1108 H 104.485 0.182598 -0.80659 0
M  V30 1109 H 107.031 -0.389141 -1.65178 0
M  V30 1110 H 105.803 -0.570702 -3.87116 0
M  V30 1111 H 105.426 1.14316 -3.80812 0
M  V30 1112 N 106.423 1.57458 -0.0668435 0
M  V30 1113 C 107.839 1.56947 0.289772 0
M  V30 1114 C 108.039 1.07584 1.70376 0
M  V30 1115 O 107.095 0.739486 2.41429 0
M  V30 1116 C 108.408 3.0052 0.103943 0
M  V30 1117 C 109.956 3.12517 0.173857 0
M  V30 1118 C 110.431 4.57997 0.0163682 0
M  V30 1119 N 111.922 4.63144 0.0721352 0
M  V30 1120 C 112.657 5.73394 -0.0253794 0
M  V30 1121 N 112.153 6.92576 -0.176133 0
M  V30 1122 N 113.946 5.62091 0.0313305 0
M  V30 1123 H 106.097 1.87863 -0.991027 0
M  V30 1124 H 108.36 0.86583 -0.38606 0
M  V30 1125 H 108.066 3.40729 -0.871572 0
M  V30 1126 H 107.94 3.67304 0.858366 0
M  V30 1127 H 110.327 2.72197 1.13985 0
M  V30 1128 H 110.408 2.48381 -0.611586 0
M  V30 1129 H 110.052 4.99005 -0.946374 0
M  V30 1130 H 109.982 5.20158 0.821153 0
M  V30 1131 H 112.473 3.77436 0.187263 0
M  V30 1132 H 112.786 7.72418 -0.242821 0
M  V30 1133 H 111.131 6.94678 -0.211429 0
M  V30 1134 H 114.322 4.67867 0.147773 0
M  V30 1135 H 114.495 6.47982 -0.048121 0
M  V30 1136 N 107.901 -0.206675 1.56239 0
M  V30 1137 C 109.141 -0.93574 1.81723 0
M  V30 1138 C 109.505 -1.80927 0.642609 0
M  V30 1139 O 110.706 -2.57323 0.777081 0
M  V30 1140 C 108.977 -1.74012 3.12177 0
M  V30 1141 S 110.536 -2.52279 3.59028 0
M  V30 1142 H 107.354 -0.314065 0.637875 0
M  V30 1143 H 109.956 -0.200071 1.94474 0
M  V30 1144 H 108.66 -1.0888 3.95693 0
M  V30 1145 H 108.191 -2.51782 3.02274 0
M  V30 1146 H 110.206 -3.76209 3.23545 0
M  V30 1147 N 109.379 -1.50304 -0.473955 0
M  V30 1148 C 110.604 -1.65175 -1.25427 0
M  V30 1149 C 111.029 -0.333673 -1.85117 0
M  V30 1150 O 110.387 0.702114 -1.67153 0
M  V30 1151 C 110.435 -2.74295 -2.34082 0
M  V30 1152 O 109.539 -2.35349 -3.38651 0
M  V30 1153 H 108.88 -0.551944 -0.369126 0
M  V30 1154 H 111.41 -1.96662 -0.564364 0
M  V30 1155 H 111.42 -2.97285 -2.79438 0
M  V30 1156 H 110.095 -3.69959 -1.90008 0
M  V30 1157 H 108.672 -2.22794 -2.99027 0
M  V30 1158 N 110.857 0.726932 -1.39834 0
M  V30 1159 C 112.085 1.51613 -1.40787 0
M  V30 1160 C 112.5 1.88799 -0.00451505 0
M  V30 1161 O 111.857 1.54662 0.968809 0
M  V30 1162 C 111.908 2.79863 -2.28821 0
M  V30 1163 O 111.629 2.44253 -3.63692 0
M  V30 1164 C 113.13 3.73837 -2.38245 0
M  V30 1165 H 110.35 0.468264 -0.480593 0
M  V30 1166 H 112.894 0.897607 -1.83748 0
M  V30 1167 H 111.049 3.38027 -1.89252 0
M  V30 1168 H 111.463 3.26695 -4.1033 0
M  V30 1169 H 112.937 4.60699 -3.04073 0
M  V30 1170 H 113.414 4.16153 -1.40403 0
M  V30 1171 H 114.02 3.21589 -2.78317 0
M  V30 1172 N 112.336 1.25143 0.95797 0
M  V30 1173 C 113.269 0.995565 2.05338 0
M  V30 1174 C 114.247 -0.0740423 1.62431 0
M  V30 1175 O 115.431 0.0649212 1.88388 0
M  V30 1176 C 112.558 0.504298 3.34925 0
M  V30 1177 C 111.604 1.56393 3.96792 0
M  V30 1178 S 112.437 3.14815 4.33188 0
M  V30 1179 C 113.593 2.67415 5.65898 0
M  V30 1180 H 113.826 1.92309 2.26726 0
M  V30 1181 H 111.359 1.08635 1.09716 0
M  V30 1182 H 113.317 0.227497 4.09869 0
M  V30 1183 H 111.978 -0.402671 3.11508 0
M  V30 1184 H 111.171 1.17082 4.90212 0
M  V30 1185 H 110.773 1.79124 3.28315 0
M  V30 1186 H 113.065 2.10833 6.4386 0
M  V30 1187 H 114.008 3.59463 6.10076 0
M  V30 1188 H 114.416 2.07521 5.24972 0
M  V30 1189 N 113.814 -1.1601 1.06675 0
M  V30 1190 C 115.054 -1.88304 0.795037 0
M  V30 1191 C 115.418 -1.80062 -0.666466 0
M  V30 1192 O 116.619 -2.47319 -1.05293 0
M  V30 1193 C 114.89 -3.33664 1.28076 0
M  V30 1194 S 116.449 -4.23768 1.13868 0
M  V30 1195 H 113.267 -0.649928 0.288296 0
M  V30 1196 H 115.869 -1.4001 1.36445 0
M  V30 1197 H 114.573 -3.37203 2.33927 0
M  V30 1198 H 114.104 -3.87009 0.706253 0
M  V30 1199 H 116.119 -4.96148 0.0719668 0
M  V30 1200 N 115.292 -0.849877 -1.32721 0
M  V30 1201 C 116.222 -0.306308 -2.31482 0
M  V30 1202 C 117.203 0.591952 -1.59468 0
M  V30 1203 O 118.388 0.513199 -1.87296 0
M  V30 1204 C 115.518 0.510204 -3.43532 0
M  V30 1205 C 114.472 -0.293209 -4.26994 0
M  V30 1206 C 113.798 0.647743 -5.30762 0
M  V30 1207 C 115.098 -1.51634 -4.99804 0
M  V30 1208 H 116.792 -1.13153 -2.77195 0
M  V30 1209 H 114.338 -0.545553 -1.33266 0
M  V30 1210 H 116.291 0.900856 -4.11658 0
M  V30 1211 H 115.015 1.36874 -2.96535 0
M  V30 1212 H 113.674 -0.665555 -3.60508 0
M  V30 1213 H 113.322 1.50299 -4.8002 0
M  V30 1214 H 113.022 0.11422 -5.87489 0
M  V30 1215 H 114.546 1.03567 -6.01753 0
M  V30 1216 H 115.96 -1.19824 -5.60638 0
M  V30 1217 H 114.357 -1.98745 -5.66234 0
M  V30 1218 H 115.427 -2.28018 -4.27943 0
M  V30 1219 N 116.77 1.45427 -0.607355 0
M  V30 1220 C 117.7 2.3329 0.0989352 0
M  V30 1221 C 118.681 1.46816 0.859007 0
M  V30 1222 O 119.866 1.75588 0.829604 0
M  V30 1223 C 116.996 3.29518 1.09705 0
M  V30 1224 C 115.95 4.25626 0.450206 0
M  V30 1225 C 115.276 5.11542 1.55655 0
M  V30 1226 C 116.576 5.18505 -0.628455 0
M  V30 1227 H 118.27 2.92595 -0.634716 0
M  V30 1228 H 115.816 1.40696 -0.306681 0
M  V30 1229 H 117.769 3.89855 1.59971 0
M  V30 1230 H 116.493 2.68372 1.86129 0
M  V30 1231 H 115.152 3.66586 -0.0315886 0
M  V30 1232 H 114.8 4.46765 2.31107 0
M  V30 1233 H 114.5 5.76647 1.12925 0
M  V30 1234 H 116.024 5.74748 2.06148 0
M  V30 1235 H 117.438 5.72916 -0.209877 0
M  V30 1236 H 115.835 5.92085 -0.977489 0
M  V30 1237 H 116.905 4.60948 -1.50514 0
M  V30 1238 N 118.248 0.346503 1.53744 0
M  V30 1239 C 119.494 -0.249473 2.0126 0
M  V30 1240 C 119.827 -1.49965 1.23386 0
M  V30 1241 O 119.102 -1.91811 0.32229 0
M  V30 1242 C 119.385 -0.560643 3.55709 0
M  V30 1243 C 119.238 0.701836 4.44291 0
M  V30 1244 C 120.557 -1.36905 4.18264 0
M  V30 1245 H 117.676 -0.0891987 0.731582 0
M  V30 1246 H 120.318 0.467624 1.84156 0
M  V30 1247 H 118.468 -1.17156 3.70414 0
M  V30 1248 H 120.14 1.33974 4.41417 0
M  V30 1249 H 118.383 1.32612 4.13033 0
M  V30 1250 H 119.054 0.43933 5.50249 0
M  V30 1251 H 121.53 -0.852448 4.07275 0
M  V30 1252 H 120.406 -1.55553 5.26398 0
M  V30 1253 H 120.667 -2.37203 3.73078 0
M  V30 1254 N 119.726 -1.57421 0.075193 0
M  V30 1255 C 120.674 -2.14124 -0.908508 0
M  V30 1256 C 121.668 -1.07898 -1.30592 0
M  V30 1257 O 122.874 -1.26273 -1.28277 0
M  V30 1258 H 119.249 -0.684707 -0.310935 0
M  V30 1259 H 121.22 -2.95634 -0.405374 0
M  V30 1260 C 119.969 -2.72044 -2.16535 0
M  V30 1261 H 119.292 -3.53456 -1.86839 0
M  V30 1262 H 120.732 -3.15311 -2.83469 0
M  V30 1263 C 119.191 -1.66968 -2.92615 0
M  V30 1264 O 119.721 -1.0967 -3.86439 0
M  V30 1265 N 117.927 -1.37923 -2.55784 0
M  V30 1266 H 117.474 -1.84706 -1.79559 0
M  V30 1267 H 117.432 -0.67852 -3.06991 0
M  V30 1268 N 121.204 0.198386 -1.56346 0
M  V30 1269 C 122.134 1.24865 -1.9731 0
M  V30 1270 C 123.115 1.47651 -0.844576 0
M  V30 1271 O 124.3 1.59444 -1.10866 0
M  V30 1272 C 121.43 2.59358 -2.30977 0
M  V30 1273 C 120.384 2.5119 -3.46537 0
M  V30 1274 C 119.71 3.89926 -3.65871 0
M  V30 1275 C 121.01 2.03977 -4.80823 0
M  V30 1276 H 122.704 0.908252 -2.85291 0
M  V30 1277 H 120.25 0.435462 -1.37258 0
M  V30 1278 H 122.203 3.33011 -2.58228 0
M  V30 1279 H 120.927 2.95132 -1.39874 0
M  V30 1280 H 119.586 1.79993 -3.19371 0
M  V30 1281 H 119.234 4.23046 -2.72105 0
M  V30 1282 H 118.934 3.85336 -4.4361 0
M  V30 1283 H 120.458 4.65205 -3.95495 0
M  V30 1284 H 121.872 2.67386 -5.07127 0
M  V30 1285 H 120.269 2.10397 -5.62008 0
M  V30 1286 H 121.339 0.992861 -4.74626 0
M  V30 1287 N 122.682 1.50554 0.465978 0
M  V30 1288 C 123.645 1.69233 1.54574 0
M  V30 1289 C 124.645 0.562901 1.50626 0
M  V30 1290 O 125.835 0.830016 1.53155 0
M  V30 1291 C 122.967 1.7223 2.94193 0
M  V30 1292 H 124.16 2.65571 1.39327 0
M  V30 1293 H 121.713 1.40111 0.692711 0
M  V30 1294 H 122.448 0.77603 3.14878 0
M  V30 1295 H 122.233 2.54285 2.98466 0
M  V30 1296 H 123.723 1.88618 3.72576 0
M  V30 1297 N 124.16 -0.719506 1.40217 0
M  V30 1298 C 125.09 -1.8465 1.42922 0
M  V30 1299 C 126.071 -1.67599 0.29062 0
M  V30 1300 O 127.256 -1.87688 0.498677 0
M  V30 1301 C 124.386 -3.22565 1.28722 0
M  V30 1302 C 123.34 -3.54281 2.40144 0
M  V30 1303 C 122.666 -4.91298 2.11023 0
M  V30 1304 C 123.966 -3.55676 3.82481 0
M  V30 1305 H 125.66 -1.82644 2.37237 0
M  V30 1306 H 123.206 -0.877305 1.1419 0
M  V30 1307 H 125.159 -4.01095 1.29232 0
M  V30 1308 H 123.883 -3.25137 0.308811 0
M  V30 1309 H 122.542 -2.78088 2.38877 0
M  V30 1310 H 122.19 -4.90468 1.11582 0
M  V30 1311 H 121.89 -5.13485 2.8567 0
M  V30 1312 H 123.414 -5.72166 2.13209 0
M  V30 1313 H 124.828 -4.24254 3.85592 0
M  V30 1314 H 123.225 -3.89388 4.56614 0
M  V30 1315 H 124.295 -2.55144 4.12346 0
M  V30 1316 N 125.638 -1.25649 -0.95132 0
M  V30 1317 C 126.568 -1.08808 -2.06599 0
M  V30 1318 C 127.549 0.00382547 -1.701 0
M  V30 1319 O 128.734 -0.166325 -1.93486 0
M  V30 1320 C 125.864 -0.709542 -3.39975 0
M  V30 1321 C 124.818 -1.75206 -3.90496 0
M  V30 1322 C 124.144 -1.22811 -5.20405 0
M  V30 1323 C 125.444 -3.15153 -4.16504 0
M  V30 1324 H 127.138 -2.02048 -2.20946 0
M  V30 1325 H 124.684 -0.972835 -1.06169 0
M  V30 1326 H 126.637 -0.578649 -4.17408 0
M  V30 1327 H 125.361 0.258556 -3.25575 0
M  V30 1328 H 124.02 -1.87145 -3.15234 0
M  V30 1329 H 123.668 -0.250145 -5.02378 0
M  V30 1330 H 123.368 -1.92492 -5.55176 0
M  V30 1331 H 124.892 -1.10968 -6.00432 0
M  V30 1332 H 126.306 -3.06349 -4.84586 0
M  V30 1333 H 124.703 -3.82333 -4.62538 0
M  V30 1334 H 125.773 -3.61966 -3.22658 0
M  V30 1335 N 127.117 1.15442 -1.07289 0
M  V30 1336 C 128.347 1.89821 -0.815576 0
M  V30 1337 C 128.755 1.7823 0.634867 0
M  V30 1338 O 128.098 1.13152 1.44715 0
M  V30 1339 C 128.16 3.40817 -1.14385 0
M  V30 1340 C 127.824 3.76193 -2.59476 0
M  V30 1341 C 128.821 3.77269 -3.57721 0
M  V30 1342 C 126.506 4.0652 -2.95037 0
M  V30 1343 C 128.5 4.08176 -4.89562 0
M  V30 1344 C 126.187 4.37092 -4.27076 0
M  V30 1345 C 127.185 4.37902 -5.24148 0
M  V30 1346 O 126.873 4.67741 -6.53815 0
M  V30 1347 H 126.605 0.608465 -0.294528 0
M  V30 1348 H 129.159 1.472 -1.43252 0
M  V30 1349 H 127.389 3.83835 -0.469865 0
M  V30 1350 H 129.078 3.96485 -0.869179 0
M  V30 1351 H 129.844 3.5394 -3.3159 0
M  V30 1352 H 125.723 4.05049 -2.20128 0
M  V30 1353 H 129.267 4.08723 -5.65324 0
M  V30 1354 H 125.164 4.59889 -4.5296 0
M  V30 1355 H 125.932 4.85509 -6.58957 0
M  V30 1356 N 128.595 0.856903 1.32268 0
M  V30 1357 C 130.006 0.515711 1.79436 0
M  V30 1358 C 130.357 -0.966586 1.70738 0
M  V30 1359 O 129.482 -1.75409 1.26731 0
M  V30 1360 C 130.077 0.929335 3.25805 0
M  V30 1361 C 128.636 0.640006 3.70919 0
M  V30 1362 C 127.783 1.12784 2.53328 0
M  V30 1363 H 130.734 1.04389 1.19535 0
M  V30 1364 H 130.755 0.246633 3.797 0
M  V30 1365 H 130.267 2.00821 3.32103 0
M  V30 1366 H 128.368 -0.428051 3.70133 0
M  V30 1367 H 128.481 1.20788 4.63624 0
M  V30 1368 H 126.845 0.548033 2.48734 0
M  V30 1369 H 127.628 2.21387 2.62379 0
M  V30 1370 N 130.073 -1.45103 0.615059 0
M  V30 1371 C 131.321 -2.01784 0.112955 0
M  V30 1372 C 131.642 -1.48504 -1.26378 0
M  V30 1373 O 130.912 -0.682245 -1.83636 0
M  V30 1374 H 129.492 -0.745993 0.0387668 0
M  V30 1375 H 132.154 -1.77808 0.798141 0
M  V30 1376 H 131.25 -3.12025 0.0684069 0
M  V30 1377 N 131.551 -0.354651 -1.53558 0
M  V30 1378 C 132.514 0.484566 -2.24019 0
M  V30 1379 C 133.514 1.01861 -1.24422 0
M  V30 1380 O 134.704 0.906097 -1.4878 0
M  V30 1381 C 131.836 1.67615 -2.96847 0
M  V30 1382 H 133.029 -0.131843 -2.9961 0
M  V30 1383 H 130.582 -0.106165 -1.55939 0
M  V30 1384 H 131.317 2.33095 -2.25471 0
M  V30 1385 H 131.102 1.30029 -3.69912 0
M  V30 1386 H 132.592 2.27114 -3.50441 0
M  V30 1387 N 133.029 1.57378 -0.0835403 0
M  V30 1388 C 134.257 1.98263 0.59157 0
M  V30 1389 C 134.672 0.962302 1.62435 0
M  V30 1390 O 134.029 -0.049581 1.82433 0
M  V30 1391 C 134.08 3.39214 1.24965 0
M  V30 1392 O 133.801 4.37339 0.258186 0
M  V30 1393 C 135.302 3.95038 2.01147 0
M  V30 1394 H 132.522 0.651773 0.159477 0
M  V30 1395 H 135.066 2.03878 -0.159415 0
M  V30 1396 H 133.221 3.34649 1.95164 0
M  V30 1397 H 133.635 5.19371 0.731734 0
M  V30 1398 H 135.109 4.95848 2.42567 0
M  V30 1399 H 135.586 3.32222 2.87272 0
M  V30 1400 H 136.192 4.0304 1.35789 0
M  V30 1401 N 134.507 -0.190092 1.56449 0
M  V30 1402 C 135.437 -1.23816 1.97969 0
M  V30 1403 C 136.418 -1.47201 0.852395 0
M  V30 1404 O 137.603 -1.58854 1.1171 0
M  V30 1405 C 134.733 -2.5813 2.3235 0
M  V30 1406 C 133.687 -2.49348 3.47864 0
M  V30 1407 C 133.013 -3.8798 3.67934 0
M  V30 1408 C 134.313 -2.01424 4.81898 0
M  V30 1409 H 136.007 -0.89311 2.85769 0
M  V30 1410 H 133.553 -0.428177 1.37487 0
M  V30 1411 H 135.506 -3.31637 2.59991 0
M  V30 1412 H 134.23 -2.94386 1.41438 0
M  V30 1413 H 132.889 -1.78297 3.20321 0
M  V30 1414 H 132.537 -4.21597 2.74344 0
M  V30 1415 H 132.237 -3.82978 4.45648 0
M  V30 1416 H 133.761 -4.63101 3.97957 0
M  V30 1417 H 135.175 -2.64693 5.08538 0
M  V30 1418 H 133.572 -2.07413 5.63116 0
M  V30 1419 H 134.642 -0.967677 4.75146 0
M  V30 1420 N 135.985 -1.50799 -0.457987 0
M  V30 1421 C 137.232 -1.62442 -1.20908 0
M  V30 1422 C 137.56 -0.330865 -1.91665 0
M  V30 1423 O 136.815 0.68401 -1.83357 0
M  V30 1424 C 137.114 -2.76358 -2.2663 0
M  V30 1425 C 136.78 -4.16378 -1.73033 0
M  V30 1426 C 135.442 -4.54473 -1.58138 0
M  V30 1427 C 137.794 -5.03836 -1.33413 0
M  V30 1428 C 135.122 -5.77754 -1.02065 0
M  V30 1429 C 137.474 -6.27676 -0.78778 0
M  V30 1430 C 136.138 -6.64562 -0.625561 0
M  V30 1431 H 135.408 -0.594417 -0.442435 0
M  V30 1432 H 138.055 -1.84772 -0.503136 0
M  V30 1433 H 136.36 -2.48167 -3.03184 0
M  V30 1434 H 138.057 -2.82568 -2.84528 0
M  V30 1435 H 134.647 -3.86331 -1.85598 0
M  V30 1436 H 138.831 -4.75026 -1.4375 0
M  V30 1437 H 134.087 -6.04997 -0.882547 0
M  V30 1438 H 138.261 -6.94797 -0.472177 0
M  V30 1439 H 135.888 -7.59965 -0.188926 0
M  V30 1440 N 137.463 0.71206 -1.40597 0
M  V30 1441 C 138.71 1.47197 -1.39065 0
M  V30 1442 C 139.038 1.94499 0.00583891 0
M  V30 1443 O 138.293 1.68752 0.99102 0
M  V30 1444 C 138.592 2.71039 -2.32965 0
M  V30 1445 C 138.258 2.42484 -3.80148 0
M  V30 1446 C 136.92 2.34406 -4.20247 0
M  V30 1447 C 139.272 2.18598 -4.73143 0
M  V30 1448 C 136.6 2.00516 -5.51371 0
M  V30 1449 C 138.952 1.8622 -6.0457 0
M  V30 1450 C 137.616 1.76626 -6.43708 0
M  V30 1451 H 136.886 0.538634 -0.508876 0
M  V30 1452 H 139.533 0.815325 -1.73276 0
M  V30 1453 H 137.838 3.41558 -1.91951 0
M  V30 1454 H 139.535 3.29138 -2.29061 0
M  V30 1455 H 136.125 2.49659 -3.4838 0
M  V30 1456 H 140.309 2.23793 -4.42979 0
M  V30 1457 H 135.565 1.91628 -5.80593 0
M  V30 1458 H 139.739 1.66752 -6.76141 0
M  V30 1459 H 137.366 1.50133 -7.45228 0
M  V30 1460 N 138.941 1.26152 0.944643 0
M  V30 1461 C 139.873 1.03199 2.04652 0
M  V30 1462 C 140.886 -0.00642356 1.62799 0
M  V30 1463 O 142.075 0.233263 1.76969 0
M  V30 1464 C 139.175 0.540111 3.34568 0
M  V30 1465 C 138.348 1.64697 4.05208 0
M  V30 1466 C 137.407 1.15374 5.13396 0
M  V30 1467 O 136.433 1.85013 5.38293 0
M  V30 1468 N 137.635 0.00031529 5.805 0
M  V30 1469 H 140.4 1.9808 2.2491 0
M  V30 1470 H 137.961 1.17491 1.11389 0
M  V30 1471 H 139.953 0.194401 4.04233 0
M  V30 1472 H 138.523 -0.315021 3.11009 0
M  V30 1473 H 137.743 2.16379 3.29506 0
M  V30 1474 H 139.031 2.3903 4.49157 0
M  V30 1475 H 138.429 -0.581336 5.62705 0
M  V30 1476 H 136.986 -0.286346 6.51171 0
M  V30 1477 N 140.419 -1.14872 1.07899 0
M  V30 1478 C 141.668 -1.85135 0.800499 0
M  V30 1479 C 141.981 -1.83547 -0.676014 0
M  V30 1480 O 143.187 -2.49548 -1.06948 0
M  V30 1481 C 141.643 -3.3231 1.38197 0
M  V30 1482 C 141.251 -3.42329 2.8899 0
M  V30 1483 C 142.995 -4.0772 1.18174 0
M  V30 1484 C 140.902 -4.83684 3.403 0
M  V30 1485 H 139.832 -0.693563 0.29578 0
M  V30 1486 H 142.483 -1.29532 1.29976 0
M  V30 1487 H 140.865 -3.87618 0.810431 0
M  V30 1488 H 142.039 -2.97097 3.52236 0
M  V30 1489 H 140.354 -2.80369 3.07867 0
M  V30 1490 H 142.951 -5.12049 1.5398 0
M  V30 1491 H 143.294 -4.16124 0.12117 0
M  V30 1492 H 143.827 -3.58696 1.71994 0
M  V30 1493 H 140.566 -4.80465 4.45907 0
M  V30 1494 H 140.086 -5.29474 2.81811 0
M  V30 1495 H 141.765 -5.52558 3.36584 0
M  V30 1496 N 141.898 -0.863906 -1.31812 0
M  V30 1497 C 143.123 -0.48527 -2.01643 0
M  V30 1498 C 143.548 0.913058 -1.64453 0
M  V30 1499 O 142.906 1.6014 -0.849985 0
M  V30 1500 C 142.954 -0.642625 -3.54828 0
M  V30 1501 O 142.058 0.320659 -4.11151 0
M  V30 1502 H 141.399 -0.193793 -0.635091 0
M  V30 1503 H 143.929 -1.16565 -1.68148 0
M  V30 1504 H 143.939 -0.533628 -4.04495 0
M  V30 1505 H 142.614 -1.66227 -3.81237 0
M  V30 1506 H 141.191 0.167126 -3.72525 0
M  V30 1507 N 143.376 1.44774 -0.622745 0
M  V30 1508 C 144.309 2.27792 0.136329 0
M  V30 1509 C 145.287 1.38041 0.859264 0
M  V30 1510 O 146.471 1.67478 0.86506 0
M  V30 1511 C 143.598 3.16776 1.19878 0
M  V30 1512 C 142.644 4.22575 0.57731 0
M  V30 1513 S 143.477 5.31825 -0.626294 0
M  V30 1514 C 144.633 6.24377 0.436378 0
M  V30 1515 H 144.866 2.91824 -0.567967 0
M  V30 1516 H 142.399 1.48838 -0.410677 0
M  V30 1517 H 144.357 3.68596 1.80686 0
M  V30 1518 H 143.018 2.5198 1.87523 0
M  V30 1519 H 142.211 4.84818 1.37721 0
M  V30 1520 H 141.813 3.73974 0.0440439 0
M  V30 1521 H 144.105 6.64689 1.31128 0
M  V30 1522 H 145.048 7.07941 -0.150271 0
M  V30 1523 H 145.456 5.59381 0.758513 0
M  V30 1524 N 144.854 0.36279 1.53368 0
M  V30 1525 C 146.079 -0.231226 2.06107 0
M  V30 1526 C 146.504 -1.419 1.23474 0
M  V30 1527 O 145.862 -1.79524 0.253128 0
M  V30 1528 C 145.91 -0.605523 3.5548 0
M  V30 1529 O 145.014 -1.70312 3.7559 0
M  V30 1530 H 144.355 -0.034327 0.663112 0
M  V30 1531 H 146.885 0.522584 1.97814 0
M  V30 1532 H 146.895 -0.877314 3.98456 0
M  V30 1533 H 145.57 0.263004 4.15068 0
M  V30 1534 H 144.147 -1.4271 3.44512 0
M  V30 1535 N 146.332 -1.57332 0.0918853 0
M  V30 1536 C 147.262 -2.16872 -0.865371 0
M  V30 1537 C 148.243 -1.10118 -1.29646 0
M  V30 1538 O 149.428 -1.38242 -1.36392 0
M  V30 1539 C 146.558 -2.74649 -2.12569 0
M  V30 1540 C 145.512 -3.86747 -1.83333 0
M  V30 1541 C 144.838 -4.31212 -3.16166 0
M  V30 1542 C 146.138 -5.10089 -1.1228 0
M  V30 1543 H 147.832 -2.97114 -0.369307 0
M  V30 1544 H 145.378 -1.42918 -0.176194 0
M  V30 1545 H 147.331 -3.14952 -2.7997 0
M  V30 1546 H 146.055 -1.91657 -2.64452 0
M  V30 1547 H 144.714 -3.46978 -1.18331 0
M  V30 1548 H 144.362 -3.45115 -3.6593 0
M  V30 1549 H 144.062 -5.06788 -2.97388 0
M  V30 1550 H 145.586 -4.74146 -3.84731 0
M  V30 1551 H 147 -5.47582 -1.69785 0
M  V30 1552 H 145.397 -5.91073 -1.03693 0
M  V30 1553 H 146.467 -4.84786 -0.105041 0
M  V30 1554 N 147.81 0.181792 -1.56548 0
M  V30 1555 C 149.087 0.926765 -1.72251 0
M  V30 1556 C 149.467 2.00831 -0.650386 0
M  V30 1557 O 148.815 2.26008 0.336521 0
M  V30 1558 C 149.025 1.50106 -3.1507 0
M  V30 1559 C 150.373 1.97805 -3.75711 0
M  V30 1560 O 151.397 1.59922 -3.18282 0
M  V30 1561 O 150.256 2.67555 -4.76525 0
M  V30 1562 H 147.35 0.435506 -0.703039 0
M  V30 1563 H 149.896 0.170443 -1.68842 0
M  V30 1564 H 148.668 0.72212 -3.84579 0
M  V30 1565 H 148.291 2.32186 -3.22763 0
M  V30 1566 N 149.288 1.51039 0.449983 0
M  V30 1567 C 150.534 1.63322 1.20223 0
M  V30 1568 C 150.867 0.34241 1.91158 0
M  V30 1569 O 150.142 -0.657344 1.83055 0
M  V30 1570 C 150.425 2.82801 2.22925 0
M  V30 1571 C 150.278 4.21823 1.56157 0
M  V30 1572 C 151.597 2.97807 3.24035 0
M  V30 1573 H 148.716 0.594407 0.435718 0
M  V30 1574 H 151.358 1.83489 0.493136 0
M  V30 1575 H 149.508 2.65738 2.834 0
M  V30 1576 H 151.18 4.50526 0.991162 0
M  V30 1577 H 149.423 4.25105 0.864172 0
M  V30 1578 H 150.094 5.01391 2.30891 0
M  V30 1579 H 152.57 3.13497 2.73603 0
M  V30 1580 H 151.446 3.82992 3.93202 0
M  V30 1581 H 151.707 2.09328 3.89402 0
M  V30 1582 N 150.766 -0.704594 1.40972 0
M  V30 1583 C 151.729 -1.80035 1.41845 0
M  V30 1584 C 152.729 -1.57774 0.310474 0
M  V30 1585 O 153.919 -1.64613 0.56992 0
M  V30 1586 C 151.051 -3.18284 1.22098 0
M  V30 1587 H 152.244 -1.80658 2.3938 0
M  V30 1588 H 149.797 -0.911329 1.26982 0
M  V30 1589 H 150.532 -3.23306 0.253672 0
M  V30 1590 H 150.317 -3.35843 2.02366 0
M  V30 1591 H 151.807 -3.98289 1.25522 0
M  V30 1592 N 152.244 -1.26651 -0.937939 0
M  V30 1593 C 153.469 -1.15279 -1.72411 0
M  V30 1594 C 153.894 0.287866 -1.85884 0
M  V30 1595 O 153.252 1.20855 -1.35143 0
M  V30 1596 C 153.3 -1.83028 -3.10698 0
M  V30 1597 O 152.404 -1.12128 -3.96864 0
M  V30 1598 H 151.745 -0.401504 -0.528858 0
M  V30 1599 H 154.275 -1.67531 -1.1745 0
M  V30 1600 H 154.285 -1.89981 -3.6107 0
M  V30 1601 H 152.96 -2.87833 -3.00208 0
M  V30 1602 H 151.537 -1.13173 -3.55312 0
M  V30 1603 N 153.722 1.14298 -1.08507 0
M  V30 1604 C 154.672 2.17449 -0.685569 0
M  V30 1605 C 155.656 1.58167 0.295315 0
M  V30 1606 O 156.848 1.76675 0.107172 0
M  V30 1607 C 153.977 3.43161 -0.0975318 0
M  V30 1608 C 153.063 4.09471 -1.10426 0
M  V30 1609 N 153.454 4.51089 -2.28806 0
M  V30 1610 C 151.752 4.35976 -0.940258 0
M  V30 1611 C 152.453 5.02654 -2.9277 0
M  V30 1612 N 151.429 4.96927 -2.20374 0
M  V30 1613 H 155.231 2.47369 -1.587 0
M  V30 1614 H 152.745 1.30992 -0.959936 0
M  V30 1615 H 154.742 4.16388 0.20664 0
M  V30 1616 H 153.402 3.14719 0.798872 0
M  V30 1617 H 154.413 4.44097 -2.66455 0
M  V30 1618 H 151.09 4.17386 -0.0977441 0
M  V30 1619 H 152.48 5.44723 -3.93352 0
M  V30 1620 N 155.201 0.870884 1.31352 0
M  V30 1621 C 156.447 0.492314 1.97352 0
M  V30 1622 C 156.802 -0.945174 1.67583 0
M  V30 1623 O 156.095 -1.65674 0.962423 0
M  V30 1624 C 156.289 0.687157 3.50732 0
M  V30 1625 C 156.118 2.14203 3.95407 0
M  V30 1626 C 154.888 2.78382 4.21701 0
M  V30 1627 C 157.086 3.1144 4.09279 0
M  V30 1628 N 155.068 4.14611 4.52737 0
M  V30 1629 C 156.439 4.32702 4.44037 0
M  V30 1630 C 158.494 3.07418 3.91661 0
M  V30 1631 C 157.197 5.50463 4.63015 0
M  V30 1632 C 159.223 4.24438 4.11833 0
M  V30 1633 C 158.585 5.44463 4.46923 0
M  V30 1634 H 154.684 0.229206 0.747655 0
M  V30 1635 H 157.268 1.12568 1.5886 0
M  V30 1636 H 155.439 0.083384 3.8831 0
M  V30 1637 H 157.171 0.276883 4.03752 0
M  V30 1638 H 153.926 2.29326 4.14375 0
M  V30 1639 H 154.35 4.84928 4.72413 0
M  V30 1640 H 158.992 2.15732 3.6362 0
M  V30 1641 H 156.71 6.42666 4.89904 0
M  V30 1642 H 160.296 4.2278 3.99685 0
M  V30 1643 H 159.176 6.33504 4.62214 0
M  V30 1644 N 156.679 -1.44442 0.630414 0
M  V30 1645 C 157.609 -2.33418 -0.0618083 0
M  V30 1646 C 158.59 -1.48165 -0.835541 0
M  V30 1647 O 159.775 -1.76886 -0.801564 0
M  V30 1648 C 156.905 -3.31222 -1.04449 0
M  V30 1649 C 155.859 -4.26288 -0.382436 0
M  V30 1650 C 155.185 -5.13954 -1.47497 0
M  V30 1651 C 156.485 -5.1744 0.710865 0
M  V30 1652 H 158.179 -2.91548 0.681184 0
M  V30 1653 H 155.725 -1.40191 0.329026 0
M  V30 1654 H 157.678 -3.92351 -1.53748 0
M  V30 1655 H 156.402 -2.71299 -1.81836 0
M  V30 1656 H 155.061 -3.6649 0.0899054 0
M  V30 1657 H 154.709 -4.50385 -2.2397 0
M  V30 1658 H 154.409 -5.7837 -1.03737 0
M  V30 1659 H 155.933 -5.77955 -1.96979 0
M  V30 1660 H 157.347 -5.72509 0.300996 0
M  V30 1661 H 155.744 -5.90455 1.07156 0
M  V30 1662 H 156.814 -4.58496 1.57829 0
M  V30 1663 N 158.157 -0.370918 -1.53173 0
M  V30 1664 C 159.107 0.489588 -2.22681 0
M  V30 1665 C 160.091 1.04442 -1.22395 0
M  V30 1666 O 161.283 0.973578 -1.47819 0
M  V30 1667 C 158.412 1.626 -3.02351 0
M  V30 1668 C 157.498 1.08379 -4.10018 0
M  V30 1669 N 157.889 0.265004 -5.05105 0
M  V30 1670 C 156.187 1.35809 -4.2482 0
M  V30 1671 C 156.888 -0.0324755 -5.81691 0
M  V30 1672 N 155.864 0.566581 -5.40639 0
M  V30 1673 H 159.666 -0.142729 -2.93553 0
M  V30 1674 H 157.18 -0.179221 -1.61408 0
M  V30 1675 H 159.177 2.2547 -3.50669 0
M  V30 1676 H 157.837 2.26132 -2.33011 0
M  V30 1677 H 158.848 -0.0962352 -5.17811 0
M  V30 1678 H 155.525 1.9958 -3.66707 0
M  V30 1679 H 156.915 -0.69473 -6.68299 0
M  V30 1680 N 159.635 1.57281 -0.100228 0
M  V30 1681 C 160.565 2.17328 0.853857 0
M  V30 1682 C 161.546 1.10804 1.2906 0
M  V30 1683 O 162.731 1.38963 1.35657 0
M  V30 1684 C 159.861 2.75772 2.11109 0
M  V30 1685 C 158.815 3.87713 1.81279 0
M  V30 1686 C 158.141 4.32882 3.13874 0
M  V30 1687 C 159.441 5.10677 1.09574 0
M  V30 1688 H 161.135 2.97305 0.353545 0
M  V30 1689 H 158.681 1.43009 0.168612 0
M  V30 1690 H 160.634 3.16433 2.78296 0
M  V30 1691 H 159.358 1.93057 2.63432 0
M  V30 1692 H 158.017 3.476 1.16489 0
M  V30 1693 H 157.665 3.47051 3.64095 0
M  V30 1694 H 157.365 5.08358 2.94696 0
M  V30 1695 H 158.889 4.7618 3.82211 0
M  V30 1696 H 160.303 5.48474 1.66879 0
M  V30 1697 H 158.7 5.91615 1.00557 0
M  V30 1698 H 159.77 4.84835 0.0793299 0
M  V30 1699 N 161.113 -0.173488 1.56642 0
M  V30 1700 C 162.063 -1.21941 1.92651 0
M  V30 1701 C 163.047 -1.39912 0.794577 0
M  V30 1702 O 164.239 -1.41919 1.05773 0
M  V30 1703 C 161.368 -2.55935 2.28806 0
M  V30 1704 C 160.454 -2.41667 3.48508 0
M  V30 1705 N 160.845 -1.9711 4.65813 0
M  V30 1706 C 159.143 -2.72499 3.53072 0
M  V30 1707 C 159.844 -1.95253 5.47952 0
M  V30 1708 N 158.82 -2.37575 4.88937 0
M  V30 1709 H 162.622 -0.866581 2.80834 0
M  V30 1710 H 160.136 -0.381776 1.57849 0
M  V30 1711 H 162.133 -3.31511 2.52797 0
M  V30 1712 H 160.793 -2.92022 1.41961 0
M  V30 1713 H 161.804 -1.67481 4.90072 0
M  V30 1714 H 158.481 -3.12639 2.767 0
M  V30 1715 H 159.871 -1.6252 6.51948 0
M  V30 1716 N 162.591 -1.51276 -0.441967 0
M  V30 1717 C 163.816 -1.67799 -1.21895 0
M  V30 1718 C 164.241 -0.372864 -1.84367 0
M  V30 1719 O 163.599 0.666501 -1.68604 0
M  V30 1720 C 163.647 -2.79199 -2.28211 0
M  V30 1721 O 162.751 -2.42479 -3.33583 0
M  V30 1722 H 162.092 -0.559649 -0.357336 0
M  V30 1723 H 164.622 -1.97815 -0.522522 0
M  V30 1724 H 164.632 -3.03146 -2.73069 0
M  V30 1725 H 163.307 -3.73906 -1.82118 0
M  V30 1726 H 161.884 -2.29087 -2.94234 0
M  V30 1727 N 164.069 0.697108 -1.41344 0
M  V30 1728 C 165.294 1.49096 -1.44171 0
M  V30 1729 C 165.719 1.88038 -0.0481568 0
M  V30 1730 O 165.077 1.54525 0.948243 0
M  V30 1731 C 165.125 2.73088 -2.3549 0
M  V30 1732 O 164.229 3.70514 -1.81088 0
M  V30 1733 H 163.57 0.448801 -0.489361 0
M  V30 1734 H 166.1 0.856992 -1.85787 0
M  V30 1735 H 166.11 3.21413 -2.51312 0
M  V30 1736 H 164.785 2.44081 -3.36745 0
M  V30 1737 H 163.362 3.29441 -1.74708 0
M  V30 1738 N 165.547 1.27147 0.931209 0
M  V30 1739 C 166.793 1.13446 1.68101 0
M  V30 1740 C 167.126 -0.319628 1.91552 0
M  V30 1741 O 166.401 -1.23407 1.50336 0
M  V30 1742 C 166.684 1.91482 3.0497 0
M  V30 1743 C 166.537 3.44855 2.88782 0
M  V30 1744 C 167.856 1.71651 4.05246 0
M  V30 1745 H 164.975 0.413498 0.610072 0
M  V30 1746 H 167.617 1.56261 1.08086 0
M  V30 1747 H 165.767 1.55095 3.56199 0
M  V30 1748 H 167.439 3.9105 2.44698 0
M  V30 1749 H 165.682 3.71373 2.24198 0
M  V30 1750 H 166.353 3.94694 3.85902 0
M  V30 1751 H 168.829 2.0337 3.63015 0
M  V30 1752 H 167.705 2.28651 4.99009 0
M  V30 1753 H 167.966 0.663555 4.37092 0
M  V30 1754 N 167.025 -1.13721 1.09112 0
M  V30 1755 C 168.271 -1.85198 0.826414 0
M  V30 1756 C 168.604 -1.83129 -0.646319 0
M  V30 1757 O 167.879 -1.2671 -1.47563 0
M  V30 1758 C 168.162 -3.33507 1.35812 0
M  V30 1759 C 168.015 -3.44108 2.89672 0
M  V30 1760 C 169.334 -4.28838 0.989256 0
M  V30 1761 H 166.453 -0.67243 0.301675 0
M  V30 1762 H 169.095 -1.33499 1.35197 0
M  V30 1763 H 167.245 -3.77666 0.911082 0
M  V30 1764 H 168.917 -3.08684 3.428 0
M  V30 1765 H 167.16 -2.85087 3.26967 0
M  V30 1766 H 167.831 -4.48388 3.21951 0
M  V30 1767 H 170.307 -3.92734 1.37475 0
M  V30 1768 H 169.183 -5.31051 1.38838 0
M  V30 1769 H 169.444 -4.4198 -0.102924 0
M  V30 1770 N 168.503 -0.877838 -1.30888 0
M  V30 1771 C 169.919 -0.570844 -1.49042 0
M  V30 1772 C 170.119 0.893159 -1.80624 0
M  V30 1773 O 169.175 1.67485 -1.88958 0
M  V30 1774 C 170.488 -1.47784 -2.61878 0
M  V30 1775 C 172.036 -1.48071 -2.75761 0
M  V30 1776 C 172.511 -2.37347 -3.91702 0
M  V30 1777 N 174.002 -2.35271 -3.99001 0
M  V30 1778 C 174.737 -3.01063 -4.88004 0
M  V30 1779 N 174.233 -3.76055 -5.81854 0
M  V30 1780 N 176.026 -2.90332 -4.81315 0
M  V30 1781 H 168.177 -1.82502 -1.0866 0
M  V30 1782 H 170.44 -0.780797 -0.537644 0
M  V30 1783 H 170.146 -2.51993 -2.45341 0
M  V30 1784 H 170.02 -1.18215 -3.58197 0
M  V30 1785 H 172.407 -0.446166 -2.91708 0
M  V30 1786 H 172.488 -1.81668 -1.80085 0
M  V30 1787 H 172.132 -3.40883 -3.76512 0
M  V30 1788 H 172.062 -2.01071 -4.86701 0
M  V30 1789 H 174.553 -1.80768 -3.3186 0
M  V30 1790 H 174.866 -4.23366 -6.46514 0
M  V30 1791 H 173.211 -3.80163 -5.81808 0
M  V30 1792 H 176.402 -2.31278 -4.06974 0
M  V30 1793 H 176.575 -3.41885 -5.50471 0
M  V30 1794 N 169.982 1.44106 -0.638065 0
M  V30 1795 C 171.23 2.01579 -0.145043 0
M  V30 1796 C 171.551 1.50496 1.24 0
M  V30 1797 O 170.821 0.711374 1.82527 0
M  V30 1798 H 169.401 0.745282 -0.05063 0
M  V30 1799 H 172.063 1.76516 -0.826327 0
M  V30 1800 H 171.159 3.11877 -0.118039 0
M  V30 1801 N 171.46 0.379036 1.52974 0
M  V30 1802 C 172.685 -0.209353 2.06341 0
M  V30 1803 C 173.11 -1.40583 1.24972 0
M  V30 1804 O 172.468 -1.79246 0.272155 0
M  V30 1805 C 172.516 -0.567786 3.56102 0
M  V30 1806 O 171.62 -1.66318 3.77375 0
M  V30 1807 H 170.961 -0.0272919 0.663439 0
M  V30 1808 H 173.491 0.543536 1.97248 0
M  V30 1809 H 173.501 -0.835003 3.99364 0
M  V30 1810 H 172.176 0.307013 4.14765 0
M  V30 1811 H 170.753 -1.39048 3.46006 0
M  V30 1812 N 172.938 -1.57226 0.108567 0
M  V30 1813 C 173.848 -2.18292 -0.859401 0
M  V30 1814 C 174.864 -1.15612 -1.30038 0
M  V30 1815 O 176.04 -1.48039 -1.36552 0
M  V30 1816 C 173.105 -2.762 -2.09558 0
M  V30 1817 C 172.166 -3.93881 -1.70752 0
M  V30 1818 C 171.399 -4.49018 -2.88477 0
M  V30 1819 O 171.622 -4.03068 -4.036 0
M  V30 1820 O 170.556 -5.39852 -2.66164 0
M  V30 1821 H 174.382 -3.01441 -0.369769 0
M  V30 1822 H 171.967 -1.48945 -0.1165 0
M  V30 1823 H 173.849 -3.13156 -2.81978 0
M  V30 1824 H 172.524 -1.96089 -2.57548 0
M  V30 1825 H 171.431 -3.61713 -0.954714 0
M  V30 1826 H 172.764 -4.75396 -1.27513 0
M  V30 1827 N 174.416 0.165178 -1.56732 0
M  V30 1828 C 175.641 0.900253 -1.86843 0
M  V30 1829 C 176.066 1.74766 -0.695596 0
M  V30 1830 O 175.424 1.77786 0.35522 0
M  V30 1831 C 175.472 1.74777 -3.15413 0
M  V30 1832 O 174.576 2.85007 -2.98068 0
M  V30 1833 H 173.917 0.251832 -0.614391 0
M  V30 1834 H 176.447 0.161468 -2.03962 0
M  V30 1835 H 176.457 2.14646 -3.46974 0
M  V30 1836 H 175.132 1.12537 -4.00385 0
M  V30 1837 H 173.709 2.48676 -2.77875 0
M  V30 1838 N 175.894 1.51508 0.433938 0
M  V30 1839 C 176.844 1.69451 1.52546 0
M  V30 1840 C 177.828 0.548474 1.51263 0
M  V30 1841 O 179.02 0.804529 1.57659 0
M  V30 1842 C 176.149 1.82604 2.90707 0
M  V30 1843 C 175.235 3.03002 2.96733 0
M  V30 1844 N 175.626 4.26121 2.72496 0
M  V30 1845 C 173.924 3.02327 3.27894 0
M  V30 1846 C 174.625 5.07407 2.84452 0
M  V30 1847 N 173.601 4.42126 3.16269 0
M  V30 1848 H 177.403 2.62305 1.32564 0
M  V30 1849 H 174.917 1.49202 0.641297 0
M  V30 1850 H 176.914 1.93569 3.69238 0
M  V30 1851 H 175.574 0.909339 3.11707 0
M  V30 1852 H 176.585 4.55009 2.4736 0
M  V30 1853 H 173.262 2.20301 3.54646 0
M  V30 1854 H 174.652 6.15422 2.69639 0
M  V30 1855 N 177.372 -0.689602 1.41712 0
M  V30 1856 C 178.319 -1.80345 1.44029 0
M  V30 1857 C 179.289 -1.63478 0.293948 0
M  V30 1858 O 180.474 -1.84244 0.495869 0
M  V30 1859 C 177.614 -3.18272 1.33405 0
M  V30 1860 C 176.727 -3.46529 2.57956 0
M  V30 1861 C 175.862 -4.74103 2.39582 0
M  V30 1862 C 174.901 -4.95347 3.5958 0
M  V30 1863 N 174.038 -6.14151 3.40239 0
M  V30 1864 H 178.878 -1.77698 2.39222 0
M  V30 1865 H 176.415 -0.867688 1.18784 0
M  V30 1866 H 178.373 -3.97956 1.25246 0
M  V30 1867 H 177.003 -3.2008 0.418164 0
M  V30 1868 H 176.055 -2.61207 2.76542 0
M  V30 1869 H 177.367 -3.58126 3.47199 0
M  V30 1870 H 176.521 -5.61853 2.28924 0
M  V30 1871 H 175.26 -4.64763 1.47805 0
M  V30 1872 H 174.265 -4.06044 3.70686 0
M  V30 1873 H 175.49 -5.06542 4.52318 0
M  V30 1874 H 173.436 -6.06013 2.51167 0
M  V30 1875 H 173.353 -6.26543 4.23061 0
M  V30 1876 H 174.621 -7.04619 3.33365 0
M  V30 1877 N 178.85 -1.27639 -0.924453 0
M  V30 1878 C 179.783 -1.04966 -2.02626 0
M  V30 1879 C 180.761 0.0309505 -1.62571 0
M  V30 1880 O 181.945 -0.114846 -1.8815 0
M  V30 1881 C 179.072 -0.59292 -3.3347 0
M  V30 1882 C 178.118 -1.66858 -3.92506 0
M  V30 1883 S 178.951 -3.2619 -4.24689 0
M  V30 1884 C 180.107 -2.82325 -5.58609 0
M  V30 1885 H 180.34 -1.98252 -2.21547 0
M  V30 1886 H 177.873 -1.11506 -1.06798 0
M  V30 1887 H 179.831 -0.336086 -4.09122 0
M  V30 1888 H 178.492 0.319939 -3.12466 0
M  V30 1889 H 177.685 -1.30038 -4.86935 0
M  V30 1890 H 177.287 -1.87766 -3.2345 0
M  V30 1891 H 179.579 -2.2783 -6.38044 0
M  V30 1892 H 180.522 -3.75511 -6.00331 0
M  V30 1893 H 180.93 -2.21367 -5.19285 0
M  V30 1894 N 180.328 1.1314 -1.09713 0
M  V30 1895 C 181.577 1.83838 -0.829851 0
M  V30 1896 C 181.89 1.84599 0.646728 0
M  V30 1897 O 183.096 2.51218 1.02965 0
M  V30 1898 C 181.552 3.30069 -1.43466 0
M  V30 1899 C 181.16 3.37688 -2.94399 0
M  V30 1900 C 182.904 4.05788 -1.24645 0
M  V30 1901 C 180.811 4.78209 -3.47952 0
M  V30 1902 H 179.741 0.68877 -0.306777 0
M  V30 1903 H 182.392 1.27448 -1.3202 0
M  V30 1904 H 180.774 3.8628 -0.871996 0
M  V30 1905 H 181.948 2.91456 -3.56918 0
M  V30 1906 H 180.263 2.75436 -3.12289 0
M  V30 1907 H 182.86 5.09535 -1.62107 0
M  V30 1908 H 183.203 4.15878 -0.187357 0
M  V30 1909 H 183.736 3.55915 -1.77678 0
M  V30 1910 H 180.475 4.73311 -4.53495 0
M  V30 1911 H 179.995 5.24924 -2.90198 0
M  V30 1912 H 181.674 5.47133 -3.45332 0
M  V30 1913 N 181.806 0.884767 1.30421 0
M  V30 1914 C 183.083 0.423185 1.90967 0
M  V30 1915 C 183.463 -1.09605 1.80416 0
M  V30 1916 O 182.811 -1.93126 1.22125 0
M  V30 1917 C 183.021 0.921056 3.36627 0
M  V30 1918 C 184.369 0.955903 4.137 0
M  V30 1919 O 185.393 0.867706 3.4547 0
M  V30 1920 O 184.252 1.08614 5.35598 0
M  V30 1921 H 181.346 0.129369 0.816819 0
M  V30 1922 H 183.892 0.973653 1.3899 0
M  V30 1923 H 182.664 1.96489 3.3839 0
M  V30 1924 H 182.287 0.349741 3.96059 0
M  V30 1925 N 183.284 -1.43765 0.645699 0
M  V30 1926 C 184.214 -2.33471 -0.0370477 0
M  V30 1927 C 185.195 -1.49042 -0.819779 0
M  V30 1928 O 186.38 -1.77726 -0.782758 0
M  V30 1929 C 183.51 -3.32311 -1.0093 0
M  V30 1930 C 182.464 -4.2667 -0.337201 0
M  V30 1931 C 181.79 -5.1549 -1.42037 0
M  V30 1932 C 183.09 -5.16657 0.765706 0
M  V30 1933 H 184.784 -2.90809 0.712069 0
M  V30 1934 H 182.33 -1.39834 0.343876 0
M  V30 1935 H 184.283 -3.9396 -1.49578 0
M  V30 1936 H 183.007 -2.73213 -1.78948 0
M  V30 1937 H 181.666 -3.66374 0.128771 0
M  V30 1938 H 181.314 -4.52735 -2.1918 0
M  V30 1939 H 181.014 -5.79438 -0.975966 0
M  V30 1940 H 182.538 -5.80012 -1.90838 0
M  V30 1941 H 183.952 -5.72158 0.361702 0
M  V30 1942 H 182.349 -5.89286 1.13413 0
M  V30 1943 H 183.419 -4.56796 1.62683 0
M  V30 1944 N 184.763 -0.387143 -1.52771 0
M  V30 1945 C 185.988 0.198407 -2.06449 0
M  V30 1946 C 186.413 1.39918 -1.25716 0
M  V30 1947 O 185.771 1.79099 -0.281657 0
M  V30 1948 C 185.819 0.548893 -3.56398 0
M  V30 1949 O 184.923 1.64315 -3.78252 0
M  V30 1950 H 184.264 0.0237731 -0.663574 0
M  V30 1951 H 186.794 -0.553989 -1.96957 0
M  V30 1952 H 186.804 0.813812 -3.99801 0
M  V30 1953 H 185.479 -0.329005 -4.14597 0
M  V30 1954 H 184.056 1.37211 -3.46738 0
M  V30 1955 N 186.241 1.57166 -0.116904 0
M  V30 1956 C 187.489 1.94737 0.540533 0
M  V30 1957 C 187.81 1.00096 1.67349 0
M  V30 1958 O 187.08 0.0568854 1.95817 0
M  V30 1959 H 185.66 0.718981 0.202669 0
M  V30 1960 H 188.322 1.94017 -0.185353 0
M  V30 1961 H 187.418 2.97719 0.936483 0
M  V30 1962 N 187.719 -0.156864 1.56817 0
M  V30 1963 C 188.667 -1.21319 1.98455 0
M  V30 1964 C 189.661 -1.45025 0.875444 0
M  V30 1965 O 190.867 -1.45435 1.0606 0
M  V30 1966 H 187.242 -0.408142 0.631605 0
M  V30 1967 H 189.213 -0.835244 2.86472 0
M  V30 1968 C 187.962 -2.54148 2.37285 0
M  V30 1969 H 187.285 -2.36733 3.22176 0
M  V30 1970 H 188.725 -3.26712 2.70251 0
M  V30 1971 C 187.184 -3.13967 1.22173 0
M  V30 1972 O 187.714 -3.98357 0.517149 0
M  V30 1973 N 185.92 -2.7327 0.988536 0
M  V30 1974 H 185.467 -2.04744 1.56326 0
M  V30 1975 H 185.425 -3.13628 0.220209 0
M  V30 1976 N 189.197 -1.51736 -0.425897 0
M  V30 1977 C 190.608 -1.5732 -1.00536 0
M  V30 1978 C 190.959 -0.403537 -1.92005 0
M  V30 1979 O 190.084 0.478256 -2.11049 0
M  V30 1980 C 190.679 -2.85119 -1.8301 0
M  V30 1981 C 189.238 -2.93236 -2.35987 0
M  V30 1982 C 188.385 -2.52098 -1.15508 0
M  V30 1983 H 191.336 -1.57348 -0.206739 0
M  V30 1984 H 191.357 -2.69526 -2.68581 0
M  V30 1985 H 190.869 -3.7023 -1.16411 0
M  V30 1986 H 188.97 -2.12581 -3.06007 0
M  V30 1987 H 189.083 -3.9713 -2.68001 0
M  V30 1988 H 187.447 -2.05558 -1.50393 0
M  V30 1989 H 188.23 -3.39565 -0.505014 0
M  V30 1990 N 190.675 0.682077 -1.42076 0
M  V30 1991 C 191.921 1.44428 -1.42367 0
M  V30 1992 C 192.254 1.94164 -0.0373056 0
M  V30 1993 O 191.529 1.70429 0.937239 0
M  V30 1994 C 191.812 2.64654 -2.44194 0
M  V30 1995 C 191.665 2.20596 -3.91991 0
M  V30 1996 C 192.984 3.66865 -2.431 0
M  V30 1997 H 190.103 0.523834 -0.518428 0
M  V30 1998 H 192.745 0.77576 -1.73442 0
M  V30 1999 H 190.895 3.2169 -2.17826 0
M  V30 2000 H 192.567 1.68783 -4.29313 0
M  V30 2001 H 190.81 1.52242 -4.06208 0
M  V30 2002 H 191.481 3.06921 -4.58807 0
M  V30 2003 H 193.957 3.19531 -2.66532 0
M  V30 2004 H 192.833 4.48577 -3.16339 0
M  V30 2005 H 193.094 4.17493 -1.45437 0
M  V30 2006 N 192.153 1.28127 0.917671 0
M  V30 2007 C 193.083 1.14248 2.03641 0
M  V30 2008 C 194.064 0.0412748 1.7005 0
M  V30 2009 O 195.249 0.217566 1.92977 0
M  V30 2010 C 192.379 0.799431 3.37974 0
M  V30 2011 C 191.333 1.85497 3.85713 0
M  V30 2012 C 190.659 1.36565 5.16966 0
M  V30 2013 C 191.959 3.26085 4.08002 0
M  V30 2014 H 193.653 2.07835 2.15511 0
M  V30 2015 H 191.199 1.00064 1.03553 0
M  V30 2016 H 193.152 0.689114 4.15727 0
M  V30 2017 H 191.876 -0.172145 3.26146 0
M  V30 2018 H 190.535 1.95437 3.10161 0
M  V30 2019 H 190.183 0.383253 5.01538 0
M  V30 2020 H 189.883 2.07143 5.49878 0
M  V30 2021 H 191.407 1.26848 5.97279 0
M  V30 2022 H 192.821 3.19089 4.76293 0
M  V30 2023 H 191.218 3.94462 4.52238 0
M  V30 2024 H 192.288 3.70394 3.12948 0
M  V30 2025 N 193.631 -1.12557 1.10312 0
M  V30 2026 C 195.047 -1.36036 0.834649 0
M  V30 2027 C 195.247 -1.93946 -0.546539 0
M  V30 2028 O 194.303 -2.16484 -1.29966 0
M  V30 2029 C 195.616 -2.30312 1.9333 0
M  V30 2030 C 197.164 -2.43906 1.9616 0
M  V30 2031 C 197.639 -3.41496 3.05195 0
M  V30 2032 N 199.13 -3.49053 3.04494 0
M  V30 2033 C 199.865 -4.24471 3.85502 0
M  V30 2034 N 199.361 -5.02966 4.76442 0
M  V30 2035 N 201.154 -4.19864 3.73725 0
M  V30 2036 H 193.305 -0.733246 1.99342 0
M  V30 2037 H 195.568 -0.385234 0.866198 0
M  V30 2038 H 195.274 -1.94933 2.92735 0
M  V30 2039 H 195.148 -3.30421 1.81939 0
M  V30 2040 H 197.535 -2.78567 0.973886 0
M  V30 2041 H 197.616 -1.4369 2.11629 0
M  V30 2042 H 197.26 -3.07565 4.04186 0
M  V30 2043 H 197.19 -4.41539 2.86968 0
M  V30 2044 H 199.681 -2.93053 2.38596 0
M  V30 2045 H 199.994 -5.57846 5.34815 0
M  V30 2046 H 198.339 -5.02167 4.80472 0
M  V30 2047 H 201.53 -3.57623 3.02032 0
M  V30 2048 H 201.703 -4.78386 4.37093 0
M  V30 2049 N 195.109 -0.891671 -1.2995 0
M  V30 2050 C 196.358 -0.509521 -1.95158 0
M  V30 2051 C 196.671 0.947388 -1.71125 0
M  V30 2052 O 197.877 1.43669 -2.30372 0
M  V30 2053 C 196.333 -0.860315 -3.49466 0
M  V30 2054 C 195.941 -2.33545 -3.8231 0
M  V30 2055 C 197.685 -0.547687 -4.20952 0
M  V30 2056 C 195.592 -2.62752 -5.29826 0
M  V30 2057 H 194.522 -0.18682 -0.730489 0
M  V30 2058 H 197.173 -1.08756 -1.47798 0
M  V30 2059 H 195.555 -0.211285 -3.95436 0
M  V30 2060 H 196.729 -3.02936 -3.47227 0
M  V30 2061 H 195.044 -2.61629 -3.23944 0
M  V30 2062 H 197.641 -0.742854 -5.29515 0
M  V30 2063 H 197.984 0.51332 -4.13123 0
M  V30 2064 H 198.517 -1.1542 -3.80688 0
M  V30 2065 H 195.256 -3.6762 -5.42712 0
M  V30 2066 H 194.776 -1.97977 -5.66185 0
M  V30 2067 H 196.455 -2.48601 -5.97333 0
M  V30 2068 N 196.587 1.43421 -0.653314 0
M  V30 2069 C 197.817 2.05864 -0.174238 0
M  V30 2070 C 198.225 1.49052 1.16534 0
M  V30 2071 O 197.568 0.616481 1.73047 0
M  V30 2072 C 197.63 3.59499 -0.00875873 0
M  V30 2073 C 197.294 4.38893 -1.27364 0
M  V30 2074 C 198.291 4.70947 -2.20239 0
M  V30 2075 C 195.976 4.789 -1.51525 0
M  V30 2076 C 197.97 5.41916 -3.35568 0
M  V30 2077 C 195.657 5.49614 -2.67147 0
M  V30 2078 C 196.655 5.81044 -3.58994 0
M  V30 2079 O 196.343 6.50313 -4.72597 0
M  V30 2080 H 196.075 0.670345 -0.0872549 0
M  V30 2081 H 198.629 1.84913 -0.894226 0
M  V30 2082 H 196.859 3.79025 0.7666 0
M  V30 2083 H 198.548 4.0364 0.427687 0
M  V30 2084 H 199.314 4.40558 -2.02815 0
M  V30 2085 H 195.193 4.53843 -0.809158 0
M  V30 2086 H 198.737 5.66365 -4.07279 0
M  V30 2087 H 194.634 5.79419 -2.84505 0
M  V30 2088 H 195.402 6.68795 -4.71864 0
M  V30 2089 N 198.065 0.39524 1.52563 0
M  V30 2090 C 199.295 -0.184675 2.05773 0
M  V30 2091 C 199.703 -1.40571 1.26635 0
M  V30 2092 O 199.046 -1.81105 0.30769 0
M  V30 2093 C 199.108 -0.613551 3.54226 0
M  V30 2094 C 198.772 0.49484 4.54313 0
M  V30 2095 C 199.769 1.3541 5.01956 0
M  V30 2096 C 197.454 0.663565 4.97898 0
M  V30 2097 C 199.448 2.36716 5.91814 0
M  V30 2098 C 197.135 1.67996 5.87555 0
M  V30 2099 C 198.133 2.53017 6.34406 0
M  V30 2100 O 197.821 3.52917 7.22291 0
M  V30 2101 H 197.553 -0.030077 0.675331 0
M  V30 2102 H 200.107 0.560708 1.97599 0
M  V30 2103 H 198.337 -1.411 3.60038 0
M  V30 2104 H 200.026 -1.11981 3.90148 0
M  V30 2105 H 200.792 1.23509 4.6901 0
M  V30 2106 H 196.671 0.0114913 4.60999 0
M  V30 2107 H 200.215 3.03113 6.28306 0
M  V30 2108 H 196.112 1.79933 6.19915 0
M  V30 2109 H 196.88 3.48996 7.40367 0
M  V30 2110 N 199.544 -1.57102 0.125237 0
M  V30 2111 C 200.772 -1.99761 -0.538797 0
M  V30 2112 C 201.187 -1.00503 -1.59827 0
M  V30 2113 O 200.544 0.00119474 -1.825 0
M  V30 2114 C 200.595 -3.42408 -1.15927 0
M  V30 2115 O 200.316 -4.37869 -0.142143 0
M  V30 2116 C 201.817 -4.00232 -1.90602 0
M  V30 2117 H 199.037 -0.655772 -0.14214 0
M  V30 2118 H 201.581 -2.03383 0.213413 0
M  V30 2119 H 199.736 -3.39706 -1.86223 0
M  V30 2120 H 200.15 -5.21128 -0.593775 0
M  V30 2121 H 201.624 -5.02105 -2.29335 0
M  V30 2122 H 202.101 -3.39721 -2.78363 0
M  V30 2123 H 202.707 -4.06499 -1.25055 0
M  V30 2124 N 201.022 0.148545 -1.56898 0
M  V30 2125 C 202.247 0.880385 -1.87787 0
M  V30 2126 C 202.672 1.74018 -0.714093 0
M  V30 2127 O 202.03 1.78153 0.336343 0
M  V30 2128 C 202.078 1.71422 -3.17249 0
M  V30 2129 O 201.182 2.8183 -3.01074 0
M  V30 2130 H 200.523 0.245301 -0.617028 0
M  V30 2131 H 203.053 0.139826 -2.04122 0
M  V30 2132 H 203.063 2.10954 -3.49231 0
M  V30 2133 H 201.738 1.08284 -4.01556 0
M  V30 2134 H 200.315 2.45715 -2.80497 0
M  V30 2135 N 202.5 1.5196 0.417844 0
M  V30 2136 C 203.916 1.40569 0.755816 0
M  V30 2137 C 204.116 0.503316 1.95113 0
M  V30 2138 O 203.172 -0.0341925 2.52477 0
M  V30 2139 C 204.485 2.82947 1.01791 0
M  V30 2140 C 206.033 2.92231 1.12116 0
M  V30 2141 C 206.508 4.35559 1.41608 0
M  V30 2142 N 207.999 4.38753 1.48491 0
M  V30 2143 C 208.734 5.46705 1.7292 0
M  V30 2144 N 208.23 6.64788 1.95011 0
M  V30 2145 N 210.023 5.34209 1.74863 0
M  V30 2146 H 202.174 2.09168 -0.369098 0
M  V30 2147 H 204.437 0.942409 -0.102809 0
M  V30 2148 H 204.143 3.5106 0.212081 0
M  V30 2149 H 204.017 3.23462 1.94042 0
M  V30 2150 H 206.404 2.24304 1.9176 0
M  V30 2151 H 206.485 2.55185 0.177225 0
M  V30 2152 H 206.129 5.04042 0.624848 0
M  V30 2153 H 206.059 4.70133 2.37239 0
M  V30 2154 H 208.55 3.5363 1.33244 0
M  V30 2155 H 208.863 7.42845 2.13076 0
M  V30 2156 H 207.208 6.67869 1.92293 0
M  V30 2157 H 210.399 4.40937 1.57137 0
M  V30 2158 H 210.572 6.18415 1.93563 0
M  V30 2159 N 203.978 -0.674533 1.42435 0
M  V30 2160 C 205.389 -1.25514 1.38214 0
M  V30 2161 C 205.74 -1.96055 0.0755464 0
M  V30 2162 O 204.865 -2.00028 -0.8257 0
M  V30 2163 C 205.46 -2.28269 2.50357 0
M  V30 2164 C 204.019 -2.81856 2.49467 0
M  V30 2165 C 203.166 -1.56182 2.29134 0
M  V30 2166 H 206.117 -0.467902 1.51646 0
M  V30 2167 H 206.138 -3.10009 2.20624 0
M  V30 2168 H 205.65 -1.769 3.45439 0
M  V30 2169 H 203.751 -3.37346 1.58204 0
M  V30 2170 H 203.864 -3.30854 3.46515 0
M  V30 2171 H 202.228 -1.82761 1.774 0
M  V30 2172 H 203.011 -1.06778 3.26272 0
M  V30 2173 N 205.456 -1.28612 -0.910864 0
M  V30 2174 C 206.419 -1.12803 -1.9952 0
M  V30 2175 C 207.419 -0.0668264 -1.60661 0
M  V30 2176 O 208.609 -0.312847 -1.71368 0
M  V30 2177 C 205.741 -0.72254 -3.33155 0
M  V30 2178 H 206.934 -2.09109 -2.14973 0
M  V30 2179 H 204.487 -1.11639 -1.09391 0
M  V30 2180 H 205.222 0.241152 -3.23402 0
M  V30 2181 H 205.007 -1.48916 -3.62721 0
M  V30 2182 H 206.497 -0.634666 -4.12749 0
M  V30 2183 N 206.934 1.1197 -1.10907 0
M  V30 2184 C 207.864 2.19928 -0.784473 0
M  V30 2185 C 208.845 1.6833 0.244726 0
M  V30 2186 O 210.03 1.93892 0.109418 0
M  V30 2187 C 207.16 3.46597 -0.220827 0
M  V30 2188 C 206.114 4.11376 -1.18127 0
M  V30 2189 C 205.44 5.32554 -0.478594 0
M  V30 2190 C 206.74 4.56945 -2.52979 0
M  V30 2191 H 208.434 2.47337 -1.68715 0
M  V30 2192 H 205.98 1.18879 -0.812642 0
M  V30 2193 H 207.933 4.21396 0.0184278 0
M  V30 2194 H 206.657 3.1863 0.717113 0
M  V30 2195 H 205.316 3.38564 -1.40606 0
M  V30 2196 H 204.964 5.00856 0.463976 0
M  V30 2197 H 204.664 5.76844 -1.11912 0
M  V30 2198 H 206.188 6.10096 -0.248 0
M  V30 2199 H 207.602 5.23093 -2.3462 0
M  V30 2200 H 205.999 5.1203 -3.12962 0
M  V30 2201 H 207.069 3.70676 -3.12614 0
M  V30 2202 N 208.412 0.89855 1.29475 0
M  V30 2203 C 209.659 0.523882 1.95606 0
M  V30 2204 C 209.987 -0.929608 1.70847 0
M  V30 2205 O 209.242 -1.67401 1.01367 0
M  V30 2206 C 209.541 0.761398 3.49195 0
M  V30 2207 C 209.207 2.19207 3.94029 0
M  V30 2208 C 207.869 2.58326 4.05982 0
M  V30 2209 C 210.221 3.12379 4.17216 0
M  V30 2210 C 207.549 3.898 4.38489 0
M  V30 2211 C 209.901 4.43401 4.51197 0
M  V30 2212 C 208.565 4.82394 4.61359 0
M  V30 2213 H 207.835 0.191702 0.715773 0
M  V30 2214 H 210.482 1.13699 1.54094 0
M  V30 2215 H 208.787 0.0653622 3.91745 0
M  V30 2216 H 210.484 0.450904 3.98457 0
M  V30 2217 H 207.074 1.87846 3.85242 0
M  V30 2218 H 211.258 2.83371 4.07449 0
M  V30 2219 H 206.514 4.19734 4.44559 0
M  V30 2220 H 210.688 5.15623 4.68087 0
M  V30 2221 H 208.315 5.84306 4.86303 0
M  V30 2222 N 209.89 -1.43072 0.660911 0
M  V30 2223 C 211.118 -2.06067 0.185422 0
M  V30 2224 C 211.533 -1.49582 -1.15198 0
M  V30 2225 O 210.89 -0.630134 -1.71276 0
M  V30 2226 C 210.941 -3.61371 0.0966523 0
M  V30 2227 O 210.662 -4.15758 1.38119 0
M  V30 2228 C 212.163 -4.41455 -0.403996 0
M  V30 2229 H 209.383 -0.664459 0.0934604 0
M  V30 2230 H 211.927 -1.83447 0.90373 0
M  V30 2231 H 210.082 -3.8315 -0.572259 0
M  V30 2232 H 210.496 -5.09499 1.24542 0
M  V30 2233 H 211.97 -5.50437 -0.415045 0
M  V30 2234 H 212.447 -4.15036 -1.43674 0
M  V30 2235 H 213.053 -4.24663 0.232691 0
M  V30 2236 N 211.368 -0.403325 -1.52352 0
M  V30 2237 C 212.298 0.416205 -2.29761 0
M  V30 2238 C 213.279 1.05123 -1.33728 0
M  V30 2239 O 214.464 1.06134 -1.62632 0
M  V30 2240 C 211.594 1.53624 -3.11475 0
M  V30 2241 C 210.548 1.02653 -4.15507 0
M  V30 2242 C 209.874 2.23971 -4.85532 0
M  V30 2243 C 211.174 0.08463 -5.22231 0
M  V30 2244 H 212.868 -0.229701 -2.98518 0
M  V30 2245 H 210.414 -0.111913 -1.43564 0
M  V30 2246 H 212.367 2.1165 -3.64393 0
M  V30 2247 H 211.091 2.20994 -2.40477 0
M  V30 2248 H 209.75 0.46871 -3.63591 0
M  V30 2249 H 209.398 2.89883 -4.11068 0
M  V30 2250 H 209.098 1.90521 -5.55856 0
M  V30 2251 H 210.622 2.82614 -5.41259 0
M  V30 2252 H 212.036 0.573509 -5.70424 0
M  V30 2253 H 210.433 -0.160783 -5.99885 0
M  V30 2254 H 211.503 -0.86237 -4.7717 0
M  V30 2255 N 212.846 1.57033 -0.133567 0
M  V30 2256 C 214.086 1.97575 0.523789 0
M  V30 2257 C 214.45 1.01605 1.62912 0
M  V30 2258 O 215.651 1.3114 2.3464 0
M  V30 2259 C 213.922 3.42256 1.02935 0
M  V30 2260 S 215.481 4.04817 1.69319 0
M  V30 2261 H 212.299 0.690427 0.169799 0
M  V30 2262 H 214.901 1.94234 -0.222101 0
M  V30 2263 H 213.605 4.09842 0.213917 0
M  V30 2264 H 213.136 3.4928 1.81017 0
M  V30 2265 H 215.151 3.96767 2.97977 0
M  V30 2266 N 214.325 -0.140222 1.56975 0
M  V30 2267 C 215.288 -1.15689 1.97861 0
M  V30 2268 C 216.288 -1.3549 0.865974 0
M  V30 2269 O 217.478 -1.32367 1.13246 0
M  V30 2270 C 214.61 -2.51582 2.30042 0
M  V30 2271 H 215.803 -0.805971 2.88867 0
M  V30 2272 H 213.356 -0.383801 1.51515 0
M  V30 2273 H 214.091 -2.91632 1.41849 0
M  V30 2274 H 213.876 -2.38569 3.11171 0
M  V30 2275 H 215.366 -3.24792 2.62488 0
M  V30 2276 N 215.803 -1.52179 -0.40978 0
M  V30 2277 C 217.051 -1.65878 -1.15451 0
M  V30 2278 C 217.372 -0.390771 -1.91044 0
M  V30 2279 O 216.642 0.594323 -1.86667 0
M  V30 2280 H 215.222 -0.611405 -0.429177 0
M  V30 2281 H 217.884 -1.89219 -0.467134 0
M  V30 2282 H 216.98 -2.49954 -1.86894 0
M  V30 2283 N 217.281 0.66697 -1.42791 0
M  V30 2284 C 218.229 1.80157 -1.47127 0
M  V30 2285 C 219.223 1.65825 -0.346199 0
M  V30 2286 O 220.429 1.72338 -0.519572 0
M  V30 2287 H 216.804 0.594158 -0.460956 0
M  V30 2288 H 218.775 1.73619 -2.42692 0
M  V30 2289 C 217.524 3.18351 -1.39813 0
M  V30 2290 H 216.847 3.3001 -2.25684 0
M  V30 2291 H 218.287 3.97736 -1.46908 0
M  V30 2292 C 216.746 3.36707 -0.11391 0
M  V30 2293 O 217.276 3.93027 0.830241 0
M  V30 2294 N 215.482 2.90586 -0.0285295 0
M  V30 2295 H 215.029 2.4494 -0.79764 0
M  V30 2296 H 214.987 3.03245 0.830063 0
M  V30 2297 N 218.759 1.29093 0.90403 0
M  V30 2298 C 219.669 1.15727 2.0407 0
M  V30 2299 C 220.685 0.0815308 1.73809 0
M  V30 2300 O 221.861 0.292749 1.99261 0
M  V30 2301 C 218.926 0.830424 3.36608 0
M  V30 2302 C 217.987 1.98955 3.80415 0
M  V30 2303 C 217.22 1.6782 5.06628 0
M  V30 2304 O 217.443 0.597105 5.67266 0
M  V30 2305 O 216.377 2.52486 5.46383 0
M  V30 2306 H 220.203 2.11171 2.18267 0
M  V30 2307 H 217.788 1.08504 1.027 0
M  V30 2308 H 219.67 0.662521 4.16159 0
M  V30 2309 H 218.345 -0.0942678 3.23563 0
M  V30 2310 H 217.252 2.21267 3.01648 0
M  V30 2311 H 218.585 2.89529 3.98037 0
M  V30 2312 N 220.237 -1.11381 1.11499 0
M  V30 2313 C 221.167 -2.19509 0.796125 0
M  V30 2314 C 222.148 -1.68458 -0.235796 0
M  V30 2315 O 223.333 -1.93947 -0.0991344 0
M  V30 2316 C 220.463 -3.46475 0.239205 0
M  V30 2317 C 219.417 -4.10744 1.20307 0
M  V30 2318 C 218.743 -5.32293 0.50683 0
M  V30 2319 C 220.043 -4.55597 2.55399 0
M  V30 2320 H 221.737 -2.46439 1.70024 0
M  V30 2321 H 219.283 -1.18446 0.818935 0
M  V30 2322 H 221.236 -4.214 0.00392006 0
M  V30 2323 H 219.96 -3.19006 -0.700206 0
M  V30 2324 H 218.619 -3.37813 1.42399 0
M  V30 2325 H 218.267 -5.01095 -0.437408 0
M  V30 2326 H 217.967 -5.76243 1.1497 0
M  V30 2327 H 219.491 -6.09956 0.280351 0
M  V30 2328 H 220.905 -5.21841 2.37391 0
M  V30 2329 H 219.302 -5.10363 3.15673 0
M  V30 2330 H 220.372 -3.69013 3.14575 0
M  V30 2331 N 221.715 -0.905404 -1.28997 0
M  V30 2332 C 222.962 -0.534248 -1.95325 0
M  V30 2333 C 223.29 0.920535 -1.71337 0
M  V30 2334 O 222.545 1.66861 -1.02254 0
M  V30 2335 C 222.844 -0.779906 -3.48787 0
M  V30 2336 C 222.51 -2.21293 -3.92861 0
M  V30 2337 C 221.172 -2.60475 -4.04606 0
M  V30 2338 C 223.524 -3.14587 -4.15553 0
M  V30 2339 C 220.852 -3.9212 -4.36416 0
M  V30 2340 C 223.204 -4.45787 -4.48839 0
M  V30 2341 C 221.868 -4.84834 -4.58794 0
M  V30 2342 H 221.138 -0.195495 -0.714747 0
M  V30 2343 H 223.785 -1.14514 -1.53488 0
M  V30 2344 H 222.09 -0.0861365 -3.91705 0
M  V30 2345 H 223.787 -0.472029 -3.98212 0
M  V30 2346 H 220.377 -1.89887 -3.84241 0
M  V30 2347 H 224.561 -2.85528 -4.0594 0
M  V30 2348 H 219.817 -4.22086 -4.42327 0
M  V30 2349 H 223.991 -5.18098 -4.65346 0
M  V30 2350 H 221.618 -5.86877 -4.83197 0
M  V30 2351 N 223.193 1.4272 -0.668489 0
M  V30 2352 C 224.423 2.05668 -0.196063 0
M  V30 2353 C 224.831 1.5028 1.14946 0
M  V30 2354 O 224.174 0.6348 1.72383 0
M  V30 2355 C 224.236 3.59469 -0.0468879 0
M  V30 2356 C 223.9 4.37518 -1.32012 0
M  V30 2357 C 224.897 4.68584 -2.25222 0
M  V30 2358 C 222.582 4.77266 -1.56596 0
M  V30 2359 C 224.576 5.38326 -3.41297 0
M  V30 2360 C 222.263 5.4675 -2.72962 0
M  V30 2361 C 223.261 5.77204 -3.65137 0
M  V30 2362 O 222.949 6.45264 -4.79468 0
M  V30 2363 H 222.681 0.669382 -0.0943599 0
M  V30 2364 H 225.235 1.83954 -0.913788 0
M  V30 2365 H 223.465 3.79817 0.726357 0
M  V30 2366 H 225.154 4.04071 0.384852 0
M  V30 2367 H 225.92 4.38382 -2.07477 0
M  V30 2368 H 221.799 4.52959 -0.857249 0
M  V30 2369 H 225.343 5.62014 -4.13263 0
M  V30 2370 H 221.24 5.76369 -2.90635 0
M  V30 2371 H 222.008 6.63753 -4.78931 0
M  V30 2372 N 224.671 0.411399 1.52136 0
M  V30 2373 C 225.911 -0.163143 2.03748 0
M  V30 2374 C 226.275 -1.42187 1.29022 0
M  V30 2375 O 227.476 -2.075 1.70872 0
M  V30 2376 C 225.747 -0.402651 3.55125 0
M  V30 2377 S 227.306 -0.944315 4.28519 0
M  V30 2378 H 224.124 -0.0439833 0.709638 0
M  V30 2379 H 226.726 0.56484 1.87163 0
M  V30 2380 H 225.43 0.520212 4.0709 0
M  V30 2381 H 224.961 -1.15844 3.75957 0
M  V30 2382 H 226.976 -2.22463 4.43536 0
M  V30 2383 N 226.149 -1.5696 0.141893 0
M  V30 2384 C 227.079 -2.19516 -0.795936 0
M  V30 2385 C 228.06 -1.14187 -1.26077 0
M  V30 2386 O 229.245 -1.42511 -1.31925 0
M  V30 2387 C 226.375 -2.81272 -2.03723 0
M  V30 2388 C 225.329 -3.92384 -1.70936 0
M  V30 2389 C 224.655 -4.41052 -3.02287 0
M  V30 2390 C 225.955 -5.13403 -0.959954 0
M  V30 2391 H 227.649 -2.98138 -0.274596 0
M  V30 2392 H 225.195 -1.43406 -0.130636 0
M  V30 2393 H 227.148 -3.237 -2.69808 0
M  V30 2394 H 225.872 -1.99973 -2.58221 0
M  V30 2395 H 224.531 -3.50566 -1.07232 0
M  V30 2396 H 224.179 -3.56582 -3.54765 0
M  V30 2397 H 223.879 -5.15993 -2.81114 0
M  V30 2398 H 225.403 -4.86146 -3.69451 0
M  V30 2399 H 226.817 -5.52706 -1.52279 0
M  V30 2400 H 225.214 -5.94073 -0.848357 0
M  V30 2401 H 226.284 -4.84875 0.0492434 0
M  V30 2402 N 227.627 0.131896 -1.57047 0
M  V30 2403 C 228.557 1.16384 -2.02428 0
M  V30 2404 C 229.538 1.43936 -0.90644 0
M  V30 2405 O 230.723 1.54599 -1.17528 0
M  V30 2406 C 227.853 2.49328 -2.4177 0
M  V30 2407 C 226.807 2.36266 -3.56879 0
M  V30 2408 C 226.133 3.74057 -3.8208 0
M  V30 2409 C 227.433 1.834 -4.89042 0
M  V30 2410 H 229.127 0.786433 -2.88887 0
M  V30 2411 H 226.673 0.376855 -1.38981 0
M  V30 2412 H 228.626 3.21759 -2.7212 0
M  V30 2413 H 227.35 2.88934 -1.52266 0
M  V30 2414 H 226.009 1.66286 -3.26718 0
M  V30 2415 H 225.657 4.11125 -2.89803 0
M  V30 2416 H 225.357 3.66174 -4.59554 0
M  V30 2417 H 226.881 4.48012 -4.1487 0
M  V30 2418 H 228.295 2.45636 -5.18011 0
M  V30 2419 H 226.692 1.8637 -5.70426 0
M  V30 2420 H 227.762 0.790662 -4.7841 0
M  V30 2421 N 229.106 1.52395 0.401703 0
M  V30 2422 C 230.336 1.70429 1.1678 0
M  V30 2423 C 230.744 0.416702 1.84554 0
M  V30 2424 O 230.087 -0.617697 1.73003 0
M  V30 2425 C 230.149 2.78919 2.26814 0
M  V30 2426 C 229.813 4.20437 1.79113 0
M  V30 2427 C 230.81 5.04028 1.27482 0
M  V30 2428 C 228.495 4.66704 1.85722 0
M  V30 2429 C 230.489 6.31961 0.830913 0
M  V30 2430 C 228.176 5.94625 1.40942 0
M  V30 2431 C 229.174 6.77082 0.897128 0
M  V30 2432 O 228.862 8.02607 0.455822 0
M  V30 2433 H 228.594 0.574272 0.356634 0
M  V30 2434 H 231.148 1.99767 0.477724 0
M  V30 2435 H 229.378 2.44973 2.99207 0
M  V30 2436 H 231.067 2.8548 2.88541 0
M  V30 2437 H 231.833 4.69471 1.21744 0
M  V30 2438 H 227.712 4.0262 2.24539 0
M  V30 2439 H 231.256 6.96271 0.430368 0
M  V30 2440 H 227.153 6.28688 1.46362 0
M  V30 2441 H 227.921 8.16453 0.578457 0
M  V30 2442 N 230.584 -0.659388 1.43143 0
M  V30 2443 C 231.514 -1.78422 1.50625 0
M  V30 2444 C 232.495 -1.66216 0.361443 0
M  V30 2445 O 233.68 -1.85404 0.577834 0
M  V30 2446 C 230.81 -3.16815 1.42287 0
M  V30 2447 C 229.764 -3.43777 2.54954 0
M  V30 2448 C 229.09 -4.81905 2.31671 0
M  V30 2449 C 230.39 -3.39134 3.97222 0
M  V30 2450 H 232.084 -1.72417 2.44771 0
M  V30 2451 H 229.63 -0.828084 1.17808 0
M  V30 2452 H 231.583 -3.95253 1.46127 0
M  V30 2453 H 230.307 -3.23534 0.446435 0
M  V30 2454 H 228.966 -2.67707 2.50457 0
M  V30 2455 H 228.614 -4.85294 1.32284 0
M  V30 2456 H 228.314 -5.00906 3.07192 0
M  V30 2457 H 229.838 -5.62609 2.37284 0
M  V30 2458 H 231.252 -4.07518 4.03239 0
M  V30 2459 H 229.649 -3.69671 4.72719 0
M  V30 2460 H 230.719 -2.37426 4.22797 0
M  V30 2461 N 232.062 -1.29571 -0.897171 0
M  V30 2462 C 233.309 -1.17689 -1.6479 0
M  V30 2463 C 233.637 0.27107 -1.92602 0
M  V30 2464 O 232.892 1.21193 -1.53658 0
M  V30 2465 C 233.191 -1.9382 -3.00281 0
M  V30 2466 C 232.857 -3.43522 -2.92068 0
M  V30 2467 C 231.519 -3.84348 -2.89535 0
M  V30 2468 C 233.871 -4.38906 -2.81089 0
M  V30 2469 C 231.199 -5.18869 -2.73846 0
M  V30 2470 C 233.551 -5.73521 -2.66939 0
M  V30 2471 C 232.215 -6.13601 -2.62774 0
M  V30 2472 H 231.485 -0.430654 -0.603008 0
M  V30 2473 H 234.132 -1.60536 -1.04404 0
M  V30 2474 H 232.437 -1.4357 -3.64547 0
M  V30 2475 H 234.134 -1.82028 -3.57305 0
M  V30 2476 H 230.724 -3.11072 -2.94842 0
M  V30 2477 H 234.908 -4.08315 -2.82121 0
M  V30 2478 H 230.164 -5.4903 -2.69027 0
M  V30 2479 H 234.338 -6.47078 -2.57416 0
M  V30 2480 H 231.965 -7.17786 -2.50375 0
M  V30 2481 N 233.54 1.10788 -1.12088 0
M  V30 2482 C 234.49 2.15158 -0.754401 0
M  V30 2483 C 235.474 1.59026 0.244846 0
M  V30 2484 O 236.666 1.76927 0.0509097 0
M  V30 2485 C 233.795 3.42677 -0.206657 0
M  V30 2486 C 232.881 4.05751 -1.23398 0
M  V30 2487 N 233.272 4.43582 -2.43041 0
M  V30 2488 C 231.57 4.32764 -1.07848 0
M  V30 2489 C 232.271 4.93085 -3.08613 0
M  V30 2490 N 231.247 4.89664 -2.36072 0
M  V30 2491 H 235.049 2.42195 -1.6649 0
M  V30 2492 H 232.563 1.27872 -1.00112 0
M  V30 2493 H 234.56 4.16834 0.0740646 0
M  V30 2494 H 233.22 3.17101 0.698342 0
M  V30 2495 H 234.231 4.35395 -2.80449 0
M  V30 2496 H 230.908 4.16863 -0.230483 0
M  V30 2497 H 232.298 5.31933 -4.10483 0
M  V30 2498 N 235.018 0.912232 1.28515 0
M  V30 2499 C 236.265 0.544599 1.95039 0
M  V30 2500 C 236.593 -0.911435 1.71823 0
M  V30 2501 O 235.848 -1.66317 1.03137 0
M  V30 2502 C 236.147 0.798392 3.48368 0
M  V30 2503 C 235.813 2.23374 3.91682 0
M  V30 2504 C 234.475 2.62617 4.03219 0
M  V30 2505 C 236.827 3.16786 4.13879 0
M  V30 2506 C 234.155 3.94429 4.3433 0
M  V30 2507 C 236.507 4.48161 4.46469 0
M  V30 2508 C 235.171 4.8726 4.56217 0
M  V30 2509 H 234.441 0.199283 0.7137 0
M  V30 2510 H 237.088 1.15327 1.52879 0
M  V30 2511 H 235.393 0.106908 3.91654 0
M  V30 2512 H 237.09 0.493141 3.97956 0
M  V30 2513 H 233.68 1.91922 3.83228 0
M  V30 2514 H 237.864 2.87677 4.0442 0
M  V30 2515 H 233.12 4.24426 4.40082 0
M  V30 2516 H 237.294 5.20559 4.62592 0
M  V30 2517 H 234.921 5.89431 4.80078 0
M  V30 2518 N 236.496 -1.42363 0.676048 0
M  V30 2519 C 237.721 -2.06377 0.205705 0
M  V30 2520 C 238.146 -1.50463 -1.12883 0
M  V30 2521 O 237.504 -0.623619 -1.70237 0
M  V30 2522 C 237.552 -3.60277 0.152655 0
M  V30 2523 O 236.656 -4.02935 -0.87845 0
M  V30 2524 H 235.997 -0.655588 0.105359 0
M  V30 2525 H 238.527 -1.82475 0.925412 0
M  V30 2526 H 238.537 -4.07993 -0.0230675 0
M  V30 2527 H 237.212 -4.00346 1.12675 0
M  V30 2528 H 235.789 -3.66764 -0.673668 0
M  V30 2529 N 237.974 -0.419461 -1.51915 0
M  V30 2530 C 238.884 0.407528 -2.31033 0
M  V30 2531 C 239.9 1.04413 -1.3919 0
M  V30 2532 O 241.076 1.0434 -1.72265 0
M  V30 2533 C 238.141 1.50365 -3.12396 0
M  V30 2534 C 237.202 0.889029 -4.19994 0
M  V30 2535 C 236.435 1.93291 -4.97468 0
M  V30 2536 O 236.658 3.15259 -4.75361 0
M  V30 2537 O 235.592 1.53339 -5.8204 0
M  V30 2538 H 239.418 -0.237865 -3.02767 0
M  V30 2539 H 237.003 -0.182413 -1.48282 0
M  V30 2540 H 238.885 2.13975 -3.63032 0
M  V30 2541 H 237.56 2.13345 -2.43445 0
M  V30 2542 H 236.467 0.215353 -3.7348 0
M  V30 2543 H 237.8 0.302991 -4.91267 0
M  V30 2544 N 239.452 1.56882 -0.150215 0
M  V30 2545 C 240.7 1.9584 0.499105 0
M  V30 2546 C 241.021 1.03623 1.65188 0
M  V30 2547 O 240.291 0.0984084 1.95653 0
M  V30 2548 H 238.871 0.723119 0.187373 0
M  V30 2549 H 241.533 1.9358 -0.226466 0
M  V30 2550 H 240.629 2.99638 0.873122 0
M  V30 2551 N 240.93 -0.123565 1.57115 0
M  V30 2552 C 242.341 -0.681198 1.73829 0
M  V30 2553 C 242.692 -1.80535 0.768214 0
M  V30 2554 O 241.817 -2.16317 -0.0599103 0
M  V30 2555 C 242.412 -1.24246 3.15196 0
M  V30 2556 C 240.971 -1.74643 3.33432 0
M  V30 2557 C 240.118 -0.644284 2.69711 0
M  V30 2558 H 243.069 0.102315 1.5837 0
M  V30 2559 H 243.09 -2.11216 3.16493 0
M  V30 2560 H 242.602 -0.424062 3.85776 0
M  V30 2561 H 240.703 -2.58974 2.67886 0
M  V30 2562 H 240.816 -1.85902 4.41562 0
M  V30 2563 H 239.18 -1.07676 2.3082 0
M  V30 2564 H 239.963 0.163058 3.42913 0
M  V30 2565 N 242.408 -1.52605 -0.393616 0
M  V30 2566 C 243.338 -1.80022 -1.48709 0
M  V30 2567 C 244.319 -0.651995 -1.57108 0
M  V30 2568 O 245.504 -0.89913 -1.72132 0
M  V30 2569 C 242.634 -1.96492 -2.86371 0
M  V30 2570 C 241.588 -3.12161 -2.92813 0
M  V30 2571 C 240.914 -3.13877 -4.3288 0
M  V30 2572 C 242.214 -4.51322 -2.6288 0
M  V30 2573 H 243.908 -2.71589 -1.26015 0
M  V30 2574 H 241.454 -1.30684 -0.604778 0
M  V30 2575 H 243.407 -2.14255 -3.62867 0
M  V30 2576 H 242.131 -1.01611 -3.10391 0
M  V30 2577 H 240.79 -2.94173 -2.18764 0
M  V30 2578 H 240.438 -2.16687 -4.53933 0
M  V30 2579 H 240.138 -3.91576 -4.38112 0
M  V30 2580 H 241.662 -3.33789 -5.1129 0
M  V30 2581 H 243.076 -4.69435 -3.29096 0
M  V30 2582 H 241.473 -5.31053 -2.79468 0
M  V30 2583 H 242.543 -4.58353 -1.58242 0
M  V30 2584 N 243.887 0.651787 -1.4349 0
M  V30 2585 C 245.133 1.41376 -1.45398 0
M  V30 2586 C 245.466 1.94041 -0.0784823 0
M  V30 2587 O 244.741 1.72379 0.900878 0
M  V30 2588 C 245.024 2.59414 -2.49752 0
M  V30 2589 C 244.877 2.12232 -3.96582 0
M  V30 2590 C 246.196 3.61626 -2.50827 0
M  V30 2591 H 243.315 0.512719 -0.529422 0
M  V30 2592 H 245.957 0.738796 -1.75048 0
M  V30 2593 H 244.107 3.16997 -2.246 0
M  V30 2594 H 245.779 1.59639 -4.32797 0
M  V30 2595 H 244.022 1.43592 -4.09346 0
M  V30 2596 H 244.693 2.9712 -4.65214 0
M  V30 2597 H 247.169 3.13805 -2.7325 0
M  V30 2598 H 246.045 4.41766 -3.25783 0
M  V30 2599 H 246.306 4.14314 -1.5426 0
M  V30 2600 N 245.365 1.30045 0.890287 0
M  V30 2601 C 246.613 1.18327 1.63839 0
M  V30 2602 C 246.934 -0.263455 1.93212 0
M  V30 2603 O 246.204 -1.17856 1.56482 0
M  V30 2604 H 244.784 0.434933 0.607324 0
M  V30 2605 H 247.446 1.631 1.06698 0
M  V30 2606 H 246.542 1.74024 2.59079 0
M  V30 2607 N 246.843 -1.10192 1.12674 0
M  V30 2608 C 248.068 -1.86523 0.906853 0
M  V30 2609 C 248.493 -1.80221 -0.538711 0
M  V30 2610 O 247.851 -1.17396 -1.38158 0
M  V30 2611 C 247.899 -3.32758 1.3894 0
M  V30 2612 O 247.003 -4.08449 0.5695 0
M  V30 2613 H 246.344 -0.578678 0.325619 0
M  V30 2614 H 248.874 -1.39203 1.49946 0
M  V30 2615 H 248.884 -3.83608 1.38958 0
M  V30 2616 H 247.559 -3.36661 2.44197 0
M  V30 2617 H 246.136 -3.67427 0.636528 0
M  V30 2618 N 248.321 -0.919034 -1.28029 0
M  V30 2619 C 249.567 -0.555757 -1.95036 0
M  V30 2620 C 249.9 0.899198 -1.72128 0
M  V30 2621 O 249.175 1.64023 -1.04531 0
M  V30 2622 C 249.458 -0.872024 -3.49382 0
M  V30 2623 C 249.311 -2.3801 -3.81669 0
M  V30 2624 C 250.63 -0.37185 -4.38526 0
M  V30 2625 H 247.749 -0.203386 -0.708381 0
M  V30 2626 H 250.391 -1.14924 -1.51303 0
M  V30 2627 H 248.541 -0.366946 -3.86763 0
M  V30 2628 H 250.213 -2.9562 -3.54128 0
M  V30 2629 H 248.456 -2.83289 -3.28526 0
M  V30 2630 H 249.127 -2.55192 -4.8947 0
M  V30 2631 H 251.603 -0.804602 -4.08247 0
M  V30 2632 H 250.479 -0.622173 -5.45362 0
M  V30 2633 H 250.74 0.727934 -4.36066 0
M  V30 2634 N 249.799 1.42003 -0.683588 0
M  V30 2635 C 251.047 2.01015 -0.209101 0
M  V30 2636 C 251.368 1.54365 1.19149 0
M  V30 2637 O 250.638 0.769083 1.80172 0
M  V30 2638 H 249.218 0.743294 -0.074315 0
M  V30 2639 H 251.88 1.73798 -0.882066 0
M  V30 2640 H 250.976 3.11343 -0.2172 0
M  V30 2641 N 251.277 0.427512 1.51691 0
M  V30 2642 C 252.207 -0.3796 2.30394 0
M  V30 2643 C 253.188 -1.02982 1.35384 0
M  V30 2644 O 254.373 -1.03534 1.643 0
M  V30 2645 C 251.503 -1.48649 3.1388 0
M  V30 2646 C 250.457 -0.960294 4.17088 0
M  V30 2647 C 249.783 -2.16219 4.89033 0
M  V30 2648 C 251.083 -0.00153679 5.223 0
M  V30 2649 H 252.777 0.277164 2.98114 0
M  V30 2650 H 250.323 0.134739 1.43368 0
M  V30 2651 H 252.276 -2.05826 3.67714 0
M  V30 2652 H 251 -2.1714 2.43962 0
M  V30 2653 H 249.659 -0.410806 3.64291 0
M  V30 2654 H 249.307 -2.83307 4.15628 0
M  V30 2655 H 249.007 -1.81654 5.58816 0
M  V30 2656 H 250.531 -2.73968 5.45687 0
M  V30 2657 H 251.945 -0.482687 5.71264 0
M  V30 2658 H 250.342 0.256199 5.99553 0
M  V30 2659 H 251.412 0.938174 4.75738 0
M  V30 2660 N 252.755 -1.56801 0.158532 0
M  V30 2661 C 254.002 -1.9649 -0.489679 0
M  V30 2662 C 254.33 -1.04394 -1.6411 0
M  V30 2663 O 253.585 -0.0754401 -1.95555 0
M  V30 2664 C 253.884 -3.4235 -1.02623 0
M  V30 2665 C 253.55 -4.50899 0.00794526 0
M  V30 2666 C 252.212 -4.80312 0.292207 0
M  V30 2667 C 254.564 -5.16333 0.710584 0
M  V30 2668 C 251.892 -5.72461 1.28472 0
M  V30 2669 C 254.244 -6.09553 1.69199 0
M  V30 2670 C 252.908 -6.37339 1.98383 0
M  V30 2671 H 252.178 -0.719009 -0.179186 0
M  V30 2672 H 254.825 -1.8989 0.247798 0
M  V30 2673 H 253.13 -3.45838 -1.84128 0
M  V30 2674 H 254.827 -3.70393 -1.53656 0
M  V30 2675 H 251.417 -4.28015 -0.22379 0
M  V30 2676 H 255.601 -4.93732 0.504174 0
M  V30 2677 H 250.857 -5.92278 1.51714 0
M  V30 2678 H 255.031 -6.59327 2.24189 0
M  V30 2679 H 252.658 -7.08546 2.7544 0
M  V30 2680 N 254.233 0.115231 -1.57178 0
M  V30 2681 C 255.649 0.468877 -1.52557 0
M  V30 2682 C 255.849 1.81649 -0.872125 0
M  V30 2683 O 254.905 2.48347 -0.45606 0
M  V30 2684 C 256.218 0.4499 -2.97315 0
M  V30 2685 C 257.766 0.533185 -3.08425 0
M  V30 2686 C 258.241 0.54456 -4.54751 0
M  V30 2687 N 259.732 0.605892 -4.5922 0
M  V30 2688 C 260.467 0.636203 -5.6986 0
M  V30 2689 N 259.963 0.623931 -6.89985 0
M  V30 2690 N 261.756 0.679496 -5.57978 0
M  V30 2691 H 253.907 -0.767712 -1.9804 0
M  V30 2692 H 256.17 -0.283609 -0.904583 0
M  V30 2693 H 255.876 -0.472721 -3.48509 0
M  V30 2694 H 255.75 1.27632 -3.5495 0
M  V30 2695 H 258.137 1.44623 -2.57232 0
M  V30 2696 H 258.218 -0.320995 -2.53778 0
M  V30 2697 H 257.862 -0.364452 -5.06591 0
M  V30 2698 H 257.792 1.41568 -5.07214 0
M  V30 2699 H 260.283 0.621386 -3.72756 0
M  V30 2700 H 260.596 0.649787 -7.70063 0
M  V30 2701 H 258.941 0.591296 -6.9248 0
M  V30 2702 H 262.132 0.686472 -4.63039 0
M  V30 2703 H 262.305 0.69965 -6.44212 0
M  V30 2704 N 255.711 1.52812 0.385517 0
M  V30 2705 C 256.644 1.72592 1.49289 0
M  V30 2706 C 257.622 0.573819 1.52138 0
M  V30 2707 O 258.806 0.80404 1.70492 0
M  V30 2708 C 255.933 1.78669 2.87741 0
M  V30 2709 C 254.979 3.00455 3.02703 0
M  V30 2710 S 255.812 4.60366 2.73538 0
M  V30 2711 C 256.968 4.69263 4.14177 0
M  V30 2712 H 257.201 2.66248 1.32285 0
M  V30 2713 H 254.734 1.43148 0.578611 0
M  V30 2714 H 256.692 1.82855 3.67524 0
M  V30 2715 H 255.353 0.861 3.02069 0
M  V30 2716 H 254.546 3.01258 4.04054 0
M  V30 2717 H 254.148 2.94278 2.30817 0
M  V30 2718 H 256.44 4.48092 5.08153 0
M  V30 2719 H 257.383 5.71276 4.18388 0
M  V30 2720 H 257.791 3.98072 4.00249 0
M  V30 2721 N 257.189 -0.644168 1.43834 0
M  V30 2722 C 258.437 -1.40117 1.45642 0
M  V30 2723 C 258.758 -1.94814 0.0852413 0
M  V30 2724 O 258.028 -1.74988 -0.880688 0
M  V30 2725 H 256.608 -0.52005 0.536243 0
M  V30 2726 H 259.27 -0.7591 1.7951 0
M  V30 2727 H 258.366 -2.23902 2.17427 0
M  V30 2728 N 258.668 -1.30515 -0.883378 0
M  V30 2729 C 259.598 -1.19607 -2.00541 0
M  V30 2730 C 260.579 -0.086346 -1.69881 0
M  V30 2731 O 261.764 -0.268654 -1.92333 0
M  V30 2732 C 258.894 -0.888758 -3.35736 0
M  V30 2733 C 257.848 -1.95659 -3.8066 0
M  V30 2734 C 257.174 -1.50224 -5.13164 0
M  V30 2735 C 258.474 -3.36788 -3.99213 0
M  V30 2736 H 260.168 -2.13476 -2.09925 0
M  V30 2737 H 257.714 -1.02775 -1.00863 0
M  V30 2738 H 259.667 -0.799094 -4.13754 0
M  V30 2739 H 258.391 0.0856125 -3.26488 0
M  V30 2740 H 257.05 -2.03591 -3.04871 0
M  V30 2741 H 256.698 -0.516092 -5.00345 0
M  V30 2742 H 256.398 -2.2165 -5.44192 0
M  V30 2743 H 257.922 -1.42639 -5.93706 0
M  V30 2744 H 259.336 -3.31605 -4.67665 0
M  V30 2745 H 257.733 -4.06314 -4.41621 0
M  V30 2746 H 258.803 -3.78561 -3.03017 0
M  V30 2747 N 260.146 1.09593 -1.13257 0
M  V30 2748 C 261.392 1.82181 -0.904521 0
M  V30 2749 C 261.747 1.83967 0.563358 0
M  V30 2750 O 261.04 1.29566 1.41149 0
M  V30 2751 C 261.234 3.27802 -1.42411 0
M  V30 2752 C 261.063 3.40201 -2.94097 0
M  V30 2753 C 259.833 3.52104 -3.62424 0
M  V30 2754 C 262.031 3.32875 -3.92044 0
M  V30 2755 N 260.013 3.53169 -5.0214 0
M  V30 2756 C 261.384 3.40789 -5.17941 0
M  V30 2757 C 263.439 3.16531 -3.84334 0
M  V30 2758 C 262.142 3.34042 -6.37031 0
M  V30 2759 C 264.168 3.11109 -5.02956 0
M  V30 2760 C 263.53 3.19614 -6.27715 0
M  V30 2761 H 259.629 0.681015 -0.384373 0
M  V30 2762 H 262.213 1.3099 -1.44048 0
M  V30 2763 H 260.384 3.77466 -0.915086 0
M  V30 2764 H 262.116 3.88393 -1.13722 0
M  V30 2765 H 258.871 3.5548 -3.12939 0
M  V30 2766 H 259.295 3.57291 -5.75041 0
M  V30 2767 H 263.937 3.08827 -2.88766 0
M  V30 2768 H 261.655 3.4051 -7.32857 0
M  V30 2769 H 265.241 2.99601 -4.98729 0
M  V30 2770 H 264.121 3.15432 -7.17964 0
M  V30 2771 N 261.624 0.925811 1.2754 0
M  V30 2772 C 262.87 0.566092 1.94739 0
M  V30 2773 C 263.203 -0.890057 1.72603 0
M  V30 2774 O 262.478 -1.63467 1.05399 0
M  V30 2775 C 262.761 0.89054 3.48915 0
M  V30 2776 C 262.614 2.4003 3.80402 0
M  V30 2777 C 263.933 0.395101 4.38323 0
M  V30 2778 H 261.052 0.20714 0.707292 0
M  V30 2779 H 263.694 1.15725 1.50691 0
M  V30 2780 H 261.844 0.387452 3.86563 0
M  V30 2781 H 263.516 2.97494 3.52555 0
M  V30 2782 H 261.759 2.85028 3.2702 0
M  V30 2783 H 262.43 2.57785 4.8811 0
M  V30 2784 H 264.906 0.826241 4.07814 0
M  V30 2785 H 263.782 0.651086 5.45025 0
M  V30 2786 H 264.043 -0.704798 4.36446 0
M  V30 2787 N 263.102 -1.41638 0.69111 0
M  V30 2788 C 264.33 -2.05628 0.22909 0
M  V30 2789 C 264.745 -1.51992 -1.11999 0
M  V30 2790 O 264.102 -0.666322 -1.69901 0
M  V30 2791 C 264.153 -3.61084 0.173283 0
M  V30 2792 O 263.874 -4.12735 1.46907 0
M  V30 2793 C 265.375 -4.42213 -0.310266 0
M  V30 2794 H 262.595 -0.662327 0.107534 0
M  V30 2795 H 265.139 -1.81489 0.942438 0
M  V30 2796 H 263.294 -3.84278 -0.490858 0
M  V30 2797 H 263.708 -5.06743 1.35322 0
M  V30 2798 H 265.182 -5.51194 -0.298196 0
M  V30 2799 H 265.659 -4.1799 -1.34838 0
M  V30 2800 H 266.265 -4.24074 0.322716 0
M  V30 2801 N 264.58 -0.43555 -1.51462 0
M  V30 2802 C 265.543 0.365137 -2.26273 0
M  V30 2803 C 266.543 0.951227 -1.29647 0
M  V30 2804 O 267.733 0.825958 -1.53374 0
M  V30 2805 C 264.865 1.51645 -3.05314 0
M  V30 2806 H 266.058 -0.290474 -2.9849 0
M  V30 2807 H 263.611 -0.188676 -1.55157 0
M  V30 2808 H 264.346 2.20816 -2.3751 0
M  V30 2809 H 264.131 1.10238 -3.76284 0
M  V30 2810 H 265.621 2.08218 -3.61987 0
M  V30 2811 N 266.058 1.56714 -0.166846 0
M  V30 2812 C 267.469 1.83378 0.350646 0
M  V30 2813 C 267.82 1.08646 1.63372 0
M  V30 2814 O 266.945 0.338058 2.13743 0
M  V30 2815 C 267.54 3.32643 0.642963 0
M  V30 2816 C 266.099 3.59818 1.10491 0
M  V30 2817 C 265.246 2.76954 0.138411 0
M  V30 2818 H 268.197 1.53803 -0.391193 0
M  V30 2819 H 268.218 3.49878 1.49551 0
M  V30 2820 H 267.73 3.87007 -0.291055 0
M  V30 2821 H 265.831 3.1086 2.05418 0
M  V30 2822 H 265.944 4.68178 1.01716 0
M  V30 2823 H 264.308 2.4666 0.634911 0
M  V30 2824 H 265.091 3.34097 -0.789549 0
M  V30 2825 N 267.536 -0.106894 1.57237 0
M  V30 2826 C 268.785 -0.811163 1.8467 0
M  V30 2827 C 269.098 -1.80469 0.754342 0
M  V30 2828 O 270.304 -2.55601 0.915439 0
M  V30 2829 C 268.76 -1.49337 3.27454 0
M  V30 2830 C 268.368 -0.540217 4.44731 0
M  V30 2831 C 270.112 -2.18206 3.64124 0
M  V30 2832 C 268.019 -1.22634 5.78545 0
M  V30 2833 H 266.949 -0.306679 0.688813 0
M  V30 2834 H 269.6 -0.0639887 1.83388 0
M  V30 2835 H 267.982 -2.2876 3.23241 0
M  V30 2836 H 269.156 0.221659 4.60267 0
M  V30 2837 H 267.471 0.042146 4.16379 0
M  V30 2838 H 270.068 -2.70253 4.61376 0
M  V30 2839 H 270.411 -2.96562 2.92158 0
M  V30 2840 H 270.944 -1.45658 3.70174 0
M  V30 2841 H 267.683 -0.483832 6.53712 0
M  V30 2842 H 267.203 -1.95993 5.66874 0
M  V30 2843 H 268.882 -1.75615 6.2271 0
M  V30 2844 N 269.014 -1.53014 -0.377408 0
M  V30 2845 C 269.977 -1.77957 -1.44444 0
M  V30 2846 C 270.977 -0.649763 -1.47087 0
M  V30 2847 O 272.167 -0.917897 -1.48055 0
M  V30 2848 C 269.299 -1.89089 -2.83651 0
M  V30 2849 H 270.492 -2.73243 -1.23606 0
M  V30 2850 H 268.045 -1.43912 -0.609844 0
M  V30 2851 H 268.78 -0.958293 -3.09818 0
M  V30 2852 H 268.565 -2.71254 -2.83132 0
M  V30 2853 H 270.055 -2.1002 -3.60945 0
M  V30 2854 N 270.492 0.636531 -1.44174 0
M  V30 2855 C 271.422 1.76003 -1.53444 0
M  V30 2856 C 272.403 1.65619 -0.387841 0
M  V30 2857 O 273.588 1.84461 -0.607257 0
M  V30 2858 C 270.718 3.14511 -1.4731 0
M  V30 2859 C 269.672 3.39677 -2.60391 0
M  V30 2860 C 268.998 4.78159 -2.39308 0
M  V30 2861 C 270.298 3.32772 -4.02567 0
M  V30 2862 H 271.992 1.68501 -2.47483 0
M  V30 2863 H 269.538 0.809237 -1.19111 0
M  V30 2864 H 271.491 3.92878 -1.52397 0
M  V30 2865 H 270.215 3.22783 -0.49785 0
M  V30 2866 H 268.874 2.63688 -2.54684 0
M  V30 2867 H 268.522 4.83128 -1.39988 0
M  V30 2868 H 268.222 4.95956 -3.15122 0
M  V30 2869 H 269.746 5.58762 -2.46205 0
M  V30 2870 H 271.16 4.01051 -4.09672 0
M  V30 2871 H 269.557 3.62104 -4.7854 0
M  V30 2872 H 270.627 2.30669 -4.2652 0
M  V30 2873 N 271.97 1.30982 0.876444 0
M  V30 2874 C 272.9 1.20668 1.99903 0
M  V30 2875 C 273.881 0.095354 1.69833 0
M  V30 2876 O 275.066 0.27885 1.92188 0
M  V30 2877 C 272.196 0.90655 3.3526 0
M  V30 2878 C 271.15 1.97675 3.79617 0
M  V30 2879 C 270.476 1.52943 5.1236 0
M  V30 2880 C 271.776 3.389 3.97422 0
M  V30 2881 H 273.47 2.14586 2.0879 0
M  V30 2882 H 271.016 1.03308 1.00317 0
M  V30 2883 H 272.969 0.821025 4.13324 0
M  V30 2884 H 271.693 -0.0682969 3.26529 0
M  V30 2885 H 270.352 2.05205 3.03787 0
M  V30 2886 H 270 0.54262 5.00065 0
M  V30 2887 H 269.7 2.24532 5.43009 0
M  V30 2888 H 271.224 1.45786 5.92941 0
M  V30 2889 H 272.638 3.34081 4.659 0
M  V30 2890 H 271.035 4.0865 4.3946 0
M  V30 2891 H 272.105 3.80163 3.01006 0
M  V30 2892 N 273.449 -1.08991 1.13837 0
M  V30 2893 C 274.396 -2.15748 0.819835 0
M  V30 2894 C 275.366 -1.64636 -0.220026 0
M  V30 2895 O 276.551 -1.90582 -0.0912757 0
M  V30 2896 C 273.691 -3.4382 0.296913 0
M  V30 2897 C 272.804 -4.0881 1.39636 0
M  V30 2898 C 271.939 -5.24655 0.831314 0
M  V30 2899 C 270.978 -5.81575 1.90886 0
M  V30 2900 N 270.115 -6.88774 1.36142 0
M  V30 2901 H 274.955 -2.42338 1.73426 0
M  V30 2902 H 272.492 -1.18935 0.865613 0
M  V30 2903 H 274.45 -4.17193 -0.0244339 0
M  V30 2904 H 273.08 -3.17535 -0.580628 0
M  V30 2905 H 272.132 -3.33258 1.83422 0
M  V30 2906 H 273.444 -4.47141 2.21058 0
M  V30 2907 H 272.598 -6.04942 0.461515 0
M  V30 2908 H 271.337 -4.87698 -0.013932 0
M  V30 2909 H 270.342 -4.99946 2.28767 0
M  V30 2910 H 271.567 -6.20592 2.75758 0
M  V30 2911 H 269.513 -6.53788 0.538254 0
M  V30 2912 H 269.43 -7.25898 2.11208 0
M  V30 2913 H 270.698 -7.72806 1.01933 0
M  V30 2914 N 274.927 -0.932562 -1.27047 0
M  V30 2915 C 276.152 -0.591474 -1.98787 0
M  V30 2916 C 276.577 0.824601 -1.69062 0
M  V30 2917 O 275.935 1.5541 -0.933677 0
M  V30 2918 C 275.983 -0.829808 -3.50922 0
M  V30 2919 O 275.087 0.102266 -4.12273 0
M  V30 2920 H 274.428 -0.227185 -0.623926 0
M  V30 2921 H 276.958 -1.25314 -1.61733 0
M  V30 2922 H 276.968 -0.747292 -4.01098 0
M  V30 2923 H 275.643 -1.86201 -3.7189 0
M  V30 2924 H 274.22 -0.0305761 -3.72887 0
M  V30 2925 N 276.405 1.4127 -0.698611 0
M  V30 2926 C 277.335 2.33447 -0.049629 0
M  V30 2927 C 278.316 1.51982 0.763898 0
M  V30 2928 O 279.501 1.80509 0.716257 0
M  V30 2929 C 276.631 3.35828 0.885267 0
M  V30 2930 C 275.585 4.27627 0.178613 0
M  V30 2931 C 274.911 5.20406 1.22807 0
M  V30 2932 C 276.211 5.13459 -0.956933 0
M  V30 2933 H 277.905 2.87966 -0.81951 0
M  V30 2934 H 275.451 1.38461 -0.395538 0
M  V30 2935 H 277.404 3.9924 1.34854 0
M  V30 2936 H 276.128 2.79666 1.68685 0
M  V30 2937 H 274.787 3.65643 -0.26466 0
M  V30 2938 H 274.435 4.60558 2.02226 0
M  V30 2939 H 274.135 5.82661 0.760239 0
M  V30 2940 H 275.659 5.86695 1.69179 0
M  V30 2941 H 277.073 5.70421 -0.573805 0
M  V30 2942 H 275.47 5.8467 -1.35205 0
M  V30 2943 H 276.54 4.50443 -1.79524 0
M  V30 2944 N 277.883 0.443576 1.51229 0
M  V30 2945 C 279.132 -0.122332 2.01329 0
M  V30 2946 C 279.445 -1.43237 1.33201 0
M  V30 2947 O 280.651 -2.0816 1.74304 0
M  V30 2948 C 279.107 -0.268551 3.58897 0
M  V30 2949 C 278.715 1.03142 4.35965 0
M  V30 2950 C 280.459 -0.787894 4.17124 0
M  V30 2951 C 278.366 0.850504 5.85252 0
M  V30 2952 H 277.296 -0.0494929 0.752374 0
M  V30 2953 H 279.947 0.574289 1.74282 0
M  V30 2954 H 278.329 -1.02832 3.82415 0
M  V30 2955 H 279.503 1.80001 4.24189 0
M  V30 2956 H 277.818 1.47977 3.89219 0
M  V30 2957 H 280.415 -0.939841 5.26375 0
M  V30 2958 H 280.758 -1.77201 3.76703 0
M  V30 2959 H 281.291 -0.0862669 3.97706 0
M  V30 2960 H 278.03 1.80718 6.30096 0
M  V30 2961 H 277.55 0.121825 5.99676 0
M  V30 2962 H 279.229 0.506163 6.45017 0
M  V30 2963 N 279.361 -1.56624 0.175154 0
M  V30 2964 C 280.586 -2.01813 -0.478137 0
M  V30 2965 C 281.011 -1.05457 -1.55757 0
M  V30 2966 O 280.369 -0.0347439 -1.81267 0
M  V30 2967 C 280.417 -3.45581 -1.02987 0
M  V30 2968 O 279.521 -3.52305 -2.14371 0
M  V30 2969 H 278.862 -0.65413 -0.114059 0
M  V30 2970 H 281.392 -2.02673 0.280173 0
M  V30 2971 H 281.402 -3.84965 -1.35151 0
M  V30 2972 H 280.077 -4.1521 -0.239556 0
M  V30 2973 H 278.654 -3.24783 -1.83222 0
M  V30 2974 N 280.839 0.0985539 -1.57292 0
M  V30 2975 C 282.085 0.803867 -1.86188 0
M  V30 2976 C 282.418 1.78549 -0.763794 0
M  V30 2977 O 281.693 1.93153 0.22855 0
M  V30 2978 C 281.976 1.53568 -3.25713 0
M  V30 2979 C 281.829 0.572277 -4.46145 0
M  V30 2980 C 283.148 2.48708 -3.63087 0
M  V30 2981 H 280.267 0.290781 -0.677211 0
M  V30 2982 H 282.909 0.0675783 -1.8988 0
M  V30 2983 H 281.059 2.16332 -3.22696 0
M  V30 2984 H 282.731 -0.0480894 -4.61275 0
M  V30 2985 H 280.974 -0.114618 -4.33649 0
M  V30 2986 H 281.645 1.12139 -5.40489 0
M  V30 2987 H 284.121 1.96039 -3.67026 0
M  V30 2988 H 282.997 2.96932 -4.61652 0
M  V30 2989 H 283.258 3.32309 -2.91588 0
M  V30 2990 N 282.317 1.53212 0.369288 0
M  V30 2991 C 283.566 1.68436 1.10961 0
M  V30 2992 C 283.879 0.440738 1.9057 0
M  V30 2993 O 285.085 0.473446 2.6734 0
M  V30 2994 C 283.541 2.97744 2.0218 0
M  V30 2995 C 283.149 4.29355 1.279 0
M  V30 2996 C 284.893 3.22334 2.76226 0
M  V30 2997 C 282.8 5.49755 2.17999 0
M  V30 2998 H 281.73 0.627568 0.41794 0
M  V30 2999 H 284.381 1.79713 0.370884 0
M  V30 3000 H 282.763 2.8026 2.79768 0
M  V30 3001 H 283.937 4.57458 0.554007 0
M  V30 3002 H 282.252 4.11179 0.657311 0
M  V30 3003 H 284.849 4.09471 3.43857 0
M  V30 3004 H 285.192 2.38238 3.41392 0
M  V30 3005 H 285.725 3.40475 2.05723 0
M  V30 3006 H 282.464 6.36318 1.57417 0
M  V30 3007 H 281.984 5.25937 2.88359 0
M  V30 3008 H 283.663 5.84401 2.77641 0
M  V30 3009 N 283.795 -0.628877 1.44509 0
M  V30 3010 C 284.745 -1.7345 1.47983 0
M  V30 3011 C 285.729 -1.5715 0.345373 0
M  V30 3012 O 286.921 -1.66848 0.590829 0
M  V30 3013 C 284.05 -3.12143 1.42904 0
M  V30 3014 C 283.136 -3.33906 2.61472 0
M  V30 3015 N 283.527 -3.26024 3.86706 0
M  V30 3016 C 281.825 -3.64709 2.56716 0
M  V30 3017 C 282.526 -3.48536 4.65722 0
M  V30 3018 N 281.502 -3.71517 3.96832 0
M  V30 3019 H 285.304 -1.65818 2.42655 0
M  V30 3020 H 282.818 -0.831419 1.39503 0
M  V30 3021 H 284.815 -3.91433 1.43476 0
M  V30 3022 H 283.475 -3.2094 0.492717 0
M  V30 3023 H 284.486 -3.04893 4.18641 0
M  V30 3024 H 281.163 -3.80473 1.71891 0
M  V30 3025 H 282.553 -3.48016 5.74747 0
M  V30 3026 N 285.273 -1.31445 -0.869486 0
M  V30 3027 C 286.203 -1.21727 -1.99261 0
M  V30 3028 C 287.184 -0.104359 -1.6978 0
M  V30 3029 O 288.369 -0.289038 -1.92037 0
M  V30 3030 C 285.499 -0.924317 -3.34774 0
M  V30 3031 C 284.453 -1.99685 -3.78563 0
M  V30 3032 C 283.779 -1.55658 -5.11541 0
M  V30 3033 C 285.079 -3.41003 -3.95619 0
M  V30 3034 H 286.773 -2.1569 -2.07649 0
M  V30 3035 H 284.319 -1.03839 -0.997675 0
M  V30 3036 H 286.272 -0.842934 -4.12883 0
M  V30 3037 H 284.996 0.0509793 -3.2656 0
M  V30 3038 H 283.655 -2.06813 -3.02694 0
M  V30 3039 H 283.303 -0.569132 -4.9977 0
M  V30 3040 H 283.003 -2.27409 -5.41811 0
M  V30 3041 H 284.527 -1.48928 -5.92159 0
M  V30 3042 H 285.941 -3.36547 -4.64122 0
M  V30 3043 H 284.338 -4.10975 -4.37286 0
M  V30 3044 H 285.408 -3.81754 -2.98985 0
M  V30 3045 N 286.751 1.08385 -1.14413 0
M  V30 3046 C 288 1.80153 -0.907076 0
M  V30 3047 C 288.313 1.87176 0.567851 0
M  V30 3048 O 289.519 2.55359 0.922172 0
M  V30 3049 C 287.975 3.23687 -1.57336 0
M  V30 3050 C 287.583 3.24897 -3.08457 0
M  V30 3051 C 289.327 4.00136 -1.41744 0
M  V30 3052 C 287.234 4.6302 -3.67921 0
M  V30 3053 H 286.164 0.675139 -0.335714 0
M  V30 3054 H 288.815 1.21733 -1.37307 0
M  V30 3055 H 287.197 3.82234 -1.03505 0
M  V30 3056 H 288.371 2.76055 -3.68958 0
M  V30 3057 H 286.686 2.61943 -3.2369 0
M  V30 3058 H 289.283 5.02201 -1.83572 0
M  V30 3059 H 289.626 4.14709 -0.363576 0
M  V30 3060 H 290.159 3.48058 -1.92614 0
M  V30 3061 H 286.898 4.5365 -4.73161 0
M  V30 3062 H 286.418 5.12143 -3.12201 0
M  V30 3063 H 288.097 5.31994 -3.68227 0
M  V30 3064 N 288.23 0.939286 1.26551 0
M  V30 3065 C 289.458 0.602536 1.97932 0
M  V30 3066 C 289.873 -0.82206 1.69964 0
M  V30 3067 O 289.23 -1.54789 0.966784 0
M  V30 3068 C 289.281 0.832946 3.51773 0
M  V30 3069 O 289.002 2.20151 3.78768 0
M  V30 3070 C 290.503 0.506483 4.40397 0
M  V30 3071 H 287.723 0.227248 0.631347 0
M  V30 3072 H 290.267 1.25948 1.61113 0
M  V30 3073 H 288.422 0.222644 3.8676 0
M  V30 3074 H 288.836 2.26013 4.73306 0
M  V30 3075 H 290.31 0.718333 5.47306 0
M  V30 3076 H 290.787 -0.558451 4.35635 0
M  V30 3077 H 291.393 1.09543 4.10951 0
M  V30 3078 N 289.708 -1.40897 0.706093 0
M  V30 3079 C 290.671 -2.29131 0.0562841 0
M  V30 3080 C 291.671 -1.44901 -0.697166 0
M  V30 3081 O 292.861 -1.65926 -0.530484 0
M  V30 3082 C 289.993 -3.27957 -0.93043 0
M  V30 3083 H 291.186 -2.88091 0.833284 0
M  V30 3084 H 288.739 -1.4906 0.470192 0
M  V30 3085 H 289.474 -2.73997 -1.73482 0
M  V30 3086 H 289.259 -3.90124 -0.393166 0
M  V30 3087 H 290.749 -3.94049 -1.38256 0
M  V30 3088 N 291.186 -0.45159 -1.50991 0
M  V30 3089 C 292.149 0.341117 -2.26647 0
M  V30 3090 C 293.149 0.937422 -1.30649 0
M  V30 3091 O 294.339 0.809644 -1.54241 0
M  V30 3092 C 291.471 1.48398 -3.06905 0
M  V30 3093 H 292.664 -0.322117 -2.98165 0
M  V30 3094 H 290.217 -0.205122 -1.54948 0
M  V30 3095 H 290.952 2.18284 -2.39838 0
M  V30 3096 H 290.737 1.06241 -3.77432 0
M  V30 3097 H 292.227 2.04367 -3.64176 0
M  V30 3098 N 292.664 1.56529 -0.183458 0
M  V30 3099 C 294.08 1.58664 0.172554 0
M  V30 3100 C 294.28 1.19925 1.61926 0
M  V30 3101 O 293.336 0.916534 2.35278 0
M  V30 3102 C 294.649 3.00463 -0.119262 0
M  V30 3103 C 296.197 3.12945 -0.0584396 0
M  V30 3104 C 296.672 4.56857 -0.323408 0
M  V30 3105 N 298.163 4.62403 -0.271612 0
M  V30 3106 C 298.898 5.71626 -0.450639 0
M  V30 3107 N 298.394 6.89362 -0.689384 0
M  V30 3108 N 300.187 5.60775 -0.385701 0
M  V30 3109 H 292.338 1.79994 -1.12765 0
M  V30 3110 H 294.601 0.834808 -0.449222 0
M  V30 3111 H 294.307 3.33326 -1.12192 0
M  V30 3112 H 294.181 3.72659 0.583544 0
M  V30 3113 H 296.568 2.79902 0.934805 0
M  V30 3114 H 296.649 2.4316 -0.794144 0
M  V30 3115 H 296.293 4.9061 -1.31392 0
M  V30 3116 H 296.223 5.24816 0.43305 0
M  V30 3117 H 298.714 3.77785 -0.0932256 0
M  V30 3118 H 299.027 7.68489 -0.815113 0
M  V30 3119 H 297.372 6.91196 -0.726142 0
M  V30 3120 H 300.563 4.67674 -0.199687 0
M  V30 3121 H 300.736 6.4584 -0.528646 0
M  V30 3122 N 294.142 -0.090211 1.57342 0
M  V30 3123 C 295.09 -1.12792 2.03422 0
M  V30 3124 C 296.084 -1.41182 0.936166 0
M  V30 3125 O 297.29 -1.40805 1.12133 0
M  V30 3126 H 293.665 -0.380986 0.648347 0
M  V30 3127 H 295.636 -0.71299 2.89757 0
M  V30 3128 C 294.385 -2.43855 2.47851 0
M  V30 3129 H 293.708 -2.22855 3.31927 0
M  V30 3130 H 295.148 -3.14955 2.83865 0
M  V30 3131 C 293.607 -3.08503 1.3538 0
M  V30 3132 O 294.137 -3.95805 0.685641 0
M  V30 3133 N 292.343 -2.68831 1.10355 0
M  V30 3134 H 291.89 -1.97929 1.64869 0
M  V30 3135 H 291.848 -3.12412 0.353031 0
M  V30 3136 N 295.62 -1.53406 -0.361157 0
M  V30 3137 C 296.553 -1.74946 -1.46524 0
M  V30 3138 C 297.531 -0.59795 -1.51206 0
M  V30 3139 O 298.715 -0.831062 -1.69191 0
M  V30 3140 C 295.842 -1.83224 -2.84863 0
M  V30 3141 C 294.888 -3.05233 -2.97885 0
M  V30 3142 S 295.721 -4.6466 -2.66179 0
M  V30 3143 C 296.877 -4.75793 -4.06659 0
M  V30 3144 H 297.11 -2.68319 -1.28033 0
M  V30 3145 H 294.643 -1.44051 -0.555764 0
M  V30 3146 H 296.601 -1.88679 -3.64569 0
M  V30 3147 H 295.262 -0.908948 -3.00661 0
M  V30 3148 H 294.455 -3.07648 -3.9921 0
M  V30 3149 H 294.057 -2.97913 -2.26106 0
M  V30 3150 H 296.349 -4.5612 -5.0096 0
M  V30 3151 H 297.292 -5.7786 -4.09247 0
M  V30 3152 H 297.7 -4.04389 -3.93865 0
M  V30 3153 N 297.098 0.621204 -1.44841 0
M  V30 3154 C 298.061 1.71459 -1.521 0
M  V30 3155 C 299.061 1.55696 -0.401933 0
M  V30 3156 O 300.251 1.61011 -0.664925 0
M  V30 3157 C 297.383 3.10624 -1.40447 0
M  V30 3158 H 298.576 1.66394 -2.49506 0
M  V30 3159 H 296.129 0.835745 -1.3208 0
M  V30 3160 H 296.864 3.21277 -0.441737 0
M  V30 3161 H 296.649 3.23473 -2.21602 0
M  V30 3162 H 298.139 3.90293 -1.4853 0
M  V30 3163 N 298.576 1.31904 0.862503 0
M  V30 3164 C 299.539 1.20131 1.95195 0
M  V30 3165 C 300.539 0.126409 1.60302 0
M  V30 3166 O 301.729 0.376234 1.70089 0
M  V30 3167 C 298.861 0.845691 3.30244 0
M  V30 3168 H 300.054 2.16943 2.07064 0
M  V30 3169 H 297.607 1.15622 1.05172 0
M  V30 3170 H 298.342 -0.120957 3.24074 0
M  V30 3171 H 298.127 1.62276 3.56944 0
M  V30 3172 H 299.617 0.787418 4.10109 0
M  V30 3173 N 300.054 -1.07777 1.14986 0
M  V30 3174 C 300.984 -2.16865 0.865557 0
M  V30 3175 C 301.965 -1.69123 -0.182083 0
M  V30 3176 O 303.15 -1.94164 -0.0373815 0
M  V30 3177 C 300.28 -3.45539 0.349313 0
M  V30 3178 C 299.234 -4.06708 1.33313 0
M  V30 3179 C 298.56 -5.30411 0.675918 0
M  V30 3180 C 299.86 -4.47241 2.69764 0
M  V30 3181 H 301.554 -2.40905 1.77778 0
M  V30 3182 H 299.1 -1.15781 0.856203 0
M  V30 3183 H 301.053 -4.21174 0.137983 0
M  V30 3184 H 299.777 -3.21072 -0.598362 0
M  V30 3185 H 298.436 -3.33112 1.53075 0
M  V30 3186 H 298.084 -5.02232 -0.277767 0
M  V30 3187 H 297.784 -5.72293 1.33244 0
M  V30 3188 H 299.308 -6.08755 0.474262 0
M  V30 3189 H 300.722 -5.14025 2.53873 0
M  V30 3190 H 299.119 -5.00062 3.3175 0
M  V30 3191 H 300.189 -3.58818 3.26156 0
M  V30 3192 N 301.532 -0.945985 -1.26051 0
M  V30 3193 C 302.809 -0.513816 -1.88731 0
M  V30 3194 C 303.189 1.00872 -1.8544 0
M  V30 3195 O 302.537 1.8708 -1.312 0
M  V30 3196 C 302.747 -1.08062 -3.31849 0
M  V30 3197 C 304.095 -1.1522 -4.08668 0
M  V30 3198 O 305.119 -1.03155 -3.40936 0
M  V30 3199 O 303.978 -1.34044 -5.29806 0
M  V30 3200 H 301.072 -0.168193 -0.809716 0
M  V30 3201 H 303.618 -1.03886 -1.34186 0
M  V30 3202 H 302.39 -2.1241 -3.2863 0
M  V30 3203 H 302.013 -0.538307 -3.93939 0
M  V30 3204 N 303.011 1.40521 -0.713556 0
M  V30 3205 C 303.974 2.29098 -0.0684347 0
M  V30 3206 C 304.974 1.45268 0.689472 0
M  V30 3207 O 306.164 1.66205 0.521677 0
M  V30 3208 C 303.296 3.28446 0.913024 0
M  V30 3209 H 304.489 2.87645 -0.84855 0
M  V30 3210 H 302.042 1.48809 -0.47809 0
M  V30 3211 H 302.777 2.74913 1.72027 0
M  V30 3212 H 302.562 3.90327 0.372472 0
M  V30 3213 H 304.052 3.94777 1.36165 0
M  V30 3214 N 304.489 0.459591 1.5075 0
M  V30 3215 C 305.452 -0.329093 2.26825 0
M  V30 3216 C 306.452 -0.930481 1.31144 0
M  V30 3217 O 307.642 -0.801453 1.54669 0
M  V30 3218 C 304.774 -1.46768 3.07688 0
M  V30 3219 H 305.967 0.337924 2.9799 0
M  V30 3220 H 303.52 0.213336 1.54837 0
M  V30 3221 H 304.255 -2.17009 2.40993 0
M  V30 3222 H 304.04 -1.04238 3.77991 0
M  V30 3223 H 305.53 -2.02433 3.65254 0
M  V30 3224 N 305.967 -1.56429 0.191757 0
M  V30 3225 C 307.244 -1.89224 -0.495332 0
M  V30 3226 C 307.624 -1.10478 -1.79883 0
M  V30 3227 O 306.972 -0.204852 -2.2758 0
M  V30 3228 C 307.182 -3.41548 -0.717367 0
M  V30 3229 C 308.53 -4.11711 -1.03823 0
M  V30 3230 O 309.554 -3.4698 -0.805204 0
M  V30 3231 O 308.413 -5.2611 -1.47887 0
M  V30 3232 H 305.507 -0.785788 -0.25781 0
M  V30 3233 H 308.053 -1.68111 0.231721 0
M  V30 3234 H 306.825 -3.90772 0.203287 0
M  V30 3235 H 306.448 -3.68342 -1.497 0
M  V30 3236 N 307.445 0.0818655 -1.57387 0
M  V30 3237 C 308.861 0.436412 -1.53517 0
M  V30 3238 C 309.061 1.79758 -0.910459 0
M  V30 3239 O 308.117 2.47324 -0.508636 0
M  V30 3240 C 309.43 0.386734 -2.98203 0
M  V30 3241 C 310.978 0.467644 -3.09487 0
M  V30 3242 C 311.453 0.447978 -4.55804 0
M  V30 3243 N 312.944 0.508348 -4.60402 0
M  V30 3244 C 313.679 0.515184 -5.71081 0
M  V30 3245 N 313.175 0.477435 -6.91153 0
M  V30 3246 N 314.968 0.560988 -5.59294 0
M  V30 3247 H 307.119 -0.809546 -1.96367 0
M  V30 3248 H 309.382 -0.302733 -0.898363 0
M  V30 3249 H 309.088 -0.546539 -3.47427 0
M  V30 3250 H 308.962 1.20075 -3.57578 0
M  V30 3251 H 311.349 1.39134 -2.60242 0
M  V30 3252 H 311.43 -0.374753 -2.5304 0
M  V30 3253 H 311.074 -0.471826 -5.05704 0
M  V30 3254 H 311.004 1.30777 -5.10103 0
M  V30 3255 H 313.495 0.54218 -3.7399 0
M  V30 3256 H 313.808 0.486299 -7.71268 0
M  V30 3257 H 312.153 0.444278 -6.93579 0
M  V30 3258 H 315.344 0.5881 -4.64391 0
M  V30 3259 H 315.517 0.562846 -6.45551 0
M  V30 3260 N 308.923 1.53595 0.353017 0
M  V30 3261 C 309.886 1.80232 1.41594 0
M  V30 3262 C 310.886 0.673081 1.46035 0
M  V30 3263 O 312.076 0.941335 1.46576 0
M  V30 3264 C 309.208 1.93578 2.80607 0
M  V30 3265 H 310.401 2.75174 1.19244 0
M  V30 3266 H 307.954 1.44864 0.586872 0
M  V30 3267 H 308.689 1.00746 3.08254 0
M  V30 3268 H 308.474 2.75724 2.78781 0
M  V30 3269 H 309.964 2.15735 3.57558 0
M  V30 3270 N 310.401 -0.613514 1.45168 0
M  V30 3271 C 311.348 -1.72456 1.53387 0
M  V30 3272 C 312.318 -1.6169 0.380191 0
M  V30 3273 O 313.503 -1.81356 0.592836 0
M  V30 3274 C 310.643 -3.10753 1.50088 0
M  V30 3275 C 309.756 -3.32368 2.75963 0
M  V30 3276 C 308.891 -4.60737 2.64376 0
M  V30 3277 C 307.93 -4.7559 3.85332 0
M  V30 3278 N 307.067 -5.95253 3.72315 0
M  V30 3279 H 311.907 -1.64768 2.48305 0
M  V30 3280 H 309.444 -0.803503 1.23216 0
M  V30 3281 H 311.402 -3.90758 1.46164 0
M  V30 3282 H 310.032 -3.17413 0.587243 0
M  V30 3283 H 309.084 -2.4618 2.89999 0
M  V30 3284 H 310.396 -3.39218 3.65695 0
M  V30 3285 H 309.55 -5.48928 2.58385 0
M  V30 3286 H 308.289 -4.56275 1.72233 0
M  V30 3287 H 307.294 -3.85824 3.91688 0
M  V30 3288 H 308.519 -4.81854 4.78533 0
M  V30 3289 H 306.465 -5.91847 2.82937 0
M  V30 3290 H 306.382 -6.03236 4.55677 0
M  V30 3291 H 307.65 -6.85958 3.70246 0
M  V30 3292 N 311.879 -1.3236 -0.855495 0
M  V30 3293 C 312.826 -1.21225 -1.964 0
M  V30 3294 C 313.796 -0.0946204 -1.6583 0
M  V30 3295 O 314.981 -0.27002 -1.8888 0
M  V30 3296 C 312.121 -0.940419 -3.32039 0
M  V30 3297 C 311.234 -2.14276 -3.75113 0
M  V30 3298 C 310.369 -1.80648 -4.9954 0
M  V30 3299 C 309.408 -2.97208 -5.35102 0
M  V30 3300 N 308.545 -2.63678 -6.50706 0
M  V30 3301 H 313.385 -2.16042 -2.05255 0
M  V30 3302 H 310.922 -1.07451 -1.00463 0
M  V30 3303 H 312.88 -0.763311 -4.10158 0
M  V30 3304 H 311.51 -0.0290413 -3.22787 0
M  V30 3305 H 310.562 -2.43017 -2.92655 0
M  V30 3306 H 311.874 -3.01468 -3.97389 0
M  V30 3307 H 311.028 -1.59484 -5.85363 0
M  V30 3308 H 309.767 -0.906678 -4.79198 0
M  V30 3309 H 308.772 -3.19004 -4.47791 0
M  V30 3310 H 309.997 -3.87918 -5.57401 0
M  V30 3311 H 307.943 -1.76238 -6.31883 0
M  V30 3312 H 307.86 -3.444 -6.72997 0
M  V30 3313 H 309.128 -2.45942 -7.39684 0
M  V30 3314 N 313.357 1.07166 -1.15556 0
M  V30 3315 C 314.304 2.14417 -0.854055 0
M  V30 3316 C 315.274 1.64965 0.193806 0
M  V30 3317 O 316.459 1.90703 0.0609443 0
M  V30 3318 C 313.599 3.43304 -0.351574 0
M  V30 3319 C 312.712 4.06537 -1.46123 0
M  V30 3320 C 311.847 5.23266 -0.914677 0
M  V30 3321 C 310.886 5.78464 -2.00114 0
M  V30 3322 N 310.023 6.86521 -1.47083 0
M  V30 3323 H 314.863 2.39548 -1.77259 0
M  V30 3324 H 312.4 1.17543 -0.884425 0
M  V30 3325 H 314.358 4.17179 -0.0419409 0
M  V30 3326 H 312.988 3.18419 0.530037 0
M  V30 3327 H 312.04 3.30297 -1.88701 0
M  V30 3328 H 313.352 4.43567 -2.28144 0
M  V30 3329 H 312.506 6.04131 -0.557698 0
M  V30 3330 H 311.245 4.87658 -0.0636583 0
M  V30 3331 H 310.25 4.96243 -2.36692 0
M  V30 3332 H 311.475 6.16126 -2.85597 0
M  V30 3333 H 309.421 6.52849 -0.642198 0
M  V30 3334 H 309.338 7.22446 -2.22729 0
M  V30 3335 H 310.606 7.71087 -1.14215 0
M  V30 3336 O 314.874 1.08282 1.19822 0
M  V30 3337 H 315.565 0.773615 1.77581 0
M  V30 END ATOM
M  V30 BEGIN BOND
M  V30 END BOND
M  V30 END CTAB
M  END
$$$$
