drugbank_target|O14732 Inositol monophosphatase 2 (DB01356; DB14507; DB14508; DB14509)
 OpenBabel12092119443D

  0  0  0     0  0            999 V3000
M  V30 BEGIN CTAB
M  V30 COUNTS 4405 4443 0 0 0
M  V30 BEGIN ATOM
M  V30 1 H -0.908 1.98254 -0.117106 0
M  V30 2 N 0 1.576 0 0
M  V30 3 C 0.933 2.03868 1.02534 0
M  V30 4 C 1.911 0.928543 1.3348 0
M  V30 5 O 3.095 1.19667 1.45644 0
M  V30 6 C 0.222 2.43627 2.35294 0
M  V30 7 C -0.732 3.65373 2.2001 0
M  V30 8 S 0.101 5.13292 1.52614 0
M  V30 9 C 1.257 5.56322 2.86805 0
M  V30 10 H 1.49 2.90518 0.631377 0
M  V30 11 H -0.977 1.52953 0.210867 0
M  V30 12 H 0.981 2.67203 3.11629 0
M  V30 13 H -0.358 1.57376 2.7183 0
M  V30 14 H -1.165 3.90944 3.18086 0
M  V30 15 H -1.563 3.418 1.51819 0
M  V30 16 H 0.729 5.58782 3.83104 0
M  V30 17 H 1.672 6.56266 2.65933 0
M  V30 18 H 2.08 4.83886 2.90714 0
M  V30 19 N 1.4781 -0.272755 1.55222 0
M  V30 20 C 2.4251 -1.33716 1.88119 0
M  V30 21 C 3.3951 -1.49066 0.73271 0
M  V30 22 O 4.5801 -1.63469 0.984002 0
M  V30 23 C 1.7201 -2.69238 2.15882 0
M  V30 24 C 0.8331 -2.62108 3.43399 0
M  V30 25 C -0.0319 -3.89811 3.60861 0
M  V30 26 C -0.9929 -3.77193 4.8207 0
M  V30 27 N -1.8559 -4.9673 4.96189 0
M  V30 28 H 2.9841 -1.04962 2.78903 0
M  V30 29 H 0.5211 -0.507088 1.38083 0
M  V30 30 H 2.4791 -3.48089 2.29978 0
M  V30 31 H 1.1091 -2.96194 1.28331 0
M  V30 32 H 0.1611 -1.74967 3.37773 0
M  V30 33 H 1.4731 -2.48685 4.32386 0
M  V30 34 H 0.6271 -4.77103 3.74777 0
M  V30 35 H -0.6339 -4.06102 2.7006 0
M  V30 36 H -1.6289 -2.88284 4.68159 0
M  V30 37 H -0.4039 -3.62421 5.74307 0
M  V30 38 H -2.4579 -5.13431 4.08319 0
M  V30 39 H -2.5409 -4.85839 5.79221 0
M  V30 40 H -1.2729 -5.85594 5.1449 0
M  V30 41 N 2.9562 -1.48159 -0.537278 0
M  V30 42 C 4.3672 -1.49429 -1.11928 0
M  V30 43 C 4.7182 -0.26 -1.9447 0
M  V30 44 O 3.8432 0.633489 -2.0692 0
M  V30 45 C 4.4382 -2.70758 -2.03656 0
M  V30 46 C 2.9972 -2.74923 -2.57088 0
M  V30 47 C 2.1442 -2.42835 -1.3389 0
M  V30 48 H 5.0952 -1.55381 -0.322886 0
M  V30 49 H 5.1162 -2.48861 -2.87834 0
M  V30 50 H 4.6282 -3.60575 -1.43553 0
M  V30 51 H 2.7292 -1.89296 -3.20933 0
M  V30 52 H 2.8422 -3.76157 -2.9672 0
M  V30 53 H 1.2062 -1.93836 -1.65226 0
M  V30 54 H 1.9892 -3.34884 -0.755504 0
M  V30 55 N 4.4343 0.785586 -1.36625 0
M  V30 56 C 5.6593 1.57963 -1.34397 0
M  V30 57 C 6.0843 1.87964 0.071526 0
M  V30 58 O 5.4423 1.48182 1.0446 0
M  V30 59 C 5.4903 2.87511 -2.17646 0
M  V30 60 O 4.5943 3.81281 -1.57158 0
M  V30 61 H 3.9353 0.479014 -0.459828 0
M  V30 62 H 6.4653 0.973411 -1.79961 0
M  V30 63 H 6.4753 3.36745 -2.30362 0
M  V30 64 H 5.1503 2.65002 -3.20541 0
M  V30 65 H 3.7273 3.39885 -1.53403 0
M  V30 66 N 5.9124 1.20967 1.01018 0
M  V30 67 C 7.1604 1.02172 1.74371 0
M  V30 68 C 7.4814 -0.446414 1.89821 0
M  V30 69 O 6.7514 -1.32234 1.44537 0
M  V30 70 H 5.3314 0.375066 0.646014 0
M  V30 71 H 7.9934 1.52187 1.21758 0
M  V30 72 H 7.0894 1.48538 2.74487 0
M  V30 73 N 7.3905 -1.2043 1.01659 0
M  V30 74 C 8.3005 -2.2689 0.596484 0
M  V30 75 C 9.3165 -1.70107 -0.36599 0
M  V30 76 O 10.4925 -2.00117 -0.226942 0
M  V30 77 C 7.5575 -3.4665 -0.0586659 0
M  V30 78 C 6.6185 -4.18662 0.949751 0
M  V30 79 C 5.8515 -5.32705 0.32577 0
M  V30 80 O 6.0745 -5.63656 -0.874509 0
M  V30 81 O 5.0085 -5.92803 1.04249 0
M  V30 82 H 8.8345 -2.65041 1.4828 0
M  V30 83 H 6.4195 -1.27048 0.786082 0
M  V30 84 H 8.3015 -4.19256 -0.424564 0
M  V30 85 H 6.9765 -3.10375 -0.91918 0
M  V30 86 H 5.8835 -3.48229 1.36702 0
M  V30 87 H 7.2165 -4.58878 1.78023 0
M  V30 88 N 8.8686 -0.792821 -1.36206 0
M  V30 89 C 10.1456 -0.290627 -1.93429 0
M  V30 90 C 10.5256 1.21773 -1.72437 0
M  V30 91 O 9.8736 2.0108 -1.08531 0
M  V30 92 C 10.0836 -0.686973 -3.42172 0
M  V30 93 C 11.4316 -0.668643 -4.19302 0
M  V30 94 O 12.4556 -0.627658 -3.50626 0
M  V30 95 O 11.3146 -0.714597 -5.41808 0
M  V30 96 H 8.4086 -0.0727927 -0.82379 0
M  V30 97 H 10.9546 -0.875593 -1.45367 0
M  V30 98 H 9.7266 -1.72711 -3.51122 0
M  V30 99 H 9.3496 -0.0760733 -3.97527 0
M  V30 100 N 10.3467 1.47872 -0.545128 0
M  V30 101 C 11.2787 2.27869 0.246621 0
M  V30 102 C 12.2917 1.36282 0.890561 0
M  V30 103 O 13.4807 1.61207 0.766449 0
M  V30 104 C 10.5807 3.10159 1.36582 0
M  V30 105 C 9.7537 4.29627 0.820954 0
M  V30 106 C 8.8127 4.93607 1.82314 0
M  V30 107 O 7.8387 5.52366 1.37406 0
M  V30 108 N 9.0407 4.87211 3.15603 0
M  V30 109 H 11.8057 2.96459 -0.439539 0
M  V30 110 H 9.3667 1.57367 -0.380421 0
M  V30 111 H 11.3587 3.49829 2.03474 0
M  V30 112 H 9.9287 2.43891 1.9554 0
M  V30 113 H 9.1487 3.94192 -0.0244032 0
M  V30 114 H 10.4367 5.06928 0.436063 0
M  V30 115 H 9.8347 4.40651 3.54744 0
M  V30 116 H 8.3917 5.30937 3.78087 0
M  V30 117 N 11.8248 0.280983 1.55075 0
M  V30 118 C 12.7878 -0.590896 2.21452 0
M  V30 119 C 13.7878 -1.07682 1.19421 0
M  V30 120 O 14.9778 -0.97605 1.44288 0
M  V30 121 C 12.1098 -1.81587 2.88511 0
M  V30 122 H 13.3028 -0.0112554 2.99898 0
M  V30 123 H 10.8558 0.0316438 1.56268 0
M  V30 124 H 11.5908 -2.43587 2.14093 0
M  V30 125 H 11.3758 -1.4753 3.63287 0
M  V30 126 H 12.8658 -2.43575 3.39206 0
M  V30 127 N 13.3029 -1.57598 0.00835791 0
M  V30 128 C 14.2659 -2.07884 -0.965242 0
M  V30 129 C 15.2659 -0.989825 -1.26725 0
M  V30 130 O 16.4559 -1.25218 -1.21104 0
M  V30 131 C 13.5879 -2.52731 -2.28779 0
M  V30 132 H 14.7809 -2.95178 -0.530112 0
M  V30 133 H 12.3339 -1.54458 -0.239283 0
M  V30 134 H 13.0689 -1.68705 -2.76964 0
M  V30 135 H 12.8539 -3.32272 -2.08177 0
M  V30 136 H 14.3439 -2.91933 -2.98605 0
M  V30 137 N 14.781 0.264519 -1.55364 0
M  V30 138 C 15.711 1.33121 -1.91836 0
M  V30 139 C 16.692 1.51101 -0.781192 0
M  V30 140 O 17.877 1.64003 -1.04003 0
M  V30 141 C 15.007 2.68921 -2.19769 0
M  V30 142 C 13.961 2.65661 -3.35571 0
M  V30 143 C 13.287 4.05093 -3.49004 0
M  V30 144 C 14.587 2.24187 -4.71739 0
M  V30 145 H 16.281 1.02844 -2.81182 0
M  V30 146 H 13.827 0.493286 -1.35287 0
M  V30 147 H 15.78 3.43663 -2.43872 0
M  V30 148 H 14.504 3.00799 -1.27231 0
M  V30 149 H 13.163 1.93377 -3.1145 0
M  V30 150 H 12.811 4.34206 -2.53917 0
M  V30 151 H 12.511 4.03804 -4.26868 0
M  V30 152 H 14.035 4.81561 -3.75408 0
M  V30 153 H 15.449 2.88654 -4.9533 0
M  V30 154 H 13.846 2.34044 -5.52579 0
M  V30 155 H 14.916 1.19327 -4.69988 0
M  V30 156 N 16.2591 1.48442 0.529413 0
M  V30 157 C 17.2221 1.62524 1.61612 0
M  V30 158 C 18.2221 0.498509 1.52877 0
M  V30 159 O 19.4121 0.76431 1.56537 0
M  V30 160 C 16.5441 1.59597 3.01233 0
M  V30 161 H 17.7371 2.59423 1.50465 0
M  V30 162 H 15.2901 1.37047 0.751514 0
M  V30 163 H 16.0251 0.641781 3.17886 0
M  V30 164 H 15.8101 2.41397 3.08982 0
M  V30 165 H 17.3001 1.72646 3.80241 0
M  V30 166 N 17.7372 -0.778329 1.37039 0
M  V30 167 C 18.7002 -1.87301 1.32102 0
M  V30 168 C 19.7002 -1.59198 0.226405 0
M  V30 169 O 20.8902 -1.67403 0.481861 0
M  V30 170 C 18.0222 -3.24309 1.05055 0
M  V30 171 H 19.2152 -1.93093 2.29467 0
M  V30 172 H 16.7682 -0.977358 1.21973 0
M  V30 173 H 17.5032 -3.24196 0.0819373 0
M  V30 174 H 17.2882 -3.46098 1.84279 0
M  V30 175 H 18.7782 -4.04382 1.04234 0
M  V30 176 N 19.2153 -1.21501 -1.00376 0
M  V30 177 C 20.4633 -1.03095 -1.73827 0
M  V30 178 C 20.7843 0.436341 -1.90055 0
M  V30 179 O 20.0543 1.31466 -1.45236 0
M  V30 180 H 18.6343 -0.378487 -0.644016 0
M  V30 181 H 21.2963 -1.52831 -1.20949 0
M  V30 182 H 20.3923 -1.49991 -2.73695 0
M  V30 183 N 20.6934 1.19889 -1.02296 0
M  V30 184 C 22.1044 1.71124 -0.746568 0
M  V30 185 C 22.4554 1.81939 0.734335 0
M  V30 186 O 21.5804 1.48639 1.57275 0
M  V30 187 C 22.1754 3.10804 -1.34857 0
M  V30 188 C 20.7344 3.59323 -1.1209 0
M  V30 189 C 19.8814 2.3635 -1.45031 0
M  V30 190 H 22.8324 1.04813 -1.19163 0
M  V30 191 H 22.8534 3.73186 -0.742437 0
M  V30 192 H 22.3654 3.029 -2.42638 0
M  V30 193 H 20.4664 3.7255 -0.0610337 0
M  V30 194 H 20.5794 4.4378 -1.80544 0
M  V30 195 H 18.9434 2.39399 -0.869487 0
M  V30 196 H 19.7264 2.31081 -2.53883 0
M  V30 197 N 22.1715 0.800033 1.35784 0
M  V30 198 C 23.4175 0.38701 1.99684 0
M  V30 199 C 23.7725 -1.03268 1.62338 0
M  V30 200 O 23.0655 -1.70543 0.87325 0
M  V30 201 C 23.2595 0.500276 3.53881 0
M  V30 202 C 23.0885 1.92942 4.06206 0
M  V30 203 C 21.8585 2.55637 4.35865 0
M  V30 204 C 24.0565 2.89307 4.25213 0
M  V30 205 N 22.0385 3.9003 4.74078 0
M  V30 206 C 23.4095 4.08556 4.66349 0
M  V30 207 C 25.4645 2.86225 4.07406 0
M  V30 208 C 24.1675 5.25146 4.91543 0
M  V30 209 C 26.1935 4.02011 4.33752 0
M  V30 210 C 25.5555 5.20007 4.75155 0
M  V30 211 H 21.6545 0.189252 0.758754 0
M  V30 212 H 24.2385 1.03988 1.64604 0
M  V30 213 H 22.4095 -0.122568 3.88207 0
M  V30 214 H 24.1415 0.0624733 4.04652 0
M  V30 215 H 20.8965 2.07039 4.25948 0
M  V30 216 H 21.3205 4.59205 4.97454 0
M  V30 217 H 25.9625 1.96154 3.74544 0
M  V30 218 H 23.6805 6.15794 5.23281 0
M  V30 219 H 27.2665 4.00999 4.21534 0
M  V30 220 H 26.1465 6.08113 4.95145 0
M  V30 221 N 23.6496 -1.47581 0.552962 0
M  V30 222 C 24.5596 -2.33743 -0.200353 0
M  V30 223 C 25.5756 -1.47928 -0.916151 0
M  V30 224 O 26.7516 -1.80865 -0.885993 0
M  V30 225 C 23.8166 -3.24536 -1.21973 0
M  V30 226 C 22.8776 -4.26238 -0.511819 0
M  V30 227 C 22.1106 -5.12693 -1.48263 0
M  V30 228 O 22.3336 -5.01525 -2.71714 0
M  V30 229 O 21.2676 -5.93375 -1.00945 0
M  V30 230 H 25.0936 -2.9945 0.506304 0
M  V30 231 H 22.6786 -1.46071 0.313622 0
M  V30 232 H 24.5606 -3.80631 -1.80827 0
M  V30 233 H 23.2356 -2.61462 -1.90839 0
M  V30 234 H 22.1426 -3.73914 0.117799 0
M  V30 235 H 23.4756 -4.92014 0.135308 0
M  V30 236 N 25.1277 -0.289203 -1.54924 0
M  V30 237 C 26.0377 0.601863 -2.26748 0
M  V30 238 C 27.0537 1.15834 -1.2984 0
M  V30 239 O 28.2297 1.18564 -1.62802 0
M  V30 240 C 25.2947 1.76299 -2.98529 0
M  V30 241 C 24.3557 1.24178 -4.10948 0
M  V30 242 C 23.5887 2.34757 -4.79296 0
M  V30 243 O 23.8117 3.54411 -4.46933 0
M  V30 244 O 22.7457 2.02115 -5.66951 0
M  V30 245 H 26.5717 0.0195879 -3.03694 0
M  V30 246 H 24.1567 -0.0560868 -1.49295 0
M  V30 247 H 26.0387 2.43973 -3.43592 0
M  V30 248 H 24.7137 2.33209 -2.24488 0
M  V30 249 H 23.6207 0.531104 -3.70311 0
M  V30 250 H 24.9537 0.718252 -4.86931 0
M  V30 251 N 26.6058 1.57591 -0.0167156 0
M  V30 252 C 27.8458 1.93145 0.668902 0
M  V30 253 C 28.2098 0.892406 1.7 0
M  V30 254 O 29.4108 1.13373 2.43721 0
M  V30 255 C 27.6818 3.33678 1.28039 0
M  V30 256 S 29.2408 3.91142 1.9888 0
M  V30 257 H 26.0588 0.67593 0.220545 0
M  V30 258 H 28.6608 1.95347 -0.0774105 0
M  V30 259 H 27.3648 4.07126 0.517339 0
M  V30 260 H 26.8958 3.3489 2.06427 0
M  V30 261 H 28.9108 3.73571 3.26587 0
M  V30 262 N 28.0839 -0.256276 1.55502 0
M  V30 263 C 29.3309 -0.985619 1.76895 0
M  V30 264 C 29.6589 -1.85671 0.579355 0
M  V30 265 O 28.9139 -1.90744 -0.437651 0
M  V30 266 C 29.2129 -1.88432 3.03691 0
M  V30 267 C 28.8789 -1.16936 4.35473 0
M  V30 268 C 27.5409 -0.97173 4.71286 0
M  V30 269 C 29.8929 -0.661889 5.1698 0
M  V30 270 C 27.2209 -0.254179 5.86149 0
M  V30 271 C 29.5729 0.042149 6.32586 0
M  V30 272 C 28.2369 0.25134 6.67027 0
M  V30 273 H 27.5069 -0.360663 0.647304 0
M  V30 274 H 30.1539 -0.256483 1.89775 0
M  V30 275 H 28.4589 -2.68021 2.85783 0
M  V30 276 H 30.1559 -2.45015 3.1744 0
M  V30 277 H 26.7459 -1.33332 4.07333 0
M  V30 278 H 30.9299 -0.802145 4.89775 0
M  V30 279 H 26.1859 -0.0815408 6.11346 0
M  V30 280 H 30.3599 0.443049 6.94989 0
M  V30 281 H 27.9869 0.809314 7.5588 0
M  V30 282 N 29.562 -1.4872 -0.521534 0
M  V30 283 C 30.494 -1.59968 -1.64143 0
M  V30 284 C 31.507 -0.483463 -1.55456 0
M  V30 285 O 32.696 -0.75467 -1.61762 0
M  V30 286 C 29.796 -1.52127 -3.02838 0
M  V30 287 C 28.969 -2.78932 -3.36921 0
M  V30 288 C 28.028 -2.64428 -4.54933 0
M  V30 289 O 27.054 -3.38331 -4.57735 0
M  V30 290 N 28.256 -1.74606 -5.53618 0
M  V30 291 H 31.021 -2.56548 -1.54929 0
M  V30 292 H 28.582 -1.45551 -0.708988 0
M  V30 293 H 30.574 -1.40106 -3.79674 0
M  V30 294 H 29.144 -0.634868 -3.06085 0
M  V30 295 H 28.364 -3.05455 -2.4918 0
M  V30 296 H 29.652 -3.63041 -3.56481 0
M  V30 297 H 29.05 -1.13782 -5.54139 0
M  V30 298 H 27.607 -1.6852 -6.29638 0
M  V30 299 N 31.0401 0.771051 -1.3745 0
M  V30 300 C 32.0031 1.86598 -1.33093 0
M  V30 301 C 33.0031 1.59076 -0.234845 0
M  V30 302 O 34.1931 1.67145 -0.490732 0
M  V30 303 C 31.3251 3.23747 -1.06773 0
M  V30 304 H 32.5181 1.91873 -2.30488 0
M  V30 305 H 30.0711 0.970876 -1.2249 0
M  V30 306 H 30.8061 3.24148 -0.099129 0
M  V30 307 H 30.5911 3.45115 -1.86112 0
M  V30 308 H 32.0811 4.03824 -1.06377 0
M  V30 309 N 32.5182 1.22032 0.997298 0
M  V30 310 C 33.4812 0.987909 2.06816 0
M  V30 311 C 34.4812 -0.0440084 1.6074 0
M  V30 312 O 35.6712 0.194053 1.73116 0
M  V30 313 C 32.8032 0.49132 3.37341 0
M  V30 314 H 33.9962 1.93803 2.28868 0
M  V30 315 H 31.5492 1.03838 1.16822 0
M  V30 316 H 32.2842 -0.463364 3.20973 0
M  V30 317 H 32.0692 1.23575 3.72118 0
M  V30 318 H 33.5592 0.348824 4.16141 0
M  V30 319 N 33.9963 -1.19345 1.0293 0
M  V30 320 C 35.2423 -1.89318 0.727083 0
M  V30 321 C 35.5753 -1.79446 -0.742483 0
M  V30 322 O 34.8503 -1.1871 -1.54072 0
M  V30 323 C 35.1333 -3.40238 1.17942 0
M  V30 324 C 34.9863 -3.58979 2.71024 0
M  V30 325 C 36.3053 -4.33479 0.760548 0
M  V30 326 H 33.4243 -0.687475 0.265606 0
M  V30 327 H 36.0663 -1.40477 1.2793 0
M  V30 328 H 34.2163 -3.81964 0.709608 0
M  V30 329 H 35.8883 -3.26421 3.25955 0
M  V30 330 H 34.1313 -3.02018 3.11396 0
M  V30 331 H 34.8023 -4.64823 2.9773 0
M  V30 332 H 37.2783 -3.99469 1.16464 0
M  V30 333 H 36.1543 -5.37664 1.10493 0
M  V30 334 H 36.4153 -4.40813 -0.337063 0
M  V30 335 N 35.4744 -0.807222 -1.35358 0
M  V30 336 C 36.4064 -0.175717 -2.28525 0
M  V30 337 C 37.4194 0.625354 -1.5031 0
M  V30 338 O 38.6084 0.457611 -1.72535 0
M  V30 339 C 35.7084 0.773471 -3.29956 0
M  V30 340 C 34.8814 0.0186296 -4.37396 0
M  V30 341 C 33.9404 0.886395 -5.18681 0
M  V30 342 O 32.9664 0.337106 -5.68201 0
M  V30 343 N 34.1684 2.20839 -5.36852 0
M  V30 344 H 36.9334 -0.976091 -2.83359 0
M  V30 345 H 34.4944 -0.662737 -1.47714 0
M  V30 346 H 36.4864 1.35824 -3.81227 0
M  V30 347 H 35.0564 1.47465 -2.75632 0
M  V30 348 H 34.2764 -0.747349 -3.87051 0
M  V30 349 H 35.5644 -0.501577 -5.06322 0
M  V30 350 H 34.9624 2.67858 -4.98265 0
M  V30 351 H 33.5194 2.74237 -5.91301 0
M  V30 352 N 36.9525 1.47285 -0.560781 0
M  V30 353 C 37.8825 2.32857 0.173105 0
M  V30 354 C 38.8635 1.44009 0.905281 0
M  V30 355 O 40.0485 1.7286 0.885046 0
M  V30 356 C 37.1785 3.25861 1.20133 0
M  V30 357 C 36.1325 4.23978 0.585388 0
M  V30 358 C 35.4585 5.06332 1.7185 0
M  V30 359 C 36.7585 5.20242 -0.463178 0
M  V30 360 H 38.4525 2.94466 -0.541307 0
M  V30 361 H 35.9985 1.41601 -0.261764 0
M  V30 362 H 37.9515 3.84569 1.72293 0
M  V30 363 H 36.6755 2.62315 1.94573 0
M  V30 364 H 35.3345 3.66501 0.085054 0
M  V30 365 H 34.9825 4.39186 2.45203 0
M  V30 366 H 34.6825 5.72762 1.31213 0
M  V30 367 H 36.2065 5.67899 2.24329 0
M  V30 368 H 37.6205 5.73293 -0.027502 0
M  V30 369 H 36.0175 5.94896 -0.788627 0
M  V30 370 H 37.0875 4.65504 -1.35773 0
M  V30 371 N 38.4306 0.297415 1.54768 0
M  V30 372 C 39.3936 -0.567375 2.22066 0
M  V30 373 C 40.3936 -1.06409 1.20556 0
M  V30 374 O 41.5836 -0.960691 1.45315 0
M  V30 375 C 38.7156 -1.78517 2.90421 0
M  V30 376 H 39.9086 0.0205534 2.99893 0
M  V30 377 H 37.4616 0.0482163 1.56226 0
M  V30 378 H 38.1966 -2.41303 2.16664 0
M  V30 379 H 37.9816 -1.43669 3.64831 0
M  V30 380 H 39.4716 -2.39964 3.41771 0
M  V30 381 N 39.9087 -1.5758 0.0250728 0
M  V30 382 C 40.8387 -2.13007 -0.956575 0
M  V30 383 C 41.8197 -1.0452 -1.342 0
M  V30 384 O 43.0047 -1.32332 -1.42133 0
M  V30 385 C 40.1347 -2.65386 -2.24026 0
M  V30 386 C 39.0887 -3.78623 -1.99571 0
M  V30 387 C 38.4147 -4.17414 -3.3417 0
M  V30 388 C 39.7147 -5.04867 -1.33814 0
M  V30 389 H 41.4087 -2.9528 -0.494991 0
M  V30 390 H 38.9547 -1.42042 -0.236651 0
M  V30 391 H 40.9077 -3.02794 -2.93076 0
M  V30 392 H 39.6317 -1.80268 -2.72343 0
M  V30 393 H 38.2907 -3.41646 -1.32941 0
M  V30 394 H 37.9387 -3.29284 -3.80238 0
M  V30 395 H 37.6387 -4.93719 -3.18615 0
M  V30 396 H 39.1627 -4.57402 -4.04495 0
M  V30 397 H 40.5767 -5.39888 -1.92857 0
M  V30 398 H 38.9737 -5.86144 -1.28669 0
M  V30 399 H 40.0437 -4.83904 -0.310561 0
M  V30 400 N 41.3868 0.248026 -1.55636 0
M  V30 401 C 42.8028 0.596483 -1.48035 0
M  V30 402 C 43.0028 1.88386 -0.715039 0
M  V30 403 O 42.0588 2.51319 -0.243944 0
M  V30 404 C 43.3718 0.700258 -2.92433 0
M  V30 405 C 44.9198 0.792659 -3.02797 0
M  V30 406 C 45.3948 0.928005 -4.485 0
M  V30 407 N 46.8858 0.992903 -4.52433 0
M  V30 408 C 47.6208 1.11687 -5.62418 0
M  V30 409 N 47.1168 1.20645 -6.82214 0
M  V30 410 N 48.9098 1.14994 -5.50212 0
M  V30 411 H 41.0608 -0.597109 -2.03834 0
M  V30 412 H 43.3238 -0.205925 -0.925364 0
M  V30 413 H 43.0298 -0.175658 -3.51261 0
M  V30 414 H 42.9038 1.57255 -3.42857 0
M  V30 415 H 45.2908 1.65903 -2.4405 0
M  V30 416 H 45.3718 -0.104762 -2.55585 0
M  V30 417 H 45.0158 0.0661971 -5.07857 0
M  V30 418 H 44.9458 1.84045 -4.93391 0
M  V30 419 H 47.4368 0.935064 -3.66149 0
M  V30 420 H 47.7498 1.30008 -7.61786 0
M  V30 421 H 46.0948 1.17605 -6.84977 0
M  V30 422 H 49.2858 1.07643 -4.55555 0
M  V30 423 H 49.4588 1.24311 -6.35965 0
M  V30 424 N 42.8649 1.48995 0.513639 0
M  V30 425 C 43.8279 1.64229 1.59879 0
M  V30 426 C 44.8279 0.514696 1.5234 0
M  V30 427 O 46.0179 0.78087 1.55718 0
M  V30 428 C 43.1499 1.62783 2.99524 0
M  V30 429 H 44.3429 2.61004 1.47705 0
M  V30 430 H 41.8959 1.37837 0.736936 0
M  V30 431 H 42.6309 0.675461 3.17188 0
M  V30 432 H 42.4159 2.4466 3.06404 0
M  V30 433 H 43.9059 1.76669 3.78388 0
M  V30 434 N 44.343 -0.763751 1.37857 0
M  V30 435 C 45.591 -1.51957 1.33243 0
M  V30 436 C 45.912 -1.94835 -0.0801709 0
M  V30 437 O 45.182 -1.66894 -1.02582 0
M  V30 438 H 43.762 -0.563626 0.49024 0
M  V30 439 H 46.424 -0.908504 1.7243 0
M  V30 440 H 45.52 -2.41523 1.97669 0
M  V30 441 N 45.8211 -1.22559 -0.990812 0
M  V30 442 C 46.7531 -0.955325 -2.08342 0
M  V30 443 C 47.7661 0.0668408 -1.62663 0
M  V30 444 O 48.9551 -0.167421 -1.77713 0
M  V30 445 C 46.0551 -0.415566 -3.36342 0
M  V30 446 C 45.2281 -1.49544 -4.11042 0
M  V30 447 C 44.2871 -0.962399 -5.17324 0
M  V30 448 O 43.3131 -1.64907 -5.44788 0
M  V30 449 N 44.5151 0.215134 -5.80101 0
M  V30 450 H 47.2801 -1.89596 -2.32106 0
M  V30 451 H 44.8411 -1.13276 -1.15673 0
M  V30 452 H 46.8331 -0.0442386 -4.04676 0
M  V30 453 H 45.4031 0.430232 -3.09625 0
M  V30 454 H 44.6231 -2.04 -3.37309 0
M  V30 455 H 45.9111 -2.22195 -4.57719 0
M  V30 456 H 45.3091 0.789779 -5.6016 0
M  V30 457 H 43.8661 0.527826 -6.49659 0
M  V30 458 N 47.2992 1.18797 -1.03562 0
M  V30 459 C 48.5482 1.87978 -0.731235 0
M  V30 460 C 48.8612 1.80911 0.743671 0
M  V30 461 O 50.0672 2.45407 1.16137 0
M  V30 462 C 48.5232 3.3721 -1.25768 0
M  V30 463 C 48.1312 3.52818 -2.76085 0
M  V30 464 C 49.8752 4.11825 -1.0296 0
M  V30 465 C 47.7822 4.9598 -3.22114 0
M  V30 466 H 46.7122 0.704063 -0.269835 0
M  V30 467 H 49.3632 1.34266 -1.25079 0
M  V30 468 H 47.7452 3.90359 -0.666011 0
M  V30 469 H 48.9192 3.09965 -3.40966 0
M  V30 470 H 47.2342 2.91602 -2.97249 0
M  V30 471 H 49.8312 5.17411 -1.34869 0
M  V30 472 H 50.1742 4.16287 0.0333546 0
M  V30 473 H 50.7072 3.64833 -1.58562 0
M  V30 474 H 47.4462 4.96684 -4.27768 0
M  V30 475 H 46.9662 5.39569 -2.61965 0
M  V30 476 H 48.6452 5.6467 -3.15844 0
M  V30 477 N 48.7773 0.814389 1.34928 0
M  V30 478 C 50.0263 0.394871 1.97797 0
M  V30 479 C 50.3393 -1.04555 1.65311 0
M  V30 480 O 51.5453 -1.56856 2.21604 0
M  V30 481 C 50.0013 0.655103 3.53888 0
M  V30 482 C 49.6093 2.10858 3.95276 0
M  V30 483 C 51.3533 0.301329 4.23429 0
M  V30 484 C 49.2603 2.31415 5.44244 0
M  V30 485 H 48.1903 0.143913 0.740139 0
M  V30 486 H 50.8413 0.999544 1.53888 0
M  V30 487 H 49.2233 -0.0196253 3.95995 0
M  V30 488 H 50.3973 2.82176 3.64298 0
M  V30 489 H 48.7123 2.42297 3.38646 0
M  V30 490 H 51.3093 0.432869 5.32945 0
M  V30 491 H 51.6523 -0.75331 4.09428 0
M  V30 492 H 52.1853 0.930288 3.86769 0
M  V30 493 H 48.9243 3.35353 5.63222 0
M  V30 494 H 48.4443 1.6463 5.76764 0
M  V30 495 H 50.1233 2.13352 6.10811 0
M  V30 496 N 50.2554 -1.46986 0.568584 0
M  V30 497 C 51.6714 -1.57946 0.229189 0
M  V30 498 C 51.8714 -1.56567 -1.26843 0
M  V30 499 O 50.9274 -1.47511 -2.04931 0
M  V30 500 C 52.2404 -2.87963 0.865909 0
M  V30 501 C 53.7884 -3.01568 0.838188 0
M  V30 502 C 54.2634 -4.34301 1.45419 0
M  V30 503 N 55.7544 -4.40965 1.41788 0
M  V30 504 C 56.4894 -5.42256 1.86403 0
M  V30 505 N 55.9854 -6.50297 2.38926 0
M  V30 506 N 57.7784 -5.3337 1.77405 0
M  V30 507 H 49.9294 -1.46126 1.54146 0
M  V30 508 H 52.1924 -0.696156 0.643484 0
M  V30 509 H 51.8984 -2.94742 1.91886 0
M  V30 510 H 51.7724 -3.75423 0.365687 0
M  V30 511 H 54.1594 -2.94379 -0.206106 0
M  V30 512 H 54.2404 -2.1562 1.37629 0
M  V30 513 H 53.8844 -4.42247 2.49761 0
M  V30 514 H 53.8144 -5.19 0.891435 0
M  V30 515 H 56.3054 -3.63484 1.03381 0
M  V30 516 H 56.6184 -7.23777 2.70863 0
M  V30 517 H 54.9634 -6.51155 2.42944 0
M  V30 518 H 58.1544 -4.47865 1.3614 0
M  V30 519 H 58.3274 -6.12169 2.12492 0
M  V30 520 N 51.7335 -0.305618 -1.54608 0
M  V30 521 C 52.6805 0.568421 -2.23691 0
M  V30 522 C 53.6505 1.12592 -1.22116 0
M  V30 523 O 54.8355 1.16959 -1.50749 0
M  V30 524 C 51.9755 1.7322 -2.98477 0
M  V30 525 C 51.0885 1.20566 -4.14835 0
M  V30 526 C 50.2235 2.33368 -4.77193 0
M  V30 527 C 49.2625 1.7787 -5.85686 0
M  V30 528 N 48.3995 2.84263 -6.4198 0
M  V30 529 H 53.2395 -0.0272867 -2.97988 0
M  V30 530 H 50.7765 -0.0252363 -1.47078 0
M  V30 531 H 52.7345 2.41675 -3.40072 0
M  V30 532 H 51.3645 2.29947 -2.26548 0
M  V30 533 H 50.4165 0.413223 -3.78149 0
M  V30 534 H 51.7285 0.759417 -4.92985 0
M  V30 535 H 50.8825 3.09761 -5.21664 0
M  V30 536 H 49.6215 2.8132 -3.98385 0
M  V30 537 H 48.6265 0.99968 -5.40635 0
M  V30 538 H 49.8515 1.30816 -6.66381 0
M  V30 539 H 47.7975 3.31541 -5.66053 0
M  V30 540 H 47.7145 2.44149 -7.15491 0
M  V30 541 H 48.9825 3.6054 -6.91109 0
M  V30 542 N 53.2116 1.57565 -0.0334293 0
M  V30 543 C 54.1746 2.09393 0.932048 0
M  V30 544 C 55.1746 1.00986 1.25134 0
M  V30 545 O 56.3646 1.27129 1.19096 0
M  V30 546 C 53.4966 2.56338 2.2473 0
M  V30 547 H 54.6896 2.95984 0.483085 0
M  V30 548 H 52.2426 1.54819 0.21468 0
M  V30 549 H 52.9776 1.7309 2.74245 0
M  V30 550 H 52.7626 3.35542 2.02865 0
M  V30 551 H 54.2526 2.96646 2.93923 0
M  V30 552 N 54.6897 -0.239769 1.55765 0
M  V30 553 C 55.6197 -1.30052 1.9393 0
M  V30 554 C 56.6007 -1.49839 0.805132 0
M  V30 555 O 57.7857 -1.62328 1.06599 0
M  V30 556 C 54.9157 -2.65391 2.2402 0
M  V30 557 C 53.8697 -2.60289 3.39755 0
M  V30 558 C 53.1957 -3.99489 3.55405 0
M  V30 559 C 54.4957 -2.16654 4.75246 0
M  V30 560 H 56.1897 -0.983573 2.82783 0
M  V30 561 H 53.7357 -0.471701 1.36055 0
M  V30 562 H 55.6887 -3.3974 2.49308 0
M  V30 563 H 54.4127 -2.98736 1.32 0
M  V30 564 H 53.0717 -1.88398 3.14487 0
M  V30 565 H 52.7197 -4.30112 2.60793 0
M  V30 566 H 52.4197 -3.96962 4.33238 0
M  V30 567 H 53.9437 -4.75528 3.83022 0
M  V30 568 H 55.3577 -2.80737 4.99859 0
M  V30 569 H 53.7547 -2.25223 5.56232 0
M  V30 570 H 54.8247 -1.11835 4.71827 0
M  V30 571 N 56.1678 -1.49265 -0.50573 0
M  V30 572 C 57.3958 -1.62215 -1.28429 0
M  V30 573 C 57.8108 -0.291697 -1.86533 0
M  V30 574 O 57.1678 0.722233 -1.67601 0
M  V30 575 C 57.2188 -2.68735 -2.41793 0
M  V30 576 O 56.9398 -3.96619 -1.86078 0
M  V30 577 C 58.4408 -2.92346 -3.3324 0
M  V30 578 H 55.6608 -0.546239 -0.389697 0
M  V30 579 H 58.2048 -1.95265 -0.607609 0
M  V30 580 H 56.3598 -2.38476 -3.053 0
M  V30 581 H 56.7738 -4.55256 -2.60465 0
M  V30 582 H 58.2478 -3.70623 -4.09075 0
M  V30 583 H 58.7248 -2.02081 -3.89948 0
M  V30 584 H 59.3308 -3.24003 -2.75503 0
M  V30 585 N 57.6459 0.756429 -1.3826 0
M  V30 586 C 58.5559 1.9009 -1.37488 0
M  V30 587 C 59.5719 1.71855 -0.272366 0
M  V30 588 O 60.7479 1.94827 -0.510318 0
M  V30 589 C 57.8129 3.25421 -1.19592 0
M  V30 590 C 56.8739 3.56202 -2.39622 0
M  V30 591 C 56.1069 4.85075 -2.2257 0
M  V30 592 O 56.3299 5.57246 -1.21793 0
M  V30 593 O 55.2639 5.15269 -3.11098 0
M  V30 594 H 59.0899 1.93695 -2.33914 0
M  V30 595 H 56.6749 0.901313 -1.1915 0
M  V30 596 H 58.5569 4.06337 -1.11661 0
M  V30 597 H 57.2319 3.22634 -0.262486 0
M  V30 598 H 56.1389 2.75458 -2.53128 0
M  V30 599 H 57.4719 3.63747 -3.31586 0
M  V30 600 N 59.124 1.23083 0.984299 0
M  V30 601 C 60.034 1.02515 2.11016 0
M  V30 602 C 61.05 -0.0291702 1.73976 0
M  V30 603 O 62.226 0.165434 2.00719 0
M  V30 604 C 59.291 0.614673 3.41208 0
M  V30 605 C 58.352 1.74359 3.92297 0
M  V30 606 C 57.585 1.35261 5.16275 0
M  V30 607 O 57.808 0.235136 5.69915 0
M  V30 608 O 56.742 2.17227 5.61334 0
M  V30 609 H 60.568 1.96862 2.31255 0
M  V30 610 H 58.153 1.01753 1.09392 0
M  V30 611 H 60.035 0.396518 4.1953 0
M  V30 612 H 58.71 -0.299851 3.22308 0
M  V30 613 H 57.617 2.01635 3.1511 0
M  V30 614 H 58.95 2.63629 4.15645 0
M  V30 615 N 60.6021 -1.18246 1.0419 0
M  V30 616 C 61.5491 -2.2192 0.634037 0
M  V30 617 C 62.5191 -1.62179 -0.358765 0
M  V30 618 O 63.7041 -1.89122 -0.252466 0
M  V30 619 C 60.8441 -3.451 0.00445535 0
M  V30 620 C 59.9571 -4.19174 1.04487 0
M  V30 621 C 59.0921 -5.29813 0.383676 0
M  V30 622 C 58.1311 -5.9566 1.4091 0
M  V30 623 N 57.2681 -6.97834 0.772784 0
M  V30 624 H 62.1081 -2.56164 1.52263 0
M  V30 625 H 59.6451 -1.25843 0.761701 0
M  V30 626 H 61.6031 -4.15485 -0.377919 0
M  V30 627 H 60.2331 -3.11472 -0.847652 0
M  V30 628 H 59.2851 -3.47604 1.54518 0
M  V30 629 H 60.5971 -4.64267 1.82368 0
M  V30 630 H 59.7511 -6.06677 -0.0528366 0
M  V30 631 H 58.4901 -4.85825 -0.427208 0
M  V30 632 H 57.4951 -5.17535 1.85574 0
M  V30 633 H 58.7201 -6.4173 2.22171 0
M  V30 634 H 56.6661 -6.55998 -0.0177708 0
M  V30 635 H 56.5831 -7.41186 1.48928 0
M  V30 636 H 57.8511 -7.78665 0.36071 0
M  V30 637 N 62.0802 -0.821533 -1.34494 0
M  V30 638 C 63.4962 -0.507117 -1.51329 0
M  V30 639 C 63.6962 0.968964 -1.76673 0
M  V30 640 O 62.7522 1.75348 -1.81685 0
M  V30 641 C 64.0652 -1.36544 -2.67911 0
M  V30 642 C 65.6132 -1.36242 -2.81793 0
M  V30 643 C 66.0882 -2.2052 -4.01416 0
M  V30 644 N 67.5792 -2.18136 -4.08621 0
M  V30 645 C 68.3142 -2.80095 -5.00334 0
M  V30 646 N 67.8102 -3.51039 -5.9728 0
M  V30 647 N 69.6032 -2.69656 -4.93196 0
M  V30 648 H 61.7542 -1.77729 -1.16302 0
M  V30 649 H 64.0172 -0.757291 -0.570276 0
M  V30 650 H 63.7232 -2.41361 -2.55808 0
M  V30 651 H 63.5972 -1.02917 -3.62888 0
M  V30 652 H 65.9842 -0.322041 -2.93338 0
M  V30 653 H 66.0652 -1.73866 -1.87628 0
M  V30 654 H 65.7092 -3.24607 -3.90631 0
M  V30 655 H 65.6392 -1.80247 -4.94791 0
M  V30 656 H 68.1302 -1.6653 -3.39229 0
M  V30 657 H 68.4432 -3.95565 -6.63889 0
M  V30 658 H 66.7882 -3.55145 -5.97409 0
M  V30 659 H 69.9792 -2.13808 -4.16418 0
M  V30 660 H 70.1522 -3.1823 -5.64476 0
M  V30 661 N 63.5583 1.46682 -0.576371 0
M  V30 662 C 64.8043 2.02712 -0.0596221 0
M  V30 663 C 65.1373 1.44765 1.29448 0
M  V30 664 O 64.4123 0.610355 1.84675 0
M  V30 665 C 64.6953 3.60098 0.0129503 0
M  V30 666 C 64.5483 4.28441 -1.3696 0
M  V30 667 C 65.8673 4.34224 0.71678 0
M  V30 668 H 62.9863 0.736637 -0.0231407 0
M  V30 669 H 65.6283 1.74898 -0.742351 0
M  V30 670 H 63.7783 3.83926 0.594378 0
M  V30 671 H 65.4503 4.15896 -1.9957 0
M  V30 672 H 63.6933 3.8805 -1.93907 0
M  V30 673 H 64.3643 5.3716 -1.27135 0
M  V30 674 H 66.8403 4.15503 0.222908 0
M  V30 675 H 65.7163 5.43936 0.73657 0
M  V30 676 H 65.9773 4.04823 1.77682 0
M  V30 677 N 65.0364 0.313813 1.54444 0
M  V30 678 C 66.2614 -0.296681 2.05267 0
M  V30 679 C 66.6864 -1.45757 1.18897 0
M  V30 680 O 66.0444 -1.80239 0.195886 0
M  V30 681 C 66.0924 -0.71831 3.53373 0
M  V30 682 O 65.1964 -1.82175 3.69981 0
M  V30 683 H 64.5374 -0.0554061 0.661684 0
M  V30 684 H 67.0674 0.459387 1.99376 0
M  V30 685 H 67.0774 -1.00364 3.95463 0
M  V30 686 H 65.7524 0.130821 4.15694 0
M  V30 687 H 64.3294 -1.53598 3.39797 0
M  V30 688 N 66.5145 -1.57545 0.0417849 0
M  V30 689 C 67.7425 -1.96624 -0.643928 0
M  V30 690 C 68.1575 -0.918897 -1.64929 0
M  V30 691 O 67.5145 0.0979323 -1.82237 0
M  V30 692 C 67.5655 -3.35781 -1.33914 0
M  V30 693 O 67.2865 -4.365 -0.374048 0
M  V30 694 C 68.7875 -3.89566 -2.1155 0
M  V30 695 H 66.0075 -0.647316 -0.176702 0
M  V30 696 H 68.5515 -2.04229 0.105304 0
M  V30 697 H 66.7065 -3.29357 -2.03968 0
M  V30 698 H 67.1205 -5.17248 -0.869179 0
M  V30 699 H 68.5945 -4.89242 -2.55628 0
M  V30 700 H 69.0715 -3.24488 -2.9598 0
M  V30 701 H 69.6775 -3.99298 -1.46427 0
M  V30 702 N 67.9926 0.231505 -1.5589 0
M  V30 703 C 68.9396 1.28682 -1.91598 0
M  V30 704 C 69.9096 1.47071 -0.771974 0
M  V30 705 O 71.0946 1.60802 -1.027 0
M  V30 706 C 68.2346 2.6342 -2.22944 0
M  V30 707 C 67.3476 2.52912 -3.50228 0
M  V30 708 C 66.4826 3.80106 -3.7107 0
M  V30 709 C 65.5216 3.64279 -4.91902 0
M  V30 710 N 64.6586 4.834 -5.09184 0
M  V30 711 H 69.4986 0.975305 -2.81588 0
M  V30 712 H 67.0356 0.470299 -1.39379 0
M  V30 713 H 68.9936 3.41869 -2.39126 0
M  V30 714 H 67.6236 2.92687 -1.36139 0
M  V30 715 H 66.6756 1.6595 -3.42294 0
M  V30 716 H 67.9876 2.37133 -4.38827 0
M  V30 717 H 67.1416 4.66999 -3.87295 0
M  V30 718 H 65.8806 3.98799 -2.80733 0
M  V30 719 H 64.8856 2.7577 -4.75637 0
M  V30 720 H 66.1106 3.47067 -5.83714 0
M  V30 721 H 64.0566 5.02425 -4.21788 0
M  V30 722 H 63.9736 4.70311 -5.91898 0
M  V30 723 H 65.2416 5.71747 -5.29835 0
M  V30 724 N 69.4707 1.49531 0.497807 0
M  V30 725 C 70.6987 1.62893 1.27567 0
M  V30 726 C 71.1137 0.301585 1.86376 0
M  V30 727 O 70.4707 -0.713335 1.67982 0
M  V30 728 C 70.5217 2.70013 2.40364 0
M  V30 729 O 70.2427 3.976 1.83972 0
M  V30 730 C 71.7437 2.94109 3.31685 0
M  V30 731 H 68.9637 0.548298 0.386794 0
M  V30 732 H 71.5077 1.95584 0.597245 0
M  V30 733 H 69.6627 2.40092 3.04031 0
M  V30 734 H 70.0767 4.56631 2.58047 0
M  V30 735 H 71.5507 3.72788 4.07104 0
M  V30 736 H 72.0277 2.04147 3.88871 0
M  V30 737 H 72.6337 3.2546 2.73781 0
M  V30 738 N 70.9488 -0.749086 1.3866 0
M  V30 739 C 72.1738 -1.54344 1.38538 0
M  V30 740 C 72.5988 -1.88088 -0.0216655 0
M  V30 741 O 71.9568 -1.50899 -1.00494 0
M  V30 742 C 72.0048 -2.8164 2.25192 0
M  V30 743 O 71.1088 -3.7698 1.67212 0
M  V30 744 H 70.4498 -0.466654 0.472367 0
M  V30 745 H 72.9798 -0.925355 1.82478 0
M  V30 746 H 72.9898 -3.30519 2.3921 0
M  V30 747 H 71.6648 -2.56411 3.27454 0
M  V30 748 H 70.2418 -3.35699 1.6236 0
M  V30 749 N 72.4269 -1.23603 -0.977757 0
M  V30 750 C 73.3899 -1.02069 -2.05218 0
M  V30 751 C 74.3899 0.0184305 -1.60789 0
M  V30 752 O 75.5799 -0.221569 -1.72785 0
M  V30 753 C 72.7119 -0.544926 -3.36517 0
M  V30 754 H 73.9049 -1.9742 -2.25755 0
M  V30 755 H 71.4579 -1.05684 -1.15155 0
M  V30 756 H 72.1929 0.412241 -3.21669 0
M  V30 757 H 71.9779 -1.2948 -3.70105 0
M  V30 758 H 73.4679 -0.414985 -4.15533 0
M  V30 759 N 73.905 1.17692 -1.04816 0
M  V30 760 C 74.868 2.19787 -0.650117 0
M  V30 761 C 75.868 1.58044 0.296427 0
M  V30 762 O 77.058 1.74012 0.0808097 0
M  V30 763 C 74.19 3.40869 0.0456987 0
M  V30 764 H 75.383 2.56516 -1.5537 0
M  V30 765 H 72.936 1.31708 -0.841594 0
M  V30 766 H 73.671 3.09681 0.962726 0
M  V30 767 H 73.456 3.86928 -0.634727 0
M  V30 768 H 74.946 4.16445 0.310432 0
M  V30 769 N 75.3831 0.828654 1.34056 0
M  V30 770 C 76.6601 0.341809 1.9259 0
M  V30 771 C 77.0401 -1.17158 1.75605 0
M  V30 772 O 76.3881 -1.98132 1.13824 0
M  V30 773 C 76.5981 0.777453 3.4023 0
M  V30 774 C 77.9461 0.779579 4.17382 0
M  V30 775 O 78.9701 0.7204 3.48839 0
M  V30 776 O 77.8291 0.857996 5.39723 0
M  V30 777 H 74.9231 0.0946085 0.821571 0
M  V30 778 H 77.4691 0.913827 1.42994 0
M  V30 779 H 76.2411 1.8196 3.46419 0
M  V30 780 H 75.8641 0.181444 3.97186 0
M  V30 781 N 76.8612 -1.46375 0.584142 0
M  V30 782 C 77.7912 -2.33103 -0.136037 0
M  V30 783 C 78.7722 -1.45431 -0.882255 0
M  V30 784 O 79.9572 -1.74246 -0.857434 0
M  V30 785 C 77.0872 -3.27731 -1.14933 0
M  V30 786 C 76.0412 -4.24855 -0.517862 0
M  V30 787 C 75.3672 -5.09001 -1.63773 0
M  V30 788 C 76.6672 -5.19439 0.545886 0
M  V30 789 H 78.3612 -2.93568 0.588086 0
M  V30 790 H 75.9072 -1.41166 0.284259 0
M  V30 791 H 77.8602 -3.87261 -1.66153 0
M  V30 792 H 76.5842 -2.65377 -1.90375 0
M  V30 793 H 75.2432 -3.6659 -0.0267361 0
M  V30 794 H 74.8912 -4.43031 -2.38185 0
M  V30 795 H 74.5912 -5.74777 -1.22085 0
M  V30 796 H 76.1152 -5.71396 -2.15266 0
M  V30 797 H 77.5292 -5.73177 0.118704 0
M  V30 798 H 75.9262 -5.93566 0.88317 0
M  V30 799 H 76.9962 -4.63285 1.43162 0
M  V30 800 N 78.3393 -0.321999 -1.54275 0
M  V30 801 C 79.5853 0.281461 -2.00837 0
M  V30 802 C 79.9183 1.51909 -1.20985 0
M  V30 803 O 79.1933 1.923 -0.291733 0
M  V30 804 C 79.4763 0.617162 -3.54772 0
M  V30 805 C 79.3293 -0.631064 -4.45351 0
M  V30 806 C 80.6483 1.43542 -4.16033 0
M  V30 807 H 77.7673 0.100826 -0.730071 0
M  V30 808 H 80.4093 -0.438268 -1.84876 0
M  V30 809 H 78.5593 1.23034 -3.68504 0
M  V30 810 H 80.2313 -1.26934 -4.43492 0
M  V30 811 H 78.4743 -1.26025 -4.15091 0
M  V30 812 H 79.1453 -0.351735 -5.50878 0
M  V30 813 H 81.6213 0.917134 -4.05867 0
M  V30 814 H 80.4973 1.63907 -5.23856 0
M  V30 815 H 80.7583 2.43108 -3.69257 0
M  V30 816 N 79.8174 1.5752 -0.0501392 0
M  V30 817 C 81.0454 1.96963 0.633492 0
M  V30 818 C 81.4604 0.927631 1.6444 0
M  V30 819 O 80.8174 -0.0882665 1.82286 0
M  V30 820 C 80.8684 3.36487 1.32132 0
M  V30 821 O 80.5894 4.36693 0.350894 0
M  V30 822 C 82.0904 3.90682 2.09481 0
M  V30 823 H 79.3104 0.648244 0.173266 0
M  V30 824 H 81.8544 2.0417 -0.116134 0
M  V30 825 H 80.0094 3.30434 2.02218 0
M  V30 826 H 80.4234 5.17702 0.841735 0
M  V30 827 H 81.8974 4.90591 2.5303 0
M  V30 828 H 82.3744 3.26053 2.94255 0
M  V30 829 H 82.9804 4.00069 1.44307 0
M  V30 830 N 81.2955 -0.223234 1.56011 0
M  V30 831 C 82.2055 -1.29766 1.95443 0
M  V30 832 C 83.2215 -1.51373 0.858028 0
M  V30 833 O 84.3975 -1.64536 1.16146 0
M  V30 834 C 81.4625 -2.62772 2.26167 0
M  V30 835 C 80.5235 -2.49482 3.49367 0
M  V30 836 C 79.7565 -3.76145 3.78616 0
M  V30 837 O 79.9795 -4.79087 3.09568 0
M  V30 838 O 78.9135 -3.73358 4.72109 0
M  V30 839 H 82.7395 -0.99309 2.87004 0
M  V30 840 H 80.3245 -0.425958 1.43199 0
M  V30 841 H 82.2065 -3.41327 2.47131 0
M  V30 842 H 80.8815 -2.92913 1.37781 0
M  V30 843 H 79.7885 -1.69133 3.33684 0
M  V30 844 H 81.1215 -2.2428 4.38131 0
M  V30 845 N 82.7736 -1.49793 -0.48987 0
M  V30 846 C 84.0016 -1.63568 -1.26701 0
M  V30 847 C 84.4166 -0.311465 -1.86213 0
M  V30 848 O 83.7736 0.704416 -1.68357 0
M  V30 849 C 83.8246 -2.71284 -2.38929 0
M  V30 850 O 83.5456 -3.9857 -1.81861 0
M  V30 851 C 85.0466 -2.95864 -3.3012 0
M  V30 852 H 82.2666 -0.550342 -0.383881 0
M  V30 853 H 84.8106 -1.95898 -0.586864 0
M  V30 854 H 82.9656 -2.417 -3.02753 0
M  V30 855 H 83.3796 -4.57993 -2.55622 0
M  V30 856 H 84.8536 -3.74941 -4.05121 0
M  V30 857 H 85.3306 -2.06206 -3.87783 0
M  V30 858 H 85.9366 -3.26907 -2.72051 0
M  V30 859 N 84.2517 0.741722 -1.39055 0
M  V30 860 C 85.5287 1.49252 -1.26425 0
M  V30 861 C 85.9087 2.10705 0.129144 0
M  V30 862 O 85.2567 1.98045 1.13976 0
M  V30 863 C 85.4667 2.54934 -2.38347 0
M  V30 864 C 86.8147 3.21506 -2.77343 0
M  V30 865 O 87.8387 2.65245 -2.37747 0
M  V30 866 O 86.6977 4.23294 -3.45665 0
M  V30 867 H 83.7917 0.662451 -0.495064 0
M  V30 868 H 86.3377 0.776121 -1.50912 0
M  V30 869 H 85.1097 2.07857 -3.31529 0
M  V30 870 H 84.7327 3.34141 -2.15489 0
M  V30 871 N 85.7298 1.2412 0.971189 0
M  V30 872 C 86.6798 0.997551 2.05019 0
M  V30 873 C 87.6638 -0.0597747 1.60789 0
M  V30 874 O 88.8558 0.153516 1.76333 0
M  V30 875 C 85.9848 0.600557 3.38006 0
M  V30 876 C 85.0708 1.69377 3.88809 0
M  V30 877 N 85.4618 2.92586 4.12586 0
M  V30 878 C 83.7598 1.57048 4.17435 0
M  V30 879 C 84.4608 3.63431 4.54195 0
M  V30 880 N 83.4368 2.90979 4.59165 0
M  V30 881 H 87.2388 1.93316 2.21374 0
M  V30 882 H 84.7528 1.14194 1.1547 0
M  V30 883 H 86.7498 0.40725 4.14906 0
M  V30 884 H 85.4098 -0.327903 3.2304 0
M  V30 885 H 86.4208 3.288 4.00139 0
M  V30 886 H 83.0978 0.709798 4.11422 0
M  V30 887 H 84.4878 4.69102 4.81033 0
M  V30 888 N 87.2079 -1.17134 1.05439 0
M  V30 889 C 88.1379 -2.2342 0.678649 0
M  V30 890 C 89.1189 -1.66971 -0.32476 0
M  V30 891 O 90.3039 -1.93149 -0.201802 0
M  V30 892 C 87.4339 -3.47256 0.0552099 0
M  V30 893 C 86.3879 -4.16543 0.98365 0
M  V30 894 C 85.7139 -5.34231 0.223961 0
M  V30 895 C 87.0139 -4.68495 2.3089 0
M  V30 896 H 88.7079 -2.55105 1.56722 0
M  V30 897 H 86.2539 -1.2262 0.754998 0
M  V30 898 H 88.2069 -4.20828 -0.21946 0
M  V30 899 H 86.9309 -3.14846 -0.868319 0
M  V30 900 H 85.5899 -3.44887 1.24293 0
M  V30 901 H 85.2379 -4.98071 -0.702412 0
M  V30 902 H 84.9379 -5.81527 0.842627 0
M  V30 903 H 86.4619 -6.10585 -0.0433671 0
M  V30 904 H 87.8759 -5.33691 2.09396 0
M  V30 905 H 86.2729 -5.26379 2.88176 0
M  V30 906 H 87.3429 -3.85169 2.94572 0
M  V30 907 N 88.686 -0.835752 -1.33615 0
M  V30 908 C 89.932 -0.430596 -1.98176 0
M  V30 909 C 90.265 1.00684 -1.66061 0
M  V30 910 O 89.54 1.70339 -0.938877 0
M  V30 911 C 89.823 -0.648065 -3.5422 0
M  V30 912 C 89.676 -2.13255 -3.96033 0
M  V30 913 C 90.995 -0.0922113 -4.40003 0
M  V30 914 H 88.114 -0.157924 -0.719881 0
M  V30 915 H 90.756 -1.05069 -1.58305 0
M  V30 916 H 88.906 -0.120237 -3.88314 0
M  V30 917 H 90.578 -2.725 -3.72211 0
M  V30 918 H 88.821 -2.61823 -3.45878 0
M  V30 919 H 89.492 -2.23547 -5.04708 0
M  V30 920 H 91.968 -0.543343 -4.12537 0
M  V30 921 H 90.844 -0.274083 -5.48215 0
M  V30 922 H 91.105 1.00378 -4.30554 0
M  V30 923 N 90.1641 1.46063 -0.591896 0
M  V30 924 C 91.0741 2.34192 0.13831 0
M  V30 925 C 92.0901 1.50305 0.876608 0
M  V30 926 O 93.2661 1.8315 0.837728 0
M  V30 927 C 90.3311 3.27656 1.13326 0
M  V30 928 C 89.3921 4.27445 0.39863 0
M  V30 929 C 88.6251 5.16443 1.34618 0
M  V30 930 O 88.8481 5.08553 2.58321 0
M  V30 931 O 87.7821 5.95843 0.851768 0
M  V30 932 H 91.6081 2.98002 -0.58552 0
M  V30 933 H 89.1931 1.45188 -0.352239 0
M  V30 934 H 91.0751 3.85291 1.70671 0
M  V30 935 H 89.7501 2.6643 1.83839 0
M  V30 936 H 88.6571 3.73471 -0.216895 0
M  V30 937 H 89.9901 4.91482 -0.265709 0
M  V30 938 N 91.6422 0.330177 1.54103 0
M  V30 939 C 92.9192 -0.325007 1.92881 0
M  V30 940 C 93.2992 -1.6934 1.26045 0
M  V30 941 O 92.6472 -2.24855 0.406526 0
M  V30 942 C 92.8572 -0.410634 3.46576 0
M  V30 943 C 94.2052 -0.667801 4.19316 0
M  V30 944 O 95.2292 -0.49329 3.52768 0
M  V30 945 O 94.0882 -1.00491 5.37181 0
M  V30 946 H 91.1822 -0.186873 0.80561 0
M  V30 947 H 93.7282 0.380376 1.65382 0
M  V30 948 H 92.5002 0.550164 3.87413 0
M  V30 949 H 92.1232 -1.16333 3.802 0
M  V30 950 N 93.1203 -1.57491 0.0584922 0
M  V30 951 C 94.0503 -2.14988 -0.911178 0
M  V30 952 C 95.0313 -1.07343 -1.31952 0
M  V30 953 O 96.2163 -1.35318 -1.39294 0
M  V30 954 C 93.3463 -2.70078 -2.18347 0
M  V30 955 C 92.3003 -3.82771 -1.91495 0
M  V30 956 C 91.6263 -4.24408 -3.25241 0
M  V30 957 C 92.9263 -5.07592 -1.23075 0
M  V30 958 H 94.6203 -2.96263 -0.432246 0
M  V30 959 H 92.1663 -1.42512 -0.206469 0
M  V30 960 H 94.1193 -3.08943 -2.86587 0
M  V30 961 H 92.8433 -1.86005 -2.68458 0
M  V30 962 H 91.5023 -3.44389 -1.25664 0
M  V30 963 H 91.1503 -3.37275 -3.73168 0
M  V30 964 H 90.8503 -5.00366 -3.08071 0
M  V30 965 H 92.3743 -4.65879 -3.94701 0
M  V30 966 H 93.7883 -5.43857 -1.81362 0
M  V30 967 H 92.1853 -5.88741 -1.16207 0
M  V30 968 H 93.2553 -4.84454 -0.207847 0
M  V30 969 N 94.5984 0.214957 -1.56127 0
M  V30 970 C 95.8474 0.936451 -1.78643 0
M  V30 971 C 96.1604 1.85237 -0.628229 0
M  V30 972 O 97.3664 2.613 -0.737186 0
M  V30 973 C 95.8224 1.7154 -3.16389 0
M  V30 974 C 95.4304 0.845299 -4.39953 0
M  V30 975 C 97.1744 2.42772 -3.48227 0
M  V30 976 C 95.0814 1.62198 -5.68723 0
M  V30 977 H 94.0114 0.353401 -0.666051 0
M  V30 978 H 96.6624 0.190169 -1.82512 0
M  V30 979 H 95.0444 2.50484 -3.06715 0
M  V30 980 H 96.2184 0.0959353 -4.607 0
M  V30 981 H 94.5334 0.244789 -4.1568 0
M  V30 982 H 97.1304 3.01394 -4.41663 0
M  V30 983 H 97.4734 3.15984 -2.71035 0
M  V30 984 H 98.0064 1.70813 -3.5926 0
M  V30 985 H 94.7454 0.933011 -6.48826 0
M  V30 986 H 94.2654 2.34579 -5.52026 0
M  V30 987 H 95.9444 2.18095 -6.09133 0
M  V30 988 N 96.0765 1.50051 0.48192 0
M  V30 989 C 97.3255 1.59741 1.23149 0
M  V30 990 C 97.6385 0.298163 1.93314 0
M  V30 991 O 98.8445 0.273835 2.70116 0
M  V30 992 C 97.3005 2.81926 2.23708 0
M  V30 993 C 96.9085 4.18685 1.59396 0
M  V30 994 C 98.6525 3.00956 2.99375 0
M  V30 995 C 96.5595 5.3207 2.58178 0
M  V30 996 H 95.4895 0.594838 0.46334 0
M  V30 997 H 98.1405 1.76467 0.503169 0
M  V30 998 H 96.5225 2.58736 2.99786 0
M  V30 999 H 97.6965 4.52088 0.891811 0
M  V30 1000 H 96.0115 4.05171 0.960503 0
M  V30 1001 H 98.6085 3.82836 3.73283 0
M  V30 1002 H 98.9515 2.12258 3.58123 0
M  V30 1003 H 99.4845 3.24277 2.30411 0
M  V30 1004 H 96.2235 6.22888 2.04184 0
M  V30 1005 H 95.7435 5.03098 3.26577 0
M  V30 1006 H 97.4225 5.62196 3.20225 0
M  V30 1007 N 97.5546 -0.734337 1.39446 0
M  V30 1008 C 98.7796 -1.52866 1.40167 0
M  V30 1009 C 99.2046 -1.881 -0.00171513 0
M  V30 1010 O 98.5626 -1.51957 -0.988879 0
M  V30 1011 C 98.6106 -2.79235 2.28167 0
M  V30 1012 O 97.7146 -3.75185 1.71201 0
M  V30 1013 H 97.0556 -0.461618 0.477289 0
M  V30 1014 H 99.5856 -0.905949 1.8345 0
M  V30 1015 H 99.5956 -3.27963 2.42702 0
M  V30 1016 H 98.2706 -2.52923 3.30156 0
M  V30 1017 H 96.8476 -3.33958 1.65912 0
M  V30 1018 N 99.0327 -1.24633 -0.964593 0
M  V30 1019 C 99.9427 -1.05859 -2.09359 0
M  V30 1020 C 100.959 0.00148855 -1.74 0
M  V30 1021 O 102.135 -0.197346 -2.00431 0
M  V30 1022 C 99.1997 -0.668879 -3.40187 0
M  V30 1023 C 98.2607 -1.80578 -3.89474 0
M  V30 1024 C 97.4937 -1.43457 -5.14058 0
M  V30 1025 O 97.7167 -0.325775 -5.69469 0
M  V30 1026 O 96.6507 -2.2613 -5.57807 0
M  V30 1027 H 100.477 -2.00516 -2.28094 0
M  V30 1028 H 98.0617 -1.03481 -1.0776 0
M  V30 1029 H 99.9437 -0.463211 -4.18846 0
M  V30 1030 H 98.6187 0.248536 -3.22744 0
M  V30 1031 H 97.5257 -2.06623 -3.11862 0
M  V30 1032 H 98.8587 -2.70208 -4.11398 0
M  V30 1033 N 100.511 1.16574 -1.06058 0
M  V30 1034 C 101.441 2.23057 -0.690488 0
M  V30 1035 C 102.422 1.67141 0.315901 0
M  V30 1036 O 103.607 1.93253 0.191556 0
M  V30 1037 C 100.737 3.47222 -0.073625 0
M  V30 1038 C 99.6908 4.16016 -1.00573 0
M  V30 1039 C 99.0168 5.34104 -0.252289 0
M  V30 1040 C 100.317 4.67264 -2.33371 0
M  V30 1041 H 102.011 2.54271 -1.58072 0
M  V30 1042 H 99.5568 1.22218 -0.76149 0
M  V30 1043 H 101.51 4.20939 0.19714 0
M  V30 1044 H 100.234 3.15302 0.85161 0
M  V30 1045 H 98.8928 3.44223 -1.2612 0
M  V30 1046 H 98.5408 4.98437 0.675988 0
M  V30 1047 H 98.2408 5.81072 -0.873455 0
M  V30 1048 H 99.7648 6.10599 0.0109857 0
M  V30 1049 H 101.179 5.32573 -2.12223 0
M  V30 1050 H 99.5758 5.24843 -2.90963 0
M  V30 1051 H 100.646 3.83602 -2.96611 0
M  V30 1052 N 101.989 0.842826 1.3317 0
M  V30 1053 C 103.405 0.531128 1.50503 0
M  V30 1054 C 103.605 -0.940734 1.78192 0
M  V30 1055 O 102.661 -1.72436 1.84451 0
M  V30 1056 C 103.974 1.40789 2.65705 0
M  V30 1057 C 105.522 1.40708 2.79589 0
M  V30 1058 C 105.997 2.26878 3.97857 0
M  V30 1059 N 107.488 2.24609 4.05099 0
M  V30 1060 C 108.223 2.88019 4.95815 0
M  V30 1061 N 107.719 3.60496 5.9162 0
M  V30 1062 N 109.512 2.77469 4.88843 0
M  V30 1063 H 101.663 1.79557 1.1346 0
M  V30 1064 H 103.926 0.766267 0.558156 0
M  V30 1065 H 103.632 2.454 2.51936 0
M  V30 1066 H 103.506 1.08677 3.61205 0
M  V30 1067 H 105.893 0.368668 2.92788 0
M  V30 1068 H 105.974 1.76829 1.84838 0
M  V30 1069 H 105.618 3.3078 3.85418 0
M  V30 1070 H 105.548 1.88096 4.91861 0
M  V30 1071 H 108.039 1.71906 3.36536 0
M  V30 1072 H 108.352 4.06076 6.57512 0
M  V30 1073 H 106.697 3.64604 5.91683 0
M  V30 1074 H 109.888 2.20406 4.12963 0
M  V30 1075 H 110.061 3.2717 5.59342 0
M  V30 1076 N 103.467 -1.45747 0.599634 0
M  V30 1077 C 104.377 -2.34262 -0.125888 0
M  V30 1078 C 105.393 -1.50768 -0.868625 0
M  V30 1079 O 106.569 -1.83592 -0.828003 0
M  V30 1080 C 103.634 -3.28252 -1.11587 0
M  V30 1081 C 102.695 -4.27651 -0.375956 0
M  V30 1082 C 101.928 -5.1715 -1.31877 0
M  V30 1083 O 102.151 -5.09916 -2.55621 0
M  V30 1084 O 101.085 -5.96286 -0.820157 0
M  V30 1085 H 104.911 -2.97688 0.601315 0
M  V30 1086 H 102.496 -1.44999 0.359934 0
M  V30 1087 H 104.378 -3.86191 -1.68626 0
M  V30 1088 H 103.053 -2.67401 -1.82424 0
M  V30 1089 H 101.96 -3.7335 0.236698 0
M  V30 1090 H 103.293 -4.91334 0.29177 0
M  V30 1091 N 104.945 -0.338344 -1.53925 0
M  V30 1092 C 106.361 0.0137736 -1.59594 0
M  V30 1093 C 106.561 1.49186 -1.35447 0
M  V30 1094 O 105.617 2.24987 -1.14616 0
M  V30 1095 C 106.93 -0.41773 -2.97784 0
M  V30 1096 C 108.478 -0.369633 -3.1081 0
M  V30 1097 C 108.953 -0.776524 -4.51369 0
M  V30 1098 N 110.444 -0.730506 -4.57403 0
M  V30 1099 C 111.179 -1.01736 -5.64303 0
M  V30 1100 N 110.675 -1.3721 -6.79077 0
M  V30 1101 N 112.468 -0.941942 -5.54151 0
M  V30 1102 H 104.619 -1.3012 -1.67876 0
M  V30 1103 H 106.882 -0.530082 -0.78595 0
M  V30 1104 H 106.588 -1.44811 -3.20504 0
M  V30 1105 H 106.462 0.209729 -3.76616 0
M  V30 1106 H 108.849 0.651568 -2.87817 0
M  V30 1107 H 108.93 -1.03223 -2.34049 0
M  V30 1108 H 108.574 -1.79571 -4.75096 0
M  V30 1109 H 108.504 -0.0914649 -5.26521 0
M  V30 1110 H 110.995 -0.468783 -3.74981 0
M  V30 1111 H 111.308 -1.57597 -7.5656 0
M  V30 1112 H 109.653 -1.4105 -6.80536 0
M  V30 1113 H 112.844 -0.664184 -4.63364 0
M  V30 1114 H 113.017 -1.16884 -6.37371 0
M  V30 1115 N 106.423 1.57458 -0.0668435 0
M  V30 1116 C 107.67 1.93301 0.603406 0
M  V30 1117 C 107.998 0.946486 1.69917 0
M  V30 1118 O 107.253 -0.0387021 1.95662 0
M  V30 1119 C 107.552 3.35784 1.22409 0
M  V30 1120 C 107.218 4.50179 0.254955 0
M  V30 1121 C 105.88 4.81199 -0.0116746 0
M  V30 1122 C 108.232 5.19598 -0.408338 0
M  V30 1123 C 105.56 5.78978 -0.94877 0
M  V30 1124 C 107.912 6.18381 -1.33372 0
M  V30 1125 C 106.576 6.47821 -1.60887 0
M  V30 1126 H 105.846 0.707338 0.220802 0
M  V30 1127 H 108.493 1.91012 -0.136665 0
M  V30 1128 H 106.798 3.34515 2.03978 0
M  V30 1129 H 108.495 3.60804 1.74989 0
M  V30 1130 H 105.085 4.25983 0.472954 0
M  V30 1131 H 109.269 4.95832 -0.215456 0
M  V30 1132 H 104.525 6.00115 -1.16925 0
M  V30 1133 H 108.699 6.71277 -1.85367 0
M  V30 1134 H 106.326 7.23399 -2.33661 0
M  V30 1135 N 107.901 -0.206675 1.56239 0
M  V30 1136 C 109.312 -0.772383 1.69974 0
M  V30 1137 C 109.663 -1.84353 0.671436 0
M  V30 1138 O 108.788 -2.15695 -0.174491 0
M  V30 1139 C 109.383 -1.40779 3.08167 0
M  V30 1140 C 107.942 -1.92072 3.23706 0
M  V30 1141 C 107.089 -0.786347 2.65917 0
M  V30 1142 H 110.04 0.0182223 1.5869 0
M  V30 1143 H 110.061 -2.27696 3.04852 0
M  V30 1144 H 109.573 -0.627958 3.82986 0
M  V30 1145 H 107.674 -2.7281 2.53782 0
M  V30 1146 H 107.787 -2.09046 4.31087 0
M  V30 1147 H 106.151 -1.1976 2.24788 0
M  V30 1148 H 106.934 -0.0189416 3.43295 0
M  V30 1149 N 109.379 -1.50304 -0.473955 0
M  V30 1150 C 110.604 -1.65175 -1.25427 0
M  V30 1151 C 111.029 -0.333673 -1.85117 0
M  V30 1152 O 110.387 0.702114 -1.67153 0
M  V30 1153 C 110.435 -2.74295 -2.34082 0
M  V30 1154 O 109.539 -2.35349 -3.38651 0
M  V30 1155 H 108.88 -0.551944 -0.369126 0
M  V30 1156 H 111.41 -1.96662 -0.564364 0
M  V30 1157 H 111.42 -2.97285 -2.79438 0
M  V30 1158 H 110.095 -3.69959 -1.90008 0
M  V30 1159 H 108.672 -2.22794 -2.99027 0
M  V30 1160 N 110.857 0.726932 -1.39834 0
M  V30 1161 C 111.807 1.83232 -1.35683 0
M  V30 1162 C 112.791 1.59155 -0.236295 0
M  V30 1163 O 113.983 1.70522 -0.474488 0
M  V30 1164 C 111.112 3.21246 -1.21062 0
M  V30 1165 C 110.198 3.51125 -2.37849 0
M  V30 1166 N 110.589 3.51889 -3.63329 0
M  V30 1167 C 108.887 3.81527 -2.30982 0
M  V30 1168 C 109.588 3.79791 -4.40606 0
M  V30 1169 N 108.564 3.97971 -3.70297 0
M  V30 1170 H 112.366 1.8214 -2.30656 0
M  V30 1171 H 109.88 0.925545 -1.33444 0
M  V30 1172 H 111.877 4.00387 -1.16171 0
M  V30 1173 H 110.537 3.23572 -0.270458 0
M  V30 1174 H 111.548 3.33008 -3.96643 0
M  V30 1175 H 108.225 3.91411 -1.45272 0
M  V30 1176 H 109.615 3.86783 -5.49408 0
M  V30 1177 N 112.336 1.25143 0.95797 0
M  V30 1178 C 113.752 1.01892 1.22842 0
M  V30 1179 C 113.952 -0.266311 1.99732 0
M  V30 1180 O 113.008 -0.979913 2.3271 0
M  V30 1181 C 114.321 2.24004 2.00606 0
M  V30 1182 C 115.869 2.28731 2.13662 0
M  V30 1183 C 116.344 3.5049 2.94823 0
M  V30 1184 N 117.835 3.50866 3.02403 0
M  V30 1185 C 118.57 4.4174 3.65586 0
M  V30 1186 N 118.066 5.42882 4.30408 0
M  V30 1187 N 119.859 4.29429 3.62694 0
M  V30 1188 H 112.01 2.07718 0.443493 0
M  V30 1189 H 114.273 0.912031 0.258657 0
M  V30 1190 H 113.979 3.17395 1.51503 0
M  V30 1191 H 113.853 2.26907 3.01319 0
M  V30 1192 H 116.24 1.35865 2.61963 0
M  V30 1193 H 116.321 2.29848 1.12265 0
M  V30 1194 H 115.965 4.43676 2.47213 0
M  V30 1195 H 115.895 3.46617 3.96439 0
M  V30 1196 H 118.386 2.777 2.56302 0
M  V30 1197 H 118.699 6.0844 4.76467 0
M  V30 1198 H 117.044 5.46758 4.29047 0
M  V30 1199 H 120.235 3.49643 3.11236 0
M  V30 1200 H 120.408 5.00448 4.1165 0
M  V30 1201 N 113.814 -1.1601 1.06675 0
M  V30 1202 C 115.061 -1.86633 0.785781 0
M  V30 1203 C 115.389 -1.81929 -0.687896 0
M  V30 1204 O 114.644 -1.23253 -1.52011 0
M  V30 1205 C 114.943 -3.35547 1.23057 0
M  V30 1206 C 114.609 -3.60448 2.70902 0
M  V30 1207 C 113.271 -3.66954 3.11285 0
M  V30 1208 C 115.623 -3.7071 3.66365 0
M  V30 1209 C 112.951 -3.81225 4.45965 0
M  V30 1210 C 115.303 -3.86503 5.00797 0
M  V30 1211 C 113.967 -3.91252 5.40813 0
M  V30 1212 H 113.237 -0.682937 0.287538 0
M  V30 1213 H 115.884 -1.37146 1.33654 0
M  V30 1214 H 114.189 -3.87193 0.59907 0
M  V30 1215 H 115.886 -3.88583 0.990163 0
M  V30 1216 H 112.476 -3.56021 2.38636 0
M  V30 1217 H 116.66 -3.64991 3.36296 0
M  V30 1218 H 111.916 -3.83155 4.76447 0
M  V30 1219 H 116.09 -3.93385 5.74649 0
M  V30 1220 H 113.717 -4.02062 6.45174 0
M  V30 1221 N 115.292 -0.849877 -1.32721 0
M  V30 1222 C 116.541 -0.447175 -1.96681 0
M  V30 1223 C 116.854 1.00135 -1.68025 0
M  V30 1224 O 118.06 1.50926 -2.25685 0
M  V30 1225 C 116.516 -0.7487 -3.52026 0
M  V30 1226 C 116.124 -2.21264 -3.89546 0
M  V30 1227 C 117.868 -0.413487 -4.22481 0
M  V30 1228 C 115.775 -2.45763 -5.37917 0
M  V30 1229 H 114.705 -0.163486 -0.736063 0
M  V30 1230 H 117.356 -1.03999 -1.51183 0
M  V30 1231 H 115.738 -0.0853727 -3.95908 0
M  V30 1232 H 116.912 -2.91736 -3.56689 0
M  V30 1233 H 115.227 -2.5119 -3.32103 0
M  V30 1234 H 117.824 -0.574017 -5.3161 0
M  V30 1235 H 118.167 0.644492 -4.11281 0
M  V30 1236 H 118.7 -1.03251 -3.84167 0
M  V30 1237 H 115.439 -3.50168 -5.54132 0
M  V30 1238 H 114.959 -1.79864 -5.72197 0
M  V30 1239 H 116.638 -2.29471 -6.0494 0
M  V30 1240 N 116.77 1.45427 -0.607355 0
M  V30 1241 C 117.733 2.28974 0.101693 0
M  V30 1242 C 118.733 1.39754 0.795329 0
M  V30 1243 O 119.923 1.61878 0.643527 0
M  V30 1244 C 117.055 3.20768 1.15414 0
M  V30 1245 H 118.248 2.93147 -0.632844 0
M  V30 1246 H 115.801 1.51945 -0.366391 0
M  V30 1247 H 116.536 2.61395 1.91945 0
M  V30 1248 H 116.321 3.86489 0.66098 0
M  V30 1249 H 117.811 3.83589 1.65073 0
M  V30 1250 N 118.248 0.346503 1.53744 0
M  V30 1251 C 119.158 -0.517293 2.28826 0
M  V30 1252 C 120.174 -1.10935 1.3405 0
M  V30 1253 O 121.35 -1.1244 1.6709 0
M  V30 1254 C 118.415 -1.65098 3.04866 0
M  V30 1255 C 117.476 -1.0884 4.15274 0
M  V30 1256 C 116.709 -2.16806 4.87679 0
M  V30 1257 O 116.932 -3.3758 4.59778 0
M  V30 1258 O 115.866 -1.80934 5.74061 0
M  V30 1259 H 119.692 0.0931396 3.03557 0
M  V30 1260 H 117.277 0.111458 1.48984 0
M  V30 1261 H 119.159 -2.31053 3.5241 0
M  V30 1262 H 117.834 -2.24717 2.32989 0
M  V30 1263 H 116.741 -0.3933 3.72027 0
M  V30 1264 H 118.074 -0.537036 4.89261 0
M  V30 1265 N 119.726 -1.57421 0.075193 0
M  V30 1266 C 120.636 -2.1642 -0.905511 0
M  V30 1267 C 121.652 -1.12828 -1.32461 0
M  V30 1268 O 122.828 -1.45109 -1.39661 0
M  V30 1269 C 119.893 -2.71693 -2.15369 0
M  V30 1270 C 118.954 -3.90171 -1.79068 0
M  V30 1271 C 118.187 -4.42798 -2.97936 0
M  V30 1272 O 118.41 -3.94416 -4.12058 0
M  V30 1273 O 117.344 -5.34085 -2.77555 0
M  V30 1274 H 121.17 -3.00588 -0.433626 0
M  V30 1275 H 118.755 -1.48664 -0.148067 0
M  V30 1276 H 120.637 -3.07104 -2.88557 0
M  V30 1277 H 119.312 -1.90582 -2.61649 0
M  V30 1278 H 118.219 -3.59606 -1.03122 0
M  V30 1279 H 119.552 -4.72584 -1.37569 0
M  V30 1280 N 121.204 0.198386 -1.56346 0
M  V30 1281 C 122.167 1.22952 -1.93431 0
M  V30 1282 C 123.167 1.38611 -0.815092 0
M  V30 1283 O 124.357 1.36479 -1.08255 0
M  V30 1284 C 121.489 2.59946 -2.20546 0
M  V30 1285 H 122.682 0.912626 -2.85677 0
M  V30 1286 H 120.235 0.43977 -1.49986 0
M  V30 1287 H 120.97 2.96696 -1.30927 0
M  V30 1288 H 120.755 2.49953 -3.02102 0
M  V30 1289 H 122.245 3.3431 -2.50253 0
M  V30 1290 N 122.682 1.50554 0.465978 0
M  V30 1291 C 123.645 1.69233 1.54574 0
M  V30 1292 C 124.645 0.562901 1.50626 0
M  V30 1293 O 125.835 0.830016 1.53155 0
M  V30 1294 C 122.967 1.7223 2.94193 0
M  V30 1295 H 124.16 2.65571 1.39327 0
M  V30 1296 H 121.713 1.40111 0.692711 0
M  V30 1297 H 122.448 0.77603 3.14878 0
M  V30 1298 H 122.233 2.54285 2.98466 0
M  V30 1299 H 123.723 1.88618 3.72576 0
M  V30 1300 N 124.16 -0.719506 1.40217 0
M  V30 1301 C 125.123 -1.8153 1.39927 0
M  V30 1302 C 126.123 -1.58095 0.293723 0
M  V30 1303 O 127.313 -1.65209 0.552429 0
M  V30 1304 C 124.445 -3.19561 1.18716 0
M  V30 1305 H 125.638 -1.83186 2.37451 0
M  V30 1306 H 123.191 -0.924746 1.26008 0
M  V30 1307 H 123.926 -3.23557 0.219366 0
M  V30 1308 H 123.711 -3.3797 1.98793 0
M  V30 1309 H 125.201 -3.99598 1.21291 0
M  V30 1310 N 125.638 -1.25649 -0.95132 0
M  V30 1311 C 126.863 -1.13443 -1.73624 0
M  V30 1312 C 127.288 0.307565 -1.85568 0
M  V30 1313 O 126.646 1.22282 -1.33854 0
M  V30 1314 C 126.694 -1.79723 -3.12621 0
M  V30 1315 O 125.798 -1.07912 -3.98031 0
M  V30 1316 H 125.139 -0.395872 -0.533086 0
M  V30 1317 H 127.669 -1.66276 -1.1922 0
M  V30 1318 H 127.679 -1.86141 -3.63064 0
M  V30 1319 H 126.354 -2.84633 -3.03244 0
M  V30 1320 H 124.931 -1.09398 -3.56492 0
M  V30 1321 N 127.117 1.15442 -1.07289 0
M  V30 1322 C 128.365 1.85845 -0.794096 0
M  V30 1323 C 128.686 1.82692 0.681809 0
M  V30 1324 O 127.956 1.26741 1.49377 0
M  V30 1325 H 126.536 0.688089 -0.290763 0
M  V30 1326 H 129.198 1.39947 -1.3565 0
M  V30 1327 H 128.294 2.91001 -1.12804 0
M  V30 1328 N 128.595 0.856903 1.32268 0
M  V30 1329 C 129.558 0.308171 2.27119 0
M  V30 1330 C 130.558 -0.533421 1.51695 0
M  V30 1331 O 131.748 -0.344607 1.70757 0
M  V30 1332 C 128.88 -0.563757 3.36206 0
M  V30 1333 H 130.073 1.14535 2.77167 0
M  V30 1334 H 127.626 0.631421 1.42978 0
M  V30 1335 H 128.361 -1.42266 2.91429 0
M  V30 1336 H 128.146 0.0386749 3.92081 0
M  V30 1337 H 129.636 -0.940386 4.06874 0
M  V30 1338 N 130.073 -1.45103 0.615059 0
M  V30 1339 C 131.02 -2.30586 -0.0993978 0
M  V30 1340 C 131.99 -1.42544 -0.852669 0
M  V30 1341 O 133.175 -1.71465 -0.836917 0
M  V30 1342 C 130.315 -3.27572 -1.08583 0
M  V30 1343 C 129.428 -4.30717 -0.332656 0
M  V30 1344 C 128.563 -5.14807 -1.30947 0
M  V30 1345 C 127.602 -6.09673 -0.544538 0
M  V30 1346 N 126.739 -6.86517 -1.47101 0
M  V30 1347 H 131.579 -2.91144 0.635542 0
M  V30 1348 H 129.116 -1.4346 0.325206 0
M  V30 1349 H 131.074 -3.82276 -1.67095 0
M  V30 1350 H 129.704 -2.68751 -1.78809 0
M  V30 1351 H 128.756 -3.78615 0.368107 0
M  V30 1352 H 130.068 -4.98102 0.263842 0
M  V30 1353 H 129.222 -5.73948 -1.96643 0
M  V30 1354 H 127.961 -4.47458 -1.9399 0
M  V30 1355 H 126.966 -5.49656 0.126003 0
M  V30 1356 H 128.191 -6.79052 0.080947 0
M  V30 1357 H 126.137 -6.21851 -2.08895 0
M  V30 1358 H 126.054 -7.50281 -0.928137 0
M  V30 1359 H 127.322 -7.50194 -2.11731 0
M  V30 1360 N 131.551 -0.354651 -1.53558 0
M  V30 1361 C 132.791 0.238651 -2.03002 0
M  V30 1362 C 133.155 1.46878 -1.23656 0
M  V30 1363 O 134.356 2.13699 -1.63053 0
M  V30 1364 C 132.627 0.534175 -3.53386 0
M  V30 1365 S 134.186 1.10271 -4.24719 0
M  V30 1366 H 131.004 0.0702908 -0.707517 0
M  V30 1367 H 133.606 -0.494987 -1.8913 0
M  V30 1368 H 132.31 -0.368765 -4.0874 0
M  V30 1369 H 131.841 1.29718 -3.71398 0
M  V30 1370 H 133.856 2.38772 -4.34974 0
M  V30 1371 N 133.029 1.57378 -0.0835403 0
M  V30 1372 C 134.275 1.94217 0.583733 0
M  V30 1373 C 134.608 0.964653 1.68547 0
M  V30 1374 O 133.883 -0.00422258 1.945 0
M  V30 1375 C 134.166 3.41253 1.14972 0
M  V30 1376 C 134.019 4.49768 0.0538277 0
M  V30 1377 C 135.338 3.89352 2.05166 0
M  V30 1378 H 132.457 0.706233 0.210724 0
M  V30 1379 H 135.099 1.89392 -0.1519 0
M  V30 1380 H 133.249 3.45496 1.77665 0
M  V30 1381 H 134.921 4.57641 -0.579851 0
M  V30 1382 H 133.164 4.29432 -0.614068 0
M  V30 1383 H 133.835 5.49817 0.490452 0
M  V30 1384 H 136.311 3.87189 1.52393 0
M  V30 1385 H 135.187 4.92822 2.41698 0
M  V30 1386 H 135.448 3.27973 2.96456 0
M  V30 1387 N 134.507 -0.190092 1.56449 0
M  V30 1388 C 135.437 -1.23816 1.97969 0
M  V30 1389 C 136.418 -1.47201 0.852395 0
M  V30 1390 O 137.603 -1.58854 1.1171 0
M  V30 1391 C 134.733 -2.5813 2.3235 0
M  V30 1392 C 133.687 -2.49348 3.47864 0
M  V30 1393 C 133.013 -3.8798 3.67934 0
M  V30 1394 C 134.313 -2.01424 4.81898 0
M  V30 1395 H 136.007 -0.89311 2.85769 0
M  V30 1396 H 133.553 -0.428177 1.37487 0
M  V30 1397 H 135.506 -3.31637 2.59991 0
M  V30 1398 H 134.23 -2.94386 1.41438 0
M  V30 1399 H 132.889 -1.78297 3.20321 0
M  V30 1400 H 132.537 -4.21597 2.74344 0
M  V30 1401 H 132.237 -3.82978 4.45648 0
M  V30 1402 H 133.761 -4.63101 3.97957 0
M  V30 1403 H 135.175 -2.64693 5.08538 0
M  V30 1404 H 133.572 -2.07413 5.63116 0
M  V30 1405 H 134.642 -0.967677 4.75146 0
M  V30 1406 N 135.985 -1.50799 -0.457987 0
M  V30 1407 C 137.213 -1.66218 -1.23203 0
M  V30 1408 C 137.628 -0.350894 -1.85511 0
M  V30 1409 O 136.985 0.668546 -1.69814 0
M  V30 1410 C 137.036 -2.76291 -2.33121 0
M  V30 1411 O 136.757 -4.02338 -1.73366 0
M  V30 1412 C 138.258 -3.028 -3.2377 0
M  V30 1413 H 135.478 -0.558361 -0.372121 0
M  V30 1414 H 138.022 -1.97099 -0.545179 0
M  V30 1415 H 136.177 -2.48068 -2.97558 0
M  V30 1416 H 136.591 -4.63312 -2.4585 0
M  V30 1417 H 138.065 -3.8345 -3.97077 0
M  V30 1418 H 138.542 -2.14385 -3.83322 0
M  V30 1419 H 139.148 -3.32604 -2.65056 0
M  V30 1420 N 137.463 0.71206 -1.40597 0
M  V30 1421 C 138.413 1.81783 -1.37619 0
M  V30 1422 C 139.397 1.58896 -0.253162 0
M  V30 1423 O 140.589 1.70009 -0.492547 0
M  V30 1424 C 137.718 3.19944 -1.24462 0
M  V30 1425 C 136.804 3.48582 -2.4156 0
M  V30 1426 N 137.195 3.48016 -3.67041 0
M  V30 1427 C 135.493 3.79056 -2.35016 0
M  V30 1428 C 136.194 3.75096 -4.44609 0
M  V30 1429 N 135.17 3.94022 -3.74497 0
M  V30 1430 H 138.972 1.79683 -2.32575 0
M  V30 1431 H 136.486 0.91134 -1.34419 0
M  V30 1432 H 138.483 3.99133 -1.20411 0
M  V30 1433 H 137.143 3.23267 -0.304762 0
M  V30 1434 H 138.154 3.28782 -4.00153 0
M  V30 1435 H 134.831 3.89848 -1.49415 0
M  V30 1436 H 136.221 3.80934 -5.53479 0
M  V30 1437 N 138.941 1.26152 0.944643 0
M  V30 1438 C 140.166 1.14363 1.7302 0
M  V30 1439 C 140.591 -0.29772 1.85729 0
M  V30 1440 O 139.949 -1.2157 1.34501 0
M  V30 1441 C 139.997 1.81378 3.11664 0
M  V30 1442 O 139.101 1.10022 3.97453 0
M  V30 1443 H 138.442 0.398694 0.53098 0
M  V30 1444 H 140.972 1.66906 1.18337 0
M  V30 1445 H 140.982 1.88064 3.62072 0
M  V30 1446 H 139.657 2.86237 3.0173 0
M  V30 1447 H 138.234 1.11287 3.55907 0
M  V30 1448 N 140.419 -1.14872 1.07899 0
M  V30 1449 C 141.83 -1.67367 0.827363 0
M  V30 1450 C 142.181 -1.85236 -0.646693 0
M  V30 1451 O 141.306 -1.55974 -1.50004 0
M  V30 1452 C 141.901 -3.04016 1.49532 0
M  V30 1453 C 140.46 -3.53566 1.29106 0
M  V30 1454 C 139.607 -2.29161 1.56143 0
M  V30 1455 H 142.558 -0.990083 1.24028 0
M  V30 1456 H 142.579 -3.69219 0.919643 0
M  V30 1457 H 142.091 -2.90978 2.56814 0
M  V30 1458 H 140.192 -3.71835 0.238713 0
M  V30 1459 H 140.305 -4.34661 2.01511 0
M  V30 1460 H 138.669 -2.34978 0.982717 0
M  V30 1461 H 139.452 -2.18705 2.64619 0
M  V30 1462 N 141.898 -0.863906 -1.31812 0
M  V30 1463 C 143.126 -0.486111 -2.01108 0
M  V30 1464 C 143.541 0.919755 -1.64882 0
M  V30 1465 O 142.898 1.60162 -0.874893 0
M  V30 1466 C 142.949 -0.626435 -3.56031 0
M  V30 1467 O 142.67 -1.97693 -3.90959 0
M  V30 1468 C 144.171 -0.248857 -4.42601 0
M  V30 1469 H 141.391 -0.190052 -0.643523 0
M  V30 1470 H 143.935 -1.1634 -1.68182 0
M  V30 1471 H 142.09 0.00322717 -3.874 0
M  V30 1472 H 142.504 -1.98034 -4.85678 0
M  V30 1473 H 143.978 -0.398016 -5.50563 0
M  V30 1474 H 144.455 0.811489 -4.31638 0
M  V30 1475 H 145.061 -0.853971 -4.16638 0
M  V30 1476 N 143.376 1.44774 -0.622745 0
M  V30 1477 C 144.622 2.02968 -0.13257 0
M  V30 1478 C 144.977 1.48047 1.22881 0
M  V30 1479 O 144.27 0.651625 1.80179 0
M  V30 1480 C 144.464 3.57364 -0.0508323 0
M  V30 1481 C 144.293 4.27262 -1.40275 0
M  V30 1482 C 143.063 4.64577 -1.98737 0
M  V30 1483 C 145.261 4.58248 -2.3348 0
M  V30 1484 N 143.243 5.19404 -3.27251 0
M  V30 1485 C 144.614 5.14069 -3.46603 0
M  V30 1486 C 146.669 4.40195 -2.32664 0
M  V30 1487 C 145.372 5.53738 -4.59093 0
M  V30 1488 C 147.398 4.80907 -3.44213 0
M  V30 1489 C 146.76 5.36834 -4.56058 0
M  V30 1490 H 142.859 0.776541 -0.0922354 0
M  V30 1491 H 145.443 1.76385 -0.82441 0
M  V30 1492 H 143.614 3.83576 0.610265 0
M  V30 1493 H 145.346 4.02219 0.447397 0
M  V30 1494 H 142.101 4.48622 -1.51774 0
M  V30 1495 H 142.525 5.51301 -3.92933 0
M  V30 1496 H 147.167 3.96257 -1.47446 0
M  V30 1497 H 144.885 5.96635 -5.45025 0
M  V30 1498 H 148.471 4.68659 -3.44747 0
M  V30 1499 H 147.351 5.67755 -5.40947 0
M  V30 1500 N 144.854 0.36279 1.53368 0
M  V30 1501 C 146.103 -0.22888 2.00397 0
M  V30 1502 C 146.416 -1.50096 1.25421 0
M  V30 1503 O 147.622 -2.17106 1.63025 0
M  V30 1504 C 146.078 -0.458417 3.56969 0
M  V30 1505 C 145.686 0.798877 4.4082 0
M  V30 1506 C 147.43 -1.00789 4.12361 0
M  V30 1507 C 145.337 0.539078 5.88938 0
M  V30 1508 H 144.267 -0.089305 0.748693 0
M  V30 1509 H 146.918 0.481099 1.77081 0
M  V30 1510 H 145.3 -1.22959 3.76427 0
M  V30 1511 H 146.474 1.57262 4.33134 0
M  V30 1512 H 144.789 1.27137 3.96516 0
M  V30 1513 H 147.386 -1.21754 5.20653 0
M  V30 1514 H 147.729 -1.9692 3.66781 0
M  V30 1515 H 148.262 -0.296961 3.9669 0
M  V30 1516 H 145.001 1.47064 6.3879 0
M  V30 1517 H 144.521 -0.196222 5.99479 0
M  V30 1518 H 146.2 0.163542 6.46793 0
M  V30 1519 N 146.332 -1.57332 0.0918853 0
M  V30 1520 C 147.581 -1.93412 -0.572249 0
M  V30 1521 C 147.894 -0.975515 -1.69538 0
M  V30 1522 O 149.1 -1.22991 -2.42045 0
M  V30 1523 C 147.556 -3.43648 -1.0693 0
M  V30 1524 C 147.164 -4.47994 0.0239049 0
M  V30 1525 C 148.908 -3.88695 -1.70635 0
M  V30 1526 C 146.815 -5.89381 -0.488319 0
M  V30 1527 H 145.745 -0.721939 -0.217532 0
M  V30 1528 H 148.396 -1.82735 0.167369 0
M  V30 1529 H 146.778 -3.49466 -1.8625 0
M  V30 1530 H 147.952 -4.53815 0.799277 0
M  V30 1531 H 146.267 -4.12536 0.565946 0
M  V30 1532 H 148.864 -4.91725 -2.10025 0
M  V30 1533 H 149.207 -3.27166 -2.57426 0
M  V30 1534 H 149.74 -3.85564 -0.979023 0
M  V30 1535 H 146.479 -6.54602 0.342906 0
M  V30 1536 H 145.999 -5.87037 -1.23077 0
M  V30 1537 H 147.678 -6.39863 -0.958317 0
M  V30 1538 N 147.81 0.181792 -1.56548 0
M  V30 1539 C 149.087 0.926765 -1.72251 0
M  V30 1540 C 149.467 2.00831 -0.650386 0
M  V30 1541 O 148.815 2.26008 0.336521 0
M  V30 1542 C 149.025 1.50106 -3.1507 0
M  V30 1543 C 150.373 1.97805 -3.75711 0
M  V30 1544 O 151.397 1.59922 -3.18282 0
M  V30 1545 O 150.256 2.67555 -4.76525 0
M  V30 1546 H 147.35 0.435506 -0.703039 0
M  V30 1547 H 149.896 0.170443 -1.68842 0
M  V30 1548 H 148.668 0.72212 -3.84579 0
M  V30 1549 H 148.291 2.32186 -3.22763 0
M  V30 1550 N 149.288 1.51039 0.449983 0
M  V30 1551 C 150.699 1.557 1.03026 0
M  V30 1552 C 151.05 0.372939 1.92623 0
M  V30 1553 O 150.175 -0.511771 2.10261 0
M  V30 1554 C 150.77 2.82171 1.87523 0
M  V30 1555 C 149.329 2.89444 2.40622 0
M  V30 1556 C 148.476 2.50228 1.19504 0
M  V30 1557 H 151.427 1.56999 0.231745 0
M  V30 1558 H 151.448 2.65219 2.72835 0
M  V30 1559 H 150.96 3.68331 1.22286 0
M  V30 1560 H 149.061 2.07685 3.0935 0
M  V30 1561 H 149.174 3.92816 2.74285 0
M  V30 1562 H 147.538 2.03139 1.53644 0
M  V30 1563 H 148.321 3.38719 0.558972 0
M  V30 1564 N 150.766 -0.704594 1.40972 0
M  V30 1565 C 152.015 -1.46018 1.39146 0
M  V30 1566 C 152.328 -1.956 0.000589254 0
M  V30 1567 O 153.534 -2.71137 -0.1403 0
M  V30 1568 C 151.99 -2.63996 2.4461 0
M  V30 1569 C 151.598 -2.21238 3.89561 0
M  V30 1570 C 153.342 -3.41677 2.51907 0
M  V30 1571 C 151.249 -3.3612 4.86598 0
M  V30 1572 H 150.179 -0.548444 0.517422 0
M  V30 1573 H 152.83 -0.765784 1.66757 0
M  V30 1574 H 151.212 -3.3566 2.10115 0
M  V30 1575 H 152.386 -1.56923 4.33257 0
M  V30 1576 H 150.701 -1.56574 3.85841 0
M  V30 1577 H 153.298 -4.27182 3.2159 0
M  V30 1578 H 153.641 -3.86247 1.55303 0
M  V30 1579 H 154.174 -2.77064 2.85448 0
M  V30 1580 H 150.913 -2.96572 5.84573 0
M  V30 1581 H 150.433 -3.99315 4.47557 0
M  V30 1582 H 152.112 -4.02029 5.06934 0
M  V30 1583 N 152.244 -1.26651 -0.937939 0
M  V30 1584 C 153.521 -1.0313 -1.66204 0
M  V30 1585 C 153.901 0.437256 -2.06522 0
M  V30 1586 O 153.249 1.41831 -1.79154 0
M  V30 1587 C 153.459 -1.98314 -2.87181 0
M  V30 1588 C 154.807 -2.27107 -3.58758 0
M  V30 1589 O 155.831 -1.96205 -2.97291 0
M  V30 1590 O 154.69 -2.79736 -4.69479 0
M  V30 1591 H 151.784 -0.392384 -0.727986 0
M  V30 1592 H 154.33 -1.37874 -0.989382 0
M  V30 1593 H 153.102 -2.97399 -2.54302 0
M  V30 1594 H 152.725 -1.64068 -3.6217 0
M  V30 1595 N 153.722 1.14298 -1.08507 0
M  V30 1596 C 154.97 1.84993 -0.813763 0
M  V30 1597 C 155.291 1.83405 0.662393 0
M  V30 1598 O 154.561 1.28319 1.48024 0
M  V30 1599 H 153.141 0.684966 -0.298045 0
M  V30 1600 H 155.803 1.385 -1.37126 0
M  V30 1601 H 154.899 2.89788 -1.15884 0
M  V30 1602 N 155.201 0.870884 1.31352 0
M  V30 1603 C 156.429 0.49677 2.00848 0
M  V30 1604 C 156.844 -0.910998 1.65367 0
M  V30 1605 O 156.201 -1.59696 0.883374 0
M  V30 1606 C 156.252 0.645308 3.55694 0
M  V30 1607 O 155.973 1.99764 3.89905 0
M  V30 1608 C 157.474 0.272326 4.42463 0
M  V30 1609 H 154.694 0.193462 0.642506 0
M  V30 1610 H 157.238 1.1723 1.67563 0
M  V30 1611 H 155.393 0.0173176 3.87396 0
M  V30 1612 H 155.807 2.00607 4.84621 0
M  V30 1613 H 157.281 0.427208 5.50344 0
M  V30 1614 H 157.758 -0.788587 4.32062 0
M  V30 1615 H 158.364 0.876054 4.1618 0
M  V30 1616 N 156.679 -1.44442 0.630414 0
M  V30 1617 C 157.919 -2.03934 0.137919 0
M  V30 1618 C 158.283 -1.48509 -1.21692 0
M  V30 1619 O 159.484 -1.99499 -1.80149 0
M  V30 1620 C 157.755 -3.57187 0.123373 0
M  V30 1621 S 159.314 -4.37741 -0.304604 0
M  V30 1622 H 156.132 -0.708401 0.0607353 0
M  V30 1623 H 158.734 -1.76835 0.833643 0
M  V30 1624 H 157.438 -3.95032 1.11256 0
M  V30 1625 H 156.969 -3.88895 -0.59362 0
M  V30 1626 H 158.984 -4.71403 -1.54897 0
M  V30 1627 N 158.157 -0.370918 -1.53173 0
M  V30 1628 C 159.105 0.488101 -2.27421 0
M  V30 1629 C 160.099 1.07884 -1.30604 0
M  V30 1630 O 161.305 1.02143 -1.48212 0
M  V30 1631 H 157.68 0.176134 -0.731082 0
M  V30 1632 H 159.651 -0.159815 -2.97972 0
M  V30 1633 C 158.4 1.61306 -3.08019 0
M  V30 1634 H 157.723 1.1678 -3.82364 0
M  V30 1635 H 159.163 2.18872 -3.63141 0
M  V30 1636 C 157.622 2.55848 -2.19188 0
M  V30 1637 O 158.152 3.58799 -1.80626 0
M  V30 1638 N 156.358 2.2516 -1.83715 0
M  V30 1639 H 155.905 1.41476 -2.15273 0
M  V30 1640 H 155.863 2.8867 -1.24567 0
M  V30 1641 N 159.635 1.57281 -0.100228 0
M  V30 1642 C 160.882 1.94537 0.562268 0
M  V30 1643 C 161.21 0.982315 1.67871 0
M  V30 1644 O 160.465 0.00280936 1.957 0
M  V30 1645 C 160.764 3.38305 1.15259 0
M  V30 1646 C 160.43 4.50618 0.159409 0
M  V30 1647 C 159.092 4.81066 -0.113741 0
M  V30 1648 C 161.444 5.18615 -0.518461 0
M  V30 1649 C 158.772 5.76835 -1.07137 0
M  V30 1650 C 161.124 6.15412 -1.46459 0
M  V30 1651 C 159.788 6.44262 -1.74592 0
M  V30 1652 H 159.058 0.711863 0.205748 0
M  V30 1653 H 161.705 1.90679 -0.17715 0
M  V30 1654 H 160.01 3.38766 1.96836 0
M  V30 1655 H 161.707 3.64435 1.67297 0
M  V30 1656 H 158.297 4.2689 0.382491 0
M  V30 1657 H 162.481 4.95264 -0.320581 0
M  V30 1658 H 157.737 5.975 -1.29628 0
M  V30 1659 H 161.911 6.67194 -1.99564 0
M  V30 1660 H 159.538 7.1828 -2.48953 0
M  V30 1661 N 161.113 -0.173488 1.56642 0
M  V30 1662 C 162.359 -0.891784 1.8214 0
M  V30 1663 C 162.692 -1.8199 0.677736 0
M  V30 1664 O 161.967 -1.91842 -0.320446 0
M  V30 1665 C 162.25 -1.68933 3.18015 0
M  V30 1666 C 162.103 -0.784487 4.42906 0
M  V30 1667 C 163.422 -2.65748 3.50808 0
M  V30 1668 H 160.541 -0.322761 0.662567 0
M  V30 1669 H 163.183 -0.158095 1.89341 0
M  V30 1670 H 161.333 -2.31482 3.12007 0
M  V30 1671 H 163.005 -0.172046 4.60979 0
M  V30 1672 H 161.248 -0.0924117 4.33702 0
M  V30 1673 H 161.919 -1.37799 5.34524 0
M  V30 1674 H 164.395 -2.13327 3.57255 0
M  V30 1675 H 163.271 -3.18619 4.4696 0
M  V30 1676 H 163.532 -3.45842 2.75401 0
M  V30 1677 N 162.591 -1.51276 -0.441967 0
M  V30 1678 C 163.541 -1.6864 -1.53442 0
M  V30 1679 C 164.525 -0.540444 -1.51552 0
M  V30 1680 O 165.717 -0.796157 -1.58083 0
M  V30 1681 C 162.846 -1.8106 -2.91672 0
M  V30 1682 C 161.932 -3.01424 -2.98336 0
M  V30 1683 N 162.323 -4.2467 -2.74752 0
M  V30 1684 C 160.621 -3.00584 -3.29493 0
M  V30 1685 C 161.322 -5.05891 -2.87139 0
M  V30 1686 N 160.298 -4.40442 -3.18609 0
M  V30 1687 H 164.1 -2.61598 -1.33954 0
M  V30 1688 H 161.614 -1.4886 -0.6492 0
M  V30 1689 H 163.611 -1.91609 -3.70259 0
M  V30 1690 H 162.271 -0.892795 -3.12185 0
M  V30 1691 H 163.282 -4.53691 -2.49769 0
M  V30 1692 H 159.959 -2.18417 -3.55809 0
M  V30 1693 H 161.349 -6.13983 -2.72899 0
M  V30 1694 N 164.069 0.697108 -1.41344 0
M  V30 1695 C 165.485 1.00751 -1.2378 0
M  V30 1696 C 165.685 2.01105 -0.126066 0
M  V30 1697 O 164.741 2.47295 0.51004 0
M  V30 1698 C 166.054 1.53359 -2.58653 0
M  V30 1699 C 167.602 1.6525 -2.65822 0
M  V30 1700 C 168.077 2.2126 -4.01009 0
M  V30 1701 N 169.568 2.28622 -4.02847 0
M  V30 1702 C 170.303 2.72984 -5.04249 0
M  V30 1703 N 169.799 3.16962 -6.16041 0
M  V30 1704 N 171.592 2.72534 -4.91611 0
M  V30 1705 H 163.743 0.0322662 -2.12375 0
M  V30 1706 H 166.006 0.0768853 -0.944877 0
M  V30 1707 H 165.712 0.870773 -3.4075 0
M  V30 1708 H 165.586 2.51597 -2.81032 0
M  V30 1709 H 167.973 2.30644 -1.84086 0
M  V30 1710 H 168.054 0.655614 -2.47256 0
M  V30 1711 H 167.698 1.56482 -4.83193 0
M  V30 1712 H 167.628 3.21698 -4.16915 0
M  V30 1713 H 170.119 1.97585 -3.22131 0
M  V30 1714 H 170.432 3.49434 -6.89287 0
M  V30 1715 H 168.777 3.14875 -6.1958 0
M  V30 1716 H 171.968 2.37525 -4.0336 0
M  V30 1717 H 172.141 3.06789 -5.70775 0
M  V30 1718 N 165.547 1.27147 0.931209 0
M  V30 1719 C 166.794 1.13278 1.67852 0
M  V30 1720 C 167.122 -0.32204 1.91815 0
M  V30 1721 O 166.377 -1.25224 1.50391 0
M  V30 1722 C 166.676 1.8579 3.05314 0
M  V30 1723 C 166.342 3.35657 3.01073 0
M  V30 1724 C 165.004 3.76536 2.99623 0
M  V30 1725 C 167.356 4.31299 2.92627 0
M  V30 1726 C 164.684 5.11426 2.87506 0
M  V30 1727 C 167.036 5.66242 2.82051 0
M  V30 1728 C 165.7 6.06418 2.7895 0
M  V30 1729 H 164.97 0.414515 0.614214 0
M  V30 1730 H 167.617 1.57712 1.08624 0
M  V30 1731 H 165.922 1.33854 3.68226 0
M  V30 1732 H 167.619 1.72491 3.62005 0
M  V30 1733 H 164.209 3.03146 3.02986 0
M  V30 1734 H 168.393 4.00692 2.92848 0
M  V30 1735 H 163.649 5.41705 2.83489 0
M  V30 1736 H 167.823 6.40026 2.74481 0
M  V30 1737 H 165.45 7.10895 2.69318 0
M  V30 1738 N 167.025 -1.13721 1.09112 0
M  V30 1739 C 168.436 -1.6648 0.845068 0
M  V30 1740 C 168.787 -1.85911 -0.62701 0
M  V30 1741 O 167.912 -1.57556 -1.48341 0
M  V30 1742 C 168.507 -3.02413 1.52748 0
M  V30 1743 C 167.066 -3.52176 1.32849 0
M  V30 1744 C 166.213 -2.27492 1.58564 0
M  V30 1745 H 169.164 -0.976872 1.25072 0
M  V30 1746 H 169.185 -3.68223 0.958752 0
M  V30 1747 H 168.697 -2.88238 2.59885 0
M  V30 1748 H 166.798 -3.7156 0.278137 0
M  V30 1749 H 166.911 -4.32499 2.0611 0
M  V30 1750 H 165.275 -2.33923 1.00758 0
M  V30 1751 H 166.058 -2.15886 2.66924 0
M  V30 1752 N 168.503 -0.877838 -1.30888 0
M  V30 1753 C 169.731 -0.507414 -2.00581 0
M  V30 1754 C 170.146 0.902216 -1.65848 0
M  V30 1755 O 169.503 1.59225 -0.891831 0
M  V30 1756 C 169.554 -0.664162 -3.55347 0
M  V30 1757 O 169.275 -2.01829 -3.8884 0
M  V30 1758 C 170.776 -0.295787 -4.42312 0
M  V30 1759 H 167.996 -0.196866 -0.641471 0
M  V30 1760 H 170.54 -1.18117 -1.66939 0
M  V30 1761 H 168.695 -0.0378619 -3.87381 0
M  V30 1762 H 169.109 -2.03174 -4.8355 0
M  V30 1763 H 170.583 -0.456388 -5.5011 0
M  V30 1764 H 171.06 0.765663 -4.32475 0
M  V30 1765 H 171.666 -0.898113 -4.15709 0
M  V30 1766 N 169.982 1.44106 -0.638065 0
M  V30 1767 C 171.228 2.02277 -0.145546 0
M  V30 1768 C 171.561 1.50125 1.23191 0
M  V30 1769 O 170.836 0.688133 1.8192 0
M  V30 1770 C 171.119 3.59829 -0.139791 0
M  V30 1771 C 170.972 4.22247 -1.55008 0
M  V30 1772 C 172.291 4.36873 0.531966 0
M  V30 1773 H 169.41 0.734992 -0.0543632 0
M  V30 1774 H 172.052 1.71592 -0.815863 0
M  V30 1775 H 170.202 3.86102 0.431007 0
M  V30 1776 H 171.874 4.07057 -2.1703 0
M  V30 1777 H 170.117 3.79476 -2.10191 0
M  V30 1778 H 170.788 5.31284 -1.49804 0
M  V30 1779 H 173.264 4.16074 0.0464781 0
M  V30 1780 H 172.14 5.4657 0.505206 0
M  V30 1781 H 172.401 4.11995 1.60352 0
M  V30 1782 N 171.46 0.379036 1.52974 0
M  V30 1783 C 172.423 -0.448865 2.24762 0
M  V30 1784 C 173.423 -0.998689 1.26027 0
M  V30 1785 O 174.613 -0.882313 1.50203 0
M  V30 1786 C 171.745 -1.62872 2.99476 0
M  V30 1787 H 172.938 0.179491 2.99362 0
M  V30 1788 H 170.491 0.13096 1.5575 0
M  V30 1789 H 171.226 -2.29479 2.29151 0
M  V30 1790 H 171.011 -1.24128 3.71934 0
M  V30 1791 H 172.501 -2.2151 3.5401 0
M  V30 1792 N 172.938 -1.57226 0.108567 0
M  V30 1793 C 174.184 -1.95121 -0.552761 0
M  V30 1794 C 174.517 -0.991345 -1.66991 0
M  V30 1795 O 173.792 -0.0267211 -1.94482 0
M  V30 1796 C 174.075 -3.43039 -1.09528 0
M  V30 1797 C 173.928 -4.49797 0.0177332 0
M  V30 1798 C 175.247 -3.92567 -1.98945 0
M  V30 1799 H 172.366 -0.709496 -0.199461 0
M  V30 1800 H 175.008 -1.89126 0.182011 0
M  V30 1801 H 173.158 -3.48279 -1.72146 0
M  V30 1802 H 174.83 -4.56661 0.652584 0
M  V30 1803 H 173.073 -4.284 0.682309 0
M  V30 1804 H 173.744 -5.50528 -0.402919 0
M  V30 1805 H 176.22 -3.89565 -1.46214 0
M  V30 1806 H 175.096 -4.96605 -2.33827 0
M  V30 1807 H 175.357 -3.32648 -2.91201 0
M  V30 1808 N 174.416 0.165178 -1.56732 0
M  V30 1809 C 175.641 0.900253 -1.86843 0
M  V30 1810 C 176.066 1.74766 -0.695596 0
M  V30 1811 O 175.424 1.77786 0.35522 0
M  V30 1812 C 175.472 1.74777 -3.15413 0
M  V30 1813 O 174.576 2.85007 -2.98068 0
M  V30 1814 H 173.917 0.251832 -0.614391 0
M  V30 1815 H 176.447 0.161468 -2.03962 0
M  V30 1816 H 176.457 2.14646 -3.46974 0
M  V30 1817 H 175.132 1.12537 -4.00385 0
M  V30 1818 H 173.709 2.48676 -2.77875 0
M  V30 1819 N 175.894 1.51508 0.433938 0
M  V30 1820 C 177.143 1.63578 1.18005 0
M  V30 1821 C 177.456 0.359514 1.92268 0
M  V30 1822 O 178.662 0.359632 2.69108 0
M  V30 1823 C 177.118 2.88901 2.14626 0
M  V30 1824 C 176.726 4.23544 1.45995 0
M  V30 1825 C 178.47 3.10328 2.89649 0
M  V30 1826 C 176.377 5.40014 2.4112 0
M  V30 1827 H 175.307 0.609277 0.444182 0
M  V30 1828 H 177.958 1.77978 0.446773 0
M  V30 1829 H 176.34 2.68142 2.91403 0
M  V30 1830 H 177.514 4.54696 0.747532 0
M  V30 1831 H 175.829 4.08021 0.831115 0
M  V30 1832 H 178.426 3.94518 3.60915 0
M  V30 1833 H 178.769 2.23544 3.51189 0
M  V30 1834 H 179.302 3.31443 2.19978 0
M  V30 1835 H 176.041 6.29068 1.84264 0
M  V30 1836 H 175.561 5.13233 3.10406 0
M  V30 1837 H 177.24 5.72099 3.02177 0
M  V30 1838 N 177.372 -0.689602 1.41712 0
M  V30 1839 C 178.62 -1.4468 1.4111 0
M  V30 1840 C 178.941 -1.94986 0.0232196 0
M  V30 1841 O 178.211 -1.72097 -0.935913 0
M  V30 1842 H 176.791 -0.536847 0.519427 0
M  V30 1843 H 179.453 -0.815825 1.77004 0
M  V30 1844 H 178.549 -2.30706 2.10193 0
M  V30 1845 N 178.85 -1.27639 -0.924453 0
M  V30 1846 C 180.097 -1.14167 -1.67249 0
M  V30 1847 C 180.425 0.311863 -1.91984 0
M  V30 1848 O 179.68 1.24425 -1.51053 0
M  V30 1849 C 179.979 -1.87407 -3.04325 0
M  V30 1850 C 179.645 -3.37249 -2.99289 0
M  V30 1851 C 178.307 -3.7812 -2.97622 0
M  V30 1852 C 180.659 -4.32845 -2.90336 0
M  V30 1853 C 177.987 -5.12944 -2.8479 0
M  V30 1854 C 180.339 -5.6773 -2.79045 0
M  V30 1855 C 179.003 -6.07889 -2.7573 0
M  V30 1856 H 178.273 -0.417766 -0.612007 0
M  V30 1857 H 180.92 -1.58286 -1.07786 0
M  V30 1858 H 179.225 -1.35805 -3.67511 0
M  V30 1859 H 180.922 -1.74408 -3.61086 0
M  V30 1860 H 177.512 -3.04748 -3.01374 0
M  V30 1861 H 181.696 -4.02239 -2.90719 0
M  V30 1862 H 176.952 -5.432 -2.80612 0
M  V30 1863 H 181.126 -6.41472 -2.71083 0
M  V30 1864 H 178.753 -7.12314 -2.65544 0
M  V30 1865 N 180.328 1.1314 -1.09713 0
M  V30 1866 C 181.291 2.16831 -0.742751 0
M  V30 1867 C 182.291 1.59159 0.229129 0
M  V30 1868 O 183.481 1.74199 0.00693237 0
M  V30 1869 C 180.613 3.40756 -0.0989168 0
M  V30 1870 H 181.806 2.49695 -1.66109 0
M  V30 1871 H 179.359 1.2802 -0.896699 0
M  V30 1872 H 180.094 3.13485 0.830514 0
M  V30 1873 H 179.879 3.83888 -0.798265 0
M  V30 1874 H 181.369 4.17386 0.133524 0
M  V30 1875 N 181.806 0.884767 1.30421 0
M  V30 1876 C 183.052 0.503851 1.96441 0
M  V30 1877 C 183.385 -0.944518 1.69684 0
M  V30 1878 O 182.66 -1.66737 1.00145 0
M  V30 1879 C 182.943 0.779085 3.51571 0
M  V30 1880 C 182.796 2.27807 3.87846 0
M  V30 1881 C 184.115 0.255452 4.39358 0
M  V30 1882 H 181.234 0.184533 0.713524 0
M  V30 1883 H 183.876 1.10872 1.54297 0
M  V30 1884 H 182.026 0.264274 3.876 0
M  V30 1885 H 183.698 2.86127 3.61841 0
M  V30 1886 H 181.941 2.74479 3.35922 0
M  V30 1887 H 182.612 2.42125 4.96064 0
M  V30 1888 H 185.088 0.696079 4.10236 0
M  V30 1889 H 183.964 0.477361 5.4682 0
M  V30 1890 H 184.225 -0.843293 4.33983 0
M  V30 1891 N 183.284 -1.43765 0.645699 0
M  V30 1892 C 184.7 -1.56509 0.312591 0
M  V30 1893 C 184.9 -1.6307 -1.18365 0
M  V30 1894 O 183.956 -1.58167 -1.96824 0
M  V30 1895 C 185.269 -2.82968 1.01733 0
M  V30 1896 C 186.817 -2.96701 0.996865 0
M  V30 1897 C 187.292 -4.25982 1.68236 0
M  V30 1898 N 188.783 -4.32829 1.64964 0
M  V30 1899 C 189.518 -5.31613 2.14885 0
M  V30 1900 N 189.014 -6.36718 2.73061 0
M  V30 1901 N 190.807 -5.23217 2.05428 0
M  V30 1902 H 182.958 -1.3775 1.61675 0
M  V30 1903 H 185.221 -0.661067 0.679481 0
M  V30 1904 H 184.927 -2.84156 2.0724 0
M  V30 1905 H 184.801 -3.72957 0.564177 0
M  V30 1906 H 187.188 -2.95058 -0.0497719 0
M  V30 1907 H 187.269 -2.08022 1.48865 0
M  V30 1908 H 186.913 -4.28386 2.72852 0
M  V30 1909 H 186.843 -5.13545 1.16529 0
M  V30 1910 H 189.334 -3.57493 1.22503 0
M  V30 1911 H 189.647 -7.08401 3.08848 0
M  V30 1912 H 187.992 -6.37362 2.77118 0
M  V30 1913 H 191.183 -4.40019 1.59689 0
M  V30 1914 H 191.356 -6.00045 2.44643 0
M  V30 1915 N 184.763 -0.387143 -1.52771 0
M  V30 1916 C 185.695 0.484089 -2.2403 0
M  V30 1917 C 186.708 1.02849 -1.26198 0
M  V30 1918 O 187.897 0.931186 -1.52286 0
M  V30 1919 C 184.997 1.68337 -2.94136 0
M  V30 1920 C 184.17 1.26672 -4.18656 0
M  V30 1921 C 183.229 2.33045 -4.7178 0
M  V30 1922 O 182.255 1.94541 -5.34923 0
M  V30 1923 N 183.457 3.64929 -4.5145 0
M  V30 1924 H 186.222 -0.126404 -2.99433 0
M  V30 1925 H 183.783 -0.213392 -1.60488 0
M  V30 1926 H 185.775 2.39019 -3.26577 0
M  V30 1927 H 184.345 2.20025 -2.22053 0
M  V30 1928 H 183.565 0.388878 -3.92277 0
M  V30 1929 H 184.853 0.964964 -4.99566 0
M  V30 1930 H 184.251 3.98974 -4.01044 0
M  V30 1931 H 182.808 4.31651 -4.88386 0
M  V30 1932 N 186.241 1.57166 -0.116904 0
M  V30 1933 C 187.151 2.18745 0.847812 0
M  V30 1934 C 188.167 1.163 1.29423 0
M  V30 1935 O 189.343 1.48761 1.35765 0
M  V30 1936 C 186.408 2.77307 2.0809 0
M  V30 1937 C 185.469 3.94781 1.68661 0
M  V30 1938 C 184.702 4.50541 2.86091 0
M  V30 1939 O 184.925 4.05202 4.01456 0
M  V30 1940 O 183.859 5.41256 2.63298 0
M  V30 1941 H 187.685 3.01632 0.353778 0
M  V30 1942 H 185.27 1.49005 0.108599 0
M  V30 1943 H 187.152 3.14647 2.80313 0
M  V30 1944 H 185.827 1.97452 2.56504 0
M  V30 1945 H 184.734 3.62214 0.935518 0
M  V30 1946 H 186.067 4.76065 1.24991 0
M  V30 1947 N 187.719 -0.156864 1.56817 0
M  V30 1948 C 188.649 -1.19589 2.00551 0
M  V30 1949 C 189.63 -1.4536 0.883426 0
M  V30 1950 O 190.815 -1.56449 1.15054 0
M  V30 1951 C 187.945 -2.53143 2.37773 0
M  V30 1952 C 186.899 -2.41913 3.53075 0
M  V30 1953 C 186.225 -3.80088 3.76081 0
M  V30 1954 C 187.525 -1.91157 4.86062 0
M  V30 1955 H 189.219 -0.832293 2.87599 0
M  V30 1956 H 186.765 -0.398918 1.38364 0
M  V30 1957 H 188.718 -3.26047 2.66967 0
M  V30 1958 H 187.442 -2.91319 1.4765 0
M  V30 1959 H 186.101 -1.71462 3.24031 0
M  V30 1960 H 185.749 -4.15683 2.83225 0
M  V30 1961 H 185.449 -3.73439 4.53671 0
M  V30 1962 H 186.973 -4.54556 4.0769 0
M  V30 1963 H 188.387 -2.53846 5.14038 0
M  V30 1964 H 186.784 -1.95422 5.67389 0
M  V30 1965 H 187.854 -0.866673 4.77092 0
M  V30 1966 N 189.197 -1.51736 -0.425897 0
M  V30 1967 C 190.107 -1.76738 -1.54275 0
M  V30 1968 C 191.123 -0.65211 -1.61318 0
M  V30 1969 O 192.299 -0.935654 -1.78346 0
M  V30 1970 C 189.364 -1.89755 -2.90162 0
M  V30 1971 C 188.425 -3.13633 -2.93143 0
M  V30 1972 C 187.658 -3.2602 -4.22548 0
M  V30 1973 O 187.881 -2.44067 -5.15546 0
M  V30 1974 O 186.815 -4.19071 -4.32046 0
M  V30 1975 H 190.641 -2.71502 -1.36089 0
M  V30 1976 H 188.226 -1.36376 -0.610069 0
M  V30 1977 H 190.108 -2.00236 -3.70788 0
M  V30 1978 H 188.783 -0.981785 -3.08452 0
M  V30 1979 H 187.69 -3.08622 -2.11431 0
M  V30 1980 H 189.023 -4.04936 -2.798 0
M  V30 1981 N 190.675 0.682077 -1.42076 0
M  V30 1982 C 191.922 1.44215 -1.42156 0
M  V30 1983 C 192.25 1.94468 -0.0354186 0
M  V30 1984 O 191.505 1.70816 0.955002 0
M  V30 1985 C 191.804 2.66036 -2.38662 0
M  V30 1986 C 191.47 2.34366 -3.85206 0
M  V30 1987 C 190.132 2.25439 -4.25124 0
M  V30 1988 C 192.484 2.08513 -4.77673 0
M  V30 1989 C 189.812 1.88775 -5.55501 0
M  V30 1990 C 192.164 1.73354 -6.08384 0
M  V30 1991 C 190.828 1.62933 -6.47309 0
M  V30 1992 H 190.098 0.527718 -0.520187 0
M  V30 1993 H 192.745 0.778387 -1.74967 0
M  V30 1994 H 191.05 3.3741 -1.99152 0
M  V30 1995 H 192.747 3.24205 -2.35991 0
M  V30 1996 H 189.337 2.42213 -3.53597 0
M  V30 1997 H 193.521 2.14346 -4.47626 0
M  V30 1998 H 188.777 1.7927 -5.84527 0
M  V30 1999 H 192.951 1.52373 -6.79526 0
M  V30 2000 H 190.578 1.34292 -7.48244 0
M  V30 2001 N 192.153 1.28127 0.917671 0
M  V30 2002 C 193.401 1.14825 1.66312 0
M  V30 2003 C 193.722 -0.304379 1.9261 0
M  V30 2004 O 192.992 -1.21149 1.53947 0
M  V30 2005 H 191.572 0.421953 0.616413 0
M  V30 2006 H 194.234 1.608 1.10134 0
M  V30 2007 H 193.33 1.68489 2.62712 0
M  V30 2008 N 193.631 -1.12557 1.10312 0
M  V30 2009 C 194.877 -1.84311 0.846011 0
M  V30 2010 C 195.21 -1.83805 -0.626859 0
M  V30 2011 O 194.485 -1.28268 -1.46211 0
M  V30 2012 C 194.768 -3.32048 1.39341 0
M  V30 2013 C 194.621 -3.41016 2.93305 0
M  V30 2014 C 195.94 -4.27764 1.03468 0
M  V30 2015 H 193.059 -0.669192 0.30879 0
M  V30 2016 H 195.701 -1.32057 1.36605 0
M  V30 2017 H 193.851 -3.76678 0.951087 0
M  V30 2018 H 195.523 -3.05031 3.46055 0
M  V30 2019 H 193.766 -2.81603 3.29973 0
M  V30 2020 H 194.437 -4.44948 3.26689 0
M  V30 2021 H 196.913 -3.91253 1.41633 0
M  V30 2022 H 195.789 -5.29549 1.44463 0
M  V30 2023 H 196.05 -4.42064 -0.0560404 0
M  V30 2024 N 195.109 -0.891671 -1.2995 0
M  V30 2025 C 196.358 -0.509521 -1.95158 0
M  V30 2026 C 196.671 0.947388 -1.71125 0
M  V30 2027 O 197.877 1.43669 -2.30372 0
M  V30 2028 C 196.333 -0.860315 -3.49466 0
M  V30 2029 C 195.941 -2.33545 -3.8231 0
M  V30 2030 C 197.685 -0.547687 -4.20952 0
M  V30 2031 C 195.592 -2.62752 -5.29826 0
M  V30 2032 H 194.522 -0.18682 -0.730489 0
M  V30 2033 H 197.173 -1.08756 -1.47798 0
M  V30 2034 H 195.555 -0.211285 -3.95436 0
M  V30 2035 H 196.729 -3.02936 -3.47227 0
M  V30 2036 H 195.044 -2.61629 -3.23944 0
M  V30 2037 H 197.641 -0.742854 -5.29515 0
M  V30 2038 H 197.984 0.51332 -4.13123 0
M  V30 2039 H 198.517 -1.1542 -3.80688 0
M  V30 2040 H 195.256 -3.6762 -5.42712 0
M  V30 2041 H 194.776 -1.97977 -5.66185 0
M  V30 2042 H 196.455 -2.48601 -5.97333 0
M  V30 2043 N 196.587 1.43421 -0.653314 0
M  V30 2044 C 197.817 2.05864 -0.174238 0
M  V30 2045 C 198.225 1.49052 1.16534 0
M  V30 2046 O 197.568 0.616481 1.73047 0
M  V30 2047 C 197.63 3.59499 -0.00875873 0
M  V30 2048 C 197.294 4.38893 -1.27364 0
M  V30 2049 C 198.291 4.70947 -2.20239 0
M  V30 2050 C 195.976 4.789 -1.51525 0
M  V30 2051 C 197.97 5.41916 -3.35568 0
M  V30 2052 C 195.657 5.49614 -2.67147 0
M  V30 2053 C 196.655 5.81044 -3.58994 0
M  V30 2054 O 196.343 6.50313 -4.72597 0
M  V30 2055 H 196.075 0.670345 -0.0872549 0
M  V30 2056 H 198.629 1.84913 -0.894226 0
M  V30 2057 H 196.859 3.79025 0.7666 0
M  V30 2058 H 198.548 4.0364 0.427687 0
M  V30 2059 H 199.314 4.40558 -2.02815 0
M  V30 2060 H 195.193 4.53843 -0.809158 0
M  V30 2061 H 198.737 5.66365 -4.07279 0
M  V30 2062 H 194.634 5.79419 -2.84505 0
M  V30 2063 H 195.402 6.68795 -4.71864 0
M  V30 2064 N 198.065 0.39524 1.52563 0
M  V30 2065 C 199.015 -0.4541 2.23432 0
M  V30 2066 C 199.999 -1.02482 1.24042 0
M  V30 2067 O 201.191 -0.949938 1.49349 0
M  V30 2068 C 198.32 -1.57769 3.049 0
M  V30 2069 C 197.406 -1.01842 4.1169 0
M  V30 2070 N 197.797 -0.184613 5.05463 0
M  V30 2071 C 196.095 -1.29033 4.26927 0
M  V30 2072 C 196.796 0.125013 5.81566 0
M  V30 2073 N 195.772 -0.480498 5.41472 0
M  V30 2074 H 199.574 0.189413 2.93289 0
M  V30 2075 H 197.088 0.204877 1.61102 0
M  V30 2076 H 199.085 -2.19862 3.54212 0
M  V30 2077 H 197.745 -2.22397 2.36579 0
M  V30 2078 H 198.756 0.178602 5.17592 0
M  V30 2079 H 195.433 -1.93721 3.69836 0
M  V30 2080 H 196.823 0.800962 6.67109 0
M  V30 2081 N 199.544 -1.57102 0.125237 0
M  V30 2082 C 200.784 -1.97294 -0.534259 0
M  V30 2083 C 201.148 -1.0074 -1.63449 0
M  V30 2084 O 202.349 -1.29893 -2.35332 0
M  V30 2085 C 200.62 -3.41705 -1.04748 0
M  V30 2086 S 202.179 -4.03913 -1.71463 0
M  V30 2087 H 198.997 -0.689517 -0.173458 0
M  V30 2088 H 201.599 -1.94349 0.211797 0
M  V30 2089 H 200.303 -4.09723 -0.235649 0
M  V30 2090 H 199.834 -3.48315 -1.82867 0
M  V30 2091 H 201.849 -3.95182 -3.00077 0
M  V30 2092 N 201.022 0.148545 -1.56898 0
M  V30 2093 C 202.25 0.876389 -1.87422 0
M  V30 2094 C 202.665 1.74809 -0.713256 0
M  V30 2095 O 202.022 1.79725 0.317025 0
M  V30 2096 C 202.073 1.73438 -3.17178 0
M  V30 2097 O 201.794 0.897809 -4.28802 0
M  V30 2098 C 203.295 2.56993 -3.61205 0
M  V30 2099 H 200.515 0.253489 -0.621277 0
M  V30 2100 H 203.059 0.141798 -2.04008 0
M  V30 2101 H 201.214 2.42205 -3.0235 0
M  V30 2102 H 201.628 1.48672 -5.02988 0
M  V30 2103 H 203.102 3.12773 -4.54838 0
M  V30 2104 H 203.579 3.32958 -2.86419 0
M  V30 2105 H 204.185 1.9352 -3.78722 0
M  V30 2106 N 202.5 1.5196 0.417844 0
M  V30 2107 C 203.41 1.77554 1.53336 0
M  V30 2108 C 204.426 0.660655 1.6097 0
M  V30 2109 O 205.602 0.945099 1.77848 0
M  V30 2110 C 202.667 1.91291 2.89152 0
M  V30 2111 C 201.728 3.15183 2.91475 0
M  V30 2112 C 200.961 3.28256 4.20813 0
M  V30 2113 O 201.184 2.46798 5.14244 0
M  V30 2114 O 200.118 4.21356 4.29817 0
M  V30 2115 H 203.944 2.7222 1.34647 0
M  V30 2116 H 201.529 1.36698 0.602828 0
M  V30 2117 H 203.411 2.02199 3.69721 0
M  V30 2118 H 202.086 0.998129 3.07927 0
M  V30 2119 H 200.993 3.09739 2.09791 0
M  V30 2120 H 202.326 4.06414 2.77648 0
M  V30 2121 N 203.978 -0.674533 1.42435 0
M  V30 2122 C 204.888 -1.81751 1.48337 0
M  V30 2123 C 205.904 -1.69975 0.372099 0
M  V30 2124 O 207.08 -1.91521 0.62304 0
M  V30 2125 C 204.145 -3.17895 1.38361 0
M  V30 2126 C 203.206 -3.41625 2.59982 0
M  V30 2127 C 202.439 -4.71274 2.50473 0
M  V30 2128 O 202.662 -5.49197 1.54075 0
M  V30 2129 O 201.596 -4.96254 3.4061 0
M  V30 2130 H 205.422 -1.79728 2.44809 0
M  V30 2131 H 203.007 -0.830312 1.24202 0
M  V30 2132 H 204.889 -3.99136 1.35161 0
M  V30 2133 H 203.564 -3.20555 0.450144 0
M  V30 2134 H 202.471 -2.60231 2.68757 0
M  V30 2135 H 203.804 -3.43796 3.52229 0
M  V30 2136 N 205.456 -1.28612 -0.910864 0
M  V30 2137 C 206.872 -1.06381 -1.18976 0
M  V30 2138 C 207.072 0.191998 -2.00583 0
M  V30 2139 O 206.128 0.892869 -2.36187 0
M  V30 2140 C 207.441 -2.31295 -1.92154 0
M  V30 2141 C 208.989 -2.36503 -2.05025 0
M  V30 2142 C 209.464 -3.61191 -2.81612 0
M  V30 2143 N 210.955 -3.61847 -2.89172 0
M  V30 2144 C 211.69 -4.55004 -3.4894 0
M  V30 2145 N 211.186 -5.58482 -4.09963 0
M  V30 2146 N 212.979 -4.42594 -3.46506 0
M  V30 2147 H 205.13 -2.09221 -0.366094 0
M  V30 2148 H 207.393 -0.921003 -0.224629 0
M  V30 2149 H 207.099 -3.228 -1.39618 0
M  V30 2150 H 206.973 -2.37934 -2.9269 0
M  V30 2151 H 209.36 -1.45494 -2.5674 0
M  V30 2152 H 209.441 -2.33857 -1.03657 0
M  V30 2153 H 209.085 -4.52545 -2.30576 0
M  V30 2154 H 209.015 -3.61092 -3.83302 0
M  V30 2155 H 211.506 -2.87022 -2.45819 0
M  V30 2156 H 211.819 -6.25704 -4.53557 0
M  V30 2157 H 210.164 -5.62305 -4.08459 0
M  V30 2158 H 213.355 -3.60953 -2.98045 0
M  V30 2159 H 213.528 -5.15381 -3.92793 0
M  V30 2160 N 206.934 1.1197 -1.10907 0
M  V30 2161 C 207.864 2.19928 -0.784473 0
M  V30 2162 C 208.845 1.6833 0.244726 0
M  V30 2163 O 210.03 1.93892 0.109418 0
M  V30 2164 C 207.16 3.46597 -0.220827 0
M  V30 2165 C 206.114 4.11376 -1.18127 0
M  V30 2166 C 205.44 5.32554 -0.478594 0
M  V30 2167 C 206.74 4.56945 -2.52979 0
M  V30 2168 H 208.434 2.47337 -1.68715 0
M  V30 2169 H 205.98 1.18879 -0.812642 0
M  V30 2170 H 207.933 4.21396 0.0184278 0
M  V30 2171 H 206.657 3.1863 0.717113 0
M  V30 2172 H 205.316 3.38564 -1.40606 0
M  V30 2173 H 204.964 5.00856 0.463976 0
M  V30 2174 H 204.664 5.76844 -1.11912 0
M  V30 2175 H 206.188 6.10096 -0.248 0
M  V30 2176 H 207.602 5.23093 -2.3462 0
M  V30 2177 H 205.999 5.1203 -3.12962 0
M  V30 2178 H 207.069 3.70676 -3.12614 0
M  V30 2179 N 208.412 0.89855 1.29475 0
M  V30 2180 C 209.642 0.538479 1.99459 0
M  V30 2181 C 210.05 -0.880922 1.67441 0
M  V30 2182 O 209.393 -1.59283 0.915127 0
M  V30 2183 C 209.455 0.649564 3.53583 0
M  V30 2184 C 209.119 2.03573 4.09154 0
M  V30 2185 C 210.116 3.00675 4.24135 0
M  V30 2186 C 207.801 2.3448 4.44212 0
M  V30 2187 C 209.795 4.26809 4.73405 0
M  V30 2188 C 207.482 3.60857 4.93179 0
M  V30 2189 C 208.48 4.56836 5.0773 0
M  V30 2190 O 208.168 5.80969 5.55635 0
M  V30 2191 H 207.9 0.205372 0.644048 0
M  V30 2192 H 210.454 1.20958 1.66007 0
M  V30 2193 H 208.684 -0.0785592 3.8662 0
M  V30 2194 H 210.373 0.29881 4.04799 0
M  V30 2195 H 211.139 2.78112 3.97339 0
M  V30 2196 H 207.018 1.60534 4.32145 0
M  V30 2197 H 210.562 5.0173 4.84678 0
M  V30 2198 H 206.459 3.83251 5.19412 0
M  V30 2199 H 207.227 5.83542 5.73952 0
M  V30 2200 N 209.89 -1.43072 0.660911 0
M  V30 2201 C 211.118 -2.06067 0.185422 0
M  V30 2202 C 211.533 -1.49582 -1.15198 0
M  V30 2203 O 210.89 -0.630134 -1.71276 0
M  V30 2204 C 210.941 -3.61371 0.0966523 0
M  V30 2205 O 210.662 -4.15758 1.38119 0
M  V30 2206 C 212.163 -4.41455 -0.403996 0
M  V30 2207 H 209.383 -0.664459 0.0934604 0
M  V30 2208 H 211.927 -1.83447 0.90373 0
M  V30 2209 H 210.082 -3.8315 -0.572259 0
M  V30 2210 H 210.496 -5.09499 1.24542 0
M  V30 2211 H 211.97 -5.50437 -0.415045 0
M  V30 2212 H 212.447 -4.15036 -1.43674 0
M  V30 2213 H 213.053 -4.24663 0.232691 0
M  V30 2214 N 211.368 -0.403325 -1.52352 0
M  V30 2215 C 212.616 0.174003 -2.0135 0
M  V30 2216 C 212.937 1.46139 -1.29106 0
M  V30 2217 O 212.207 1.91448 -0.415253 0
M  V30 2218 H 210.787 0.0672911 -0.743963 0
M  V30 2219 H 213.449 -0.538235 -1.87321 0
M  V30 2220 H 212.545 0.374254 -3.09848 0
M  V30 2221 N 212.846 1.57033 -0.133567 0
M  V30 2222 C 214.262 1.58035 0.222944 0
M  V30 2223 C 214.462 1.14713 1.6566 0
M  V30 2224 O 213.518 0.841218 2.38075 0
M  V30 2225 C 214.831 3.00691 -0.0236116 0
M  V30 2226 C 216.379 3.12973 0.0411512 0
M  V30 2227 C 216.854 4.57654 -0.177899 0
M  V30 2228 N 218.345 4.63033 -0.124365 0
M  V30 2229 C 219.08 5.72771 -0.268553 0
M  V30 2230 N 218.576 6.91206 -0.46972 0
M  V30 2231 N 220.369 5.61718 -0.2071 0
M  V30 2232 H 212.52 1.8349 -1.06981 0
M  V30 2233 H 214.783 0.848677 -0.422436 0
M  V30 2234 H 214.489 3.36726 -1.0153 0
M  V30 2235 H 214.363 3.70614 0.701808 0
M  V30 2236 H 216.75 2.76787 1.02338 0
M  V30 2237 H 216.831 2.45564 -0.716383 0
M  V30 2238 H 216.475 4.94542 -1.15717 0
M  V30 2239 H 216.405 5.23173 0.599797 0
M  V30 2240 H 218.896 3.7789 0.027011 0
M  V30 2241 H 219.209 7.70693 -0.570212 0
M  V30 2242 H 217.554 6.93156 -0.505876 0
M  V30 2243 H 220.745 4.68072 -0.0507986 0
M  V30 2244 H 220.918 6.47195 -0.322909 0
M  V30 2245 N 214.325 -0.140222 1.56975 0
M  V30 2246 C 215.741 -0.493088 1.51792 0
M  V30 2247 C 215.941 -1.83013 0.843116 0
M  V30 2248 O 214.997 -2.49041 0.416493 0
M  V30 2249 C 216.31 -0.497144 2.96562 0
M  V30 2250 C 217.858 -0.582186 3.07538 0
M  V30 2251 C 218.333 -0.616838 4.53827 0
M  V30 2252 N 219.824 -0.678873 4.58198 0
M  V30 2253 C 220.559 -0.726782 5.68775 0
M  V30 2254 N 220.055 -0.733623 6.88905 0
M  V30 2255 N 221.848 -0.768179 5.56826 0
M  V30 2256 H 213.999 0.736108 1.99237 0
M  V30 2257 H 216.262 0.269182 0.90898 0
M  V30 2258 H 215.968 0.417217 3.49217 0
M  V30 2259 H 215.842 -1.33263 3.52875 0
M  V30 2260 H 218.229 -1.48697 2.54899 0
M  V30 2261 H 218.31 0.280581 2.54257 0
M  V30 2262 H 217.954 0.283812 5.07106 0
M  V30 2263 H 217.884 -1.49619 5.04898 0
M  V30 2264 H 220.375 -0.68061 3.7172 0
M  V30 2265 H 220.688 -0.772215 7.68932 0
M  V30 2266 H 219.033 -0.701389 6.91452 0
M  V30 2267 H 222.224 -0.760051 4.61888 0
M  V30 2268 H 222.397 -0.80205 6.43017 0
M  V30 2269 N 215.803 -1.52179 -0.40978 0
M  V30 2270 C 217.051 -1.65878 -1.15451 0
M  V30 2271 C 217.372 -0.390771 -1.91044 0
M  V30 2272 O 216.642 0.594323 -1.86667 0
M  V30 2273 H 215.222 -0.611405 -0.429177 0
M  V30 2274 H 217.884 -1.89219 -0.467134 0
M  V30 2275 H 216.98 -2.49954 -1.86894 0
M  V30 2276 N 217.281 0.66697 -1.42791 0
M  V30 2277 C 218.697 0.981027 -1.25889 0
M  V30 2278 C 218.897 2.00793 -0.168695 0
M  V30 2279 O 217.953 2.48321 0.45747 0
M  V30 2280 C 219.266 1.47838 -2.61848 0
M  V30 2281 C 220.814 1.59575 -2.69267 0
M  V30 2282 C 221.289 2.12704 -4.05612 0
M  V30 2283 N 222.78 2.20026 -4.07606 0
M  V30 2284 C 223.515 2.62227 -5.09926 0
M  V30 2285 N 223.011 3.03824 -6.22626 0
M  V30 2286 N 224.804 2.62045 -4.97281 0
M  V30 2287 H 216.955 -0.0127891 -2.12396 0
M  V30 2288 H 219.218 0.0568258 -0.946295 0
M  V30 2289 H 218.924 0.798299 -3.4252 0
M  V30 2290 H 218.798 2.45579 -2.86305 0
M  V30 2291 H 221.185 2.26687 -1.88936 0
M  V30 2292 H 221.266 0.60302 -2.48591 0
M  V30 2293 H 220.91 1.46198 -4.86404 0
M  V30 2294 H 220.84 3.12782 -4.23645 0
M  V30 2295 H 223.331 1.90708 -3.2625 0
M  V30 2296 H 223.644 3.34734 -6.96544 0
M  V30 2297 H 221.989 3.01662 -6.26119 0
M  V30 2298 H 225.18 2.28916 -4.08308 0
M  V30 2299 H 225.353 2.94613 -5.77154 0
M  V30 2300 N 218.759 1.29093 0.90403 0
M  V30 2301 C 220.007 1.16583 1.65085 0
M  V30 2302 C 220.328 -0.283933 1.92922 0
M  V30 2303 O 219.598 -1.19509 1.55224 0
M  V30 2304 H 218.178 0.428467 0.611903 0
M  V30 2305 H 220.84 1.61959 1.08422 0
M  V30 2306 H 219.936 1.71266 2.6091 0
M  V30 2307 N 220.237 -1.11381 1.11499 0
M  V30 2308 C 221.2 -2.15622 0.777153 0
M  V30 2309 C 222.2 -1.59504 -0.203779 0
M  V30 2310 O 223.39 -1.74188 0.020782 0
M  V30 2311 C 220.522 -3.40556 0.153116 0
M  V30 2312 H 221.715 -2.47021 1.70061 0
M  V30 2313 H 219.268 -1.26577 0.916952 0
M  V30 2314 H 220.003 -3.14767 -0.780536 0
M  V30 2315 H 219.788 -3.8257 0.859238 0
M  V30 2316 H 221.278 -4.17546 -0.0671044 0
M  V30 2317 N 221.715 -0.905404 -1.28997 0
M  V30 2318 C 222.962 -0.534248 -1.95325 0
M  V30 2319 C 223.29 0.920535 -1.71337 0
M  V30 2320 O 222.545 1.66861 -1.02254 0
M  V30 2321 C 222.844 -0.779906 -3.48787 0
M  V30 2322 C 222.51 -2.21293 -3.92861 0
M  V30 2323 C 221.172 -2.60475 -4.04606 0
M  V30 2324 C 223.524 -3.14587 -4.15553 0
M  V30 2325 C 220.852 -3.9212 -4.36416 0
M  V30 2326 C 223.204 -4.45787 -4.48839 0
M  V30 2327 C 221.868 -4.84834 -4.58794 0
M  V30 2328 H 221.138 -0.195495 -0.714747 0
M  V30 2329 H 223.785 -1.14514 -1.53488 0
M  V30 2330 H 222.09 -0.0861365 -3.91705 0
M  V30 2331 H 223.787 -0.472029 -3.98212 0
M  V30 2332 H 220.377 -1.89887 -3.84241 0
M  V30 2333 H 224.561 -2.85528 -4.0594 0
M  V30 2334 H 219.817 -4.22086 -4.42327 0
M  V30 2335 H 223.991 -5.18098 -4.65346 0
M  V30 2336 H 221.618 -5.86877 -4.83197 0
M  V30 2337 N 223.193 1.4272 -0.668489 0
M  V30 2338 C 224.433 2.03497 -0.19194 0
M  V30 2339 C 224.797 1.51684 1.17712 0
M  V30 2340 O 225.998 2.04205 1.74796 0
M  V30 2341 C 224.269 3.56734 -0.218032 0
M  V30 2342 S 225.828 4.38395 0.188438 0
M  V30 2343 H 222.646 0.706542 -0.0794959 0
M  V30 2344 H 225.248 1.74563 -0.880235 0
M  V30 2345 H 223.952 3.91943 -1.2169 0
M  V30 2346 H 223.483 3.90333 0.490303 0
M  V30 2347 H 225.498 4.75345 1.42345 0
M  V30 2348 N 224.671 0.411399 1.52136 0
M  V30 2349 C 225.619 -0.427633 2.28635 0
M  V30 2350 C 226.613 -1.04383 1.33419 0
M  V30 2351 O 227.819 -0.981772 1.50868 0
M  V30 2352 H 224.194 -0.156689 0.735495 0
M  V30 2353 H 226.165 0.238761 2.97443 0
M  V30 2354 C 224.914 -1.53082 3.12188 0
M  V30 2355 H 224.237 -1.06601 3.85326 0
M  V30 2356 H 225.677 -2.09167 3.68816 0
M  V30 2357 C 224.136 -2.49946 2.25895 0
M  V30 2358 O 224.666 -3.53884 1.90076 0
M  V30 2359 N 222.872 -2.2021 1.8962 0
M  V30 2360 H 222.419 -1.35719 2.18948 0
M  V30 2361 H 222.377 -2.85266 1.32176 0
M  V30 2362 N 226.149 -1.5696 0.141893 0
M  V30 2363 C 227.397 -1.95573 -0.509484 0
M  V30 2364 C 227.718 -1.02746 -1.65736 0
M  V30 2365 O 226.988 -0.0880311 -1.95702 0
M  V30 2366 H 225.568 -0.722115 -0.191205 0
M  V30 2367 H 228.23 -1.93697 0.216196 0
M  V30 2368 H 227.326 -2.99171 -0.889 0
M  V30 2369 N 227.627 0.131896 -1.57047 0
M  V30 2370 C 228.559 1.1878 -1.9602 0
M  V30 2371 C 229.572 1.38363 -0.857875 0
M  V30 2372 O 230.761 1.37666 -1.13623 0
M  V30 2373 C 227.861 2.55008 -2.23213 0
M  V30 2374 C 227.034 2.56201 -3.54513 0
M  V30 2375 C 226.093 3.7408 -3.70069 0
M  V30 2376 O 225.119 3.58258 -4.42312 0
M  V30 2377 N 226.321 4.92137 -3.07866 0
M  V30 2378 H 229.086 0.85639 -2.87204 0
M  V30 2379 H 226.647 0.321309 -1.5868 0
M  V30 2380 H 228.639 3.32404 -2.30846 0
M  V30 2381 H 227.209 2.80382 -1.3822 0
M  V30 2382 H 226.429 1.64613 -3.58185 0
M  V30 2383 H 227.717 2.54043 -4.4084 0
M  V30 2384 H 227.115 5.07895 -2.49116 0
M  V30 2385 H 225.672 5.67254 -3.21039 0
M  V30 2386 N 229.106 1.52395 0.401703 0
M  V30 2387 C 230.522 1.41363 0.740864 0
M  V30 2388 C 230.722 0.523982 1.94568 0
M  V30 2389 O 229.778 -0.00741204 2.52499 0
M  V30 2390 C 231.091 2.84011 0.987847 0
M  V30 2391 C 232.639 2.93404 1.09011 0
M  V30 2392 C 233.114 4.37036 1.3698 0
M  V30 2393 N 234.605 4.40304 1.43829 0
M  V30 2394 C 235.34 5.48508 1.67112 0
M  V30 2395 N 234.836 6.66819 1.87949 0
M  V30 2396 N 236.629 5.36034 1.69187 0
M  V30 2397 H 228.78 2.08765 -0.391262 0
M  V30 2398 H 231.043 0.941265 -0.112798 0
M  V30 2399 H 230.749 3.51265 0.174835 0
M  V30 2400 H 230.623 3.25502 1.906 0
M  V30 2401 H 233.01 2.26325 1.8937 0
M  V30 2402 H 233.091 2.55359 0.15015 0
M  V30 2403 H 232.735 5.04676 0.571353 0
M  V30 2404 H 232.665 4.72623 2.3224 0
M  V30 2405 H 235.156 3.55024 1.29486 0
M  V30 2406 H 235.469 7.45063 2.05185 0
M  V30 2407 H 233.814 6.6987 1.85199 0
M  V30 2408 H 237.005 4.42579 1.52451 0
M  V30 2409 H 237.178 6.20434 1.86993 0
M  V30 2410 N 230.584 -0.659388 1.43143 0
M  V30 2411 C 231.514 -1.78422 1.50625 0
M  V30 2412 C 232.495 -1.66216 0.361443 0
M  V30 2413 O 233.68 -1.85404 0.577834 0
M  V30 2414 C 230.81 -3.16815 1.42287 0
M  V30 2415 C 229.764 -3.43777 2.54954 0
M  V30 2416 C 229.09 -4.81905 2.31671 0
M  V30 2417 C 230.39 -3.39134 3.97222 0
M  V30 2418 H 232.084 -1.72417 2.44771 0
M  V30 2419 H 229.63 -0.828084 1.17808 0
M  V30 2420 H 231.583 -3.95253 1.46127 0
M  V30 2421 H 230.307 -3.23534 0.446435 0
M  V30 2422 H 228.966 -2.67707 2.50457 0
M  V30 2423 H 228.614 -4.85294 1.32284 0
M  V30 2424 H 228.314 -5.00906 3.07192 0
M  V30 2425 H 229.838 -5.62609 2.37284 0
M  V30 2426 H 231.252 -4.07518 4.03239 0
M  V30 2427 H 229.649 -3.69671 4.72719 0
M  V30 2428 H 230.719 -2.37426 4.22797 0
M  V30 2429 N 232.062 -1.29571 -0.897171 0
M  V30 2430 C 233.478 -1.07637 -1.17841 0
M  V30 2431 C 233.678 0.170713 -2.00776 0
M  V30 2432 O 232.734 0.867768 -2.3712 0
M  V30 2433 C 234.047 -2.3332 -1.8969 0
M  V30 2434 C 235.595 -2.38664 -2.02505 0
M  V30 2435 C 236.07 -3.64157 -2.77765 0
M  V30 2436 N 237.561 -3.64894 -2.85318 0
M  V30 2437 C 238.296 -4.58679 -3.44094 0
M  V30 2438 N 237.792 -5.62799 -4.04017 0
M  V30 2439 N 239.585 -4.46245 -3.41793 0
M  V30 2440 H 231.736 -2.09598 -0.343883 0
M  V30 2441 H 233.999 -0.923333 -0.214848 0
M  V30 2442 H 233.705 -3.24262 -1.36187 0
M  V30 2443 H 233.579 -2.41025 -2.9015 0
M  V30 2444 H 235.966 -1.48208 -2.55183 0
M  V30 2445 H 236.047 -2.34943 -1.01171 0
M  V30 2446 H 235.691 -4.54965 -2.25763 0
M  V30 2447 H 235.621 -3.65137 -3.7945 0
M  V30 2448 H 238.112 -2.89613 -2.42761 0
M  V30 2449 H 238.425 -6.3048 -4.46895 0
M  V30 2450 H 236.77 -5.66605 -4.02472 0
M  V30 2451 H 239.961 -3.64094 -2.94199 0
M  V30 2452 H 240.134 -5.19518 -3.87304 0
M  V30 2453 N 233.54 1.10788 -1.12088 0
M  V30 2454 C 234.786 1.82942 -0.875226 0
M  V30 2455 C 235.119 1.84779 0.597538 0
M  V30 2456 O 234.394 1.30578 1.44152 0
M  V30 2457 C 234.677 3.29789 -1.44606 0
M  V30 2458 C 234.53 3.36307 -2.98693 0
M  V30 2459 C 235.849 4.26064 -1.10261 0
M  V30 2460 H 232.968 0.664195 -0.319397 0
M  V30 2461 H 235.61 1.29867 -1.38689 0
M  V30 2462 H 233.76 3.75118 -1.01089 0
M  V30 2463 H 235.432 2.99487 -3.50864 0
M  V30 2464 H 233.675 2.76318 -3.34411 0
M  V30 2465 H 234.346 4.39694 -3.33726 0
M  V30 2466 H 236.822 3.88951 -1.4784 0
M  V30 2467 H 235.698 5.27183 -1.52869 0
M  V30 2468 H 235.959 4.42098 -0.0142953 0
M  V30 2469 N 235.018 0.912232 1.28515 0
M  V30 2470 C 236.243 0.559774 1.99703 0
M  V30 2471 C 236.668 -0.851393 1.67729 0
M  V30 2472 O 236.026 -1.56875 0.908834 0
M  V30 2473 C 236.074 0.773874 3.52198 0
M  V30 2474 O 235.178 -0.167842 4.12058 0
M  V30 2475 H 234.519 0.21723 0.627461 0
M  V30 2476 H 237.049 1.22725 1.63706 0
M  V30 2477 H 237.059 0.683386 4.02236 0
M  V30 2478 H 235.734 1.80261 3.74805 0
M  V30 2479 H 234.311 -0.0287509 3.72889 0
M  V30 2480 N 236.496 -1.42363 0.676048 0
M  V30 2481 C 237.744 -2.01123 0.198437 0
M  V30 2482 C 238.065 -1.53731 -1.19966 0
M  V30 2483 O 237.335 -0.759518 -1.80577 0
M  V30 2484 H 235.915 -0.743678 0.0703721 0
M  V30 2485 H 238.577 -1.74263 0.872837 0
M  V30 2486 H 237.673 -3.11454 0.200686 0
M  V30 2487 N 237.974 -0.419461 -1.51915 0
M  V30 2488 C 238.884 0.407528 -2.31033 0
M  V30 2489 C 239.9 1.04413 -1.3919 0
M  V30 2490 O 241.076 1.0434 -1.72265 0
M  V30 2491 C 238.141 1.50365 -3.12396 0
M  V30 2492 C 237.202 0.889029 -4.19994 0
M  V30 2493 C 236.435 1.93291 -4.97468 0
M  V30 2494 O 236.658 3.15259 -4.75361 0
M  V30 2495 O 235.592 1.53339 -5.8204 0
M  V30 2496 H 239.418 -0.237865 -3.02767 0
M  V30 2497 H 237.003 -0.182413 -1.48282 0
M  V30 2498 H 238.885 2.13975 -3.63032 0
M  V30 2499 H 237.56 2.13345 -2.43445 0
M  V30 2500 H 236.467 0.215353 -3.7348 0
M  V30 2501 H 237.8 0.302991 -4.91267 0
M  V30 2502 N 239.452 1.56882 -0.150215 0
M  V30 2503 C 240.68 2.00593 0.506948 0
M  V30 2504 C 241.095 1.03033 1.58208 0
M  V30 2505 O 240.452 0.0278396 1.82479 0
M  V30 2506 C 240.503 3.44209 1.10465 0
M  V30 2507 O 240.224 4.3804 0.0724636 0
M  V30 2508 C 241.725 4.03214 1.84211 0
M  V30 2509 H 238.945 0.65795 0.13169 0
M  V30 2510 H 241.489 2.03018 -0.245743 0
M  V30 2511 H 239.644 3.42625 1.80795 0
M  V30 2512 H 240.058 5.22007 0.510793 0
M  V30 2513 H 241.532 5.0569 2.21318 0
M  V30 2514 H 242.009 3.44107 2.72923 0
M  V30 2515 H 242.615 4.08437 1.18572 0
M  V30 2516 N 240.93 -0.123565 1.57115 0
M  V30 2517 C 242.207 -0.862196 1.75572 0
M  V30 2518 C 242.587 -1.98279 0.724475 0
M  V30 2519 O 241.935 -2.27102 -0.252407 0
M  V30 2520 C 242.145 -1.38309 3.20424 0
M  V30 2521 C 243.493 -1.83724 3.82793 0
M  V30 2522 O 244.517 -1.47999 3.23998 0
M  V30 2523 O 243.376 -2.49685 4.86127 0
M  V30 2524 H 240.47 -0.409113 0.718718 0
M  V30 2525 H 243.016 -0.107661 1.69358 0
M  V30 2526 H 241.788 -0.578889 3.86994 0
M  V30 2527 H 241.411 -2.20046 3.31158 0
M  V30 2528 N 242.408 -1.52605 -0.393616 0
M  V30 2529 C 243.338 -1.80022 -1.48709 0
M  V30 2530 C 244.319 -0.651995 -1.57108 0
M  V30 2531 O 245.504 -0.89913 -1.72132 0
M  V30 2532 C 242.634 -1.96492 -2.86371 0
M  V30 2533 C 241.588 -3.12161 -2.92813 0
M  V30 2534 C 240.914 -3.13877 -4.3288 0
M  V30 2535 C 242.214 -4.51322 -2.6288 0
M  V30 2536 H 243.908 -2.71589 -1.26015 0
M  V30 2537 H 241.454 -1.30684 -0.604778 0
M  V30 2538 H 243.407 -2.14255 -3.62867 0
M  V30 2539 H 242.131 -1.01611 -3.10391 0
M  V30 2540 H 240.79 -2.94173 -2.18764 0
M  V30 2541 H 240.438 -2.16687 -4.53933 0
M  V30 2542 H 240.138 -3.91576 -4.38112 0
M  V30 2543 H 241.662 -3.33789 -5.1129 0
M  V30 2544 H 243.076 -4.69435 -3.29096 0
M  V30 2545 H 241.473 -5.31053 -2.79468 0
M  V30 2546 H 242.543 -4.58353 -1.58242 0
M  V30 2547 N 243.887 0.651787 -1.4349 0
M  V30 2548 C 245.112 1.44434 -1.48841 0
M  V30 2549 C 245.537 1.8779 -0.107955 0
M  V30 2550 O 244.895 1.57464 0.898602 0
M  V30 2551 C 244.943 2.65458 -2.44059 0
M  V30 2552 O 244.047 3.64566 -1.92784 0
M  V30 2553 H 243.388 0.433005 -0.503391 0
M  V30 2554 H 245.918 0.797451 -1.88419 0
M  V30 2555 H 245.928 3.13255 -2.6141 0
M  V30 2556 H 244.603 2.33244 -3.4434 0
M  V30 2557 H 243.18 3.23716 -1.851 0
M  V30 2558 N 245.365 1.30045 0.890287 0
M  V30 2559 C 246.312 1.15976 1.99545 0
M  V30 2560 C 247.282 0.0506202 1.66023 0
M  V30 2561 O 248.467 0.219847 1.89529 0
M  V30 2562 C 245.607 0.852054 3.34416 0
M  V30 2563 C 244.72 2.04255 3.80662 0
M  V30 2564 C 243.855 1.6734 5.04154 0
M  V30 2565 C 242.894 2.82916 5.42794 0
M  V30 2566 N 242.031 2.46333 6.57468 0
M  V30 2567 H 246.871 2.10524 2.10911 0
M  V30 2568 H 244.408 1.04749 1.03276 0
M  V30 2569 H 246.366 0.654296 4.12037 0
M  V30 2570 H 244.996 -0.0565502 3.2275 0
M  V30 2571 H 244.048 2.35172 2.98995 0
M  V30 2572 H 245.36 2.90826 4.05242 0
M  V30 2573 H 244.514 1.43908 5.89386 0
M  V30 2574 H 243.253 0.779308 4.81433 0
M  V30 2575 H 242.258 3.0702 4.56091 0
M  V30 2576 H 243.483 3.73004 5.6749 0
M  V30 2577 H 241.429 1.59423 6.36334 0
M  V30 2578 H 241.346 3.26436 6.81891 0
M  V30 2579 H 242.614 2.26244 7.45945 0
M  V30 2580 N 246.843 -1.10192 1.12674 0
M  V30 2581 C 247.806 -2.14786 0.799979 0
M  V30 2582 C 248.806 -1.59711 -0.18685 0
M  V30 2583 O 249.996 -1.74156 0.0392558 0
M  V30 2584 C 247.128 -3.40374 0.189228 0
M  V30 2585 H 248.321 -2.45203 1.72671 0
M  V30 2586 H 245.874 -1.25597 0.930326 0
M  V30 2587 H 246.609 -3.15577 -0.747107 0
M  V30 2588 H 246.394 -3.81637 0.899766 0
M  V30 2589 H 247.884 -4.17594 -0.0228143 0
M  V30 2590 N 248.321 -0.919034 -1.28029 0
M  V30 2591 C 249.251 -0.428581 -2.29533 0
M  V30 2592 C 250.232 0.50659 -1.62381 0
M  V30 2593 O 251.417 0.413195 -1.89753 0
M  V30 2594 C 248.547 0.327388 -3.45753 0
M  V30 2595 C 247.501 -0.519137 -4.2484 0
M  V30 2596 C 246.827 0.365486 -5.33449 0
M  V30 2597 C 248.127 -1.77914 -4.91064 0
M  V30 2598 H 249.821 -1.27687 -2.70807 0
M  V30 2599 H 247.367 -0.615428 -1.30186 0
M  V30 2600 H 249.32 0.681378 -4.15855 0
M  V30 2601 H 248.044 1.20963 -3.03374 0
M  V30 2602 H 246.703 -0.855717 -3.56473 0
M  V30 2603 H 246.351 1.24642 -4.87312 0
M  V30 2604 H 246.051 -0.197356 -5.87268 0
M  V30 2605 H 247.575 0.715241 -6.06396 0
M  V30 2606 H 248.989 -1.49374 -5.53498 0
M  V30 2607 H 247.386 -2.2848 -5.54903 0
M  V30 2608 H 248.456 -2.50382 -4.15255 0
M  V30 2609 N 249.799 1.42003 -0.683588 0
M  V30 2610 C 251.045 2.01712 -0.209825 0
M  V30 2611 C 251.378 1.53968 1.18353 0
M  V30 2612 O 250.653 0.745661 1.79639 0
M  V30 2613 C 250.936 3.59202 -0.254197 0
M  V30 2614 C 250.789 4.17102 -1.68363 0
M  V30 2615 C 252.108 4.38344 0.392709 0
M  V30 2616 H 249.227 0.732891 -0.0777189 0
M  V30 2617 H 251.869 1.68909 -0.87004 0
M  V30 2618 H 250.019 3.87278 0.307954 0
M  V30 2619 H 251.691 3.99946 -2.29871 0
M  V30 2620 H 249.934 3.72597 -2.22157 0
M  V30 2621 H 250.605 5.26249 -1.6663 0
M  V30 2622 H 253.081 4.16011 -0.0859162 0
M  V30 2623 H 251.957 5.47901 0.331063 0
M  V30 2624 H 252.218 4.16887 1.47164 0
M  V30 2625 N 251.277 0.427512 1.51691 0
M  V30 2626 C 252.207 -0.3796 2.30394 0
M  V30 2627 C 253.188 -1.02982 1.35384 0
M  V30 2628 O 254.373 -1.03534 1.643 0
M  V30 2629 C 251.503 -1.48649 3.1388 0
M  V30 2630 C 250.457 -0.960294 4.17088 0
M  V30 2631 C 249.783 -2.16219 4.89033 0
M  V30 2632 C 251.083 -0.00153679 5.223 0
M  V30 2633 H 252.777 0.277164 2.98114 0
M  V30 2634 H 250.323 0.134739 1.43368 0
M  V30 2635 H 252.276 -2.05826 3.67714 0
M  V30 2636 H 251 -2.1714 2.43962 0
M  V30 2637 H 249.659 -0.410806 3.64291 0
M  V30 2638 H 249.307 -2.83307 4.15628 0
M  V30 2639 H 249.007 -1.81654 5.58816 0
M  V30 2640 H 250.531 -2.73968 5.45687 0
M  V30 2641 H 251.945 -0.482687 5.71264 0
M  V30 2642 H 250.342 0.256199 5.99553 0
M  V30 2643 H 251.412 0.938174 4.75738 0
M  V30 2644 N 252.755 -1.56801 0.158532 0
M  V30 2645 C 253.983 -2.00859 -0.496303 0
M  V30 2646 C 254.398 -1.03871 -1.57659 0
M  V30 2647 O 253.755 -0.0375165 -1.82461 0
M  V30 2648 C 253.806 -3.4479 -1.08638 0
M  V30 2649 O 253.527 -4.38072 -0.0492322 0
M  V30 2650 C 255.028 -4.04185 -1.8207 0
M  V30 2651 H 252.248 -0.65864 -0.128199 0
M  V30 2652 H 254.792 -2.02885 0.256506 0
M  V30 2653 H 252.947 -3.43579 -1.78975 0
M  V30 2654 H 253.361 -5.2227 -0.483102 0
M  V30 2655 H 254.835 -5.06857 -2.18633 0
M  V30 2656 H 255.312 -3.45549 -2.71095 0
M  V30 2657 H 255.918 -4.0906 -1.16405 0
M  V30 2658 N 254.233 0.115231 -1.57178 0
M  V30 2659 C 255.143 1.15994 -2.03918 0
M  V30 2660 C 256.159 1.45103 -0.960268 0
M  V30 2661 O 257.335 1.56144 -1.27204 0
M  V30 2662 C 254.4 2.46568 -2.43732 0
M  V30 2663 C 253.461 2.24822 -3.65723 0
M  V30 2664 C 252.694 3.4917 -4.03629 0
M  V30 2665 O 252.917 4.56623 -3.41835 0
M  V30 2666 O 251.851 3.39949 -4.96708 0
M  V30 2667 H 255.677 0.793019 -2.93164 0
M  V30 2668 H 253.262 0.3263 -1.45793 0
M  V30 2669 H 255.144 3.23492 -2.70057 0
M  V30 2670 H 253.819 2.82726 -1.57631 0
M  V30 2671 H 252.726 1.45744 -3.44542 0
M  V30 2672 H 254.059 1.93566 -4.52541 0
M  V30 2673 N 255.711 1.52812 0.385517 0
M  V30 2674 C 256.96 1.67249 1.12741 0
M  V30 2675 C 257.273 0.4205 1.91027 0
M  V30 2676 O 258.479 0.445064 2.67827 0
M  V30 2677 C 256.935 2.95583 2.05326 0
M  V30 2678 C 256.543 4.27974 1.32447 0
M  V30 2679 C 258.287 3.19386 2.7963 0
M  V30 2680 C 256.194 5.47412 2.23818 0
M  V30 2681 H 255.124 0.6231 0.424573 0
M  V30 2682 H 257.775 1.79309 0.389924 0
M  V30 2683 H 256.157 2.77277 2.82725 0
M  V30 2684 H 257.331 4.56844 0.602495 0
M  V30 2685 H 255.646 4.10459 0.700885 0
M  V30 2686 H 258.243 4.05801 3.48181 0
M  V30 2687 H 258.586 2.34604 3.43899 0
M  V30 2688 H 259.119 3.38274 2.09322 0
M  V30 2689 H 255.858 6.34612 1.64157 0
M  V30 2690 H 255.378 5.22849 2.93921 0
M  V30 2691 H 257.057 5.81423 2.83824 0
M  V30 2692 N 257.189 -0.644168 1.43834 0
M  V30 2693 C 258.437 -1.40117 1.45642 0
M  V30 2694 C 258.758 -1.94814 0.0852413 0
M  V30 2695 O 258.028 -1.74988 -0.880688 0
M  V30 2696 H 256.608 -0.52005 0.536243 0
M  V30 2697 H 259.27 -0.7591 1.7951 0
M  V30 2698 H 258.366 -2.23902 2.17427 0
M  V30 2699 N 258.668 -1.30515 -0.883378 0
M  V30 2700 C 260.079 -1.17509 -1.45081 0
M  V30 2701 C 260.43 0.223605 -1.94922 0
M  V30 2702 O 259.555 1.12041 -1.85137 0
M  V30 2703 C 260.15 -2.12715 -2.63701 0
M  V30 2704 C 258.709 -2.03682 -3.16529 0
M  V30 2705 C 257.856 -2.02706 -1.89224 0
M  V30 2706 H 260.807 -1.42762 -0.693165 0
M  V30 2707 H 260.828 -1.70891 -3.39965 0
M  V30 2708 H 260.34 -3.14505 -2.27395 0
M  V30 2709 H 258.441 -1.05039 -3.57488 0
M  V30 2710 H 258.554 -2.92146 -3.7972 0
M  V30 2711 H 256.918 -1.4753 -2.07622 0
M  V30 2712 H 257.701 -3.06229 -1.55174 0
M  V30 2713 N 260.146 1.09593 -1.13257 0
M  V30 2714 C 261.093 2.1618 -0.808381 0
M  V30 2715 C 262.063 1.64517 0.228754 0
M  V30 2716 O 263.248 1.9053 0.101381 0
M  V30 2717 C 260.388 3.43973 -0.278675 0
M  V30 2718 C 259.501 4.09545 -1.37466 0
M  V30 2719 C 258.636 5.25088 -0.803479 0
M  V30 2720 C 257.675 5.82579 -1.87799 0
M  V30 2721 N 256.812 6.89486 -1.32488 0
M  V30 2722 H 261.652 2.43254 -1.72138 0
M  V30 2723 H 259.189 1.19392 -0.859294 0
M  V30 2724 H 261.147 4.17174 0.0465583 0
M  V30 2725 H 259.777 3.17223 0.597459 0
M  V30 2726 H 258.829 3.34226 -1.81652 0
M  V30 2727 H 260.141 4.48307 -2.18684 0
M  V30 2728 H 259.295 6.05178 -0.429427 0
M  V30 2729 H 258.034 4.87684 0.0397956 0
M  V30 2730 H 257.039 5.01152 -2.26113 0
M  V30 2731 H 258.264 6.22045 -2.72463 0
M  V30 2732 H 256.21 6.54064 -0.503575 0
M  V30 2733 H 256.127 7.27007 -2.07355 0
M  V30 2734 H 257.395 7.73336 -0.978336 0
M  V30 2735 N 261.624 0.925811 1.2754 0
M  V30 2736 C 263.04 0.625767 1.46821 0
M  V30 2737 C 263.24 -0.825506 1.83814 0
M  V30 2738 O 262.296 -1.60356 1.95044 0
M  V30 2739 C 263.609 1.57402 2.56213 0
M  V30 2740 C 265.157 1.58204 2.70075 0
M  V30 2741 C 265.632 2.51721 3.82623 0
M  V30 2742 N 267.123 2.49917 3.89994 0
M  V30 2743 C 267.858 3.18968 4.76494 0
M  V30 2744 N 267.354 3.97391 5.67496 0
M  V30 2745 N 269.147 3.07996 4.70208 0
M  V30 2746 H 261.298 1.86409 1.01811 0
M  V30 2747 H 263.561 0.800213 0.508295 0
M  V30 2748 H 263.267 2.60925 2.35819 0
M  V30 2749 H 263.141 1.31428 3.53563 0
M  V30 2750 H 265.528 0.554124 2.89851 0
M  V30 2751 H 265.609 1.88226 1.73218 0
M  V30 2752 H 265.253 3.54622 3.63601 0
M  V30 2753 H 265.183 2.18996 4.78903 0
M  V30 2754 H 267.674 1.9296 3.24923 0
M  V30 2755 H 267.987 4.4707 6.30356 0
M  V30 2756 H 266.332 4.01495 5.67298 0
M  V30 2757 H 269.523 2.46223 3.9811 0
M  V30 2758 H 269.696 3.6208 5.37403 0
M  V30 2759 N 263.102 -1.41638 0.69111 0
M  V30 2760 C 264.379 -1.95036 0.148421 0
M  V30 2761 C 264.759 -1.63072 -1.34055 0
M  V30 2762 O 264.107 -0.93538 -2.08478 0
M  V30 2763 C 264.317 -3.46279 0.434951 0
M  V30 2764 C 265.665 -4.23069 0.360275 0
M  V30 2765 O 266.689 -3.54277 0.369613 0
M  V30 2766 O 265.548 -5.45583 0.316534 0
M  V30 2767 H 262.642 -0.826908 0.0123654 0
M  V30 2768 H 265.188 -1.5138 0.766963 0
M  V30 2769 H 263.96 -3.6281 1.46576 0
M  V30 2770 H 263.583 -3.97019 -0.214787 0
M  V30 2771 N 264.58 -0.43555 -1.51462 0
M  V30 2772 C 265.991 0.0279871 -1.86679 0
M  V30 2773 C 266.342 1.42104 -1.35281 0
M  V30 2774 O 265.467 2.04667 -0.702878 0
M  V30 2775 C 266.062 0.0575626 -3.38751 0
M  V30 2776 C 264.621 0.465507 -3.7351 0
M  V30 2777 C 263.768 -0.342996 -2.75171 0
M  V30 2778 H 266.719 -0.651473 -1.44712 0
M  V30 2779 H 266.74 0.867421 -3.70481 0
M  V30 2780 H 266.252 -0.956448 -3.7613 0
M  V30 2781 H 264.353 1.48519 -3.41721 0
M  V30 2782 H 264.466 0.191546 -4.78717 0
M  V30 2783 H 262.83 0.198442 -2.53926 0
M  V30 2784 H 263.613 -1.35585 -3.15391 0
M  V30 2785 N 266.058 1.56714 -0.166846 0
M  V30 2786 C 267.021 2.16539 0.751232 0
M  V30 2787 C 268.021 1.11228 1.16125 0
M  V30 2788 O 269.211 1.36765 1.07894 0
M  V30 2789 C 266.343 2.74462 2.02196 0
M  V30 2790 H 267.536 2.99013 0.230499 0
M  V30 2791 H 265.089 1.56081 0.0826982 0
M  V30 2792 H 265.824 1.95709 2.58589 0
M  V30 2793 H 265.609 3.51527 1.73698 0
M  V30 2794 H 267.099 3.20489 2.67725 0
M  V30 2795 N 267.536 -0.106894 1.57237 0
M  V30 2796 C 268.764 -0.826389 1.8968 0
M  V30 2797 C 269.179 -1.72856 0.759353 0
M  V30 2798 O 268.536 -1.80503 -0.269263 0
M  V30 2799 C 268.587 -1.64967 3.21665 0
M  V30 2800 O 268.308 -0.783804 4.31031 0
M  V30 2801 C 269.809 -2.47326 3.67892 0
M  V30 2802 H 267.029 -0.236927 0.627779 0
M  V30 2803 H 269.573 -0.0876593 2.04312 0
M  V30 2804 H 267.728 -2.34103 3.08666 0
M  V30 2805 H 268.142 -1.35284 5.06753 0
M  V30 2806 H 269.616 -3.00604 4.6297 0
M  V30 2807 H 270.093 -3.25247 2.95146 0
M  V30 2808 H 270.699 -1.83411 3.83719 0
M  V30 2809 N 269.014 -1.53014 -0.377408 0
M  V30 2810 C 269.944 -1.81589 -1.46791 0
M  V30 2811 C 270.925 -0.668622 -1.56408 0
M  V30 2812 O 272.11 -0.917337 -1.71168 0
M  V30 2813 C 269.24 -1.99519 -2.8427 0
M  V30 2814 C 268.194 -3.15249 -2.89486 0
M  V30 2815 C 267.52 -3.18451 -4.29527 0
M  V30 2816 C 268.82 -4.54084 -2.58079 0
M  V30 2817 H 270.514 -2.7291 -1.23127 0
M  V30 2818 H 268.06 -1.31319 -0.590883 0
M  V30 2819 H 270.013 -2.18092 -3.60575 0
M  V30 2820 H 268.737 -1.04897 -3.09296 0
M  V30 2821 H 267.396 -2.96477 -2.15631 0
M  V30 2822 H 267.044 -2.2149 -4.5161 0
M  V30 2823 H 266.744 -3.962 -4.33934 0
M  V30 2824 H 268.268 -3.39193 -5.07721 0
M  V30 2825 H 269.682 -4.72899 -3.24098 0
M  V30 2826 H 268.079 -5.33987 -2.7382 0
M  V30 2827 H 269.149 -4.60006 -1.53372 0
M  V30 2828 N 270.492 0.636531 -1.44174 0
M  V30 2829 C 271.439 1.74875 -1.50624 0
M  V30 2830 C 272.409 1.62275 -0.35442 0
M  V30 2831 O 273.594 1.82276 -0.563908 0
M  V30 2832 C 270.734 3.13102 -1.45125 0
M  V30 2833 C 269.847 3.36717 -2.7064 0
M  V30 2834 C 268.982 4.64885 -2.57013 0
M  V30 2835 C 268.021 4.8166 -3.77717 0
M  V30 2836 N 267.158 6.01101 -3.62798 0
M  V30 2837 H 271.998 1.68697 -2.45653 0
M  V30 2838 H 269.535 0.823004 -1.21922 0
M  V30 2839 H 271.493 3.93034 -1.39929 0
M  V30 2840 H 270.123 3.18308 -0.536671 0
M  V30 2841 H 269.175 2.50763 -2.86046 0
M  V30 2842 H 270.487 3.44993 -3.60252 0
M  V30 2843 H 269.641 5.52969 -2.49619 0
M  V30 2844 H 268.38 4.58957 -1.64953 0
M  V30 2845 H 267.385 3.92007 -3.85501 0
M  V30 2846 H 268.61 4.89406 -4.70807 0
M  V30 2847 H 266.556 5.96273 -2.73486 0
M  V30 2848 H 266.473 6.10409 -4.46023 0
M  V30 2849 H 267.741 6.91761 -3.59286 0
M  V30 2850 N 271.97 1.30982 0.876444 0
M  V30 2851 C 272.9 1.20668 1.99903 0
M  V30 2852 C 273.881 0.095354 1.69833 0
M  V30 2853 O 275.066 0.27885 1.92188 0
M  V30 2854 C 272.196 0.90655 3.3526 0
M  V30 2855 C 271.15 1.97675 3.79617 0
M  V30 2856 C 270.476 1.52943 5.1236 0
M  V30 2857 C 271.776 3.389 3.97422 0
M  V30 2858 H 273.47 2.14586 2.0879 0
M  V30 2859 H 271.016 1.03308 1.00317 0
M  V30 2860 H 272.969 0.821025 4.13324 0
M  V30 2861 H 271.693 -0.0682969 3.26529 0
M  V30 2862 H 270.352 2.05205 3.03787 0
M  V30 2863 H 270 0.54262 5.00065 0
M  V30 2864 H 269.7 2.24532 5.43009 0
M  V30 2865 H 271.224 1.45786 5.92941 0
M  V30 2866 H 272.638 3.34081 4.659 0
M  V30 2867 H 271.035 4.0865 4.3946 0
M  V30 2868 H 272.105 3.80163 3.01006 0
M  V30 2869 N 273.449 -1.08991 1.13837 0
M  V30 2870 C 274.696 -1.81258 0.902882 0
M  V30 2871 C 275.024 -1.85936 -0.570803 0
M  V30 2872 O 274.279 -1.3267 -1.43865 0
M  V30 2873 C 274.578 -3.27042 1.44147 0
M  V30 2874 C 274.244 -3.4249 2.93276 0
M  V30 2875 C 272.906 -3.46414 3.33992 0
M  V30 2876 C 275.258 -3.4666 3.892 0
M  V30 2877 C 272.586 -3.52091 4.69307 0
M  V30 2878 C 274.938 -3.53872 5.24364 0
M  V30 2879 C 273.602 -3.56066 5.646 0
M  V30 2880 H 272.872 -0.663268 0.330388 0
M  V30 2881 H 275.519 -1.28368 1.42105 0
M  V30 2882 H 273.824 -3.82599 0.844097 0
M  V30 2883 H 275.521 -3.81499 1.23528 0
M  V30 2884 H 272.111 -3.40124 2.60794 0
M  V30 2885 H 276.295 -3.42865 3.58828 0
M  V30 2886 H 271.551 -3.52079 4.9985 0
M  V30 2887 H 275.725 -3.56043 5.98503 0
M  V30 2888 H 273.352 -3.60218 6.69438 0
M  V30 2889 N 274.927 -0.932562 -1.27047 0
M  V30 2890 C 275.857 -0.452902 -2.29066 0
M  V30 2891 C 276.838 0.489338 -1.62909 0
M  V30 2892 O 278.023 0.393046 -1.90181 0
M  V30 2893 C 275.153 0.290698 -3.46081 0
M  V30 2894 C 274.107 -0.564168 -4.24265 0
M  V30 2895 C 273.433 0.308886 -5.33807 0
M  V30 2896 C 274.733 -1.83112 -4.89149 0
M  V30 2897 H 276.427 -1.30552 -2.69437 0
M  V30 2898 H 273.973 -0.629201 -1.29526 0
M  V30 2899 H 275.926 0.637233 -4.16554 0
M  V30 2900 H 274.65 1.17738 -3.0464 0
M  V30 2901 H 273.309 -0.893477 -3.55545 0
M  V30 2902 H 272.957 1.19467 -4.88607 0
M  V30 2903 H 272.657 -0.259633 -5.87026 0
M  V30 2904 H 274.181 0.650884 -6.07121 0
M  V30 2905 H 275.595 -1.55236 -5.51883 0
M  V30 2906 H 273.992 -2.34353 -5.52448 0
M  V30 2907 H 275.062 -2.54772 -4.12576 0
M  V30 2908 N 276.405 1.4127 -0.698611 0
M  V30 2909 C 277.63 2.06024 -0.238512 0
M  V30 2910 C 278.055 1.5224 1.10475 0
M  V30 2911 O 277.413 0.650623 1.69223 0
M  V30 2912 C 277.461 3.59988 -0.209952 0
M  V30 2913 O 276.565 4.04282 0.814235 0
M  V30 2914 H 275.906 0.653829 -0.115775 0
M  V30 2915 H 278.436 1.8098 -0.954326 0
M  V30 2916 H 278.446 4.07979 -0.0418436 0
M  V30 2917 H 277.121 3.98503 -1.1903 0
M  V30 2918 H 275.698 3.6779 0.615234 0
M  V30 2919 N 277.883 0.443576 1.51229 0
M  V30 2920 C 278.831 -0.37904 2.29491 0
M  V30 2921 C 279.825 -1.0153 1.35603 0
M  V30 2922 O 281.031 -0.94955 1.52917 0
M  V30 2923 H 277.406 -0.141053 0.738653 0
M  V30 2924 H 279.377 0.301799 2.9687 0
M  V30 2925 C 278.126 -1.46426 3.15364 0
M  V30 2926 H 277.449 -0.984037 3.87501 0
M  V30 2927 H 278.889 -2.01297 3.7317 0
M  V30 2928 C 277.348 -2.45099 2.31146 0
M  V30 2929 O 277.878 -3.49773 1.9754 0
M  V30 2930 N 276.084 -2.16139 1.94249 0
M  V30 2931 H 275.631 -1.31044 2.21777 0
M  V30 2932 H 275.589 -2.82398 1.38198 0
M  V30 2933 N 279.361 -1.56624 0.175154 0
M  V30 2934 C 280.294 -2.14 -0.792412 0
M  V30 2935 C 281.272 -1.07114 -1.22333 0
M  V30 2936 O 282.456 -1.35112 -1.31442 0
M  V30 2937 C 279.583 -2.68268 -2.0676 0
M  V30 2938 C 278.629 -3.87562 -1.7804 0
M  V30 2939 S 279.462 -5.27074 -0.946222 0
M  V30 2940 C 280.618 -5.8475 -2.23199 0
M  V30 2941 H 280.851 -2.95736 -0.304588 0
M  V30 2942 H 278.384 -1.54349 -0.0395705 0
M  V30 2943 H 280.342 -3.00182 -2.80002 0
M  V30 2944 H 279.003 -1.86612 -2.52656 0
M  V30 2945 H 278.196 -4.23874 -2.72666 0
M  V30 2946 H 277.798 -3.56555 -1.12891 0
M  V30 2947 H 280.09 -5.97898 -3.18629 0
M  V30 2948 H 281.033 -6.81756 -1.91349 0
M  V30 2949 H 281.441 -5.13198 -2.35134 0
M  V30 2950 N 280.839 0.0985539 -1.57292 0
M  V30 2951 C 281.749 1.13824 -2.05137 0
M  V30 2952 C 282.765 1.44076 -0.975604 0
M  V30 2953 O 283.941 1.54786 -1.28853 0
M  V30 2954 C 281.006 2.43969 -2.46333 0
M  V30 2955 C 280.067 2.2093 -3.68087 0
M  V30 2956 C 279.3 3.44869 -4.0731 0
M  V30 2957 O 279.523 4.52972 -3.46659 0
M  V30 2958 O 278.457 3.34661 -5.00285 0
M  V30 2959 H 282.283 0.761881 -2.93988 0
M  V30 2960 H 279.868 0.310818 -1.46131 0
M  V30 2961 H 281.75 3.20609 -2.73473 0
M  V30 2962 H 280.425 2.81038 -1.60621 0
M  V30 2963 H 279.332 1.42081 -3.46069 0
M  V30 2964 H 280.665 1.88755 -4.54568 0
M  V30 2965 N 282.317 1.53212 0.369288 0
M  V30 2966 C 283.733 1.42902 0.710712 0
M  V30 2967 C 283.933 0.565135 1.93413 0
M  V30 2968 O 282.989 0.0461484 2.52458 0
M  V30 2969 C 284.302 2.86042 0.927382 0
M  V30 2970 C 285.85 2.9565 1.02762 0
M  V30 2971 C 286.325 4.39843 1.27679 0
M  V30 2972 N 287.816 4.43256 1.34457 0
M  V30 2973 C 288.551 5.51929 1.55439 0
M  V30 2974 N 288.047 6.70655 1.73762 0
M  V30 2975 N 289.84 5.39502 1.57779 0
M  V30 2976 H 281.991 2.07888 -0.435457 0
M  V30 2977 H 284.254 0.938661 -0.132739 0
M  V30 2978 H 283.96 3.51557 0.100287 0
M  V30 2979 H 283.834 3.29472 1.83653 0
M  V30 2980 H 286.221 2.30291 1.84527 0
M  V30 2981 H 286.302 2.5562 0.0959504 0
M  V30 2982 H 285.946 5.05774 0.464175 0
M  V30 2983 H 285.876 4.77443 2.22162 0
M  V30 2984 H 288.367 3.5769 1.21926 0
M  V30 2985 H 288.68 7.49248 1.89335 0
M  V30 2986 H 287.025 6.73648 1.70948 0
M  V30 2987 H 290.216 4.45713 1.43029 0
M  V30 2988 H 290.389 6.2426 1.7379 0
M  V30 2989 N 283.795 -0.628877 1.44509 0
M  V30 2990 C 284.725 -1.75187 1.54376 0
M  V30 2991 C 285.706 -1.65411 0.396618 0
M  V30 2992 O 286.891 -1.84137 0.617031 0
M  V30 2993 C 284.021 -3.13725 1.48976 0
M  V30 2994 C 282.975 -3.38291 2.62189 0
M  V30 2995 C 282.301 -4.76883 2.41841 0
M  V30 2996 C 283.601 -3.30632 4.04326 0
M  V30 2997 H 285.295 -1.67187 2.48373 0
M  V30 2998 H 282.841 -0.802909 1.19538 0
M  V30 2999 H 284.794 -3.92064 1.54478 0
M  V30 3000 H 283.518 -3.22515 0.514961 0
M  V30 3001 H 282.177 -2.62334 2.56079 0
M  V30 3002 H 281.825 -4.82378 1.42548 0
M  V30 3003 H 281.525 -4.94278 3.17747 0
M  V30 3004 H 283.049 -5.57449 2.49165 0
M  V30 3005 H 284.463 -3.98873 4.11793 0
M  V30 3006 H 282.86 -3.59561 4.80454 0
M  V30 3007 H 283.93 -2.28404 4.27738 0
M  V30 3008 N 285.273 -1.31445 -0.869486 0
M  V30 3009 C 286.203 -1.21727 -1.99261 0
M  V30 3010 C 287.184 -0.104359 -1.6978 0
M  V30 3011 O 288.369 -0.289038 -1.92037 0
M  V30 3012 C 285.499 -0.924317 -3.34774 0
M  V30 3013 C 284.453 -1.99685 -3.78563 0
M  V30 3014 C 283.779 -1.55658 -5.11541 0
M  V30 3015 C 285.079 -3.41003 -3.95619 0
M  V30 3016 H 286.773 -2.1569 -2.07649 0
M  V30 3017 H 284.319 -1.03839 -0.997675 0
M  V30 3018 H 286.272 -0.842934 -4.12883 0
M  V30 3019 H 284.996 0.0509793 -3.2656 0
M  V30 3020 H 283.655 -2.06813 -3.02694 0
M  V30 3021 H 283.303 -0.569132 -4.9977 0
M  V30 3022 H 283.003 -2.27409 -5.41811 0
M  V30 3023 H 284.527 -1.48928 -5.92159 0
M  V30 3024 H 285.941 -3.36547 -4.64122 0
M  V30 3025 H 284.338 -4.10975 -4.37286 0
M  V30 3026 H 285.408 -3.81754 -2.98985 0
M  V30 3027 N 286.751 1.08385 -1.14413 0
M  V30 3028 C 287.701 2.13509 -0.79987 0
M  V30 3029 C 288.685 1.5951 0.211059 0
M  V30 3030 O 289.877 1.76995 0.0133694 0
M  V30 3031 C 287.006 3.42162 -0.279297 0
M  V30 3032 C 286.092 4.03042 -1.31976 0
M  V30 3033 N 286.483 4.38327 -2.52395 0
M  V30 3034 C 284.781 4.30379 -1.17004 0
M  V30 3035 C 285.482 4.86428 -3.19003 0
M  V30 3036 N 284.458 4.84547 -2.46405 0
M  V30 3037 H 288.26 2.38609 -1.7159 0
M  V30 3038 H 285.774 1.2572 -1.02802 0
M  V30 3039 H 287.771 4.16898 -0.0143688 0
M  V30 3040 H 286.431 3.18511 0.630923 0
M  V30 3041 H 287.442 4.29349 -2.89621 0
M  V30 3042 H 284.119 4.16281 -0.318854 0
M  V30 3043 H 285.509 5.23107 -4.21674 0
M  V30 3044 N 288.23 0.939286 1.26551 0
M  V30 3045 C 289.193 0.451987 2.24699 0
M  V30 3046 C 290.193 -0.435869 1.5478 0
M  V30 3047 O 291.383 -0.235314 1.72603 0
M  V30 3048 C 288.515 -0.348801 3.39111 0
M  V30 3049 H 289.708 1.3193 2.69322 0
M  V30 3050 H 287.261 0.721072 1.38673 0
M  V30 3051 H 287.996 -1.23444 2.99887 0
M  V30 3052 H 287.781 0.287945 3.91041 0
M  V30 3053 H 289.271 -0.679726 4.12031 0
M  V30 3054 N 289.708 -1.40897 0.706093 0
M  V30 3055 C 290.655 -2.30751 0.0474474 0
M  V30 3056 C 291.625 -1.47678 -0.76029 0
M  V30 3057 O 292.81 -1.76441 -0.726177 0
M  V30 3058 C 289.95 -3.33815 -0.875309 0
M  V30 3059 C 289.063 -4.31961 -0.0580623 0
M  V30 3060 C 288.198 -5.22093 -0.979425 0
M  V30 3061 C 287.237 -6.11902 -0.155706 0
M  V30 3062 N 286.374 -6.94482 -1.03144 0
M  V30 3063 H 291.214 -2.86513 0.819413 0
M  V30 3064 H 288.751 -1.41102 0.415783 0
M  V30 3065 H 290.709 -3.92129 -1.42446 0
M  V30 3066 H 289.339 -2.79579 -1.61356 0
M  V30 3067 H 288.391 -3.75507 0.608147 0
M  V30 3068 H 289.703 -4.95415 0.580082 0
M  V30 3069 H 288.857 -5.85292 -1.59744 0
M  V30 3070 H 287.596 -4.5889 -1.65141 0
M  V30 3071 H 286.601 -5.47742 0.475309 0
M  V30 3072 H 287.826 -6.77162 0.512635 0
M  V30 3073 H 285.772 -6.33877 -1.68924 0
M  V30 3074 H 285.689 -7.54665 -0.449108 0
M  V30 3075 H 286.957 -7.6214 -1.63593 0
M  V30 3076 N 291.186 -0.45159 -1.50991 0
M  V30 3077 C 292.149 0.341117 -2.26647 0
M  V30 3078 C 293.149 0.937422 -1.30649 0
M  V30 3079 O 294.339 0.809644 -1.54241 0
M  V30 3080 C 291.471 1.48398 -3.06905 0
M  V30 3081 H 292.664 -0.322117 -2.98165 0
M  V30 3082 H 290.217 -0.205122 -1.54948 0
M  V30 3083 H 290.952 2.18284 -2.39838 0
M  V30 3084 H 290.737 1.06241 -3.77432 0
M  V30 3085 H 292.227 2.04367 -3.64176 0
M  V30 3086 N 292.664 1.56529 -0.183458 0
M  V30 3087 C 293.614 2.1515 0.754605 0
M  V30 3088 C 294.598 1.08904 1.18443 0
M  V30 3089 O 295.79 1.34997 1.14476 0
M  V30 3090 C 292.919 2.80531 1.97881 0
M  V30 3091 C 292.005 3.93952 1.57043 0
M  V30 3092 N 292.396 4.98221 0.87231 0
M  V30 3093 C 290.694 4.05338 1.86057 0
M  V30 3094 C 291.395 5.77836 0.669377 0
M  V30 3095 N 290.371 5.29858 1.21454 0
M  V30 3096 H 294.173 2.93132 0.212387 0
M  V30 3097 H 291.687 1.62391 0.0167725 0
M  V30 3098 H 293.684 3.20914 2.6612 0
M  V30 3099 H 292.344 2.04035 2.52586 0
M  V30 3100 H 293.355 5.15191 0.529033 0
M  V30 3101 H 290.032 3.39957 2.42354 0
M  V30 3102 H 291.422 6.71799 0.116422 0
M  V30 3103 N 294.142 -0.090211 1.57342 0
M  V30 3104 C 295.39 -0.791241 1.85967 0
M  V30 3105 C 295.711 -1.7903 0.772859 0
M  V30 3106 O 294.981 -1.94872 -0.200398 0
M  V30 3107 H 293.561 -0.295205 0.686195 0
M  V30 3108 H 296.223 -0.0706782 1.94772 0
M  V30 3109 H 295.319 -1.31882 2.82867 0
M  V30 3110 N 295.62 -1.53406 -0.361157 0
M  V30 3111 C 296.866 -1.70054 -1.10496 0
M  V30 3112 C 297.199 -0.453278 -1.88836 0
M  V30 3113 O 296.474 0.5495 -1.86576 0
M  V30 3114 C 296.757 -2.95317 -2.06058 0
M  V30 3115 C 296.61 -4.3021 -1.31298 0
M  V30 3116 C 297.929 -3.16193 -3.06121 0
M  V30 3117 H 295.048 -0.618799 -0.400321 0
M  V30 3118 H 297.69 -1.86052 -0.385318 0
M  V30 3119 H 295.84 -2.81809 -2.67425 0
M  V30 3120 H 297.512 -4.55538 -0.726807 0
M  V30 3121 H 295.755 -4.29421 -0.614853 0
M  V30 3122 H 296.426 -5.14 -2.01265 0
M  V30 3123 H 298.902 -3.28916 -2.5486 0
M  V30 3124 H 297.778 -4.05266 -3.70204 0
M  V30 3125 H 298.039 -2.31676 -3.76535 0
M  V30 3126 N 297.098 0.621204 -1.44841 0
M  V30 3127 C 298.514 0.94048 -1.28946 0
M  V30 3128 C 298.714 2.00154 -0.23249 0
M  V30 3129 O 297.77 2.49651 0.378237 0
M  V30 3130 C 299.083 1.39433 -2.66419 0
M  V30 3131 C 300.631 1.50927 -2.74208 0
M  V30 3132 C 301.106 1.99692 -4.12174 0
M  V30 3133 N 302.597 2.06947 -4.144 0
M  V30 3134 C 303.332 2.45871 -5.1801 0
M  V30 3135 N 302.828 2.83862 -6.31977 0
M  V30 3136 N 304.621 2.46092 -5.05366 0
M  V30 3137 H 296.772 -0.0803548 -2.12248 0
M  V30 3138 H 299.035 0.0266913 -0.947624 0
M  V30 3139 H 298.741 0.688925 -3.44887 0
M  V30 3140 H 298.615 2.36347 -2.93973 0
M  V30 3141 H 301.002 2.20561 -1.96053 0
M  V30 3142 H 301.083 0.523627 -2.50383 0
M  V30 3143 H 300.727 1.30649 -4.90809 0
M  V30 3144 H 300.657 2.99146 -4.33381 0
M  V30 3145 H 303.148 1.80232 -3.32152 0
M  V30 3146 H 303.461 3.12405 -7.0684 0
M  V30 3147 H 301.806 2.8159 -6.35399 0
M  V30 3148 H 304.997 2.1581 -4.15384 0
M  V30 3149 H 305.17 2.76102 -5.86235 0
M  V30 3150 N 298.576 1.31904 0.862503 0
M  V30 3151 C 299.822 1.22197 1.61851 0
M  V30 3152 C 300.155 -0.217641 1.92977 0
M  V30 3153 O 299.43 -1.15264 1.56666 0
M  V30 3154 C 299.713 2.07378 2.94391 0
M  V30 3155 C 299.566 3.59678 2.70096 0
M  V30 3156 C 300.885 1.92891 3.95577 0
M  V30 3157 H 298.004 0.445255 0.587296 0
M  V30 3158 H 300.646 1.6177 0.99651 0
M  V30 3159 H 298.796 1.73758 3.47477 0
M  V30 3160 H 300.468 4.03472 2.23625 0
M  V30 3161 H 298.711 3.82735 2.04197 0
M  V30 3162 H 299.382 4.14595 3.64438 0
M  V30 3163 H 301.858 2.22327 3.51724 0
M  V30 3164 H 300.734 2.54781 4.86187 0
M  V30 3165 H 300.995 0.894315 4.3296 0
M  V30 3166 N 300.054 -1.07777 1.14986 0
M  V30 3167 C 301.303 -1.79669 0.916617 0
M  V30 3168 C 301.616 -1.87474 -0.557917 0
M  V30 3169 O 302.822 -2.55845 -0.908617 0
M  V30 3170 C 301.278 -3.22848 1.59051 0
M  V30 3171 C 300.886 -3.23257 3.10176 0
M  V30 3172 C 302.63 -3.99379 1.43864 0
M  V30 3173 C 300.537 -4.61063 3.70372 0
M  V30 3174 H 299.467 -0.673349 0.33929 0
M  V30 3175 H 302.118 -1.21003 1.37951 0
M  V30 3176 H 300.5 -3.8168 1.0553 0
M  V30 3177 H 301.674 -2.74095 3.70417 0
M  V30 3178 H 299.989 -2.60222 3.25074 0
M  V30 3179 H 302.586 -5.0122 1.86232 0
M  V30 3180 H 302.929 -4.14511 0.385564 0
M  V30 3181 H 303.462 -3.47032 1.94457 0
M  V30 3182 H 300.201 -4.51135 4.7556 0
M  V30 3183 H 299.721 -5.1048 3.14913 0
M  V30 3184 H 301.4 -5.30034 3.71043 0
M  V30 3185 N 301.532 -0.945985 -1.26051 0
M  V30 3186 C 302.78 -0.594941 -1.93145 0
M  V30 3187 C 303.101 0.86953 -1.7454 0
M  V30 3188 O 302.371 1.61838 -1.10387 0
M  V30 3189 H 300.951 -0.217044 -0.714773 0
M  V30 3190 H 303.613 -1.20235 -1.53393 0
M  V30 3191 H 302.709 -0.816835 -3.01221 0
M  V30 3192 N 303.011 1.40521 -0.713556 0
M  V30 3193 C 304.236 2.05759 -0.26035 0
M  V30 3194 C 304.661 1.53403 1.08854 0
M  V30 3195 O 304.019 0.668535 1.68524 0
M  V30 3196 C 304.067 3.59745 -0.248122 0
M  V30 3197 O 303.171 4.05123 0.77131 0
M  V30 3198 H 302.512 0.652564 -0.122703 0
M  V30 3199 H 305.042 1.79958 -0.973467 0
M  V30 3200 H 305.052 4.07911 -0.0851129 0
M  V30 3201 H 303.727 3.97218 -1.2325 0
M  V30 3202 H 302.304 3.68422 0.57619 0
M  V30 3203 N 304.489 0.459591 1.5075 0
M  V30 3204 C 305.714 -0.0996819 2.0716 0
M  V30 3205 C 306.139 -1.33761 1.32249 0
M  V30 3206 O 305.497 -1.77551 0.366786 0
M  V30 3207 C 305.545 -0.378226 3.58611 0
M  V30 3208 O 304.649 -1.46081 3.85661 0
M  V30 3209 H 303.99 0.00791392 0.663953 0
M  V30 3210 H 306.52 0.647329 1.9409 0
M  V30 3211 H 306.53 -0.622135 4.03229 0
M  V30 3212 H 305.205 0.526439 4.12555 0
M  V30 3213 H 303.782 -1.20511 3.5289 0
M  V30 3214 N 305.967 -1.56429 0.191757 0
M  V30 3215 C 307.195 -2.01867 -0.453586 0
M  V30 3216 C 307.61 -1.07191 -1.5542 0
M  V30 3217 O 306.967 -0.0762108 -1.82341 0
M  V30 3218 C 307.018 -3.47017 -1.013 0
M  V30 3219 O 306.739 -4.38078 0.0437005 0
M  V30 3220 C 308.24 -4.07956 -1.73456 0
M  V30 3221 H 305.46 -0.661211 -0.114199 0
M  V30 3222 H 308.004 -2.02295 0.299483 0
M  V30 3223 H 306.159 -3.47298 -1.71647 0
M  V30 3224 H 306.573 -5.23178 -0.372212 0
M  V30 3225 H 308.047 -5.1138 -2.07833 0
M  V30 3226 H 308.524 -3.51222 -2.63704 0
M  V30 3227 H 309.13 -4.11437 -1.07702 0
M  V30 3228 N 307.445 0.0818655 -1.57387 0
M  V30 3229 C 308.375 1.09885 -2.06028 0
M  V30 3230 C 309.356 1.4098 -0.951774 0
M  V30 3231 O 310.541 1.50781 -1.22387 0
M  V30 3232 C 307.671 2.4151 -2.4958 0
M  V30 3233 C 306.625 2.24792 -3.64215 0
M  V30 3234 C 305.951 3.61712 -3.93787 0
M  V30 3235 C 307.251 1.67749 -4.94629 0
M  V30 3236 H 308.945 0.694128 -2.91243 0
M  V30 3237 H 306.491 0.332448 -1.4011 0
M  V30 3238 H 308.444 3.12939 -2.82219 0
M  V30 3239 H 307.168 2.83943 -1.61381 0
M  V30 3240 H 305.827 1.55807 -3.31843 0
M  V30 3241 H 305.475 4.01697 -3.02735 0
M  V30 3242 H 305.175 3.51368 -4.70971 0
M  V30 3243 H 306.699 4.34587 -4.28913 0
M  V30 3244 H 308.113 2.29032 -5.25564 0
M  V30 3245 H 306.51 1.68128 -5.76067 0
M  V30 3246 H 307.58 0.638059 -4.80684 0
M  V30 3247 N 308.923 1.53595 0.353017 0
M  V30 3248 C 309.886 1.80232 1.41594 0
M  V30 3249 C 310.886 0.673081 1.46035 0
M  V30 3250 O 312.076 0.941335 1.46576 0
M  V30 3251 C 309.208 1.93578 2.80607 0
M  V30 3252 H 310.401 2.75174 1.19244 0
M  V30 3253 H 307.954 1.44864 0.586872 0
M  V30 3254 H 308.689 1.00746 3.08254 0
M  V30 3255 H 308.474 2.75724 2.78781 0
M  V30 3256 H 309.964 2.15735 3.57558 0
M  V30 3257 N 310.401 -0.613514 1.45168 0
M  V30 3258 C 311.331 -1.7354 1.56225 0
M  V30 3259 C 312.312 -1.64981 0.41414 0
M  V30 3260 O 313.497 -1.83472 0.636526 0
M  V30 3261 C 310.627 -3.12128 1.52295 0
M  V30 3262 C 309.581 -3.35491 2.65762 0
M  V30 3263 C 308.907 -4.74291 2.46885 0
M  V30 3264 C 310.207 -3.26325 4.0781 0
M  V30 3265 H 311.901 -1.64543 2.50132 0
M  V30 3266 H 309.447 -0.790185 1.20383 0
M  V30 3267 H 311.4 -3.90404 1.58628 0
M  V30 3268 H 310.124 -3.2195 0.549139 0
M  V30 3269 H 308.783 -2.59603 2.58847 0
M  V30 3270 H 308.431 -4.80839 1.47657 0
M  V30 3271 H 308.131 -4.9088 3.22972 0
M  V30 3272 H 309.655 -5.54775 2.55063 0
M  V30 3273 H 311.069 -3.94483 4.16 0
M  V30 3274 H 309.466 -3.54445 4.8424 0
M  V30 3275 H 310.536 -2.23855 4.30136 0
M  V30 3276 N 311.879 -1.3236 -0.855495 0
M  V30 3277 C 313.119 -1.24187 -1.62348 0
M  V30 3278 C 313.483 0.193597 -1.91021 0
M  V30 3279 O 314.684 0.39904 -2.65822 0
M  V30 3280 C 312.955 -2.07661 -2.90881 0
M  V30 3281 S 314.514 -2.16505 -3.81669 0
M  V30 3282 H 311.332 -0.442076 -0.556857 0
M  V30 3283 H 313.934 -1.67198 -1.01317 0
M  V30 3284 H 312.638 -3.11018 -2.67761 0
M  V30 3285 H 312.169 -1.65425 -3.56929 0
M  V30 3286 H 314.184 -1.31394 -4.78487 0
M  V30 3287 N 313.357 1.07166 -1.15556 0
M  V30 3288 C 314.307 2.12649 -0.82247 0
M  V30 3289 C 315.291 1.59725 0.194129 0
M  V30 3290 O 316.483 1.76999 -0.00540402 0
M  V30 3291 C 313.612 3.41847 -0.315572 0
M  V30 3292 C 312.698 4.0162 -1.36244 0
M  V30 3293 N 313.089 4.35625 -2.5703 0
M  V30 3294 C 311.387 4.29114 -1.21562 0
M  V30 3295 C 312.088 4.83017 -3.24144 0
M  V30 3296 N 311.064 4.81906 -2.51531 0
M  V30 3297 H 314.866 2.36776 -1.74111 0
M  V30 3298 H 312.38 1.24622 -1.0413 0
M  V30 3299 H 314.377 4.16859 -0.0585855 0
M  V30 3300 H 313.037 3.19163 0.597105 0
M  V30 3301 H 314.048 4.26253 -2.94158 0
M  V30 3302 H 310.725 4.15919 -0.362988 0
M  V30 3303 H 312.115 5.18605 -4.27198 0
M  V30 3304 N 314.835 0.952656 1.25548 0
M  V30 3305 C 315.765 0.489287 2.28316 0
M  V30 3306 C 316.746 -0.463359 1.63667 0
M  V30 3307 O 317.931 -0.36274 1.90782 0
M  V30 3308 C 315.061 -0.235603 3.465 0
M  V30 3309 C 314.015 0.631593 4.23314 0
M  V30 3310 C 313.341 -0.223923 5.34231 0
M  V30 3311 C 314.641 1.90871 4.86174 0
M  V30 3312 H 316.335 1.34822 2.67326 0
M  V30 3313 H 313.881 0.649728 1.28509 0
M  V30 3314 H 315.834 -0.570882 4.17515 0
M  V30 3315 H 314.558 -1.12877 3.06474 0
M  V30 3316 H 313.217 0.949929 3.54079 0
M  V30 3317 H 312.865 -1.11678 4.90446 0
M  V30 3318 H 312.565 0.35299 5.86539 0
M  V30 3319 H 314.089 -0.554214 6.0808 0
M  V30 3320 H 315.503 1.63997 5.49343 0
M  V30 3321 H 313.9 2.43112 5.4865 0
M  V30 3322 H 314.97 2.61304 4.08471 0
M  V30 3323 N 316.313 -1.40141 0.720998 0
M  V30 3324 C 317.276 -2.29058 0.0805834 0
M  V30 3325 C 318.276 -1.45632 -0.681758 0
M  V30 3326 O 319.466 -1.6648 -0.512856 0
M  V30 3327 C 316.598 -3.28925 -0.895593 0
M  V30 3328 H 317.791 -2.87191 0.863793 0
M  V30 3329 H 315.344 -1.48553 0.485975 0
M  V30 3330 H 316.079 -2.75822 -1.70566 0
M  V30 3331 H 315.864 -3.90519 -0.351766 0
M  V30 3332 H 317.354 -3.95494 -1.34069 0
M  V30 3333 N 317.792 -0.46758 -1.50504 0
M  V30 3334 C 319.017 0.0886943 -2.0721 0
M  V30 3335 C 319.442 1.33057 -1.32956 0
M  V30 3336 O 318.8 1.77354 -0.376197 0
M  V30 3337 C 318.848 0.359202 -3.58806 0
M  V30 3338 O 317.952 1.44034 -3.8643 0
M  V30 3339 H 317.293 -0.0114349 -0.663902 0
M  V30 3340 H 319.823 -0.657613 -1.93744 0
M  V30 3341 H 319.833 0.600742 -4.03553 0
M  V30 3342 H 318.508 -0.548311 -4.1227 0
M  V30 3343 H 317.085 1.18638 -3.53524 0
M  V30 3344 N 319.27 1.56325 -0.20005 0
M  V30 3345 C 320.518 1.97329 0.436547 0
M  V30 3346 C 320.839 1.08826 1.61808 0
M  V30 3347 O 320.109 0.160604 1.95241 0
M  V30 3348 H 318.689 0.728714 0.164272 0
M  V30 3349 H 321.351 1.92761 -0.287937 0
M  V30 3350 H 320.447 3.02264 0.777353 0
M  V30 3351 N 320.748 -0.0735177 1.57428 0
M  V30 3352 C 321.711 -1.07192 2.02589 0
M  V30 3353 C 322.711 -1.31695 0.922661 0
M  V30 3354 O 323.901 -1.27445 1.18758 0
M  V30 3355 C 321.033 -2.41599 2.40506 0
M  V30 3356 H 322.226 -0.682727 2.92025 0
M  V30 3357 H 319.779 -0.319193 1.53006 0
M  V30 3358 H 320.514 -2.85354 1.5409 0
M  V30 3359 H 320.299 -2.25156 3.21009 0
M  V30 3360 H 321.789 -3.13367 2.76027 0
M  V30 3361 N 322.226 -1.5378 -0.344866 0
M  V30 3362 C 323.189 -1.80981 -1.40637 0
M  V30 3363 C 324.189 -0.680816 -1.45676 0
M  V30 3364 O 325.379 -0.949095 -1.46075 0
M  V30 3365 C 322.511 -1.95063 -2.79577 0
M  V30 3366 H 323.704 -2.75803 -1.17783 0
M  V30 3367 H 321.257 -1.45173 -0.579181 0
M  V30 3368 H 321.992 -1.02379 -3.07716 0
M  V30 3369 H 321.777 -2.77198 -2.77315 0
M  V30 3370 H 323.267 -2.17629 -3.56409 0
M  V30 3371 N 323.704 0.605807 -1.45491 0
M  V30 3372 C 324.981 1.36522 -1.40075 0
M  V30 3373 C 325.361 2.10976 -0.0722744 0
M  V30 3374 O 324.709 2.08007 0.945808 0
M  V30 3375 C 324.919 2.31056 -2.61561 0
M  V30 3376 C 326.267 2.93608 -3.06724 0
M  V30 3377 O 327.291 2.41376 -2.61946 0
M  V30 3378 O 326.15 3.88421 -3.84437 0
M  V30 3379 H 323.244 0.612248 -0.555951 0
M  V30 3380 H 325.79 0.628747 -1.57623 0
M  V30 3381 H 324.562 1.75311 -3.49831 0
M  V30 3382 H 324.185 3.12081 -2.46356 0
M  V30 3383 N 325.182 1.32811 0.848464 0
M  V30 3384 C 326.145 1.22194 1.9391 0
M  V30 3385 C 327.145 0.143404 1.60159 0
M  V30 3386 O 328.335 0.394253 1.6968 0
M  V30 3387 C 325.467 0.88067 3.29328 0
M  V30 3388 H 326.66 2.19127 2.04752 0
M  V30 3389 H 324.213 1.16731 1.0394 0
M  V30 3390 H 324.948 -0.0865776 3.24184 0
M  V30 3391 H 324.733 1.66052 3.55203 0
M  V30 3392 H 326.223 0.830871 4.09251 0
M  V30 3393 N 326.66 -1.06551 1.16123 0
M  V30 3394 C 327.89 -1.8274 0.963838 0
M  V30 3395 C 328.298 -1.82712 -0.491228 0
M  V30 3396 O 327.641 -1.24294 -1.35265 0
M  V30 3397 C 327.703 -3.3065 1.41106 0
M  V30 3398 C 327.367 -3.54384 2.88549 0
M  V30 3399 C 328.364 -3.4765 3.86569 0
M  V30 3400 C 326.049 -3.81789 3.26408 0
M  V30 3401 C 328.043 -3.67982 5.2045 0
M  V30 3402 C 325.73 -4.01772 4.60459 0
M  V30 3403 C 326.728 -3.94866 5.57288 0
M  V30 3404 O 326.416 -4.14306 6.88916 0
M  V30 3405 H 326.148 -0.583136 0.341948 0
M  V30 3406 H 328.702 -1.35351 1.54497 0
M  V30 3407 H 326.932 -3.78887 0.773394 0
M  V30 3408 H 328.621 -3.88324 1.1815 0
M  V30 3409 H 329.387 -3.2647 3.58667 0
M  V30 3410 H 325.266 -3.86276 2.51619 0
M  V30 3411 H 328.81 -3.62507 5.96015 0
M  V30 3412 H 324.707 -4.2244 4.88072 0
M  V30 3413 H 325.475 -4.31609 6.95454 0
M  V30 3414 N 328.138 -0.959301 -1.25041 0
M  V30 3415 C 329.368 -0.63303 -1.96663 0
M  V30 3416 C 329.776 0.800031 -1.71453 0
M  V30 3417 O 329.119 1.54736 -0.99008 0
M  V30 3418 C 329.181 -0.817523 -3.50081 0
M  V30 3419 C 328.845 -2.22863 -3.98975 0
M  V30 3420 C 329.842 -3.20569 -4.09306 0
M  V30 3421 C 327.527 -2.55407 -4.32519 0
M  V30 3422 C 329.521 -4.4891 -4.52503 0
M  V30 3423 C 327.208 -3.83976 -4.754 0
M  V30 3424 C 328.206 -4.8054 -4.85356 0
M  V30 3425 O 327.894 -6.06817 -5.27284 0
M  V30 3426 H 327.626 -0.235866 -0.633516 0
M  V30 3427 H 330.18 -1.2874 -1.60047 0
M  V30 3428 H 328.41 -0.105992 -3.86555 0
M  V30 3429 H 330.099 -0.491604 -4.02912 0
M  V30 3430 H 330.865 -2.96753 -3.83618 0
M  V30 3431 H 326.744 -1.8097 -4.23994 0
M  V30 3432 H 330.288 -5.24283 -4.60188 0
M  V30 3433 H 326.185 -4.07596 -5.00535 0
M  V30 3434 H 326.953 -6.10262 -5.45457 0
M  V30 3435 N 329.616 1.39756 -0.72842 0
M  V30 3436 C 330.548 2.29157 -0.0446202 0
M  V30 3437 C 331.561 1.46484 0.710367 0
M  V30 3438 O 332.75 1.69632 0.55562 0
M  V30 3439 C 329.85 3.24987 0.961071 0
M  V30 3440 C 329.023 4.36572 0.268967 0
M  V30 3441 C 328.082 5.12756 1.18184 0
M  V30 3442 O 327.108 5.6534 0.661794 0
M  V30 3443 N 328.31 5.23331 2.51206 0
M  V30 3444 H 331.075 2.88482 -0.812295 0
M  V30 3445 H 328.636 1.51265 -0.577098 0
M  V30 3446 H 330.628 3.72827 1.57423 0
M  V30 3447 H 329.198 2.66739 1.63 0
M  V30 3448 H 328.418 3.90694 -0.524574 0
M  V30 3449 H 329.706 5.08363 -0.210934 0
M  V30 3450 H 329.104 4.82116 2.9594 0
M  V30 3451 H 327.661 5.74634 3.07634 0
M  V30 3452 N 331.094 0.475555 1.50254 0
M  V30 3453 C 332.341 -0.0778919 2.0235 0
M  V30 3454 C 332.669 -1.39319 1.35722 0
M  V30 3455 O 331.924 -1.89888 0.473395 0
M  V30 3456 C 332.223 -0.305114 3.56095 0
M  V30 3457 C 331.889 0.92903 4.41225 0
M  V30 3458 C 330.551 1.26739 4.6421 0
M  V30 3459 C 332.903 1.75054 4.90923 0
M  V30 3460 C 330.231 2.42724 5.34137 0
M  V30 3461 C 332.583 2.9017 5.62125 0
M  V30 3462 C 331.247 3.24416 5.83362 0
M  V30 3463 H 330.517 -0.0285027 0.740452 0
M  V30 3464 H 333.164 0.630543 1.80821 0
M  V30 3465 H 331.469 -1.09584 3.76163 0
M  V30 3466 H 333.166 -0.747377 3.93974 0
M  V30 3467 H 329.756 0.655428 4.23559 0
M  V30 3468 H 333.94 1.50231 4.73016 0
M  V30 3469 H 329.196 2.69525 5.48786 0
M  V30 3470 H 333.37 3.54169 5.99614 0
M  V30 3471 H 330.997 4.14396 6.37323 0
M  V30 3472 N 332.573 -1.56217 0.208337 0
M  V30 3473 C 333.821 -1.97558 -0.426076 0
M  V30 3474 C 334.142 -1.09683 -1.61229 0
M  V30 3475 O 333.412 -0.170956 -1.95153 0
M  V30 3476 H 331.992 -0.729575 -0.160405 0
M  V30 3477 H 334.654 -1.92606 0.298155 0
M  V30 3478 H 333.75 -3.02672 -0.761312 0
M  V30 3479 N 334.051 0.0651679 -1.57465 0
M  V30 3480 C 334.981 1.07693 -2.07182 0
M  V30 3481 C 335.962 1.39962 -0.966673 0
M  V30 3482 O 337.147 1.49475 -1.2398 0
M  V30 3483 C 334.277 2.3885 -2.52127 0
M  V30 3484 C 333.231 2.20917 -3.66579 0
M  V30 3485 C 332.557 3.57515 -3.97601 0
M  V30 3486 C 333.857 1.62493 -4.9638 0
M  V30 3487 H 335.551 0.663199 -2.91962 0
M  V30 3488 H 333.097 0.317569 -1.40455 0
M  V30 3489 H 335.05 3.09928 -2.85522 0
M  V30 3490 H 333.774 2.82215 -1.64384 0
M  V30 3491 H 332.433 1.52279 -3.33477 0
M  V30 3492 H 332.081 3.98463 -3.06979 0
M  V30 3493 H 331.781 3.46353 -4.74672 0
M  V30 3494 H 333.305 4.30013 -4.33499 0
M  V30 3495 H 334.719 2.23445 -5.27963 0
M  V30 3496 H 333.116 1.62009 -5.77818 0
M  V30 3497 H 334.186 0.587041 -4.81333 0
M  V30 3498 N 335.529 1.53961 0.336706 0
M  V30 3499 C 336.479 1.7881 1.41461 0
M  V30 3500 C 337.463 0.643561 1.47469 0
M  V30 3501 O 338.655 0.903166 1.52223 0
M  V30 3502 C 335.784 2.00722 2.78506 0
M  V30 3503 C 334.87 3.2126 2.76862 0
M  V30 3504 N 335.261 4.42588 2.44845 0
M  V30 3505 C 333.559 3.22568 3.08004 0
M  V30 3506 C 334.26 5.2447 2.51607 0
M  V30 3507 N 333.236 4.61344 2.87511 0
M  V30 3508 H 337.038 2.70205 1.15615 0
M  V30 3509 H 334.552 1.52978 0.545112 0
M  V30 3510 H 336.549 2.1666 3.5618 0
M  V30 3511 H 335.209 1.10573 3.05293 0
M  V30 3512 H 336.22 4.69819 2.17922 0
M  V30 3513 H 332.897 2.42409 3.39918 0
M  V30 3514 H 334.287 6.31324 2.29955 0
M  V30 3515 N 337.007 -0.598083 1.45811 0
M  V30 3516 C 338.247 -1.36802 1.5187 0
M  V30 3517 C 338.611 -1.9133 0.160224 0
M  V30 3518 O 339.812 -2.6863 0.0955302 0
M  V30 3519 C 338.083 -2.47835 2.57513 0
M  V30 3520 S 339.642 -3.35458 2.82866 0
M  V30 3521 H 336.46 -0.466278 0.536755 0
M  V30 3522 H 339.062 -0.689152 1.82951 0
M  V30 3523 H 337.766 -2.06141 3.54872 0
M  V30 3524 H 337.297 -3.20512 2.28114 0
M  V30 3525 H 339.312 -4.46251 2.16967 0
M  V30 3526 N 338.485 -1.33259 -0.841409 0
M  V30 3527 C 339.731 -1.25766 -1.59857 0
M  V30 3528 C 340.086 0.175602 -1.91597 0
M  V30 3529 O 339.379 1.117 -1.55672 0
M  V30 3530 C 339.573 -2.06381 -2.9179 0
M  V30 3531 C 339.402 -3.57401 -2.72937 0
M  V30 3532 C 338.172 -4.26718 -2.70628 0
M  V30 3533 C 340.37 -4.51786 -2.45753 0
M  V30 3534 N 338.352 -5.63705 -2.43125 0
M  V30 3535 C 339.723 -5.76643 -2.27777 0
M  V30 3536 C 341.778 -4.40898 -2.31329 0
M  V30 3537 C 340.481 -6.91842 -1.96841 0
M  V30 3538 C 342.507 -5.55911 -2.01786 0
M  V30 3539 C 341.869 -6.79776 -1.8462 0
M  V30 3540 H 337.968 -0.515406 -0.588117 0
M  V30 3541 H 340.552 -1.67772 -0.987955 0
M  V30 3542 H 338.723 -1.667 -3.50807 0
M  V30 3543 H 340.455 -1.90678 -3.56965 0
M  V30 3544 H 337.21 -3.78968 -2.84043 0
M  V30 3545 H 337.634 -6.35911 -2.32265 0
M  V30 3546 H 342.276 -3.45772 -2.43314 0
M  V30 3547 H 339.994 -7.86968 -1.83594 0
M  V30 3548 H 343.58 -5.49421 -1.91384 0
M  V30 3549 H 342.46 -7.67266 -1.62088 0
M  V30 3550 N 339.963 1.05934 -1.16686 0
M  V30 3551 C 341.24 1.75643 -0.860747 0
M  V30 3552 C 341.62 2.01144 0.640641 0
M  V30 3553 O 340.968 1.64147 1.58959 0
M  V30 3554 C 341.178 3.05493 -1.68745 0
M  V30 3555 C 342.526 3.79581 -1.90271 0
M  V30 3556 O 343.55 3.15344 -1.65641 0
M  V30 3557 O 342.409 4.9499 -2.31618 0
M  V30 3558 H 339.503 0.763426 -0.317977 0
M  V30 3559 H 342.049 1.1217 -1.27342 0
M  V30 3560 H 340.821 2.8264 -2.70611 0
M  V30 3561 H 340.444 3.76702 -1.27206 0
M  V30 3562 N 341.441 0.965919 1.2453 0
M  V30 3563 C 342.371 0.513476 2.27784 0
M  V30 3564 C 343.352 -0.445974 1.6415 0
M  V30 3565 O 344.537 -0.342485 1.91156 0
M  V30 3566 C 341.667 -0.198839 3.4673 0
M  V30 3567 C 340.621 0.676456 4.2262 0
M  V30 3568 C 339.947 -0.167248 5.34438 0
M  V30 3569 C 341.247 1.96017 4.84123 0
M  V30 3570 H 342.941 1.3765 2.65881 0
M  V30 3571 H 340.487 0.663321 1.27813 0
M  V30 3572 H 342.44 -0.526567 4.18097 0
M  V30 3573 H 341.164 -1.0962 3.07654 0
M  V30 3574 H 339.823 0.98743 3.53052 0
M  V30 3575 H 339.471 -1.0647 4.91603 0
M  V30 3576 H 339.171 0.415181 5.86131 0
M  V30 3577 H 340.695 -0.489688 6.08633 0
M  V30 3578 H 342.109 1.69814 5.47573 0
M  V30 3579 H 340.506 2.48918 5.4604 0
M  V30 3580 H 341.576 2.65622 4.05676 0
M  V30 3581 N 342.919 -1.39368 0.735821 0
M  V30 3582 C 343.882 -2.2896 0.104874 0
M  V30 3583 C 344.882 -1.46347 -0.666274 0
M  V30 3584 O 346.072 -1.67014 -0.49517 0
M  V30 3585 C 343.204 -3.29857 -0.860656 0
M  V30 3586 H 344.397 -2.86259 0.894205 0
M  V30 3587 H 341.95 -1.48029 0.501704 0
M  V30 3588 H 342.685 -2.77615 -1.67631 0
M  V30 3589 H 342.47 -3.9087 -0.310327 0
M  V30 3590 H 343.96 -3.96893 -1.29867 0
M  V30 3591 N 344.397 -0.483516 -1.5 0
M  V30 3592 C 345.36 0.292965 -2.2732 0
M  V30 3593 C 346.36 0.909499 -1.32608 0
M  V30 3594 O 347.55 0.776745 -1.55924 0
M  V30 3595 C 344.682 1.41854 -3.09984 0
M  V30 3596 H 345.875 -0.385289 -2.97415 0
M  V30 3597 H 343.428 -0.237942 -1.54478 0
M  V30 3598 H 344.163 2.13148 -2.44414 0
M  V30 3599 H 343.948 0.982114 -3.79601 0
M  V30 3600 H 345.438 1.96597 -3.68429 0
M  V30 3601 N 345.875 1.56104 -0.216619 0
M  V30 3602 C 346.838 2.18819 0.681962 0
M  V30 3603 C 347.838 1.14866 1.12528 0
M  V30 3604 O 349.028 1.40128 1.03488 0
M  V30 3605 C 346.16 2.80756 1.93362 0
M  V30 3606 H 347.353 2.99595 0.135254 0
M  V30 3607 H 344.906 1.56265 0.0330003 0
M  V30 3608 H 345.641 2.03837 2.52232 0
M  V30 3609 H 345.426 3.56876 1.62426 0
M  V30 3610 H 346.916 3.28844 2.57393 0
M  V30 3611 N 347.353 -0.0568162 1.57498 0
M  V30 3612 C 348.581 -0.765626 1.92213 0
M  V30 3613 C 348.996 -1.70353 0.813961 0
M  V30 3614 O 348.353 -1.81268 -0.211701 0
M  V30 3615 C 348.404 -1.5465 3.2675 0
M  V30 3616 O 348.125 -0.646278 4.33307 0
M  V30 3617 C 349.626 -2.35497 3.75574 0
M  V30 3618 H 346.846 -0.216835 0.634999 0
M  V30 3619 H 349.39 -0.0226146 2.04487 0
M  V30 3620 H 347.545 -2.24165 3.15957 0
M  V30 3621 H 347.959 -1.19093 5.108 0
M  V30 3622 H 349.433 -2.85722 4.72299 0
M  V30 3623 H 349.91 -3.15692 3.05344 0
M  V30 3624 H 350.516 -1.7111 3.8936 0
M  V30 3625 N 348.832 -1.54138 -0.328536 0
M  V30 3626 C 350.078 -1.7236 -1.06865 0
M  V30 3627 C 350.411 -0.493231 -1.87832 0
M  V30 3628 O 349.686 0.5098 -1.877 0
M  V30 3629 C 349.969 -2.99621 -1.99747 0
M  V30 3630 C 349.822 -4.32899 -1.22143 0
M  V30 3631 C 351.141 -3.22615 -2.99345 0
M  V30 3632 H 348.26 -0.627151 -0.387105 0
M  V30 3633 H 350.902 -1.86827 -0.345767 0
M  V30 3634 H 349.052 -2.87418 -2.61387 0
M  V30 3635 H 350.724 -4.56978 -0.630017 0
M  V30 3636 H 348.967 -4.30628 -0.523628 0
M  V30 3637 H 349.638 -5.18154 -1.90318 0
M  V30 3638 H 352.114 -3.34248 -2.47826 0
M  V30 3639 H 350.99 -4.13027 -3.61524 0
M  V30 3640 H 351.251 -2.3961 -3.71536 0
M  V30 3641 N 350.31 0.590341 -1.46126 0
M  V30 3642 C 351.559 1.34499 -1.50309 0
M  V30 3643 C 351.872 1.94977 -0.156021 0
M  V30 3644 O 353.078 2.71395 -0.0756037 0
M  V30 3645 C 351.534 2.43723 -2.64815 0
M  V30 3646 C 351.142 1.89582 -4.0591 0
M  V30 3647 C 352.886 3.20579 -2.78262 0
M  V30 3648 C 350.793 2.9639 -5.11769 0
M  V30 3649 H 349.723 0.505593 -0.559368 0
M  V30 3650 H 352.374 0.630848 -1.72315 0
M  V30 3651 H 350.756 3.17902 -2.36124 0
M  V30 3652 H 351.93 1.21997 -4.44357 0
M  V30 3653 H 350.245 1.25418 -3.97063 0
M  V30 3654 H 352.842 4.00276 -3.54519 0
M  V30 3655 H 353.185 3.72684 -1.85505 0
M  V30 3656 H 353.718 2.53505 -3.06562 0
M  V30 3657 H 350.457 2.49181 -6.06291 0
M  V30 3658 H 349.977 3.62487 -4.77873 0
M  V30 3659 H 351.656 3.60474 -5.37278 0
M  V30 3660 N 351.788 1.33704 0.83433 0
M  V30 3661 C 353.037 1.24763 1.58484 0
M  V30 3662 C 353.35 -0.183775 1.94735 0
M  V30 3663 O 354.556 -0.395234 2.68608 0
M  V30 3664 C 353.012 2.18638 2.85876 0
M  V30 3665 C 352.62 3.66974 2.56971 0
M  V30 3666 C 354.364 2.18581 3.63899 0
M  V30 3667 C 352.271 4.5275 3.80488 0
M  V30 3668 H 351.201 0.463425 0.594772 0
M  V30 3669 H 353.852 1.58797 0.919551 0
M  V30 3670 H 352.234 1.77542 3.5397 0
M  V30 3671 H 353.408 4.16538 1.9706 0
M  V30 3672 H 351.723 3.69366 1.92244 0
M  V30 3673 H 354.32 2.79894 4.55591 0
M  V30 3674 H 354.663 1.18207 3.99165 0
M  V30 3675 H 355.196 2.58062 3.02735 0
M  V30 3676 H 351.935 5.54017 3.5035 0
M  V30 3677 H 351.455 4.07927 4.39722 0
M  V30 3678 H 353.134 4.66784 4.4802 0
M  V30 3679 N 353.266 -1.05314 1.17247 0
M  V30 3680 C 354.682 -1.30452 0.919473 0
M  V30 3681 C 354.882 -1.9703 -0.42209 0
M  V30 3682 O 353.938 -2.24311 -1.15935 0
M  V30 3683 C 355.251 -2.17551 2.07586 0
M  V30 3684 C 356.799 -2.30937 2.11275 0
M  V30 3685 C 357.274 -3.21396 3.26296 0
M  V30 3686 N 358.765 -3.28981 3.26076 0
M  V30 3687 C 359.5 -3.99095 4.11716 0
M  V30 3688 N 358.996 -4.71648 5.07465 0
M  V30 3689 N 360.789 -3.95247 3.9967 0
M  V30 3690 H 352.94 -0.604988 2.03602 0
M  V30 3691 H 355.203 -0.329368 0.888944 0
M  V30 3692 H 354.909 -1.75921 3.0454 0
M  V30 3693 H 354.783 -3.18182 2.02584 0
M  V30 3694 H 357.17 -2.71809 1.14907 0
M  V30 3695 H 357.251 -1.2994 2.20339 0
M  V30 3696 H 356.895 -2.81238 4.22927 0
M  V30 3697 H 356.825 -4.22395 3.14467 0
M  V30 3698 H 359.316 -2.77286 2.5675 0
M  V30 3699 H 359.629 -5.22705 5.6921 0
M  V30 3700 H 357.974 -4.70594 5.11435 0
M  V30 3701 H 361.165 -3.37691 3.24164 0
M  V30 3702 H 361.338 -4.4962 4.66632 0
M  V30 3703 N 354.744 -0.972509 -1.24016 0
M  V30 3704 C 355.654 -0.5143 -2.28893 0
M  V30 3705 C 356.67 0.427078 -1.68677 0
M  V30 3706 O 357.846 0.298939 -1.99169 0
M  V30 3707 C 354.911 0.183598 -3.46214 0
M  V30 3708 C 353.972 -0.798202 -4.21814 0
M  V30 3709 C 353.205 -0.133514 -5.33533 0
M  V30 3710 O 353.428 1.07714 -5.60137 0
M  V30 3711 O 352.362 -0.828103 -5.96176 0
M  V30 3712 H 356.188 -1.38629 -2.70214 0
M  V30 3713 H 353.773 -0.739769 -1.29799 0
M  V30 3714 H 355.655 0.575433 -4.17453 0
M  V30 3715 H 354.33 1.03048 -3.0686 0
M  V30 3716 H 353.237 -1.24059 -3.52931 0
M  V30 3717 H 354.57 -1.61364 -4.64997 0
M  V30 3718 N 356.222 1.38976 -0.743202 0
M  V30 3719 C 357.185 2.28901 -0.117014 0
M  V30 3720 C 358.185 1.46698 0.658503 0
M  V30 3721 O 359.375 1.67274 0.486305 0
M  V30 3722 C 356.507 3.30309 0.84315 0
M  V30 3723 H 357.7 2.8578 -0.909373 0
M  V30 3724 H 355.253 1.47761 -0.509547 0
M  V30 3725 H 355.988 2.785 1.66157 0
M  V30 3726 H 355.773 3.91029 0.289594 0
M  V30 3727 H 357.263 3.97577 1.2776 0
M  V30 3728 N 357.7 0.491464 1.49741 0
M  V30 3729 C 358.948 -0.0563141 2.02022 0
M  V30 3730 C 359.269 -1.38363 1.37407 0
M  V30 3731 O 358.539 -1.88702 0.526166 0
M  V30 3732 H 357.119 -0.0238014 0.746621 0
M  V30 3733 H 359.781 0.646533 1.83864 0
M  V30 3734 H 358.877 -0.192967 3.11503 0
M  V30 3735 N 359.178 -1.55987 0.224894 0
M  V30 3736 C 360.426 -1.97998 -0.405099 0
M  V30 3737 C 360.747 -1.11387 -1.60056 0
M  V30 3738 O 360.017 -0.191645 -1.9496 0
M  V30 3739 H 358.597 -0.731235 -0.152658 0
M  V30 3740 H 361.259 -1.92279 0.318567 0
M  V30 3741 H 360.355 -3.03463 -0.729167 0
M  V30 3742 N 360.656 0.0484629 -1.57525 0
M  V30 3743 C 361.905 0.742065 -1.87553 0
M  V30 3744 C 362.218 1.77545 -0.820802 0
M  V30 3745 O 363.424 2.52027 -1.00967 0
M  V30 3746 C 361.88 1.37081 -3.32771 0
M  V30 3747 C 361.488 0.374786 -4.4643 0
M  V30 3748 C 363.232 2.04542 -3.71972 0
M  V30 3749 C 361.139 1.01077 -5.82698 0
M  V30 3750 H 360.069 0.280903 -0.699721 0
M  V30 3751 H 362.72 -0.00411877 -1.835 0
M  V30 3752 H 361.102 2.16605 -3.31509 0
M  V30 3753 H 362.276 -0.392331 -4.59127 0
M  V30 3754 H 360.591 -0.196653 -4.15935 0
M  V30 3755 H 363.188 2.52943 -4.71088 0
M  V30 3756 H 363.531 2.85515 -3.02964 0
M  V30 3757 H 364.064 1.31819 -3.75325 0
M  V30 3758 H 360.803 0.240878 -6.55057 0
M  V30 3759 H 360.323 1.74819 -5.73758 0
M  V30 3760 H 362.002 1.52383 -6.28799 0
M  V30 3761 N 362.134 1.5431 0.320358 0
M  V30 3762 C 363.38 1.72924 1.05949 0
M  V30 3763 C 363.713 0.503185 1.87568 0
M  V30 3764 O 362.988 -0.499839 1.87968 0
M  V30 3765 C 363.271 3.00676 1.98156 0
M  V30 3766 C 363.124 4.3354 1.19845 0
M  V30 3767 C 364.443 3.24198 2.9763 0
M  V30 3768 H 361.562 0.629195 0.383774 0
M  V30 3769 H 364.204 1.87008 0.335854 0
M  V30 3770 H 362.354 2.888 2.59859 0
M  V30 3771 H 364.026 4.57305 0.605773 0
M  V30 3772 H 362.269 4.309 0.500784 0
M  V30 3773 H 362.94 5.19156 1.87567 0
M  V30 3774 H 365.416 3.35557 2.4605 0
M  V30 3775 H 364.292 4.14938 3.59329 0
M  V30 3776 H 364.553 2.41577 3.7026 0
M  V30 3777 N 363.613 -0.582584 1.46437 0
M  V30 3778 C 364.862 -1.337 1.5102 0
M  V30 3779 C 365.175 -1.94891 0.166359 0
M  V30 3780 O 366.381 -2.71351 0.0899954 0
M  V30 3781 C 364.837 -2.42315 2.66104 0
M  V30 3782 C 364.445 -1.87427 4.06909 0
M  V30 3783 C 366.189 -3.19099 2.79958 0
M  V30 3784 C 364.096 -2.93672 5.13333 0
M  V30 3785 H 363.026 -0.502619 0.562041 0
M  V30 3786 H 365.677 -0.621701 1.72647 0
M  V30 3787 H 364.059 -3.16645 2.37807 0
M  V30 3788 H 365.233 -1.19639 4.44998 0
M  V30 3789 H 363.548 -1.2331 3.97723 0
M  V30 3790 H 366.145 -3.9839 3.56636 0
M  V30 3791 H 366.488 -3.71695 1.87479 0
M  V30 3792 H 367.021 -2.51875 3.07902 0
M  V30 3793 H 363.76 -2.45962 6.07604 0
M  V30 3794 H 363.28 -3.59948 4.79789 0
M  V30 3795 H 364.959 -3.5762 5.39182 0
M  V30 3796 N 365.091 -1.34144 -0.827227 0
M  V30 3797 C 366.368 -1.16844 -1.56865 0
M  V30 3798 C 366.748 0.260654 -2.09485 0
M  V30 3799 O 366.096 1.26138 -1.9053 0
M  V30 3800 C 366.306 -2.21939 -2.6934 0
M  V30 3801 C 367.654 -2.56695 -3.3822 0
M  V30 3802 O 368.678 -2.20695 -2.79593 0
M  V30 3803 O 367.537 -3.18518 -4.44082 0
M  V30 3804 H 364.631 -0.452669 -0.692112 0
M  V30 3805 H 367.177 -1.45763 -0.868973 0
M  V30 3806 H 365.949 -3.17882 -2.28182 0
M  V30 3807 H 365.572 -1.94172 -3.46962 0
M  V30 3808 N 366.569 1.04691 -1.17803 0
M  V30 3809 C 367.797 1.81446 -0.99423 0
M  V30 3810 C 368.212 1.83174 0.457459 0
M  V30 3811 O 367.569 1.26265 1.31771 0
M  V30 3812 C 367.62 3.27334 -1.5341 0
M  V30 3813 O 367.341 3.25798 -2.92895 0
M  V30 3814 C 368.842 4.20759 -1.39559 0
M  V30 3815 H 366.062 0.571599 -0.351447 0
M  V30 3816 H 368.606 1.31982 -1.56208 0
M  V30 3817 H 366.761 3.74052 -1.00815 0
M  V30 3818 H 367.175 4.17144 -3.17949 0
M  V30 3819 H 368.649 5.21084 -1.82141 0
M  V30 3820 H 369.126 4.37856 -0.343394 0
M  V30 3821 H 369.732 3.79901 -1.91195 0
M  V30 3822 N 368.047 0.979072 1.23499 0
M  V30 3823 C 369.272 0.664845 1.96455 0
M  V30 3824 C 369.697 -0.761287 1.72006 0
M  V30 3825 O 369.055 -1.51837 0.990713 0
M  V30 3826 C 369.103 0.959479 3.47601 0
M  V30 3827 O 368.207 0.0508168 4.12369 0
M  V30 3828 H 367.548 0.250185 0.615064 0
M  V30 3829 H 370.078 1.31231 1.5697 0
M  V30 3830 H 370.088 0.895642 3.98048 0
M  V30 3831 H 368.763 1.99876 3.64723 0
M  V30 3832 H 367.34 0.16895 3.72517 0
M  V30 3833 N 369.525 -1.3858 0.750561 0
M  V30 3834 C 370.773 -1.99789 0.30477 0
M  V30 3835 C 371.094 -1.59874 -1.11649 0
M  V30 3836 O 370.364 -0.85417 -1.76297 0
M  V30 3837 H 368.944 -0.738902 0.109694 0
M  V30 3838 H 371.606 -1.69391 0.963983 0
M  V30 3839 H 370.702 -3.09952 0.365499 0
M  V30 3840 N 371.003 -0.499398 -1.49478 0
M  V30 3841 C 372.251 0.0455996 -2.02049 0
M  V30 3842 C 372.572 1.37633 -1.38138 0
M  V30 3843 O 371.842 1.8842 -0.536166 0
M  V30 3844 H 370.422 0.0198416 -0.746736 0
M  V30 3845 H 373.084 -0.656274 -1.83519 0
M  V30 3846 H 372.18 0.176445 -3.11601 0
M  V30 3847 N 372.481 1.55866 -0.233164 0
M  V30 3848 C 373.892 1.847 0.272554 0
M  V30 3849 C 374.243 1.15477 1.58617 0
M  V30 3850 O 373.368 0.42841 2.12117 0
M  V30 3851 C 373.963 3.35071 0.501299 0
M  V30 3852 C 372.522 3.6418 0.951304 0
M  V30 3853 C 371.669 2.77292 0.0208209 0
M  V30 3854 H 374.62 1.52005 -0.456074 0
M  V30 3855 H 374.641 3.55906 1.34577 0
M  V30 3856 H 374.153 3.85424 -0.454936 0
M  V30 3857 H 372.254 3.19293 1.92049 0
M  V30 3858 H 372.367 4.72071 0.817675 0
M  V30 3859 H 370.731 2.49131 0.529723 0
M  V30 3860 H 371.514 3.30448 -0.93054 0
M  V30 3861 N 373.959 -0.0401083 1.57549 0
M  V30 3862 C 374.889 -1.04384 2.08869 0
M  V30 3863 C 375.87 -1.38407 0.988817 0
M  V30 3864 O 377.055 -1.47483 1.26342 0
M  V30 3865 C 374.185 -2.34808 2.55895 0
M  V30 3866 C 373.139 -2.15057 3.70047 0
M  V30 3867 C 372.465 -3.51145 4.03239 0
M  V30 3868 C 373.765 -1.54576 4.98902 0
M  V30 3869 H 375.459 -0.616666 2.92981 0
M  V30 3870 H 373.005 -0.295184 1.40942 0
M  V30 3871 H 374.958 -3.05346 2.90417 0
M  V30 3872 H 373.682 -2.79565 1.68853 0
M  V30 3873 H 372.341 -1.46954 3.35857 0
M  V30 3874 H 371.989 -3.93529 3.13279 0
M  V30 3875 H 371.689 -3.38758 4.80122 0
M  V30 3876 H 373.213 -4.23062 4.40285 0
M  V30 3877 H 374.627 -2.15017 5.31451 0
M  V30 3878 H 373.024 -1.52796 5.80322 0
M  V30 3879 H 374.094 -0.51039 4.82206 0
M  V30 3880 N 375.437 -1.54477 -0.31217 0
M  V30 3881 C 376.714 -1.63891 -1.06767 0
M  V30 3882 C 377.094 -0.480028 -2.0557 0
M  V30 3883 O 376.442 0.524487 -2.22399 0
M  V30 3884 C 376.652 -3.01402 -1.75948 0
M  V30 3885 C 378 -3.57838 -2.28554 0
M  V30 3886 O 379.024 -3.03782 -1.85998 0
M  V30 3887 O 377.883 -4.52462 -3.06497 0
M  V30 3888 H 374.977 -0.664125 -0.492816 0
M  V30 3889 H 377.523 -1.66823 -0.311149 0
M  V30 3890 H 376.295 -3.77187 -1.04144 0
M  V30 3891 H 375.918 -3.02199 -2.58383 0
M  V30 3892 N 376.915 0.57481 -1.46744 0
M  V30 3893 C 377.845 1.69337 -1.60771 0
M  V30 3894 C 378.826 1.63825 -0.457736 0
M  V30 3895 O 380.011 1.8172 -0.684947 0
M  V30 3896 C 377.141 3.0798 -1.60517 0
M  V30 3897 C 376.095 3.28327 -2.74564 0
M  V30 3898 C 375.421 4.67578 -2.59373 0
M  V30 3899 C 376.721 3.15398 -4.16319 0
M  V30 3900 H 378.415 1.57853 -2.54407 0
M  V30 3901 H 375.961 0.75799 -1.22436 0
M  V30 3902 H 377.914 3.86061 -1.68923 0
M  V30 3903 H 376.638 3.20381 -0.634305 0
M  V30 3904 H 375.297 2.52649 -2.65639 0
M  V30 3905 H 374.945 4.76755 -1.60353 0
M  V30 3906 H 374.645 4.82144 -3.35873 0
M  V30 3907 H 376.169 5.47817 -2.69682 0
M  V30 3908 H 377.583 3.83315 -4.26313 0
M  V30 3909 H 375.98 3.41482 -4.93468 0
M  V30 3910 H 377.05 2.12372 -4.3592 0
M  V30 3911 N 378.394 1.34581 0.820102 0
M  V30 3912 C 379.327 1.20735 1.93644 0
M  V30 3913 C 380.305 0.0983343 1.62302 0
M  V30 3914 O 381.489 0.263997 1.86642 0
M  V30 3915 C 378.616 0.856037 3.27704 0
M  V30 3916 C 377.662 1.97521 3.78005 0
M  V30 3917 S 378.495 3.58906 3.97425 0
M  V30 3918 C 379.651 3.25822 5.34407 0
M  V30 3919 H 379.884 2.15231 2.05093 0
M  V30 3920 H 377.417 1.1964 0.97599 0
M  V30 3921 H 379.375 0.660133 4.05157 0
M  V30 3922 H 378.036 -0.0706253 3.14021 0
M  V30 3923 H 377.229 1.68321 4.75062 0
M  V30 3924 H 376.831 2.12875 3.07507 0
M  V30 3925 H 379.123 2.77812 6.17922 0
M  V30 3926 H 380.066 4.22029 5.68592 0
M  V30 3927 H 380.474 2.61932 5.00052 0
M  V30 3928 N 379.872 -1.04064 1.18357 0
M  V30 3929 C 380.835 -2.10243 0.912707 0
M  V30 3930 C 381.835 -1.60477 -0.101928 0
M  V30 3931 O 383.025 -1.73703 0.131517 0
M  V30 3932 C 380.157 -3.38893 0.369387 0
M  V30 3933 H 381.35 -2.35706 1.85426 0
M  V30 3934 H 378.903 -1.20489 0.995594 0
M  V30 3935 H 379.638 -3.19094 -0.578776 0
M  V30 3936 H 379.423 -3.76331 1.1008 0
M  V30 3937 H 380.913 -4.17128 0.198575 0
M  V30 3938 N 381.35 -0.985608 -1.22978 0
M  V30 3939 C 382.59 -0.665487 -1.93263 0
M  V30 3940 C 382.954 0.78706 -1.75127 0
M  V30 3941 O 384.155 1.21826 -2.39608 0
M  V30 3942 C 382.426 -1.0515 -3.41582 0
M  V30 3943 S 383.985 -0.848637 -4.30516 0
M  V30 3944 H 380.803 -0.24355 -0.667985 0
M  V30 3945 H 383.405 -1.26635 -1.48942 0
M  V30 3946 H 382.109 -2.10517 -3.52293 0
M  V30 3947 H 381.64 -0.442134 -3.90908 0
M  V30 3948 H 383.655 0.264717 -4.95493 0
M  V30 3949 N 382.828 1.3818 -0.7579 0
M  V30 3950 C 384.244 1.5353 -0.435972 0
M  V30 3951 C 384.444 1.71961 1.05032 0
M  V30 3952 O 383.5 1.73307 1.83633 0
M  V30 3953 C 384.813 2.73989 -1.23898 0
M  V30 3954 C 386.361 2.87841 -1.22949 0
M  V30 3955 C 386.836 4.11266 -2.01554 0
M  V30 3956 N 388.327 4.18352 -1.98837 0
M  V30 3957 C 389.062 5.12856 -2.5645 0
M  V30 3958 N 388.558 6.13005 -3.22794 0
M  V30 3959 N 390.351 5.05238 -2.46356 0
M  V30 3960 H 382.502 1.24467 -1.7211 0
M  V30 3961 H 384.765 0.604982 -0.729864 0
M  V30 3962 H 384.471 2.66789 -2.29165 0
M  V30 3963 H 384.345 3.67294 -0.858764 0
M  V30 3964 H 386.732 2.9452 -0.184854 0
M  V30 3965 H 386.813 1.95534 -1.64924 0
M  V30 3966 H 386.457 4.05349 -3.06031 0
M  V30 3967 H 386.387 5.02661 -1.5697 0
M  V30 3968 H 388.878 3.46628 -1.50524 0
M  V30 3969 H 389.191 6.81619 -3.64165 0
M  V30 3970 H 387.536 6.13325 -3.2689 0
M  V30 3971 H 390.727 4.25938 -1.9415 0
M  V30 3972 H 390.9 5.78707 -2.91552 0
M  V30 3973 N 384.306 0.507319 1.49211 0
M  V30 3974 C 385.552 -0.0350047 2.0277 0
M  V30 3975 C 385.885 -1.3606 1.38569 0
M  V30 3976 O 385.16 -1.87321 0.523542 0
M  V30 3977 C 385.443 -0.180916 3.59645 0
M  V30 3978 C 385.296 1.16825 4.34364 0
M  V30 3979 C 386.615 -0.918558 4.30407 0
M  V30 3980 H 383.734 -0.0112473 0.736914 0
M  V30 3981 H 386.376 0.659956 1.7817 0
M  V30 3982 H 384.526 -0.772826 3.80736 0
M  V30 3983 H 386.198 1.79952 4.24753 0
M  V30 3984 H 384.441 1.75594 3.96673 0
M  V30 3985 H 385.112 1.01939 5.42506 0
M  V30 3986 H 387.588 -0.41649 4.1401 0
M  V30 3987 H 386.464 -0.989505 5.39907 0
M  V30 3988 H 386.725 -1.96373 3.96093 0
M  V30 3989 N 385.784 -1.5574 0.241426 0
M  V30 3990 C 387.03 -1.99104 -0.385406 0
M  V30 3991 C 387.363 -1.1293 -1.57988 0
M  V30 3992 O 386.638 -0.191449 -1.93555 0
M  V30 3993 C 386.921 -3.51087 -0.800616 0
M  V30 3994 C 386.774 -4.48028 0.398874 0
M  V30 3995 C 388.093 -4.08015 -1.64959 0
M  V30 3996 H 385.212 -0.723848 -0.138614 0
M  V30 3997 H 387.854 -1.86903 0.341642 0
M  V30 3998 H 386.004 -3.61615 -1.4201 0
M  V30 3999 H 387.676 -4.49487 1.03726 0
M  V30 4000 H 385.919 -4.21077 1.04293 0
M  V30 4001 H 386.59 -5.51962 0.0651056 0
M  V30 4002 H 389.066 -4.00555 -1.12672 0
M  V30 4003 H 387.942 -5.14635 -1.90898 0
M  V30 4004 H 388.203 -3.56131 -2.61961 0
M  V30 4005 N 387.262 0.0317525 -1.57568 0
M  V30 4006 C 388.225 1.01783 -2.0536 0
M  V30 4007 C 389.225 1.29203 -0.957253 0
M  V30 4008 O 390.415 1.24251 -1.22095 0
M  V30 4009 C 387.547 2.35137 -2.46827 0
M  V30 4010 H 388.74 0.605062 -2.93733 0
M  V30 4011 H 386.293 0.278514 -1.53799 0
M  V30 4012 H 387.028 2.81168 -1.61602 0
M  V30 4013 H 386.813 2.16566 -3.26866 0
M  V30 4014 H 388.303 3.05938 -2.84239 0
M  V30 4015 N 388.74 1.54641 0.303973 0
M  V30 4016 C 389.703 1.84646 1.35789 0
M  V30 4017 C 390.703 0.7192 1.4382 0
M  V30 4018 O 391.893 0.987491 1.43507 0
M  V30 4019 C 389.025 2.02407 2.74307 0
M  V30 4020 H 390.218 2.78829 1.10429 0
M  V30 4021 H 387.771 1.46658 0.540487 0
M  V30 4022 H 388.506 1.10502 3.04893 0
M  V30 4023 H 388.291 2.84453 2.69868 0
M  V30 4024 H 389.781 2.27002 3.50514 0
M  V30 4025 N 390.218 -0.567019 1.47046 0
M  V30 4026 C 391.443 -1.3551 1.57009 0
M  V30 4027 C 391.868 -1.86841 0.217259 0
M  V30 4028 O 391.226 -1.62435 -0.805268 0
M  V30 4029 C 391.274 -2.50777 2.5912 0
M  V30 4030 O 390.378 -3.52706 2.13711 0
M  V30 4031 H 389.719 -0.402919 0.52778 0
M  V30 4032 H 392.249 -0.686241 1.92748 0
M  V30 4033 H 392.259 -2.97481 2.79229 0
M  V30 4034 H 390.934 -2.12771 3.57353 0
M  V30 4035 H 389.511 -3.12374 2.03659 0
M  V30 4036 N 391.696 -1.35014 -0.812953 0
M  V30 4037 C 392.924 -1.31031 -1.6012 0
M  V30 4038 C 393.339 0.113558 -1.88458 0
M  V30 4039 O 392.696 1.06363 -1.48301 0
M  V30 4040 C 392.747 -2.10872 -2.93624 0
M  V30 4041 O 392.468 -3.47706 -2.66518 0
M  V30 4042 C 393.969 -2.14401 -3.88004 0
M  V30 4043 H 391.189 -0.45037 -0.497401 0
M  V30 4044 H 393.733 -1.77775 -1.01076 0
M  V30 4045 H 391.888 -1.67744 -3.492 0
M  V30 4046 H 392.302 -3.89097 -3.51715 0
M  V30 4047 H 393.776 -2.74669 -4.78812 0
M  V30 4048 H 394.253 -1.14105 -4.24119 0
M  V30 4049 H 394.859 -2.57662 -3.38364 0
M  V30 4050 N 393.175 1.03435 -1.18907 0
M  V30 4051 C 394.591 1.28973 -0.940111 0
M  V30 4052 C 394.791 1.97676 0.390691 0
M  V30 4053 O 393.847 2.26127 1.12352 0
M  V30 4054 C 395.16 2.14221 -2.11021 0
M  V30 4055 C 396.708 2.27547 -2.14922 0
M  V30 4056 C 397.183 3.16164 -3.31367 0
M  V30 4057 N 398.674 3.23752 -3.31269 0
M  V30 4058 C 399.409 3.92495 -4.18014 0
M  V30 4059 N 398.905 4.63515 -5.14904 0
M  V30 4060 N 400.698 3.88838 -4.05908 0
M  V30 4061 H 392.849 0.57252 -2.04538 0
M  V30 4062 H 395.112 0.315184 -0.894071 0
M  V30 4063 H 394.818 1.71054 -3.073 0
M  V30 4064 H 394.692 3.14919 -2.0762 0
M  V30 4065 H 397.079 2.69947 -1.19217 0
M  V30 4066 H 397.16 1.26418 -2.22378 0
M  V30 4067 H 396.804 2.74474 -4.27348 0
M  V30 4068 H 396.734 4.17339 -3.21148 0
M  V30 4069 H 399.225 2.73167 -2.61129 0
M  V30 4070 H 399.538 5.13583 -5.77453 0
M  V30 4071 H 397.883 4.62398 -5.18857 0
M  V30 4072 H 401.074 3.32491 -3.29495 0
M  V30 4073 H 401.247 4.4214 -4.73726 0
M  V30 4074 N 394.653 0.992116 1.22453 0
M  V30 4075 C 395.563 0.55065 2.28046 0
M  V30 4076 C 396.579 -0.400189 1.69335 0
M  V30 4077 O 397.755 -0.267215 1.99619 0
M  V30 4078 C 394.82 -0.128496 3.46462 0
M  V30 4079 C 393.881 0.865208 4.20491 0
M  V30 4080 C 393.114 0.218377 5.33253 0
M  V30 4081 O 393.337 -0.987894 5.6178 0
M  V30 4082 O 392.271 0.922845 5.94783 0
M  V30 4083 H 396.097 1.4291 2.67975 0
M  V30 4084 H 393.682 0.760326 1.28606 0
M  V30 4085 H 395.564 -0.508947 4.18315 0
M  V30 4086 H 394.239 -0.981526 3.0846 0
M  V30 4087 H 393.146 1.29658 3.50913 0
M  V30 4088 H 394.479 1.68741 4.62371 0
M  V30 4089 N 396.131 -1.37776 0.765217 0
M  V30 4090 C 397.064 -2.28008 0.0935025 0
M  V30 4091 C 398.042 -1.45985 -0.716047 0
M  V30 4092 O 399.226 -1.75331 -0.692203 0
M  V30 4093 C 396.353 -3.27228 -0.874052 0
M  V30 4094 C 395.399 -4.26239 -0.149307 0
M  V30 4095 S 396.232 -5.22827 1.15809 0
M  V30 4096 C 397.388 -6.256 0.193906 0
M  V30 4097 H 397.621 -2.84631 0.858637 0
M  V30 4098 H 395.154 -1.43952 0.558313 0
M  V30 4099 H 397.112 -3.84902 -1.42691 0
M  V30 4100 H 395.773 -2.69565 -1.61225 0
M  V30 4101 H 394.966 -4.96213 -0.88254 0
M  V30 4102 H 394.568 -3.7252 0.332366 0
M  V30 4103 H 396.86 -6.74508 -0.636011 0
M  V30 4104 H 397.803 -7.02838 0.861638 0
M  V30 4105 H 398.211 -5.64173 -0.191975 0
M  V30 4106 N 397.609 -0.515225 -1.4894 0
M  V30 4107 C 398.572 0.244681 -2.2789 0
M  V30 4108 C 399.572 0.881166 -1.34507 0
M  V30 4109 O 400.762 0.743497 -1.57537 0
M  V30 4110 C 397.894 1.35247 -3.12923 0
M  V30 4111 H 399.087 -0.448289 -2.96531 0
M  V30 4112 H 396.64 -0.270656 -1.53939 0
M  V30 4113 H 397.375 2.07916 -2.48881 0
M  V30 4114 H 397.16 0.901374 -3.81599 0
M  V30 4115 H 398.65 1.88737 -3.72516 0
M  V30 4116 N 399.087 1.5561 -0.249682 0
M  V30 4117 C 400.02 2.17537 0.689408 0
M  V30 4118 C 400.998 1.12829 1.17083 0
M  V30 4119 O 402.182 1.41229 1.24846 0
M  V30 4120 C 399.309 2.77828 1.93725 0
M  V30 4121 C 398.355 3.95615 1.59346 0
M  V30 4122 S 399.188 5.30988 0.69367 0
M  V30 4123 C 400.344 5.94734 1.95046 0
M  V30 4124 H 400.577 2.96852 0.163142 0
M  V30 4125 H 398.11 1.54362 -0.0341166 0
M  V30 4126 H 400.068 3.13199 2.65361 0
M  V30 4127 H 398.729 1.98454 2.43465 0
M  V30 4128 H 397.922 4.364 2.52132 0
M  V30 4129 H 397.524 3.61535 0.957512 0
M  V30 4130 H 399.816 6.12419 2.89739 0
M  V30 4131 H 400.759 6.90109 1.58604 0
M  V30 4132 H 401.167 5.23832 2.10381 0
M  V30 4133 N 400.565 -0.0233959 1.57583 0
M  V30 4134 C 401.495 -1.02162 2.09965 0
M  V30 4135 C 402.476 -1.3735 1.00344 0
M  V30 4136 O 403.661 -1.46135 1.27899 0
M  V30 4137 C 400.791 -2.32081 2.58371 0
M  V30 4138 C 399.745 -2.1112 3.72307 0
M  V30 4139 C 399.071 -3.46848 4.06941 0
M  V30 4140 C 400.371 -1.49276 5.00514 0
M  V30 4141 H 402.065 -0.585557 2.93618 0
M  V30 4142 H 399.611 -0.280218 1.41247 0
M  V30 4143 H 401.564 -3.02249 2.93639 0
M  V30 4144 H 400.288 -2.77758 1.71808 0
M  V30 4145 H 398.947 -1.43384 3.37397 0
M  V30 4146 H 398.595 -3.90184 3.17436 0
M  V30 4147 H 398.295 -3.33646 4.83688 0
M  V30 4148 H 399.819 -4.18369 4.44747 0
M  V30 4149 H 401.233 -2.09368 5.33702 0
M  V30 4150 H 399.63 -1.46632 5.8191 0
M  V30 4151 H 400.7 -0.459217 4.82721 0
M  V30 4152 N 402.043 -1.548 -0.295768 0
M  V30 4153 C 403.292 -1.73538 -1.02798 0
M  V30 4154 C 403.605 -0.531159 -1.8825 0
M  V30 4155 O 404.811 -0.600458 -2.64777 0
M  V30 4156 C 403.267 -3.07051 -1.87744 0
M  V30 4157 C 402.875 -4.34968 -1.07269 0
M  V30 4158 C 404.619 -3.35146 -2.60533 0
M  V30 4159 C 402.526 -5.5953 -1.91521 0
M  V30 4160 H 401.456 -0.646794 -0.387522 0
M  V30 4161 H 404.107 -1.81278 -0.284718 0
M  V30 4162 H 402.489 -2.93289 -2.66078 0
M  V30 4163 H 403.663 -4.5958 -0.335117 0
M  V30 4164 H 401.978 -4.13847 -0.460384 0
M  V30 4165 H 404.575 -4.2541 -3.23929 0
M  V30 4166 H 404.918 -2.54255 -3.29636 0
M  V30 4167 H 405.451 -3.49902 -1.89244 0
M  V30 4168 H 402.19 -6.43103 -1.26878 0
M  V30 4169 H 401.71 -5.39096 -2.62937 0
M  V30 4170 H 403.389 -5.96982 -2.49442 0
M  V30 4171 N 403.521 0.559213 -1.47345 0
M  V30 4172 C 404.484 1.64854 -1.59235 0
M  V30 4173 C 405.484 1.53851 -0.467607 0
M  V30 4174 O 406.674 1.58045 -0.732617 0
M  V30 4175 C 403.806 3.04388 -1.53496 0
M  V30 4176 H 404.999 1.55662 -2.56339 0
M  V30 4177 H 402.552 0.778973 -1.35505 0
M  V30 4178 H 403.287 3.19115 -0.577604 0
M  V30 4179 H 403.072 3.13783 -2.35123 0
M  V30 4180 H 404.562 3.83642 -1.6495 0
M  V30 4181 N 404.999 1.35443 0.805782 0
M  V30 4182 C 405.931 1.24285 1.92577 0
M  V30 4183 C 406.944 0.165962 1.61952 0
M  V30 4184 O 408.133 0.419303 1.73505 0
M  V30 4185 C 405.233 0.891272 3.2697 0
M  V30 4186 C 404.406 2.06669 3.85495 0
M  V30 4187 C 403.465 1.69077 4.98297 0
M  V30 4188 O 402.491 2.4096 5.15681 0
M  V30 4189 N 403.693 0.614869 5.77234 0
M  V30 4190 H 406.458 2.20777 2.02676 0
M  V30 4191 H 404.019 1.28623 0.983243 0
M  V30 4192 H 406.011 0.621256 3.99903 0
M  V30 4193 H 404.581 0.016004 3.12596 0
M  V30 4194 H 403.801 2.50046 3.04747 0
M  V30 4195 H 405.089 2.85237 4.21328 0
M  V30 4196 H 404.487 0.017648 5.65697 0
M  V30 4197 H 403.044 0.404636 6.50543 0
M  V30 4198 N 406.477 -1.02803 1.19454 0
M  V30 4199 C 407.44 -2.09264 0.934955 0
M  V30 4200 C 408.44 -1.60576 -0.0849015 0
M  V30 4201 O 409.63 -1.73554 0.149933 0
M  V30 4202 C 406.762 -3.38482 0.40531 0
M  V30 4203 H 407.955 -2.33726 1.87916 0
M  V30 4204 H 405.508 -1.19426 1.00832 0
M  V30 4205 H 406.243 -3.19689 -0.544899 0
M  V30 4206 H 406.028 -3.75142 1.14065 0
M  V30 4207 H 407.518 -4.16894 0.242806 0
M  V30 4208 N 407.956 -0.998596 -1.21925 0
M  V30 4209 C 408.886 -0.573688 -2.26343 0
M  V30 4210 C 409.867 0.402296 -1.65274 0
M  V30 4211 O 411.052 0.291683 -1.91997 0
M  V30 4212 C 408.182 0.106839 -3.47136 0
M  V30 4213 C 407.136 -0.788269 -4.20678 0
M  V30 4214 C 406.462 0.0254927 -5.34694 0
M  V30 4215 C 407.762 -2.08784 -4.78755 0
M  V30 4216 H 409.456 -1.44651 -2.62138 0
M  V30 4217 H 407.002 -0.696975 -1.26009 0
M  V30 4218 H 408.955 0.415531 -4.19346 0
M  V30 4219 H 407.679 1.01424 -3.10452 0
M  V30 4220 H 406.338 -1.08069 -3.50309 0
M  V30 4221 H 405.986 0.933989 -4.94253 0
M  V30 4222 H 405.686 -0.570437 -5.84825 0
M  V30 4223 H 407.21 0.328147 -6.09718 0
M  V30 4224 H 408.624 -1.84272 -5.42878 0
M  V30 4225 H 407.021 -2.63307 -5.39249 0
M  V30 4226 H 408.091 -2.76284 -3.98491 0
M  V30 4227 N 409.434 1.37368 -0.772513 0
M  V30 4228 C 410.366 2.28899 -0.117502 0
M  V30 4229 C 411.379 1.4867 0.663405 0
M  V30 4230 O 412.568 1.71314 0.501372 0
M  V30 4231 C 409.668 3.2788 0.857192 0
M  V30 4232 C 408.841 4.37207 0.129938 0
M  V30 4233 C 407.9 5.16257 1.01811 0
M  V30 4234 O 406.926 5.67159 0.481601 0
M  V30 4235 N 408.128 5.31058 2.3443 0
M  V30 4236 H 410.893 2.85752 -0.903662 0
M  V30 4237 H 408.454 1.49353 -0.62493 0
M  V30 4238 H 410.446 3.77647 1.45482 0
M  V30 4239 H 409.016 2.7179 1.54432 0
M  V30 4240 H 408.236 3.88827 -0.648605 0
M  V30 4241 H 409.524 5.07434 -0.372559 0
M  V30 4242 H 408.922 4.91287 2.80452 0
M  V30 4243 H 407.479 5.84131 2.89197 0
M  V30 4244 N 410.912 0.523116 1.48665 0
M  V30 4245 C 412.14 -0.0096312 2.06898 0
M  V30 4246 C 412.555 -1.28784 1.38059 0
M  V30 4247 O 411.912 -1.76453 0.465893 0
M  V30 4248 C 411.963 -0.244386 3.60673 0
M  V30 4249 O 411.684 0.983172 4.26925 0
M  V30 4250 C 413.185 -0.818289 4.35682 0
M  V30 4251 H 410.405 0.0304161 0.67031 0
M  V30 4252 H 412.949 0.726799 1.91149 0
M  V30 4253 H 411.104 -0.930847 3.76051 0
M  V30 4254 H 411.518 0.759653 5.1897 0
M  V30 4255 H 412.992 -0.93201 5.44075 0
M  V30 4256 H 413.469 -1.82153 3.99646 0
M  V30 4257 H 414.075 -0.168609 4.24966 0
M  V30 4258 N 412.39 -1.55475 0.257931 0
M  V30 4259 C 413.639 -1.98383 -0.364275 0
M  V30 4260 C 413.952 -1.14952 -1.58258 0
M  V30 4261 O 415.158 -1.47924 -2.27664 0
M  V30 4262 C 413.614 -3.53037 -0.699479 0
M  V30 4263 C 413.222 -4.45223 0.498046 0
M  V30 4264 C 414.966 -4.04575 -1.28526 0
M  V30 4265 C 412.873 -5.91238 0.138383 0
M  V30 4266 H 411.803 -0.740911 -0.13988 0
M  V30 4267 H 414.454 -1.79936 0.359883 0
M  V30 4268 H 412.836 -3.6722 -1.48207 0
M  V30 4269 H 414.01 -4.42803 1.27522 0
M  V30 4270 H 412.325 -4.04226 0.999503 0
M  V30 4271 H 414.922 -5.11196 -1.56788 0
M  V30 4272 H 415.265 -3.5258 -2.21344 0
M  V30 4273 H 415.798 -3.93762 -0.565337 0
M  V30 4274 H 412.537 -6.47294 1.03398 0
M  V30 4275 H 412.057 -5.96768 -0.602374 0
M  V30 4276 H 413.736 -6.46413 -0.27553 0
M  V30 4277 N 413.868 0.0150385 -1.57593 0
M  V30 4278 C 414.816 1.02958 -2.08572 0
M  V30 4279 C 415.81 1.36554 -1.00246 0
M  V30 4280 O 417.016 1.35295 -1.18724 0
M  V30 4281 H 413.391 0.349619 -0.665786 0
M  V30 4282 H 415.362 0.573932 -2.92829 0
M  V30 4283 C 414.111 2.31752 -2.59203 0
M  V30 4284 H 413.434 2.06765 -3.42182 0
M  V30 4285 H 414.874 3.01053 -2.98568 0
M  V30 4286 C 413.333 3.01692 -1.49945 0
M  V30 4287 O 413.863 3.92083 -0.873704 0
M  V30 4288 N 412.069 2.6326 -1.23056 0
M  V30 4289 H 411.616 1.89838 -1.74125 0
M  V30 4290 H 411.574 3.10372 -0.501685 0
M  V30 4291 N 415.346 1.54954 0.287554 0
M  V30 4292 C 416.576 1.78622 1.03816 0
M  V30 4293 C 416.984 0.552451 1.80955 0
M  V30 4294 O 416.327 -0.487665 1.77109 0
M  V30 4295 C 416.389 2.94975 2.055 0
M  V30 4296 C 416.053 4.32565 1.47433 0
M  V30 4297 C 417.05 5.12096 0.897436 0
M  V30 4298 C 414.735 4.79195 1.50591 0
M  V30 4299 C 416.729 6.36383 0.359851 0
M  V30 4300 C 414.416 6.03441 0.964459 0
M  V30 4301 C 415.414 6.81872 0.392413 0
M  V30 4302 O 415.102 8.03777 -0.140788 0
M  V30 4303 H 414.834 0.599144 0.313053 0
M  V30 4304 H 417.388 2.02761 0.328225 0
M  V30 4305 H 415.618 2.66493 2.80211 0
M  V30 4306 H 417.307 3.06097 2.6657 0
M  V30 4307 H 418.073 4.77209 0.865841 0
M  V30 4308 H 413.952 4.18167 1.94055 0
M  V30 4309 H 417.496 6.97545 -0.0872951 0
M  V30 4310 H 413.393 6.37813 0.993246 0
M  V30 4311 H 414.161 8.18495 -0.0287617 0
M  V30 4312 N 416.824 -0.551391 1.4764 0
M  V30 4313 C 418.072 -1.30572 1.54258 0
M  V30 4314 C 418.393 -1.93877 0.208963 0
M  V30 4315 O 417.663 -1.80234 -0.767619 0
M  V30 4316 H 416.243 -0.484894 0.568231 0
M  V30 4317 H 418.905 -0.643402 1.83974 0
M  V30 4318 H 418.001 -2.09621 2.31226 0
M  V30 4319 N 418.302 -1.35869 -0.798587 0
M  V30 4320 C 419.718 -1.16082 -1.09532 0
M  V30 4321 C 419.918 0.0213124 -2.01489 0
M  V30 4322 O 418.974 0.689488 -2.42904 0
M  V30 4323 C 420.287 -2.46748 -1.7186 0
M  V30 4324 C 421.835 -2.53028 -1.84244 0
M  V30 4325 C 422.31 -3.83758 -2.49988 0
M  V30 4326 N 423.801 -3.85053 -2.57465 0
M  V30 4327 C 424.536 -4.8294 -3.09122 0
M  V30 4328 N 424.032 -5.91217 -3.61157 0
M  V30 4329 N 425.825 -4.70369 -3.0775 0
M  V30 4330 H 417.976 -2.11571 -0.187461 0
M  V30 4331 H 420.239 -0.936726 -0.145765 0
M  V30 4332 H 419.945 -3.33471 -1.11759 0
M  V30 4333 H 419.819 -2.61883 -2.71472 0
M  V30 4334 H 422.206 -1.66729 -2.43486 0
M  V30 4335 H 422.287 -2.418 -0.834643 0
M  V30 4336 H 421.931 -4.70459 -1.91393 0
M  V30 4337 H 421.861 -3.92278 -3.5132 0
M  V30 4338 H 424.352 -3.06822 -2.20609 0
M  V30 4339 H 424.665 -6.61892 -3.98896 0
M  V30 4340 H 423.01 -5.94899 -3.59333 0
M  V30 4341 H 426.201 -3.84914 -2.66381 0
M  V30 4342 H 426.374 -5.46816 -3.47701 0
M  V30 4343 N 419.78 1.02168 -1.19998 0
M  V30 4344 C 421.057 1.72816 -0.916191 0
M  V30 4345 C 421.437 2.03081 0.576325 0
M  V30 4346 O 420.785 1.69122 1.53656 0
M  V30 4347 C 420.995 2.9997 -1.78378 0
M  V30 4348 C 422.343 3.73336 -2.02251 0
M  V30 4349 O 423.367 3.09914 -1.75589 0
M  V30 4350 O 422.226 4.87371 -2.47249 0
M  V30 4351 H 419.32 0.752924 -0.342103 0
M  V30 4352 H 421.866 1.08062 -1.30846 0
M  V30 4353 H 420.638 2.73888 -2.79466 0
M  V30 4354 H 420.261 3.72464 -1.39126 0
M  V30 4355 N 421.258 1.00505 1.21394 0
M  V30 4356 C 422.535 0.603277 1.86064 0
M  V30 4357 C 422.915 -0.919095 1.90042 0
M  V30 4358 O 422.263 -1.80607 1.39977 0
M  V30 4359 C 422.473 1.23772 3.26315 0
M  V30 4360 C 423.821 1.34586 4.02705 0
M  V30 4361 O 424.845 1.19304 3.35626 0
M  V30 4362 O 423.704 1.59169 5.22807 0
M  V30 4363 H 420.798 0.206634 0.800769 0
M  V30 4364 H 423.344 1.1017 1.29076 0
M  V30 4365 H 422.116 2.27848 3.18121 0
M  V30 4366 H 421.739 0.725648 3.90922 0
M  V30 4367 N 422.737 -1.36956 0.779787 0
M  V30 4368 C 423.647 -2.33965 0.172491 0
M  V30 4369 C 424.663 -1.60574 -0.670222 0
M  V30 4370 O 425.839 -1.92617 -0.588263 0
M  V30 4371 C 422.904 -3.39761 -0.690173 0
M  V30 4372 C 421.965 -4.28964 0.169924 0
M  V30 4373 C 421.198 -5.29707 -0.651662 0
M  V30 4374 O 421.421 -5.38238 -1.88827 0
M  V30 4375 O 420.355 -6.01873 -0.0566264 0
M  V30 4376 H 424.181 -2.87647 0.974321 0
M  V30 4377 H 421.766 -1.39258 0.541078 0
M  V30 4378 H 423.648 -4.04471 -1.1824 0
M  V30 4379 H 422.323 -2.88394 -1.47006 0
M  V30 4380 H 421.23 -3.67326 0.708696 0
M  V30 4381 H 422.563 -4.83656 0.913085 0
M  V30 4382 N 424.215 -0.530993 -1.48385 0
M  V30 4383 C 425.162 0.231223 -2.29639 0
M  V30 4384 C 426.132 0.932864 -1.37429 0
M  V30 4385 O 427.317 0.933692 -1.66394 0
M  V30 4386 C 424.457 1.27155 -3.2082 0
M  V30 4387 C 423.57 0.578655 -4.28107 0
M  V30 4388 C 422.705 1.602 -5.06467 0
M  V30 4389 C 421.744 0.892625 -6.05556 0
M  V30 4390 N 420.881 1.86157 -6.76971 0
M  V30 4391 H 425.721 -0.467848 -2.94305 0
M  V30 4392 H 423.258 -0.242556 -1.45086 0
M  V30 4393 H 425.216 1.88703 -3.72085 0
M  V30 4394 H 423.846 1.939 -2.58075 0
M  V30 4395 H 422.898 -0.150782 -3.80101 0
M  V30 4396 H 424.21 0.0217065 -4.98795 0
M  V30 4397 H 423.364 2.29173 -5.61751 0
M  V30 4398 H 422.103 2.19285 -4.35621 0
M  V30 4399 H 421.108 0.188829 -5.49476 0
M  V30 4400 H 422.333 0.307878 -6.78402 0
M  V30 4401 H 420.279 2.44147 -6.08875 0
M  V30 4402 H 420.196 1.35608 -7.43738 0
M  V30 4403 H 421.464 2.54325 -7.36844 0
M  V30 4404 O 425.732 1.56259 -0.408071 0
M  V30 4405 H 426.423 1.93245 0.132688 0
M  V30 END ATOM
M  V30 BEGIN BOND
M  V30 END BOND
M  V30 END CTAB
M  END
$$$$
