drugbank_target|O14793 Growth/differentiation factor 8 (DB05915)
 OpenBabel12092120323D

  0  0  0     0  0            999 V3000
M  V30 BEGIN CTAB
M  V30 COUNTS 5991 6059 0 0 0
M  V30 BEGIN ATOM
M  V30 1 H -0.908 1.98254 -0.117106 0
M  V30 2 N 0 1.576 0 0
M  V30 3 C 0.933 2.03868 1.02534 0
M  V30 4 C 1.911 0.928543 1.3348 0
M  V30 5 O 3.095 1.19667 1.45644 0
M  V30 6 C 0.222 2.43627 2.35294 0
M  V30 7 C -0.732 3.65373 2.2001 0
M  V30 8 S 0.101 5.13292 1.52614 0
M  V30 9 C 1.257 5.56322 2.86805 0
M  V30 10 H 1.49 2.90518 0.631377 0
M  V30 11 H -0.977 1.52953 0.210867 0
M  V30 12 H 0.981 2.67203 3.11629 0
M  V30 13 H -0.358 1.57376 2.7183 0
M  V30 14 H -1.165 3.90944 3.18086 0
M  V30 15 H -1.563 3.418 1.51819 0
M  V30 16 H 0.729 5.58782 3.83104 0
M  V30 17 H 1.672 6.56266 2.65933 0
M  V30 18 H 2.08 4.83886 2.90714 0
M  V30 19 N 1.4781 -0.272755 1.55222 0
M  V30 20 C 2.4101 -1.35946 1.8453 0
M  V30 21 C 3.4231 -1.45525 0.729818 0
M  V30 22 O 4.6121 -1.47337 1.00767 0
M  V30 23 C 1.7121 -2.74069 1.99347 0
M  V30 24 C 0.8851 -2.87079 3.30007 0
M  V30 25 C -0.0559 -4.05879 3.34886 0
M  V30 26 O -1.0299 -3.96626 4.08261 0
M  V30 27 N 0.1721 -5.17857 2.62307 0
M  V30 28 H 2.9371 -1.11149 2.78327 0
M  V30 29 H 0.4981 -0.462869 1.55142 0
M  V30 30 H 2.4901 -3.51838 1.99981 0
M  V30 31 H 1.0601 -2.91688 1.12415 0
M  V30 32 H 0.2801 -1.96193 3.41909 0
M  V30 33 H 1.5681 -2.92701 4.16177 0
M  V30 34 H 0.9661 -5.28261 2.02377 0
M  V30 35 H -0.4769 -5.93855 2.68663 0
M  V30 36 N 2.9562 -1.48159 -0.537278 0
M  V30 37 C 3.9032 -1.62138 -1.64256 0
M  V30 38 C 4.8732 -0.463668 -1.59497 0
M  V30 39 O 6.0582 -0.686241 -1.78032 0
M  V30 40 C 3.1982 -1.66028 -3.02537 0
M  V30 41 C 2.3112 -2.92855 -3.17585 0
M  V30 42 C 1.4462 -2.87952 -4.46382 0
M  V30 43 C 0.4852 -4.09516 -4.54932 0
M  V30 44 N -0.3778 -4.02733 -5.75109 0
M  V30 45 H 4.4622 -2.56529 -1.51647 0
M  V30 46 H 1.9992 -1.27224 -0.738414 0
M  V30 47 H 3.9572 -1.66265 -3.82638 0
M  V30 48 H 2.5872 -0.751331 -3.13934 0
M  V30 49 H 1.6392 -3.02395 -2.30784 0
M  V30 50 H 2.9512 -3.82822 -3.19764 0
M  V30 51 H 2.1052 -2.8655 -5.34765 0
M  V30 52 H 0.8442 -1.95702 -4.46712 0
M  V30 53 H -0.1508 -4.11201 -3.64957 0
M  V30 54 H 1.0742 -5.02917 -4.56346 0
M  V30 55 H -0.9798 -3.13299 -5.76351 0
M  V30 56 H -1.0628 -4.86397 -5.78752 0
M  V30 57 H 0.2052 -4.05379 -6.65799 0
M  V30 58 N 4.4343 0.785586 -1.36625 0
M  V30 59 C 5.3643 1.91259 -1.33949 0
M  V30 60 C 6.3453 1.68795 -0.210325 0
M  V30 61 O 7.5303 1.89854 -0.408561 0
M  V30 62 C 4.6603 3.28339 -1.13186 0
M  V30 63 C 3.6143 3.65335 -2.22967 0
M  V30 64 C 2.9403 5.00806 -1.87342 0
M  V30 65 C 4.2403 3.7352 -3.65075 0
M  V30 66 H 5.9343 1.93755 -2.28253 0
M  V30 67 H 3.4803 0.930788 -1.09874 0
M  V30 68 H 5.4333 4.06804 -1.09948 0
M  V30 69 H 4.1573 3.2624 -0.153332 0
M  V30 70 H 2.8163 2.89169 -2.25337 0
M  V30 71 H 2.4643 4.95233 -0.880545 0
M  V30 72 H 2.1643 5.26529 -2.60846 0
M  V30 73 H 3.6883 5.81687 -1.85667 0
M  V30 74 H 5.1023 4.42168 -3.64911 0
M  V30 75 H 3.4993 4.10731 -4.37516 0
M  V30 76 H 4.5693 2.74527 -3.99703 0
M  V30 77 N 5.9124 1.20967 1.01018 0
M  V30 78 C 6.8444 0.922059 2.09835 0
M  V30 79 C 7.8574 -0.0927106 1.62536 0
M  V30 80 O 9.0464 0.139127 1.77957 0
M  V30 81 C 6.1464 0.362004 3.36961 0
M  V30 82 C 5.3194 1.42986 4.13369 0
M  V30 83 C 4.3784 0.879976 5.1879 0
M  V30 84 O 3.4044 1.56219 5.47343 0
M  V30 85 N 4.6064 -0.307396 5.79686 0
M  V30 86 H 7.3714 1.8588 2.35093 0
M  V30 87 H 4.9324 1.11422 1.1746 0
M  V30 88 H 6.9244 -0.0201474 4.04695 0
M  V30 89 H 5.4944 -0.479437 3.08902 0
M  V30 90 H 4.7144 1.98608 3.40512 0
M  V30 91 H 6.0024 2.14885 4.61196 0
M  V30 92 H 5.4004 -0.878796 5.58832 0
M  V30 93 H 3.9574 -0.631115 6.48737 0
M  V30 94 N 7.3905 -1.2043 1.01659 0
M  V30 95 C 8.3205 -2.25466 0.607226 0
M  V30 96 C 9.3015 -1.65853 -0.377716 0
M  V30 97 O 10.4865 -1.92409 -0.263149 0
M  V30 98 C 7.6165 -3.47256 -0.0552949 0
M  V30 99 C 6.5705 -4.19462 0.850632 0
M  V30 100 C 5.8965 -5.34673 0.0538859 0
M  V30 101 C 7.1965 -4.75603 2.15868 0
M  V30 102 H 8.8905 -2.59962 1.48526 0
M  V30 103 H 6.4365 -1.2496 0.715605 0
M  V30 104 H 8.3895 -4.19917 -0.353233 0
M  V30 105 H 7.1135 -3.11924 -0.968045 0
M  V30 106 H 5.7725 -3.48667 1.13257 0
M  V30 107 H 5.4205 -4.95585 -0.860514 0
M  V30 108 H 5.1205 -5.83913 0.657192 0
M  V30 109 H 6.6445 -6.10138 -0.237598 0
M  V30 110 H 8.0585 -5.40083 1.92311 0
M  V30 111 H 6.4555 -5.3528 2.71284 0
M  V30 112 H 7.5255 -3.94346 2.82169 0
M  V30 113 N 8.8686 -0.792821 -1.36206 0
M  V30 114 C 10.1086 -0.372238 -2.00982 0
M  V30 115 C 10.4726 1.03749 -1.61555 0
M  V30 116 O 11.6736 1.55934 -2.18948 0
M  V30 117 C 9.9446 -0.534566 -3.5338 0
M  V30 118 S 11.5036 -0.202365 -4.38333 0
M  V30 119 H 8.3216 -0.142044 -0.696667 0
M  V30 120 H 10.9236 -1.03206 -1.66039 0
M  V30 121 H 9.6276 -1.5608 -3.79562 0
M  V30 122 H 9.1586 0.141065 -3.93147 0
M  V30 123 H 11.1736 0.994869 -4.86124 0
M  V30 124 N 10.3467 1.47872 -0.545128 0
M  V30 125 C 11.5927 2.02793 -0.0166104 0
M  V30 126 C 11.9257 1.41987 1.32489 0
M  V30 127 O 11.2007 0.571045 1.85928 0
M  V30 128 C 11.4837 3.59989 0.0893294 0
M  V30 129 C 11.3367 4.3125 -1.27841 0
M  V30 130 C 12.6557 4.32606 0.808724 0
M  V30 131 H 9.7747 0.736962 -0.00751035 0
M  V30 132 H 12.4167 1.76433 -0.705085 0
M  V30 133 H 10.5667 3.82579 0.675681 0
M  V30 134 H 12.2387 4.20035 -1.90704 0
M  V30 135 H 10.4817 3.92076 -1.85632 0
M  V30 136 H 11.1527 5.39736 -1.15713 0
M  V30 137 H 13.6287 4.14936 0.310992 0
M  V30 138 H 12.5047 5.42251 0.851782 0
M  V30 139 H 12.7657 4.00963 1.86229 0
M  V30 140 N 11.8248 0.280983 1.55075 0
M  V30 141 C 13.0548 -0.336804 2.03836 0
M  V30 142 C 13.4628 -1.49577 1.15859 0
M  V30 143 O 12.8058 -1.82888 0.172503 0
M  V30 144 C 12.8678 -0.874616 3.48699 0
M  V30 145 C 12.5318 0.156478 4.56732 0
M  V30 146 C 13.5288 0.978032 5.10618 0
M  V30 147 C 11.2138 0.292409 5.01448 0
M  V30 148 C 13.2078 1.92165 6.07743 0
M  V30 149 C 10.8948 1.23949 5.98398 0
M  V30 150 C 11.8928 2.05261 6.51427 0
M  V30 151 O 11.5808 2.98367 7.4648 0
M  V30 152 H 11.3128 -0.0800885 0.671239 0
M  V30 153 H 13.8668 0.412589 2.01213 0
M  V30 154 H 12.0968 -1.67418 3.4858 0
M  V30 155 H 13.7858 -1.40612 3.80766 0
M  V30 156 H 14.5518 0.883782 4.7688 0
M  V30 157 H 10.4308 -0.330498 4.59814 0
M  V30 158 H 13.9748 2.55672 6.49059 0
M  V30 159 H 9.8718 1.33454 6.31554 0
M  V30 160 H 10.6398 2.93116 7.64215 0
M  V30 161 N 13.3029 -1.57598 0.00835791 0
M  V30 162 C 14.5519 -1.90107 -0.673968 0
M  V30 163 C 14.8649 -0.884275 -1.7447 0
M  V30 164 O 16.0709 -1.09987 -2.48224 0
M  V30 165 C 14.5269 -3.37497 -1.24995 0
M  V30 166 C 14.1349 -4.47491 -0.2136 0
M  V30 167 C 15.8789 -3.79104 -1.90999 0
M  V30 168 C 13.7859 -5.85963 -0.80005 0
M  V30 169 H 12.7159 -0.709393 -0.255495 0
M  V30 170 H 15.3669 -1.83365 0.0702693 0
M  V30 171 H 13.7489 -3.39102 -2.04513 0
M  V30 172 H 14.9229 -4.57414 0.557596 0
M  V30 173 H 13.2379 -4.14956 0.346474 0
M  V30 174 H 15.8349 -4.79901 -2.35795 0
M  V30 175 H 16.1779 -3.1306 -2.74407 0
M  V30 176 H 16.7109 -3.79833 -1.18203 0
M  V30 177 H 13.4499 -6.555 -0.00456708 0
M  V30 178 H 12.9699 -5.79687 -1.54021 0
M  V30 179 H 14.6489 -6.33884 -1.29615 0
M  V30 180 N 14.781 0.264519 -1.55364 0
M  V30 181 C 16.011 1.01153 -1.80143 0
M  V30 182 C 16.419 1.80115 -0.579253 0
M  V30 183 O 15.762 1.77813 0.46132 0
M  V30 184 C 15.824 2.01098 -2.97993 0
M  V30 185 C 15.488 1.40995 -4.34706 0
M  V30 186 C 16.485 0.821316 -5.13372 0
M  V30 187 C 14.17 1.43461 -4.81378 0
M  V30 188 C 16.164 0.265339 -6.36847 0
M  V30 189 C 13.851 0.874771 -6.04807 0
M  V30 190 C 14.849 0.291146 -6.82379 0
M  V30 191 O 14.537 -0.260093 -8.03479 0
M  V30 192 H 14.269 0.304125 -0.603725 0
M  V30 193 H 16.823 0.298089 -2.03225 0
M  V30 194 H 15.053 2.76224 -2.70623 0
M  V30 195 H 16.742 2.61997 -3.1002 0
M  V30 196 H 17.508 0.794903 -4.78442 0
M  V30 197 H 13.387 1.87826 -4.21002 0
M  V30 198 H 16.931 -0.190837 -6.97339 0
M  V30 199 H 12.828 0.898452 -6.39217 0
M  V30 200 H 13.596 -0.150265 -8.18362 0
M  V30 201 N 16.2591 1.48442 0.529413 0
M  V30 202 C 17.1891 1.65902 1.64313 0
M  V30 203 C 18.1701 0.507897 1.6234 0
M  V30 204 O 19.3551 0.740503 1.79528 0
M  V30 205 C 16.4851 1.69911 3.02898 0
M  V30 206 C 15.4391 2.8453 3.19729 0
M  V30 207 C 14.7651 2.73629 4.59381 0
M  V30 208 C 16.0651 4.25821 3.02447 0
M  V30 209 H 17.7591 2.5914 1.49955 0
M  V30 210 H 15.3051 1.24709 0.719982 0
M  V30 211 H 17.2581 1.80715 3.80684 0
M  V30 212 H 15.9821 0.732524 3.18279 0
M  V30 213 H 14.6411 2.73283 2.44361 0
M  V30 214 H 14.2891 1.74938 4.71599 0
M  V30 215 H 13.9891 3.50541 4.71588 0
M  V30 216 H 15.5131 2.86401 5.39265 0
M  V30 217 H 16.9271 4.37898 3.70024 0
M  V30 218 H 15.3241 5.03735 3.26146 0
M  V30 219 H 16.3941 4.42244 1.98867 0
M  V30 220 N 17.7372 -0.778329 1.37039 0
M  V30 221 C 18.9842 -1.53665 1.31884 0
M  V30 222 C 19.3122 -1.9425 -0.0986303 0
M  V30 223 O 18.5672 -1.63832 -1.07041 0
M  V30 224 C 18.8662 -2.81845 2.19768 0
M  V30 225 C 18.5322 -2.60345 3.68146 0
M  V30 226 C 17.1942 -2.5419 4.08584 0
M  V30 227 C 19.5462 -2.40923 4.62175 0
M  V30 228 C 16.8742 -2.26594 5.41177 0
M  V30 229 C 19.2262 -2.14852 5.94997 0
M  V30 230 C 17.8902 -2.07137 6.34547 0
M  V30 231 H 17.1602 -0.562299 0.482598 0
M  V30 232 H 19.8072 -0.897069 1.69189 0
M  V30 233 H 18.1122 -3.50328 1.75436 0
M  V30 234 H 19.8092 -3.39692 2.13097 0
M  V30 235 H 16.3992 -2.65996 3.36072 0
M  V30 236 H 20.5832 -2.44673 4.31797 0
M  V30 237 H 15.8392 -2.19111 5.70789 0
M  V30 238 H 20.0132 -1.98822 6.67415 0
M  V30 239 H 17.6402 -1.85518 7.37216 0
M  V30 240 N 19.2153 -1.21501 -1.00376 0
M  V30 241 C 20.1483 -0.918669 -2.08892 0
M  V30 242 C 21.1263 0.134277 -1.62045 0
M  V30 243 O 22.3103 0.00504255 -1.88499 0
M  V30 244 C 19.4373 -0.379645 -3.36566 0
M  V30 245 C 18.4833 -1.41559 -4.02323 0
M  V30 246 S 19.3163 -2.98521 -4.44574 0
M  V30 247 C 20.4723 -2.46228 -5.75433 0
M  V30 248 H 20.7053 -1.83761 -2.33707 0
M  V30 249 H 18.2383 -1.04489 -1.13673 0
M  V30 250 H 20.1963 -0.0752195 -4.10431 0
M  V30 251 H 18.8573 0.518008 -3.09799 0
M  V30 252 H 18.0503 -0.988076 -4.9422 0
M  V30 253 H 17.6523 -1.66815 -3.34737 0
M  V30 254 H 19.9443 -1.86791 -6.51241 0
M  V30 255 H 20.8873 -3.36572 -6.22997 0
M  V30 256 H 21.2953 -1.87894 -5.32312 0
M  V30 257 N 20.6934 1.19889 -1.02296 0
M  V30 258 C 21.6234 2.25141 -0.619174 0
M  V30 259 C 22.6044 1.66051 0.368915 0
M  V30 260 O 23.7894 1.92546 0.252941 0
M  V30 261 C 20.9194 3.4728 0.0368783 0
M  V30 262 C 19.8734 4.19005 -0.872865 0
M  V30 263 C 19.1994 5.34637 -0.0822402 0
M  V30 264 C 20.4994 4.74452 -2.18387 0
M  V30 265 H 22.1934 2.59171 -1.49903 0
M  V30 266 H 19.7394 1.24579 -0.722222 0
M  V30 267 H 21.6924 4.20098 0.330958 0
M  V30 268 H 20.4164 3.12433 0.95149 0
M  V30 269 H 19.0754 3.48061 -1.15105 0
M  V30 270 H 18.7234 4.96034 0.83422 0
M  V30 271 H 18.4234 5.83557 -0.688149 0
M  V30 272 H 19.9474 6.10255 0.205238 0
M  V30 273 H 21.3614 5.39055 -1.95172 0
M  V30 274 H 19.7584 5.33834 -2.74119 0
M  V30 275 H 20.8284 3.92844 -2.84257 0
M  V30 276 N 22.1715 0.800033 1.35784 0
M  V30 277 C 23.4205 0.37387 1.98205 0
M  V30 278 C 23.7335 -1.06302 1.64193 0
M  V30 279 O 24.9395 -1.59198 2.19928 0
M  V30 280 C 23.3955 0.617532 3.54562 0
M  V30 281 C 23.0035 2.06654 3.9749 0
M  V30 282 C 24.7475 0.256401 4.23725 0
M  V30 283 C 22.6545 2.2563 5.46667 0
M  V30 284 H 21.5845 0.136055 0.741623 0
M  V30 285 H 24.2355 0.983166 1.54939 0
M  V30 286 H 22.6175 -0.0616248 3.95952 0
M  V30 287 H 23.7915 2.78296 3.67271 0
M  V30 288 H 22.1065 2.38691 3.41197 0
M  V30 289 H 24.7035 0.376318 5.33374 0
M  V30 290 H 25.0465 -0.796692 4.08606 0
M  V30 291 H 25.5795 0.889214 3.87734 0
M  V30 292 H 22.3185 3.2936 5.66747 0
M  V30 293 H 21.8385 1.58504 5.78478 0
M  V30 294 H 23.5175 2.06861 6.1304 0
M  V30 295 N 23.6496 -1.47581 0.552962 0
M  V30 296 C 24.8956 -2.02782 0.0273648 0
M  V30 297 C 25.2286 -1.42687 -1.31734 0
M  V30 298 O 24.5036 -0.580897 -1.85623 0
M  V30 299 C 24.7866 -3.60031 -0.0702371 0
M  V30 300 C 24.6396 -4.30566 1.30126 0
M  V30 301 C 25.9586 -4.33028 -0.785771 0
M  V30 302 H 23.0776 -0.736912 0.0114185 0
M  V30 303 H 25.7196 -1.76056 0.714432 0
M  V30 304 H 23.8696 -3.82932 -0.655382 0
M  V30 305 H 25.5416 -4.19018 1.92929 0
M  V30 306 H 23.7846 -3.91086 1.87709 0
M  V30 307 H 24.4556 -5.39114 1.18573 0
M  V30 308 H 26.9316 -4.15095 -0.288982 0
M  V30 309 H 25.8076 -5.42695 -0.823013 0
M  V30 310 H 26.0686 -4.01945 -1.841 0
M  V30 311 N 25.1277 -0.289203 -1.54924 0
M  V30 312 C 26.0907 0.579144 -2.21762 0
M  V30 313 C 27.0907 1.07047 -1.1999 0
M  V30 314 O 28.2807 0.968384 -1.44803 0
M  V30 315 C 25.4127 1.80055 -2.8947 0
M  V30 316 H 26.6057 -0.00464908 -2.999 0
M  V30 317 H 24.1587 -0.0399306 -1.56249 0
M  V30 318 H 24.8937 2.42449 -2.15381 0
M  V30 319 H 24.6787 1.45602 -3.64064 0
M  V30 320 H 26.1687 2.41773 -3.40493 0
M  V30 321 N 26.6058 1.57591 -0.0167156 0
M  V30 322 C 27.8538 1.90906 0.663285 0
M  V30 323 C 28.1748 0.892509 1.73376 0
M  V30 324 O 27.4448 -0.0677623 1.95783 0
M  V30 325 H 26.0248 0.704637 0.247983 0
M  V30 326 H 28.6868 1.94803 -0.0615909 0
M  V30 327 H 27.7828 2.9116 1.12393 0
M  V30 328 N 28.0839 -0.256276 1.55502 0
M  V30 329 C 29.4949 -0.826068 1.67431 0
M  V30 330 C 29.8459 -1.86396 0.612446 0
M  V30 331 O 28.9709 -2.15031 -0.243025 0
M  V30 332 C 29.5659 -1.50512 3.03532 0
M  V30 333 C 28.1249 -2.02273 3.17431 0
M  V30 334 C 27.2719 -0.870548 2.63281 0
M  V30 335 H 30.2229 -0.0322728 1.58667 0
M  V30 336 H 30.2439 -2.37279 2.97454 0
M  V30 337 H 29.7559 -0.749484 3.80794 0
M  V30 338 H 27.8569 -2.80746 2.44974 0
M  V30 339 H 27.9699 -2.22655 4.24219 0
M  V30 340 H 26.3339 -1.26851 2.20864 0
M  V30 341 H 27.1169 -0.128149 3.43061 0
M  V30 342 N 29.562 -1.4872 -0.521534 0
M  V30 343 C 30.808 -1.574 -1.27879 0
M  V30 344 C 31.141 -0.250817 -1.92573 0
M  V30 345 O 30.416 0.743934 -1.79711 0
M  V30 346 C 30.699 -2.71843 -2.36164 0
M  V30 347 C 30.552 -4.13893 -1.76105 0
M  V30 348 C 31.871 -2.82008 -3.37875 0
M  V30 349 H 28.99 -0.572941 -0.463581 0
M  V30 350 H 31.632 -1.80927 -0.580119 0
M  V30 351 H 29.782 -2.51914 -2.95756 0
M  V30 352 H 31.454 -4.45284 -1.20499 0
M  V30 353 H 29.697 -4.20498 -1.06601 0
M  V30 354 H 30.368 -4.89804 -2.5455 0
M  V30 355 H 32.844 -3.00086 -2.88249 0
M  V30 356 H 31.72 -3.63796 -4.11028 0
M  V30 357 H 31.981 -1.90511 -3.98946 0
M  V30 358 N 31.0401 0.771051 -1.3745 0
M  V30 359 C 32.3171 1.519 -1.23231 0
M  V30 360 C 32.6971 2.10383 0.173809 0
M  V30 361 O 32.0451 1.95583 1.18151 0
M  V30 362 C 32.2551 2.59933 -2.32886 0
M  V30 363 C 33.6031 3.27316 -2.70461 0
M  V30 364 O 34.6271 2.70228 -2.32068 0
M  V30 365 O 33.4861 4.30531 -3.36608 0
M  V30 366 H 30.5801 0.672803 -0.480901 0
M  V30 367 H 33.1261 0.807957 -1.49232 0
M  V30 368 H 31.8981 2.14842 -3.27045 0
M  V30 369 H 31.5211 3.38637 -2.08353 0
M  V30 370 N 32.5182 1.22032 0.997298 0
M  V30 371 C 33.4482 1.01065 2.10495 0
M  V30 372 C 34.4292 -0.0669542 1.69968 0
M  V30 373 O 35.6142 0.0943987 1.9397 0
M  V30 374 C 32.7442 0.582874 3.42374 0
M  V30 375 C 31.6982 1.60592 3.96729 0
M  V30 376 C 31.0242 1.03412 5.24605 0
M  V30 377 C 32.3242 2.99478 4.27914 0
M  V30 378 H 34.0182 1.93708 2.28292 0
M  V30 379 H 31.5642 0.932761 1.09707 0
M  V30 380 H 33.5172 0.423332 4.19268 0
M  V30 381 H 32.2412 -0.379213 3.24391 0
M  V30 382 H 30.9002 1.75316 3.21963 0
M  V30 383 H 30.5482 0.063518 5.0296 0
M  V30 384 H 30.2482 1.71754 5.61938 0
M  V30 385 H 31.7722 0.886066 6.04137 0
M  V30 386 H 33.1862 2.88153 4.95622 0
M  V30 387 H 31.5832 3.64903 4.76409 0
M  V30 388 H 32.6532 3.49742 3.3587 0
M  V30 389 N 33.9963 -1.19345 1.0293 0
M  V30 390 C 34.9443 -2.24621 0.604001 0
M  V30 391 C 35.9383 -1.65452 -0.363587 0
M  V30 392 O 37.1443 -1.78497 -0.23212 0
M  V30 393 H 33.5193 -0.730858 0.177061 0
M  V30 394 H 35.4903 -2.5781 1.50255 0
M  V30 395 C 34.2393 -3.47688 -0.0289127 0
M  V30 396 H 33.5623 -3.93505 0.706651 0
M  V30 397 H 35.0023 -4.23011 -0.289432 0
M  V30 398 C 33.4613 -3.11817 -1.2756 0
M  V30 399 O 33.9913 -3.2451 -2.36762 0
M  V30 400 N 32.1973 -2.66246 -1.16453 0
M  V30 401 H 31.7443 -2.56118 -0.275914 0
M  V30 402 H 31.7023 -2.42617 -1.99961 0
M  V30 403 N 35.4744 -0.807222 -1.35358 0
M  V30 404 C 36.3844 -0.219594 -2.3357 0
M  V30 405 C 37.4004 0.637734 -1.61892 0
M  V30 406 O 38.5764 0.549336 -1.93763 0
M  V30 407 C 35.6414 0.62158 -3.41083 0
M  V30 408 C 34.7024 -0.256315 -4.28534 0
M  V30 409 C 33.9354 0.544807 -5.30912 0
M  V30 410 O 34.1584 1.77944 -5.41934 0
M  V30 411 O 33.0924 -0.0646478 -6.01865 0
M  V30 412 H 36.9184 -1.03208 -2.85625 0
M  V30 413 H 34.5034 -0.569025 -1.38139 0
M  V30 414 H 36.3854 1.10067 -4.06772 0
M  V30 415 H 35.0604 1.41165 -2.91297 0
M  V30 416 H 33.9674 -0.782559 -3.65823 0
M  V30 417 H 35.3004 -1.01034 -4.81719 0
M  V30 418 N 36.9525 1.47285 -0.560781 0
M  V30 419 C 37.9005 2.31756 0.197942 0
M  V30 420 C 38.8945 1.43146 0.905854 0
M  V30 421 O 40.1005 1.59891 0.826733 0
M  V30 422 H 36.4755 0.747438 0.0827049 0
M  V30 423 H 38.4465 2.9359 -0.533629 0
M  V30 424 C 37.1955 3.25874 1.21249 0
M  V30 425 H 36.5185 3.94023 0.67719 0
M  V30 426 H 37.9585 3.87803 1.71419 0
M  V30 427 C 36.4175 2.49651 2.26221 0
M  V30 428 O 36.9475 2.24355 3.33208 0
M  V30 429 N 35.1535 2.10597 2.00243 0
M  V30 430 H 34.7005 2.31369 1.13252 0
M  V30 431 H 34.6585 1.59913 2.70694 0
M  V30 432 N 38.4306 0.297415 1.54768 0
M  V30 433 C 39.6556 -0.318435 2.04941 0
M  V30 434 C 40.0806 -1.4701 1.17345 0
M  V30 435 O 39.4386 -1.80436 0.176758 0
M  V30 436 C 39.4866 -0.755749 3.52592 0
M  V30 437 O 38.5906 -1.86088 3.68028 0
M  V30 438 H 37.9316 -0.062421 0.661059 0
M  V30 439 H 40.4616 0.438215 1.99852 0
M  V30 440 H 40.4716 -1.04552 3.94376 0
M  V30 441 H 39.1466 0.0867233 4.1581 0
M  V30 442 H 37.7236 -1.57193 3.38149 0
M  V30 443 N 39.9087 -1.5758 0.0250728 0
M  V30 444 C 40.8187 -2.1343 -0.973905 0
M  V30 445 C 41.8347 -1.08556 -1.35984 0
M  V30 446 O 43.0107 -1.40592 -1.44207 0
M  V30 447 C 40.0757 -2.64703 -2.23904 0
M  V30 448 C 39.1367 -3.84276 -1.91391 0
M  V30 449 C 38.3697 -4.33095 -3.11873 0
M  V30 450 O 38.5927 -3.81107 -4.24398 0
M  V30 451 O 37.5267 -5.24984 -2.94406 0
M  V30 452 H 41.3527 -2.99057 -0.529036 0
M  V30 453 H 38.9377 -1.48118 -0.195288 0
M  V30 454 H 40.8197 -2.97769 -2.98181 0
M  V30 455 H 39.4947 -1.82161 -2.6758 0
M  V30 456 H 38.4017 -3.56143 -1.14511 0
M  V30 457 H 39.7347 -4.67968 -1.52534 0
M  V30 458 N 41.3868 0.248026 -1.55636 0
M  V30 459 C 42.3188 1.32993 -1.8667 0
M  V30 460 C 43.3318 1.44345 -0.752877 0
M  V30 461 O 44.5208 1.45715 -1.03098 0
M  V30 462 C 41.6208 2.70863 -2.03682 0
M  V30 463 C 40.7938 2.81792 -3.34532 0
M  V30 464 C 39.8528 4.005 -3.41301 0
M  V30 465 O 38.8788 3.9008 -4.14519 0
M  V30 466 N 40.0808 5.13618 -2.70512 0
M  V30 467 H 42.8458 1.06707 -2.8006 0
M  V30 468 H 40.4068 0.438129 -1.55859 0
M  V30 469 H 42.3988 3.48612 -2.05553 0
M  V30 470 H 40.9688 2.89862 -1.17041 0
M  V30 471 H 40.1888 1.90729 -3.44987 0
M  V30 472 H 41.4768 2.86043 -4.20781 0
M  V30 473 H 40.8748 5.24975 -2.10755 0
M  V30 474 H 39.4318 5.89505 -2.78077 0
M  V30 475 N 42.8649 1.48995 0.513639 0
M  V30 476 C 43.8119 1.6473 1.61656 0
M  V30 477 C 44.7819 0.488984 1.58739 0
M  V30 478 O 45.9669 0.714478 1.76918 0
M  V30 479 C 43.1069 1.7082 2.99858 0
M  V30 480 C 42.2199 2.9787 3.12885 0
M  V30 481 C 41.3549 2.95017 4.41744 0
M  V30 482 C 40.3939 4.16702 4.48359 0
M  V30 483 N 39.5309 4.11832 5.68629 0
M  V30 484 H 44.3709 2.58909 1.47547 0
M  V30 485 H 41.9079 1.28382 0.71808 0
M  V30 486 H 43.8659 1.72331 3.79944 0
M  V30 487 H 42.4959 0.801181 3.12699 0
M  V30 488 H 41.5479 3.06029 2.25944 0
M  V30 489 H 42.8599 3.8786 3.13633 0
M  V30 490 H 42.0139 2.95021 5.30139 0
M  V30 491 H 40.7529 2.02784 4.43542 0
M  V30 492 H 39.7579 4.16955 3.58369 0
M  V30 493 H 40.9829 5.10113 4.48287 0
M  V30 494 H 38.9289 3.22428 5.71293 0
M  V30 495 H 38.8459 4.95543 5.7094 0
M  V30 496 H 40.1139 4.1592 6.59266 0
M  V30 497 N 44.343 -0.763751 1.37857 0
M  V30 498 C 45.253 -1.90817 1.36478 0
M  V30 499 C 46.269 -1.71997 0.263248 0
M  V30 500 O 47.445 -1.95095 0.499979 0
M  V30 501 C 44.51 -3.2605 1.17864 0
M  V30 502 C 43.571 -3.57467 2.3773 0
M  V30 503 C 42.804 -4.86249 2.19995 0
M  V30 504 O 43.027 -5.57884 1.18836 0
M  V30 505 O 41.961 -5.16911 3.08361 0
M  V30 506 H 45.787 -1.94933 2.32884 0
M  V30 507 H 43.372 -0.907619 1.1867 0
M  V30 508 H 45.254 -4.06924 1.09504 0
M  V30 509 H 43.929 -3.22769 0.245372 0
M  V30 510 H 42.836 -2.76796 2.51664 0
M  V30 511 H 44.169 -3.655 3.29652 0
M  V30 512 N 45.8211 -1.22559 -0.990812 0
M  V30 513 C 46.7691 -0.994798 -2.10253 0
M  V30 514 C 47.7631 0.0627798 -1.69284 0
M  V30 515 O 48.9691 -0.0898392 -1.79776 0
M  V30 516 H 45.3441 -0.304527 -0.687581 0
M  V30 517 H 47.3151 -1.93812 -2.26891 0
M  V30 518 C 46.0641 -0.591439 -3.42633 0
M  V30 519 H 45.3871 -1.3969 -3.74602 0
M  V30 520 H 46.8271 -0.469385 -4.21394 0
M  V30 521 C 45.2861 0.699232 -3.29564 0
M  V30 522 O 45.8161 1.75112 -3.61523 0
M  V30 523 N 44.0221 0.671182 -2.82743 0
M  V30 524 H 43.5691 -0.185136 -2.56934 0
M  V30 525 H 43.5271 1.53502 -2.7438 0
M  V30 526 N 47.2992 1.18797 -1.03562 0
M  V30 527 C 48.5452 1.8893 -0.737113 0
M  V30 528 C 48.8782 1.79837 0.732956 0
M  V30 529 O 48.1532 1.19525 1.5344 0
M  V30 530 C 48.4362 3.39607 -1.19745 0
M  V30 531 C 48.2892 3.57537 -2.72924 0
M  V30 532 C 49.6082 4.33069 -0.783526 0
M  V30 533 H 46.7272 0.686057 -0.269249 0
M  V30 534 H 49.3692 1.39797 -1.28673 0
M  V30 535 H 47.5192 3.81583 -0.729855 0
M  V30 536 H 49.1912 3.24688 -3.27682 0
M  V30 537 H 47.4342 3.00363 -3.12993 0
M  V30 538 H 48.1052 4.63238 -3.00191 0
M  V30 539 H 50.5812 3.98846 -1.18581 0
M  V30 540 H 49.4572 5.3707 -1.13343 0
M  V30 541 H 49.7182 4.40986 0.313681 0
M  V30 542 N 48.7773 0.814389 1.34928 0
M  V30 543 C 49.6873 0.231978 2.3345 0
M  V30 544 C 50.7033 -0.629139 1.62228 0
M  V30 545 O 51.8793 -0.539052 1.94052 0
M  V30 546 C 48.9443 -0.603482 3.41407 0
M  V30 547 C 48.0053 0.279037 4.28392 0
M  V30 548 C 47.2383 -0.516643 5.31193 0
M  V30 549 O 47.4613 -1.75068 5.4287 0
M  V30 550 O 46.3953 0.0965652 6.01823 0
M  V30 551 H 50.2213 1.04721 2.85074 0
M  V30 552 H 47.8063 0.576343 1.37836 0
M  V30 553 H 49.6883 -1.07908 4.0735 0
M  V30 554 H 48.3633 -1.39618 2.92042 0
M  V30 555 H 47.2703 0.801948 3.65403 0
M  V30 556 H 48.6033 1.03588 4.81176 0
M  V30 557 N 50.2554 -1.46986 0.568584 0
M  V30 558 C 51.2024 -2.30153 -0.172707 0
M  V30 559 C 52.1724 -1.39759 -0.897586 0
M  V30 560 O 53.3574 -1.68716 -0.891044 0
M  V30 561 C 50.4974 -3.23952 -1.1895 0
M  V30 562 C 49.6104 -4.29441 -0.469517 0
M  V30 563 C 48.7454 -5.1038 -1.47259 0
M  V30 564 C 47.7844 -6.07632 -0.738225 0
M  V30 565 N 46.9214 -6.8149 -1.68868 0
M  V30 566 H 51.7614 -2.93019 0.542596 0
M  V30 567 H 49.2984 -1.44422 0.279401 0
M  V30 568 H 51.2564 -3.76767 -1.79173 0
M  V30 569 H 49.8864 -2.62926 -1.87269 0
M  V30 570 H 48.9384 -3.79594 0.247467 0
M  V30 571 H 50.2504 -4.98689 0.105241 0
M  V30 572 H 49.4044 -5.67402 -2.14803 0
M  V30 573 H 48.1434 -4.4106 -2.08128 0
M  V30 574 H 47.1484 -5.49778 -0.0489293 0
M  V30 575 H 48.3734 -6.78966 -0.135129 0
M  V30 576 H 46.3194 -6.14891 -2.28573 0
M  V30 577 H 46.2364 -7.46948 -1.16636 0
M  V30 578 H 47.5044 -7.43078 -2.3549 0
M  V30 579 N 51.7335 -0.305618 -1.54608 0
M  V30 580 C 52.6435 0.57778 -2.27374 0
M  V30 581 C 53.6595 1.14451 -1.31061 0
M  V30 582 O 54.8355 1.16831 -1.6405 0
M  V30 583 C 51.9005 1.73123 -3.00382 0
M  V30 584 C 50.9615 1.19812 -4.12242 0
M  V30 585 C 50.1945 2.2966 -4.81759 0
M  V30 586 O 50.4175 3.49651 -4.50666 0
M  V30 587 O 49.3515 1.96091 -5.69062 0
M  V30 588 H 53.1775 -0.012624 -3.03697 0
M  V30 589 H 50.7625 -0.0719184 -1.49227 0
M  V30 590 H 52.6445 2.40315 -3.4616 0
M  V30 591 H 51.3195 2.30815 -2.26949 0
M  V30 592 H 50.2265 0.491798 -3.70853 0
M  V30 593 H 51.5595 0.666566 -4.87666 0
M  V30 594 N 53.2116 1.57565 -0.0334293 0
M  V30 595 C 54.4596 1.91598 0.642999 0
M  V30 596 C 54.7806 0.910847 1.7242 0
M  V30 597 O 54.0506 -0.0469931 1.95844 0
M  V30 598 H 52.6306 0.707228 0.240496 0
M  V30 599 H 55.2926 1.94726 -0.0822488 0
M  V30 600 H 54.3886 2.92336 1.09298 0
M  V30 601 N 54.6897 -0.239769 1.55765 0
M  V30 602 C 55.6197 -1.30052 1.9393 0
M  V30 603 C 56.6007 -1.49839 0.805132 0
M  V30 604 O 57.7857 -1.62328 1.06599 0
M  V30 605 C 54.9157 -2.65391 2.2402 0
M  V30 606 C 53.8697 -2.60289 3.39755 0
M  V30 607 C 53.1957 -3.99489 3.55405 0
M  V30 608 C 54.4957 -2.16654 4.75246 0
M  V30 609 H 56.1897 -0.983573 2.82783 0
M  V30 610 H 53.7357 -0.471701 1.36055 0
M  V30 611 H 55.6887 -3.3974 2.49308 0
M  V30 612 H 54.4127 -2.98736 1.32 0
M  V30 613 H 53.0717 -1.88398 3.14487 0
M  V30 614 H 52.7197 -4.30112 2.60793 0
M  V30 615 H 52.4197 -3.96962 4.33238 0
M  V30 616 H 53.9437 -4.75528 3.83022 0
M  V30 617 H 55.3577 -2.80737 4.99859 0
M  V30 618 H 53.7547 -2.25223 5.56232 0
M  V30 619 H 54.8247 -1.11835 4.71827 0
M  V30 620 N 56.1678 -1.49265 -0.50573 0
M  V30 621 C 57.4078 -1.60128 -1.27038 0
M  V30 622 C 57.7718 -0.279557 -1.89954 0
M  V30 623 O 58.9728 -0.263329 -2.67507 0
M  V30 624 C 57.2438 -2.72507 -2.31246 0
M  V30 625 S 58.8028 -3.0329 -3.17113 0
M  V30 626 H 55.6208 -0.564863 -0.4318 0
M  V30 627 H 58.2228 -1.86902 -0.573397 0
M  V30 628 H 56.9268 -3.67068 -1.83546 0
M  V30 629 H 56.4578 -2.4771 -3.05619 0
M  V30 630 H 58.4728 -2.44448 -4.31809 0
M  V30 631 N 57.6459 0.756429 -1.3826 0
M  V30 632 C 58.5939 1.89149 -1.35372 0
M  V30 633 C 59.5879 1.67691 -0.24004 0
M  V30 634 O 60.7939 1.75294 -0.408919 0
M  V30 635 H 57.1689 0.622271 -0.422236 0
M  V30 636 H 59.1399 1.88701 -2.31159 0
M  V30 637 C 57.8889 3.26599 -1.19284 0
M  V30 638 H 57.2119 3.43695 -2.0424 0
M  V30 639 H 58.6519 4.06274 -1.21316 0
M  V30 640 C 57.1109 3.3675 0.100454 0
M  V30 641 O 57.6409 3.86951 1.07851 0
M  V30 642 N 55.8469 2.90179 0.15633 0
M  V30 643 H 55.3939 2.49517 -0.640253 0
M  V30 644 H 55.3519 2.97352 1.02123 0
M  V30 645 N 59.124 1.23083 0.984299 0
M  V30 646 C 60.087 1.00979 2.05757 0
M  V30 647 C 61.087 -0.0269573 1.60777 0
M  V30 648 O 62.277 0.212403 1.729 0
M  V30 649 C 59.409 0.527072 3.36801 0
M  V30 650 H 60.602 1.9622 2.26799 0
M  V30 651 H 58.155 1.05072 1.15714 0
M  V30 652 H 58.89 -0.429294 3.21446 0
M  V30 653 H 58.675 1.27515 3.70786 0
M  V30 654 H 60.165 0.392942 4.15747 0
M  V30 655 N 60.6021 -1.18246 1.0419 0
M  V30 656 C 61.8421 -1.89948 0.754916 0
M  V30 657 C 62.2061 -1.78608 -0.70451 0
M  V30 658 O 63.4071 -2.4503 -1.10516 0
M  V30 659 C 61.6781 -3.36305 1.20969 0
M  V30 660 S 63.2371 -4.26088 1.04854 0
M  V30 661 H 60.0551 -0.655897 0.274446 0
M  V30 662 H 62.6571 -1.42873 1.33445 0
M  V30 663 H 61.3611 -3.42089 2.26722 0
M  V30 664 H 60.8921 -3.8842 0.624004 0
M  V30 665 H 62.9071 -4.96189 -0.0332896 0
M  V30 666 N 62.0802 -0.821533 -1.34494 0
M  V30 667 C 63.3082 -0.421884 -2.02553 0
M  V30 668 C 63.7232 0.971745 -1.61872 0
M  V30 669 O 63.0802 1.62864 -0.823496 0
M  V30 670 C 63.1312 -0.51285 -3.57844 0
M  V30 671 O 62.8522 -1.85155 -3.97051 0
M  V30 672 C 64.3532 -0.107921 -4.43169 0
M  V30 673 H 61.5732 -0.169482 -0.649243 0
M  V30 674 H 64.1172 -1.1093 -1.71798 0
M  V30 675 H 62.2722 0.126474 -3.87193 0
M  V30 676 H 62.6862 -1.82482 -4.91732 0
M  V30 677 H 64.1602 -0.222657 -5.51551 0
M  V30 678 H 64.6372 0.948401 -4.28838 0
M  V30 679 H 65.2432 -0.720989 -4.19144 0
M  V30 680 N 63.5583 1.46682 -0.576371 0
M  V30 681 C 64.8043 2.03287 -0.0679305 0
M  V30 682 C 65.1593 1.44063 1.27529 0
M  V30 683 O 64.4523 0.593973 1.82161 0
M  V30 684 C 64.6463 3.57345 0.062886 0
M  V30 685 C 64.4753 4.31509 -1.26611 0
M  V30 686 C 63.2453 4.70664 -1.83856 0
M  V30 687 C 65.4433 4.65444 -2.18783 0
M  V30 688 N 63.4253 5.29552 -3.10561 0
M  V30 689 C 64.7963 5.24835 -3.30072 0
M  V30 690 C 66.8513 4.47375 -2.18542 0
M  V30 691 C 65.5543 5.68063 -4.41244 0
M  V30 692 C 67.5803 4.91614 -3.28739 0
M  V30 693 C 66.9423 5.51071 -4.38748 0
M  V30 694 H 63.0413 0.779083 -0.0674836 0
M  V30 695 H 65.6253 1.78918 -0.767877 0
M  V30 696 H 63.7963 3.8144 0.731988 0
M  V30 697 H 65.5283 4.00592 0.575134 0
M  V30 698 H 62.2833 4.53224 -1.37424 0
M  V30 699 H 62.7073 5.63523 -3.75195 0
M  V30 700 H 67.3493 4.00747 -1.34765 0
M  V30 701 H 65.0673 6.13672 -5.25768 0
M  V30 702 H 68.6533 4.79389 -3.29662 0
M  V30 703 H 67.5333 5.84678 -5.22611 0
M  V30 704 N 65.0364 0.313813 1.54444 0
M  V30 705 C 66.4524 -0.0391619 1.59552 0
M  V30 706 C 66.6524 -1.51322 1.33056 0
M  V30 707 O 65.7084 -2.26782 1.11022 0
M  V30 708 C 67.0214 0.370302 2.98411 0
M  V30 709 C 68.5694 0.320139 3.11358 0
M  V30 710 C 69.0444 0.704617 4.52547 0
M  V30 711 N 70.5354 0.657645 4.58508 0
M  V30 712 C 71.2704 0.927453 5.6585 0
M  V30 713 N 70.7664 1.26389 6.81174 0
M  V30 714 N 72.5594 0.853662 5.5558 0
M  V30 715 H 64.7104 1.27433 1.69925 0
M  V30 716 H 66.9734 0.517511 0.794284 0
M  V30 717 H 66.6794 1.39694 3.22767 0
M  V30 718 H 66.5534 -0.269619 3.76235 0
M  V30 719 H 68.9404 -0.697275 2.86744 0
M  V30 720 H 69.0214 0.99486 2.35661 0
M  V30 721 H 68.6654 1.7199 4.77893 0
M  V30 722 H 68.5954 0.00768843 5.26599 0
M  V30 723 H 71.0864 0.409067 3.75679 0
M  V30 724 H 71.3994 1.4554 7.58972 0
M  V30 725 H 69.7444 1.30206 6.82694 0
M  V30 726 H 72.9354 0.590383 4.64362 0
M  V30 727 H 73.1084 1.0673 6.3915 0
M  V30 728 N 66.5145 -1.57545 0.0417849 0
M  V30 729 C 67.4465 -2.07904 -0.964799 0
M  V30 730 C 68.4595 -1.00497 -1.28079 0
M  V30 731 O 69.6485 -1.28087 -1.24322 0
M  V30 732 C 66.7485 -2.49928 -2.28887 0
M  V30 733 C 65.9215 -3.80562 -2.15619 0
M  V30 734 C 64.9805 -4.08999 -3.31069 0
M  V30 735 O 64.0065 -4.79061 -3.0739 0
M  V30 736 N 65.2085 -3.6017 -4.55256 0
M  V30 737 H 67.9735 -2.94886 -0.535029 0
M  V30 738 H 65.5345 -1.61252 -0.144681 0
M  V30 739 H 67.5265 -2.66034 -3.04972 0
M  V30 740 H 66.0965 -1.68245 -2.63463 0
M  V30 741 H 65.3165 -3.74129 -1.24183 0
M  V30 742 H 66.6045 -4.66126 -2.03971 0
M  V30 743 H 66.0025 -3.03512 -4.77386 0
M  V30 744 H 64.5595 -3.81532 -5.28466 0
M  V30 745 N 67.9926 0.231505 -1.5589 0
M  V30 746 C 68.9406 1.30649 -1.92441 0
M  V30 747 C 69.9346 1.49037 -0.805254 0
M  V30 748 O 71.1406 1.50329 -0.990007 0
M  V30 749 H 67.5156 0.437812 -0.611412 0
M  V30 750 H 69.4866 0.970973 -2.82161 0
M  V30 751 C 68.2356 2.65179 -2.24889 0
M  V30 752 H 67.5586 2.51835 -3.10514 0
M  V30 753 H 68.9986 3.39234 -2.54355 0
M  V30 754 C 67.4576 3.19439 -1.07054 0
M  V30 755 O 67.9876 4.00371 -0.326499 0
M  V30 756 N 66.1936 2.77675 -0.85703 0
M  V30 757 H 65.7406 2.11969 -1.46379 0
M  V30 758 H 65.6986 3.14321 -0.0703223 0
M  V30 759 N 69.4707 1.49531 0.497807 0
M  V30 760 C 70.6987 1.62893 1.27567 0
M  V30 761 C 71.1137 0.301585 1.86376 0
M  V30 762 O 70.4707 -0.713335 1.67982 0
M  V30 763 C 70.5217 2.70013 2.40364 0
M  V30 764 O 70.2427 3.976 1.83972 0
M  V30 765 C 71.7437 2.94109 3.31685 0
M  V30 766 H 68.9637 0.548298 0.386794 0
M  V30 767 H 71.5077 1.95584 0.597245 0
M  V30 768 H 69.6627 2.40092 3.04031 0
M  V30 769 H 70.0767 4.56631 2.58047 0
M  V30 770 H 71.5507 3.72788 4.07104 0
M  V30 771 H 72.0277 2.04147 3.88871 0
M  V30 772 H 72.6337 3.2546 2.73781 0
M  V30 773 N 70.9488 -0.749086 1.3866 0
M  V30 774 C 71.8958 -1.86291 1.36251 0
M  V30 775 C 72.8658 -1.64578 0.224347 0
M  V30 776 O 74.0508 -1.86181 0.417279 0
M  V30 777 C 71.1908 -3.23644 1.19786 0
M  V30 778 C 70.3038 -3.57158 2.43027 0
M  V30 779 C 69.4388 -4.83838 2.19258 0
M  V30 780 C 68.4778 -5.10152 3.38247 0
M  V30 781 N 67.6148 -6.28029 3.13884 0
M  V30 782 H 72.4548 -1.87685 2.3147 0
M  V30 783 H 69.9918 -0.917287 1.14997 0
M  V30 784 H 71.9498 -4.0291 1.08254 0
M  V30 785 H 70.5798 -3.21566 0.282031 0
M  V30 786 H 69.6318 -2.72701 2.65214 0
M  V30 787 H 70.9438 -3.7253 3.31697 0
M  V30 788 H 70.0978 -5.71057 2.04888 0
M  V30 789 H 68.8368 -4.70614 1.2796 0
M  V30 790 H 67.8418 -4.21401 3.53131 0
M  V30 791 H 69.0668 -5.25271 4.30427 0
M  V30 792 H 67.0128 -6.1612 2.25238 0
M  V30 793 H 66.9298 -6.43922 3.96106 0
M  V30 794 H 68.1978 -7.18124 3.03179 0
M  V30 795 N 72.4269 -1.23603 -0.977757 0
M  V30 796 C 73.6519 -1.09735 -1.75991 0
M  V30 797 C 74.0769 0.346858 -1.84874 0
M  V30 798 O 73.4349 1.25093 -1.3123 0
M  V30 799 C 73.4829 -1.73051 -3.16363 0
M  V30 800 O 72.5869 -0.994452 -4.0023 0
M  V30 801 H 71.9279 -0.384476 -0.541364 0
M  V30 802 H 74.4579 -1.6371 -1.2272 0
M  V30 803 H 74.4679 -1.78398 -3.66931 0
M  V30 804 H 73.1429 -2.78137 -3.09213 0
M  V30 805 H 71.7199 -1.01812 -3.58732 0
M  V30 806 N 73.905 1.17692 -1.04816 0
M  V30 807 C 75.13 1.92327 -0.776207 0
M  V30 808 C 75.555 1.76082 0.661581 0
M  V30 809 O 74.913 1.076 1.45917 0
M  V30 810 C 74.961 3.41539 -1.15687 0
M  V30 811 O 74.065 4.11402 -0.286775 0
M  V30 812 H 73.406 0.599735 -0.284981 0
M  V30 813 H 75.936 1.49201 -1.4 0
M  V30 814 H 75.946 3.92269 -1.12202 0
M  V30 815 H 74.621 3.52684 -2.20425 0
M  V30 816 H 73.198 3.70939 -0.381903 0
M  V30 817 N 75.3831 0.828654 1.34056 0
M  V30 818 C 76.7991 0.515135 1.51058 0
M  V30 819 C 76.9991 -0.959581 1.77184 0
M  V30 820 O 76.0551 -1.74382 1.82612 0
M  V30 821 C 77.3681 1.37963 2.67183 0
M  V30 822 C 78.9161 1.37735 2.81066 0
M  V30 823 C 79.3911 2.22645 4.00241 0
M  V30 824 N 80.8821 2.203 4.07458 0
M  V30 825 C 81.6171 2.82744 4.98842 0
M  V30 826 N 81.1131 3.54201 5.9541 0
M  V30 827 N 82.9061 2.72268 4.91759 0
M  V30 828 H 75.0571 1.78343 1.15358 0
M  V30 829 H 77.3201 0.760304 0.566252 0
M  V30 830 H 77.0261 2.42714 2.54525 0
M  V30 831 H 76.9001 1.0484 3.62338 0
M  V30 832 H 79.2871 0.337593 2.93163 0
M  V30 833 H 79.3681 1.74859 1.86703 0
M  V30 834 H 79.0121 3.26674 3.88905 0
M  V30 835 H 78.9421 1.82869 4.93829 0
M  V30 836 H 81.4331 1.68327 3.38341 0
M  V30 837 H 81.7461 3.9908 6.61782 0
M  V30 838 H 80.0911 3.58308 5.95517 0
M  V30 839 H 83.2821 2.16014 4.15278 0
M  V30 840 H 83.4551 3.21219 5.62781 0
M  V30 841 N 76.8612 -1.46375 0.584142 0
M  V30 842 C 78.1102 -2.01585 0.0679741 0
M  V30 843 C 78.4232 -1.46109 -1.30045 0
M  V30 844 O 79.6292 -1.93148 -1.90804 0
M  V30 845 C 78.0852 -3.5983 0.0709207 0
M  V30 846 C 77.6932 -4.24303 1.43775 0
M  V30 847 C 79.4372 -4.22693 -0.391228 0
M  V30 848 C 77.3442 -5.74631 1.39834 0
M  V30 849 H 76.2742 -0.753689 0.0216421 0
M  V30 850 H 78.9252 -1.68093 0.736001 0
M  V30 851 H 77.3072 -3.90405 -0.663299 0
M  V30 852 H 78.4812 -4.05335 2.19181 0
M  V30 853 H 76.7962 -3.73539 1.84004 0
M  V30 854 H 79.3932 -5.3289 -0.439524 0
M  V30 855 H 79.7362 -3.91728 -1.40906 0
M  V30 856 H 80.2692 -3.96749 0.288974 0
M  V30 857 H 77.0082 -6.10258 2.39303 0
M  V30 858 H 76.5282 -5.95858 0.686505 0
M  V30 859 H 78.2072 -6.37375 1.11187 0
M  V30 860 N 78.3393 -0.321999 -1.54275 0
M  V30 861 C 79.2493 0.553631 -2.27974 0
M  V30 862 C 80.2653 1.13054 -1.32268 0
M  V30 863 O 81.4413 1.15084 -1.6528 0
M  V30 864 C 78.5063 1.69927 -3.02201 0
M  V30 865 C 77.5673 1.15433 -4.1349 0
M  V30 866 C 76.8003 2.24537 -4.84168 0
M  V30 867 O 77.0233 3.44852 -4.5435 0
M  V30 868 O 75.9573 1.90044 -5.7111 0
M  V30 869 H 79.7833 -0.0448345 -3.03667 0
M  V30 870 H 77.3683 -0.0877418 -1.49142 0
M  V30 871 H 79.2503 2.3663 -3.48689 0
M  V30 872 H 77.9253 2.28395 -2.29385 0
M  V30 873 H 76.8323 0.452436 -3.71354 0
M  V30 874 H 78.1653 0.614805 -4.88345 0
M  V30 875 N 79.8174 1.5752 -0.0501392 0
M  V30 876 C 80.7804 2.1037 0.909786 0
M  V30 877 C 81.7804 1.02308 1.24056 0
M  V30 878 O 82.9704 1.28385 1.17741 0
M  V30 879 C 80.1024 2.58708 2.21998 0
M  V30 880 H 81.2954 2.96479 0.451665 0
M  V30 881 H 78.8484 1.55038 0.198248 0
M  V30 882 H 79.5834 1.75989 2.72394 0
M  V30 883 H 79.3684 3.37675 1.99295 0
M  V30 884 H 80.8584 2.99747 2.9076 0
M  V30 885 N 81.2955 -0.223234 1.56011 0
M  V30 886 C 82.5445 -0.945912 1.78144 0
M  V30 887 C 82.8575 -1.85567 0.618396 0
M  V30 888 O 84.0635 -2.61688 0.723318 0
M  V30 889 C 82.5195 -1.73216 3.15475 0
M  V30 890 C 82.1275 -0.868619 4.39499 0
M  V30 891 C 83.8715 -2.44615 3.46935 0
M  V30 892 C 81.7785 -1.65212 5.67855 0
M  V30 893 H 80.7085 -0.356929 0.664167 0
M  V30 894 H 83.3595 -0.199845 1.82409 0
M  V30 895 H 81.7415 -2.52107 3.05382 0
M  V30 896 H 82.9155 -0.120366 4.60643 0
M  V30 897 H 81.2305 -0.26683 4.15544 0
M  V30 898 H 83.8275 -3.03732 4.40058 0
M  V30 899 H 84.1705 -3.17417 2.69355 0
M  V30 900 H 84.7035 -1.72715 3.58349 0
M  V30 901 H 81.4425 -0.967407 6.48322 0
M  V30 902 H 80.9625 -2.37503 5.50774 0
M  V30 903 H 82.6415 -2.21322 6.07968 0
M  V30 904 N 82.7736 -1.49793 -0.48987 0
M  V30 905 C 83.7206 -1.67281 -1.59014 0
M  V30 906 C 84.6906 -0.514177 -1.57941 0
M  V30 907 O 85.8756 -0.742533 -1.75759 0
M  V30 908 C 83.0156 -1.75569 -2.97102 0
M  V30 909 C 82.1286 -3.0281 -3.08107 0
M  V30 910 C 81.2636 -3.02008 -4.36995 0
M  V30 911 C 80.3026 -4.23782 -4.41673 0
M  V30 912 N 79.4396 -4.20826 -5.62005 0
M  V30 913 H 84.2796 -2.61224 -1.43409 0
M  V30 914 H 81.8166 -1.29508 -0.697565 0
M  V30 915 H 83.7746 -1.78354 -3.77155 0
M  V30 916 H 82.4046 -0.850827 -3.11385 0
M  V30 917 H 81.4566 -3.09584 -2.21047 0
M  V30 918 H 82.7686 -3.92801 -3.07423 0
M  V30 919 H 81.9226 -3.03418 -5.25378 0
M  V30 920 H 80.6616 -2.09815 -4.4026 0
M  V30 921 H 79.6666 -4.22604 -3.5169 0
M  V30 922 H 80.8916 -5.17181 -4.40115 0
M  V30 923 H 78.8376 -3.31476 -5.66091 0
M  V30 924 H 78.7546 -5.04564 -5.62984 0
M  V30 925 H 80.0226 -4.26355 -6.52565 0
M  V30 926 N 84.2517 0.741722 -1.39055 0
M  V30 927 C 85.5007 1.49656 -1.35225 0
M  V30 928 C 85.8137 1.95533 0.0512708 0
M  V30 929 O 87.0197 2.7067 0.212138 0
M  V30 930 C 85.4757 2.70389 -2.37525 0
M  V30 931 C 85.0837 2.31489 -3.83558 0
M  V30 932 C 86.8277 3.48236 -2.42759 0
M  V30 933 C 84.7347 3.48903 -4.77515 0
M  V30 934 H 83.6647 0.56197 -0.502699 0
M  V30 935 H 86.3157 0.809727 -1.64668 0
M  V30 936 H 84.6977 3.41113 -2.01142 0
M  V30 937 H 85.8717 1.68354 -4.28945 0
M  V30 938 H 84.1867 1.66749 -3.81554 0
M  V30 939 H 86.7837 4.35558 -3.1015 0
M  V30 940 H 87.1267 3.90229 -1.45008 0
M  V30 941 H 87.6597 2.84535 -2.78002 0
M  V30 942 H 84.3987 3.11966 -5.76504 0
M  V30 943 H 83.9187 4.11041 -4.36813 0
M  V30 944 H 85.5977 4.15328 -4.96096 0
M  V30 945 N 85.7298 1.2412 0.971189 0
M  V30 946 C 86.6618 0.988349 2.06795 0
M  V30 947 C 87.6748 -0.0409541 1.62748 0
M  V30 948 O 88.8638 0.195673 1.77424 0
M  V30 949 C 85.9638 0.469023 3.35639 0
M  V30 950 C 85.1368 1.56065 4.08611 0
M  V30 951 C 84.1958 1.04458 5.15728 0
M  V30 952 O 83.2218 1.73553 5.42096 0
M  V30 953 N 84.4238 -0.122817 5.8037 0
M  V30 954 H 87.1888 1.93265 2.29061 0
M  V30 955 H 84.7498 1.15102 1.13856 0
M  V30 956 H 86.7418 0.108613 4.04554 0
M  V30 957 H 85.3118 -0.380919 3.1027 0
M  V30 958 H 84.5318 2.09341 3.34021 0
M  V30 959 H 85.8198 2.29449 4.54126 0
M  V30 960 H 85.2178 -0.700563 5.61345 0
M  V30 961 H 83.7748 -0.424404 6.50417 0
M  V30 962 N 87.2079 -1.17134 1.05439 0
M  V30 963 C 88.4569 -1.86791 0.761049 0
M  V30 964 C 88.7699 -1.82072 -0.714795 0
M  V30 965 O 89.9759 -2.47223 -1.12218 0
M  V30 966 C 88.4319 -3.35166 1.31117 0
M  V30 967 C 88.0399 -3.48381 2.81664 0
M  V30 968 C 89.7839 -4.10134 1.09499 0
M  V30 969 C 87.6909 -4.90793 3.29964 0
M  V30 970 H 86.6209 -0.699681 0.281002 0
M  V30 971 H 89.2719 -1.3226 1.27199 0
M  V30 972 H 87.6539 -3.8925 0.72803 0
M  V30 973 H 88.8279 -3.04502 3.45855 0
M  V30 974 H 87.1429 -2.86836 3.01851 0
M  V30 975 H 89.7399 -5.152 1.43084 0
M  V30 976 H 90.0829 -4.16287 0.0328772 0
M  V30 977 H 90.6159 -3.62264 1.64346 0
M  V30 978 H 87.3549 -4.89816 4.35616 0
M  V30 979 H 86.8749 -5.35333 2.70516 0
M  V30 980 H 88.5539 -5.59573 3.24787 0
M  V30 981 N 88.686 -0.835752 -1.33615 0
M  V30 982 C 89.616 -0.281739 -2.31794 0
M  V30 983 C 90.597 0.608833 -1.58831 0
M  V30 984 O 91.782 0.533035 -1.86741 0
M  V30 985 C 88.912 0.546612 -3.42971 0
M  V30 986 C 87.866 -0.247904 -4.27281 0
M  V30 987 C 87.192 0.704001 -5.30045 0
M  V30 988 C 88.492 -1.46324 -5.01385 0
M  V30 989 H 90.186 -1.10206 -2.78379 0
M  V30 990 H 87.732 -0.531388 -1.33837 0
M  V30 991 H 89.685 0.944467 -4.1068 0
M  V30 992 H 88.409 1.40011 -2.95067 0
M  V30 993 H 87.068 -0.627281 -3.61194 0
M  V30 994 H 86.716 1.55381 -4.78399 0
M  V30 995 H 86.416 0.176524 -5.87335 0
M  V30 996 H 87.94 1.09944 -6.0062 0
M  V30 997 H 89.354 -1.13871 -5.61877 0
M  V30 998 H 87.751 -1.92728 -5.6831 0
M  V30 999 H 88.821 -2.23467 -4.30338 0
M  V30 1000 N 90.1641 1.46063 -0.591896 0
M  V30 1001 C 91.3891 2.07226 -0.0850314 0
M  V30 1002 C 91.8141 1.43625 1.21463 0
M  V30 1003 O 91.1721 0.523305 1.73583 0
M  V30 1004 C 91.2201 3.60554 0.0576567 0
M  V30 1005 O 90.3241 3.97128 1.11188 0
M  V30 1006 H 89.6651 0.660615 -0.0669568 0
M  V30 1007 H 92.1951 1.8756 -0.81745 0
M  V30 1008 H 92.2051 4.07165 0.2609 0
M  V30 1009 H 90.8801 4.06235 -0.891416 0
M  V30 1010 H 89.4571 3.62213 0.886356 0
M  V30 1011 N 91.6422 0.330177 1.54103 0
M  V30 1012 C 92.5892 -0.532762 2.24567 0
M  V30 1013 C 93.5592 -1.10635 1.23892 0
M  V30 1014 O 94.7442 -1.14546 1.5259 0
M  V30 1015 C 91.8842 -1.6845 3.01195 0
M  V30 1016 C 90.9972 -1.13951 4.167 0
M  V30 1017 C 90.1322 -2.25746 4.80845 0
M  V30 1018 C 89.1712 -1.6853 5.88442 0
M  V30 1019 N 88.3082 -2.74014 6.46421 0
M  V30 1020 H 93.1482 0.0746905 2.97906 0
M  V30 1021 H 90.6852 0.048632 1.4702 0
M  V30 1022 H 92.6432 -2.36234 3.43874 0
M  V30 1023 H 91.2732 -2.26314 2.30178 0
M  V30 1024 H 90.3252 -0.35301 3.78758 0
M  V30 1025 H 91.6372 -0.680892 4.94131 0
M  V30 1026 H 90.7912 -3.01422 5.26526 0
M  V30 1027 H 89.5302 -2.74947 4.0281 0
M  V30 1028 H 88.5352 -0.913543 5.42157 0
M  V30 1029 H 89.7602 -1.20198 6.68378 0
M  V30 1030 H 87.7062 -3.22494 5.71256 0
M  V30 1031 H 87.6232 -2.32735 7.19285 0
M  V30 1032 H 88.8912 -3.49499 6.96757 0
M  V30 1033 N 93.1203 -1.57491 0.0584922 0
M  V30 1034 C 94.0503 -2.14988 -0.911178 0
M  V30 1035 C 95.0313 -1.07343 -1.31952 0
M  V30 1036 O 96.2163 -1.35318 -1.39294 0
M  V30 1037 C 93.3463 -2.70078 -2.18347 0
M  V30 1038 C 92.3003 -3.82771 -1.91495 0
M  V30 1039 C 91.6263 -4.24408 -3.25241 0
M  V30 1040 C 92.9263 -5.07592 -1.23075 0
M  V30 1041 H 94.6203 -2.96263 -0.432246 0
M  V30 1042 H 92.1663 -1.42512 -0.206469 0
M  V30 1043 H 94.1193 -3.08943 -2.86587 0
M  V30 1044 H 92.8433 -1.86005 -2.68458 0
M  V30 1045 H 91.5023 -3.44389 -1.25664 0
M  V30 1046 H 91.1503 -3.37275 -3.73168 0
M  V30 1047 H 90.8503 -5.00366 -3.08071 0
M  V30 1048 H 92.3743 -4.65879 -3.94701 0
M  V30 1049 H 93.7883 -5.43857 -1.81362 0
M  V30 1050 H 92.1853 -5.88741 -1.16207 0
M  V30 1051 H 93.2553 -4.84454 -0.207847 0
M  V30 1052 N 94.5984 0.214957 -1.56127 0
M  V30 1053 C 96.0144 0.564948 -1.49267 0
M  V30 1054 C 96.2144 1.86827 -0.754838 0
M  V30 1055 O 95.2704 2.50745 -0.297198 0
M  V30 1056 C 96.5834 0.638071 -2.93852 0
M  V30 1057 C 98.1314 0.728253 -3.0441 0
M  V30 1058 C 98.6064 0.832663 -4.50367 0
M  V30 1059 N 100.097 0.896712 -4.54437 0
M  V30 1060 C 100.832 0.997324 -5.6466 0
M  V30 1061 N 100.328 1.06147 -6.8462 0
M  V30 1062 N 102.121 1.03297 -5.52527 0
M  V30 1063 H 94.2724 -0.640211 -2.02522 0
M  V30 1064 H 96.5354 -0.225507 -0.920788 0
M  V30 1065 H 96.2414 -0.250126 -3.50809 0
M  V30 1066 H 96.1154 1.49947 -3.46115 0
M  V30 1067 H 98.5024 1.60689 -2.47514 0
M  V30 1068 H 98.5834 -0.158952 -2.55306 0
M  V30 1069 H 98.2274 -0.0415417 -5.07883 0
M  V30 1070 H 98.1574 1.73538 -4.97184 0
M  V30 1071 H 100.648 0.857188 -3.6805 0
M  V30 1072 H 100.961 1.1382 -7.64372 0
M  V30 1073 H 99.3064 1.03049 -6.87318 0
M  V30 1074 H 102.497 0.979558 -4.57736 0
M  V30 1075 H 102.67 1.10793 -6.38458 0
M  V30 1076 N 96.0765 1.50051 0.48192 0
M  V30 1077 C 97.0065 1.71046 1.58951 0
M  V30 1078 C 97.9875 0.559288 1.60642 0
M  V30 1079 O 99.1725 0.797243 1.77081 0
M  V30 1080 C 96.3025 1.79462 2.97339 0
M  V30 1081 C 95.2565 2.94558 3.10515 0
M  V30 1082 C 94.5825 2.88105 4.50444 0
M  V30 1083 C 95.8825 4.35227 2.88747 0
M  V30 1084 H 97.5765 2.6378 1.41635 0
M  V30 1085 H 95.1225 1.26936 0.679942 0
M  V30 1086 H 97.0755 1.92734 3.74742 0
M  V30 1087 H 95.7995 0.833412 3.15788 0
M  V30 1088 H 94.4585 2.80918 2.35543 0
M  V30 1089 H 94.1065 1.89853 4.65795 0
M  V30 1090 H 93.8065 3.65366 4.60197 0
M  V30 1091 H 95.3305 3.03412 5.29881 0
M  V30 1092 H 96.7445 4.49449 3.55905 0
M  V30 1093 H 95.1415 5.13856 3.09955 0
M  V30 1094 H 96.2115 4.48347 1.84696 0
M  V30 1095 N 97.5546 -0.734337 1.39446 0
M  V30 1096 C 98.4646 -1.87879 1.40495 0
M  V30 1097 C 99.4806 -1.714 0.299672 0
M  V30 1098 O 100.657 -1.93991 0.541249 0
M  V30 1099 C 97.7216 -3.23477 1.24754 0
M  V30 1100 C 96.7826 -3.52344 2.45259 0
M  V30 1101 C 96.0156 -4.81473 2.30259 0
M  V30 1102 O 96.2386 -5.55237 1.30643 0
M  V30 1103 O 95.1726 -5.10254 3.19256 0
M  V30 1104 H 98.9986 -1.89949 2.36966 0
M  V30 1105 H 96.5836 -0.882243 1.20569 0
M  V30 1106 H 98.4656 -4.04509 1.18111 0
M  V30 1107 H 97.1406 -3.22176 0.313781 0
M  V30 1108 H 96.0476 -2.71396 2.57478 0
M  V30 1109 H 97.3806 -3.58426 3.37331 0
M  V30 1110 N 99.0327 -1.24633 -0.964593 0
M  V30 1111 C 100.261 -1.11501 -1.74285 0
M  V30 1112 C 100.676 0.332165 -1.85855 0
M  V30 1113 O 100.033 1.22903 -1.34911 0
M  V30 1114 C 100.084 -1.75258 -3.16175 0
M  V30 1115 O 99.8047 -3.14318 -3.05182 0
M  V30 1116 C 101.306 -1.67776 -4.10324 0
M  V30 1117 H 98.5257 -0.389407 -0.546446 0
M  V30 1118 H 101.07 -1.64801 -1.21083 0
M  V30 1119 H 99.2247 -1.25954 -3.66353 0
M  V30 1120 H 99.6387 -3.4551 -3.94618 0
M  V30 1121 H 101.113 -2.17064 -5.0753 0
M  V30 1122 H 101.59 -0.639584 -4.34518 0
M  V30 1123 H 102.196 -2.16522 -3.66058 0
M  V30 1124 N 100.511 1.16574 -1.06058 0
M  V30 1125 C 101.474 2.19085 -0.673392 0
M  V30 1126 C 102.474 1.5835 0.279648 0
M  V30 1127 O 103.664 1.74088 0.0623488 0
M  V30 1128 C 100.796 3.40899 0.00954234 0
M  V30 1129 H 101.989 2.54853 -1.58081 0
M  V30 1130 H 99.5418 1.30808 -0.855516 0
M  V30 1131 H 100.277 3.10684 0.929826 0
M  V30 1132 H 100.062 3.86233 -0.67573 0
M  V30 1133 H 101.552 4.1675 0.266245 0
M  V30 1134 N 101.989 0.842826 1.3317 0
M  V30 1135 C 103.4 0.496651 1.79973 0
M  V30 1136 C 103.751 -0.984641 1.69703 0
M  V30 1137 O 102.876 -1.76743 1.24863 0
M  V30 1138 C 103.471 0.894727 3.26772 0
M  V30 1139 C 102.03 0.600629 3.71577 0
M  V30 1140 C 101.177 1.10091 2.5451 0
M  V30 1141 H 104.128 1.03116 1.20635 0
M  V30 1142 H 104.149 0.206347 3.7994 0
M  V30 1143 H 103.661 1.97287 3.34215 0
M  V30 1144 H 101.762 -0.467284 3.69658 0
M  V30 1145 H 101.875 1.15863 4.64879 0
M  V30 1146 H 100.239 0.52162 2.49301 0
M  V30 1147 H 101.022 2.18591 2.64713 0
M  V30 1148 N 103.467 -1.45747 0.599634 0
M  V30 1149 C 104.415 -2.322 -0.136426 0
M  V30 1150 C 105.409 -1.45497 -0.867583 0
M  V30 1151 O 106.615 -1.62027 -0.78405 0
M  V30 1152 H 102.99 -0.749368 -0.0628588 0
M  V30 1153 H 104.961 -2.92072 0.611281 0
M  V30 1154 C 103.71 -3.28974 -1.12567 0
M  V30 1155 H 103.033 -3.9568 -0.572484 0
M  V30 1156 H 104.473 -3.92212 -1.61077 0
M  V30 1157 C 102.932 -2.55561 -2.19523 0
M  V30 1158 O 103.462 -2.33111 -3.27143 0
M  V30 1159 N 101.668 -2.15832 -1.94589 0
M  V30 1160 H 101.215 -2.3429 -1.07078 0
M  V30 1161 H 101.173 -1.67034 -2.66359 0
M  V30 1162 N 104.945 -0.338344 -1.53925 0
M  V30 1163 C 106.194 0.260732 -2.00008 0
M  V30 1164 C 106.507 1.52073 -1.23017 0
M  V30 1165 O 107.713 2.19672 -1.5955 0
M  V30 1166 C 106.169 0.51515 -3.56194 0
M  V30 1167 C 105.777 -0.728645 -4.42035 0
M  V30 1168 C 107.521 1.07337 -4.10706 0
M  V30 1169 C 105.428 -0.445315 -5.89721 0
M  V30 1170 H 104.358 0.101205 -0.747177 0
M  V30 1171 H 107.009 -0.452866 -1.77824 0
M  V30 1172 H 105.391 1.28932 -3.74423 0
M  V30 1173 H 106.565 -1.50352 -4.35581 0
M  V30 1174 H 104.88 -1.20813 -3.98489 0
M  V30 1175 H 107.477 1.30022 -5.18651 0
M  V30 1176 H 107.82 2.0273 -3.63602 0
M  V30 1177 H 108.353 0.360034 -3.96167 0
M  V30 1178 H 105.092 -1.36883 -6.41049 0
M  V30 1179 H 104.612 0.291569 -5.99091 0
M  V30 1180 H 106.291 -0.0606218 -6.46972 0
M  V30 1181 N 106.423 1.57458 -0.0668435 0
M  V30 1182 C 107.648 1.9804 0.616027 0
M  V30 1183 C 108.073 0.944771 1.62652 0
M  V30 1184 O 107.431 -0.0902094 1.81075 0
M  V30 1185 C 107.479 3.37665 1.26549 0
M  V30 1186 O 106.583 3.36701 2.38131 0
M  V30 1187 H 105.924 0.644719 0.158849 0
M  V30 1188 H 108.454 2.04121 -0.139891 0
M  V30 1189 H 108.464 3.7474 1.6135 0
M  V30 1190 H 107.139 4.12573 0.525016 0
M  V30 1191 H 105.716 3.1139 2.0516 0
M  V30 1192 N 107.901 -0.206675 1.56239 0
M  V30 1193 C 108.848 -1.25617 1.93621 0
M  V30 1194 C 109.818 -1.45824 0.795274 0
M  V30 1195 O 111.003 -1.59148 1.05245 0
M  V30 1196 C 108.143 -2.59839 2.27107 0
M  V30 1197 C 107.256 -2.47308 3.54207 0
M  V30 1198 C 106.391 -3.74155 3.7707 0
M  V30 1199 C 105.43 -3.56407 4.97635 0
M  V30 1200 N 104.567 -4.75238 5.1681 0
M  V30 1201 H 109.407 -0.930383 2.83104 0
M  V30 1202 H 106.944 -0.448065 1.4011 0
M  V30 1203 H 108.902 -3.38021 2.44535 0
M  V30 1204 H 107.532 -2.90485 1.40778 0
M  V30 1205 H 106.584 -1.60483 3.4489 0
M  V30 1206 H 107.896 -2.30122 4.42544 0
M  V30 1207 H 107.05 -4.60778 3.94675 0
M  V30 1208 H 105.789 -3.94282 2.87042 0
M  V30 1209 H 104.794 -2.68168 4.79964 0
M  V30 1210 H 106.019 -3.37736 5.89161 0
M  V30 1211 H 103.965 -4.95651 4.29728 0
M  V30 1212 H 103.882 -4.60835 5.99306 0
M  V30 1213 H 105.15 -5.63246 5.38864 0
M  V30 1214 N 109.379 -1.50304 -0.473955 0
M  V30 1215 C 110.656 -1.51667 -1.23518 0
M  V30 1216 C 111.036 -0.259701 -2.09496 0
M  V30 1217 O 110.384 0.756986 -2.15597 0
M  V30 1218 C 110.594 -2.81082 -2.06868 0
M  V30 1219 C 111.942 -3.31631 -2.65153 0
M  V30 1220 O 112.966 -2.82384 -2.17113 0
M  V30 1221 O 111.825 -4.17471 -3.52675 0
M  V30 1222 H 108.919 -0.60822 -0.560355 0
M  V30 1223 H 111.465 -1.62592 -0.486011 0
M  V30 1224 H 110.237 -3.64041 -1.4349 0
M  V30 1225 H 109.86 -2.73146 -2.88924 0
M  V30 1226 N 110.857 0.726932 -1.39834 0
M  V30 1227 C 112.103 1.48884 -1.377 0
M  V30 1228 C 112.436 1.94185 0.0244852 0
M  V30 1229 O 111.711 1.67361 0.990986 0
M  V30 1230 C 111.994 2.72288 -2.3565 0
M  V30 1231 C 111.847 2.32956 -3.84775 0
M  V30 1232 C 113.166 3.74414 -2.31306 0
M  V30 1233 H 110.285 0.540062 -0.5015 0
M  V30 1234 H 112.927 0.830547 -1.70886 0
M  V30 1235 H 111.077 3.28457 -2.07481 0
M  V30 1236 H 112.749 1.82356 -4.23726 0
M  V30 1237 H 110.992 1.65088 -4.01159 0
M  V30 1238 H 111.663 3.21362 -4.4881 0
M  V30 1239 H 114.139 3.27849 -2.56231 0
M  V30 1240 H 113.015 4.58414 -3.01907 0
M  V30 1241 H 113.276 4.21909 -1.32081 0
M  V30 1242 N 112.336 1.25143 0.95797 0
M  V30 1243 C 113.585 1.0909 1.69654 0
M  V30 1244 C 113.898 -0.368548 1.92097 0
M  V30 1245 O 115.104 -0.649455 2.63618 0
M  V30 1246 C 113.56 1.90395 3.05414 0
M  V30 1247 C 113.168 3.4081 2.90779 0
M  V30 1248 C 114.912 1.82901 3.83076 0
M  V30 1249 C 112.819 4.14423 4.21909 0
M  V30 1250 H 111.749 0.404625 0.636235 0
M  V30 1251 H 114.4 1.4931 1.06672 0
M  V30 1252 H 112.782 1.42996 3.69281 0
M  V30 1253 H 113.956 3.95859 2.35865 0
M  V30 1254 H 112.271 3.49361 2.26575 0
M  V30 1255 H 114.868 2.35196 4.80195 0
M  V30 1256 H 115.211 0.796224 4.08615 0
M  V30 1257 H 115.744 2.28033 3.25954 0
M  V30 1258 H 112.483 5.18102 4.01561 0
M  V30 1259 H 112.003 3.64159 4.76601 0
M  V30 1260 H 113.682 4.21956 4.90471 0
M  V30 1261 N 113.814 -1.1601 1.06675 0
M  V30 1262 C 115.23 -1.38622 0.790948 0
M  V30 1263 C 115.43 -1.92109 -0.607965 0
M  V30 1264 O 114.486 -2.12239 -1.36787 0
M  V30 1265 C 115.799 -2.36347 1.85905 0
M  V30 1266 C 117.347 -2.50023 1.88301 0
M  V30 1267 C 117.822 -3.51033 2.94176 0
M  V30 1268 N 119.313 -3.58563 2.93235 0
M  V30 1269 C 120.048 -4.36521 3.71803 0
M  V30 1270 N 119.544 -5.17869 4.602 0
M  V30 1271 N 121.337 -4.31541 3.60178 0
M  V30 1272 H 113.488 -0.796294 1.96908 0
M  V30 1273 H 115.751 -0.412597 0.853503 0
M  V30 1274 H 115.457 -2.04147 2.86386 0
M  V30 1275 H 115.331 -3.36042 1.71334 0
M  V30 1276 H 117.718 -2.81524 0.884769 0
M  V30 1277 H 117.799 -1.5035 2.06951 0
M  V30 1278 H 117.443 -3.20268 3.94196 0
M  V30 1279 H 117.373 -4.50445 2.72776 0
M  V30 1280 H 119.864 -3.00496 2.29152 0
M  V30 1281 H 120.177 -5.74578 5.16797 0
M  V30 1282 H 118.522 -5.17199 4.64253 0
M  V30 1283 H 121.713 -3.67051 2.90502 0
M  V30 1284 H 121.886 -4.9205 4.21653 0
M  V30 1285 N 115.292 -0.849877 -1.32721 0
M  V30 1286 C 116.224 -0.248332 -2.27851 0
M  V30 1287 C 117.237 0.577218 -1.52224 0
M  V30 1288 O 118.426 0.402489 -1.73903 0
M  V30 1289 C 115.526 0.668107 -3.32249 0
M  V30 1290 C 114.699 -0.120534 -4.37234 0
M  V30 1291 C 113.758 0.720932 -5.21238 0
M  V30 1292 O 112.784 0.156166 -5.68986 0
M  V30 1293 N 113.986 2.03647 -5.43607 0
M  V30 1294 H 116.751 -1.06575 -2.80111 0
M  V30 1295 H 114.312 -0.709395 -1.45531 0
M  V30 1296 H 116.304 1.23627 -3.85355 0
M  V30 1297 H 114.874 1.38621 -2.80184 0
M  V30 1298 H 114.094 -0.870108 -3.84477 0
M  V30 1299 H 115.382 -0.662406 -5.0447 0
M  V30 1300 H 114.78 2.51871 -5.06535 0
M  V30 1301 H 113.337 2.55287 -5.99727 0
M  V30 1302 N 116.77 1.45427 -0.607355 0
M  V30 1303 C 117.7 2.3329 0.0989352 0
M  V30 1304 C 118.681 1.46816 0.859007 0
M  V30 1305 O 119.866 1.75588 0.829604 0
M  V30 1306 C 116.996 3.29518 1.09705 0
M  V30 1307 C 115.95 4.25626 0.450206 0
M  V30 1308 C 115.276 5.11542 1.55655 0
M  V30 1309 C 116.576 5.18505 -0.628455 0
M  V30 1310 H 118.27 2.92595 -0.634716 0
M  V30 1311 H 115.816 1.40696 -0.306681 0
M  V30 1312 H 117.769 3.89855 1.59971 0
M  V30 1313 H 116.493 2.68372 1.86129 0
M  V30 1314 H 115.152 3.66586 -0.0315886 0
M  V30 1315 H 114.8 4.46765 2.31107 0
M  V30 1316 H 114.5 5.76647 1.12925 0
M  V30 1317 H 116.024 5.74748 2.06148 0
M  V30 1318 H 117.438 5.72916 -0.209877 0
M  V30 1319 H 115.835 5.92085 -0.977489 0
M  V30 1320 H 116.905 4.60948 -1.50514 0
M  V30 1321 N 118.248 0.346503 1.53744 0
M  V30 1322 C 119.178 -0.501193 2.28058 0
M  V30 1323 C 120.159 -1.10014 1.29734 0
M  V30 1324 O 121.344 -1.12097 1.58581 0
M  V30 1325 C 118.474 -1.65078 3.05559 0
M  V30 1326 C 117.428 -1.18003 4.11411 0
M  V30 1327 C 116.754 -2.41837 4.76884 0
M  V30 1328 C 118.054 -0.278394 5.21558 0
M  V30 1329 H 119.748 0.11875 2.99164 0
M  V30 1330 H 117.294 0.0585531 1.43881 0
M  V30 1331 H 119.247 -2.25028 3.56287 0
M  V30 1332 H 117.971 -2.29767 2.32109 0
M  V30 1333 H 116.63 -0.603331 3.61601 0
M  V30 1334 H 116.278 -3.0494 4.00026 0
M  V30 1335 H 115.978 -2.1102 5.48402 0
M  V30 1336 H 117.502 -3.02508 5.30397 0
M  V30 1337 H 118.916 -0.784823 5.67903 0
M  V30 1338 H 117.313 -0.0619707 6.00068 0
M  V30 1339 H 118.383 0.684677 4.80042 0
M  V30 1340 N 119.726 -1.57421 0.075193 0
M  V30 1341 C 121.137 -1.81021 -0.456964 0
M  V30 1342 C 121.488 -0.98936 -1.69429 0
M  V30 1343 O 120.613 -0.212865 -2.15351 0
M  V30 1344 C 121.208 -3.28329 -0.83581 0
M  V30 1345 C 119.767 -3.52764 -1.31281 0
M  V30 1346 C 118.914 -2.75676 -0.299648 0
M  V30 1347 H 121.865 -1.55822 0.300856 0
M  V30 1348 H 121.886 -3.40564 -1.69696 0
M  V30 1349 H 121.398 -3.88046 0.0649238 0
M  V30 1350 H 119.499 -2.98355 -2.23193 0
M  V30 1351 H 119.612 -4.61451 -1.28839 0
M  V30 1352 H 117.976 -2.42538 -0.777641 0
M  V30 1353 H 118.759 -3.38132 0.593417 0
M  V30 1354 N 121.204 0.198386 -1.56346 0
M  V30 1355 C 122.151 1.24589 -1.94284 0
M  V30 1356 C 123.121 1.454 -0.802997 0
M  V30 1357 O 124.306 1.58588 -1.06087 0
M  V30 1358 C 121.446 2.58631 -2.28482 0
M  V30 1359 C 120.559 2.45426 -3.55514 0
M  V30 1360 C 119.694 3.7215 -3.79049 0
M  V30 1361 C 118.733 3.53763 -4.99518 0
M  V30 1362 N 117.87 4.72491 -5.19323 0
M  V30 1363 H 122.71 0.915356 -2.83593 0
M  V30 1364 H 120.247 0.440629 -1.40346 0
M  V30 1365 H 122.205 3.3672 -2.46324 0
M  V30 1366 H 120.835 2.89734 -1.42317 0
M  V30 1367 H 119.887 1.58652 -3.45737 0
M  V30 1368 H 121.199 2.27772 -4.43758 0
M  V30 1369 H 120.353 4.58679 -3.97113 0
M  V30 1370 H 119.092 3.92754 -2.89129 0
M  V30 1371 H 118.097 2.65619 -4.8138 0
M  V30 1372 H 119.322 3.34607 -5.90944 0
M  V30 1373 H 117.268 4.93365 -4.3235 0
M  V30 1374 H 117.185 4.5765 -6.01741 0
M  V30 1375 H 118.453 5.6038 -5.41843 0
M  V30 1376 N 122.682 1.50554 0.465978 0
M  V30 1377 C 123.645 1.69233 1.54574 0
M  V30 1378 C 124.645 0.562901 1.50626 0
M  V30 1379 O 125.835 0.830016 1.53155 0
M  V30 1380 C 122.967 1.7223 2.94193 0
M  V30 1381 H 124.16 2.65571 1.39327 0
M  V30 1382 H 121.713 1.40111 0.692711 0
M  V30 1383 H 122.448 0.77603 3.14878 0
M  V30 1384 H 122.233 2.54285 2.98466 0
M  V30 1385 H 123.723 1.88618 3.72576 0
M  V30 1386 N 124.16 -0.719506 1.40217 0
M  V30 1387 C 125.571 -1.29848 1.34151 0
M  V30 1388 C 125.922 -1.96196 0.0131349 0
M  V30 1389 O 125.047 -1.973 -0.88892 0
M  V30 1390 C 125.642 -2.36118 2.42968 0
M  V30 1391 C 124.201 -2.8965 2.40374 0
M  V30 1392 C 123.348 -1.63393 2.24049 0
M  V30 1393 H 126.299 -0.51591 1.5008 0
M  V30 1394 H 126.32 -3.16871 2.10649 0
M  V30 1395 H 125.832 -1.878 3.39636 0
M  V30 1396 H 123.933 -3.42208 1.47392 0
M  V30 1397 H 124.046 -3.4171 3.35814 0
M  V30 1398 H 122.41 -1.88312 1.71495 0
M  V30 1399 H 123.193 -1.17104 3.2271 0
M  V30 1400 N 125.638 -1.25649 -0.95132 0
M  V30 1401 C 127.049 -1.09654 -1.51106 0
M  V30 1402 C 127.4 0.326615 -1.93462 0
M  V30 1403 O 126.525 1.21697 -1.78938 0
M  V30 1404 C 127.12 -1.98437 -2.74605 0
M  V30 1405 C 125.679 -1.86618 -3.2688 0
M  V30 1406 C 124.826 -1.9239 -1.99703 0
M  V30 1407 H 127.777 -1.38887 -0.767865 0
M  V30 1408 H 127.798 -1.5263 -3.48546 0
M  V30 1409 H 127.31 -3.02009 -2.43746 0
M  V30 1410 H 125.411 -0.859421 -3.62553 0
M  V30 1411 H 125.524 -2.71607 -3.94673 0
M  V30 1412 H 123.888 -1.36317 -2.15151 0
M  V30 1413 H 124.671 -2.97573 -1.71188 0
M  V30 1414 N 127.117 1.15442 -1.07289 0
M  V30 1415 C 128.047 2.22312 -0.714107 0
M  V30 1416 C 129.028 1.67467 0.298155 0
M  V30 1417 O 130.213 1.93445 0.171048 0
M  V30 1418 C 127.343 3.47124 -0.110448 0
M  V30 1419 C 126.297 4.14926 -1.04979 0
M  V30 1420 C 125.623 5.33807 -0.308924 0
M  V30 1421 C 126.923 4.64762 -2.38314 0
M  V30 1422 H 128.617 2.5258 -1.6076 0
M  V30 1423 H 126.163 1.21404 -0.77441 0
M  V30 1424 H 128.116 4.21124 0.152482 0
M  V30 1425 H 126.84 3.16187 0.81812 0
M  V30 1426 H 125.499 3.42866 -1.29764 0
M  V30 1427 H 125.147 4.99126 0.623084 0
M  V30 1428 H 124.847 5.80113 -0.935036 0
M  V30 1429 H 126.371 6.10576 -0.0537771 0
M  V30 1430 H 127.785 5.30292 -2.1786 0
M  V30 1431 H 126.182 5.21728 -2.96514 0
M  V30 1432 H 127.252 3.80434 -3.00663 0
M  V30 1433 N 128.595 0.856903 1.32268 0
M  V30 1434 C 130.011 0.547061 1.49931 0
M  V30 1435 C 130.211 -0.921781 1.7918 0
M  V30 1436 O 129.267 -1.70469 1.8627 0
M  V30 1437 C 130.58 1.43599 2.64196 0
M  V30 1438 C 132.128 1.43665 2.78081 0
M  V30 1439 C 132.603 2.31085 3.95428 0
M  V30 1440 N 134.094 2.28893 4.02694 0
M  V30 1441 C 134.829 2.93262 4.92732 0
M  V30 1442 N 134.325 3.66751 5.87763 0
M  V30 1443 N 136.118 2.82638 4.85873 0
M  V30 1444 H 128.269 1.8075 1.11549 0
M  V30 1445 H 130.532 0.772144 0.549997 0
M  V30 1446 H 130.238 2.48058 2.49319 0
M  V30 1447 H 130.112 1.12502 3.60032 0
M  V30 1448 H 132.499 0.399701 2.92381 0
M  V30 1449 H 132.58 1.7878 1.82952 0
M  V30 1450 H 132.224 3.34849 3.81888 0
M  V30 1451 H 132.154 1.93302 4.89839 0
M  V30 1452 H 134.645 1.75466 3.34694 0
M  V30 1453 H 134.958 4.13027 6.53168 0
M  V30 1454 H 133.303 3.70859 5.87783 0
M  V30 1455 H 136.494 2.24774 4.10602 0
M  V30 1456 H 136.667 3.33084 5.55841 0
M  V30 1457 N 130.073 -1.45103 0.615059 0
M  V30 1458 C 130.983 -2.34382 -0.101034 0
M  V30 1459 C 131.999 -1.51681 -0.852585 0
M  V30 1460 O 133.175 -1.8446 -0.808484 0
M  V30 1461 C 130.24 -3.29417 -1.08099 0
M  V30 1462 C 129.301 -4.28025 -0.330577 0
M  V30 1463 C 128.534 -5.1852 -1.26385 0
M  V30 1464 O 128.757 -5.12598 -2.50198 0
M  V30 1465 O 127.691 -5.97122 -0.756866 0
M  V30 1466 H 131.517 -2.97033 0.632855 0
M  V30 1467 H 129.102 -1.4461 0.375293 0
M  V30 1468 H 130.984 -3.87958 -1.6452 0
M  V30 1469 H 129.659 -2.69321 -1.79577 0
M  V30 1470 H 128.566 -3.73078 0.276283 0
M  V30 1471 H 129.899 -4.90997 0.343866 0
M  V30 1472 N 131.551 -0.354651 -1.53558 0
M  V30 1473 C 132.481 0.489091 -2.2832 0
M  V30 1474 C 133.462 1.09324 -1.30316 0
M  V30 1475 O 134.647 1.11255 -1.59173 0
M  V30 1476 C 131.777 1.63456 -3.0643 0
M  V30 1477 C 130.731 1.1582 -4.12031 0
M  V30 1478 C 130.057 2.39305 -4.7816 0
M  V30 1479 C 131.357 0.250731 -5.21698 0
M  V30 1480 H 133.051 -0.134614 -2.99097 0
M  V30 1481 H 130.597 -0.0661826 -1.43848 0
M  V30 1482 H 132.55 2.23136 -3.57475 0
M  V30 1483 H 131.274 2.28533 -2.33325 0
M  V30 1484 H 129.933 0.584146 -3.61916 0
M  V30 1485 H 129.581 3.02814 -4.01637 0
M  V30 1486 H 129.281 2.08109 -5.49513 0
M  V30 1487 H 130.805 2.99691 -5.31994 0
M  V30 1488 H 132.219 0.754695 -5.68311 0
M  V30 1489 H 130.616 0.0301468 -6.00092 0
M  V30 1490 H 131.686 -0.710125 -4.79672 0
M  V30 1491 N 133.029 1.57378 -0.0835403 0
M  V30 1492 C 134.278 1.93106 0.582498 0
M  V30 1493 C 134.591 0.96651 1.70053 0
M  V30 1494 O 135.797 1.21705 2.42693 0
M  V30 1495 C 134.253 3.43076 1.08751 0
M  V30 1496 C 133.861 4.48 -0.000146404 0
M  V30 1497 C 135.605 3.87785 1.72694 0
M  V30 1498 C 133.512 5.89113 0.519568 0
M  V30 1499 H 132.442 0.720775 0.221358 0
M  V30 1500 H 135.093 1.82821 -0.157675 0
M  V30 1501 H 133.475 3.48474 1.88101 0
M  V30 1502 H 134.649 4.54233 -0.775199 0
M  V30 1503 H 132.964 4.1283 -0.54406 0
M  V30 1504 H 135.561 4.90604 2.1263 0
M  V30 1505 H 135.904 3.25796 2.59158 0
M  V30 1506 H 136.437 3.8504 0.999457 0
M  V30 1507 H 133.176 6.54775 -0.308186 0
M  V30 1508 H 132.696 5.86376 1.26188 0
M  V30 1509 H 134.375 6.39346 0.992237 0
M  V30 1510 N 134.507 -0.190092 1.56449 0
M  V30 1511 C 135.784 -0.935886 1.71757 0
M  V30 1512 C 136.164 -2.01173 0.639726 0
M  V30 1513 O 135.512 -2.25827 -0.348502 0
M  V30 1514 C 135.722 -1.51775 3.1427 0
M  V30 1515 C 137.07 -1.99794 3.74656 0
M  V30 1516 O 138.094 -1.61607 3.1743 0
M  V30 1517 O 136.953 -2.70079 4.751 0
M  V30 1518 H 134.047 -0.439229 0.700719 0
M  V30 1519 H 136.593 -0.179395 1.68749 0
M  V30 1520 H 135.365 -0.742505 3.84191 0
M  V30 1521 H 134.988 -2.33894 3.21527 0
M  V30 1522 N 135.985 -1.50799 -0.457987 0
M  V30 1523 C 136.917 -1.66786 -1.57211 0
M  V30 1524 C 137.93 -0.548962 -1.53265 0
M  V30 1525 O 139.119 -0.8226 -1.58416 0
M  V30 1526 C 136.219 -1.64834 -2.96113 0
M  V30 1527 C 135.392 -2.92971 -3.24787 0
M  V30 1528 C 134.451 -2.83485 -4.43309 0
M  V30 1529 O 133.477 -3.5744 -4.42973 0
M  V30 1530 N 134.679 -1.97929 -5.45714 0
M  V30 1531 H 137.444 -2.62889 -1.43909 0
M  V30 1532 H 135.005 -1.48427 -0.646617 0
M  V30 1533 H 136.997 -1.56084 -3.7339 0
M  V30 1534 H 135.567 -0.764118 -3.03117 0
M  V30 1535 H 134.787 -3.15749 -2.36 0
M  V30 1536 H 136.075 -3.77834 -3.40762 0
M  V30 1537 H 135.473 -1.37182 -5.48815 0
M  V30 1538 H 134.03 -1.95073 -6.21924 0
M  V30 1539 N 137.463 0.71206 -1.40597 0
M  V30 1540 C 138.693 1.49894 -1.42181 0
M  V30 1541 C 139.101 1.89189 -0.0208078 0
M  V30 1542 O 138.444 1.56223 0.966436 0
M  V30 1543 C 138.506 2.80215 -2.25211 0
M  V30 1544 C 138.17 2.63221 -3.73582 0
M  V30 1545 C 139.167 2.30249 -4.66135 0
M  V30 1546 C 136.852 2.79376 -4.17438 0
M  V30 1547 C 138.846 2.13645 -6.00529 0
M  V30 1548 C 136.533 2.6239 -5.51901 0
M  V30 1549 C 137.531 2.29573 -6.43262 0
M  V30 1550 O 137.219 2.12719 -7.75246 0
M  V30 1551 H 136.951 0.469031 -0.486812 0
M  V30 1552 H 139.505 0.88564 -1.85326 0
M  V30 1553 H 137.735 3.4389 -1.76852 0
M  V30 1554 H 139.424 3.41947 -2.18694 0
M  V30 1555 H 140.19 2.17398 -4.33547 0
M  V30 1556 H 136.069 3.03906 -3.46644 0
M  V30 1557 H 139.613 1.87953 -6.71803 0
M  V30 1558 H 135.51 2.74826 -5.84073 0
M  V30 1559 H 136.278 2.27611 -7.86216 0
M  V30 1560 N 138.941 1.26152 0.944643 0
M  V30 1561 C 140.218 1.02247 1.66748 0
M  V30 1562 C 140.598 -0.448202 2.06287 0
M  V30 1563 O 139.946 -1.42779 1.78399 0
M  V30 1564 C 140.156 1.96788 2.88228 0
M  V30 1565 C 141.504 2.25201 3.59958 0
M  V30 1566 O 142.528 1.94626 2.98327 0
M  V30 1567 O 141.387 2.77242 4.70956 0
M  V30 1568 H 138.481 0.388517 0.730057 0
M  V30 1569 H 141.027 1.37348 0.99668 0
M  V30 1570 H 139.799 2.96047 2.55875 0
M  V30 1571 H 139.422 1.62145 3.63035 0
M  V30 1572 N 140.419 -1.14872 1.07899 0
M  V30 1573 C 141.665 -1.86064 0.806725 0
M  V30 1574 C 141.998 -1.82434 -0.665706 0
M  V30 1575 O 141.273 -1.25138 -1.48899 0
M  V30 1576 C 141.556 -3.34929 1.32267 0
M  V30 1577 C 141.409 -3.47161 2.86006 0
M  V30 1578 C 142.728 -4.29863 0.943717 0
M  V30 1579 H 139.847 -0.675591 0.294526 0
M  V30 1580 H 142.489 -1.34925 1.33773 0
M  V30 1581 H 140.639 -3.78611 0.870974 0
M  V30 1582 H 142.311 -3.12302 3.39507 0
M  V30 1583 H 140.554 -2.88539 3.23925 0
M  V30 1584 H 141.225 -4.51777 3.17177 0
M  V30 1585 H 143.701 -3.9417 1.33302 0
M  V30 1586 H 142.577 -5.32494 1.33198 0
M  V30 1587 H 142.838 -4.41846 -0.149796 0
M  V30 1588 N 141.898 -0.863906 -1.31812 0
M  V30 1589 C 142.83 -0.272485 -2.27575 0
M  V30 1590 C 143.843 0.56104 -1.52827 0
M  V30 1591 O 145.032 0.384021 -1.7432 0
M  V30 1592 C 142.132 0.63283 -3.32939 0
M  V30 1593 C 141.305 -0.166902 -4.37081 0
M  V30 1594 C 140.364 0.665608 -5.21973 0
M  V30 1595 O 139.39 0.0958091 -5.69119 0
M  V30 1596 N 140.592 1.9787 -5.45736 0
M  V30 1597 H 143.357 -1.0954 -2.78964 0
M  V30 1598 H 140.918 -0.724791 -1.4477 0
M  V30 1599 H 142.91 1.19532 -3.86645 0
M  V30 1600 H 141.48 1.35642 -2.81638 0
M  V30 1601 H 140.7 -0.910838 -3.83533 0
M  V30 1602 H 141.988 -0.715874 -5.03739 0
M  V30 1603 H 141.386 2.46484 -5.09178 0
M  V30 1604 H 139.943 2.48911 -6.024 0
M  V30 1605 N 143.376 1.44774 -0.622745 0
M  V30 1606 C 144.792 1.56986 -0.287652 0
M  V30 1607 C 144.992 1.61167 1.20944 0
M  V30 1608 O 144.048 1.55015 1.99315 0
M  V30 1609 C 145.361 2.84551 -0.972188 0
M  V30 1610 C 146.909 2.9825 -0.949536 0
M  V30 1611 C 147.384 4.28605 -1.61437 0
M  V30 1612 N 148.875 4.35399 -1.58057 0
M  V30 1613 C 149.61 5.34964 -2.064 0
M  V30 1614 N 149.106 6.40981 -2.62897 0
M  V30 1615 N 150.899 5.26419 -1.97078 0
M  V30 1616 H 143.05 1.40304 -1.59463 0
M  V30 1617 H 145.313 0.671794 -0.668878 0
M  V30 1618 H 145.019 2.87417 -2.02693 0
M  V30 1619 H 144.893 3.73807 -0.504771 0
M  V30 1620 H 147.28 2.94941 0.0967067 0
M  V30 1621 H 147.361 2.10364 -1.45536 0
M  V30 1622 H 147.005 4.32672 -2.66002 0
M  V30 1623 H 146.935 5.15334 -1.08344 0
M  V30 1624 H 149.426 3.59397 -1.16801 0
M  V30 1625 H 149.739 7.13225 -2.97539 0
M  V30 1626 H 148.084 6.4169 -2.66943 0
M  V30 1627 H 151.275 4.42504 -1.52669 0
M  V30 1628 H 151.448 6.03861 -2.35066 0
M  V30 1629 N 144.854 0.36279 1.53368 0
M  V30 1630 C 146.131 -0.284021 1.93527 0
M  V30 1631 C 146.511 -1.66628 1.29608 0
M  V30 1632 O 145.859 -2.23942 0.45413 0
M  V30 1633 C 146.069 -0.337028 3.47369 0
M  V30 1634 C 147.417 -0.578708 4.20638 0
M  V30 1635 O 148.441 -0.418352 3.53735 0
M  V30 1636 O 147.3 -0.89074 5.39192 0
M  V30 1637 H 144.394 -0.169743 0.809393 0
M  V30 1638 H 146.94 0.41537 1.64538 0
M  V30 1639 H 145.712 0.632217 3.86159 0
M  V30 1640 H 145.335 -1.08243 3.82582 0
M  V30 1641 N 146.332 -1.57332 0.0918853 0
M  V30 1642 C 147.609 -1.85691 -0.614668 0
M  V30 1643 C 147.989 -0.988146 -1.86545 0
M  V30 1644 O 147.337 -0.0597055 -2.28422 0
M  V30 1645 C 147.547 -3.36294 -0.933126 0
M  V30 1646 C 148.895 -4.04275 -1.29796 0
M  V30 1647 O 149.919 -3.41157 -1.02424 0
M  V30 1648 O 148.778 -5.1564 -1.81047 0
M  V30 1649 H 145.872 -0.767802 -0.307261 0
M  V30 1650 H 148.418 -1.69244 0.12434 0
M  V30 1651 H 147.19 -3.91273 -0.0456404 0
M  V30 1652 H 146.813 -3.58076 -1.72822 0
M  V30 1653 N 147.81 0.181792 -1.56548 0
M  V30 1654 C 149.035 0.920019 -1.85877 0
M  V30 1655 C 149.46 1.75494 -0.677021 0
M  V30 1656 O 148.818 1.77399 0.374056 0
M  V30 1657 C 148.866 1.78112 -3.13542 0
M  V30 1658 O 147.97 2.88152 -2.95029 0
M  V30 1659 H 147.311 0.258334 -0.611686 0
M  V30 1660 H 149.841 0.183092 -2.03779 0
M  V30 1661 H 149.851 2.18314 -3.44678 0
M  V30 1662 H 148.526 1.16777 -3.99169 0
M  V30 1663 H 147.103 2.51609 -2.75222 0
M  V30 1664 N 149.288 1.51039 0.449983 0
M  V30 1665 C 150.513 1.6715 1.22783 0
M  V30 1666 C 150.938 0.363081 1.84563 0
M  V30 1667 O 150.296 -0.675433 1.68249 0
M  V30 1668 C 150.344 2.77985 2.29689 0
M  V30 1669 O 149.448 2.40707 3.34864 0
M  V30 1670 H 148.789 0.557746 0.360299 0
M  V30 1671 H 151.319 1.97535 0.533005 0
M  V30 1672 H 151.329 3.01693 2.74673 0
M  V30 1673 H 150.004 3.72935 1.84098 0
M  V30 1674 H 148.581 2.27523 2.95445 0
M  V30 1675 N 150.766 -0.704594 1.40972 0
M  V30 1676 C 152.043 -1.45847 1.30338 0
M  V30 1677 C 152.423 -2.10973 -0.0732344 0
M  V30 1678 O 151.771 -2.00997 -1.08685 0
M  V30 1679 C 151.981 -2.48525 2.45023 0
M  V30 1680 C 153.329 -3.1404 2.8577 0
M  V30 1681 O 154.353 -2.58848 2.44696 0
M  V30 1682 O 153.212 -4.13981 3.56766 0
M  V30 1683 H 150.306 -0.649092 0.512454 0
M  V30 1684 H 152.852 -0.735836 1.52917 0
M  V30 1685 H 151.624 -1.98994 3.36923 0
M  V30 1686 H 151.247 -3.2831 2.24272 0
M  V30 1687 N 152.244 -1.26651 -0.937939 0
M  V30 1688 C 153.492 -1.12165 -1.68118 0
M  V30 1689 C 153.813 0.334983 -1.92101 0
M  V30 1690 O 153.083 1.23583 -1.52 0
M  V30 1691 H 151.663 -0.412093 -0.623048 0
M  V30 1692 H 154.325 -1.59027 -1.12678 0
M  V30 1693 H 153.421 -1.64289 -2.6536 0
M  V30 1694 N 153.722 1.14298 -1.08507 0
M  V30 1695 C 154.947 1.8976 -0.837001 0
M  V30 1696 C 155.372 1.78097 0.605228 0
M  V30 1697 O 154.73 1.12188 1.4242 0
M  V30 1698 C 154.778 3.37685 -1.26495 0
M  V30 1699 O 153.882 4.10281 -0.417514 0
M  V30 1700 H 153.223 0.590365 -0.303917 0
M  V30 1701 H 155.753 1.44672 -1.44676 0
M  V30 1702 H 155.763 3.88501 -1.24625 0
M  V30 1703 H 154.438 3.45492 -2.31534 0
M  V30 1704 H 153.015 3.69536 -0.499722 0
M  V30 1705 N 155.201 0.870884 1.31352 0
M  V30 1706 C 156.131 0.343096 2.30966 0
M  V30 1707 C 157.112 -0.566507 1.60389 0
M  V30 1708 O 158.297 -0.483336 1.88089 0
M  V30 1709 C 155.427 -0.455487 3.443 0
M  V30 1710 C 154.381 0.361103 4.26474 0
M  V30 1711 C 153.707 -0.563221 5.31725 0
M  V30 1712 C 155.007 1.59566 4.97329 0
M  V30 1713 H 156.701 1.17548 2.75359 0
M  V30 1714 H 154.247 0.566686 1.32381 0
M  V30 1715 H 156.2 -0.83525 4.13039 0
M  V30 1716 H 154.924 -1.32139 2.98675 0
M  V30 1717 H 153.583 0.722825 3.59403 0
M  V30 1718 H 153.231 -1.42643 4.82351 0
M  V30 1719 H 152.931 -0.0207409 5.87596 0
M  V30 1720 H 154.455 -0.939808 6.03324 0
M  V30 1721 H 155.869 1.28728 5.58661 0
M  V30 1722 H 154.266 2.07728 5.63 0
M  V30 1723 H 155.336 2.34798 4.24262 0
M  V30 1724 N 156.679 -1.44442 0.630414 0
M  V30 1725 C 157.589 -2.34476 -0.0761693 0
M  V30 1726 C 158.605 -1.52576 -0.836449 0
M  V30 1727 O 159.781 -1.85307 -0.788874 0
M  V30 1728 C 156.846 -3.30545 -1.04599 0
M  V30 1729 C 155.907 -4.28352 -0.28516 0
M  V30 1730 C 155.14 -5.19831 -1.20878 0
M  V30 1731 O 155.363 -5.15223 -2.44747 0
M  V30 1732 O 154.297 -5.97892 -0.693491 0
M  V30 1733 H 158.123 -2.96345 0.664324 0
M  V30 1734 H 155.708 -1.44203 0.39061 0
M  V30 1735 H 157.59 -3.89681 -1.60396 0
M  V30 1736 H 156.265 -2.7121 -1.76711 0
M  V30 1737 H 155.172 -3.72764 0.315837 0
M  V30 1738 H 156.505 -4.90605 0.395924 0
M  V30 1739 N 158.157 -0.370918 -1.53173 0
M  V30 1740 C 159.434 0.273754 -1.93675 0
M  V30 1741 C 159.814 1.65938 -1.3049 0
M  V30 1742 O 159.162 2.23698 -0.465999 0
M  V30 1743 C 159.372 0.318602 -3.47543 0
M  V30 1744 C 160.72 0.556392 -4.20939 0
M  V30 1745 O 161.744 0.399587 -3.53952 0
M  V30 1746 O 160.603 0.862133 -5.39657 0
M  V30 1747 H 157.697 0.165448 -0.810281 0
M  V30 1748 H 160.243 -0.42409 -1.64315 0
M  V30 1749 H 159.015 -0.652687 -3.85818 0
M  V30 1750 H 158.638 1.06212 -3.83151 0
M  V30 1751 N 159.635 1.57281 -0.100228 0
M  V30 1752 C 160.912 1.86014 0.604812 0
M  V30 1753 C 161.292 0.998025 1.86018 0
M  V30 1754 O 160.64 0.0718184 2.28387 0
M  V30 1755 C 160.85 3.36784 0.915278 0
M  V30 1756 C 162.198 4.04957 1.27651 0
M  V30 1757 O 163.222 3.41695 1.00613 0
M  V30 1758 O 162.081 5.16593 1.7831 0
M  V30 1759 H 159.175 0.76942 0.303185 0
M  V30 1760 H 161.721 1.69176 -0.133313 0
M  V30 1761 H 160.493 3.91292 0.0248896 0
M  V30 1762 H 160.116 3.58987 1.70921 0
M  V30 1763 N 161.113 -0.173488 1.56642 0
M  V30 1764 C 162.39 -0.917617 1.7274 0
M  V30 1765 C 162.77 -2.00484 0.661027 0
M  V30 1766 O 162.118 -2.26184 -0.32453 0
M  V30 1767 C 162.328 -1.48433 3.15862 0
M  V30 1768 C 163.676 -1.95809 3.76754 0
M  V30 1769 O 164.7 -1.58231 3.19126 0
M  V30 1770 O 163.559 -2.65024 4.77938 0
M  V30 1771 H 160.653 -0.431772 0.705338 0
M  V30 1772 H 163.199 -0.161487 1.6893 0
M  V30 1773 H 161.971 -0.701715 3.84957 0
M  V30 1774 H 161.594 -2.30471 3.23989 0
M  V30 1775 N 162.591 -1.51276 -0.441967 0
M  V30 1776 C 163.821 -1.67273 -1.21257 0
M  V30 1777 C 164.229 -0.367624 -1.85594 0
M  V30 1778 O 163.572 0.663349 -1.71305 0
M  V30 1779 C 163.634 -2.72807 -2.34129 0
M  V30 1780 C 163.298 -4.1554 -1.90198 0
M  V30 1781 C 164.295 -5.00471 -1.40801 0
M  V30 1782 C 161.98 -4.61616 -1.9803 0
M  V30 1783 C 163.974 -6.29536 -0.998174 0
M  V30 1784 C 161.661 -5.90679 -1.56658 0
M  V30 1785 C 162.659 -6.74466 -1.07633 0
M  V30 1786 O 162.347 -8.01116 -0.668459 0
M  V30 1787 H 162.079 -0.564614 -0.371734 0
M  V30 1788 H 164.633 -1.9843 -0.530521 0
M  V30 1789 H 162.863 -2.36954 -3.05597 0
M  V30 1790 H 164.552 -2.77729 -2.96009 0
M  V30 1791 H 165.318 -4.66079 -1.34148 0
M  V30 1792 H 161.197 -3.96526 -2.35135 0
M  V30 1793 H 164.741 -6.94885 -0.61482 0
M  V30 1794 H 160.638 -6.24586 -1.62979 0
M  V30 1795 H 161.406 -8.14633 -0.794722 0
M  V30 1796 N 164.069 0.697108 -1.41344 0
M  V30 1797 C 165.019 1.80313 -1.39539 0
M  V30 1798 C 166.003 1.58618 -0.270001 0
M  V30 1799 O 167.195 1.69477 -0.510551 0
M  V30 1800 C 164.324 3.18606 -1.27848 0
M  V30 1801 C 163.41 3.46001 -2.45244 0
M  V30 1802 N 163.801 3.44103 -3.70711 0
M  V30 1803 C 162.099 3.76542 -2.39023 0
M  V30 1804 C 162.8 3.7036 -4.48563 0
M  V30 1805 N 161.776 3.90027 -3.78655 0
M  V30 1806 H 165.578 1.77207 -2.34468 0
M  V30 1807 H 163.092 0.897031 -1.35378 0
M  V30 1808 H 165.089 3.97833 -1.24637 0
M  V30 1809 H 163.749 3.22925 -0.339032 0
M  V30 1810 H 164.76 3.2452 -4.03618 0
M  V30 1811 H 161.437 3.88241 -1.53542 0
M  V30 1812 H 162.827 3.75042 -5.57488 0
M  V30 1813 N 165.547 1.27147 0.931209 0
M  V30 1814 C 166.51 1.09615 2.01289 0
M  V30 1815 C 167.51 0.0412581 1.60747 0
M  V30 1816 O 168.7 0.285545 1.71844 0
M  V30 1817 C 165.832 0.669447 3.34262 0
M  V30 1818 H 167.025 2.05662 2.18273 0
M  V30 1819 H 164.578 1.09885 1.11153 0
M  V30 1820 H 165.313 -0.292572 3.22978 0
M  V30 1821 H 165.098 1.43127 3.65044 0
M  V30 1822 H 166.588 0.568921 4.13706 0
M  V30 1823 N 167.025 -1.13721 1.09112 0
M  V30 1824 C 168.253 -1.88773 0.846899 0
M  V30 1825 C 168.668 -1.7896 -0.601572 0
M  V30 1826 O 168.025 -1.15394 -1.41388 0
M  V30 1827 C 168.076 -3.3849 1.26913 0
M  V30 1828 O 167.797 -3.48043 2.66079 0
M  V30 1829 C 169.298 -4.30518 1.05682 0
M  V30 1830 H 166.518 -0.59772 0.304914 0
M  V30 1831 H 169.062 -1.43977 1.45227 0
M  V30 1832 H 167.217 -3.80881 0.707723 0
M  V30 1833 H 167.631 -4.4109 2.83795 0
M  V30 1834 H 169.105 -5.3391 1.40156 0
M  V30 1835 H 169.582 -4.392 -0.00563416 0
M  V30 1836 H 170.188 -3.93893 1.60402 0
M  V30 1837 N 168.503 -0.877838 -1.30888 0
M  V30 1838 C 169.731 -0.507414 -2.00581 0
M  V30 1839 C 170.146 0.902216 -1.65848 0
M  V30 1840 O 169.503 1.59225 -0.891831 0
M  V30 1841 C 169.554 -0.664162 -3.55347 0
M  V30 1842 O 169.275 -2.01829 -3.8884 0
M  V30 1843 C 170.776 -0.295787 -4.42312 0
M  V30 1844 H 167.996 -0.196866 -0.641471 0
M  V30 1845 H 170.54 -1.18117 -1.66939 0
M  V30 1846 H 168.695 -0.0378619 -3.87381 0
M  V30 1847 H 169.109 -2.03174 -4.8355 0
M  V30 1848 H 170.583 -0.456388 -5.5011 0
M  V30 1849 H 171.06 0.765663 -4.32475 0
M  V30 1850 H 171.666 -0.898113 -4.15709 0
M  V30 1851 N 169.982 1.44106 -0.638065 0
M  V30 1852 C 170.892 2.34513 0.0637334 0
M  V30 1853 C 171.908 1.53018 0.828346 0
M  V30 1854 O 173.084 1.85723 0.779036 0
M  V30 1855 C 170.149 3.31095 1.02844 0
M  V30 1856 C 169.21 4.28497 0.26244 0
M  V30 1857 C 168.443 5.20465 1.1812 0
M  V30 1858 O 168.666 5.16514 2.42011 0
M  V30 1859 O 167.6 5.98251 0.661774 0
M  V30 1860 H 171.426 2.95989 -0.68003 0
M  V30 1861 H 169.011 1.43994 -0.398252 0
M  V30 1862 H 170.893 3.90526 1.58327 0
M  V30 1863 H 169.568 2.72144 1.7527 0
M  V30 1864 H 168.475 3.72592 -0.335602 0
M  V30 1865 H 169.808 4.90388 -0.421936 0
M  V30 1866 N 171.46 0.379036 1.52974 0
M  V30 1867 C 172.688 -0.20679 2.05864 0
M  V30 1868 C 173.103 -1.41356 1.25155 0
M  V30 1869 O 172.46 -1.8009 0.295588 0
M  V30 1870 C 172.511 -0.587045 3.56702 0
M  V30 1871 O 172.232 0.571776 4.34353 0
M  V30 1872 C 173.733 -1.22983 4.25899 0
M  V30 1873 H 170.953 -0.0336123 0.670158 0
M  V30 1874 H 173.497 0.541298 1.97206 0
M  V30 1875 H 171.652 -1.28504 3.65466 0
M  V30 1876 H 172.066 0.261544 5.23847 0
M  V30 1877 H 173.54 -1.44635 5.32715 0
M  V30 1878 H 174.017 -2.19416 3.80465 0
M  V30 1879 H 174.623 -0.572892 4.21424 0
M  V30 1880 N 172.938 -1.57226 0.108567 0
M  V30 1881 C 174.187 -1.94008 -0.551703 0
M  V30 1882 C 174.5 -0.993442 -1.68494 0
M  V30 1883 O 175.706 -1.25551 -2.40726 0
M  V30 1884 C 174.162 -3.44763 -1.03279 0
M  V30 1885 C 173.77 -4.47943 0.0714193 0
M  V30 1886 C 175.514 -3.90483 -1.66503 0
M  V30 1887 C 173.421 -5.89865 -0.425779 0
M  V30 1888 H 172.351 -0.724206 -0.209863 0
M  V30 1889 H 175.002 -1.82547 0.186741 0
M  V30 1890 H 173.384 -3.51422 -1.82533 0
M  V30 1891 H 174.558 -4.52942 0.847365 0
M  V30 1892 H 172.873 -4.11913 0.609669 0
M  V30 1893 H 175.47 -4.93925 -2.04798 0
M  V30 1894 H 175.813 -3.29877 -2.53942 0
M  V30 1895 H 176.346 -3.86581 -0.938074 0
M  V30 1896 H 173.085 -6.54202 0.412316 0
M  V30 1897 H 172.605 -5.88309 -1.16843 0
M  V30 1898 H 174.284 -6.40844 -0.890397 0
M  V30 1899 N 174.416 0.165178 -1.56732 0
M  V30 1900 C 175.665 0.879143 -1.81532 0
M  V30 1901 C 175.978 1.83144 -0.686842 0
M  V30 1902 O 177.184 2.58823 -0.819944 0
M  V30 1903 C 175.64 1.61388 -3.21686 0
M  V30 1904 C 175.248 0.704904 -4.4242 0
M  V30 1905 C 176.992 2.3157 -3.55774 0
M  V30 1906 C 174.899 1.44022 -5.73595 0
M  V30 1907 H 173.829 0.332033 -0.676957 0
M  V30 1908 H 176.48 0.132008 -1.83025 0
M  V30 1909 H 174.862 2.40599 -3.14529 0
M  V30 1910 H 176.036 -0.0506815 -4.60772 0
M  V30 1911 H 174.351 0.112419 -4.16248 0
M  V30 1912 H 176.948 2.8719 -4.51028 0
M  V30 1913 H 177.291 3.07201 -2.8095 0
M  V30 1914 H 177.824 1.59297 -3.64513 0
M  V30 1915 H 174.563 0.72612 -6.51466 0
M  V30 1916 H 174.083 2.16898 -5.5921 0
M  V30 1917 H 175.762 1.98606 -6.15764 0
M  V30 1918 N 175.894 1.51508 0.433938 0
M  V30 1919 C 177.122 1.68157 1.20543 0
M  V30 1920 C 177.537 0.380362 1.84929 0
M  V30 1921 O 176.894 -0.641446 1.70856 0
M  V30 1922 C 176.945 2.79965 2.28696 0
M  V30 1923 O 176.666 4.05045 1.66943 0
M  V30 1924 C 178.167 3.07912 3.18912 0
M  V30 1925 H 175.387 0.56421 0.363191 0
M  V30 1926 H 177.931 1.97941 0.513754 0
M  V30 1927 H 176.086 2.5277 2.93574 0
M  V30 1928 H 176.5 4.67165 2.38448 0
M  V30 1929 H 177.974 3.89719 3.90926 0
M  V30 1930 H 178.451 2.20456 3.79863 0
M  V30 1931 H 179.057 3.36779 2.59731 0
M  V30 1932 N 177.372 -0.689602 1.41712 0
M  V30 1933 C 178.305 -1.81403 1.3845 0
M  V30 1934 C 179.283 -1.60653 0.250874 0
M  V30 1935 O 180.467 -1.83323 0.43874 0
M  V30 1936 C 177.594 -3.18176 1.1611 0
M  V30 1937 C 176.64 -3.57705 2.3227 0
M  V30 1938 S 177.473 -3.61827 3.94767 0
M  V30 1939 C 178.629 -5.01318 3.74742 0
M  V30 1940 H 178.862 -1.83893 2.33603 0
M  V30 1941 H 176.395 -0.858878 1.28307 0
M  V30 1942 H 178.353 -3.97132 1.03907 0
M  V30 1943 H 177.014 -3.13288 0.225668 0
M  V30 1944 H 176.207 -4.57082 2.12349 0
M  V30 1945 H 175.809 -2.86073 2.40911 0
M  V30 1946 H 178.101 -5.88986 3.34817 0
M  V30 1947 H 179.044 -5.26283 4.73743 0
M  V30 1948 H 179.452 -4.73138 3.07898 0
M  V30 1949 N 178.85 -1.27639 -0.924453 0
M  V30 1950 C 180.261 -1.12834 -1.48746 0
M  V30 1951 C 180.612 0.285505 -1.94112 0
M  V30 1952 O 179.737 1.17874 -1.81479 0
M  V30 1953 C 180.332 -2.04217 -2.70334 0
M  V30 1954 C 178.891 -1.93509 -3.22848 0
M  V30 1955 C 178.038 -1.96583 -1.95577 0
M  V30 1956 H 180.989 -1.40484 -0.738233 0
M  V30 1957 H 181.01 -1.59989 -3.4523 0
M  V30 1958 H 180.522 -3.07111 -2.37285 0
M  V30 1959 H 178.623 -0.936131 -3.60649 0
M  V30 1960 H 178.736 -2.79917 -3.88823 0
M  V30 1961 H 177.1 -1.4085 -2.12211 0
M  V30 1962 H 177.883 -3.01137 -1.64837 0
M  V30 1963 N 180.328 1.1314 -1.09713 0
M  V30 1964 C 181.556 1.88321 -0.856898 0
M  V30 1965 C 181.971 1.79276 0.592073 0
M  V30 1966 O 181.328 1.16142 1.40774 0
M  V30 1967 C 181.379 3.37812 -1.28706 0
M  V30 1968 O 181.1 3.46627 -2.67921 0
M  V30 1969 C 182.601 4.29952 -1.07964 0
M  V30 1970 H 179.821 0.596094 -0.308079 0
M  V30 1971 H 182.365 1.43205 -1.45988 0
M  V30 1972 H 180.52 3.805 -0.727912 0
M  V30 1973 H 180.934 4.39579 -2.8613 0
M  V30 1974 H 182.408 5.33159 -1.42986 0
M  V30 1975 H 182.885 4.39196 -0.0176577 0
M  V30 1976 H 183.491 3.93036 -1.62489 0
M  V30 1977 N 181.806 0.884767 1.30421 0
M  V30 1978 C 182.716 0.355398 2.31892 0
M  V30 1979 C 183.732 -0.542261 1.65335 0
M  V30 1980 O 184.908 -0.435432 1.96637 0
M  V30 1981 C 181.973 -0.421661 3.44126 0
M  V30 1982 C 181.034 0.505727 4.26311 0
M  V30 1983 C 180.267 -0.234343 5.33185 0
M  V30 1984 O 180.49 -1.46045 5.51386 0
M  V30 1985 O 179.424 0.415443 6.00465 0
M  V30 1986 H 183.25 1.19685 2.79122 0
M  V30 1987 H 180.835 0.648596 1.34587 0
M  V30 1988 H 182.717 -0.861641 4.12497 0
M  V30 1989 H 181.392 -1.23942 2.99032 0
M  V30 1990 H 180.299 0.994513 3.60639 0
M  V30 1991 H 181.632 1.28948 4.75009 0
M  V30 1992 N 183.284 -1.43765 0.645699 0
M  V30 1993 C 184.509 -2.06767 0.161883 0
M  V30 1994 C 184.934 -1.48034 -1.16049 0
M  V30 1995 O 184.292 -0.587369 -1.71522 0
M  V30 1996 C 184.34 -3.60519 0.0762003 0
M  V30 1997 O 183.444 -4.00982 -0.963721 0
M  V30 1998 H 182.785 -0.657675 0.091429 0
M  V30 1999 H 185.315 -1.84397 0.886499 0
M  V30 2000 H 185.325 -4.07853 -0.109604 0
M  V30 2001 H 184 -4.02646 1.04157 0
M  V30 2002 H 182.577 -3.65253 -0.751312 0
M  V30 2003 N 184.763 -0.387143 -1.52771 0
M  V30 2004 C 186.04 0.253197 -1.93954 0
M  V30 2005 C 186.42 1.64545 -1.32243 0
M  V30 2006 O 185.768 2.23191 -0.489699 0
M  V30 2007 C 185.978 0.281722 -3.47861 0
M  V30 2008 C 187.326 0.511715 -4.21505 0
M  V30 2009 O 188.35 0.362023 -3.54356 0
M  V30 2010 O 187.209 0.804847 -5.40541 0
M  V30 2011 H 184.303 0.156845 -0.811991 0
M  V30 2012 H 186.849 -0.441494 -1.63856 0
M  V30 2013 H 185.621 -0.693571 -3.85104 0
M  V30 2014 H 185.244 1.02142 -3.84256 0
M  V30 2015 N 186.241 1.57166 -0.116904 0
M  V30 2016 C 187.488 1.95123 0.541603 0
M  V30 2017 C 187.816 1.00006 1.6682 0
M  V30 2018 O 187.071 0.0235658 1.95686 0
M  V30 2019 C 187.37 3.39508 1.11664 0
M  V30 2020 C 187.036 4.50762 0.111606 0
M  V30 2021 C 185.698 4.80918 -0.164758 0
M  V30 2022 C 188.05 5.18036 -0.573438 0
M  V30 2023 C 185.378 5.75666 -1.13249 0
M  V30 2024 C 187.73 6.13824 -1.52978 0
M  V30 2025 C 186.394 6.42374 -1.81415 0
M  V30 2026 H 185.664 0.714005 0.198187 0
M  V30 2027 H 188.311 1.9048 -0.197365 0
M  V30 2028 H 186.616 3.40835 1.93232 0
M  V30 2029 H 188.313 3.66189 1.63422 0
M  V30 2030 H 184.903 4.27272 0.337192 0
M  V30 2031 H 189.087 4.94896 -0.373092 0
M  V30 2032 H 184.343 5.96092 -1.35958 0
M  V30 2033 H 188.517 6.65039 -2.06629 0
M  V30 2034 H 186.144 7.15599 -2.56557 0
M  V30 2035 N 187.719 -0.156864 1.56817 0
M  V30 2036 C 188.649 -1.19589 2.00551 0
M  V30 2037 C 189.63 -1.4536 0.883426 0
M  V30 2038 O 190.815 -1.56449 1.15054 0
M  V30 2039 C 187.945 -2.53143 2.37773 0
M  V30 2040 C 186.899 -2.41913 3.53075 0
M  V30 2041 C 186.225 -3.80088 3.76081 0
M  V30 2042 C 187.525 -1.91157 4.86062 0
M  V30 2043 H 189.219 -0.832293 2.87599 0
M  V30 2044 H 186.765 -0.398918 1.38364 0
M  V30 2045 H 188.718 -3.26047 2.66967 0
M  V30 2046 H 187.442 -2.91319 1.4765 0
M  V30 2047 H 186.101 -1.71462 3.24031 0
M  V30 2048 H 185.749 -4.15683 2.83225 0
M  V30 2049 H 185.449 -3.73439 4.53671 0
M  V30 2050 H 186.973 -4.54556 4.0769 0
M  V30 2051 H 188.387 -2.53846 5.14038 0
M  V30 2052 H 186.784 -1.95422 5.67389 0
M  V30 2053 H 187.854 -0.866673 4.77092 0
M  V30 2054 N 189.197 -1.51736 -0.425897 0
M  V30 2055 C 190.13 -1.68574 -1.53812 0
M  V30 2056 C 191.108 -0.53328 -1.53606 0
M  V30 2057 O 192.292 -0.758555 -1.72564 0
M  V30 2058 C 189.419 -1.70977 -2.92377 0
M  V30 2059 C 188.465 -2.92324 -3.10563 0
M  V30 2060 S 189.298 -4.52952 -2.85648 0
M  V30 2061 C 190.454 -4.58117 -4.26474 0
M  V30 2062 H 190.687 -2.62647 -1.39298 0
M  V30 2063 H 188.22 -1.41564 -0.616361 0
M  V30 2064 H 190.178 -1.73047 -3.72243 0
M  V30 2065 H 188.839 -0.78061 -3.04245 0
M  V30 2066 H 188.032 -2.90439 -4.11899 0
M  V30 2067 H 187.634 -2.88055 -2.38538 0
M  V30 2068 H 189.926 -4.34462 -5.19855 0
M  V30 2069 H 190.869 -5.59983 -4.33388 0
M  V30 2070 H 191.277 -3.8732 -4.10662 0
M  V30 2071 N 190.675 0.682077 -1.42076 0
M  V30 2072 C 191.607 1.80755 -1.40926 0
M  V30 2073 C 192.62 1.59833 -0.309398 0
M  V30 2074 O 193.809 1.69087 -0.572014 0
M  V30 2075 C 190.909 3.17744 -1.17865 0
M  V30 2076 C 190.082 3.65578 -2.40149 0
M  V30 2077 C 189.141 4.81277 -2.12742 0
M  V30 2078 O 188.167 4.92197 -2.85887 0
M  V30 2079 N 189.369 5.69474 -1.12602 0
M  V30 2080 H 192.134 1.82229 -2.37935 0
M  V30 2081 H 189.695 0.864903 -1.36861 0
M  V30 2082 H 191.687 3.9279 -0.9746 0
M  V30 2083 H 190.257 3.11214 -0.294068 0
M  V30 2084 H 189.477 2.81291 -2.76169 0
M  V30 2085 H 190.765 3.94278 -3.21593 0
M  V30 2086 H 190.163 5.63297 -0.520899 0
M  V30 2087 H 188.72 6.44363 -0.981842 0
M  V30 2088 N 192.153 1.28127 0.917671 0
M  V30 2089 C 193.399 1.15223 1.66888 0
M  V30 2090 C 193.732 -0.299293 1.9188 0
M  V30 2091 O 193.007 -1.21805 1.51637 0
M  V30 2092 C 193.29 1.94706 3.02922 0
M  V30 2093 C 193.143 3.47898 2.85109 0
M  V30 2094 C 194.462 1.75939 4.03402 0
M  V30 2095 H 191.581 0.419946 0.605652 0
M  V30 2096 H 194.223 1.57398 1.06423 0
M  V30 2097 H 192.373 1.58864 3.54534 0
M  V30 2098 H 194.045 3.93624 2.40537 0
M  V30 2099 H 192.288 3.7373 2.20246 0
M  V30 2100 H 192.959 3.98765 3.81694 0
M  V30 2101 H 195.435 2.07209 3.60837 0
M  V30 2102 H 194.311 2.33931 4.96556 0
M  V30 2103 H 194.572 0.709877 4.36364 0
M  V30 2104 N 193.631 -1.12557 1.10312 0
M  V30 2105 C 194.908 -1.80363 0.756878 0
M  V30 2106 C 195.288 -1.97067 -0.756824 0
M  V30 2107 O 194.636 -1.54601 -1.68259 0
M  V30 2108 C 194.846 -3.14812 1.50647 0
M  V30 2109 C 196.194 -3.90029 1.67817 0
M  V30 2110 O 197.218 -3.24464 1.46974 0
M  V30 2111 O 196.077 -5.07652 2.02365 0
M  V30 2112 H 193.171 -0.780667 0.272926 0
M  V30 2113 H 195.717 -1.19404 1.20586 0
M  V30 2114 H 194.489 -2.97936 2.53672 0
M  V30 2115 H 194.112 -3.83478 1.05026 0
M  V30 2116 N 195.109 -0.891671 -1.2995 0
M  V30 2117 C 196.357 -0.512486 -1.95494 0
M  V30 2118 C 196.678 0.942776 -1.70695 0
M  V30 2119 O 195.948 1.66374 -1.03424 0
M  V30 2120 H 194.528 -0.186533 -0.723336 0
M  V30 2121 H 197.19 -1.13621 -1.58355 0
M  V30 2122 H 196.286 -0.688342 -3.04415 0
M  V30 2123 N 196.587 1.43421 -0.653314 0
M  V30 2124 C 197.534 2.30768 0.0382271 0
M  V30 2125 C 198.504 1.44755 0.814576 0
M  V30 2126 O 199.689 1.73624 0.791162 0
M  V30 2127 C 196.829 3.30336 0.998599 0
M  V30 2128 C 195.942 4.31448 0.218342 0
M  V30 2129 C 195.077 5.18098 1.17252 0
M  V30 2130 C 194.116 6.10902 0.382702 0
M  V30 2131 N 193.253 6.90176 1.28848 0
M  V30 2132 H 198.093 2.89357 -0.712511 0
M  V30 2133 H 195.63 1.42548 -0.363128 0
M  V30 2134 H 197.588 3.86572 1.56901 0
M  V30 2135 H 196.218 2.73397 1.71621 0
M  V30 2136 H 195.27 3.77506 -0.46836 0
M  V30 2137 H 196.582 4.97227 -0.395812 0
M  V30 2138 H 195.736 5.7896 1.81356 0
M  V30 2139 H 194.475 4.52444 1.82058 0
M  V30 2140 H 193.48 5.49128 -0.27169 0
M  V30 2141 H 194.705 6.78598 -0.260957 0
M  V30 2142 H 192.651 6.27171 1.92334 0
M  V30 2143 H 192.568 7.52478 0.728887 0
M  V30 2144 H 193.836 7.55543 1.91766 0
M  V30 2145 N 198.065 0.39524 1.52563 0
M  V30 2146 C 199.476 -0.0774719 1.86539 0
M  V30 2147 C 199.827 -1.45641 1.31466 0
M  V30 2148 O 198.952 -2.06459 0.648367 0
M  V30 2149 C 199.547 -0.147356 3.38479 0
M  V30 2150 C 198.106 -0.564373 3.72145 0
M  V30 2151 C 197.253 0.269919 2.75983 0
M  V30 2152 H 200.204 0.612876 1.46388 0
M  V30 2153 H 200.225 -0.965343 3.68051 0
M  V30 2154 H 199.737 0.856387 3.78534 0
M  V30 2155 H 197.838 -1.57527 3.37663 0
M  V30 2156 H 197.951 -0.318402 4.78041 0
M  V30 2157 H 196.315 -0.265696 2.5331 0
M  V30 2158 H 197.098 1.27175 3.18875 0
M  V30 2159 N 199.544 -1.57102 0.125237 0
M  V30 2160 C 200.491 -2.15641 -0.822655 0
M  V30 2161 C 201.461 -1.08313 -1.25927 0
M  V30 2162 O 202.646 -1.36251 -1.33567 0
M  V30 2163 C 199.786 -2.76504 -2.06494 0
M  V30 2164 C 198.899 -3.98158 -1.67612 0
M  V30 2165 C 198.034 -4.47088 -2.86854 0
M  V30 2166 C 197.073 -5.6126 -2.44242 0
M  V30 2167 N 196.21 -6.04905 -3.56419 0
M  V30 2168 H 201.05 -2.96313 -0.316625 0
M  V30 2169 H 198.587 -1.46388 -0.144588 0
M  V30 2170 H 200.545 -3.09925 -2.79289 0
M  V30 2171 H 199.175 -1.98512 -2.54545 0
M  V30 2172 H 198.227 -3.70858 -0.846661 0
M  V30 2173 H 199.539 -4.80934 -1.32301 0
M  V30 2174 H 198.693 -4.82451 -3.67867 0
M  V30 2175 H 197.432 -3.63275 -3.25396 0
M  V30 2176 H 196.437 -5.25495 -1.61663 0
M  V30 2177 H 197.662 -6.46843 -2.0681 0
M  V30 2178 H 195.608 -5.24032 -3.94623 0
M  V30 2179 H 195.525 -6.82552 -3.25051 0
M  V30 2180 H 196.793 -6.44907 -4.37853 0
M  V30 2181 N 201.022 0.148545 -1.56898 0
M  V30 2182 C 202.262 0.86765 -1.85071 0
M  V30 2183 C 202.626 1.78417 -0.709317 0
M  V30 2184 O 203.827 2.54261 -0.872049 0
M  V30 2185 C 202.098 1.62306 -3.1842 0
M  V30 2186 S 203.657 2.3878 -3.68143 0
M  V30 2187 H 200.475 0.290174 -0.649092 0
M  V30 2188 H 203.077 0.127755 -1.95082 0
M  V30 2189 H 201.781 0.941192 -3.99462 0
M  V30 2190 H 201.312 2.4039 -3.1141 0
M  V30 2191 H 203.327 3.63942 -3.37285 0
M  V30 2192 N 202.5 1.5196 0.417844 0
M  V30 2193 C 203.74 1.67262 1.17486 0
M  V30 2194 C 204.104 0.38983 1.88001 0
M  V30 2195 O 205.305 0.418845 2.65517 0
M  V30 2196 C 203.576 2.85526 2.14965 0
M  V30 2197 S 205.135 3.21263 2.98891 0
M  V30 2198 H 201.953 0.589077 0.398132 0
M  V30 2199 H 204.555 1.89927 0.463452 0
M  V30 2200 H 203.259 3.77145 1.61833 0
M  V30 2201 H 202.79 2.65107 2.90657 0
M  V30 2202 H 204.805 2.69208 4.16823 0
M  V30 2203 N 203.978 -0.674533 1.42435 0
M  V30 2204 C 205.225 -1.43459 1.42919 0
M  V30 2205 C 205.553 -1.94446 0.0457312 0
M  V30 2206 O 204.808 -1.7132 -0.94593 0
M  V30 2207 C 205.107 -2.64767 2.40069 0
M  V30 2208 C 204.773 -2.3232 3.86443 0
M  V30 2209 C 203.435 -2.23182 4.26314 0
M  V30 2210 C 205.787 -2.05977 4.78773 0
M  V30 2211 C 203.115 -1.85827 5.56494 0
M  V30 2212 C 205.467 -1.70125 6.09295 0
M  V30 2213 C 204.131 -1.59498 6.48164 0
M  V30 2214 H 203.401 -0.524952 0.522978 0
M  V30 2215 H 206.048 -0.769097 1.75377 0
M  V30 2216 H 204.353 -3.36349 2.00939 0
M  V30 2217 H 206.05 -3.22949 2.37707 0
M  V30 2218 H 202.64 -2.40334 3.54877 0
M  V30 2219 H 206.824 -2.11969 4.48757 0
M  V30 2220 H 202.08 -1.76168 5.8547 0
M  V30 2221 H 206.254 -1.48767 6.80324 0
M  V30 2222 H 203.881 -1.30322 7.48946 0
M  V30 2223 N 205.456 -1.28612 -0.910864 0
M  V30 2224 C 206.703 -1.15934 -1.66029 0
M  V30 2225 C 207.031 0.291483 -1.92303 0
M  V30 2226 O 206.286 1.22816 -1.52364 0
M  V30 2227 C 206.585 -1.90624 -3.0232 0
M  V30 2228 C 206.251 -3.40405 -2.95695 0
M  V30 2229 C 204.913 -3.81255 -2.93595 0
M  V30 2230 C 207.265 -4.359 -2.85728 0
M  V30 2231 C 204.593 -5.15936 -2.79334 0
M  V30 2232 C 206.945 -5.70657 -2.73007 0
M  V30 2233 C 205.609 -6.10779 -2.69267 0
M  V30 2234 H 204.879 -0.424234 -0.607541 0
M  V30 2235 H 207.526 -1.5942 -1.06101 0
M  V30 2236 H 205.831 -1.39696 -3.6605 0
M  V30 2237 H 207.528 -1.78228 -3.59215 0
M  V30 2238 H 204.118 -3.07927 -2.98125 0
M  V30 2239 H 208.302 -4.053 -2.86436 0
M  V30 2240 H 203.558 -5.46146 -2.74835 0
M  V30 2241 H 207.732 -6.44311 -2.64264 0
M  V30 2242 H 205.359 -7.1509 -2.57974 0
M  V30 2243 N 206.934 1.1197 -1.10907 0
M  V30 2244 C 207.881 2.17846 -0.762345 0
M  V30 2245 C 208.851 1.63995 0.263599 0
M  V30 2246 O 210.036 1.90273 0.141773 0
M  V30 2247 C 207.176 3.44487 -0.205651 0
M  V30 2248 C 206.289 4.12369 -1.28748 0
M  V30 2249 C 205.424 5.26674 -0.691919 0
M  V30 2250 C 204.463 5.86431 -1.75399 0
M  V30 2251 N 203.6 6.92142 -1.17833 0
M  V30 2252 H 208.44 2.46851 -1.6694 0
M  V30 2253 H 205.977 1.21188 -0.833776 0
M  V30 2254 H 207.935 4.16981 0.135037 0
M  V30 2255 H 206.565 3.15884 0.664613 0
M  V30 2256 H 205.617 3.38003 -1.74522 0
M  V30 2257 H 206.929 4.52844 -2.09125 0
M  V30 2258 H 206.083 6.05953 -0.300963 0
M  V30 2259 H 204.822 4.8749 0.143232 0
M  V30 2260 H 203.827 5.05835 -2.15432 0
M  V30 2261 H 205.052 6.27685 -2.59208 0
M  V30 2262 H 202.998 6.54985 -0.364725 0
M  V30 2263 H 202.915 7.31242 -1.91887 0
M  V30 2264 H 204.183 7.75237 -0.81408 0
M  V30 2265 N 208.412 0.89855 1.29475 0
M  V30 2266 C 209.659 0.523882 1.95606 0
M  V30 2267 C 209.987 -0.929608 1.70847 0
M  V30 2268 O 209.242 -1.67401 1.01367 0
M  V30 2269 C 209.541 0.761398 3.49195 0
M  V30 2270 C 209.207 2.19207 3.94029 0
M  V30 2271 C 207.869 2.58326 4.05982 0
M  V30 2272 C 210.221 3.12379 4.17216 0
M  V30 2273 C 207.549 3.898 4.38489 0
M  V30 2274 C 209.901 4.43401 4.51197 0
M  V30 2275 C 208.565 4.82394 4.61359 0
M  V30 2276 H 207.835 0.191702 0.715773 0
M  V30 2277 H 210.482 1.13699 1.54094 0
M  V30 2278 H 208.787 0.0653622 3.91745 0
M  V30 2279 H 210.484 0.450904 3.98457 0
M  V30 2280 H 207.074 1.87846 3.85242 0
M  V30 2281 H 211.258 2.83371 4.07449 0
M  V30 2282 H 206.514 4.19734 4.44559 0
M  V30 2283 H 210.688 5.15623 4.68087 0
M  V30 2284 H 208.315 5.84306 4.86303 0
M  V30 2285 N 209.89 -1.43072 0.660911 0
M  V30 2286 C 211.115 -2.06584 0.183805 0
M  V30 2287 C 211.54 -1.49257 -1.14472 0
M  V30 2288 O 210.898 -0.605528 -1.70889 0
M  V30 2289 C 210.946 -3.60418 0.114434 0
M  V30 2290 O 210.05 -4.01981 -0.921137 0
M  V30 2291 H 209.391 -0.656669 0.0983994 0
M  V30 2292 H 211.921 -1.83447 0.906006 0
M  V30 2293 H 211.931 -4.07946 -0.0663394 0
M  V30 2294 H 210.606 -4.01519 1.08422 0
M  V30 2295 H 209.183 -3.66029 -0.71253 0
M  V30 2296 N 211.368 -0.403325 -1.52352 0
M  V30 2297 C 212.593 0.176499 -2.06648 0
M  V30 2298 C 213.018 1.38577 -1.27193 0
M  V30 2299 O 212.376 1.7879 -0.300637 0
M  V30 2300 C 212.424 0.511061 -3.5696 0
M  V30 2301 O 211.528 1.60294 -3.79973 0
M  V30 2302 H 210.869 0.0167337 -0.663789 0
M  V30 2303 H 213.399 -0.574848 -1.96359 0
M  V30 2304 H 213.409 0.771362 -4.00642 0
M  V30 2305 H 212.084 -0.37296 -4.14224 0
M  V30 2306 H 210.661 1.33526 -3.48174 0
M  V30 2307 N 212.846 1.57033 -0.133567 0
M  V30 2308 C 213.793 2.16074 0.811208 0
M  V30 2309 C 214.763 1.08979 1.2535 0
M  V30 2310 O 215.948 1.36958 1.32843 0
M  V30 2311 C 213.088 2.77595 2.05024 0
M  V30 2312 C 212.201 3.99042 1.65498 0
M  V30 2313 C 211.336 4.48603 2.84479 0
M  V30 2314 C 210.375 5.62547 2.41262 0
M  V30 2315 N 209.512 6.06787 3.53206 0
M  V30 2316 H 214.352 2.96477 0.300906 0
M  V30 2317 H 211.889 1.46462 0.136822 0
M  V30 2318 H 213.847 3.11402 2.77642 0
M  V30 2319 H 212.477 1.99859 2.53488 0
M  V30 2320 H 211.529 3.71302 0.826981 0
M  V30 2321 H 212.841 4.81629 1.29748 0
M  V30 2322 H 211.995 4.84395 3.65303 0
M  V30 2323 H 210.734 3.64995 3.23465 0
M  V30 2324 H 209.739 5.26345 1.58874 0
M  V30 2325 H 210.964 6.47931 2.03377 0
M  V30 2326 H 208.91 5.26117 3.91838 0
M  V30 2327 H 208.827 6.84266 3.21427 0
M  V30 2328 H 210.095 6.4722 4.34427 0
M  V30 2329 N 214.325 -0.140222 1.56975 0
M  V30 2330 C 215.574 -0.850152 1.82908 0
M  V30 2331 C 215.887 -1.82028 0.715892 0
M  V30 2332 O 217.093 -2.57485 0.861016 0
M  V30 2333 C 215.549 -1.5625 3.24213 0
M  V30 2334 C 215.157 -0.63443 4.43485 0
M  V30 2335 C 216.901 -2.25881 3.59413 0
M  V30 2336 C 214.808 -1.34879 5.75814 0
M  V30 2337 H 213.738 -0.321221 0.682153 0
M  V30 2338 H 216.389 -0.102874 1.83211 0
M  V30 2339 H 214.771 -2.35565 3.18316 0
M  V30 2340 H 215.945 0.12398 4.60633 0
M  V30 2341 H 214.26 -0.0461836 4.16374 0
M  V30 2342 H 216.857 -2.79978 4.5554 0
M  V30 2343 H 217.2 -3.02693 2.85802 0
M  V30 2344 H 217.733 -1.53477 3.67001 0
M  V30 2345 H 214.472 -0.622385 6.52539 0
M  V30 2346 H 213.992 -2.07974 5.6259 0
M  V30 2347 H 215.671 -1.88784 6.18845 0
M  V30 2348 N 215.803 -1.52179 -0.40978 0
M  V30 2349 C 216.735 -1.71703 -1.51825 0
M  V30 2350 C 217.748 -0.597445 -1.51441 0
M  V30 2351 O 218.937 -0.872582 -1.55719 0
M  V30 2352 C 216.037 -1.74171 -2.90719 0
M  V30 2353 C 215.21 -3.03156 -3.15302 0
M  V30 2354 C 214.269 -2.97445 -4.34065 0
M  V30 2355 O 213.295 -3.71352 -4.31377 0
M  V30 2356 N 214.497 -2.15191 -5.39141 0
M  V30 2357 H 217.262 -2.67334 -1.35472 0
M  V30 2358 H 214.823 -1.50409 -0.599069 0
M  V30 2359 H 216.815 -1.67884 -3.68235 0
M  V30 2360 H 215.385 -0.860166 -3.00533 0
M  V30 2361 H 214.605 -3.23097 -2.25836 0
M  V30 2362 H 215.893 -3.88484 -3.28569 0
M  V30 2363 H 215.291 -1.54573 -5.44173 0
M  V30 2364 H 213.848 -2.1476 -6.15403 0
M  V30 2365 N 217.281 0.66697 -1.42791 0
M  V30 2366 C 218.511 1.45294 -1.46878 0
M  V30 2367 C 218.919 1.89027 -0.0809861 0
M  V30 2368 O 218.262 1.59219 0.916246 0
M  V30 2369 C 218.324 2.72908 -2.34012 0
M  V30 2370 C 217.988 2.51203 -3.81767 0
M  V30 2371 C 218.985 2.15302 -4.73224 0
M  V30 2372 C 216.67 2.65954 -4.26115 0
M  V30 2373 C 218.664 1.94431 -6.07022 0
M  V30 2374 C 216.351 2.44699 -5.59969 0
M  V30 2375 C 217.349 2.08992 -6.5024 0
M  V30 2376 O 217.037 1.87948 -7.81621 0
M  V30 2377 H 216.769 0.453306 -0.501487 0
M  V30 2378 H 219.323 0.826232 -1.88049 0
M  V30 2379 H 217.553 3.38089 -1.87703 0
M  V30 2380 H 219.242 3.34816 -2.29462 0
M  V30 2381 H 220.008 2.03495 -4.40244 0
M  V30 2382 H 215.887 2.92724 -3.56137 0
M  V30 2383 H 219.431 1.66484 -6.77443 0
M  V30 2384 H 215.328 2.56105 -5.9252 0
M  V30 2385 H 216.096 2.02483 -7.93059 0
M  V30 2386 N 218.759 1.29093 0.90403 0
M  V30 2387 C 219.707 1.13727 2.02901 0
M  V30 2388 C 220.701 0.0539853 1.69314 0
M  V30 2389 O 221.907 0.213469 1.7873 0
M  V30 2390 H 218.282 0.35117 0.664969 0
M  V30 2391 H 220.253 2.08982 2.13001 0
M  V30 2392 C 219.002 0.826066 3.37745 0
M  V30 2393 H 218.325 1.65164 3.64089 0
M  V30 2394 H 219.765 0.758559 4.17159 0
M  V30 2395 C 218.224 -0.470541 3.33598 0
M  V30 2396 O 218.754 -1.49792 3.72727 0
M  V30 2397 N 216.96 -0.474812 2.86695 0
M  V30 2398 H 216.507 0.361692 2.55048 0
M  V30 2399 H 216.465 -1.34236 2.84303 0
M  V30 2400 N 220.237 -1.11381 1.11499 0
M  V30 2401 C 221.184 -2.17439 0.773887 0
M  V30 2402 C 222.154 -1.64132 -0.254899 0
M  V30 2403 O 223.339 -1.90345 -0.13168 0
M  V30 2404 C 220.479 -3.44373 0.223917 0
M  V30 2405 C 219.592 -4.1168 1.30934 0
M  V30 2406 C 218.727 -5.263 0.71984 0
M  V30 2407 C 217.766 -5.85493 1.78507 0
M  V30 2408 N 216.903 -6.91507 1.21502 0
M  V30 2409 H 221.743 -2.45962 1.68246 0
M  V30 2410 H 219.28 -1.20744 0.840191 0
M  V30 2411 H 221.238 -4.17047 -0.112921 0
M  V30 2412 H 219.868 -3.16232 -0.647851 0
M  V30 2413 H 218.92 -3.37073 1.76312 0
M  V30 2414 H 220.232 -4.51729 2.11524 0
M  V30 2415 H 219.386 -6.05785 0.333094 0
M  V30 2416 H 218.125 -4.87559 -0.117377 0
M  V30 2417 H 217.13 -5.04686 2.18111 0
M  V30 2418 H 218.355 -6.26301 2.62533 0
M  V30 2419 H 216.301 -6.54783 0.399455 0
M  V30 2420 H 216.218 -7.30214 1.95763 0
M  V30 2421 H 217.486 -7.74795 0.855181 0
M  V30 2422 N 221.715 -0.905404 -1.28997 0
M  V30 2423 C 222.961 -0.535039 -1.95615 0
M  V30 2424 C 223.294 0.917404 -1.71165 0
M  V30 2425 O 222.569 1.65123 -1.02785 0
M  V30 2426 C 222.852 -0.834918 -3.50287 0
M  V30 2427 C 222.705 -2.33948 -3.84172 0
M  V30 2428 C 224.024 -0.325318 -4.38896 0
M  V30 2429 H 221.143 -0.195861 -0.710498 0
M  V30 2430 H 223.785 -1.13313 -1.52513 0
M  V30 2431 H 221.935 -0.325904 -3.87131 0
M  V30 2432 H 223.607 -2.91847 -3.57243 0
M  V30 2433 H 221.85 -2.79789 -3.31513 0
M  V30 2434 H 222.521 -2.49987 -4.92149 0
M  V30 2435 H 224.997 -0.761256 -4.09077 0
M  V30 2436 H 223.873 -0.564295 -5.45992 0
M  V30 2437 H 224.134 0.774144 -4.35269 0
M  V30 2438 N 223.193 1.4272 -0.668489 0
M  V30 2439 C 224.439 2.01923 -0.188419 0
M  V30 2440 C 224.772 1.52704 1.19979 0
M  V30 2441 O 224.047 0.726566 1.8042 0
M  V30 2442 C 224.33 3.59451 -0.216085 0
M  V30 2443 C 224.183 4.18864 -1.6393 0
M  V30 2444 C 225.502 4.37903 0.439179 0
M  V30 2445 H 222.621 0.733674 -0.0699412 0
M  V30 2446 H 225.263 1.69822 -0.852076 0
M  V30 2447 H 223.413 3.86929 0.349012 0
M  V30 2448 H 225.085 4.02362 -2.25616 0
M  V30 2449 H 223.328 3.74933 -2.18193 0
M  V30 2450 H 223.999 5.27987 -1.61039 0
M  V30 2451 H 226.475 4.16079 -0.0417878 0
M  V30 2452 H 225.351 5.47519 0.389157 0
M  V30 2453 H 225.612 4.15303 1.51577 0
M  V30 2454 N 224.671 0.411399 1.52136 0
M  V30 2455 C 225.618 -0.412975 2.27075 0
M  V30 2456 C 226.588 -1.03912 1.29582 0
M  V30 2457 O 227.773 -1.06296 1.58448 0
M  V30 2458 C 224.913 -1.52247 3.09701 0
M  V30 2459 C 224.026 -0.917021 4.22155 0
M  V30 2460 C 223.161 -1.9994 4.92135 0
M  V30 2461 C 222.2 -1.37101 5.96548 0
M  V30 2462 N 221.337 -2.39364 6.60038 0
M  V30 2463 H 226.177 0.232499 2.97092 0
M  V30 2464 H 223.714 0.126496 1.46555 0
M  V30 2465 H 225.672 -2.17674 3.55913 0
M  V30 2466 H 224.302 -2.13794 2.41851 0
M  V30 2467 H 223.354 -0.151742 3.80097 0
M  V30 2468 H 224.666 -0.418006 4.97045 0
M  V30 2469 H 223.82 -2.73088 5.41763 0
M  V30 2470 H 222.559 -2.53208 4.16818 0
M  V30 2471 H 221.564 -0.624873 5.46237 0
M  V30 2472 H 222.789 -0.845998 6.7381 0
M  V30 2473 H 220.735 -2.91759 5.87548 0
M  V30 2474 H 220.652 -1.9428 7.3061 0
M  V30 2475 H 221.92 -3.12074 7.14304 0
M  V30 2476 N 226.149 -1.5696 0.141893 0
M  V30 2477 C 227.112 -2.15316 -0.785587 0
M  V30 2478 C 228.112 -1.09366 -1.1788 0
M  V30 2479 O 229.302 -1.35031 -1.10056 0
M  V30 2480 C 226.434 -2.71211 -2.06537 0
M  V30 2481 H 227.627 -2.98608 -0.278041 0
M  V30 2482 H 225.18 -1.5593 -0.107519 0
M  V30 2483 H 225.915 -1.91571 -2.6167 0
M  V30 2484 H 225.7 -3.4872 -1.79268 0
M  V30 2485 H 227.19 -3.16189 -2.72789 0
M  V30 2486 N 227.627 0.131896 -1.57047 0
M  V30 2487 C 228.559 1.1878 -1.9602 0
M  V30 2488 C 229.572 1.38363 -0.857875 0
M  V30 2489 O 230.761 1.37666 -1.13623 0
M  V30 2490 C 227.861 2.55008 -2.23213 0
M  V30 2491 C 227.034 2.56201 -3.54513 0
M  V30 2492 C 226.093 3.7408 -3.70069 0
M  V30 2493 O 225.119 3.58258 -4.42312 0
M  V30 2494 N 226.321 4.92137 -3.07866 0
M  V30 2495 H 229.086 0.85639 -2.87204 0
M  V30 2496 H 226.647 0.321309 -1.5868 0
M  V30 2497 H 228.639 3.32404 -2.30846 0
M  V30 2498 H 227.209 2.80382 -1.3822 0
M  V30 2499 H 226.429 1.64613 -3.58185 0
M  V30 2500 H 227.717 2.54043 -4.4084 0
M  V30 2501 H 227.115 5.07895 -2.49116 0
M  V30 2502 H 225.672 5.67254 -3.21039 0
M  V30 2503 N 229.106 1.52395 0.401703 0
M  V30 2504 C 230.036 1.79231 1.49661 0
M  V30 2505 C 231.017 0.643654 1.57452 0
M  V30 2506 O 232.202 0.889989 1.72606 0
M  V30 2507 C 229.332 1.94971 2.87409 0
M  V30 2508 C 228.286 3.10604 2.94465 0
M  V30 2509 C 227.612 3.11577 4.34538 0
M  V30 2510 C 228.912 4.49921 2.6527 0
M  V30 2511 H 230.606 2.70917 1.27454 0
M  V30 2512 H 228.152 1.30362 0.6117 0
M  V30 2513 H 230.105 2.12328 3.63999 0
M  V30 2514 H 228.829 0.999632 3.10926 0
M  V30 2515 H 227.488 2.93009 2.20321 0
M  V30 2516 H 227.136 2.14277 4.55076 0
M  V30 2517 H 226.836 3.89247 4.40183 0
M  V30 2518 H 228.36 3.31073 5.13053 0
M  V30 2519 H 229.774 4.67683 3.31581 0
M  V30 2520 H 228.171 5.29564 2.82281 0
M  V30 2521 H 229.241 4.57507 1.60671 0
M  V30 2522 N 230.584 -0.659388 1.43143 0
M  V30 2523 C 231.83 -1.41984 1.45644 0
M  V30 2524 C 232.185 -1.92245 0.0771718 0
M  V30 2525 O 231.478 -1.68976 -0.903205 0
M  V30 2526 C 231.672 -2.62206 2.42864 0
M  V30 2527 C 231.501 -2.23711 3.90107 0
M  V30 2528 C 230.271 -2.12332 4.58523 0
M  V30 2529 C 232.469 -1.84384 4.80112 0
M  V30 2530 N 230.451 -1.67102 5.9072 0
M  V30 2531 C 231.822 -1.5019 6.01534 0
M  V30 2532 C 233.877 -1.71512 4.67427 0
M  V30 2533 C 232.58 -1.04414 7.11681 0
M  V30 2534 C 234.606 -1.27142 5.77572 0
M  V30 2535 C 233.968 -0.938808 6.98116 0
M  V30 2536 H 230.067 -0.515448 0.588079 0
M  V30 2537 H 232.651 -0.759409 1.79279 0
M  V30 2538 H 230.822 -3.25917 2.11265 0
M  V30 2539 H 232.554 -3.28877 2.35843 0
M  V30 2540 H 229.309 -2.31893 4.12944 0
M  V30 2541 H 229.733 -1.46866 6.60878 0
M  V30 2542 H 234.375 -1.95868 3.74694 0
M  V30 2543 H 232.093 -0.788061 8.04248 0
M  V30 2544 H 235.679 -1.17681 5.69774 0
M  V30 2545 H 234.559 -0.6007 7.81896 0
M  V30 2546 N 232.062 -1.29571 -0.897171 0
M  V30 2547 C 233.311 -1.1706 -1.64256 0
M  V30 2548 C 233.624 0.276476 -1.93636 0
M  V30 2549 O 234.83 0.52294 -2.66416 0
M  V30 2550 C 233.286 -2.0475 -2.95982 0
M  V30 2551 C 232.894 -3.54295 -2.74187 0
M  V30 2552 C 234.638 -2.0097 -3.73914 0
M  V30 2553 C 232.545 -4.34081 -4.01656 0
M  V30 2554 H 231.475 -0.43452 -0.616205 0
M  V30 2555 H 234.126 -1.54229 -0.994268 0
M  V30 2556 H 232.508 -1.60452 -3.62038 0
M  V30 2557 H 233.682 -4.06662 -2.1671 0
M  V30 2558 H 231.997 -3.59773 -2.09648 0
M  V30 2559 H 234.594 -2.57838 -4.68427 0
M  V30 2560 H 234.937 -0.990273 -4.0435 0
M  V30 2561 H 235.47 -2.43325 -3.14703 0
M  V30 2562 H 232.209 -5.36671 -3.76384 0
M  V30 2563 H 231.729 -3.86483 -4.58684 0
M  V30 2564 H 233.408 -4.44877 -4.69781 0
M  V30 2565 N 233.54 1.10788 -1.12088 0
M  V30 2566 C 234.77 1.86191 -0.895351 0
M  V30 2567 C 235.178 1.80763 0.558702 0
M  V30 2568 O 234.521 1.19188 1.39785 0
M  V30 2569 C 234.583 3.35659 -1.28737 0
M  V30 2570 C 234.247 3.64849 -2.75198 0
M  V30 2571 C 235.244 3.61757 -3.734 0
M  V30 2572 C 232.929 3.93641 -3.12013 0
M  V30 2573 C 234.923 3.87045 -5.06434 0
M  V30 2574 C 232.61 4.18585 -4.4523 0
M  V30 2575 C 233.608 4.15277 -5.42249 0
M  V30 2576 O 233.296 4.3959 -6.73065 0
M  V30 2577 H 233.028 0.595425 -0.32007 0
M  V30 2578 H 235.582 1.40992 -1.49367 0
M  V30 2579 H 233.812 3.81497 -0.63224 0
M  V30 2580 H 235.501 3.92441 -1.03656 0
M  V30 2581 H 236.267 3.39557 -3.46303 0
M  V30 2582 H 232.146 3.95348 -2.37109 0
M  V30 2583 H 235.69 3.84378 -5.82151 0
M  V30 2584 H 231.587 4.40264 -4.72057 0
M  V30 2585 H 232.355 4.57123 -6.78956 0
M  V30 2586 N 235.018 0.912232 1.28515 0
M  V30 2587 C 235.948 0.416403 2.29757 0
M  V30 2588 C 236.929 -0.515194 1.6211 0
M  V30 2589 O 238.114 -0.423253 1.89532 0
M  V30 2590 C 235.244 -0.34572 3.45575 0
M  V30 2591 C 234.198 0.496599 4.25109 0
M  V30 2592 C 233.524 -0.393771 5.33248 0
M  V30 2593 C 234.824 1.75307 4.92001 0
M  V30 2594 H 236.518 1.26249 2.7148 0
M  V30 2595 H 234.064 0.608515 1.30511 0
M  V30 2596 H 236.017 -0.703422 4.15488 0
M  V30 2597 H 234.741 -1.2257 3.02728 0
M  V30 2598 H 233.4 0.8368 3.56922 0
M  V30 2599 H 233.048 -1.27225 4.86644 0
M  V30 2600 H 232.748 0.166209 5.87365 0
M  V30 2601 H 234.272 -0.747389 6.06009 0
M  V30 2602 H 235.686 1.46437 5.54283 0
M  V30 2603 H 234.083 2.25534 5.56106 0
M  V30 2604 H 235.153 2.48176 4.16577 0
M  V30 2605 N 236.496 -1.42363 0.676048 0
M  V30 2606 C 237.912 -1.55811 0.345718 0
M  V30 2607 C 238.112 -1.65544 -1.14879 0
M  V30 2608 O 237.168 -1.62306 -1.93424 0
M  V30 2609 C 238.481 -2.80746 1.07713 0
M  V30 2610 C 240.029 -2.9452 1.05958 0
M  V30 2611 C 240.504 -4.22318 1.77233 0
M  V30 2612 N 241.995 -4.29233 1.74108 0
M  V30 2613 C 242.73 -5.26935 2.26113 0
M  V30 2614 N 242.226 -6.30783 2.86505 0
M  V30 2615 N 244.019 -5.18741 2.1648 0
M  V30 2616 H 236.17 -1.34289 1.6456 0
M  V30 2617 H 238.433 -0.646506 0.69335 0
M  V30 2618 H 238.139 -2.79696 2.13221 0
M  V30 2619 H 238.013 -3.71676 0.64316 0
M  V30 2620 H 240.4 -2.95097 0.0128255 0
M  V30 2621 H 240.481 -2.04817 1.53244 0
M  V30 2622 H 240.125 -4.22502 2.81877 0
M  V30 2623 H 240.055 -5.10958 1.27396 0
M  V30 2624 H 242.546 -3.54814 1.30059 0
M  V30 2625 H 242.859 -7.01691 3.23805 0
M  V30 2626 H 241.204 -6.31341 2.90575 0
M  V30 2627 H 244.395 -4.36533 1.68987 0
M  V30 2628 H 244.568 -5.94721 2.57316 0
M  V30 2629 N 237.974 -0.419461 -1.51915 0
M  V30 2630 C 239.385 0.0477853 -1.86639 0
M  V30 2631 C 239.736 1.43531 -1.33766 0
M  V30 2632 O 238.861 2.05401 -0.68113 0
M  V30 2633 C 239.456 0.0934885 -3.38671 0
M  V30 2634 C 238.015 0.505097 -3.72996 0
M  V30 2635 C 237.162 -0.313792 -2.75519 0
M  V30 2636 H 240.113 -0.636088 -1.45395 0
M  V30 2637 H 240.134 0.906667 -3.6954 0
M  V30 2638 H 239.646 -0.916501 -3.77123 0
M  V30 2639 H 237.747 1.52135 -3.40126 0
M  V30 2640 H 237.86 0.242309 -4.78487 0
M  V30 2641 H 236.224 0.225363 -2.53701 0
M  V30 2642 H 237.007 -1.32232 -3.16812 0
M  V30 2643 N 239.452 1.56882 -0.150215 0
M  V30 2644 C 240.698 1.96518 0.500834 0
M  V30 2645 C 241.031 1.03527 1.64304 0
M  V30 2646 O 240.306 0.0782751 1.94342 0
M  V30 2647 C 240.589 3.45822 1.00395 0
M  V30 2648 C 240.442 4.49591 -0.136983 0
M  V30 2649 C 241.761 3.97704 1.88467 0
M  V30 2650 H 238.88 0.714535 0.18058 0
M  V30 2651 H 241.522 1.88577 -0.232091 0
M  V30 2652 H 239.672 3.5272 1.62851 0
M  V30 2653 H 241.344 4.5477 -0.77343 0
M  V30 2654 H 239.587 4.26441 -0.795652 0
M  V30 2655 H 240.258 5.51402 0.256815 0
M  V30 2656 H 242.734 3.93304 1.35834 0
M  V30 2657 H 241.61 5.0263 2.20578 0
M  V30 2658 H 241.871 3.40252 2.82279 0
M  V30 2659 N 240.93 -0.123565 1.57115 0
M  V30 2660 C 241.84 -1.17074 2.033 0
M  V30 2661 C 242.856 -1.4561 0.952559 0
M  V30 2662 O 244.032 -1.56817 1.26374 0
M  V30 2663 C 241.097 -2.47857 2.42421 0
M  V30 2664 C 240.158 -2.26758 3.64526 0
M  V30 2665 C 239.391 -3.51305 4.01771 0
M  V30 2666 O 239.614 -4.5843 3.39409 0
M  V30 2667 O 238.548 -3.42578 4.94898 0
M  V30 2668 H 242.374 -0.808555 2.92739 0
M  V30 2669 H 239.959 -0.334027 1.45618 0
M  V30 2670 H 241.841 -3.2492 2.68338 0
M  V30 2671 H 240.516 -2.83558 1.5613 0
M  V30 2672 H 239.423 -1.47569 3.43765 0
M  V30 2673 H 240.756 -1.95963 4.51508 0
M  V30 2674 N 242.408 -1.52605 -0.393616 0
M  V30 2675 C 243.636 -1.71294 -1.16043 0
M  V30 2676 C 244.051 -0.429259 -1.83855 0
M  V30 2677 O 243.408 0.595921 -1.72496 0
M  V30 2678 C 243.459 -2.8593 -2.21193 0
M  V30 2679 O 243.18 -4.09329 -1.56146 0
M  V30 2680 C 244.681 -3.16259 -3.10636 0
M  V30 2681 H 241.901 -0.573641 -0.348104 0
M  V30 2682 H 244.445 -1.99234 -0.461092 0
M  V30 2683 H 242.6 -2.60465 -2.86769 0
M  V30 2684 H 243.014 -4.73323 -2.25978 0
M  V30 2685 H 244.488 -3.99946 -3.80456 0
M  V30 2686 H 244.965 -2.3045 -3.73884 0
M  V30 2687 H 245.571 -3.43547 -2.50711 0
M  V30 2688 N 243.887 0.651787 -1.4349 0
M  V30 2689 C 245.298 1.233 -1.40193 0
M  V30 2690 C 245.649 1.9591 -0.106727 0
M  V30 2691 O 244.774 2.01316 0.793773 0
M  V30 2692 C 245.369 2.24257 -2.53957 0
M  V30 2693 C 243.928 2.77852 -2.5392 0
M  V30 2694 C 243.075 1.52517 -2.3159 0
M  V30 2695 H 246.026 0.443717 -1.52371 0
M  V30 2696 H 246.047 3.0646 -2.25528 0
M  V30 2697 H 245.559 1.71382 -3.4821 0
M  V30 2698 H 243.66 3.34786 -1.63551 0
M  V30 2699 H 243.773 3.25299 -3.51735 0
M  V30 2700 H 242.137 1.79915 -1.80285 0
M  V30 2701 H 242.92 1.01574 -3.27929 0
M  V30 2702 N 245.365 1.30045 0.890287 0
M  V30 2703 C 246.593 1.21472 1.67487 0
M  V30 2704 C 247.008 -0.223241 1.87476 0
M  V30 2705 O 246.365 -1.14828 1.41847 0
M  V30 2706 C 246.416 1.93394 3.05419 0
M  V30 2707 O 246.137 3.31576 2.86337 0
M  V30 2708 C 247.638 1.91414 3.99844 0
M  V30 2709 H 244.858 0.420604 0.522813 0
M  V30 2710 H 247.402 1.7158 1.11268 0
M  V30 2711 H 245.557 1.47099 3.58386 0
M  V30 2712 H 245.971 3.67929 3.73802 0
M  V30 2713 H 247.445 2.46285 4.94012 0
M  V30 2714 H 247.922 0.891833 4.3005 0
M  V30 2715 H 248.528 2.37496 3.52811 0
M  V30 2716 N 246.843 -1.10192 1.12674 0
M  V30 2717 C 248.071 -1.85983 0.906527 0
M  V30 2718 C 248.486 -1.80783 -0.544333 0
M  V30 2719 O 247.843 -1.19834 -1.37645 0
M  V30 2720 C 247.894 -3.34281 1.37618 0
M  V30 2721 O 247.615 -3.39401 2.77017 0
M  V30 2722 C 249.116 -4.26938 1.19325 0
M  V30 2723 H 246.336 -0.587716 0.323775 0
M  V30 2724 H 248.88 -1.39284 1.49734 0
M  V30 2725 H 247.035 -3.78436 0.828539 0
M  V30 2726 H 247.449 -4.31838 2.97684 0
M  V30 2727 H 248.923 -5.29181 1.57071 0
M  V30 2728 H 249.4 -4.38995 0.134097 0
M  V30 2729 H 250.006 -3.8859 1.72852 0
M  V30 2730 N 248.321 -0.919034 -1.28029 0
M  V30 2731 C 249.567 -0.555757 -1.95036 0
M  V30 2732 C 249.9 0.899198 -1.72128 0
M  V30 2733 O 249.175 1.64023 -1.04531 0
M  V30 2734 C 249.458 -0.872024 -3.49382 0
M  V30 2735 C 249.311 -2.3801 -3.81669 0
M  V30 2736 C 250.63 -0.37185 -4.38526 0
M  V30 2737 H 247.749 -0.203386 -0.708381 0
M  V30 2738 H 250.391 -1.14924 -1.51303 0
M  V30 2739 H 248.541 -0.366946 -3.86763 0
M  V30 2740 H 250.213 -2.9562 -3.54128 0
M  V30 2741 H 248.456 -2.83289 -3.28526 0
M  V30 2742 H 249.127 -2.55192 -4.8947 0
M  V30 2743 H 251.603 -0.804602 -4.08247 0
M  V30 2744 H 250.479 -0.622173 -5.45362 0
M  V30 2745 H 250.74 0.727934 -4.36066 0
M  V30 2746 N 249.799 1.42003 -0.683588 0
M  V30 2747 C 251.046 2.01413 -0.209514 0
M  V30 2748 C 251.374 1.54088 1.1869 0
M  V30 2749 O 250.629 0.737591 1.81268 0
M  V30 2750 C 250.928 3.56827 -0.202357 0
M  V30 2751 C 250.594 4.23617 -1.54464 0
M  V30 2752 C 249.256 4.41577 -1.91215 0
M  V30 2753 C 251.608 4.61178 -2.42826 0
M  V30 2754 C 248.936 4.9437 -3.15935 0
M  V30 2755 C 251.288 5.15355 -3.66867 0
M  V30 2756 C 249.952 5.31528 -4.03776 0
M  V30 2757 H 249.222 0.737023 -0.0766668 0
M  V30 2758 H 251.869 1.70067 -0.880312 0
M  V30 2759 H 250.174 3.87892 0.551969 0
M  V30 2760 H 251.871 4.00588 0.181793 0
M  V30 2761 H 248.461 4.10004 -1.24877 0
M  V30 2762 H 252.645 4.46968 -2.15717 0
M  V30 2763 H 247.901 5.05076 -3.44541 0
M  V30 2764 H 252.075 5.43402 -4.35531 0
M  V30 2765 H 249.702 5.72199 -5.00492 0
M  V30 2766 N 251.277 0.427512 1.51691 0
M  V30 2767 C 252.523 -0.142439 2.02299 0
M  V30 2768 C 252.856 -1.43214 1.31162 0
M  V30 2769 O 252.131 -1.89833 0.423511 0
M  V30 2770 C 252.414 -0.371301 3.58181 0
M  V30 2771 C 252.267 0.936358 4.39946 0
M  V30 2772 C 253.586 -1.14542 4.24933 0
M  V30 2773 H 250.705 -0.0502937 0.735282 0
M  V30 2774 H 253.347 0.564584 1.81418 0
M  V30 2775 H 251.497 -0.973559 3.76104 0
M  V30 2776 H 253.169 1.57184 4.33694 0
M  V30 2777 H 251.412 1.5432 4.05423 0
M  V30 2778 H 252.083 0.730388 5.47147 0
M  V30 2779 H 254.559 -0.635362 4.11221 0
M  V30 2780 H 253.435 -1.27431 5.33903 0
M  V30 2781 H 253.696 -2.17093 3.85127 0
M  V30 2782 N 252.755 -1.56801 0.158532 0
M  V30 2783 C 253.687 -2.14488 -0.807923 0
M  V30 2784 C 254.7 -1.09721 -1.20271 0
M  V30 2785 O 255.889 -1.36956 -1.14478 0
M  V30 2786 C 252.989 -2.66217 -2.09718 0
M  V30 2787 C 252.162 -3.95507 -1.86796 0
M  V30 2788 C 251.221 -4.3243 -2.99818 0
M  V30 2789 O 250.247 -5.00543 -2.71008 0
M  V30 2790 N 251.449 -3.92947 -4.27285 0
M  V30 2791 H 254.214 -2.98042 -0.314816 0
M  V30 2792 H 251.775 -1.61881 -0.0246692 0
M  V30 2793 H 253.767 -2.87924 -2.84398 0
M  V30 2794 H 252.337 -1.87324 -2.50257 0
M  V30 2795 H 251.557 -3.82309 -0.96089 0
M  V30 2796 H 252.845 -4.79972 -1.68833 0
M  V30 2797 H 252.243 -3.38087 -4.53557 0
M  V30 2798 H 250.8 -4.19681 -4.9871 0
M  V30 2799 N 254.233 0.115231 -1.57178 0
M  V30 2800 C 255.482 0.820945 -1.84237 0
M  V30 2801 C 255.795 1.80866 -0.744761 0
M  V30 2802 O 257.001 2.56083 -0.901871 0
M  V30 2803 C 255.457 1.51072 -3.26658 0
M  V30 2804 C 255.065 0.563795 -4.44438 0
M  V30 2805 C 256.809 2.20134 -3.62962 0
M  V30 2806 C 254.716 1.25701 -5.77887 0
M  V30 2807 H 253.646 0.310328 -0.687177 0
M  V30 2808 H 256.297 0.0737134 -1.83352 0
M  V30 2809 H 254.679 2.30471 -3.22024 0
M  V30 2810 H 255.853 -0.197247 -4.60378 0
M  V30 2811 H 254.168 -0.0200638 -4.16395 0
M  V30 2812 H 256.765 2.72696 -4.59936 0
M  V30 2813 H 257.108 2.98107 -2.90582 0
M  V30 2814 H 257.641 1.47619 -3.69396 0
M  V30 2815 H 254.38 0.518493 -6.53446 0
M  V30 2816 H 253.9 1.98997 -5.65827 0
M  V30 2817 H 255.579 1.78915 -6.2177 0
M  V30 2818 N 255.711 1.52812 0.385517 0
M  V30 2819 C 256.641 1.80808 1.47752 0
M  V30 2820 C 257.622 0.660318 1.5676 0
M  V30 2821 O 258.807 0.908246 1.71652 0
M  V30 2822 C 255.937 1.98008 2.85324 0
M  V30 2823 C 254.891 3.13709 2.91154 0
M  V30 2824 C 254.217 3.16169 4.31209 0
M  V30 2825 C 255.517 4.52709 2.60483 0
M  V30 2826 H 257.211 2.72253 1.24573 0
M  V30 2827 H 254.757 1.31003 0.597839 0
M  V30 2828 H 256.71 2.16176 3.61726 0
M  V30 2829 H 255.434 1.03255 3.09848 0
M  V30 2830 H 254.093 2.95329 2.17201 0
M  V30 2831 H 253.741 2.19092 4.52778 0
M  V30 2832 H 253.441 3.93894 4.36029 0
M  V30 2833 H 254.965 3.36496 5.09512 0
M  V30 2834 H 256.379 4.71173 3.26602 0
M  V30 2835 H 254.776 5.32528 2.76648 0
M  V30 2836 H 255.846 4.59186 1.55809 0
M  V30 2837 N 257.189 -0.644168 1.43834 0
M  V30 2838 C 258.605 -0.960875 1.27434 0
M  V30 2839 C 258.805 -2.00499 0.200618 0
M  V30 2840 O 257.861 -2.49018 -0.417906 0
M  V30 2841 C 259.174 -1.43653 2.64167 0
M  V30 2842 C 260.722 -1.55271 2.71772 0
M  V30 2843 C 261.197 -2.06224 4.08944 0
M  V30 2844 N 262.688 -2.13513 4.11055 0
M  V30 2845 C 263.423 -2.54081 5.14033 0
M  V30 2846 N 262.919 -2.9388 6.27381 0
M  V30 2847 N 264.712 -2.54101 5.01387 0
M  V30 2848 H 256.863 0.0465779 2.12349 0
M  V30 2849 H 259.126 -0.0417638 0.94708 0
M  V30 2850 H 258.832 -0.743706 3.43747 0
M  V30 2851 H 258.706 -2.40993 2.90176 0
M  V30 2852 H 261.093 -2.23653 1.92519 0
M  V30 2853 H 261.174 -0.563395 2.49519 0
M  V30 2854 H 260.818 -1.38441 4.88668 0
M  V30 2855 H 260.748 -3.06003 4.28567 0
M  V30 2856 H 263.239 -1.85493 3.29242 0
M  V30 2857 H 263.552 -3.2361 7.01781 0
M  V30 2858 H 261.897 -2.91663 6.30839 0
M  V30 2859 H 265.088 -2.22391 4.11898 0
M  V30 2860 H 265.261 -2.85394 5.81768 0
M  V30 2861 N 258.668 -1.30515 -0.883378 0
M  V30 2862 C 259.598 -1.19607 -2.00541 0
M  V30 2863 C 260.579 -0.086346 -1.69881 0
M  V30 2864 O 261.764 -0.268654 -1.92333 0
M  V30 2865 C 258.894 -0.888758 -3.35736 0
M  V30 2866 C 257.848 -1.95659 -3.8066 0
M  V30 2867 C 257.174 -1.50224 -5.13164 0
M  V30 2868 C 258.474 -3.36788 -3.99213 0
M  V30 2869 H 260.168 -2.13476 -2.09925 0
M  V30 2870 H 257.714 -1.02775 -1.00863 0
M  V30 2871 H 259.667 -0.799094 -4.13754 0
M  V30 2872 H 258.391 0.0856125 -3.26488 0
M  V30 2873 H 257.05 -2.03591 -3.04871 0
M  V30 2874 H 256.698 -0.516092 -5.00345 0
M  V30 2875 H 256.398 -2.2165 -5.44192 0
M  V30 2876 H 257.922 -1.42639 -5.93706 0
M  V30 2877 H 259.336 -3.31605 -4.67665 0
M  V30 2878 H 257.733 -4.06314 -4.41621 0
M  V30 2879 H 258.803 -3.78561 -3.03017 0
M  V30 2880 N 260.146 1.09593 -1.13257 0
M  V30 2881 C 261.395 1.81105 -0.887917 0
M  V30 2882 C 261.708 1.86563 0.587672 0
M  V30 2883 O 262.914 2.54367 0.949204 0
M  V30 2884 C 261.37 3.25338 -1.53895 0
M  V30 2885 C 260.978 3.28151 -3.04994 0
M  V30 2886 C 262.722 4.01617 -1.37492 0
M  V30 2887 C 260.629 4.66897 -3.6299 0
M  V30 2888 H 259.559 0.678661 -0.328534 0
M  V30 2889 H 262.21 1.23183 -1.36008 0
M  V30 2890 H 260.592 3.8331 -0.994446 0
M  V30 2891 H 261.766 2.79953 -3.66009 0
M  V30 2892 H 260.081 2.65361 -3.20893 0
M  V30 2893 H 262.678 5.04119 -1.78235 0
M  V30 2894 H 263.021 4.15072 -0.31957 0
M  V30 2895 H 263.554 3.50082 -1.88912 0
M  V30 2896 H 260.293 4.58643 -4.68323 0
M  V30 2897 H 259.813 5.15426 -3.06752 0
M  V30 2898 H 261.492 5.3587 -3.62563 0
M  V30 2899 N 261.624 0.925811 1.2754 0
M  V30 2900 C 262.571 0.422045 2.26908 0
M  V30 2901 C 263.541 -0.510029 1.58076 0
M  V30 2902 O 264.726 -0.429599 1.85901 0
M  V30 2903 C 261.866 -0.320837 3.43605 0
M  V30 2904 C 260.979 0.64513 4.27156 0
M  V30 2905 C 260.114 -0.117405 5.3107 0
M  V30 2906 C 259.153 0.841391 6.0629 0
M  V30 2907 N 258.29 0.111604 7.02011 0
M  V30 2908 H 263.13 1.27441 2.69375 0
M  V30 2909 H 260.667 0.639697 1.32462 0
M  V30 2910 H 262.625 -0.76785 4.10073 0
M  V30 2911 H 261.255 -1.13745 3.02096 0
M  V30 2912 H 260.307 1.21067 3.6062 0
M  V30 2913 H 261.619 1.37797 4.79389 0
M  V30 2914 H 260.773 -0.624422 6.03478 0
M  V30 2915 H 259.512 -0.883219 4.79636 0
M  V30 2916 H 258.517 1.35967 5.32722 0
M  V30 2917 H 259.742 1.60696 6.59813 0
M  V30 2918 H 257.688 -0.635999 6.5291 0
M  V30 2919 H 257.605 0.784044 7.51923 0
M  V30 2920 H 258.873 -0.374823 7.78598 0
M  V30 2921 N 263.102 -1.41638 0.69111 0
M  V30 2922 C 264.513 -1.84346 0.295517 0
M  V30 2923 C 264.864 -1.57833 -1.16547 0
M  V30 2924 O 263.989 -1.04648 -1.89414 0
M  V30 2925 C 264.584 -3.34636 0.529575 0
M  V30 2926 C 263.143 -3.7593 0.187944 0
M  V30 2927 C 262.29 -2.65082 0.814052 0
M  V30 2928 H 265.241 -1.31253 0.892092 0
M  V30 2929 H 265.262 -3.79903 -0.213148 0
M  V30 2930 H 264.774 -3.53901 1.59297 0
M  V30 2931 H 262.875 -3.62268 -0.871367 0
M  V30 2932 H 262.988 -4.74808 0.63985 0
M  V30 2933 H 261.352 -2.53528 0.244017 0
M  V30 2934 H 262.135 -2.87167 1.88123 0
M  V30 2935 N 264.58 -0.43555 -1.51462 0
M  V30 2936 C 265.513 0.421989 -2.24264 0
M  V30 2937 C 266.491 1.02619 -1.26127 0
M  V30 2938 O 267.675 1.069 -1.55257 0
M  V30 2939 C 264.802 1.588 -2.99166 0
M  V30 2940 C 263.848 1.10465 -4.11946 0
M  V30 2941 S 264.681 0.048146 -5.35478 0
M  V30 2942 C 265.837 1.21887 -6.13917 0
M  V30 2943 H 266.07 -0.196102 -2.96653 0
M  V30 2944 H 263.603 -0.220054 -1.52824 0
M  V30 2945 H 265.561 2.25647 -3.42919 0
M  V30 2946 H 264.222 2.1775 -2.26371 0
M  V30 2947 H 263.415 1.97654 -4.63626 0
M  V30 2948 H 263.017 0.51445 -3.70445 0
M  V30 2949 H 265.309 2.13756 -6.42895 0
M  V30 2950 H 266.252 0.742076 -7.04201 0
M  V30 2951 H 266.66 1.45663 -5.45383 0
M  V30 2952 N 266.058 1.56714 -0.166846 0
M  V30 2953 C 267.005 2.17746 0.765193 0
M  V30 2954 C 267.975 1.11614 1.23011 0
M  V30 2955 O 269.16 1.39745 1.29908 0
M  V30 2956 C 266.3 2.81882 1.9909 0
M  V30 2957 C 265.413 4.02462 1.56997 0
M  V30 2958 C 264.548 4.54537 2.749 0
M  V30 2959 C 263.587 5.67538 2.29275 0
M  V30 2960 N 262.724 6.14142 3.40255 0
M  V30 2961 H 267.564 2.97048 0.237952 0
M  V30 2962 H 265.101 1.4672 0.105725 0
M  V30 2963 H 267.059 3.17221 2.70974 0
M  V30 2964 H 265.689 2.05191 2.49192 0
M  V30 2965 H 264.741 3.72973 0.748037 0
M  V30 2966 H 266.053 4.84273 1.19503 0
M  V30 2967 H 265.207 4.92035 3.54946 0
M  V30 2968 H 263.946 3.71774 3.1565 0
M  V30 2969 H 262.951 5.29597 1.47674 0
M  V30 2970 H 264.176 6.52099 1.89588 0
M  V30 2971 H 262.122 5.3431 3.8059 0
M  V30 2972 H 262.039 6.9093 3.06841 0
M  V30 2973 H 263.307 6.56289 4.206 0
M  V30 2974 N 267.536 -0.106894 1.57237 0
M  V30 2975 C 268.813 -0.843526 1.76477 0
M  V30 2976 C 269.193 -1.97499 0.745464 0
M  V30 2977 O 268.541 -2.27357 -0.228306 0
M  V30 2978 C 268.751 -1.34903 3.21873 0
M  V30 2979 C 270.099 -1.79654 3.8472 0
M  V30 2980 O 271.123 -1.44554 3.2555 0
M  V30 2981 O 269.982 -2.44515 4.88748 0
M  V30 2982 H 267.076 -0.401468 0.723016 0
M  V30 2983 H 269.622 -0.0896927 1.69463 0
M  V30 2984 H 268.394 -0.53781 3.87586 0
M  V30 2985 H 268.017 -2.16522 3.33473 0
M  V30 2986 N 269.014 -1.53014 -0.377408 0
M  V30 2987 C 270.262 -1.6829 -1.11906 0
M  V30 2988 C 270.583 -0.431206 -1.90173 0
M  V30 2989 O 269.853 0.554595 -1.87886 0
M  V30 2990 H 268.433 -0.620371 -0.416112 0
M  V30 2991 H 271.095 -1.90167 -0.426893 0
M  V30 2992 H 270.191 -2.53862 -1.8155 0
M  V30 2993 N 270.492 0.636531 -1.44174 0
M  V30 2994 C 271.72 1.42353 -1.50144 0
M  V30 2995 C 272.135 1.88389 -0.124575 0
M  V30 2996 O 271.492 1.6051 0.868489 0
M  V30 2997 C 271.543 2.64744 -2.46156 0
M  V30 2998 O 271.264 2.20629 -3.7849 0
M  V30 2999 C 272.765 3.57929 -2.61537 0
M  V30 3000 H 269.985 0.436752 -0.5094 0
M  V30 3001 H 272.529 0.778933 -1.89084 0
M  V30 3002 H 270.684 3.25307 -2.10366 0
M  V30 3003 H 271.098 2.99938 -4.30276 0
M  V30 3004 H 272.572 4.40428 -3.32757 0
M  V30 3005 H 273.049 4.06382 -1.66585 0
M  V30 3006 H 273.655 3.03238 -2.98206 0
M  V30 3007 N 271.97 1.30982 0.876444 0
M  V30 3008 C 273.386 1.09498 1.16113 0
M  V30 3009 C 273.586 -0.13875 2.01022 0
M  V30 3010 O 272.642 -0.829935 2.38471 0
M  V30 3011 C 273.955 2.36308 1.85954 0
M  V30 3012 C 275.503 2.41856 1.98683 0
M  V30 3013 C 275.978 3.6853 2.71937 0
M  V30 3014 N 277.469 3.69387 2.79477 0
M  V30 3015 C 278.204 4.64096 3.36753 0
M  V30 3016 N 277.7 5.69155 3.95012 0
M  V30 3017 N 279.493 4.51626 3.3465 0
M  V30 3018 H 271.644 2.10118 0.310494 0
M  V30 3019 H 273.907 0.926634 0.200131 0
M  V30 3020 H 273.613 3.26388 1.31011 0
M  V30 3021 H 273.487 2.4561 2.86278 0
M  V30 3022 H 275.874 1.52249 2.52793 0
M  V30 3023 H 275.955 2.36523 0.9742 0
M  V30 3024 H 275.599 4.58499 2.18496 0
M  V30 3025 H 275.529 3.71127 3.73593 0
M  V30 3026 H 278.02 2.93438 2.38123 0
M  V30 3027 H 278.333 6.3751 4.36808 0
M  V30 3028 H 276.678 5.72937 3.93406 0
M  V30 3029 H 279.869 3.68728 2.8837 0
M  V30 3030 H 280.042 5.25614 3.7899 0
M  V30 3031 N 273.449 -1.08991 1.13837 0
M  V30 3032 C 274.679 -1.84743 0.924859 0
M  V30 3033 C 275.087 -1.81629 -0.529874 0
M  V30 3034 O 274.43 -1.21397 -1.37872 0
M  V30 3035 C 274.492 -3.33568 1.34061 0
M  V30 3036 C 274.156 -3.60425 2.80968 0
M  V30 3037 C 275.153 -3.55771 3.79108 0
M  V30 3038 C 272.838 -3.88627 3.18236 0
M  V30 3039 C 274.832 -3.78939 5.12527 0
M  V30 3040 C 272.519 -4.11449 4.51833 0
M  V30 3041 C 273.517 -4.06598 5.48787 0
M  V30 3042 O 273.205 -4.28826 6.79973 0
M  V30 3043 H 272.937 -0.590258 0.329502 0
M  V30 3044 H 275.491 -1.38598 1.51591 0
M  V30 3045 H 273.721 -3.80442 0.692853 0
M  V30 3046 H 275.41 -3.90743 1.09886 0
M  V30 3047 H 276.176 -3.34005 3.51661 0
M  V30 3048 H 272.055 -3.91526 2.43369 0
M  V30 3049 H 275.599 -3.75068 5.88192 0
M  V30 3050 H 271.496 -4.32698 4.79002 0
M  V30 3051 H 272.264 -4.46264 6.86142 0
M  V30 3052 N 274.927 -0.932562 -1.27047 0
M  V30 3053 C 276.155 -0.592031 -1.98249 0
M  V30 3054 C 276.57 0.831062 -1.69525 0
M  V30 3055 O 275.927 1.55299 -0.958561 0
M  V30 3056 C 275.978 -0.814279 -3.5221 0
M  V30 3057 O 275.699 -2.18139 -3.7993 0
M  V30 3058 C 277.2 -0.483121 -4.4066 0
M  V30 3059 H 274.42 -0.223896 -0.632544 0
M  V30 3060 H 276.964 -1.25091 -1.61779 0
M  V30 3061 H 275.119 -0.20213 -3.86872 0
M  V30 3062 H 275.533 -2.235 -4.74498 0
M  V30 3063 H 277.007 -0.689298 -5.47679 0
M  V30 3064 H 277.484 0.581546 -4.35333 0
M  V30 3065 H 278.09 -1.07362 -4.11526 0
M  V30 3066 N 276.405 1.4127 -0.698611 0
M  V30 3067 C 277.653 2.00782 -0.230409 0
M  V30 3068 C 277.974 1.5562 1.17505 0
M  V30 3069 O 277.244 0.78815 1.79346 0
M  V30 3070 H 275.824 0.742464 -0.0821944 0
M  V30 3071 H 278.486 1.72852 -0.90045 0
M  V30 3072 H 277.582 3.11095 -0.25021 0
M  V30 3073 N 277.883 0.443576 1.51229 0
M  V30 3074 C 279.132 -0.122332 2.01329 0
M  V30 3075 C 279.445 -1.43237 1.33201 0
M  V30 3076 O 280.651 -2.0816 1.74304 0
M  V30 3077 C 279.107 -0.268551 3.58897 0
M  V30 3078 C 278.715 1.03142 4.35965 0
M  V30 3079 C 280.459 -0.787894 4.17124 0
M  V30 3080 C 278.366 0.850504 5.85252 0
M  V30 3081 H 277.296 -0.0494929 0.752374 0
M  V30 3082 H 279.947 0.574289 1.74282 0
M  V30 3083 H 278.329 -1.02832 3.82415 0
M  V30 3084 H 279.503 1.80001 4.24189 0
M  V30 3085 H 277.818 1.47977 3.89219 0
M  V30 3086 H 280.415 -0.939841 5.26375 0
M  V30 3087 H 280.758 -1.77201 3.76703 0
M  V30 3088 H 281.291 -0.0862669 3.97706 0
M  V30 3089 H 278.03 1.80718 6.30096 0
M  V30 3090 H 277.55 0.121825 5.99676 0
M  V30 3091 H 279.229 0.506163 6.45017 0
M  V30 3092 N 279.361 -1.56624 0.175154 0
M  V30 3093 C 280.777 -1.58571 -0.180966 0
M  V30 3094 C 280.977 -1.19065 -1.6256 0
M  V30 3095 O 280.033 -0.904044 -2.35761 0
M  V30 3096 C 281.346 -3.00522 0.103326 0
M  V30 3097 C 282.894 -3.12972 0.0418426 0
M  V30 3098 C 283.369 -4.57022 0.299175 0
M  V30 3099 N 284.86 -4.62541 0.247086 0
M  V30 3100 C 285.595 -5.71857 0.420318 0
M  V30 3101 N 285.091 -6.89717 0.652816 0
M  V30 3102 N 286.884 -5.60972 0.355957 0
M  V30 3103 H 279.035 -1.80589 1.11809 0
M  V30 3104 H 281.298 -0.837178 0.444788 0
M  V30 3105 H 281.004 -3.33916 1.10422 0
M  V30 3106 H 280.878 -3.72344 -0.603299 0
M  V30 3107 H 283.265 -2.79403 -0.949636 0
M  V30 3108 H 283.346 -2.43578 0.781238 0
M  V30 3109 H 282.99 -4.913 1.28788 0
M  V30 3110 H 282.92 -5.24579 -0.460876 0
M  V30 3111 H 285.411 -3.77829 0.0731895 0
M  V30 3112 H 285.724 -7.68911 0.774347 0
M  V30 3113 H 284.069 -6.91572 0.689476 0
M  V30 3114 H 287.26 -4.67773 0.174882 0
M  V30 3115 H 287.433 -6.46111 0.494388 0
M  V30 3116 N 280.839 0.0985539 -1.57292 0
M  V30 3117 C 282.064 0.820196 -1.90493 0
M  V30 3118 C 282.489 1.71658 -0.769094 0
M  V30 3119 O 281.847 1.79133 0.279495 0
M  V30 3120 C 281.895 1.61242 -3.22542 0
M  V30 3121 O 280.999 2.72108 -3.09888 0
M  V30 3122 H 280.34 0.225547 -0.62452 0
M  V30 3123 H 282.87 0.0748159 -2.04463 0
M  V30 3124 H 282.88 1.99737 -3.55766 0
M  V30 3125 H 281.555 0.954535 -4.04798 0
M  V30 3126 H 280.132 2.36667 -2.88172 0
M  V30 3127 N 282.317 1.53212 0.369288 0
M  V30 3128 C 283.247 1.82365 1.45826 0
M  V30 3129 C 284.228 0.676907 1.56051 0
M  V30 3130 O 285.413 0.926401 1.70679 0
M  V30 3131 C 282.543 2.01023 2.83208 0
M  V30 3132 C 281.497 3.1678 2.8781 0
M  V30 3133 C 280.823 3.20724 4.27832 0
M  V30 3134 C 282.123 4.55447 2.55667 0
M  V30 3135 H 283.817 2.73559 1.21678 0
M  V30 3136 H 281.363 1.3163 0.583911 0
M  V30 3137 H 283.316 2.20001 3.59413 0
M  V30 3138 H 282.04 1.06536 3.08736 0
M  V30 3139 H 280.699 2.97616 2.14056 0
M  V30 3140 H 280.347 2.23882 4.50429 0
M  V30 3141 H 280.047 3.98496 4.31827 0
M  V30 3142 H 281.571 3.41881 5.05915 0
M  V30 3143 H 282.985 4.74611 3.21586 0
M  V30 3144 H 281.382 5.35432 2.70984 0
M  V30 3145 H 282.452 4.60812 1.5093 0
M  V30 3146 N 283.795 -0.628877 1.44509 0
M  V30 3147 C 284.742 -1.74074 1.51549 0
M  V30 3148 C 285.712 -1.62084 0.363021 0
M  V30 3149 O 286.897 -1.81975 0.573567 0
M  V30 3150 C 284.037 -3.12328 1.46784 0
M  V30 3151 C 283.15 -3.35277 2.72422 0
M  V30 3152 C 282.285 -4.63515 2.59475 0
M  V30 3153 C 281.324 -4.7965 3.80266 0
M  V30 3154 N 280.461 -5.99168 3.65981 0
M  V30 3155 H 285.301 -1.67392 2.46544 0
M  V30 3156 H 282.838 -0.816527 1.22357 0
M  V30 3157 H 284.796 -3.92286 1.42012 0
M  V30 3158 H 283.426 -3.18018 0.553544 0
M  V30 3159 H 282.478 -2.49242 2.87372 0
M  V30 3160 H 283.79 -3.43078 3.62076 0
M  V30 3161 H 282.944 -5.51638 2.52548 0
M  V30 3162 H 281.683 -4.58076 1.67384 0
M  V30 3163 H 280.688 -3.89957 3.87574 0
M  V30 3164 H 281.913 -4.86902 4.73395 0
M  V30 3165 H 279.859 -5.94814 2.76644 0
M  V30 3166 H 279.776 -6.08035 4.49254 0
M  V30 3167 H 281.044 -6.89846 3.6295 0
M  V30 3168 N 285.273 -1.31445 -0.869486 0
M  V30 3169 C 286.203 -1.21727 -1.99261 0
M  V30 3170 C 287.184 -0.104359 -1.6978 0
M  V30 3171 O 288.369 -0.289038 -1.92037 0
M  V30 3172 C 285.499 -0.924317 -3.34774 0
M  V30 3173 C 284.453 -1.99685 -3.78563 0
M  V30 3174 C 283.779 -1.55658 -5.11541 0
M  V30 3175 C 285.079 -3.41003 -3.95619 0
M  V30 3176 H 286.773 -2.1569 -2.07649 0
M  V30 3177 H 284.319 -1.03839 -0.997675 0
M  V30 3178 H 286.272 -0.842934 -4.12883 0
M  V30 3179 H 284.996 0.0509793 -3.2656 0
M  V30 3180 H 283.655 -2.06813 -3.02694 0
M  V30 3181 H 283.303 -0.569132 -4.9977 0
M  V30 3182 H 283.003 -2.27409 -5.41811 0
M  V30 3183 H 284.527 -1.48928 -5.92159 0
M  V30 3184 H 285.941 -3.36547 -4.64122 0
M  V30 3185 H 284.338 -4.10975 -4.37286 0
M  V30 3186 H 285.408 -3.81754 -2.98985 0
M  V30 3187 N 286.751 1.08385 -1.14413 0
M  V30 3188 C 288.028 1.77429 -0.823297 0
M  V30 3189 C 288.408 1.9974 0.683163 0
M  V30 3190 O 287.756 1.60739 1.62405 0
M  V30 3191 C 287.966 3.09004 -1.62227 0
M  V30 3192 C 289.314 3.83532 -1.82177 0
M  V30 3193 O 290.338 3.18786 -1.58915 0
M  V30 3194 O 289.197 4.99792 -2.21067 0
M  V30 3195 H 286.291 0.769999 -0.301712 0
M  V30 3196 H 288.837 1.14846 -1.24934 0
M  V30 3197 H 287.609 2.88316 -2.64555 0
M  V30 3198 H 287.232 3.79316 -1.19187 0
M  V30 3199 N 288.23 0.939286 1.26551 0
M  V30 3200 C 289.163 0.391702 2.24813 0
M  V30 3201 C 290.141 -0.518421 1.54114 0
M  V30 3202 O 291.325 -0.456299 1.82894 0
M  V30 3203 C 288.452 -0.437382 3.35864 0
M  V30 3204 C 287.498 0.410946 4.24516 0
M  V30 3205 S 288.331 1.83372 5.03125 0
M  V30 3206 C 289.487 1.01264 6.17654 0
M  V30 3207 H 289.72 1.22448 2.70913 0
M  V30 3208 H 287.253 0.742269 1.35387 0
M  V30 3209 H 289.211 -0.909837 4.0029 0
M  V30 3210 H 287.872 -1.24482 2.8838 0
M  V30 3211 H 287.065 -0.224191 5.03501 0
M  V30 3212 H 286.667 0.818014 3.64945 0
M  V30 3213 H 288.959 0.254023 6.77024 0
M  V30 3214 H 289.902 1.77589 6.85469 0
M  V30 3215 H 290.31 0.549532 5.61819 0
M  V30 3216 N 289.708 -1.40897 0.706093 0
M  V30 3217 C 290.656 -2.32572 0.0361893 0
M  V30 3218 C 291.65 -1.51532 -0.757266 0
M  V30 3219 O 292.856 -1.67396 -0.661703 0
M  V30 3220 H 289.231 -0.751966 -0.00709935 0
M  V30 3221 H 291.202 -2.86733 0.826249 0
M  V30 3222 C 289.951 -3.36418 -0.87854 0
M  V30 3223 H 289.274 -3.98836 -0.277401 0
M  V30 3224 H 290.714 -4.0308 -1.3154 0
M  V30 3225 C 289.173 -2.71141 -1.99961 0
M  V30 3226 O 289.703 -2.56735 -3.0895 0
M  V30 3227 N 287.909 -2.29671 -1.78043 0
M  V30 3228 H 287.456 -2.41588 -0.894042 0
M  V30 3229 H 287.414 -1.86332 -2.53235 0
M  V30 3230 N 291.186 -0.45159 -1.50991 0
M  V30 3231 C 292.597 0.00818571 -1.86698 0
M  V30 3232 C 292.948 1.40661 -1.3678 0
M  V30 3233 O 292.073 2.0391 -0.724546 0
M  V30 3234 C 292.668 0.0216303 -3.38793 0
M  V30 3235 C 291.227 0.425865 -3.73983 0
M  V30 3236 C 290.374 -0.372163 -2.74791 0
M  V30 3237 H 293.325 -0.666785 -1.44013 0
M  V30 3238 H 293.346 0.828078 -3.7138 0
M  V30 3239 H 292.858 -0.996288 -3.75094 0
M  V30 3240 H 290.959 1.44886 -3.43277 0
M  V30 3241 H 291.072 0.140761 -4.78893 0
M  V30 3242 H 289.436 0.171498 -2.54122 0
M  V30 3243 H 290.219 -1.38922 -3.13935 0
M  V30 3244 N 292.664 1.56529 -0.183458 0
M  V30 3245 C 293.912 1.96855 0.457452 0
M  V30 3246 C 294.233 1.07104 1.62953 0
M  V30 3247 O 293.503 0.139887 1.954 0
M  V30 3248 H 292.083 0.72693 0.171992 0
M  V30 3249 H 294.745 1.93056 -0.267476 0
M  V30 3250 H 293.841 3.01423 0.809368 0
M  V30 3251 N 294.142 -0.090211 1.57342 0
M  V30 3252 C 295.37 -0.806224 1.90546 0
M  V30 3253 C 295.785 -1.72041 0.777644 0
M  V30 3254 O 295.142 -1.80778 -0.250103 0
M  V30 3255 C 295.193 -1.61546 3.23396 0
M  V30 3256 O 294.914 -0.738043 4.31839 0
M  V30 3257 C 296.415 -2.4341 3.70495 0
M  V30 3258 H 293.635 -0.230256 0.630257 0
M  V30 3259 H 296.179 -0.0659843 2.04394 0
M  V30 3260 H 294.334 -2.30816 3.11131 0
M  V30 3261 H 294.748 -1.29901 5.08159 0
M  V30 3262 H 296.222 -2.95676 4.66133 0
M  V30 3263 H 296.699 -3.22098 2.98579 0
M  V30 3264 H 297.305 -1.79331 3.85643 0
M  V30 3265 N 295.62 -1.53406 -0.361157 0
M  V30 3266 C 296.868 -1.69467 -1.10115 0
M  V30 3267 C 297.189 -0.451352 -1.89705 0
M  V30 3268 O 296.459 0.534636 -1.88463 0
M  V30 3269 H 295.039 -0.624749 -0.409508 0
M  V30 3270 H 297.701 -1.90609 -0.406699 0
M  V30 3271 H 296.797 -2.55774 -1.78847 0
M  V30 3272 N 297.098 0.621204 -1.44841 0
M  V30 3273 C 298.347 1.37658 -1.47422 0
M  V30 3274 C 298.66 1.95264 -0.114629 0
M  V30 3275 O 299.866 2.71494 -0.0180199 0
M  V30 3276 C 298.322 2.49285 -2.59586 0
M  V30 3277 C 297.93 1.98149 -4.01797 0
M  V30 3278 C 299.674 3.26409 -2.71399 0
M  V30 3279 C 297.581 3.07178 -5.05367 0
M  V30 3280 H 296.511 0.517344 -0.548517 0
M  V30 3281 H 299.162 0.667257 -1.70938 0
M  V30 3282 H 297.544 3.22839 -2.29328 0
M  V30 3283 H 298.718 1.31395 -4.41669 0
M  V30 3284 H 297.033 1.33812 -3.94314 0
M  V30 3285 H 299.63 4.07706 -3.45948 0
M  V30 3286 H 299.973 3.76535 -1.77559 0
M  V30 3287 H 300.506 2.5995 -3.01116 0
M  V30 3288 H 297.245 2.61985 -6.00869 0
M  V30 3289 H 296.765 3.72542 -4.70077 0
M  V30 3290 H 298.444 3.71789 -5.29511 0
M  V30 3291 N 298.576 1.31904 0.862503 0
M  V30 3292 C 299.822 1.23207 1.61838 0
M  V30 3293 C 300.177 -0.206062 1.91293 0
M  V30 3294 O 299.47 -1.14162 1.53875 0
M  V30 3295 C 299.664 2.01713 2.95037 0
M  V30 3296 C 299.493 3.53014 2.78588 0
M  V30 3297 C 298.263 4.22359 2.77382 0
M  V30 3298 C 300.461 4.47819 2.52909 0
M  V30 3299 N 298.443 5.59766 2.52062 0
M  V30 3300 C 299.814 5.72947 2.36922 0
M  V30 3301 C 301.869 4.37162 2.38314 0
M  V30 3302 C 300.572 6.88623 2.07823 0
M  V30 3303 C 302.598 5.5263 2.10604 0
M  V30 3304 C 301.96 6.76752 1.95411 0
M  V30 3305 H 298.059 0.505984 0.596242 0
M  V30 3306 H 300.643 1.66179 1.01452 0
M  V30 3307 H 298.814 1.61098 3.53415 0
M  V30 3308 H 300.546 1.84975 3.59953 0
M  V30 3309 H 297.301 3.74401 2.90036 0
M  V30 3310 H 297.725 6.32135 2.42352 0
M  V30 3311 H 302.367 3.41857 2.48784 0
M  V30 3312 H 300.085 7.83948 1.9609 0
M  V30 3313 H 303.671 5.46307 2.00101 0
M  V30 3314 H 302.551 7.6459 1.74274 0
M  V30 3315 N 300.054 -1.07777 1.14986 0
M  V30 3316 C 300.986 -2.14769 0.800436 0
M  V30 3317 C 301.999 -1.61739 -0.185595 0
M  V30 3318 O 303.188 -1.78462 0.0370358 0
M  V30 3319 C 300.288 -3.38481 0.168533 0
M  V30 3320 C 299.461 -4.20876 1.1909 0
M  V30 3321 C 298.52 -5.22976 0.581575 0
M  V30 3322 O 297.546 -5.55388 1.24633 0
M  V30 3323 N 298.748 -5.76976 -0.638706 0
M  V30 3324 H 301.513 -2.45348 1.72118 0
M  V30 3325 H 299.074 -1.23645 1.04515 0
M  V30 3326 H 301.066 -4.03916 -0.251764 0
M  V30 3327 H 299.636 -3.05651 -0.655467 0
M  V30 3328 H 298.856 -3.51322 1.78791 0
M  V30 3329 H 300.144 -4.7274 1.88133 0
M  V30 3330 H 299.542 -5.52886 -1.19723 0
M  V30 3331 H 298.099 -6.44061 -1.00142 0
M  V30 3332 N 301.532 -0.945985 -1.26051 0
M  V30 3333 C 302.757 -0.612525 -1.98149 0
M  V30 3334 C 303.182 0.806623 -1.69927 0
M  V30 3335 O 302.54 1.54411 -0.950108 0
M  V30 3336 C 302.588 -0.866981 -3.50023 0
M  V30 3337 O 301.692 0.0585333 -4.12358 0
M  V30 3338 H 301.033 -0.23379 -0.621481 0
M  V30 3339 H 303.563 -1.27023 -1.60395 0
M  V30 3340 H 303.573 -0.789792 -4.00283 0
M  V30 3341 H 302.248 -1.90135 -3.69894 0
M  V30 3342 H 300.825 -0.0701241 -3.72834 0
M  V30 3343 N 303.011 1.40521 -0.713556 0
M  V30 3344 C 304.26 2.00155 -0.249192 0
M  V30 3345 C 304.573 1.57224 1.16362 0
M  V30 3346 O 305.779 2.09542 1.72639 0
M  V30 3347 C 304.235 3.5773 -0.3946 0
M  V30 3348 C 303.843 4.09635 -1.81392 0
M  V30 3349 C 305.587 4.24499 0.00907364 0
M  V30 3350 C 303.494 5.59707 -1.91003 0
M  V30 3351 H 302.424 0.74868 -0.0894114 0
M  V30 3352 H 305.075 1.60784 -0.884352 0
M  V30 3353 H 303.457 3.94792 0.30911 0
M  V30 3354 H 304.631 3.83955 -2.54785 0
M  V30 3355 H 302.946 3.55456 -2.16888 0
M  V30 3356 H 305.543 5.34683 -0.0420404 0
M  V30 3357 H 305.886 4.02824 1.05065 0
M  V30 3358 H 306.419 3.92536 -0.645007 0
M  V30 3359 H 303.158 5.86234 -2.93275 0
M  V30 3360 H 302.678 5.87258 -1.22019 0
M  V30 3361 H 304.357 6.24776 -1.6812 0
M  V30 3362 N 304.489 0.459591 1.5075 0
M  V30 3363 C 305.766 -0.160371 1.94941 0
M  V30 3364 C 306.146 -1.58048 1.39943 0
M  V30 3365 O 305.494 -2.206 0.595629 0
M  V30 3366 C 305.704 -0.115432 3.48809 0
M  V30 3367 C 307.052 -0.310026 4.23467 0
M  V30 3368 O 308.076 -0.192543 3.55679 0
M  V30 3369 O 306.935 -0.546031 5.43765 0
M  V30 3370 H 304.029 -0.117925 0.818549 0
M  V30 3371 H 306.575 0.519169 1.61563 0
M  V30 3372 H 305.347 0.87652 3.81357 0
M  V30 3373 H 304.97 -0.836928 3.88692 0
M  V30 3374 N 305.967 -1.56429 0.191757 0
M  V30 3375 C 307.213 -1.97777 -0.448554 0
M  V30 3376 C 307.546 -1.07847 -1.61501 0
M  V30 3377 O 306.821 -0.129774 -1.94067 0
M  V30 3378 C 307.104 -3.48362 -0.911906 0
M  V30 3379 C 306.957 -4.4907 0.256136 0
M  V30 3380 C 308.276 -4.02561 -1.77857 0
M  V30 3381 H 305.395 -0.719071 -0.161572 0
M  V30 3382 H 308.037 -1.87896 0.282007 0
M  V30 3383 H 306.187 -3.56914 -1.53442 0
M  V30 3384 H 307.859 -4.5256 0.893733 0
M  V30 3385 H 306.102 -4.24181 0.908436 0
M  V30 3386 H 306.773 -5.51889 -0.11053 0
M  V30 3387 H 309.249 -3.96767 -1.25359 0
M  V30 3388 H 308.125 -5.08301 -2.07174 0
M  V30 3389 H 308.386 -3.47616 -2.73158 0
M  V30 3390 N 307.445 0.0818655 -1.57387 0
M  V30 3391 C 308.392 1.09834 -2.0299 0
M  V30 3392 C 309.362 1.39043 -0.908639 0
M  V30 3393 O 310.547 1.50282 -1.17559 0
M  V30 3394 C 307.687 2.40971 -2.47037 0
M  V30 3395 C 306.8 2.18379 -3.7274 0
M  V30 3396 C 305.935 3.43008 -4.0561 0
M  V30 3397 C 304.974 3.15736 -5.24383 0
M  V30 3398 N 304.111 4.32667 -5.52941 0
M  V30 3399 H 308.951 0.702472 -2.89602 0
M  V30 3400 H 306.488 0.33531 -1.43227 0
M  V30 3401 H 308.446 3.1752 -2.70623 0
M  V30 3402 H 307.076 2.78379 -1.63417 0
M  V30 3403 H 306.128 1.32569 -3.56552 0
M  V30 3404 H 307.44 1.94227 -4.59431 0
M  V30 3405 H 306.594 4.27958 -4.30043 0
M  V30 3406 H 305.333 3.70225 -3.17466 0
M  V30 3407 H 304.338 2.2918 -4.99757 0
M  V30 3408 H 305.563 2.8985 -6.14136 0
M  V30 3409 H 303.509 4.59935 -4.67756 0
M  V30 3410 H 303.426 4.11753 -6.34031 0
M  V30 3411 H 304.694 5.18644 -5.81918 0
M  V30 3412 N 308.923 1.53595 0.353017 0
M  V30 3413 C 310.151 1.74311 1.1146 0
M  V30 3414 C 310.566 0.477854 1.82653 0
M  V30 3415 O 309.923 -0.549977 1.74016 0
M  V30 3416 C 309.974 2.91694 2.13534 0
M  V30 3417 O 309.695 4.13325 1.45238 0
M  V30 3418 C 311.196 3.24384 3.02142 0
M  V30 3419 H 308.416 0.582669 0.332773 0
M  V30 3420 H 310.96 2.00386 0.408107 0
M  V30 3421 H 309.115 2.67977 2.79763 0
M  V30 3422 H 309.529 4.79148 2.13349 0
M  V30 3423 H 311.003 4.09893 3.69718 0
M  V30 3424 H 311.48 2.40282 3.67643 0
M  V30 3425 H 312.086 3.50073 2.41514 0
M  V30 3426 N 310.401 -0.613514 1.45168 0
M  V30 3427 C 311.647 -1.37471 1.49096 0
M  V30 3428 C 311.98 -1.93765 0.129901 0
M  V30 3429 O 311.255 -1.74707 -0.854858 0
M  V30 3430 C 311.538 -2.52701 2.56542 0
M  V30 3431 C 311.391 -2.01643 4.0207 0
M  V30 3432 C 312.71 -3.54849 2.60327 0
M  V30 3433 H 309.829 -0.498502 0.54283 0
M  V30 3434 H 312.471 -0.692125 1.76945 0
M  V30 3435 H 310.621 -3.10931 2.32926 0
M  V30 3436 H 312.293 -1.48108 4.36877 0
M  V30 3437 H 310.536 -1.32688 4.13009 0
M  V30 3438 H 311.207 -2.84681 4.72928 0
M  V30 3439 H 313.683 -3.0645 2.81474 0
M  V30 3440 H 312.559 -4.32973 3.37381 0
M  V30 3441 H 312.82 -4.10079 1.6519 0
M  V30 3442 N 311.879 -1.3236 -0.855495 0
M  V30 3443 C 312.809 -1.23833 -1.97958 0
M  V30 3444 C 313.79 -0.122361 -1.69659 0
M  V30 3445 O 314.975 -0.30939 -1.9172 0
M  V30 3446 C 312.105 -0.959772 -3.33775 0
M  V30 3447 C 311.059 -2.03689 -3.76424 0
M  V30 3448 C 310.385 -1.61075 -5.09862 0
M  V30 3449 C 311.685 -3.4518 -3.9198 0
M  V30 3450 H 313.379 -2.1788 -2.0535 0
M  V30 3451 H 310.925 -1.04891 -0.986605 0
M  V30 3452 H 312.878 -0.886678 -4.11966 0
M  V30 3453 H 311.602 0.0163404 -3.26596 0
M  V30 3454 H 310.261 -2.10012 -3.00484 0
M  V30 3455 H 309.909 -0.622107 -4.99138 0
M  V30 3456 H 309.609 -2.33143 -5.39368 0
M  V30 3457 H 311.133 -1.55201 -5.90546 0
M  V30 3458 H 312.547 -3.4145 -4.60526 0
M  V30 3459 H 310.944 -4.1559 -4.32903 0
M  V30 3460 H 312.014 -3.84903 -2.94919 0
M  V30 3461 N 313.357 1.07166 -1.15556 0
M  V30 3462 C 314.289 2.14341 -0.811815 0
M  V30 3463 C 315.302 1.61835 0.177015 0
M  V30 3464 O 316.491 1.78439 -0.0464996 0
M  V30 3465 C 313.591 3.38387 -0.186481 0
M  V30 3466 C 312.764 4.20238 -1.21321 0
M  V30 3467 C 311.823 5.2266 -0.609302 0
M  V30 3468 O 310.849 5.54719 -1.27576 0
M  V30 3469 N 312.051 5.77306 0.608099 0
M  V30 3470 H 314.816 2.44431 -1.73417 0
M  V30 3471 H 312.377 1.23089 -1.0517 0
M  V30 3472 H 314.369 4.04044 0.230339 0
M  V30 3473 H 312.939 3.05994 0.639249 0
M  V30 3474 H 312.159 3.50369 -1.80652 0
M  V30 3475 H 313.447 4.71736 -1.90638 0
M  V30 3476 H 312.845 5.53513 1.1679 0
M  V30 3477 H 311.402 6.44583 0.96725 0
M  V30 3478 N 314.835 0.952656 1.25548 0
M  V30 3479 C 315.783 0.462354 2.27958 0
M  V30 3480 C 316.777 -0.46634 1.62855 0
M  V30 3481 O 317.983 -0.343287 1.76696 0
M  V30 3482 H 314.358 0.13101 0.7405 0
M  V30 3483 H 316.329 1.33839 2.66702 0
M  V30 3484 C 315.078 -0.24628 3.46827 0
M  V30 3485 H 314.401 0.459192 3.97154 0
M  V30 3486 H 315.841 -0.553393 4.20373 0
M  V30 3487 C 314.3 -1.4681 3.0323 0
M  V30 3488 O 314.83 -2.56591 3.09069 0
M  V30 3489 N 313.036 -1.32874 2.58443 0
M  V30 3490 H 312.583 -0.435536 2.53891 0
M  V30 3491 H 312.541 -2.14742 2.29637 0
M  V30 3492 N 316.313 -1.40141 0.720998 0
M  V30 3493 C 317.559 -2.01572 0.272075 0
M  V30 3494 C 317.914 -1.5616 -1.12391 0
M  V30 3495 O 317.207 -0.774198 -1.75262 0
M  V30 3496 C 317.401 -3.56165 0.296892 0
M  V30 3497 C 317.23 -4.16584 1.69375 0
M  V30 3498 C 316 -4.49783 2.30269 0
M  V30 3499 C 318.198 -4.41076 2.64493 0
M  V30 3500 N 316.18 -4.95626 3.62254 0
M  V30 3501 C 317.551 -4.88971 3.81192 0
M  V30 3502 C 319.606 -4.23122 2.62435 0
M  V30 3503 C 318.309 -5.20796 4.96149 0
M  V30 3504 C 320.335 -4.56052 3.76524 0
M  V30 3505 C 319.697 -5.04141 4.91956 0
M  V30 3506 H 315.796 -0.768343 0.145511 0
M  V30 3507 H 318.38 -1.70287 0.943959 0
M  V30 3508 H 316.551 -3.86868 -0.344578 0
M  V30 3509 H 318.283 -4.04346 -0.169254 0
M  V30 3510 H 315.038 -4.37101 1.82318 0
M  V30 3511 H 315.462 -5.22923 4.29977 0
M  V30 3512 H 320.104 -3.85158 1.74393 0
M  V30 3513 H 317.822 -5.57672 5.84831 0
M  V30 3514 H 321.408 -4.43796 3.76213 0
M  V30 3515 H 320.288 -5.29142 5.78774 0
M  V30 3516 N 317.792 -0.46758 -1.50504 0
M  V30 3517 C 318.722 0.318381 -2.31319 0
M  V30 3518 C 319.703 0.993564 -1.38066 0
M  V30 3519 O 320.888 0.991411 -1.66987 0
M  V30 3520 C 318.018 1.40275 -3.17711 0
M  V30 3521 C 316.972 0.849373 -4.19487 0
M  V30 3522 C 316.298 2.03177 -4.94594 0
M  V30 3523 C 317.598 -0.136942 -5.2212 0
M  V30 3524 H 319.292 -0.356106 -2.97275 0
M  V30 3525 H 316.838 -0.172703 -1.42961 0
M  V30 3526 H 318.791 1.96004 -3.73042 0
M  V30 3527 H 317.515 2.10596 -2.49634 0
M  V30 3528 H 316.174 0.314076 -3.65252 0
M  V30 3529 H 315.822 2.72187 -4.22993 0
M  V30 3530 H 315.522 1.66774 -5.63436 0
M  V30 3531 H 317.046 2.59403 -5.52759 0
M  V30 3532 H 318.46 0.331056 -5.72343 0
M  V30 3533 H 316.857 -0.41507 -5.98663 0
M  V30 3534 H 317.927 -1.06398 -4.73083 0
M  V30 3535 N 319.27 1.56325 -0.20005 0
M  V30 3536 C 320.217 2.1932 0.718833 0
M  V30 3537 C 321.187 1.14198 1.20615 0
M  V30 3538 O 322.372 1.42469 1.26914 0
M  V30 3539 C 319.512 2.86041 1.93066 0
M  V30 3540 C 318.625 4.05702 1.48425 0
M  V30 3541 C 317.76 4.60266 2.65196 0
M  V30 3542 C 316.799 5.72273 2.17185 0
M  V30 3543 N 315.936 6.21221 3.27152 0
M  V30 3544 H 320.776 2.97486 0.17489 0
M  V30 3545 H 318.313 1.46911 0.0745794 0
M  V30 3546 H 320.271 3.22897 2.64184 0
M  V30 3547 H 318.901 2.1043 2.44783 0
M  V30 3548 H 317.953 3.74475 0.668755 0
M  V30 3549 H 319.265 4.86699 1.09204 0
M  V30 3550 H 318.419 4.99453 3.4443 0
M  V30 3551 H 317.158 3.78386 3.07693 0
M  V30 3552 H 316.163 5.3261 1.36407 0
M  V30 3553 H 317.388 6.55974 1.75713 0
M  V30 3554 H 315.334 5.42263 3.69171 0
M  V30 3555 H 315.251 6.97284 2.92116 0
M  V30 3556 H 316.519 6.65063 4.06585 0
M  V30 3557 N 320.748 -0.0735177 1.57428 0
M  V30 3558 C 321.68 -1.11423 2.00294 0
M  V30 3559 C 322.693 -1.35084 0.908637 0
M  V30 3560 O 323.882 -1.33355 1.18654 0
M  V30 3561 C 320.982 -2.46548 2.32523 0
M  V30 3562 C 320.155 -2.42867 3.63778 0
M  V30 3563 C 319.214 -3.60087 3.83697 0
M  V30 3564 O 318.24 -3.41595 4.55304 0
M  V30 3565 N 319.442 -4.80372 3.25919 0
M  V30 3566 H 322.207 -0.749206 2.90184 0
M  V30 3567 H 319.768 -0.262195 1.59763 0
M  V30 3568 H 321.76 -3.23607 2.43024 0
M  V30 3569 H 320.33 -2.75059 1.48531 0
M  V30 3570 H 319.55 -1.51206 3.64047 0
M  V30 3571 H 320.838 -2.37506 4.49965 0
M  V30 3572 H 320.236 -4.983 2.67795 0
M  V30 3573 H 318.793 -5.54948 3.41871 0
M  V30 3574 N 322.226 -1.5378 -0.344866 0
M  V30 3575 C 323.637 -1.62428 -0.920552 0
M  V30 3576 C 323.988 -0.504747 -1.89596 0
M  V30 3577 O 323.113 0.365711 -2.13287 0
M  V30 3578 C 323.708 -2.94419 -1.67639 0
M  V30 3579 C 322.267 -3.05333 -2.20111 0
M  V30 3580 C 321.414 -2.57866 -1.01982 0
M  V30 3581 H 324.365 -1.58222 -0.123042 0
M  V30 3582 H 324.386 -2.83384 -2.53917 0
M  V30 3583 H 323.898 -3.7588 -0.966224 0
M  V30 3584 H 321.999 -2.28502 -2.94308 0
M  V30 3585 H 322.112 -4.10778 -2.46573 0
M  V30 3586 H 320.476 -2.13241 -1.39285 0
M  V30 3587 H 321.259 -3.41765 -0.324308 0
M  V30 3588 N 323.704 0.605807 -1.45491 0
M  V30 3589 C 324.614 1.74466 -1.56839 0
M  V30 3590 C 325.63 1.68006 -0.452772 0
M  V30 3591 O 326.806 1.8833 -0.713708 0
M  V30 3592 C 323.871 3.10931 -1.53371 0
M  V30 3593 C 322.932 3.28832 -2.75986 0
M  V30 3594 C 322.165 4.58787 -2.72673 0
M  V30 3595 O 322.388 5.4122 -1.80102 0
M  V30 3596 O 321.322 4.79438 -3.63899 0
M  V30 3597 H 325.148 1.67843 -2.53106 0
M  V30 3598 H 322.733 0.770108 -1.28022 0
M  V30 3599 H 324.615 3.92233 -1.54051 0
M  V30 3600 H 323.29 3.18042 -0.602572 0
M  V30 3601 H 322.197 2.47112 -2.80867 0
M  V30 3602 H 323.53 3.26599 -3.68231 0
M  V30 3603 N 325.182 1.32811 0.848464 0
M  V30 3604 C 326.407 1.26882 1.6406 0
M  V30 3605 C 326.832 -0.15913 1.87426 0
M  V30 3606 O 326.19 -1.11258 1.43148 0
M  V30 3607 C 326.238 2.03997 2.97351 0
M  V30 3608 O 325.342 1.39201 3.88197 0
M  V30 3609 H 324.683 0.436982 0.499943 0
M  V30 3610 H 327.213 1.75224 1.0563 0
M  V30 3611 H 327.223 2.14403 3.47124 0
M  V30 3612 H 325.898 3.0783 2.79666 0
M  V30 3613 H 324.475 1.37381 3.46671 0
M  V30 3614 N 326.66 -1.06551 1.16123 0
M  V30 3615 C 327.608 -2.16063 0.861371 0
M  V30 3616 C 328.602 -1.6856 -0.168517 0
M  V30 3617 O 329.808 -1.79986 -0.0227579 0
M  V30 3618 H 326.183 -0.705278 0.260934 0
M  V30 3619 H 328.154 -2.38567 1.79244 0
M  V30 3620 C 326.903 -3.45661 0.376018 0
M  V30 3621 H 326.226 -3.82604 1.15992 0
M  V30 3622 H 327.666 -4.23504 0.204951 0
M  V30 3623 C 326.125 -3.24546 -0.903954 0
M  V30 3624 O 326.655 -3.49865 -1.97377 0
M  V30 3625 N 324.861 -2.77992 -0.846679 0
M  V30 3626 H 324.408 -2.57589 0.0241017 0
M  V30 3627 H 324.366 -2.64244 -1.70359 0
M  V30 3628 N 328.138 -0.959301 -1.25041 0
M  V30 3629 C 329.068 -0.501388 -2.28053 0
M  V30 3630 C 330.049 0.454673 -1.63911 0
M  V30 3631 O 331.234 0.352618 -1.90972 0
M  V30 3632 C 328.364 0.217224 -3.4662 0
M  V30 3633 C 327.318 -0.654034 -4.22973 0
M  V30 3634 C 326.644 0.195589 -5.34342 0
M  V30 3635 C 327.944 -1.93447 -4.85155 0
M  V30 3636 H 329.638 -1.36238 -2.66608 0
M  V30 3637 H 327.184 -0.656534 -1.28163 0
M  V30 3638 H 329.137 0.548732 -4.17812 0
M  V30 3639 H 327.861 1.1125 -3.07068 0
M  V30 3640 H 326.52 -0.968693 -3.5357 0
M  V30 3641 H 326.168 1.09076 -4.91031 0
M  V30 3642 H 325.868 -0.384091 -5.86343 0
M  V30 3643 H 327.392 0.521958 -6.08365 0
M  V30 3644 H 328.806 -1.66908 -5.48466 0
M  V30 3645 H 327.203 -2.46018 -5.47353 0
M  V30 3646 H 328.273 -2.63466 -4.07079 0
M  V30 3647 N 329.616 1.39756 -0.72842 0
M  V30 3648 C 330.864 2.00248 -0.272946 0
M  V30 3649 C 331.185 1.58077 1.14178 0
M  V30 3650 O 330.455 0.826014 1.77634 0
M  V30 3651 H 329.035 0.740554 -0.0979247 0
M  V30 3652 H 331.697 1.70903 -0.936912 0
M  V30 3653 H 330.793 3.10495 -0.316142 0
M  V30 3654 N 331.094 0.475555 1.50254 0
M  V30 3655 C 332.343 -0.0795996 2.01543 0
M  V30 3656 C 332.656 -1.4038 1.36209 0
M  V30 3657 O 333.862 -2.04415 1.7868 0
M  V30 3658 C 332.318 -0.192363 3.59386 0
M  V30 3659 C 331.926 1.12367 4.33679 0
M  V30 3660 C 333.67 -0.699238 4.18701 0
M  V30 3661 C 331.577 0.974453 5.83317 0
M  V30 3662 H 330.507 -0.0335228 0.753254 0
M  V30 3663 H 333.158 0.611128 1.73025 0
M  V30 3664 H 331.54 -0.946974 3.84511 0
M  V30 3665 H 332.714 1.88958 4.20276 0
M  V30 3666 H 331.029 1.562 3.85993 0
M  V30 3667 H 333.626 -0.827978 5.28251 0
M  V30 3668 H 333.969 -1.69171 3.80377 0
M  V30 3669 H 334.502 -0.00188807 3.978 0
M  V30 3670 H 331.241 1.94042 6.26121 0
M  V30 3671 H 330.761 0.248998 5.99283 0
M  V30 3672 H 332.44 0.642867 6.43798 0
M  V30 3673 N 332.573 -1.56217 0.208337 0
M  V30 3674 C 333.483 -2.23316 -0.718836 0
M  V30 3675 C 334.499 -1.23648 -1.22422 0
M  V30 3676 O 335.675 -1.56423 -1.26861 0
M  V30 3677 C 332.74 -2.88968 -1.91568 0
M  V30 3678 C 331.801 -4.03943 -1.45357 0
M  V30 3679 C 331.034 -4.66455 -2.59337 0
M  V30 3680 O 331.257 -4.27919 -3.77149 0
M  V30 3681 O 330.191 -5.55686 -2.31293 0
M  V30 3682 H 334.017 -3.03182 -0.177315 0
M  V30 3683 H 331.602 -1.49384 -0.0215402 0
M  V30 3684 H 333.484 -3.30455 -2.61491 0
M  V30 3685 H 332.159 -2.12071 -2.44556 0
M  V30 3686 H 331.066 -3.67052 -0.722746 0
M  V30 3687 H 332.399 -4.82543 -0.970219 0
M  V30 3688 N 334.051 0.0651679 -1.57465 0
M  V30 3689 C 335.3 0.761916 -1.86756 0
M  V30 3690 C 335.613 1.78406 -0.801925 0
M  V30 3691 O 336.819 2.53084 -0.982885 0
M  V30 3692 C 335.275 1.40603 -3.31299 0
M  V30 3693 C 334.883 0.422115 -4.46007 0
M  V30 3694 C 336.627 2.08476 -3.69781 0
M  V30 3695 C 334.534 1.07252 -5.81593 0
M  V30 3696 H 333.464 0.288308 -0.696702 0
M  V30 3697 H 336.115 0.015344 -1.83494 0
M  V30 3698 H 334.497 2.20109 -3.29193 0
M  V30 3699 H 335.671 -0.343613 -4.59517 0
M  V30 3700 H 333.986 -0.152527 -4.16121 0
M  V30 3701 H 336.583 2.57925 -4.68379 0
M  V30 3702 H 336.926 2.88712 -2.99919 0
M  V30 3703 H 337.459 1.35792 -3.73905 0
M  V30 3704 H 334.198 0.310342 -6.54765 0
M  V30 3705 H 333.718 1.80895 -5.71872 0
M  V30 3706 H 335.397 1.59043 -6.27148 0
M  V30 3707 N 335.529 1.53961 0.336706 0
M  V30 3708 C 336.476 1.82428 1.41381 0
M  V30 3709 C 337.446 0.670444 1.51968 0
M  V30 3710 O 338.631 0.915565 1.67398 0
M  V30 3711 C 335.771 2.04564 2.77934 0
M  V30 3712 C 334.884 3.32267 2.76084 0
M  V30 3713 C 334.019 3.44434 4.04399 0
M  V30 3714 C 333.058 4.66061 3.96804 0
M  V30 3715 N 332.195 4.75224 5.16823 0
M  V30 3716 H 337.035 2.74324 1.16405 0
M  V30 3717 H 334.572 1.35869 0.563752 0
M  V30 3718 H 336.53 2.15388 3.57301 0
M  V30 3719 H 335.16 1.15974 3.01247 0
M  V30 3720 H 334.212 3.3025 1.88784 0
M  V30 3721 H 335.524 4.21733 2.66351 0
M  V30 3722 H 334.678 3.54728 4.92192 0
M  V30 3723 H 333.417 2.53037 4.16921 0
M  V30 3724 H 332.422 4.55838 3.07396 0
M  V30 3725 H 333.647 5.58829 3.85858 0
M  V30 3726 H 331.593 3.86739 5.29876 0
M  V30 3727 H 331.51 5.58636 5.09374 0
M  V30 3728 H 332.778 4.89835 6.06367 0
M  V30 3729 N 337.007 -0.598083 1.45811 0
M  V30 3730 C 337.97 -1.69018 1.54808 0
M  V30 3731 C 338.97 -1.55037 0.426652 0
M  V30 3732 O 340.16 -1.59932 0.690456 0
M  V30 3733 C 337.292 -3.0835 1.45371 0
M  V30 3734 H 338.485 -1.62403 2.52121 0
M  V30 3735 H 336.038 -0.814626 1.33392 0
M  V30 3736 H 336.773 -3.20534 0.492793 0
M  V30 3737 H 336.558 -3.19907 2.26721 0
M  V30 3738 H 338.048 -3.8788 1.54721 0
M  V30 3739 N 338.485 -1.33259 -0.841409 0
M  V30 3740 C 339.415 -1.25926 -1.96634 0
M  V30 3741 C 340.396 -0.140349 -1.6952 0
M  V30 3742 O 341.581 -0.329707 -1.91381 0
M  V30 3743 C 338.711 -0.99512 -3.32738 0
M  V30 3744 C 337.665 -2.0767 -3.74242 0
M  V30 3745 C 336.991 -1.66474 -5.08125 0
M  V30 3746 C 338.291 -3.49318 -3.88297 0
M  V30 3747 H 339.985 -2.20046 -2.03027 0
M  V30 3748 H 337.531 -1.05931 -0.975425 0
M  V30 3749 H 339.484 -0.930323 -4.11002 0
M  V30 3750 H 338.208 -0.0183004 -3.26595 0
M  V30 3751 H 336.867 -2.13187 -2.98239 0
M  V30 3752 H 336.515 -0.675012 -4.9845 0
M  V30 3753 H 336.215 -2.3885 -5.36865 0
M  V30 3754 H 337.739 -1.61455 -5.88867 0
M  V30 3755 H 339.153 -3.46316 -4.56879 0
M  V30 3756 H 337.55 -4.20158 -4.28471 0
M  V30 3757 H 338.62 -3.8801 -2.9082 0
M  V30 3758 N 339.963 1.05934 -1.16686 0
M  V30 3759 C 341.24 1.75643 -0.860747 0
M  V30 3760 C 341.62 2.01144 0.640641 0
M  V30 3761 O 340.968 1.64147 1.58959 0
M  V30 3762 C 341.178 3.05493 -1.68745 0
M  V30 3763 C 342.526 3.79581 -1.90271 0
M  V30 3764 O 343.55 3.15344 -1.65641 0
M  V30 3765 O 342.409 4.9499 -2.31618 0
M  V30 3766 H 339.503 0.763426 -0.317977 0
M  V30 3767 H 342.049 1.1217 -1.27342 0
M  V30 3768 H 340.821 2.8264 -2.70611 0
M  V30 3769 H 340.444 3.76702 -1.27206 0
M  V30 3770 N 341.441 0.965919 1.2453 0
M  V30 3771 C 342.351 0.502154 2.29163 0
M  V30 3772 C 343.367 -0.436017 1.68448 0
M  V30 3773 O 344.543 -0.309497 1.99008 0
M  V30 3774 C 341.608 -0.201956 3.46111 0
M  V30 3775 C 340.669 0.775821 4.22232 0
M  V30 3776 C 339.902 0.105217 5.33596 0
M  V30 3777 O 340.125 -1.10683 5.59558 0
M  V30 3778 O 339.059 0.796475 5.96607 0
M  V30 3779 H 342.885 1.37194 2.70946 0
M  V30 3780 H 340.47 0.732875 1.30189 0
M  V30 3781 H 342.352 -0.597564 4.17142 0
M  V30 3782 H 341.027 -1.04673 3.06309 0
M  V30 3783 H 339.934 1.22185 3.53584 0
M  V30 3784 H 341.267 1.58896 4.65846 0
M  V30 3785 N 342.919 -1.39368 0.735821 0
M  V30 3786 C 343.867 -2.32443 0.0855131 0
M  V30 3787 C 344.861 -1.53104 -0.724954 0
M  V30 3788 O 346.067 -1.68762 -0.626047 0
M  V30 3789 H 342.442 -0.751948 0.00885257 0
M  V30 3790 H 344.413 -2.84916 0.886883 0
M  V30 3791 C 343.162 -3.38206 -0.806983 0
M  V30 3792 H 342.485 -3.99335 -0.19274 0
M  V30 3793 H 343.925 -4.05779 -1.2296 0
M  V30 3794 C 342.384 -2.75321 -1.94165 0
M  V30 3795 O 342.914 -2.63231 -3.03435 0
M  V30 3796 N 341.12 -2.33396 -1.73132 0
M  V30 3797 H 340.667 -2.4343 -0.842596 0
M  V30 3798 H 340.625 -1.91661 -2.49225 0
M  V30 3799 N 344.397 -0.483516 -1.5 0
M  V30 3800 C 345.645 0.067027 -2.01989 0
M  V30 3801 C 345.966 1.3909 -1.36671 0
M  V30 3802 O 345.236 1.88978 -0.516152 0
M  V30 3803 H 343.816 0.0277606 -0.746484 0
M  V30 3804 H 346.478 -0.636773 -1.84204 0
M  V30 3805 H 345.574 0.209484 -3.11396 0
M  V30 3806 N 345.875 1.56104 -0.216619 0
M  V30 3807 C 346.825 2.16703 0.708798 0
M  V30 3808 C 347.809 1.11392 1.16106 0
M  V30 3809 O 349.001 1.37395 1.11587 0
M  V30 3810 C 346.13 2.84666 1.91886 0
M  V30 3811 C 345.216 3.97195 1.48651 0
M  V30 3812 N 345.607 4.99959 0.766434 0
M  V30 3813 C 343.905 4.09193 1.77418 0
M  V30 3814 C 344.606 5.79126 0.546659 0
M  V30 3815 N 343.582 5.32315 1.10188 0
M  V30 3816 H 347.384 2.93516 0.150162 0
M  V30 3817 H 344.898 1.6239 -0.0176768 0
M  V30 3818 H 346.895 3.26486 2.59253 0
M  V30 3819 H 345.555 2.09347 2.48202 0
M  V30 3820 H 346.566 5.16197 0.419634 0
M  V30 3821 H 343.243 3.45021 2.35088 0
M  V30 3822 H 344.633 6.71895 -0.026103 0
M  V30 3823 N 347.353 -0.0568162 1.57498 0
M  V30 3824 C 348.63 -0.786954 1.79071 0
M  V30 3825 C 349.01 -1.95028 0.80792 0
M  V30 3826 O 348.358 -2.27968 -0.155858 0
M  V30 3827 C 348.568 -1.24594 3.26002 0
M  V30 3828 C 349.916 -1.67323 3.90241 0
M  V30 3829 O 350.94 -1.34124 3.29984 0
M  V30 3830 O 349.799 -2.28842 4.9628 0
M  V30 3831 H 346.893 -0.378262 0.735423 0
M  V30 3832 H 349.439 -0.035734 1.69662 0
M  V30 3833 H 348.211 -0.41423 3.89101 0
M  V30 3834 H 347.834 -2.05803 3.40192 0
M  V30 3835 N 348.832 -1.54138 -0.328536 0
M  V30 3836 C 349.762 -1.86167 -1.40939 0
M  V30 3837 C 350.743 -0.718044 -1.54202 0
M  V30 3838 O 351.928 -0.971328 -1.68163 0
M  V30 3839 C 349.058 -2.08461 -2.77779 0
M  V30 3840 C 348.012 -3.24299 -2.7931 0
M  V30 3841 C 347.338 -3.31955 -4.19178 0
M  V30 3842 C 348.638 -4.62065 -2.43502 0
M  V30 3843 H 350.332 -2.76689 -1.14383 0
M  V30 3844 H 347.878 -1.33132 -0.548806 0
M  V30 3845 H 349.831 -2.29453 -3.53454 0
M  V30 3846 H 348.555 -1.14684 -3.05802 0
M  V30 3847 H 347.214 -3.03187 -2.0609 0
M  V30 3848 H 346.862 -2.35745 -4.44335 0
M  V30 3849 H 346.562 -4.09805 -4.2111 0
M  V30 3850 H 348.086 -3.55175 -4.96672 0
M  V30 3851 H 349.5 -4.8297 -3.08889 0
M  V30 3852 H 347.897 -5.42429 -2.56693 0
M  V30 3853 H 348.967 -4.64652 -1.38659 0
M  V30 3854 N 350.31 0.590341 -1.46126 0
M  V30 3855 C 351.273 1.68194 -1.55703 0
M  V30 3856 C 352.273 1.54808 -0.434868 0
M  V30 3857 O 353.463 1.59564 -0.698928 0
M  V30 3858 C 350.595 3.07575 -1.47005 0
M  V30 3859 H 351.788 1.61064 -2.52979 0
M  V30 3860 H 349.341 0.807541 -1.33823 0
M  V30 3861 H 350.076 3.20268 -0.509785 0
M  V30 3862 H 349.861 3.187 -2.28414 0
M  V30 3863 H 351.351 3.87055 -1.56776 0
M  V30 3864 N 351.788 1.33704 0.83433 0
M  V30 3865 C 353.034 1.25603 1.59222 0
M  V30 3866 C 353.367 -0.176659 1.93395 0
M  V30 3867 O 352.642 -1.11915 1.59076 0
M  V30 3868 C 352.925 2.13576 2.89926 0
M  V30 3869 C 352.778 3.65326 2.62406 0
M  V30 3870 C 354.097 2.01238 3.91397 0
M  V30 3871 H 351.216 0.457613 0.577719 0
M  V30 3872 H 353.858 1.63848 0.961972 0
M  V30 3873 H 352.008 1.8109 3.43713 0
M  V30 3874 H 353.68 4.08124 2.15017 0
M  V30 3875 H 351.923 3.8698 1.96033 0
M  V30 3876 H 352.594 4.22232 3.55562 0
M  V30 3877 H 355.07 2.29738 3.46929 0
M  V30 3878 H 353.946 2.65036 4.80673 0
M  V30 3879 H 354.207 0.985951 4.30966 0
M  V30 3880 N 353.266 -1.05314 1.17247 0
M  V30 3881 C 354.494 -1.81971 0.984593 0
M  V30 3882 C 354.909 -1.82929 -0.467166 0
M  V30 3883 O 354.266 -1.25564 -1.32438 0
M  V30 3884 C 354.317 -3.28143 1.51672 0
M  V30 3885 O 354.038 -3.27347 2.91163 0
M  V30 3886 C 355.539 -4.21493 1.37326 0
M  V30 3887 H 352.759 -0.573455 0.348411 0
M  V30 3888 H 355.303 -1.32808 1.55506 0
M  V30 3889 H 353.458 -3.74582 0.988302 0
M  V30 3890 H 353.872 -4.18824 3.15732 0
M  V30 3891 H 355.346 -5.22043 1.79375 0
M  V30 3892 H 355.823 -4.38031 0.320169 0
M  V30 3893 H 356.429 -3.80909 1.89178 0
M  V30 3894 N 354.744 -0.972509 -1.24016 0
M  V30 3895 C 355.991 -0.637034 -1.92219 0
M  V30 3896 C 356.319 0.828418 -1.75976 0
M  V30 3897 O 355.574 1.61206 -1.10955 0
M  V30 3898 C 355.873 -0.963694 -3.44162 0
M  V30 3899 C 355.539 -2.41807 -3.80579 0
M  V30 3900 C 354.201 -2.81556 -3.9023 0
M  V30 3901 C 356.553 -3.36172 -3.98293 0
M  V30 3902 C 353.881 -4.14702 -4.15017 0
M  V30 3903 C 356.233 -4.68952 -4.24578 0
M  V30 3904 C 354.897 -5.08472 -4.32449 0
M  V30 3905 H 354.167 -0.233107 -0.703379 0
M  V30 3906 H 356.814 -1.2249 -1.47202 0
M  V30 3907 H 355.119 -0.29365 -3.90698 0
M  V30 3908 H 356.816 -0.682449 -3.9515 0
M  V30 3909 H 353.406 -2.09988 -3.73635 0
M  V30 3910 H 357.59 -3.06644 -3.90234 0
M  V30 3911 H 352.846 -4.4494 -4.19331 0
M  V30 3912 H 357.02 -5.42037 -4.37229 0
M  V30 3913 H 354.647 -6.11665 -4.51409 0
M  V30 3914 N 356.222 1.38976 -0.743202 0
M  V30 3915 C 357.633 1.83123 -0.363732 0
M  V30 3916 C 357.984 1.6205 1.10609 0
M  V30 3917 O 357.109 1.11606 1.854 0
M  V30 3918 C 357.704 3.32439 -0.653408 0
M  V30 3919 C 356.263 3.74974 -0.327338 0
M  V30 3920 C 355.41 2.61878 -0.911875 0
M  V30 3921 H 358.361 1.27852 -0.940191 0
M  V30 3922 H 358.382 3.80432 0.0720031 0
M  V30 3923 H 357.894 3.47745 -1.72323 0
M  V30 3924 H 355.995 3.65252 0.736314 0
M  V30 3925 H 356.108 4.72106 -0.815631 0
M  V30 3926 H 354.472 2.52448 -0.337944 0
M  V30 3927 H 355.255 2.79987 -1.98651 0
M  V30 3928 N 357.7 0.491464 1.49741 0
M  V30 3929 C 358.948 -0.0563141 2.02022 0
M  V30 3930 C 359.269 -1.38363 1.37407 0
M  V30 3931 O 358.539 -1.88702 0.526166 0
M  V30 3932 H 357.119 -0.0238014 0.746621 0
M  V30 3933 H 359.781 0.646533 1.83864 0
M  V30 3934 H 358.877 -0.192967 3.11503 0
M  V30 3935 N 359.178 -1.55987 0.224894 0
M  V30 3936 C 360.589 -1.84553 -0.282345 0
M  V30 3937 C 360.94 -1.14634 -1.59227 0
M  V30 3938 O 360.065 -0.417155 -2.12341 0
M  V30 3939 C 360.66 -3.348 -0.519062 0
M  V30 3940 C 359.219 -3.63671 -0.970604 0
M  V30 3941 C 358.366 -2.77277 -0.0355261 0
M  V30 3942 H 361.317 -1.52245 0.448006 0
M  V30 3943 H 361.338 -3.55187 -1.36463 0
M  V30 3944 H 360.85 -3.8566 0.43449 0
M  V30 3945 H 358.951 -3.1827 -1.9374 0
M  V30 3946 H 359.064 -4.71631 -0.842698 0
M  V30 3947 H 357.428 -2.48846 -0.542927 0
M  V30 3948 H 358.211 -3.30937 0.913003 0
M  V30 3949 N 360.656 0.0484629 -1.57525 0
M  V30 3950 C 361.904 0.741657 -1.88 0
M  V30 3951 C 362.225 1.76918 -0.820054 0
M  V30 3952 O 361.495 1.95335 0.148661 0
M  V30 3953 H 360.075 0.276908 -0.69378 0
M  V30 3954 H 362.737 0.019013 -1.94891 0
M  V30 3955 H 361.833 1.24336 -2.86264 0
M  V30 3956 N 362.134 1.5431 0.320358 0
M  V30 3957 C 363.044 1.86946 1.41734 0
M  V30 3958 C 364.06 0.761689 1.56443 0
M  V30 3959 O 365.236 1.05629 1.71477 0
M  V30 3960 C 362.301 2.09293 2.76401 0
M  V30 3961 C 361.362 3.33082 2.70841 0
M  V30 3962 C 360.595 3.54353 3.99086 0
M  V30 3963 O 360.818 2.79002 4.97508 0
M  V30 3964 O 359.752 4.47838 4.0215 0
M  V30 3965 H 363.578 2.80232 1.17062 0
M  V30 3966 H 361.163 1.40255 0.514673 0
M  V30 3967 H 363.045 2.25303 3.56113 0
M  V30 3968 H 361.72 1.19194 3.00956 0
M  V30 3969 H 360.627 3.22454 1.89668 0
M  V30 3970 H 361.96 4.23249 2.5124 0
M  V30 3971 N 363.613 -0.582584 1.46437 0
M  V30 3972 C 364.89 -1.34276 1.4223 0
M  V30 3973 C 365.27 -2.10835 0.10583 0
M  V30 3974 O 364.618 -2.09485 -0.912596 0
M  V30 3975 C 364.828 -2.26865 2.65204 0
M  V30 3976 C 366.176 -2.88691 3.11356 0
M  V30 3977 O 367.2 -2.37178 2.65753 0
M  V30 3978 O 366.059 -3.82255 3.90568 0
M  V30 3979 H 363.153 -0.603326 0.565621 0
M  V30 3980 H 365.699 -0.603591 1.58603 0
M  V30 3981 H 364.471 -1.69724 3.52576 0
M  V30 3982 H 364.094 -3.08122 2.5129 0
M  V30 3983 N 365.091 -1.34144 -0.827227 0
M  V30 3984 C 366.339 -1.26009 -1.58007 0
M  V30 3985 C 366.66 0.170971 -1.94249 0
M  V30 3986 O 365.93 1.10256 -1.61927 0
M  V30 3987 H 364.51 -0.463414 -0.585881 0
M  V30 3988 H 367.172 -1.68005 -0.987951 0
M  V30 3989 H 366.268 -1.86187 -2.50481 0
M  V30 3990 N 366.569 1.04691 -1.17803 0
M  V30 3991 C 367.499 2.14494 -0.92275 0
M  V30 3992 C 368.48 1.69546 0.137179 0
M  V30 3993 O 369.665 1.94195 -0.0141108 0
M  V30 3994 C 366.795 3.44491 -0.440803 0
M  V30 3995 C 365.749 4.03031 -1.4405 0
M  V30 3996 C 365.075 5.28432 -0.81631 0
M  V30 3997 C 366.375 4.39932 -2.81527 0
M  V30 3998 H 368.069 2.36107 -1.84103 0
M  V30 3999 H 365.615 1.1347 -0.886599 0
M  V30 4000 H 367.568 4.2066 -0.249602 0
M  V30 4001 H 366.292 3.22546 0.513025 0
M  V30 4002 H 364.951 3.28937 -1.61853 0
M  V30 4003 H 364.599 5.02792 0.144511 0
M  V30 4004 H 364.299 5.68559 -1.48371 0
M  V30 4005 H 365.823 6.07284 -0.635496 0
M  V30 4006 H 367.237 5.07113 -2.67412 0
M  V30 4007 H 365.634 4.9109 -3.44892 0
M  V30 4008 H 366.704 3.50045 -3.35554 0
M  V30 4009 N 368.047 0.979072 1.23499 0
M  V30 4010 C 368.995 0.510604 2.26926 0
M  V30 4011 C 369.989 -0.431691 1.63807 0
M  V30 4012 O 371.195 -0.30573 1.77385 0
M  V30 4013 H 367.57 0.146688 0.737554 0
M  V30 4014 H 369.541 1.39466 2.63803 0
M  V30 4015 C 368.29 -0.172658 3.47271 0
M  V30 4016 H 367.613 0.543331 3.96091 0
M  V30 4017 H 369.053 -0.464101 4.21452 0
M  V30 4018 C 367.512 -1.40345 3.06276 0
M  V30 4019 O 368.042 -2.49978 3.14442 0
M  V30 4020 N 366.248 -1.27362 2.61203 0
M  V30 4021 H 365.795 -0.381584 2.54758 0
M  V30 4022 H 365.753 -2.09822 2.34141 0
M  V30 4023 N 369.525 -1.3858 0.750561 0
M  V30 4024 C 370.936 -1.82927 0.373438 0
M  V30 4025 C 371.287 -1.62634 -1.09748 0
M  V30 4026 O 370.412 -1.12588 -1.84805 0
M  V30 4027 C 371.007 -3.32088 0.671029 0
M  V30 4028 C 369.566 -3.74795 0.34722 0
M  V30 4029 C 368.713 -2.61391 0.92575 0
M  V30 4030 H 371.664 -1.27351 0.946958 0
M  V30 4031 H 371.685 -3.80465 -0.0518269 0
M  V30 4032 H 371.197 -3.46826 1.74164 0
M  V30 4033 H 369.298 -3.65638 -0.716933 0
M  V30 4034 H 369.411 -4.71667 0.840656 0
M  V30 4035 H 367.775 -2.52265 0.351327 0
M  V30 4036 H 368.558 -2.78929 2.00133 0
M  V30 4037 N 371.003 -0.499398 -1.49478 0
M  V30 4038 C 372.25 0.0456899 -2.02448 0
M  V30 4039 C 372.578 1.37142 -1.37921 0
M  V30 4040 O 371.833 1.89111 -0.503544 0
M  V30 4041 C 372.132 0.248424 -3.56536 0
M  V30 4042 C 371.798 -0.999107 -4.39692 0
M  V30 4043 C 370.46 -1.34108 -4.62135 0
M  V30 4044 C 372.812 -1.82842 -4.88076 0
M  V30 4045 C 370.14 -2.51191 -5.30208 0
M  V30 4046 C 372.492 -2.99076 -5.57437 0
M  V30 4047 C 371.156 -3.33655 -5.78127 0
M  V30 4048 H 370.426 0.0167191 -0.740811 0
M  V30 4049 H 373.073 -0.65923 -1.79795 0
M  V30 4050 H 371.378 1.03586 -3.77859 0
M  V30 4051 H 373.075 0.684605 -3.95113 0
M  V30 4052 H 369.665 -0.722729 -4.22463 0
M  V30 4053 H 373.849 -1.57737 -4.70566 0
M  V30 4054 H 369.105 -2.78221 -5.44429 0
M  V30 4055 H 373.279 -3.63664 -5.93904 0
M  V30 4056 H 370.906 -4.24483 -6.30649 0
M  V30 4057 N 372.481 1.55866 -0.233164 0
M  V30 4058 C 373.411 2.23783 0.666599 0
M  V30 4059 C 374.392 1.21343 1.19205 0
M  V30 4060 O 375.577 1.4996 1.23392 0
M  V30 4061 C 372.707 2.92671 1.86978 0
M  V30 4062 C 371.661 4.01682 1.47768 0
M  V30 4063 C 370.987 4.57926 2.76058 0
M  V30 4064 C 372.287 5.18126 0.658993 0
M  V30 4065 H 373.981 2.99232 0.100306 0
M  V30 4066 H 371.527 1.43924 0.046804 0
M  V30 4067 H 373.48 3.3888 2.50476 0
M  V30 4068 H 372.204 2.14688 2.46123 0
M  V30 4069 H 370.863 3.56222 0.866106 0
M  V30 4070 H 370.511 3.76659 3.33372 0
M  V30 4071 H 370.211 5.31505 2.50552 0
M  V30 4072 H 371.735 5.06859 3.40479 0
M  V30 4073 H 373.149 5.60644 1.19795 0
M  V30 4074 H 371.546 5.98009 0.500552 0
M  V30 4075 H 372.616 4.83763 -0.331856 0
M  V30 4076 N 373.959 -0.0401083 1.57549 0
M  V30 4077 C 374.869 -1.06133 2.0922 0
M  V30 4078 C 375.885 -1.40356 1.0284 0
M  V30 4079 O 377.061 -1.49897 1.34509 0
M  V30 4080 C 374.126 -2.34658 2.55218 0
M  V30 4081 C 373.187 -2.07117 3.76033 0
M  V30 4082 C 372.42 -3.29514 4.19829 0
M  V30 4083 O 372.643 -4.39794 3.63232 0
M  V30 4084 O 371.577 -3.15863 5.12362 0
M  V30 4085 H 375.403 -0.652244 2.96613 0
M  V30 4086 H 372.988 -0.256368 1.47184 0
M  V30 4087 H 374.87 -3.10239 2.85184 0
M  V30 4088 H 373.545 -2.74883 1.70941 0
M  V30 4089 H 372.452 -1.29139 3.51104 0
M  V30 4090 H 373.785 -1.71754 4.61261 0
M  V30 4091 N 375.437 -1.54477 -0.31217 0
M  V30 4092 C 376.683 -1.73483 -1.0503 0
M  V30 4093 C 377.016 -0.513125 -1.87298 0
M  V30 4094 O 376.291 0.489864 -1.8823 0
M  V30 4095 C 376.574 -3.01723 -1.96558 0
M  V30 4096 C 376.427 -4.3417 -1.17545 0
M  V30 4097 C 377.746 -3.25772 -2.95907 0
M  V30 4098 H 374.865 -0.631222 -0.380432 0
M  V30 4099 H 377.507 -1.87184 -0.325932 0
M  V30 4100 H 375.657 -2.90174 -2.58324 0
M  V30 4101 H 377.329 -4.5762 -0.581513 0
M  V30 4102 H 375.572 -4.31159 -0.477925 0
M  V30 4103 H 376.243 -5.20143 -1.84811 0
M  V30 4104 H 378.719 -3.36857 -2.44267 0
M  V30 4105 H 377.595 -4.16838 -3.57123 0
M  V30 4106 H 377.856 -2.43537 -3.68974 0
M  V30 4107 N 376.915 0.57481 -1.46744 0
M  V30 4108 C 377.862 1.68329 -1.57905 0
M  V30 4109 C 378.832 1.60625 -0.422927 0
M  V30 4110 O 380.017 1.79721 -0.640711 0
M  V30 4111 C 377.157 3.06665 -1.58274 0
M  V30 4112 C 376.27 3.24935 -2.84678 0
M  V30 4113 C 375.405 4.53566 -2.76499 0
M  V30 4114 C 374.444 4.65207 -3.97806 0
M  V30 4115 N 373.581 5.85172 -3.87967 0
M  V30 4116 H 378.421 1.58127 -2.52587 0
M  V30 4117 H 375.958 0.770552 -1.25303 0
M  V30 4118 H 377.916 3.86745 -1.56473 0
M  V30 4119 H 376.546 3.15745 -0.671194 0
M  V30 4120 H 375.598 2.38405 -2.96424 0
M  V30 4121 H 376.91 3.29403 -3.7456 0
M  V30 4122 H 376.064 5.41885 -2.72848 0
M  V30 4123 H 374.803 4.51548 -1.8427 0
M  V30 4124 H 373.808 3.75304 -4.0178 0
M  V30 4125 H 375.033 4.68997 -4.9114 0
M  V30 4126 H 372.979 5.84137 -2.98529 0
M  V30 4127 H 372.896 5.90943 -4.71511 0
M  V30 4128 H 374.164 6.759 -3.88303 0
M  V30 4129 N 378.394 1.34581 0.820102 0
M  V30 4130 C 379.64 1.27285 1.57881 0
M  V30 4131 C 379.973 -0.156137 1.93571 0
M  V30 4132 O 379.248 -1.10222 1.60254 0
M  V30 4133 C 379.531 2.16639 2.87645 0
M  V30 4134 C 379.384 3.68088 2.58517 0
M  V30 4135 C 380.703 2.05378 3.8924 0
M  V30 4136 H 377.822 0.463714 0.572833 0
M  V30 4137 H 380.464 1.64859 0.944539 0
M  V30 4138 H 378.614 1.84725 3.41773 0
M  V30 4139 H 380.286 4.10382 2.10676 0
M  V30 4140 H 378.529 3.89038 1.91917 0
M  V30 4141 H 379.2 4.2598 3.51063 0
M  V30 4142 H 381.676 2.33404 3.44473 0
M  V30 4143 H 380.552 2.7012 4.77835 0
M  V30 4144 H 380.813 1.0316 4.29896 0
M  V30 4145 N 379.872 -1.04064 1.18357 0
M  V30 4146 C 381.1 -1.80916 1.00384 0
M  V30 4147 C 381.515 -1.83414 -0.447738 0
M  V30 4148 O 380.872 -1.26962 -1.31099 0
M  V30 4149 C 380.923 -3.26516 1.55144 0
M  V30 4150 O 380.644 -3.2424 2.94618 0
M  V30 4151 C 382.145 -4.20013 1.41789 0
M  V30 4152 H 379.365 -0.569728 0.354474 0
M  V30 4153 H 381.909 -1.31151 1.56906 0
M  V30 4154 H 380.064 -3.73512 1.02798 0
M  V30 4155 H 380.478 -4.15452 3.20156 0
M  V30 4156 H 381.952 -5.20111 1.84901 0
M  V30 4157 H 382.429 -4.37667 0.36661 0
M  V30 4158 H 383.035 -3.78881 1.93207 0
M  V30 4159 N 381.35 -0.985608 -1.22978 0
M  V30 4160 C 382.627 -0.573599 -1.87001 0
M  V30 4161 C 383.007 0.949213 -1.88555 0
M  V30 4162 O 382.355 1.82811 -1.37086 0
M  V30 4163 C 382.565 -1.18564 -3.28243 0
M  V30 4164 C 383.913 -1.28163 -4.04796 0
M  V30 4165 O 384.937 -1.13949 -3.37482 0
M  V30 4166 O 383.796 -1.50832 -5.25273 0
M  V30 4167 H 380.89 -0.193868 -0.803955 0
M  V30 4168 H 383.436 -1.08102 -1.30813 0
M  V30 4169 H 382.208 -2.22758 -3.21706 0
M  V30 4170 H 381.831 -0.663363 -3.92027 0
M  V30 4171 N 382.828 1.3818 -0.7579 0
M  V30 4172 C 384.056 2.04301 -0.326937 0
M  V30 4173 C 384.471 1.57163 1.0462 0
M  V30 4174 O 383.828 0.746626 1.66529 0
M  V30 4175 C 383.879 3.59846 -0.345363 0
M  V30 4176 O 383.6 4.05256 -1.66432 0
M  V30 4177 C 385.101 4.4319 0.098927 0
M  V30 4178 H 382.321 0.656443 -0.139012 0
M  V30 4179 H 384.865 1.76786 -1.02796 0
M  V30 4180 H 383.02 3.86182 0.306955 0
M  V30 4181 H 383.434 4.99709 -1.59345 0
M  V30 4182 H 384.908 5.51989 0.0348745 0
M  V30 4183 H 385.385 4.23947 1.14741 0
M  V30 4184 H 385.991 4.22051 -0.52468 0
M  V30 4185 N 384.306 0.507319 1.49211 0
M  V30 4186 C 385.717 0.0611118 1.866 0
M  V30 4187 C 386.068 -1.35488 1.41907 0
M  V30 4188 O 385.193 -2.0108 0.799726 0
M  V30 4189 C 385.788 0.104125 3.3864 0
M  V30 4190 C 384.347 -0.28677 3.75306 0
M  V30 4191 C 383.494 0.473893 2.73221 0
M  V30 4192 H 386.445 0.719775 1.41439 0
M  V30 4193 H 386.466 -0.689672 3.74198 0
M  V30 4194 H 385.978 1.13482 3.71138 0
M  V30 4195 H 384.079 -1.32046 3.48417 0
M  V30 4196 H 384.192 0.0370745 4.79086 0
M  V30 4197 H 382.556 -0.0770644 2.54583 0
M  V30 4198 H 383.339 1.50478 3.08563 0
M  V30 4199 N 385.784 -1.5574 0.241426 0
M  V30 4200 C 386.731 -2.21149 -0.660432 0
M  V30 4201 C 387.701 -1.17356 -1.17545 0
M  V30 4202 O 388.886 -1.45784 -1.23093 0
M  V30 4203 C 386.026 -2.91059 -1.85414 0
M  V30 4204 C 385.139 -4.09495 -1.37616 0
M  V30 4205 C 384.274 -4.67135 -2.529 0
M  V30 4206 C 383.313 -5.77831 -2.01936 0
M  V30 4207 N 382.45 -6.29677 -3.10566 0
M  V30 4208 H 387.29 -2.97845 -0.095955 0
M  V30 4209 H 384.827 -1.47057 -0.0356024 0
M  V30 4210 H 386.785 -3.29788 -2.5553 0
M  V30 4211 H 385.415 -2.16846 -2.39118 0
M  V30 4212 H 384.467 -3.76117 -0.569235 0
M  V30 4213 H 385.779 -4.89423 -0.962618 0
M  V30 4214 H 384.933 -5.08409 -3.31067 0
M  V30 4215 H 383.672 -3.86411 -2.97553 0
M  V30 4216 H 382.677 -5.36039 -1.22238 0
M  V30 4217 H 383.902 -6.60402 -1.58259 0
M  V30 4218 H 381.848 -5.5186 -3.54664 0
M  V30 4219 H 381.765 -7.04783 -2.73526 0
M  V30 4220 H 383.033 -6.75609 -3.88809 0
M  V30 4221 N 387.262 0.0317525 -1.57568 0
M  V30 4222 C 388.678 0.38735 -1.54828 0
M  V30 4223 C 388.878 1.7677 -0.967187 0
M  V30 4224 O 387.934 2.45581 -0.587063 0
M  V30 4225 C 389.247 0.291667 -2.99282 0
M  V30 4226 C 390.795 0.368946 -3.10818 0
M  V30 4227 C 391.27 0.302741 -4.56998 0
M  V30 4228 N 392.761 0.361617 -4.61786 0
M  V30 4229 C 393.496 0.333238 -5.72431 0
M  V30 4230 N 392.992 0.257308 -6.92322 0
M  V30 4231 N 394.785 0.382769 -5.60795 0
M  V30 4232 H 386.936 -0.871609 -1.93692 0
M  V30 4233 H 389.199 -0.331161 -0.888277 0
M  V30 4234 H 388.905 -0.656794 -3.45513 0
M  V30 4235 H 388.779 1.08638 -3.61217 0
M  V30 4236 H 391.166 1.30784 -2.64536 0
M  V30 4237 H 391.247 -0.455066 -2.5172 0
M  V30 4238 H 390.891 -0.632473 -5.03947 0
M  V30 4239 H 390.821 1.14482 -5.14005 0
M  V30 4240 H 393.312 0.422923 -3.75526 0
M  V30 4241 H 393.625 0.24068 -7.72425 0
M  V30 4242 H 391.97 0.223396 -6.94641 0
M  V30 4243 H 395.161 0.44006 -4.66027 0
M  V30 4244 H 395.334 0.357184 -6.47015 0
M  V30 4245 N 388.74 1.54641 0.303973 0
M  V30 4246 C 389.965 1.78092 1.06292 0
M  V30 4247 C 390.39 0.537342 1.80262 0
M  V30 4248 O 389.748 -0.511993 1.7392 0
M  V30 4249 C 389.796 2.98612 2.02147 0
M  V30 4250 O 388.9 2.71528 3.10397 0
M  V30 4251 H 388.241 0.589548 0.305497 0
M  V30 4252 H 390.771 2.01716 0.3423 0
M  V30 4253 H 390.781 3.265 2.44667 0
M  V30 4254 H 389.456 3.88785 1.47714 0
M  V30 4255 H 388.033 2.54648 2.72413 0
M  V30 4256 N 390.218 -0.567019 1.47046 0
M  V30 4257 C 391.634 -0.891975 1.32348 0
M  V30 4258 C 391.834 -1.99154 0.306616 0
M  V30 4259 O 390.89 -2.50883 -0.28532 0
M  V30 4260 C 392.203 -1.29449 2.7141 0
M  V30 4261 C 393.751 -1.40646 2.79621 0
M  V30 4262 C 394.226 -1.84257 4.19301 0
M  V30 4263 N 395.717 -1.91424 4.21795 0
M  V30 4264 C 396.452 -2.26476 5.26779 0
M  V30 4265 N 395.948 -2.60211 6.42077 0
M  V30 4266 N 397.741 -2.27166 5.14152 0
M  V30 4267 H 389.892 0.159074 2.11803 0
M  V30 4268 H 392.155 0.00849752 0.947962 0
M  V30 4269 H 391.861 -0.560448 3.47206 0
M  V30 4270 H 391.735 -2.25273 3.02542 0
M  V30 4271 H 394.122 -2.13133 2.04104 0
M  V30 4272 H 394.203 -0.430339 2.52154 0
M  V30 4273 H 393.847 -1.12343 4.95319 0
M  V30 4274 H 393.777 -2.82855 4.44185 0
M  V30 4275 H 396.268 -1.6778 3.38612 0
M  V30 4276 H 396.581 -2.85956 7.17948 0
M  V30 4277 H 394.926 -2.57813 6.45413 0
M  V30 4278 H 398.117 -2.00244 4.23107 0
M  V30 4279 H 398.29 -2.54154 5.96079 0
M  V30 4280 N 391.696 -1.35014 -0.812953 0
M  V30 4281 C 393.112 -1.14914 -1.10757 0
M  V30 4282 C 393.312 0.0426818 -2.01455 0
M  V30 4283 O 392.368 0.715212 -2.42159 0
M  V30 4284 C 393.681 -2.44911 -1.74468 0
M  V30 4285 C 395.229 -2.5106 -1.86917 0
M  V30 4286 C 395.704 -3.81085 -2.54044 0
M  V30 4287 N 397.195 -3.82301 -2.61535 0
M  V30 4288 C 397.93 -4.79634 -3.14227 0
M  V30 4289 N 397.426 -5.87353 -3.67407 0
M  V30 4290 N 399.219 -4.67078 -3.12721 0
M  V30 4291 H 391.37 -2.1136 -0.20989 0
M  V30 4292 H 393.633 -0.935128 -0.155692 0
M  V30 4293 H 393.339 -3.32267 -1.15289 0
M  V30 4294 H 393.213 -2.58989 -2.74234 0
M  V30 4295 H 395.6 -1.64137 -2.45241 0
M  V30 4296 H 395.681 -2.40901 -0.860242 0
M  V30 4297 H 395.325 -4.68402 -1.96372 0
M  V30 4298 H 395.255 -3.88529 -3.55461 0
M  V30 4299 H 397.746 -3.04465 -2.23851 0
M  V30 4300 H 398.059 -6.57624 -4.05894 0
M  V30 4301 H 396.404 -5.91054 -3.65623 0
M  V30 4302 H 399.595 -3.82067 -2.70449 0
M  V30 4303 H 399.768 -5.43098 -3.53481 0
M  V30 4304 N 393.175 1.03435 -1.18907 0
M  V30 4305 C 394.452 1.73778 -0.89781 0
M  V30 4306 C 394.832 2.02458 0.597832 0
M  V30 4307 O 394.18 1.67482 1.55441 0
M  V30 4308 C 394.39 3.01845 -1.75187 0
M  V30 4309 C 395.738 3.7546 -1.9828 0
M  V30 4310 O 396.762 3.11759 -1.72293 0
M  V30 4311 O 395.621 4.89966 -2.42065 0
M  V30 4312 H 392.715 0.75651 -0.334098 0
M  V30 4313 H 395.261 1.09444 -1.29693 0
M  V30 4314 H 394.033 2.76836 -2.76545 0
M  V30 4315 H 393.656 3.73919 -1.35167 0
M  V30 4316 N 394.653 0.992116 1.22453 0
M  V30 4317 C 395.9 0.667534 1.91181 0
M  V30 4318 C 396.228 -0.800317 1.77271 0
M  V30 4319 O 395.483 -1.59421 1.13505 0
M  V30 4320 C 395.782 1.01832 3.42586 0
M  V30 4321 C 395.448 2.47831 3.76684 0
M  V30 4322 C 394.11 2.87729 3.85701 0
M  V30 4323 C 396.462 3.42466 3.92895 0
M  V30 4324 C 393.79 4.21252 4.08367 0
M  V30 4325 C 396.142 4.75648 4.17064 0
M  V30 4326 C 394.806 5.15288 4.24305 0
M  V30 4327 H 394.076 0.244268 0.699581 0
M  V30 4328 H 396.723 1.24816 1.45235 0
M  V30 4329 H 395.028 0.355769 3.90181 0
M  V30 4330 H 396.725 0.745228 3.94014 0
M  V30 4331 H 393.315 2.15905 3.70247 0
M  V30 4332 H 397.499 3.12814 3.85307 0
M  V30 4333 H 392.755 4.51554 4.122 0
M  V30 4334 H 396.929 5.48924 4.2855 0
M  V30 4335 H 394.556 6.18769 4.41621 0
M  V30 4336 N 396.131 -1.37776 0.765217 0
M  V30 4337 C 397.379 -1.99454 0.325943 0
M  V30 4338 C 397.7 -1.61049 -1.09947 0
M  V30 4339 O 396.97 -0.872821 -1.75381 0
M  V30 4340 H 395.55 -0.737697 0.117525 0
M  V30 4341 H 398.212 -1.68359 0.981895 0
M  V30 4342 H 397.308 -3.09547 0.398353 0
M  V30 4343 N 397.609 -0.515225 -1.4894 0
M  V30 4344 C 398.539 0.244628 -2.32215 0
M  V30 4345 C 399.52 0.949136 -1.41157 0
M  V30 4346 O 400.705 0.937783 -1.70057 0
M  V30 4347 C 397.835 1.30096 -3.22013 0
M  V30 4348 C 396.789 0.715486 -4.21977 0
M  V30 4349 C 396.115 1.87339 -5.00808 0
M  V30 4350 C 397.415 -0.302982 -5.2142 0
M  V30 4351 H 399.109 -0.450501 -2.95991 0
M  V30 4352 H 396.655 -0.218098 -1.42339 0
M  V30 4353 H 398.608 1.84037 -3.79089 0
M  V30 4354 H 397.332 2.02547 -2.56207 0
M  V30 4355 H 395.991 0.197715 -3.66066 0
M  V30 4356 H 395.639 2.58592 -4.31438 0
M  V30 4357 H 395.339 1.48764 -5.68457 0
M  V30 4358 H 396.863 2.41686 -5.60732 0
M  V30 4359 H 398.277 0.148802 -5.73107 0
M  V30 4360 H 396.674 -0.60532 -5.97039 0
M  V30 4361 H 397.744 -1.21395 -4.69459 0
M  V30 4362 N 399.087 1.5561 -0.249682 0
M  V30 4363 C 400.364 1.90932 0.424761 0
M  V30 4364 C 400.744 1.17078 1.75658 0
M  V30 4365 O 400.092 0.289176 2.26663 0
M  V30 4366 C 400.302 3.43975 0.590109 0
M  V30 4367 C 401.65 4.15281 0.884714 0
M  V30 4368 O 402.674 3.49729 0.67587 0
M  V30 4369 O 401.533 5.31236 1.28259 0
M  V30 4370 H 398.627 0.794815 0.228468 0
M  V30 4371 H 401.173 1.67135 -0.293954 0
M  V30 4372 H 399.945 3.89748 -0.34818 0
M  V30 4373 H 399.568 3.73644 1.35926 0
M  V30 4374 N 400.565 -0.0233959 1.57583 0
M  V30 4375 C 401.805 -0.71784 1.9138 0
M  V30 4376 C 402.169 -1.72216 0.848853 0
M  V30 4377 O 403.37 -2.46527 1.07134 0
M  V30 4378 C 401.641 -1.36489 3.30311 0
M  V30 4379 S 403.2 -2.0877 3.85954 0
M  V30 4380 H 400.018 -0.237676 0.670098 0
M  V30 4381 H 402.62 0.0276709 1.9548 0
M  V30 4382 H 401.324 -0.620782 4.05678 0
M  V30 4383 H 400.855 -2.14883 3.29528 0
M  V30 4384 H 402.87 -3.35988 3.65139 0
M  V30 4385 N 402.043 -1.548 -0.295768 0
M  V30 4386 C 403.32 -1.65014 -1.05023 0
M  V30 4387 C 403.7 -0.501805 -2.05049 0
M  V30 4388 O 403.048 0.500869 -2.22943 0
M  V30 4389 C 403.258 -3.03252 -1.72741 0
M  V30 4390 C 404.606 -3.60242 -2.24746 0
M  V30 4391 O 405.63 -3.05737 -1.82765 0
M  V30 4392 O 404.489 -4.55687 -3.01681 0
M  V30 4393 H 401.583 -0.669314 -0.485744 0
M  V30 4394 H 404.129 -1.67144 -0.293438 0
M  V30 4395 H 402.901 -3.7827 -1.00138 0
M  V30 4396 H 402.524 -3.04922 -2.55163 0
M  V30 4397 N 403.521 0.559213 -1.47345 0
M  V30 4398 C 404.431 1.69388 -1.62311 0
M  V30 4399 C 405.447 1.6648 -0.505993 0
M  V30 4400 O 406.623 1.85964 -0.773262 0
M  V30 4401 C 403.688 3.05894 -1.63185 0
M  V30 4402 C 402.749 3.19885 -2.86307 0
M  V30 4403 C 401.982 4.49879 -2.87131 0
M  V30 4404 O 402.205 5.35217 -1.97229 0
M  V30 4405 O 401.139 4.67618 -3.78968 0
M  V30 4406 H 404.965 1.59706 -2.58317 0
M  V30 4407 H 402.55 0.728989 -1.30407 0
M  V30 4408 H 404.432 3.87133 -1.66451 0
M  V30 4409 H 403.107 3.15964 -0.70345 0
M  V30 4410 H 402.014 2.38052 -2.88587 0
M  V30 4411 H 403.347 3.14718 -3.78435 0
M  V30 4412 N 404.999 1.35443 0.805782 0
M  V30 4413 C 405.949 1.24972 1.90699 0
M  V30 4414 C 406.933 0.144806 1.60247 0
M  V30 4415 O 408.125 0.376102 1.72958 0
M  V30 4416 C 405.254 1.02475 3.27649 0
M  V30 4417 C 404.34 2.17361 3.64164 0
M  V30 4418 N 404.731 3.42591 3.72109 0
M  V30 4419 C 403.029 2.08765 3.94123 0
M  V30 4420 C 403.73 4.18144 4.04389 0
M  V30 4421 N 402.706 3.4691 4.18515 0
M  V30 4422 H 406.508 2.19852 1.95044 0
M  V30 4423 H 404.022 1.27928 1.00041 0
M  V30 4424 H 406.019 0.930617 4.06381 0
M  V30 4425 H 404.679 0.0848009 3.24589 0
M  V30 4426 H 405.69 3.76932 3.55166 0
M  V30 4427 H 402.367 1.22629 3.99084 0
M  V30 4428 H 403.757 5.26367 4.17597 0
M  V30 4429 N 406.477 -1.02803 1.19454 0
M  V30 4430 C 407.702 -1.80378 1.02364 0
M  V30 4431 C 408.127 -1.83282 -0.423007 0
M  V30 4432 O 407.485 -1.25945 -1.30413 0
M  V30 4433 C 407.533 -3.23248 1.59821 0
M  V30 4434 O 406.637 -4.04 0.828105 0
M  V30 4435 H 405.978 -0.556799 0.361761 0
M  V30 4436 H 408.508 -1.29385 1.58495 0
M  V30 4437 H 408.518 -3.73994 1.63073 0
M  V30 4438 H 407.193 -3.2045 2.65113 0
M  V30 4439 H 405.77 -3.62635 0.86891 0
M  V30 4440 N 407.956 -0.998596 -1.21925 0
M  V30 4441 C 409.184 -0.696286 -1.94832 0
M  V30 4442 C 409.599 0.740032 -1.73692 0
M  V30 4443 O 408.956 1.5 -1.03953 0
M  V30 4444 C 409.007 -0.999833 -3.47398 0
M  V30 4445 O 408.728 -2.37972 -3.67833 0
M  V30 4446 C 410.229 -0.716025 -4.37479 0
M  V30 4447 H 407.449 -0.257111 -0.619786 0
M  V30 4448 H 409.993 -1.33491 -1.54921 0
M  V30 4449 H 408.148 -0.406918 -3.85257 0
M  V30 4450 H 408.562 -2.48338 -4.61983 0
M  V30 4451 H 410.036 -0.978642 -5.43256 0
M  V30 4452 H 410.513 0.349968 -4.37803 0
M  V30 4453 H 411.119 -1.29025 -4.05256 0
M  V30 4454 N 409.434 1.37368 -0.772513 0
M  V30 4455 C 410.344 2.34053 -0.160081 0
M  V30 4456 C 411.36 1.60216 0.678728 0
M  V30 4457 O 412.536 1.92303 0.59847 0
M  V30 4458 C 409.601 3.3939 0.708182 0
M  V30 4459 C 408.662 4.29048 -0.147172 0
M  V30 4460 C 407.895 5.29354 0.679744 0
M  V30 4461 O 408.118 5.3723 1.91678 0
M  V30 4462 O 407.052 6.01835 0.0885444 0
M  V30 4463 H 410.878 2.88159 -0.959053 0
M  V30 4464 H 408.463 1.39543 -0.533685 0
M  V30 4465 H 410.345 4.03839 1.20384 0
M  V30 4466 H 409.02 2.8761 1.48533 0
M  V30 4467 H 407.927 3.67697 -0.689205 0
M  V30 4468 H 409.26 4.84134 -0.887423 0
M  V30 4469 N 410.912 0.523116 1.48665 0
M  V30 4470 C 412.137 -0.0117284 2.07397 0
M  V30 4471 C 412.562 -1.28031 1.37803 0
M  V30 4472 O 411.92 -1.75836 0.441762 0
M  V30 4473 C 411.968 -0.225786 3.59892 0
M  V30 4474 O 411.072 -1.29592 3.91509 0
M  V30 4475 H 410.413 0.0360673 0.66302 0
M  V30 4476 H 412.943 0.729066 1.9117 0
M  V30 4477 H 412.953 -0.450552 4.05505 0
M  V30 4478 H 411.628 0.700944 4.09951 0
M  V30 4479 H 410.205 -1.05436 3.57684 0
M  V30 4480 N 412.39 -1.55475 0.257931 0
M  V30 4481 C 413.806 -1.59307 -0.0966563 0
M  V30 4482 C 414.006 -1.27514 -1.5602 0
M  V30 4483 O 413.062 -1.02774 -2.30637 0
M  V30 4484 C 414.375 -2.99552 0.262481 0
M  V30 4485 C 415.923 -3.1231 0.207683 0
M  V30 4486 C 416.398 -4.54793 0.541012 0
M  V30 4487 N 417.889 -4.6058 0.491921 0
M  V30 4488 C 418.624 -5.68825 0.722857 0
M  V30 4489 N 418.12 -6.85287 1.0175 0
M  V30 4490 N 419.913 -5.58296 0.652815 0
M  V30 4491 H 412.064 -1.74409 1.21224 0
M  V30 4492 H 414.327 -0.812424 0.48854 0
M  V30 4493 H 414.033 -3.27593 1.27967 0
M  V30 4494 H 413.907 -3.75019 -0.40508 0
M  V30 4495 H 416.294 -2.84044 -0.800195 0
M  V30 4496 H 416.375 -2.39095 0.909255 0
M  V30 4497 H 416.019 -4.83783 1.5465 0
M  V30 4498 H 415.949 -5.26285 -0.18216 0
M  V30 4499 H 418.44 -3.7691 0.273366 0
M  V30 4500 H 418.753 -7.63725 1.18084 0
M  V30 4501 H 417.098 -6.86945 1.05509 0
M  V30 4502 H 420.289 -4.66189 0.422592 0
M  V30 4503 H 420.462 -6.42582 0.836182 0
M  V30 4504 N 413.868 0.0150385 -1.57593 0
M  V30 4505 C 415.108 0.70768 -1.91758 0
M  V30 4506 C 415.472 1.71764 -0.857974 0
M  V30 4507 O 416.673 2.45956 -1.0844 0
M  V30 4508 C 414.944 1.34736 -3.3103 0
M  V30 4509 S 416.503 2.06721 -3.87056 0
M  V30 4510 H 413.321 0.234119 -0.671349 0
M  V30 4511 H 415.923 -0.0380373 -1.95463 0
M  V30 4512 H 414.627 0.59926 -4.06001 0
M  V30 4513 H 414.158 2.13133 -3.30663 0
M  V30 4514 H 416.173 3.34047 -3.66915 0
M  V30 4515 N 415.346 1.54954 0.287554 0
M  V30 4516 C 416.586 1.76617 1.02887 0
M  V30 4517 C 416.95 0.547759 1.84021 0
M  V30 4518 O 418.151 0.642365 2.61012 0
M  V30 4519 C 416.422 3.02717 1.89993 0
M  V30 4520 S 417.981 3.45438 2.70588 0
M  V30 4521 H 414.799 0.6207 0.346775 0
M  V30 4522 H 417.401 1.93172 0.30082 0
M  V30 4523 H 416.105 3.89503 1.29287 0
M  V30 4524 H 415.636 2.88787 2.67144 0
M  V30 4525 H 417.651 3.03566 3.92508 0
M  V30 4526 N 416.824 -0.551391 1.4764 0
M  V30 4527 C 418.24 -0.877887 1.33287 0
M  V30 4528 C 418.44 -1.98817 0.327721 0
M  V30 4529 O 417.496 -2.51171 -0.258695 0
M  V30 4530 C 418.809 -1.26563 2.72768 0
M  V30 4531 C 420.357 -1.37673 2.81097 0
M  V30 4532 C 420.832 -1.79799 4.21232 0
M  V30 4533 N 422.323 -1.8694 4.23802 0
M  V30 4534 C 423.058 -2.20876 5.29151 0
M  V30 4535 N 422.554 -2.53386 6.448 0
M  V30 4536 N 424.347 -2.217 5.16532 0
M  V30 4537 H 416.498 0.18153 2.11623 0
M  V30 4538 H 418.761 0.0185514 0.947818 0
M  V30 4539 H 418.467 -0.523591 3.47781 0
M  V30 4540 H 418.341 -2.22052 3.04915 0
M  V30 4541 H 420.728 -2.10956 2.06353 0
M  V30 4542 H 420.809 -0.40357 2.52596 0
M  V30 4543 H 420.453 -1.07083 4.96483 0
M  V30 4544 H 420.383 -2.78128 4.4716 0
M  V30 4545 H 422.874 -1.64179 3.40373 0
M  V30 4546 H 423.187 -2.78325 7.20941 0
M  V30 4547 H 421.532 -2.50953 6.48111 0
M  V30 4548 H 424.723 -1.95745 4.25207 0
M  V30 4549 H 424.896 -2.47818 5.98741 0
M  V30 4550 N 418.302 -1.35869 -0.798587 0
M  V30 4551 C 419.532 -1.32529 -1.58491 0
M  V30 4552 C 419.94 0.0975405 -1.88948 0
M  V30 4553 O 419.283 1.06224 -1.49874 0
M  V30 4554 C 419.345 -2.07247 -2.9375 0
M  V30 4555 C 419.009 -3.56391 -2.86068 0
M  V30 4556 C 420.006 -4.50824 -2.58947 0
M  V30 4557 C 417.691 -3.9915 -3.04933 0
M  V30 4558 C 419.685 -5.85993 -2.5078 0
M  V30 4559 C 417.372 -5.34413 -2.96389 0
M  V30 4560 C 418.37 -6.27646 -2.69349 0
M  V30 4561 O 418.058 -7.60426 -2.60782 0
M  V30 4562 H 417.79 -0.456529 -0.498556 0
M  V30 4563 H 420.344 -1.79425 -0.999799 0
M  V30 4564 H 418.574 -1.55001 -3.54276 0
M  V30 4565 H 420.263 -1.96883 -3.54954 0
M  V30 4566 H 421.029 -4.19104 -2.44084 0
M  V30 4567 H 416.908 -3.26961 -3.24989 0
M  V30 4568 H 420.452 -6.58735 -2.29595 0
M  V30 4569 H 416.349 -5.65743 -3.10813 0
M  V30 4570 H 417.117 -7.70444 -2.76331 0
M  V30 4571 N 419.78 1.02168 -1.19998 0
M  V30 4572 C 421.191 1.57135 -1.00825 0
M  V30 4573 C 421.542 1.91276 0.436818 0
M  V30 4574 O 420.667 1.71679 1.3174 0
M  V30 4575 C 421.262 2.85514 -1.82393 0
M  V30 4576 C 419.821 3.37027 -1.67601 0
M  V30 4577 C 418.968 2.10388 -1.80644 0
M  V30 4578 H 421.919 0.846106 -1.34264 0
M  V30 4579 H 421.94 3.56711 -1.32429 0
M  V30 4580 H 421.452 2.60634 -2.87561 0
M  V30 4581 H 419.553 3.66878 -0.650485 0
M  V30 4582 H 419.666 4.09572 -2.4857 0
M  V30 4583 H 418.03 2.22601 -1.23778 0
M  V30 4584 H 418.813 1.8794 -2.87286 0
M  V30 4585 N 421.258 1.00505 1.21394 0
M  V30 4586 C 422.188 0.585684 2.26035 0
M  V30 4587 C 423.169 -0.393525 1.65485 0
M  V30 4588 O 424.354 -0.281497 1.92149 0
M  V30 4589 C 421.484 -0.0884283 3.47187 0
M  V30 4590 C 420.438 0.810567 4.20254 0
M  V30 4591 C 419.764 0.00286382 5.347 0
M  V30 4592 C 421.064 2.1132 4.77641 0
M  V30 4593 H 422.758 1.46039 2.61368 0
M  V30 4594 H 420.304 0.703648 1.25638 0
M  V30 4595 H 422.257 -0.393286 4.19561 0
M  V30 4596 H 420.981 -0.997766 3.10986 0
M  V30 4597 H 419.64 1.09925 3.49731 0
M  V30 4598 H 419.288 -0.907765 4.94741 0
M  V30 4599 H 418.988 0.601444 5.84514 0
M  V30 4600 H 420.512 -0.295808 6.09883 0
M  V30 4601 H 421.926 1.87148 5.41893 0
M  V30 4602 H 420.323 2.66164 5.37845 0
M  V30 4603 H 421.393 2.78393 3.9702 0
M  V30 4604 N 422.737 -1.36956 0.779787 0
M  V30 4605 C 423.965 -2.03755 0.359398 0
M  V30 4606 C 424.38 -1.58807 -1.02106 0
M  V30 4607 O 423.737 -0.773024 -1.6532 0
M  V30 4608 C 423.788 -3.59251 0.402568 0
M  V30 4609 O 423.509 -4.02557 1.72858 0
M  V30 4610 C 425.01 -4.43291 -0.0284068 0
M  V30 4611 H 422.23 -0.654148 0.149437 0
M  V30 4612 H 424.774 -1.75128 1.05595 0
M  V30 4613 H 422.929 -3.86621 -0.245478 0
M  V30 4614 H 423.343 -4.97111 1.67275 0
M  V30 4615 H 424.817 -5.51975 0.0529466 0
M  V30 4616 H 425.294 -4.25719 -1.07982 0
M  V30 4617 H 425.9 -4.21163 0.591758 0
M  V30 4618 N 424.215 -0.530993 -1.48385 0
M  V30 4619 C 425.461 0.00274135 -2.028 0
M  V30 4620 C 425.794 1.33838 -1.40716 0
M  V30 4621 O 425.069 1.86465 -0.553277 0
M  V30 4622 C 425.352 0.123676 -3.59888 0
M  V30 4623 C 425.205 -1.2372 -4.3245 0
M  V30 4624 C 426.524 0.849967 -4.31814 0
M  V30 4625 H 423.643 -0.000477758 -0.737 0
M  V30 4626 H 426.285 -0.688217 -1.77098 0
M  V30 4627 H 424.435 0.712157 -3.81917 0
M  V30 4628 H 426.107 -1.86687 -4.21836 0
M  V30 4629 H 424.35 -1.81882 -3.93829 0
M  V30 4630 H 425.021 -1.10557 -5.40815 0
M  V30 4631 H 427.497 0.350572 -4.14621 0
M  V30 4632 H 426.373 0.903486 -5.41413 0
M  V30 4633 H 426.634 1.90047 -3.99167 0
M  V30 4634 N 425.693 1.55336 -0.266172 0
M  V30 4635 C 426.97 1.91372 0.404486 0
M  V30 4636 C 427.35 1.18935 1.74407 0
M  V30 4637 O 426.698 0.3132 2.26343 0
M  V30 4638 C 426.908 3.44581 0.553593 0
M  V30 4639 C 428.256 4.16196 0.840618 0
M  V30 4640 O 429.28 3.50426 0.638739 0
M  V30 4641 O 428.139 5.32567 1.22618 0
M  V30 4642 H 425.233 0.797194 0.220025 0
M  V30 4643 H 427.779 1.66813 -0.311664 0
M  V30 4644 H 426.551 3.89357 -0.389498 0
M  V30 4645 H 426.174 3.75065 1.31955 0
M  V30 4646 N 427.171 -0.0066808 1.57599 0
M  V30 4647 C 428.418 -0.69292 1.90276 0
M  V30 4648 C 428.746 -1.74148 0.866192 0
M  V30 4649 O 428.001 -1.95268 -0.129933 0
M  V30 4650 C 428.3 -1.37939 3.29708 0
M  V30 4651 C 427.966 -0.464679 4.48499 0
M  V30 4652 C 426.628 -0.212809 4.80729 0
M  V30 4653 C 428.98 0.16551 5.20937 0
M  V30 4654 C 426.308 0.677653 5.82773 0
M  V30 4655 C 428.66 1.04381 6.23929 0
M  V30 4656 C 427.324 1.30492 6.54621 0
M  V30 4657 H 426.594 -0.253558 0.696268 0
M  V30 4658 H 429.241 0.0474123 1.91441 0
M  V30 4659 H 427.546 -2.1936 3.24636 0
M  V30 4660 H 429.243 -1.9163 3.52249 0
M  V30 4661 H 425.833 -0.671153 4.23313 0
M  V30 4662 H 430.017 -0.0160756 4.96297 0
M  V30 4663 H 425.273 0.88803 6.04917 0
M  V30 4664 H 429.447 1.53851 6.79193 0
M  V30 4665 H 427.074 1.99662 7.33512 0
M  V30 4666 N 428.649 -1.55105 -0.279332 0
M  V30 4667 C 429.559 -1.90638 -1.36727 0
M  V30 4668 C 430.575 -0.802899 -1.54368 0
M  V30 4669 O 431.751 -1.10138 -1.68616 0
M  V30 4670 C 428.816 -2.16547 -2.70755 0
M  V30 4671 C 427.877 -3.40146 -2.61915 0
M  V30 4672 C 427.11 -3.6481 -3.8955 0
M  V30 4673 O 427.333 -2.92095 -4.89935 0
M  V30 4674 O 426.267 -4.58343 -3.90135 0
M  V30 4675 H 430.093 -2.83237 -1.09591 0
M  V30 4676 H 427.678 -1.4157 -0.477306 0
M  V30 4677 H 429.56 -2.34665 -3.50014 0
M  V30 4678 H 428.235 -1.27131 -2.9769 0
M  V30 4679 H 427.142 -3.2737 -1.81052 0
M  V30 4680 H 428.475 -4.29761 -2.3993 0
M  V30 4681 N 430.127 0.543554 -1.4793 0
M  V30 4682 C 431.09 1.63156 -1.60975 0
M  V30 4683 C 432.09 1.53346 -0.483899 0
M  V30 4684 O 433.28 1.5726 -0.749339 0
M  V30 4685 C 430.412 3.02743 -1.56716 0
M  V30 4686 H 431.605 1.52934 -2.57975 0
M  V30 4687 H 429.158 0.764557 -1.36324 0
M  V30 4688 H 429.893 3.18484 -0.611418 0
M  V30 4689 H 429.678 3.11272 -2.38438 0
M  V30 4690 H 431.168 3.81871 -1.6901 0
M  V30 4691 N 431.605 1.3629 0.791371 0
M  V30 4692 C 432.852 1.30412 1.54916 0
M  V30 4693 C 433.18 -0.117162 1.94147 0
M  V30 4694 O 432.435 -1.08599 1.62803 0
M  V30 4695 C 432.734 2.17068 2.8393 0
M  V30 4696 C 432.4 3.65645 2.63846 0
M  V30 4697 C 431.062 4.0614 2.58077 0
M  V30 4698 C 433.414 4.59855 2.45322 0
M  V30 4699 C 430.742 5.3899 2.31748 0
M  V30 4700 C 433.094 5.9292 2.2052 0
M  V30 4701 C 431.758 6.32542 2.13183 0
M  V30 4702 H 431.028 0.47721 0.566879 0
M  V30 4703 H 433.675 1.68325 0.913172 0
M  V30 4704 H 431.98 1.72085 3.51986 0
M  V30 4705 H 433.677 2.09846 3.4171 0
M  V30 4706 H 430.267 3.33518 2.69191 0
M  V30 4707 H 434.451 4.29443 2.48782 0
M  V30 4708 H 429.707 5.68672 2.24548 0
M  V30 4709 H 433.881 6.65487 2.05182 0
M  V30 4710 H 431.508 7.35412 1.92544 0
M  V30 4711 N 433.083 -1.0153 1.20538 0
M  V30 4712 C 434.331 -1.74803 1.01432 0
M  V30 4713 C 434.652 -1.8963 -0.454456 0
M  V30 4714 O 433.922 -1.43975 -1.32846 0
M  V30 4715 H 432.502 -0.647598 0.372324 0
M  V30 4716 H 435.164 -1.22402 1.5167 0
M  V30 4717 H 434.26 -2.75114 1.47373 0
M  V30 4718 N 434.561 -1.01147 -1.20859 0
M  V30 4719 C 435.807 -0.708598 -1.90658 0
M  V30 4720 C 436.162 0.753069 -1.7705 0
M  V30 4721 O 435.455 1.53952 -1.14059 0
M  V30 4722 C 435.649 -1.0727 -3.40922 0
M  V30 4723 C 435.478 -2.56821 -3.69152 0
M  V30 4724 C 434.248 -3.23524 -3.8815 0
M  V30 4725 C 436.446 -3.54997 -3.72131 0
M  V30 4726 N 434.428 -4.62359 -4.03853 0
M  V30 4727 C 435.799 -4.79371 -3.93196 0
M  V30 4728 C 437.854 -3.49042 -3.55069 0
M  V30 4729 C 436.557 -5.98512 -3.98969 0
M  V30 4730 C 438.583 -4.67579 -3.6211 0
M  V30 4731 C 437.945 -5.9076 -3.83643 0
M  V30 4732 H 434.044 -0.31088 -0.71755 0
M  V30 4733 H 436.628 -1.29526 -1.45366 0
M  V30 4734 H 434.799 -0.51443 -3.84978 0
M  V30 4735 H 436.531 -0.723891 -3.98173 0
M  V30 4736 H 433.286 -2.73958 -3.86321 0
M  V30 4737 H 433.71 -5.34427 -4.15592 0
M  V30 4738 H 438.352 -2.54808 -3.37391 0
M  V30 4739 H 436.07 -6.93132 -4.15444 0
M  V30 4740 H 439.656 -4.64581 -3.50222 0
M  V30 4741 H 438.536 -6.8095 -3.88944 0
M  V30 4742 N 436.039 1.36541 -0.78704 0
M  V30 4743 C 437.316 1.9355 -0.282424 0
M  V30 4744 C 437.696 1.71919 1.22503 0
M  V30 4745 O 437.044 1.07677 2.01539 0
M  V30 4746 C 437.254 3.4246 -0.672462 0
M  V30 4747 C 438.602 4.19582 -0.650863 0
M  V30 4748 O 439.626 3.50889 -0.612789 0
M  V30 4749 O 438.485 5.42106 -0.691623 0
M  V30 4750 H 435.579 0.824091 -0.0693 0
M  V30 4751 H 438.125 1.45736 -0.869423 0
M  V30 4752 H 436.897 3.51851 -1.71221 0
M  V30 4753 H 436.52 3.97556 -0.0592211 0
M  V30 4754 N 437.518 0.538854 1.48102 0
M  V30 4755 C 438.764 0.0161732 2.03394 0
M  V30 4756 C 439.119 -1.31154 1.40771 0
M  V30 4757 O 438.412 -1.83613 0.547421 0
M  V30 4758 C 438.606 -0.153808 3.57069 0
M  V30 4759 C 438.435 1.15588 4.34591 0
M  V30 4760 C 437.205 1.71818 4.75191 0
M  V30 4761 C 439.403 2.06867 4.70861 0
M  V30 4762 N 437.385 2.96983 5.37284 0
M  V30 4763 C 438.756 3.16609 5.33066 0
M  V30 4764 C 440.811 2.07085 4.52791 0
M  V30 4765 C 439.514 4.26645 5.79109 0
M  V30 4766 C 441.54 3.16121 4.99821 0
M  V30 4767 C 440.902 4.24582 5.62058 0
M  V30 4768 H 437.001 0.0476346 0.780548 0
M  V30 4769 H 439.585 0.722094 1.80815 0
M  V30 4770 H 437.756 -0.828825 3.79454 0
M  V30 4771 H 439.488 -0.676896 3.98999 0
M  V30 4772 H 436.243 1.25845 4.56574 0
M  V30 4773 H 436.667 3.60732 5.72889 0
M  V30 4774 H 441.309 1.24522 4.04047 0
M  V30 4775 H 439.027 5.0998 6.26854 0
M  V30 4776 H 442.613 3.17355 4.87624 0
M  V30 4777 H 441.493 5.07562 5.97788 0
M  V30 4778 N 438.996 -1.55193 0.274407 0
M  V30 4779 C 440.245 -1.98758 -0.343213 0
M  V30 4780 C 440.558 -1.16624 -1.5703 0
M  V30 4781 O 441.764 -1.5033 -2.26082 0
M  V30 4782 C 440.22 -3.53759 -0.661996 0
M  V30 4783 C 439.828 -4.4467 0.54524 0
M  V30 4784 C 441.572 -4.05916 -1.24228 0
M  V30 4785 C 439.479 -5.91058 0.201084 0
M  V30 4786 H 438.409 -0.742353 -0.132014 0
M  V30 4787 H 441.06 -1.79545 0.378948 0
M  V30 4788 H 439.442 -3.68772 -1.44304 0
M  V30 4789 H 440.616 -4.41426 1.32212 0
M  V30 4790 H 438.931 -4.03143 1.04232 0
M  V30 4791 H 441.528 -5.12831 -1.51357 0
M  V30 4792 H 441.871 -3.54908 -2.17592 0
M  V30 4793 H 442.404 -3.9434 -0.523542 0
M  V30 4794 H 439.143 -6.46161 1.10258 0
M  V30 4795 H 438.663 -5.97373 -0.539045 0
M  V30 4796 H 440.342 -6.46669 -0.206954 0
M  V30 4797 N 440.474 -0.00167713 -1.576 0
M  V30 4798 C 441.723 0.682021 -1.89819 0
M  V30 4799 C 442.036 1.74844 -0.876871 0
M  V30 4800 O 443.242 2.48688 -1.08934 0
M  V30 4801 C 441.698 1.26425 -3.36964 0
M  V30 4802 C 441.306 0.232568 -4.47396 0
M  V30 4803 C 443.05 1.92604 -3.78291 0
M  V30 4804 C 440.957 0.824882 -5.85619 0
M  V30 4805 H 439.887 0.258499 -0.708304 0
M  V30 4806 H 442.538 -0.0624957 -1.83394 0
M  V30 4807 H 440.92 2.05949 -3.38232 0
M  V30 4808 H 442.094 -0.5382 -4.57646 0
M  V30 4809 H 440.409 -0.32888 -4.15099 0
M  V30 4810 H 443.006 2.37827 -4.78897 0
M  V30 4811 H 443.349 2.75732 -3.11894 0
M  V30 4812 H 443.882 1.19812 -3.79328 0
M  V30 4813 H 440.621 0.0323542 -6.55492 0
M  V30 4814 H 440.141 1.56477 -5.79029 0
M  V30 4815 H 441.82 1.32301 -6.33329 0
M  V30 4816 N 441.952 1.55251 0.271103 0
M  V30 4817 C 442.915 1.87484 1.31842 0
M  V30 4818 C 443.915 0.749545 1.42262 0
M  V30 4819 O 445.105 1.01771 1.4138 0
M  V30 4820 C 442.237 2.0818 2.69951 0
M  V30 4821 H 443.43 2.81108 1.0449 0
M  V30 4822 H 440.983 1.47771 0.509258 0
M  V30 4823 H 441.718 1.16944 3.02481 0
M  V30 4824 H 441.503 2.90114 2.63774 0
M  V30 4825 H 442.993 2.34385 3.4562 0
M  V30 4826 N 443.43 -0.535701 1.48216 0
M  V30 4827 C 444.841 -1.11769 1.49548 0
M  V30 4828 C 445.192 -1.94442 0.26207 0
M  V30 4829 O 444.317 -2.06987 -0.631287 0
M  V30 4830 C 444.912 -2.03367 2.70975 0
M  V30 4831 C 443.471 -2.56795 2.75196 0
M  V30 4832 C 442.618 -1.33631 2.42977 0
M  V30 4833 H 445.569 -0.321232 1.55415 0
M  V30 4834 H 445.59 -2.87569 2.49167 0
M  V30 4835 H 445.102 -1.43169 3.60727 0
M  V30 4836 H 443.203 -3.20731 1.89638 0
M  V30 4837 H 443.316 -2.9632 3.76472 0
M  V30 4838 H 441.68 -1.6502 1.94012 0
M  V30 4839 H 442.463 -0.75194 3.34964 0
M  V30 4840 N 444.908 -1.36708 -0.784132 0
M  V30 4841 C 445.855 -1.31466 -1.89698 0
M  V30 4842 C 446.825 -0.18239 -1.65096 0
M  V30 4843 O 448.01 -0.369762 -1.87183 0
M  V30 4844 C 445.15 -1.1151 -3.26588 0
M  V30 4845 C 444.263 -2.33859 -3.63227 0
M  V30 4846 C 443.398 -2.06873 -4.89262 0
M  V30 4847 C 442.437 -3.25154 -5.18595 0
M  V30 4848 N 441.574 -2.978 -6.35814 0
M  V30 4849 H 446.414 -2.26619 -1.93515 0
M  V30 4850 H 443.951 -1.12625 -0.946256 0
M  V30 4851 H 445.909 -0.979653 -4.05535 0
M  V30 4852 H 444.539 -0.200103 -3.22179 0
M  V30 4853 H 443.591 -2.58188 -2.79362 0
M  V30 4854 H 444.903 -3.22109 -3.8085 0
M  V30 4855 H 444.057 -1.90289 -5.76086 0
M  V30 4856 H 442.796 -1.15942 -4.73718 0
M  V30 4857 H 441.801 -3.42292 -4.30251 0
M  V30 4858 H 443.026 -4.1692 -5.36055 0
M  V30 4859 H 440.972 -2.09485 -6.21653 0
M  V30 4860 H 440.889 -3.7959 -6.53794 0
M  V30 4861 H 442.157 -2.84805 -7.25607 0
M  V30 4862 N 446.386 1.0089 -1.21074 0
M  V30 4863 C 447.802 1.2695 -0.967257 0
M  V30 4864 C 448.002 1.9846 0.348673 0
M  V30 4865 O 447.058 2.28459 1.0753 0
M  V30 4866 C 448.371 2.09697 -2.15517 0
M  V30 4867 C 449.919 2.22937 -2.197 0
M  V30 4868 C 450.394 3.09064 -3.37999 0
M  V30 4869 N 451.885 3.16653 -3.38061 0
M  V30 4870 C 452.62 3.8354 -4.26245 0
M  V30 4871 N 452.116 4.52488 -5.2462 0
M  V30 4872 N 453.909 3.80141 -4.14064 0
M  V30 4873 H 446.06 0.529005 -2.05707 0
M  V30 4874 H 448.323 0.296148 -0.900556 0
M  V30 4875 H 448.029 1.64497 -3.10859 0
M  V30 4876 H 447.903 3.10444 -2.14253 0
M  V30 4877 H 450.29 2.67357 -1.24916 0
M  V30 4878 H 450.371 1.21673 -2.2501 0
M  V30 4879 H 450.015 2.65347 -4.33074 0
M  V30 4880 H 449.945 4.10433 -3.29928 0
M  V30 4881 H 452.436 2.67566 -2.66865 0
M  V30 4882 H 452.749 5.01219 -5.88217 0
M  V30 4883 H 451.094 4.51288 -5.28549 0
M  V30 4884 H 454.285 3.25427 -3.36474 0
M  V30 4885 H 454.458 4.31992 -4.82998 0
M  V30 4886 N 447.864 1.01787 1.20321 0
M  V30 4887 C 449.094 0.72614 1.93419 0
M  V30 4888 C 449.502 -0.717317 1.75075 0
M  V30 4889 O 448.845 -1.49836 1.06278 0
M  V30 4890 C 448.907 0.983621 3.45782 0
M  V30 4891 C 448.571 2.41645 3.87888 0
M  V30 4892 C 449.568 3.39732 3.93545 0
M  V30 4893 C 447.253 2.75752 4.19841 0
M  V30 4894 C 449.247 4.69988 4.30569 0
M  V30 4895 C 446.934 4.06221 4.56539 0
M  V30 4896 C 447.932 5.0315 4.61876 0
M  V30 4897 O 447.62 6.31284 4.97731 0
M  V30 4898 H 447.352 0.265824 0.621541 0
M  V30 4899 H 449.906 1.3623 1.53722 0
M  V30 4900 H 448.136 0.290301 3.85609 0
M  V30 4901 H 449.825 0.683279 4.00108 0
M  V30 4902 H 450.591 3.14718 3.69022 0
M  V30 4903 H 446.47 2.00993 4.14877 0
M  V30 4904 H 450.014 5.45642 4.3465 0
M  V30 4905 H 445.911 4.31013 4.80518 0
M  V30 4906 H 446.679 6.35591 5.15719 0
M  V30 4907 N 449.342 -1.36122 0.79427 0
M  V30 4908 C 450.289 -2.29982 0.194101 0
M  V30 4909 C 451.259 -1.52214 -0.664833 0
M  V30 4910 O 452.444 -1.80702 -0.612498 0
M  V30 4911 C 449.584 -3.38706 -0.661244 0
M  V30 4912 C 448.697 -4.31456 0.216766 0
M  V30 4913 C 447.832 -5.27265 -0.645411 0
M  V30 4914 C 446.871 -6.11653 0.233756 0
M  V30 4915 N 446.008 -6.99636 -0.587682 0
M  V30 4916 H 450.848 -2.80722 0.999965 0
M  V30 4917 H 448.385 -1.38172 0.504677 0
M  V30 4918 H 450.343 -4.00394 -1.17219 0
M  V30 4919 H 448.973 -2.89274 -1.43249 0
M  V30 4920 H 448.025 -3.7088 0.845724 0
M  V30 4921 H 449.337 -4.90724 0.893973 0
M  V30 4922 H 448.491 -5.94266 -1.22198 0
M  V30 4923 H 447.23 -4.68463 -1.35623 0
M  V30 4924 H 446.235 -5.4361 0.82269 0
M  V30 4925 H 447.46 -6.72531 0.942247 0
M  V30 4926 H 445.406 -6.43337 -1.2827 0
M  V30 4927 H 445.323 -7.55993 0.0317402 0
M  V30 4928 H 446.591 -7.71001 -1.14792 0
M  V30 4929 N 450.82 -0.546701 -1.47814 0
M  V30 4930 C 451.783 0.196287 -2.28358 0
M  V30 4931 C 452.783 0.852437 -1.36346 0
M  V30 4932 O 453.973 0.709913 -1.59078 0
M  V30 4933 C 451.105 1.28579 -3.15722 0
M  V30 4934 H 452.298 -0.511086 -2.95513 0
M  V30 4935 H 449.851 -0.303248 -1.5333 0
M  V30 4936 H 450.586 2.0259 -2.53235 0
M  V30 4937 H 450.371 0.820229 -3.83425 0
M  V30 4938 H 451.861 1.80793 -3.76435 0
M  V30 4939 N 452.299 1.55045 -0.282633 0
M  V30 4940 C 453.247 2.24254 0.617478 0
M  V30 4941 C 454.241 1.24215 1.15183 0
M  V30 4942 O 455.447 1.42123 1.10459 0
M  V30 4943 H 451.822 0.719801 0.217693 0
M  V30 4944 H 453.793 2.98398 0.0110076 0
M  V30 4945 C 452.542 2.98281 1.78672 0
M  V30 4946 H 451.865 3.75053 1.38475 0
M  V30 4947 H 453.305 3.50017 2.393 0
M  V30 4948 C 451.764 2.04184 2.67975 0
M  V30 4949 O 452.294 1.59792 3.6855 0
M  V30 4950 N 450.5 1.70526 2.35307 0
M  V30 4951 H 450.047 2.06821 1.53567 0
M  V30 4952 H 450.005 1.07839 2.95327 0
M  V30 4953 N 453.777 0.010035 1.57597 0
M  V30 4954 C 455.007 -0.682422 1.95004 0
M  V30 4955 C 455.415 -1.67278 0.884014 0
M  V30 4956 O 454.758 -1.83129 -0.144672 0
M  V30 4957 C 454.82 -1.46141 3.28456 0
M  V30 4958 C 454.484 -0.631523 4.52615 0
M  V30 4959 C 455.481 0.0850905 5.1983 0
M  V30 4960 C 453.166 -0.574539 4.99003 0
M  V30 4961 C 455.16 0.847566 6.3174 0
M  V30 4962 C 452.847 0.191655 6.10799 0
M  V30 4963 C 453.845 0.901432 6.77025 0
M  V30 4964 O 453.533 1.65511 7.86677 0
M  V30 4965 H 453.265 -0.194361 0.647456 0
M  V30 4966 H 455.819 0.060312 2.05311 0
M  V30 4967 H 454.049 -2.24885 3.14585 0
M  V30 4968 H 455.738 -2.04016 3.50902 0
M  V30 4969 H 456.504 0.0502812 4.84974 0
M  V30 4970 H 452.383 -1.11654 4.47274 0
M  V30 4971 H 455.927 1.4021 6.83364 0
M  V30 4972 H 451.824 0.228249 6.45096 0
M  V30 4973 H 452.592 1.57287 8.03245 0
M  V30 4974 N 455.255 -1.55392 -0.262866 0
M  V30 4975 C 456.495 -1.78231 -1.00064 0
M  V30 4976 C 456.859 -0.576966 -1.83126 0
M  V30 4977 O 458.06 -0.683809 -2.59957 0
M  V30 4978 C 456.331 -3.05701 -1.85153 0
M  V30 4979 S 457.89 -3.49699 -2.65058 0
M  V30 4980 H 454.708 -0.626138 -0.336856 0
M  V30 4981 H 457.31 -1.93626 -0.27005 0
M  V30 4982 H 456.014 -3.91511 -1.23074 0
M  V30 4983 H 455.545 -2.93 -2.62515 0
M  V30 4984 H 457.56 -3.09772 -3.87629 0
M  V30 4985 N 456.733 0.527833 -1.48498 0
M  V30 4986 C 457.958 1.313 -1.60546 0
M  V30 4987 C 458.383 1.86199 -0.26672 0
M  V30 4988 O 457.741 1.64513 0.761918 0
M  V30 4989 C 457.789 2.43818 -2.65678 0
M  V30 4990 O 456.893 3.46916 -2.22987 0
M  V30 4991 H 456.234 0.388784 -0.538277 0
M  V30 4992 H 458.764 0.634896 -1.945 0
M  V30 4993 H 458.774 2.89973 -2.87018 0
M  V30 4994 H 457.449 2.03222 -3.62869 0
M  V30 4995 H 456.026 3.06864 -2.11869 0
M  V30 4996 N 458.211 1.37122 0.776871 0
M  V30 4997 C 459.459 1.31787 1.53221 0
M  V30 4998 C 459.78 -0.0987589 1.9475 0
M  V30 4999 O 459.05 -1.0417 1.65908 0
M  V30 5000 H 457.63 0.484839 0.568278 0
M  V30 5001 H 460.292 1.71556 0.924917 0
M  V30 5002 H 459.388 1.95355 2.43398 0
M  V30 5003 N 459.689 -1.00246 1.21608 0
M  V30 5004 C 460.599 -2.12515 0.993709 0
M  V30 5005 C 461.615 -1.73913 -0.0549939 0
M  V30 5006 O 462.791 -2.00943 0.135619 0
M  V30 5007 C 459.856 -3.42083 0.563953 0
M  V30 5008 C 458.917 -3.94843 1.68516 0
M  V30 5009 C 458.15 -5.18226 1.27582 0
M  V30 5010 O 458.373 -5.70201 0.150506 0
M  V30 5011 O 457.307 -5.64497 2.0887 0
M  V30 5012 H 461.133 -2.34152 1.93407 0
M  V30 5013 H 458.718 -1.10891 1.00118 0
M  V30 5014 H 460.6 -4.20073 0.334194 0
M  V30 5015 H 459.275 -3.21828 -0.347665 0
M  V30 5016 H 458.182 -3.18068 1.96935 0
M  V30 5017 H 459.515 -4.19512 2.5743 0
M  V30 5018 N 461.167 -1.02423 -1.1978 0
M  V30 5019 C 462.407 -0.726635 -1.91048 0
M  V30 5020 C 462.771 0.730947 -1.77542 0
M  V30 5021 O 463.972 1.14141 -2.43362 0
M  V30 5022 C 462.243 -1.15964 -3.38064 0
M  V30 5023 S 463.802 -0.985172 -4.27598 0
M  V30 5024 H 460.62 -0.264679 -0.659899 0
M  V30 5025 H 463.222 -1.31309 -1.44838 0
M  V30 5026 H 461.926 -2.21619 -3.45417 0
M  V30 5027 H 461.457 -0.566274 -3.89303 0
M  V30 5028 H 463.472 0.106946 -4.96085 0
M  V30 5029 N 462.645 1.35699 -0.801477 0
M  V30 5030 C 463.555 2.33661 -0.209691 0
M  V30 5031 C 464.571 1.6162 0.644591 0
M  V30 5032 O 465.747 1.93529 0.557545 0
M  V30 5033 C 462.812 3.40816 0.636033 0
M  V30 5034 C 461.873 4.28639 -0.238147 0
M  V30 5035 C 461.106 5.30676 0.567307 0
M  V30 5036 O 461.329 5.41174 1.8024 0
M  V30 5037 O 460.263 6.01887 -0.0391336 0
M  V30 5038 H 464.089 2.8606 -1.01996 0
M  V30 5039 H 461.674 1.38379 -0.563164 0
M  V30 5040 H 463.556 4.06301 1.11791 0
M  V30 5041 H 462.231 2.90696 1.42399 0
M  V30 5042 H 461.138 3.66152 -0.767044 0
M  V30 5043 H 462.471 4.82143 -0.989915 0
M  V30 5044 N 464.123 0.554532 1.47522 0
M  V30 5045 C 465.37 0.029479 2.02479 0
M  V30 5046 C 465.698 -1.31929 1.42916 0
M  V30 5047 O 464.953 -1.87112 0.573385 0
M  V30 5048 C 465.252 -0.115927 3.57212 0
M  V30 5049 C 464.918 1.16161 4.3568 0
M  V30 5050 C 463.58 1.51168 4.56839 0
M  V30 5051 C 465.932 2.0083 4.80954 0
M  V30 5052 C 463.26 2.70696 5.2052 0
M  V30 5053 C 465.612 3.19559 5.45953 0
M  V30 5054 C 464.276 3.54882 5.65345 0
M  V30 5055 H 463.546 0.0107871 0.740921 0
M  V30 5056 H 466.193 0.725506 1.77225 0
M  V30 5057 H 464.498 -0.894902 3.81443 0
M  V30 5058 H 466.195 -0.53749 3.97381 0
M  V30 5059 H 462.785 0.879026 4.19489 0
M  V30 5060 H 466.969 1.75093 4.64388 0
M  V30 5061 H 462.225 2.98236 5.33728 0
M  V30 5062 H 466.399 3.85456 5.79997 0
M  V30 5063 H 464.026 4.47596 6.1446 0
M  V30 5064 N 465.601 -1.54893 0.290851 0
M  V30 5065 C 466.847 -2.0023 -0.321867 0
M  V30 5066 C 467.18 -1.179 -1.54316 0
M  V30 5067 O 466.455 -0.25293 -1.92848 0
M  V30 5068 C 466.738 -3.53456 -0.688515 0
M  V30 5069 C 466.591 -4.46532 0.541209 0
M  V30 5070 C 467.91 -4.13057 -1.51895 0
M  V30 5071 H 465.029 -0.727891 -0.115515 0
M  V30 5072 H 467.671 -1.85722 0.400931 0
M  V30 5073 H 465.821 -3.6595 -1.30433 0
M  V30 5074 H 467.493 -4.4596 1.17973 0
M  V30 5075 H 465.736 -4.17545 1.17636 0
M  V30 5076 H 466.407 -5.51475 0.240675 0
M  V30 5077 H 468.883 -4.03937 -0.99872 0
M  V30 5078 H 467.759 -5.20448 -1.74429 0
M  V30 5079 H 468.02 -3.64284 -2.50498 0
M  V30 5080 N 467.08 -0.0183926 -1.57589 0
M  V30 5081 C 468.327 0.662562 -1.91354 0
M  V30 5082 C 468.655 1.72747 -0.893788 0
M  V30 5083 O 467.91 1.9545 0.0988509 0
M  V30 5084 C 468.209 1.32676 -3.31861 0
M  V30 5085 C 467.875 0.393267 -4.49182 0
M  V30 5086 C 466.537 0.136302 -4.81007 0
M  V30 5087 C 468.889 -0.248366 -5.20608 0
M  V30 5088 C 466.217 -0.770282 -5.81621 0
M  V30 5089 C 468.569 -1.14294 -6.22189 0
M  V30 5090 C 467.233 -1.4089 -6.52462 0
M  V30 5091 H 466.503 0.242448 -0.700214 0
M  V30 5092 H 469.15 -0.0778629 -1.91342 0
M  V30 5093 H 467.455 2.14168 -3.28084 0
M  V30 5094 H 469.152 1.86001 -3.55253 0
M  V30 5095 H 465.742 0.603723 -4.24327 0
M  V30 5096 H 469.926 -0.062883 -4.9626 0
M  V30 5097 H 465.182 -0.984154 -6.03427 0
M  V30 5098 H 469.356 -1.64637 -6.76659 0
M  V30 5099 H 466.983 -2.11306 -7.30242 0
M  V30 5100 N 468.558 1.5553 0.254621 0
M  V30 5101 C 469.488 1.9268 1.31897 0
M  V30 5102 C 470.469 0.790797 1.506 0
M  V30 5103 O 471.654 1.05045 1.63337 0
M  V30 5104 C 468.784 2.21477 2.67517 0
M  V30 5105 C 467.738 3.37256 2.63519 0
M  V30 5106 C 467.064 3.51576 4.02862 0
M  V30 5107 C 468.364 4.73157 2.21179 0
M  V30 5108 H 470.058 2.81832 1.01051 0
M  V30 5109 H 467.604 1.35599 0.484662 0
M  V30 5110 H 469.557 2.46055 3.42104 0
M  V30 5111 H 468.281 1.29144 2.99982 0
M  V30 5112 H 466.94 3.12675 1.9139 0
M  V30 5113 H 466.588 2.56676 4.32581 0
M  V30 5114 H 466.288 4.2943 4.01078 0
M  V30 5115 H 467.812 3.78467 4.79161 0
M  V30 5116 H 469.226 4.97158 2.85494 0
M  V30 5117 H 467.623 5.54058 2.30521 0
M  V30 5118 H 468.693 4.70739 1.16332 0
M  V30 5119 N 470.036 -0.519951 1.48776 0
M  V30 5120 C 470.968 -1.63973 1.60142 0
M  V30 5121 C 471.981 -1.55404 0.485117 0
M  V30 5122 O 473.17 -1.61682 0.756391 0
M  V30 5123 C 470.27 -3.02676 1.52449 0
M  V30 5124 C 469.443 -3.36624 2.79291 0
M  V30 5125 C 468.502 -4.54652 2.64912 0
M  V30 5126 O 467.528 -4.57374 3.38818 0
M  V30 5127 N 468.73 -5.53432 1.75195 0
M  V30 5128 H 471.495 -1.54656 2.56713 0
M  V30 5129 H 469.056 -0.707439 1.45626 0
M  V30 5130 H 471.048 -3.79525 1.4051 0
M  V30 5131 H 469.618 -3.06018 0.638125 0
M  V30 5132 H 468.838 -2.48855 3.0572 0
M  V30 5133 H 470.126 -3.56094 3.6342 0
M  V30 5134 H 469.524 -5.54018 1.14371 0
M  V30 5135 H 468.081 -6.29459 1.69189 0
M  V30 5136 N 471.514 -1.37532 -0.769588 0
M  V30 5137 C 472.461 -1.3347 -1.88293 0
M  V30 5138 C 473.431 -0.199891 -1.64893 0
M  V30 5139 O 474.616 -0.389594 -1.8678 0
M  V30 5140 C 471.756 -1.14968 -3.25387 0
M  V30 5141 C 470.869 -2.37698 -3.60727 0
M  V30 5142 C 470.004 -2.12051 -4.8704 0
M  V30 5143 C 469.043 -3.30636 -5.15117 0
M  V30 5144 N 468.18 -3.04527 -6.3262 0
M  V30 5145 H 473.02 -2.28658 -1.911 0
M  V30 5146 H 470.557 -1.13622 -0.934257 0
M  V30 5147 H 472.515 -1.02261 -4.04473 0
M  V30 5148 H 471.145 -0.234263 -3.21949 0
M  V30 5149 H 470.197 -2.61137 -2.76608 0
M  V30 5150 H 471.509 -3.26131 -3.77413 0
M  V30 5151 H 470.663 -1.96388 -5.74035 0
M  V30 5152 H 469.402 -1.20959 -4.72462 0
M  V30 5153 H 468.407 -3.46836 -4.26597 0
M  V30 5154 H 469.632 -4.22582 -5.31603 0
M  V30 5155 H 467.578 -2.16067 -6.19396 0
M  V30 5156 H 467.495 -3.86503 -6.49732 0
M  V30 5157 H 468.763 -2.92485 -7.22546 0
M  V30 5158 N 472.992 0.995999 -1.22138 0
M  V30 5159 C 474.222 1.76809 -1.06874 0
M  V30 5160 C 474.63 1.85265 0.383866 0
M  V30 5161 O 473.973 1.31969 1.27789 0
M  V30 5162 C 474.035 3.2186 -1.60144 0
M  V30 5163 C 473.699 3.36958 -3.0872 0
M  V30 5164 C 474.696 3.2452 -4.0618 0
M  V30 5165 C 472.381 3.62109 -3.48112 0
M  V30 5166 C 474.375 3.37013 -5.41019 0
M  V30 5167 C 472.062 3.74243 -4.831 0
M  V30 5168 C 473.06 3.61702 -5.79362 0
M  V30 5169 O 472.748 3.73436 -7.119 0
M  V30 5170 H 472.48 0.562207 -0.375365 0
M  V30 5171 H 475.034 1.26113 -1.62125 0
M  V30 5172 H 473.264 3.73734 -0.992981 0
M  V30 5173 H 474.953 3.80775 -1.40589 0
M  V30 5174 H 475.719 3.05004 -3.77091 0
M  V30 5175 H 471.598 3.70949 -2.73712 0
M  V30 5176 H 475.142 3.27141 -6.16137 0
M  V30 5177 H 471.039 3.93266 -5.11872 0
M  V30 5178 H 471.807 3.90328 -7.19435 0
M  V30 5179 N 474.47 1.03057 1.19235 0
M  V30 5180 C 475.881 0.757449 1.70645 0
M  V30 5181 C 476.232 -0.722735 1.82403 0
M  V30 5182 O 475.357 -1.56325 1.49638 0
M  V30 5183 C 475.952 1.36833 3.09939 0
M  V30 5184 C 474.511 1.14375 3.58602 0
M  V30 5185 C 473.658 1.46533 2.35422 0
M  V30 5186 H 476.609 1.19828 1.04052 0
M  V30 5187 H 476.63 0.766184 3.72706 0
M  V30 5188 H 476.142 2.44562 3.01349 0
M  V30 5189 H 474.243 0.0847542 3.72504 0
M  V30 5190 H 474.356 1.83366 4.42622 0
M  V30 5191 H 472.72 0.884712 2.38841 0
M  V30 5192 H 473.503 2.55349 2.2946 0
M  V30 5193 N 475.948 -1.35272 0.808662 0
M  V30 5194 C 476.898 -2.27181 0.193124 0
M  V30 5195 C 477.882 -1.47871 -0.634265 0
M  V30 5196 O 479.074 -1.70048 -0.491182 0
M  V30 5197 C 476.203 -3.36979 -0.655751 0
M  V30 5198 C 475.289 -4.23712 0.181481 0
M  V30 5199 N 475.68 -4.90225 1.24551 0
M  V30 5200 C 473.978 -4.45985 -0.0365493 0
M  V30 5201 C 474.679 -5.54537 1.75682 0
M  V30 5202 N 473.655 -5.33107 1.06294 0
M  V30 5203 H 477.457 -2.76101 1.00724 0
M  V30 5204 H 474.971 -1.48823 0.650029 0
M  V30 5205 H 476.968 -4.01774 -1.11279 0
M  V30 5206 H 475.628 -2.89611 -1.46819 0
M  V30 5207 H 476.639 -4.91641 1.62818 0
M  V30 5208 H 473.316 -4.09409 -0.817964 0
M  V30 5209 H 474.706 -6.17597 2.64621 0
M  V30 5210 N 477.426 -0.562348 -1.47226 0
M  V30 5211 C 478.654 -0.0452275 -2.06851 0
M  V30 5212 C 479.069 1.25078 -1.41424 0
M  V30 5213 O 478.426 1.75156 -0.512513 0
M  V30 5214 C 478.477 0.148674 -3.61194 0
M  V30 5215 O 478.198 -1.09602 -4.24169 0
M  V30 5216 C 479.699 0.702488 -4.37699 0
M  V30 5217 H 476.919 -0.0481775 -0.669268 0
M  V30 5218 H 479.463 -0.777223 -1.89155 0
M  V30 5219 H 477.618 0.830817 -3.78386 0
M  V30 5220 H 478.032 -0.896982 -5.16773 0
M  V30 5221 H 479.506 0.78743 -5.46355 0
M  V30 5222 H 479.983 1.71493 -4.04335 0
M  V30 5223 H 480.589 0.0558772 -4.25263 0
M  V30 5224 N 478.904 1.54736 -0.299062 0
M  V30 5225 C 479.854 2.20155 0.592932 0
M  V30 5226 C 480.838 1.1739 1.10038 0
M  V30 5227 O 482.03 1.43116 1.04147 0
M  V30 5228 C 479.159 2.94437 1.76527 0
M  V30 5229 C 478.245 4.04516 1.27388 0
M  V30 5230 N 478.636 5.03319 0.500339 0
M  V30 5231 C 476.934 4.18022 1.55478 0
M  V30 5232 C 477.635 5.81209 0.238909 0
M  V30 5233 N 476.611 5.37408 0.818163 0
M  V30 5234 H 480.413 2.93899 -0.00563596 0
M  V30 5235 H 477.927 1.62068 -0.103732 0
M  V30 5236 H 479.924 3.3977 2.41582 0
M  V30 5237 H 478.584 2.22209 2.36756 0
M  V30 5238 H 479.595 5.17696 0.145419 0
M  V30 5239 H 476.272 3.56998 2.16469 0
M  V30 5240 H 477.662 6.70812 -0.382223 0
M  V30 5241 N 480.382 0.0267497 1.57577 0
M  V30 5242 C 481.312 -0.954308 2.13108 0
M  V30 5243 C 482.293 -1.34088 1.04663 0
M  V30 5244 O 483.478 -1.41992 1.32484 0
M  V30 5245 C 480.608 -2.23744 2.65624 0
M  V30 5246 C 479.562 -1.99168 3.78835 0
M  V30 5247 C 478.888 -3.33726 4.17769 0
M  V30 5248 C 480.188 -1.33277 5.0501 0
M  V30 5249 H 481.882 -0.491848 2.95332 0
M  V30 5250 H 479.428 -0.23514 1.42067 0
M  V30 5251 H 481.381 -2.92754 3.03106 0
M  V30 5252 H 480.105 -2.72151 1.80558 0
M  V30 5253 H 478.764 -1.32577 3.41788 0
M  V30 5254 H 478.412 -3.79888 3.29688 0
M  V30 5255 H 478.112 -3.18089 4.94058 0
M  V30 5256 H 479.636 -4.04008 4.57832 0
M  V30 5257 H 481.05 -1.92283 5.40093 0
M  V30 5258 H 479.447 -1.28045 5.8628 0
M  V30 5259 H 480.517 -0.305411 4.83937 0
M  V30 5260 N 481.861 -1.55662 -0.24637 0
M  V30 5261 C 483.107 -1.77782 -0.975779 0
M  V30 5262 C 483.44 -0.592103 -1.84953 0
M  V30 5263 O 482.715 0.409588 -1.90138 0
M  V30 5264 C 482.998 -3.09788 -1.83584 0
M  V30 5265 C 482.851 -4.38764 -0.990241 0
M  V30 5266 C 484.17 -3.38029 -2.81823 0
M  V30 5267 H 481.289 -0.646789 -0.353317 0
M  V30 5268 H 483.931 -1.88398 -0.246248 0
M  V30 5269 H 482.081 -3.00869 -2.45784 0
M  V30 5270 H 483.753 -4.59675 -0.386897 0
M  V30 5271 H 481.996 -4.32798 -0.294626 0
M  V30 5272 H 482.667 -5.27514 -1.62584 0
M  V30 5273 H 485.143 -3.46915 -2.2976 0
M  V30 5274 H 484.019 -4.3161 -3.39122 0
M  V30 5275 H 484.28 -2.58968 -3.58313 0
M  V30 5276 N 483.339 0.512053 -1.4905 0
M  V30 5277 C 484.289 1.61142 -1.61298 0
M  V30 5278 C 485.273 1.53908 -0.46916 0
M  V30 5279 O 486.465 1.61625 -0.721547 0
M  V30 5280 C 483.594 2.998 -1.67256 0
M  V30 5281 C 482.68 3.12072 -2.87179 0
M  V30 5282 N 483.071 2.94263 -4.11391 0
M  V30 5283 C 481.369 3.43156 -2.84886 0
M  V30 5284 C 482.07 3.10426 -4.91946 0
M  V30 5285 N 481.046 3.38808 -4.251 0
M  V30 5286 H 484.848 1.46011 -2.55065 0
M  V30 5287 H 482.362 0.717934 -1.45669 0
M  V30 5288 H 484.359 3.78794 -1.74128 0
M  V30 5289 H 483.019 3.1601 -0.746195 0
M  V30 5290 H 484.03 2.70661 -4.41546 0
M  V30 5291 H 480.707 3.65611 -2.01581 0
M  V30 5292 H 482.097 3.01243 -6.00585 0
M  V30 5293 N 484.817 1.37938 0.762283 0
M  V30 5294 C 485.749 1.30349 1.88525 0
M  V30 5295 C 486.762 0.217402 1.61342 0
M  V30 5296 O 487.951 0.474291 1.72084 0
M  V30 5297 C 485.051 0.994844 3.23969 0
M  V30 5298 C 484.224 2.18829 3.78725 0
M  V30 5299 C 483.283 1.84844 4.92665 0
M  V30 5300 O 482.309 2.57244 5.07754 0
M  V30 5301 N 483.511 0.798201 5.74986 0
M  V30 5302 H 486.276 2.27114 1.95549 0
M  V30 5303 H 483.837 1.31686 0.941825 0
M  V30 5304 H 485.829 0.748168 3.97724 0
M  V30 5305 H 484.399 0.115446 3.12387 0
M  V30 5306 H 483.619 2.59615 2.96637 0
M  V30 5307 H 484.907 2.98497 4.1204 0
M  V30 5308 H 484.305 0.197611 5.65355 0
M  V30 5309 H 482.862 0.611396 6.48926 0
M  V30 5310 N 486.295 -0.989507 1.22664 0
M  V30 5311 C 487.258 -2.06183 1.00106 0
M  V30 5312 C 488.258 -1.60765 -0.0337726 0
M  V30 5313 O 489.448 -1.72989 0.205072 0
M  V30 5314 C 486.58 -3.37021 0.51279 0
M  V30 5315 H 487.773 -2.27629 1.95256 0
M  V30 5316 H 485.326 -1.16158 1.0458 0
M  V30 5317 H 486.061 -3.21261 -0.442917 0
M  V30 5318 H 485.846 -3.71323 1.25942 0
M  V30 5319 H 487.336 -4.1591 0.375315 0
M  V30 5320 N 487.773 -1.03688 -1.18687 0
M  V30 5321 C 488.721 -0.618292 -2.24232 0
M  V30 5322 C 489.715 0.353045 -1.6568 0
M  V30 5323 O 490.921 0.220749 -1.78641 0
M  V30 5324 H 487.296 -0.181711 -0.729716 0
M  V30 5325 H 489.267 -1.51893 -2.56848 0
M  V30 5326 C 488.016 0.00677342 -3.47699 0
M  V30 5327 H 487.339 -0.731692 -3.93047 0
M  V30 5328 H 488.779 0.262492 -4.23187 0
M  V30 5329 C 487.238 1.25572 -3.12623 0
M  V30 5330 O 487.768 2.34691 -3.26011 0
M  V30 5331 N 485.974 1.14755 -2.66982 0
M  V30 5332 H 485.521 0.259601 -2.56289 0
M  V30 5333 H 485.479 1.98412 -2.43885 0
M  V30 5334 N 489.251 1.34841 -0.815825 0
M  V30 5335 C 490.662 1.80937 -0.46029 0
M  V30 5336 C 491.013 1.67685 1.01863 0
M  V30 5337 O 490.138 1.21277 1.79223 0
M  V30 5338 C 490.733 3.28509 -0.828708 0
M  V30 5339 C 489.292 3.72712 -0.525644 0
M  V30 5340 C 488.439 2.56676 -1.04941 0
M  V30 5341 H 491.39 1.22688 -1.00664 0
M  V30 5342 H 491.411 3.80279 -0.129757 0
M  V30 5343 H 490.923 3.38122 -1.90513 0
M  V30 5344 H 489.024 3.68642 0.541666 0
M  V30 5345 H 489.137 4.67119 -1.06474 0
M  V30 5346 H 487.501 2.50302 -0.471286 0
M  V30 5347 H 488.284 2.69063 -2.13214 0
M  V30 5348 N 490.729 0.570148 1.46925 0
M  V30 5349 C 492.145 0.23087 1.57921 0
M  V30 5350 C 492.345 -1.26676 1.56702 0
M  V30 5351 O 491.401 -2.04774 1.47729 0
M  V30 5352 C 492.714 0.868973 2.8787 0
M  V30 5353 C 494.262 0.841397 3.01479 0
M  V30 5354 C 494.737 1.45881 4.34146 0
M  V30 5355 N 496.228 1.42258 4.40814 0
M  V30 5356 C 496.963 1.8698 5.42057 0
M  V30 5357 N 496.459 2.39618 6.50042 0
M  V30 5358 N 498.252 1.77972 5.33181 0
M  V30 5359 H 490.403 1.54301 1.45962 0
M  V30 5360 H 492.666 0.644224 0.69547 0
M  V30 5361 H 492.372 1.922 2.94537 0
M  V30 5362 H 492.246 0.369682 3.75384 0
M  V30 5363 H 494.633 -0.202973 2.94401 0
M  V30 5364 H 494.714 1.37858 2.15474 0
M  V30 5365 H 494.358 2.50231 4.4198 0
M  V30 5366 H 494.288 0.896958 5.18905 0
M  V30 5367 H 496.779 1.03768 3.63374 0
M  V30 5368 H 497.092 2.71633 7.23488 0
M  V30 5369 H 495.437 2.43636 6.50897 0
M  V30 5370 H 498.628 1.36617 4.4772 0
M  V30 5371 H 498.801 2.13143 6.11943 0
M  V30 5372 N 492.207 -1.54576 0.307264 0
M  V30 5373 C 493.455 -1.99867 -0.299574 0
M  V30 5374 C 493.776 -1.19714 -1.53927 0
M  V30 5375 O 493.046 -0.29472 -1.9367 0
M  V30 5376 H 491.626 -0.738299 -0.113683 0
M  V30 5377 H 494.288 -1.9032 0.420042 0
M  V30 5378 H 493.384 -3.06901 -0.567283 0
M  V30 5379 N 493.685 -0.035106 -1.57561 0
M  V30 5380 C 494.91 0.655802 -1.96759 0
M  V30 5381 C 495.335 1.64523 -0.911809 0
M  V30 5382 O 494.693 1.80857 0.126673 0
M  V30 5383 C 494.741 1.33326 -3.35047 0
M  V30 5384 O 493.845 2.44866 -3.31835 0
M  V30 5385 H 493.186 0.171807 -0.641388 0
M  V30 5386 H 495.716 -0.0987369 -2.04362 0
M  V30 5387 H 495.726 1.68867 -3.71413 0
M  V30 5388 H 494.401 0.608033 -4.11431 0
M  V30 5389 H 492.978 2.11392 -3.07193 0
M  V30 5390 N 495.163 1.55791 0.238111 0
M  V30 5391 C 496.126 1.90239 1.27835 0
M  V30 5392 C 497.126 0.779552 1.4064 0
M  V30 5393 O 498.316 1.04747 1.3919 0
M  V30 5394 C 495.448 2.13859 2.65475 0
M  V30 5395 H 496.641 2.83262 0.985034 0
M  V30 5396 H 494.194 1.48818 0.477799 0
M  V30 5397 H 494.929 1.23334 2.99932 0
M  V30 5398 H 494.714 2.95643 2.57561 0
M  V30 5399 H 496.204 2.41664 3.40571 0
M  V30 5400 N 496.642 -0.504142 1.49319 0
M  V30 5401 C 497.89 -1.25598 1.58334 0
M  V30 5402 C 498.211 -1.93114 0.270538 0
M  V30 5403 O 497.481 -1.82585 -0.709891 0
M  V30 5404 H 496.061 -0.466571 0.58337 0
M  V30 5405 H 498.723 -0.584547 1.85928 0
M  V30 5406 H 497.819 -2.02159 2.37778 0
M  V30 5407 N 498.12 -1.38341 -0.754957 0
M  V30 5408 C 499.531 -1.30803 -1.3322 0
M  V30 5409 C 499.882 0.0368 -1.96165 0
M  V30 5410 O 499.007 0.938844 -1.94974 0
M  V30 5411 C 499.602 -2.3688 -2.42225 0
M  V30 5412 C 498.161 -2.32925 -2.95674 0
M  V30 5413 C 497.308 -2.19819 -1.69042 0
M  V30 5414 H 500.259 -1.48719 -0.553937 0
M  V30 5415 H 500.28 -2.02517 -3.22129 0
M  V30 5416 H 499.792 -3.34747 -1.96383 0
M  V30 5417 H 497.893 -1.38635 -3.45848 0
M  V30 5418 H 498.006 -3.27008 -3.50146 0
M  V30 5419 H 496.37 -1.66648 -1.92615 0
M  V30 5420 H 497.153 -3.19625 -1.25279 0
M  V30 5421 N 499.598 0.982988 -1.23187 0
M  V30 5422 C 500.838 1.73903 -1.07412 0
M  V30 5423 C 501.202 1.88146 0.382764 0
M  V30 5424 O 502.403 2.6053 0.661638 0
M  V30 5425 C 500.674 3.10105 -1.77678 0
M  V30 5426 S 502.233 4.01323 -1.77441 0
M  V30 5427 H 499.051 0.598093 -0.384456 0
M  V30 5428 H 501.653 1.17456 -1.56283 0
M  V30 5429 H 500.357 2.97388 -2.82822 0
M  V30 5430 H 499.888 3.71622 -1.29077 0
M  V30 5431 H 501.903 4.89189 -0.831162 0
M  V30 5432 N 501.076 1.04316 1.18135 0
M  V30 5433 C 502.316 0.756937 1.89868 0
M  V30 5434 C 502.68 -0.702609 1.78682 0
M  V30 5435 O 503.881 -1.10255 2.45148 0
M  V30 5436 C 502.152 1.21327 3.36176 0
M  V30 5437 S 503.711 1.05307 4.25976 0
M  V30 5438 H 500.529 0.275143 0.655604 0
M  V30 5439 H 503.131 1.33597 1.42731 0
M  V30 5440 H 501.835 2.27086 3.41848 0
M  V30 5441 H 501.366 0.628137 3.88353 0
M  V30 5442 H 503.381 -0.0280093 4.96192 0
M  V30 5443 N 502.554 -1.34406 0.822964 0
M  V30 5444 C 503.782 -2.02508 0.424039 0
M  V30 5445 C 504.197 -1.61975 -0.970022 0
M  V30 5446 O 503.554 -0.825228 -1.62777 0
M  V30 5447 C 503.605 -3.57789 0.516657 0
M  V30 5448 O 503.326 -3.96853 1.85577 0
M  V30 5449 C 504.827 -4.43157 0.112637 0
M  V30 5450 H 502.047 -0.649063 0.170173 0
M  V30 5451 H 504.591 -1.7168 1.11113 0
M  V30 5452 H 502.746 -3.87207 -0.122353 0
M  V30 5453 H 503.16 -4.91538 1.83005 0
M  V30 5454 H 504.634 -5.51527 0.228526 0
M  V30 5455 H 505.111 -4.28939 -0.943837 0
M  V30 5456 H 505.717 -4.19067 0.725449 0
M  V30 5457 N 504.032 -0.577932 -1.46621 0
M  V30 5458 C 505.443 -0.150071 -1.86096 0
M  V30 5459 C 505.794 1.28563 -1.48209 0
M  V30 5460 O 504.919 1.97036 -0.894754 0
M  V30 5461 C 505.514 -0.265576 -3.37758 0
M  V30 5462 C 504.073 0.10738 -3.76247 0
M  V30 5463 C 503.22 -0.603711 -2.70649 0
M  V30 5464 H 506.171 -0.786438 -1.37844 0
M  V30 5465 H 506.192 0.510352 -3.77062 0
M  V30 5466 H 505.704 -1.3106 -3.65301 0
M  V30 5467 H 503.805 1.15272 -3.54321 0
M  V30 5468 H 503.918 -0.26561 -4.78363 0
M  V30 5469 H 502.282 -0.0444884 -2.54661 0
M  V30 5470 H 503.065 -1.65029 -3.01032 0
M  V30 5471 N 505.51 1.54411 -0.315457 0
M  V30 5472 C 506.738 2.04833 0.291738 0
M  V30 5473 C 507.153 1.19203 1.46411 0
M  V30 5474 O 506.51 0.220867 1.81159 0
M  V30 5475 C 506.561 3.53969 0.73404 0
M  V30 5476 O 506.282 4.36346 -0.391682 0
M  V30 5477 C 507.783 4.2045 1.40489 0
M  V30 5478 H 505.003 0.668195 0.0612947 0
M  V30 5479 H 507.547 1.99276 -0.45929 0
M  V30 5480 H 505.702 3.5984 1.43506 0
M  V30 5481 H 506.116 5.24481 -0.0447088 0
M  V30 5482 H 507.59 5.26278 1.66539 0
M  V30 5483 H 508.067 3.71067 2.3496 0
M  V30 5484 H 508.673 4.18694 0.746662 0
M  V30 5485 N 506.988 0.0434614 1.5754 0
M  V30 5486 C 507.935 -0.93356 2.11077 0
M  V30 5487 C 508.905 -1.31383 1.01626 0
M  V30 5488 O 510.09 -1.40465 1.29129 0
M  V30 5489 C 507.23 -2.20578 2.65404 0
M  V30 5490 C 506.343 -1.88068 3.88914 0
M  V30 5491 C 505.478 -3.09691 4.31584 0
M  V30 5492 C 504.517 -2.73067 5.47815 0
M  V30 5493 N 503.654 -3.87359 5.85574 0
M  V30 5494 H 508.494 -0.470118 2.94268 0
M  V30 5495 H 506.031 -0.220434 1.45439 0
M  V30 5496 H 507.989 -2.95011 2.94999 0
M  V30 5497 H 506.619 -2.64513 1.85021 0
M  V30 5498 H 505.671 -1.03816 3.6596 0
M  V30 5499 H 506.983 -1.57104 4.73413 0
M  V30 5500 H 506.137 -3.92431 4.62691 0
M  V30 5501 H 504.876 -3.43827 3.45882 0
M  V30 5502 H 503.881 -1.88742 5.16388 0
M  V30 5503 H 505.106 -2.40131 6.35227 0
M  V30 5504 H 503.052 -4.21311 5.02825 0
M  V30 5505 H 502.969 -3.60068 6.64746 0
M  V30 5506 H 504.237 -4.70761 6.21292 0
M  V30 5507 N 508.466 -1.55915 -0.229846 0
M  V30 5508 C 509.399 -1.86734 -1.3117 0
M  V30 5509 C 510.377 -0.723947 -1.45595 0
M  V30 5510 O 511.561 -0.971462 -1.61539 0
M  V30 5511 C 508.688 -2.06707 -2.68309 0
M  V30 5512 C 507.734 -3.2938 -2.70944 0
M  V30 5513 S 508.567 -4.85547 -2.25842 0
M  V30 5514 C 509.723 -5.08546 -3.64873 0
M  V30 5515 H 509.956 -2.78204 -1.04832 0
M  V30 5516 H 507.489 -1.48243 -0.431681 0
M  V30 5517 H 509.447 -2.18898 -3.47267 0
M  V30 5518 H 508.108 -1.16049 -2.91876 0
M  V30 5519 H 507.301 -3.40374 -3.71701 0
M  V30 5520 H 506.903 -3.16004 -2.00044 0
M  V30 5521 H 509.195 -4.96935 -4.60502 0
M  V30 5522 H 510.138 -6.10465 -3.58801 0
M  V30 5523 H 510.546 -4.36314 -3.58176 0
M  V30 5524 N 509.944 0.496216 -1.49584 0
M  V30 5525 C 511.169 1.27865 -1.63295 0
M  V30 5526 C 511.594 1.85592 -0.306156 0
M  V30 5527 O 510.952 1.66092 0.726851 0
M  V30 5528 C 511 2.38128 -2.7079 0
M  V30 5529 O 510.104 3.42108 -2.30296 0
M  V30 5530 H 509.445 0.377279 -0.546403 0
M  V30 5531 H 511.975 0.593497 -1.95803 0
M  V30 5532 H 511.985 2.8382 -2.93104 0
M  V30 5533 H 510.66 1.95479 -3.67098 0
M  V30 5534 H 509.237 3.02301 -2.18331 0
M  V30 5535 N 511.423 1.38739 0.74761 0
M  V30 5536 C 512.834 1.31507 1.32524 0
M  V30 5537 C 513.185 -0.0263963 1.96182 0
M  V30 5538 O 512.31 -0.92849 1.95469 0
M  V30 5539 C 512.905 2.38162 2.40966 0
M  V30 5540 C 511.464 2.34489 2.94434 0
M  V30 5541 C 510.611 2.20712 1.67873 0
M  V30 5542 H 513.562 1.4901 0.546043 0
M  V30 5543 H 513.583 2.04222 3.21051 0
M  V30 5544 H 513.095 3.35783 1.94605 0
M  V30 5545 H 511.196 1.40467 3.45108 0
M  V30 5546 H 511.309 3.28861 3.48407 0
M  V30 5547 H 509.673 1.67667 1.91729 0
M  V30 5548 H 510.456 3.20285 1.23582 0
M  V30 5549 N 512.901 -0.976442 1.23707 0
M  V30 5550 C 514.15 -1.71254 1.06559 0
M  V30 5551 C 514.463 -1.91528 -0.397024 0
M  V30 5552 O 515.669 -2.62625 -0.688518 0
M  V30 5553 C 514.125 -3.08207 1.8584 0
M  V30 5554 C 513.733 -2.95806 3.36456 0
M  V30 5555 C 515.477 -3.85749 1.77194 0
M  V30 5556 C 513.384 -4.28015 4.08114 0
M  V30 5557 H 512.314 -0.642171 0.395136 0
M  V30 5558 H 514.965 -1.08877 1.4771 0
M  V30 5559 H 513.347 -3.71363 1.37498 0
M  V30 5560 H 514.521 -2.41716 3.92314 0
M  V30 5561 H 512.836 -2.31736 3.45959 0
M  V30 5562 H 515.433 -4.83633 2.28041 0
M  V30 5563 H 515.776 -4.09752 0.735477 0
M  V30 5564 H 516.309 -3.29303 2.23169 0
M  V30 5565 H 513.048 -4.09208 5.12083 0
M  V30 5566 H 512.568 -4.81955 3.57043 0
M  V30 5567 H 514.247 -4.96681 4.14629 0
M  V30 5568 N 514.379 -1.04941 -1.1758 0
M  V30 5569 C 515.327 -0.64204 -2.23563 0
M  V30 5570 C 516.321 0.335453 -1.66045 0
M  V30 5571 O 517.527 0.20179 -1.78865 0
M  V30 5572 H 513.902 -0.18944 -0.727748 0
M  V30 5573 H 515.873 -1.54609 -2.55223 0
M  V30 5574 C 514.622 -0.0301051 -3.47687 0
M  V30 5575 H 513.945 -0.773339 -3.92249 0
M  V30 5576 H 515.385 0.217592 -4.23441 0
M  V30 5577 C 513.844 1.2225 -3.13937 0
M  V30 5578 O 514.374 2.3122 -3.28482 0
M  V30 5579 N 512.58 1.11917 -2.68185 0
M  V30 5580 H 512.127 0.232403 -2.5655 0
M  V30 5581 H 512.085 1.95814 -2.45976 0
M  V30 5582 N 515.857 1.33968 -0.830081 0
M  V30 5583 C 516.79 2.27303 -0.202182 0
M  V30 5584 C 517.768 1.49235 0.645581 0
M  V30 5585 O 518.952 1.78433 0.607762 0
M  V30 5586 C 516.079 3.31025 0.716932 0
M  V30 5587 C 515.125 4.26466 -0.0542271 0
M  V30 5588 S 515.958 5.16707 -1.40622 0
M  V30 5589 C 517.114 6.23962 -0.492167 0
M  V30 5590 H 517.347 2.8021 -0.99346 0
M  V30 5591 H 514.88 1.41124 -0.626359 0
M  V30 5592 H 516.838 3.91271 1.24165 0
M  V30 5593 H 515.499 2.76951 1.4818 0
M  V30 5594 H 514.692 4.99858 0.644785 0
M  V30 5595 H 514.294 3.7051 -0.509722 0
M  V30 5596 H 516.586 6.76774 0.31347 0
M  V30 5597 H 517.529 6.97927 -1.19599 0
M  V30 5598 H 517.937 5.64447 -0.0774176 0
M  V30 5599 N 517.335 0.585699 1.46312 0
M  V30 5600 C 518.265 -0.133556 2.33118 0
M  V30 5601 C 519.246 -0.880707 1.45525 0
M  V30 5602 O 520.431 -0.855579 1.74337 0
M  V30 5603 C 517.561 -1.14585 3.27853 0
M  V30 5604 C 516.515 -0.513341 4.2491 0
M  V30 5605 C 515.841 -1.63231 5.09175 0
M  V30 5606 C 517.141 0.551413 5.19381 0
M  V30 5607 H 518.835 0.59121 2.93505 0
M  V30 5608 H 516.381 0.285761 1.41136 0
M  V30 5609 H 518.334 -1.65741 3.87438 0
M  V30 5610 H 517.058 -1.90093 2.65579 0
M  V30 5611 H 515.717 -0.0228349 3.66593 0
M  V30 5612 H 515.365 -2.37713 4.43285 0
M  V30 5613 H 515.065 -1.21473 5.74907 0
M  V30 5614 H 516.589 -2.14658 5.71624 0
M  V30 5615 H 518.003 0.124804 5.73164 0
M  V30 5616 H 516.4 0.889486 5.93471 0
M  V30 5617 H 517.47 1.43655 4.63132 0
M  V30 5618 N 518.813 -1.54241 0.323641 0
M  V30 5619 C 520.043 -2.04687 -0.280464 0
M  V30 5620 C 520.451 -1.19939 -1.46326 0
M  V30 5621 O 519.794 -0.222872 -1.82343 0
M  V30 5622 C 519.856 -3.50978 -0.778123 0
M  V30 5623 C 519.52 -4.56127 0.282371 0
M  V30 5624 C 520.517 -5.07726 1.11847 0
M  V30 5625 C 518.202 -5.00451 0.430582 0
M  V30 5626 C 520.196 -6.02212 2.08851 0
M  V30 5627 C 517.883 -5.94752 1.40404 0
M  V30 5628 C 518.881 -6.45519 2.23147 0
M  V30 5629 O 518.569 -7.37968 3.1884 0
M  V30 5630 H 518.301 -0.673192 -0.0615473 0
M  V30 5631 H 520.855 -1.99999 0.467921 0
M  V30 5632 H 519.085 -3.53064 -1.57742 0
M  V30 5633 H 520.774 -3.84499 -1.30058 0
M  V30 5634 H 521.54 -4.74261 1.01496 0
M  V30 5635 H 517.419 -4.6055 -0.203569 0
M  V30 5636 H 520.963 -6.41761 2.73474 0
M  V30 5637 H 516.86 -6.27633 1.5082 0
M  V30 5638 H 517.628 -7.55841 3.14079 0
M  V30 5639 N 520.291 -0.0518155 -1.57515 0
M  V30 5640 C 521.538 0.621823 -1.92716 0
M  V30 5641 C 521.866 1.70813 -0.930229 0
M  V30 5642 O 521.121 1.95616 0.0573708 0
M  V30 5643 C 521.42 1.25607 -3.34601 0
M  V30 5644 C 521.086 0.297901 -4.49915 0
M  V30 5645 C 519.748 0.034243 -4.81188 0
M  V30 5646 C 522.1 -0.358738 -5.19964 0
M  V30 5647 C 519.428 -0.893479 -5.79857 0
M  V30 5648 C 521.78 -1.27466 -6.19625 0
M  V30 5649 C 520.444 -1.54698 -6.49326 0
M  V30 5650 H 519.714 0.227541 -0.705199 0
M  V30 5651 H 522.361 -0.118432 -1.91133 0
M  V30 5652 H 520.666 2.07161 -3.32553 0
M  V30 5653 H 522.363 1.78424 -3.59118 0
M  V30 5654 H 518.953 0.513581 -4.25512 0
M  V30 5655 H 523.137 -0.168133 -4.96015 0
M  V30 5656 H 518.393 -1.11193 -6.01204 0
M  V30 5657 H 522.567 -1.78953 -6.73015 0
M  V30 5658 H 520.194 -2.26748 -7.25596 0
M  V30 5659 N 521.769 1.56035 0.221574 0
M  V30 5660 C 522.717 1.93269 1.29421 0
M  V30 5661 C 523.711 0.814727 1.48521 0
M  V30 5662 O 524.917 0.999559 1.49696 0
M  V30 5663 H 521.292 0.614188 0.43391 0
M  V30 5664 H 523.263 2.82773 0.952987 0
M  V30 5665 C 522.012 2.26573 2.63742 0
M  V30 5666 H 521.335 3.12112 2.49853 0
M  V30 5667 H 522.775 2.5651 3.37607 0
M  V30 5668 C 521.234 1.09086 3.1875 0
M  V30 5669 O 521.764 0.351985 4.00155 0
M  V30 5670 N 519.97 0.874693 2.77124 0
M  V30 5671 H 519.517 1.47726 2.11033 0
M  V30 5672 H 519.475 0.0903349 3.1427 0
M  V30 5673 N 523.247 -0.488276 1.49845 0
M  V30 5674 C 524.495 -1.23911 1.59657 0
M  V30 5675 C 524.816 -1.92816 0.291005 0
M  V30 5676 O 524.086 -1.83328 -0.690485 0
M  V30 5677 H 522.666 -0.460357 0.588286 0
M  V30 5678 H 525.328 -0.564794 1.86537 0
M  V30 5679 H 524.424 -1.99625 2.39909 0
M  V30 5680 N 524.725 -1.39134 -0.740242 0
M  V30 5681 C 525.672 -1.37434 -1.8542 0
M  V30 5682 C 526.642 -0.234822 -1.64432 0
M  V30 5683 O 527.827 -0.429125 -1.85912 0
M  V30 5684 C 524.967 -1.21844 -3.22875 0
M  V30 5685 C 524.08 -2.45296 -3.55603 0
M  V30 5686 C 523.215 -2.22334 -4.82432 0
M  V30 5687 C 522.254 -3.41488 -5.07988 0
M  V30 5688 N 521.391 -3.17877 -6.26018 0
M  V30 5689 H 526.231 -2.3266 -1.86207 0
M  V30 5690 H 523.768 -1.15578 -0.909946 0
M  V30 5691 H 525.726 -1.10818 -4.02213 0
M  V30 5692 H 524.356 -0.3025 -3.21379 0
M  V30 5693 H 523.408 -2.66945 -2.71006 0
M  V30 5694 H 524.72 -3.34063 -3.7041 0
M  V30 5695 H 523.874 -2.0852 -5.69741 0
M  V30 5696 H 522.613 -1.30954 -4.6979 0
M  V30 5697 H 521.618 -3.55807 -4.19144 0
M  V30 5698 H 522.843 -4.33763 -5.22519 0
M  V30 5699 H 520.789 -2.29156 -6.14673 0
M  V30 5700 H 520.706 -4.00198 -6.41387 0
M  V30 5701 H 521.974 -3.07746 -7.16179 0
M  V30 5702 N 526.204 0.969867 -1.24223 0
M  V30 5703 C 527.114 2.09806 -1.0497 0
M  V30 5704 C 528.13 1.73998 0.00886455 0
M  V30 5705 O 529.306 2.00513 -0.188848 0
M  V30 5706 C 526.371 3.40467 -0.654452 0
M  V30 5707 C 525.432 3.90236 -1.78926 0
M  V30 5708 C 524.665 5.14662 -1.41277 0
M  V30 5709 O 524.888 5.69602 -0.301632 0
M  V30 5710 O 523.822 5.58761 -2.23763 0
M  V30 5711 H 527.648 2.28942 -1.99548 0
M  V30 5712 H 525.233 1.08197 -1.03023 0
M  V30 5713 H 527.115 4.19039 -0.445452 0
M  V30 5714 H 525.79 3.22636 0.262216 0
M  V30 5715 H 524.697 3.12735 -2.05299 0
M  V30 5716 H 526.03 4.1254 -2.68462 0
M  V30 5717 N 527.682 1.05563 1.17022 0
M  V30 5718 C 528.614 0.617888 2.20714 0
M  V30 5719 C 529.627 -0.320303 1.59618 0
M  V30 5720 O 530.816 -0.112449 1.78145 0
M  V30 5721 C 527.916 -0.115333 3.38704 0
M  V30 5722 C 527.089 0.834493 4.29366 0
M  V30 5723 C 526.148 0.141855 5.26009 0
M  V30 5724 O 525.174 0.777151 5.6387 0
M  V30 5725 N 526.376 -1.11934 5.69606 0
M  V30 5726 H 529.141 1.50981 2.58892 0
M  V30 5727 H 526.702 0.938008 1.31958 0
M  V30 5728 H 528.694 -0.588918 4.00392 0
M  V30 5729 H 527.264 -0.908967 2.99093 0
M  V30 5730 H 526.484 1.48762 3.65053 0
M  V30 5731 H 527.772 1.4791 4.86827 0
M  V30 5732 H 527.17 -1.65574 5.40927 0
M  V30 5733 H 525.727 -1.53692 6.33421 0
M  V30 5734 N 529.16 -1.33526 0.837174 0
M  V30 5735 C 530.409 -1.97098 0.428387 0
M  V30 5736 C 530.722 -1.67062 -1.01734 0
M  V30 5737 O 531.928 -2.24235 -1.53072 0
M  V30 5738 C 530.384 -3.52725 0.715075 0
M  V30 5739 C 529.992 -3.9164 2.17537 0
M  V30 5740 C 531.736 -4.22857 0.373154 0
M  V30 5741 C 529.643 -5.40237 2.40619 0
M  V30 5742 H 528.573 -0.737589 0.156455 0
M  V30 5743 H 531.224 -1.52169 1.02552 0
M  V30 5744 H 529.606 -3.95971 0.0475904 0
M  V30 5745 H 530.78 -3.59456 2.88319 0
M  V30 5746 H 529.095 -3.34485 2.4801 0
M  V30 5747 H 531.692 -5.32133 0.523264 0
M  V30 5748 H 532.035 -4.10647 -0.683708 0
M  V30 5749 H 532.568 -3.85135 0.995801 0
M  V30 5750 H 529.307 -5.57449 3.44864 0
M  V30 5751 H 528.827 -5.73887 1.74396 0
M  V30 5752 H 530.506 -6.07102 2.23688 0
M  V30 5753 N 530.638 -0.59345 -1.46 0
M  V30 5754 C 531.887 -0.0808084 -2.01538 0
M  V30 5755 C 532.2 1.29112 -1.46934 0
M  V30 5756 O 533.406 1.8957 -1.94359 0
M  V30 5757 C 531.862 -0.0938311 -3.59778 0
M  V30 5758 C 531.47 -1.46474 -4.23379 0
M  V30 5759 C 533.214 0.364306 -4.22934 0
M  V30 5760 C 531.121 -1.4349 -5.73729 0
M  V30 5761 H 530.051 -0.0264407 -0.753536 0
M  V30 5762 H 532.702 -0.746689 -1.67621 0
M  V30 5763 H 531.084 0.638427 -3.9082 0
M  V30 5764 H 532.258 -2.21758 -4.03931 0
M  V30 5765 H 530.573 -1.86379 -3.7236 0
M  V30 5766 H 533.17 0.405584 -5.3316 0
M  V30 5767 H 533.513 1.38409 -3.92618 0
M  V30 5768 H 534.046 -0.31423 -3.96557 0
M  V30 5769 H 530.785 -2.43184 -6.08722 0
M  V30 5770 H 530.305 -0.724431 -5.95409 0
M  V30 5771 H 531.984 -1.15243 -6.36654 0
M  V30 5772 N 532.116 1.54067 -0.331816 0
M  V30 5773 C 533.346 2.04833 0.269605 0
M  V30 5774 C 533.754 1.20714 1.45687 0
M  V30 5775 O 533.097 0.232539 1.82222 0
M  V30 5776 C 533.159 3.51386 0.759499 0
M  V30 5777 C 532.823 4.55971 -0.306557 0
M  V30 5778 C 533.82 5.07126 -1.14538 0
M  V30 5779 C 531.505 5.00216 -0.457116 0
M  V30 5780 C 533.499 6.01096 -2.12042 0
M  V30 5781 C 531.186 5.93999 -1.43556 0
M  V30 5782 C 532.184 6.44326 -2.26568 0
M  V30 5783 O 531.872 7.36267 -3.22749 0
M  V30 5784 H 531.604 0.673509 0.0579763 0
M  V30 5785 H 534.158 1.99748 -0.478521 0
M  V30 5786 H 532.388 3.53896 1.55867 0
M  V30 5787 H 534.077 3.85184 1.28017 0
M  V30 5788 H 534.843 4.73716 -1.04009 0
M  V30 5789 H 530.722 4.60652 0.179142 0
M  V30 5790 H 534.266 6.40302 -2.76873 0
M  V30 5791 H 530.163 6.26825 -1.54146 0
M  V30 5792 H 530.931 7.54165 -3.18083 0
M  V30 5793 N 533.594 0.0601682 1.57485 0
M  V30 5794 C 534.842 -0.610386 1.92662 0
M  V30 5795 C 535.163 -1.70849 0.939981 0
M  V30 5796 O 534.433 -1.95895 -0.0137455 0
M  V30 5797 H 533.013 -0.228457 0.711208 0
M  V30 5798 H 535.675 0.115288 1.94559 0
M  V30 5799 H 534.771 -1.0432 2.94149 0
M  V30 5800 N 535.072 -1.5615 -0.213296 0
M  V30 5801 C 536.019 -1.93086 -1.26437 0
M  V30 5802 C 536.989 -0.789086 -1.4616 0
M  V30 5803 O 538.174 -1.04569 -1.59593 0
M  V30 5804 C 535.314 -2.26003 -2.608 0
M  V30 5805 C 534.427 -3.53156 -2.48807 0
M  V30 5806 C 533.562 -3.7548 -3.7575 0
M  V30 5807 C 532.601 -4.96119 -3.58514 0
M  V30 5808 N 531.738 -5.14791 -4.77425 0
M  V30 5809 H 536.578 -2.82707 -0.942376 0
M  V30 5810 H 534.115 -1.39919 -0.454001 0
M  V30 5811 H 536.073 -2.431 -3.39055 0
M  V30 5812 H 534.703 -1.39546 -2.91079 0
M  V30 5813 H 533.755 -3.44207 -1.61944 0
M  V30 5814 H 535.067 -4.41565 -2.31996 0
M  V30 5815 H 534.221 -3.92718 -4.62447 0
M  V30 5816 H 532.96 -2.85368 -3.95495 0
M  V30 5817 H 531.965 -4.78823 -2.70201 0
M  V30 5818 H 533.19 -5.87724 -3.40231 0
M  V30 5819 H 531.136 -4.27623 -4.97468 0
M  V30 5820 H 531.053 -5.97347 -4.63371 0
M  V30 5821 H 532.321 -5.36471 -5.65525 0
M  V30 5822 N 536.55 0.480323 -1.50102 0
M  V30 5823 C 537.799 1.22979 -1.59872 0
M  V30 5824 C 538.112 1.93282 -0.30022 0
M  V30 5825 O 539.318 2.70086 -0.276709 0
M  V30 5826 C 537.774 2.23408 -2.82164 0
M  V30 5827 C 537.382 1.5895 -4.18854 0
M  V30 5828 C 539.126 2.99055 -3.01275 0
M  V30 5829 C 537.033 2.57611 -5.32344 0
M  V30 5830 H 535.963 0.462707 -0.59533 0
M  V30 5831 H 538.614 0.501291 -1.7652 0
M  V30 5832 H 536.996 2.99511 -2.59055 0
M  V30 5833 H 538.17 0.887 -4.52182 0
M  V30 5834 H 536.485 0.956191 -4.05273 0
M  V30 5835 H 539.082 3.72876 -3.83233 0
M  V30 5836 H 539.425 3.57897 -2.12639 0
M  V30 5837 H 539.958 2.30066 -3.24522 0
M  V30 5838 H 536.697 2.03521 -6.23105 0
M  V30 5839 H 536.217 3.26041 -5.03445 0
M  V30 5840 H 537.896 3.19627 -5.62537 0
M  V30 5841 N 538.028 1.39524 0.732853 0
M  V30 5842 C 539.439 1.32905 1.31122 0
M  V30 5843 C 539.79 -0.00558708 1.96199 0
M  V30 5844 O 538.915 -0.907706 1.96443 0
M  V30 5845 C 539.51 2.40704 2.38426 0
M  V30 5846 C 538.069 2.37599 2.91931 0
M  V30 5847 C 537.216 2.2248 1.65523 0
M  V30 5848 H 540.167 1.49581 0.530207 0
M  V30 5849 H 540.188 2.07616 3.18867 0
M  V30 5850 H 539.7 3.37829 1.91033 0
M  V30 5851 H 537.801 1.44119 3.43599 0
M  V30 5852 H 537.914 3.32538 3.44899 0
M  V30 5853 H 536.278 1.69691 1.8994 0
M  V30 5854 H 537.061 3.21577 1.20178 0
M  V30 5855 N 539.506 -0.963266 1.24736 0
M  V30 5856 C 540.469 -2.04013 1.04457 0
M  V30 5857 C 541.469 -1.608 0.000335555 0
M  V30 5858 O 542.659 -1.72515 0.241719 0
M  V30 5859 C 539.791 -3.35858 0.584162 0
M  V30 5860 H 540.984 -2.23436 2.00041 0
M  V30 5861 H 538.537 -1.13914 1.07021 0
M  V30 5862 H 539.272 -3.22128 -0.374673 0
M  V30 5863 H 539.057 -3.68568 1.3379 0
M  V30 5864 H 540.547 -4.1502 0.463451 0
M  V30 5865 N 540.985 -1.06182 -1.16461 0
M  V30 5866 C 541.918 -0.615859 -2.19733 0
M  V30 5867 C 542.896 0.360766 -1.58547 0
M  V30 5868 O 544.08 0.270009 -1.86556 0
M  V30 5869 C 541.207 0.097312 -3.3856 0
M  V30 5870 C 540.253 -0.835889 -4.18229 0
M  V30 5871 S 541.086 -2.33052 -4.82128 0
M  V30 5872 C 542.242 -1.62881 -6.04335 0
M  V30 5873 H 542.475 -1.49079 -2.57221 0
M  V30 5874 H 540.008 -0.874692 -1.27234 0
M  V30 5875 H 541.966 0.502563 -4.07412 0
M  V30 5876 H 540.627 0.948418 -2.99439 0
M  V30 5877 H 539.82 -0.283426 -5.03202 0
M  V30 5878 H 539.422 -1.18097 -3.54865 0
M  V30 5879 H 541.714 -0.933764 -6.71034 0
M  V30 5880 H 542.657 -2.45641 -6.64128 0
M  V30 5881 H 543.065 -1.11189 -5.53441 0
M  V30 5882 N 542.463 1.3308 -0.844243 0
M  V30 5883 C 543.709 1.97898 -0.443206 0
M  V30 5884 C 544.042 1.66699 0.99625 0
M  V30 5885 O 543.317 0.949704 1.69738 0
M  V30 5886 C 543.6 3.53801 -0.670606 0
M  V30 5887 C 543.453 3.94667 -2.15772 0
M  V30 5888 C 544.772 4.39936 -0.120226 0
M  V30 5889 H 541.891 0.718861 -0.162504 0
M  V30 5890 H 544.533 1.57633 -1.06075 0
M  V30 5891 H 542.683 3.88229 -0.14496 0
M  V30 5892 H 544.355 3.70469 -2.74865 0
M  V30 5893 H 542.598 3.44203 -2.6402 0
M  V30 5894 H 543.269 5.03275 -2.26757 0
M  V30 5895 H 545.745 4.12183 -0.5696 0
M  V30 5896 H 544.621 5.4803 -0.308984 0
M  V30 5897 H 544.882 4.31184 0.976347 0
M  V30 5898 N 543.941 0.601185 1.45683 0
M  V30 5899 C 545.187 0.0940202 2.02582 0
M  V30 5900 C 545.52 -1.26972 1.46941 0
M  V30 5901 O 544.795 -1.83613 0.641612 0
M  V30 5902 C 545.078 0.0481715 3.60068 0
M  V30 5903 C 544.931 1.44212 4.26055 0
M  V30 5904 C 546.25 -0.642975 4.35378 0
M  V30 5905 H 543.369 0.0356404 0.736138 0
M  V30 5906 H 546.011 0.771929 1.73612 0
M  V30 5907 H 544.161 -0.529128 3.8488 0
M  V30 5908 H 545.833 2.06601 4.12449 0
M  V30 5909 H 544.076 2.00465 3.84703 0
M  V30 5910 H 544.747 1.36234 5.34925 0
M  V30 5911 H 547.223 -0.152351 4.15821 0
M  V30 5912 H 546.099 -0.644141 5.45107 0
M  V30 5913 H 546.36 -1.70785 4.0778 0
M  V30 5914 N 545.419 -1.53889 0.339982 0
M  V30 5915 C 546.696 -1.93084 -0.312719 0
M  V30 5916 C 547.076 -1.2712 -1.68534 0
M  V30 5917 O 546.424 -0.420835 -2.24591 0
M  V30 5918 C 546.634 -3.4683 -0.388558 0
M  V30 5919 C 547.982 -4.19732 -0.641088 0
M  V30 5920 O 549.006 -3.53075 -0.470818 0
M  V30 5921 O 547.865 -5.3781 -0.970685 0
M  V30 5922 H 544.959 -0.806784 -0.18174 0
M  V30 5923 H 547.505 -1.65137 0.390898 0
M  V30 5924 H 546.277 -3.87055 0.574821 0
M  V30 5925 H 545.9 -3.80933 -1.1391 0
M  V30 5926 N 546.897 -0.0685191 -1.57451 0
M  V30 5927 C 548.313 0.288101 -1.56978 0
M  V30 5928 C 548.513 1.70262 -1.07765 0
M  V30 5929 O 547.569 2.4135 -0.742054 0
M  V30 5930 C 548.882 0.100745 -3.00531 0
M  V30 5931 C 550.43 0.170531 -3.12535 0
M  V30 5932 C 550.905 0.0114944 -4.57999 0
M  V30 5933 N 552.396 0.0672065 -4.63151 0
M  V30 5934 C 553.131 -0.0314813 -5.73391 0
M  V30 5935 N 552.627 -0.183503 -6.92557 0
M  V30 5936 N 554.42 0.0253489 -5.62094 0
M  V30 5937 H 546.571 -0.993026 -1.87757 0
M  V30 5938 H 548.834 -0.386981 -0.865419 0
M  V30 5939 H 548.54 -0.875197 -3.40636 0
M  V30 5940 H 548.414 0.854457 -3.67395 0
M  V30 5941 H 550.801 1.13696 -2.72318 0
M  V30 5942 H 550.882 -0.614229 -2.48316 0
M  V30 5943 H 550.526 -0.951684 -4.98904 0
M  V30 5944 H 550.456 0.815617 -5.20245 0
M  V30 5945 H 552.947 0.183246 -3.77455 0
M  V30 5946 H 553.26 -0.251041 -7.72392 0
M  V30 5947 H 551.605 -0.218822 -6.94655 0
M  V30 5948 H 554.796 0.142794 -4.67882 0
M  V30 5949 H 554.969 -0.0550166 -6.47977 0
M  V30 5950 N 548.375 1.56261 0.205012 0
M  V30 5951 C 549.615 1.81823 0.933806 0
M  V30 5952 C 549.979 0.644534 1.80858 0
M  V30 5953 O 551.18 0.779819 2.5724 0
M  V30 5954 C 549.451 3.12362 1.7368 0
M  V30 5955 S 551.01 3.59296 2.51897 0
M  V30 5956 H 547.828 0.638209 0.313386 0
M  V30 5957 H 550.43 1.94495 0.198001 0
M  V30 5958 H 549.134 3.95809 1.08459 0
M  V30 5959 H 548.665 3.02542 2.5146 0
M  V30 5960 H 550.68 3.23945 3.75864 0
M  V30 5961 N 549.853 -0.472356 1.50355 0
M  V30 5962 C 551.101 -1.22211 1.60962 0
M  V30 5963 C 551.422 -1.92497 0.311439 0
M  V30 5964 O 550.692 -1.8405 -0.671002 0
M  V30 5965 H 549.272 -0.454092 0.593135 0
M  V30 5966 H 551.934 -0.544977 1.87126 0
M  V30 5967 H 551.03 -1.9707 2.42012 0
M  V30 5968 N 551.331 -1.39911 -0.725443 0
M  V30 5969 C 552.571 -1.39096 -1.49772 0
M  V30 5970 C 552.935 0.0106452 -1.91997 0
M  V30 5971 O 554.136 0.143859 -2.68415 0
M  V30 5972 C 552.407 -2.34441 -2.69764 0
M  V30 5973 S 553.966 -2.51898 -3.59295 0
M  V30 5974 H 550.784 -0.49314 -0.512186 0
M  V30 5975 H 553.386 -1.76093 -0.849197 0
M  V30 5976 H 552.09 -3.35123 -2.36898 0
M  V30 5977 H 551.621 -1.98692 -3.39537 0
M  V30 5978 H 553.636 -1.76402 -4.63785 0
M  V30 5979 N 552.809 0.956637 -1.25245 0
M  V30 5980 C 554.034 1.74104 -1.12706 0
M  V30 5981 C 554.459 1.85436 0.315429 0
M  V30 5982 O 553.817 1.33334 1.22848 0
M  V30 5983 C 553.865 3.1338 -1.78396 0
M  V30 5984 O 552.969 3.98485 -1.06224 0
M  V30 5985 H 552.31 0.53476 -0.393609 0
M  V30 5986 H 554.84 1.19924 -1.65769 0
M  V30 5987 H 554.85 3.6385 -1.846 0
M  V30 5988 H 553.525 3.04448 -2.83345 0
M  V30 5989 H 552.102 3.56952 -1.07886 0
M  V30 5990 O 554.326 1.1921 1.08956 0
M  V30 5991 H 555.017 0.939352 1.69399 0
M  V30 END ATOM
M  V30 BEGIN BOND
M  V30 END BOND
M  V30 END CTAB
M  END
$$$$
