drugbank_target|O14841 5-oxoprolinase (DB00142)
 OpenBabel12092120083D

  0  0  0     0  0            999 V3000
M  V30 BEGIN CTAB
M  V30 COUNTS 19207 19419 0 0 0
M  V30 BEGIN ATOM
M  V30 1 H -0.908 1.98254 -0.117106 0
M  V30 2 N 0 1.576 0 0
M  V30 3 C 0.933 2.03868 1.02534 0
M  V30 4 C 1.911 0.928543 1.3348 0
M  V30 5 O 3.095 1.19667 1.45644 0
M  V30 6 C 0.222 2.43627 2.35294 0
M  V30 7 C -0.732 3.65373 2.2001 0
M  V30 8 S 0.101 5.13292 1.52614 0
M  V30 9 C 1.257 5.56322 2.86805 0
M  V30 10 H 1.49 2.90518 0.631377 0
M  V30 11 H -0.977 1.52953 0.210867 0
M  V30 12 H 0.981 2.67203 3.11629 0
M  V30 13 H -0.358 1.57376 2.7183 0
M  V30 14 H -1.165 3.90944 3.18086 0
M  V30 15 H -1.563 3.418 1.51819 0
M  V30 16 H 0.729 5.58782 3.83104 0
M  V30 17 H 1.672 6.56266 2.65933 0
M  V30 18 H 2.08 4.83886 2.90714 0
M  V30 19 N 1.4781 -0.272755 1.55222 0
M  V30 20 C 2.7261 -1.00234 1.75492 0
M  V30 21 C 3.0471 -1.8681 0.5592 0
M  V30 22 O 2.3171 -1.91215 -0.425882 0
M  V30 23 H 0.8971 -0.373076 0.647166 0
M  V30 24 H 3.5591 -0.296926 1.92625 0
M  V30 25 H 2.6551 -1.63913 2.65592 0
M  V30 26 N 2.9562 -1.48159 -0.537278 0
M  V30 27 C 4.1812 -1.59707 -1.32319 0
M  V30 28 C 4.6062 -0.254859 -1.86365 0
M  V30 29 O 3.9642 0.772378 -1.64024 0
M  V30 30 C 4.0122 -2.6412 -2.45505 0
M  V30 31 O 3.1162 -2.20774 -3.48328 0
M  V30 32 H 2.4572 -0.535791 -0.392204 0
M  V30 33 H 4.9872 -1.94092 -0.647268 0
M  V30 34 H 4.9972 -2.85166 -2.91795 0
M  V30 35 H 3.6722 -3.61567 -2.05528 0
M  V30 36 H 2.2492 -2.09911 -3.08207 0
M  V30 37 N 4.4343 0.785586 -1.36625 0
M  V30 38 C 5.8453 1.36101 -1.27803 0
M  V30 39 C 6.1963 1.96035 0.0804875 0
M  V30 40 O 5.3213 1.92834 0.982042 0
M  V30 41 C 5.9163 2.47442 -2.31426 0
M  V30 42 C 4.4753 3.00789 -2.26281 0
M  V30 43 C 3.6223 1.73896 -2.15999 0
M  V30 44 H 6.5733 0.586928 -1.47448 0
M  V30 45 H 6.5943 3.2656 -1.95291 0
M  V30 46 H 6.1063 2.03791 -3.30289 0
M  V30 47 H 4.2073 3.48851 -1.30896 0
M  V30 48 H 4.3203 3.57343 -3.19128 0
M  V30 49 H 2.6843 1.9628 -1.62316 0
M  V30 50 H 3.4673 1.32368 -3.16755 0
M  V30 51 N 5.9124 1.20967 1.01018 0
M  V30 52 C 6.8224 0.980157 2.13143 0
M  V30 53 C 7.8384 -0.0660665 1.73875 0
M  V30 54 O 9.0144 0.122821 2.01025 0
M  V30 55 C 6.0794 0.54216 3.42435 0
M  V30 56 C 5.1404 1.65999 3.95908 0
M  V30 57 C 4.3734 1.2428 5.19028 0
M  V30 58 O 4.5964 0.114196 5.70286 0
M  V30 59 O 3.5304 2.05271 5.65816 0
M  V30 60 H 7.3564 1.91913 2.35379 0
M  V30 61 H 4.9414 0.994099 1.11526 0
M  V30 62 H 6.8234 0.30744 4.20277 0
M  V30 63 H 5.4984 -0.36815 3.216 0
M  V30 64 H 4.4054 1.94906 3.19316 0
M  V30 65 H 5.7384 2.54753 4.21143 0
M  V30 66 N 7.3905 -1.2043 1.01659 0
M  V30 67 C 8.6385 -1.89423 0.704522 0
M  V30 68 C 8.9595 -1.79231 -0.768197 0
M  V30 69 O 8.2295 -1.1947 -1.55254 0
M  V30 70 H 6.8095 -0.701178 0.257602 0
M  V30 71 H 9.4715 -1.4626 1.28818 0
M  V30 72 H 8.5675 -2.96052 0.987916 0
M  V30 73 N 8.8686 -0.792821 -1.36206 0
M  V30 74 C 10.2846 -0.474903 -1.52371 0
M  V30 75 C 10.4846 1.00622 -1.74578 0
M  V30 76 O 9.5406 1.79162 -1.77924 0
M  V30 77 C 10.8536 -1.3083 -2.70747 0
M  V30 78 C 12.4016 -1.30234 -2.84619 0
M  V30 79 C 12.8766 -2.11956 -4.06004 0
M  V30 80 N 14.3676 -2.09419 -4.13156 0
M  V30 81 C 15.1026 -2.69419 -5.06163 0
M  V30 82 N 14.5986 -3.3829 -6.04592 0
M  V30 83 N 16.3916 -2.59134 -4.98804 0
M  V30 84 H 8.5426 -1.75222 -1.20046 0
M  V30 85 H 10.8056 -0.745024 -0.586211 0
M  V30 86 H 10.5116 -2.35881 -2.6087 0
M  V30 87 H 10.3856 -0.95196 -3.6499 0
M  V30 88 H 12.7726 -0.259748 -2.93955 0
M  V30 89 H 12.8536 -1.69847 -1.91274 0
M  V30 90 H 12.4976 -3.16248 -3.97429 0
M  V30 91 H 12.4276 -1.69711 -4.98503 0
M  V30 92 H 14.9186 -1.59297 -3.42685 0
M  V30 93 H 15.2316 -3.81394 -6.7213 0
M  V30 94 H 13.5766 -3.42393 -6.04807 0
M  V30 95 H 16.7676 -2.04927 -4.20859 0
M  V30 96 H 16.9406 -3.06185 -5.711 0
M  V30 97 N 10.3467 1.47872 -0.545128 0
M  V30 98 C 11.5937 2.02493 -0.0165858 0
M  V30 99 C 11.9217 1.42073 1.32836 0
M  V30 100 O 11.1767 0.561459 1.87473 0
M  V30 101 C 11.4757 3.57131 0.13867 0
M  V30 102 C 11.1417 4.36411 -1.13384 0
M  V30 103 C 9.8037 4.57792 -1.48256 0
M  V30 104 C 12.1557 4.82223 -1.97764 0
M  V30 105 C 9.4837 5.22233 -2.67376 0
M  V30 106 C 11.8357 5.47977 -3.16076 0
M  V30 107 C 10.4997 5.67593 -3.51275 0
M  V30 108 H 9.7697 0.740975 -0.00606918 0
M  V30 109 H 12.4167 1.77683 -0.714207 0
M  V30 110 H 10.7217 3.80865 0.919172 0
M  V30 111 H 12.4187 3.97031 0.562782 0
M  V30 112 H 9.0087 4.2004 -0.852297 0
M  V30 113 H 13.1927 4.65493 -1.72132 0
M  V30 114 H 8.4487 5.35616 -2.94831 0
M  V30 115 H 12.6227 5.8244 -3.81755 0
M  V30 116 H 10.2497 6.17298 -4.43675 0
M  V30 117 N 11.8248 0.280983 1.55075 0
M  V30 118 C 12.7748 -0.618585 2.19448 0
M  V30 119 C 13.7588 -1.11401 1.16098 0
M  V30 120 O 14.9508 -1.0581 1.41891 0
M  V30 121 C 12.0798 -1.79951 2.92357 0
M  V30 122 C 11.1658 -1.321 4.03002 0
M  V30 123 N 11.5568 -0.559044 5.02701 0
M  V30 124 C 9.8548 -1.60346 4.16179 0
M  V30 125 C 10.5558 -0.306722 5.80891 0
M  V30 126 N 9.5318 -0.880825 5.36416 0
M  V30 127 H 13.3338 -0.0286638 2.93886 0
M  V30 128 H 10.8478 0.0848104 1.62178 0
M  V30 129 H 12.8448 -2.45531 3.36927 0
M  V30 130 H 11.5048 -2.39333 2.19431 0
M  V30 131 H 12.5158 -0.205827 5.17491 0
M  V30 132 H 9.1928 -2.20621 3.54447 0
M  V30 133 H 10.5828 0.30391 6.71212 0
M  V30 134 N 13.3029 -1.57598 0.00835791 0
M  V30 135 C 14.5499 -1.90928 -0.674732 0
M  V30 136 C 14.8779 -0.88277 -1.73313 0
M  V30 137 O 14.1329 0.111294 -1.95383 0
M  V30 138 C 14.4319 -3.3101 -1.34787 0
M  V30 139 C 14.0979 -4.48922 -0.421861 0
M  V30 140 C 12.7599 -4.8091 -0.166927 0
M  V30 141 C 15.1119 -5.20755 0.215211 0
M  V30 142 C 12.4399 -5.821 0.733232 0
M  V30 143 C 14.7919 -6.22905 1.1033 0
M  V30 144 C 13.4559 -6.53346 1.36733 0
M  V30 145 H 12.7259 -0.698656 -0.246902 0
M  V30 146 H 15.3729 -1.91387 0.0656779 0
M  V30 147 H 13.6779 -3.26714 -2.16253 0
M  V30 148 H 15.3749 -3.54061 -1.8826 0
M  V30 149 H 11.9649 -4.23934 -0.630729 0
M  V30 150 H 16.1489 -4.9629 0.0312829 0
M  V30 151 H 11.4049 -6.04042 0.945712 0
M  V30 152 H 15.5789 -6.77694 1.60325 0
M  V30 153 H 13.2059 -7.31573 2.06652 0
M  V30 154 N 14.781 0.264519 -1.55364 0
M  V30 155 C 15.744 1.31046 -1.88042 0
M  V30 156 C 16.744 1.41943 -0.755569 0
M  V30 157 O 17.934 1.40947 -1.02369 0
M  V30 158 C 15.066 2.69067 -2.09323 0
M  V30 159 H 16.259 1.03297 -2.81549 0
M  V30 160 H 13.812 0.502989 -1.47986 0
M  V30 161 H 14.547 3.01982 -1.18226 0
M  V30 162 H 14.332 2.62542 -2.91229 0
M  V30 163 H 15.822 3.44623 -2.35848 0
M  V30 164 N 16.2591 1.48442 0.529413 0
M  V30 165 C 17.5081 1.55742 1.28169 0
M  V30 166 C 17.8211 0.236511 1.94165 0
M  V30 167 O 19.0271 0.187761 2.7085 0
M  V30 168 C 17.4831 2.74667 2.32564 0
M  V30 169 C 17.0911 4.13402 1.72636 0
M  V30 170 C 18.8351 2.9128 3.08798 0
M  V30 171 C 16.7421 5.23587 2.74975 0
M  V30 172 H 15.6721 0.579796 0.48203 0
M  V30 173 H 18.3231 1.74776 0.559056 0
M  V30 174 H 16.7051 2.49067 3.07866 0
M  V30 175 H 17.8791 4.49022 1.03519 0
M  V30 176 H 16.1941 4.0191 1.08892 0
M  V30 177 H 18.7911 3.70767 3.85274 0
M  V30 178 H 19.1341 2.00757 3.64695 0
M  V30 179 H 19.6671 3.16782 2.40611 0
M  V30 180 H 16.4061 6.16076 2.23897 0
M  V30 181 H 15.9261 4.92454 3.42417 0
M  V30 182 H 17.6051 5.51724 3.37949 0
M  V30 183 N 17.7372 -0.778329 1.37039 0
M  V30 184 C 19.0142 -1.52551 1.22424 0
M  V30 185 C 19.3942 -2.10288 -0.184964 0
M  V30 186 O 18.7422 -1.94953 -1.19187 0
M  V30 187 C 18.9522 -2.61164 2.31504 0
M  V30 188 C 20.3002 -3.28746 2.68721 0
M  V30 189 O 21.3242 -2.71455 2.30631 0
M  V30 190 O 20.1832 -4.3231 3.3432 0
M  V30 191 H 17.2772 -0.675343 0.477326 0
M  V30 192 H 19.8232 -0.815859 1.48801 0
M  V30 193 H 18.5952 -2.16574 3.25901 0
M  V30 194 H 18.2182 -3.39737 2.06554 0
M  V30 195 N 19.2153 -1.21501 -1.00376 0
M  V30 196 C 20.6313 -0.972629 -1.26539 0
M  V30 197 C 20.8313 0.340257 -1.98606 0
M  V30 198 O 19.8873 1.06561 -2.28913 0
M  V30 199 C 21.2003 -2.16404 -2.08781 0
M  V30 200 C 22.7483 -2.20643 -2.22004 0
M  V30 201 C 23.2233 -3.39306 -3.07629 0
M  V30 202 N 24.7143 -3.39401 -3.15217 0
M  V30 203 C 25.4493 -4.27867 -3.81729 0
M  V30 204 N 24.9453 -5.26533 -4.5026 0
M  V30 205 N 26.7383 -4.15672 -3.78382 0
M  V30 206 H 18.8893 -2.05929 -0.520281 0
M  V30 207 H 21.1523 -0.901803 -0.292328 0
M  V30 208 H 20.8583 -3.11554 -1.63178 0
M  V30 209 H 20.7323 -2.15567 -3.09533 0
M  V30 210 H 23.1193 -1.26048 -2.66825 0
M  V30 211 H 23.2003 -2.25523 -1.20718 0
M  V30 212 H 22.8443 -4.34195 -2.63509 0
M  V30 213 H 22.7743 -3.31665 -4.09031 0
M  V30 214 H 25.2653 -2.67997 -2.66432 0
M  V30 215 H 25.5783 -5.90337 -4.98721 0
M  V30 216 H 23.9233 -5.30457 -4.49044 0
M  V30 217 H 27.1143 -3.3785 -3.23998 0
M  V30 218 H 27.2873 -4.84825 -4.2994 0
M  V30 219 N 20.6934 1.19889 -1.02296 0
M  V30 220 C 21.9414 1.89046 -0.714558 0
M  V30 221 C 22.2624 1.79636 0.758681 0
M  V30 222 O 21.5324 1.20292 1.54618 0
M  V30 223 H 20.1124 0.699802 -0.261317 0
M  V30 224 H 22.7744 1.45574 -1.29592 0
M  V30 225 H 21.8704 2.95524 -1.0036 0
M  V30 226 N 22.1715 0.800033 1.35784 0
M  V30 227 C 23.4195 0.376597 1.9856 0
M  V30 228 C 23.7405 -1.05812 1.63795 0
M  V30 229 O 23.0105 -1.73103 0.917171 0
M  V30 230 H 21.5905 0.136261 0.734467 0
M  V30 231 H 24.2525 1.02442 1.65806 0
M  V30 232 H 23.3485 0.477002 3.08433 0
M  V30 233 N 23.6496 -1.47581 0.552962 0
M  V30 234 C 24.8776 -2.06875 0.0320556 0
M  V30 235 C 25.2926 -1.40625 -1.25976 0
M  V30 236 O 24.6496 -0.501349 -1.75479 0
M  V30 237 C 24.7006 -3.61092 -0.17167 0
M  V30 238 O 24.4216 -4.24858 1.06899 0
M  V30 239 C 25.9226 -4.37242 -0.730344 0
M  V30 240 H 23.1426 -0.669561 0.043915 0
M  V30 241 H 25.6866 -1.89646 0.765163 0
M  V30 242 H 23.8416 -3.7785 -0.854894 0
M  V30 243 H 24.2556 -5.17334 0.864059 0
M  V30 244 H 25.7296 -5.45842 -0.822203 0
M  V30 245 H 26.2066 -4.03235 -1.74064 0
M  V30 246 H 26.8126 -4.25219 -0.0829543 0
M  V30 247 N 25.1277 -0.289203 -1.54924 0
M  V30 248 C 26.3747 0.323519 -1.99899 0
M  V30 249 C 26.7027 1.54797 -1.17762 0
M  V30 250 O 25.9577 1.94237 -0.238835 0
M  V30 251 C 26.2567 0.736119 -3.49737 0
M  V30 252 C 25.9227 -0.385276 -4.49251 0
M  V30 253 C 24.5847 -0.693156 -4.76181 0
M  V30 254 C 26.9367 -1.14021 -5.08575 0
M  V30 255 C 24.2647 -1.7593 -5.59701 0
M  V30 256 C 26.6167 -2.19619 -5.93254 0
M  V30 257 C 25.2807 -2.51026 -6.185 0
M  V30 258 H 24.5507 0.118384 -0.731482 0
M  V30 259 H 27.1977 -0.405847 -1.8715 0
M  V30 260 H 25.5027 1.54539 -3.60035 0
M  V30 261 H 27.1997 1.22118 -3.81953 0
M  V30 262 H 23.7897 -0.135202 -4.28387 0
M  V30 263 H 27.9737 -0.915611 -4.87781 0
M  V30 264 H 23.2297 -2.0075 -5.77503 0
M  V30 265 H 27.4037 -2.78581 -6.38252 0
M  V30 266 H 25.0307 -3.33772 -6.83008 0
M  V30 267 N 26.6058 1.57591 -0.0167156 0
M  V30 268 C 27.8338 1.95575 0.675128 0
M  V30 269 C 28.2488 0.892542 1.6637 0
M  V30 270 O 27.6058 -0.126912 1.82058 0
M  V30 271 C 27.6568 3.33608 1.39239 0
M  V30 272 O 27.3778 4.3585 0.443444 0
M  V30 273 C 28.8788 3.86151 2.17721 0
M  V30 274 H 26.0988 0.644423 0.186978 0
M  V30 275 H 28.6428 2.0437 -0.0728 0
M  V30 276 H 26.7978 3.2607 2.09182 0
M  V30 277 H 27.2118 5.158 0.951358 0
M  V30 278 H 28.6858 4.85114 2.63379 0
M  V30 279 H 29.1628 3.19738 3.01105 0
M  V30 280 H 29.7688 3.96918 1.52761 0
M  V30 281 N 28.0839 -0.256276 1.55502 0
M  V30 282 C 29.3609 -1.00789 1.67633 0
M  V30 283 C 29.7409 -2.03706 0.553826 0
M  V30 284 O 29.0889 -2.24145 -0.443969 0
M  V30 285 C 29.2989 -1.64968 3.07549 0
M  V30 286 C 30.6469 -2.15505 3.65845 0
M  V30 287 O 31.6709 -1.74925 3.1029 0
M  V30 288 O 30.5299 -2.89986 4.63217 0
M  V30 289 H 27.6239 -0.468553 0.681459 0
M  V30 290 H 30.1699 -0.250806 1.67836 0
M  V30 291 H 28.9419 -0.904785 3.80696 0
M  V30 292 H 28.5649 -2.47321 3.11317 0
M  V30 293 N 29.562 -1.4872 -0.521534 0
M  V30 294 C 30.808 -1.574 -1.27879 0
M  V30 295 C 31.141 -0.250817 -1.92573 0
M  V30 296 O 30.416 0.743934 -1.79711 0
M  V30 297 C 30.699 -2.71843 -2.36164 0
M  V30 298 C 30.552 -4.13893 -1.76105 0
M  V30 299 C 31.871 -2.82008 -3.37875 0
M  V30 300 H 28.99 -0.572941 -0.463581 0
M  V30 301 H 31.632 -1.80927 -0.580119 0
M  V30 302 H 29.782 -2.51914 -2.95756 0
M  V30 303 H 31.454 -4.45284 -1.20499 0
M  V30 304 H 29.697 -4.20498 -1.06601 0
M  V30 305 H 30.368 -4.89804 -2.5455 0
M  V30 306 H 32.844 -3.00086 -2.88249 0
M  V30 307 H 31.72 -3.63796 -4.11028 0
M  V30 308 H 31.981 -1.90511 -3.98946 0
M  V30 309 N 31.0401 0.771051 -1.3745 0
M  V30 310 C 32.2871 1.52963 -1.32697 0
M  V30 311 C 32.6151 1.94299 0.0883274 0
M  V30 312 O 31.8701 1.64397 1.0617 0
M  V30 313 C 32.1691 2.80676 -2.2126 0
M  V30 314 C 31.8351 2.58389 -3.69521 0
M  V30 315 C 30.4971 2.52019 -4.09927 0
M  V30 316 C 32.8491 2.38469 -4.63446 0
M  V30 317 C 30.1771 2.23721 -5.42371 0
M  V30 318 C 32.5291 2.11694 -5.96128 0
M  V30 319 C 31.1931 2.03769 -6.35637 0
M  V30 320 H 30.4631 0.559732 -0.485573 0
M  V30 321 H 33.1101 0.888083 -1.69662 0
M  V30 322 H 31.4151 3.49392 -1.77291 0
M  V30 323 H 33.1121 3.38557 -2.14895 0
M  V30 324 H 29.7021 2.6421 -3.37478 0
M  V30 325 H 33.8861 2.4238 -4.33089 0
M  V30 326 H 29.1421 2.16081 -5.71943 0
M  V30 327 H 33.3161 1.9528 -6.6846 0
M  V30 328 H 30.9431 1.81606 -7.38189 0
M  V30 329 N 32.5182 1.22032 0.997298 0
M  V30 330 C 33.4812 0.987909 2.06816 0
M  V30 331 C 34.4812 -0.0440084 1.6074 0
M  V30 332 O 35.6712 0.194053 1.73116 0
M  V30 333 C 32.8032 0.49132 3.37341 0
M  V30 334 H 33.9962 1.93803 2.28868 0
M  V30 335 H 31.5492 1.03838 1.16822 0
M  V30 336 H 32.2842 -0.463364 3.20973 0
M  V30 337 H 32.0692 1.23575 3.72118 0
M  V30 338 H 33.5592 0.348824 4.16141 0
M  V30 339 N 33.9963 -1.19345 1.0293 0
M  V30 340 C 34.9283 -2.22036 0.56857 0
M  V30 341 C 35.9413 -1.58865 -0.355779 0
M  V30 342 O 37.1303 -1.77851 -0.152103 0
M  V30 343 C 34.2303 -3.38363 -0.190752 0
M  V30 344 C 33.4033 -4.31118 0.738643 0
M  V30 345 C 32.4623 -5.26194 0.0246497 0
M  V30 346 O 31.4883 -5.65461 0.651354 0
M  V30 347 N 32.6903 -5.66971 -1.24594 0
M  V30 348 H 35.4553 -2.6219 1.45177 0
M  V30 349 H 33.0163 -1.34015 0.908381 0
M  V30 350 H 35.0083 -3.98981 -0.677961 0
M  V30 351 H 33.5783 -2.96994 -0.975366 0
M  V30 352 H 32.7983 -3.68276 1.40593 0
M  V30 353 H 34.0863 -4.90001 1.37029 0
M  V30 354 H 33.4843 -5.37104 -1.77583 0
M  V30 355 H 32.0413 -6.2984 -1.67764 0
M  V30 356 N 35.4744 -0.807222 -1.35358 0
M  V30 357 C 36.7144 -0.393534 -2.00576 0
M  V30 358 C 37.0784 1.0203 -1.62647 0
M  V30 359 O 38.2794 1.53603 -2.20589 0
M  V30 360 C 36.5504 -0.572017 -3.52793 0
M  V30 361 S 38.1094 -0.248845 -4.38094 0
M  V30 362 H 34.9274 -0.149425 -0.695121 0
M  V30 363 H 37.5294 -1.04961 -1.64935 0
M  V30 364 H 36.2334 -1.60097 -3.77885 0
M  V30 365 H 35.7644 0.099359 -3.93275 0
M  V30 366 H 37.7794 0.943253 -4.87152 0
M  V30 367 N 36.9525 1.47285 -0.560781 0
M  V30 368 C 38.3635 1.86258 -0.128343 0
M  V30 369 C 38.7145 1.46699 1.30284 0
M  V30 370 O 37.8395 0.871698 1.98067 0
M  V30 371 C 38.4345 3.38044 -0.22614 0
M  V30 372 C 36.9935 3.76096 0.151283 0
M  V30 373 C 36.1405 2.71335 -0.572084 0
M  V30 374 H 39.0915 1.38752 -0.770297 0
M  V30 375 H 39.1125 3.76441 0.554322 0
M  V30 376 H 38.6245 3.66806 -1.26788 0
M  V30 377 H 36.7255 3.52951 1.19399 0
M  V30 378 H 36.8385 4.78641 -0.209765 0
M  V30 379 H 35.2025 2.54696 -0.0147653 0
M  V30 380 H 35.9855 3.02938 -1.61504 0
M  V30 381 N 38.4306 0.297415 1.54768 0
M  V30 382 C 39.6786 -0.312295 1.99673 0
M  V30 383 C 39.9996 -1.54686 1.18732 0
M  V30 384 O 39.2696 -1.93854 0.282382 0
M  V30 385 H 37.8496 -0.118381 0.73756 0
M  V30 386 H 40.5116 0.407915 1.90583 0
M  V30 387 H 39.6076 -0.586813 3.06534 0
M  V30 388 N 39.9087 -1.5758 0.0250728 0
M  V30 389 C 41.1567 -1.91255 -0.653151 0
M  V30 390 C 41.4777 -0.901691 -1.729 0
M  V30 391 O 40.7477 0.0573785 -1.95816 0
M  V30 392 H 39.3277 -0.705942 -0.244243 0
M  V30 393 H 41.9897 -1.94767 0.0719209 0
M  V30 394 H 41.0857 -2.91752 -1.10847 0
M  V30 395 N 41.3868 0.248026 -1.55636 0
M  V30 396 C 42.3368 1.30994 -1.86614 0
M  V30 397 C 43.3208 1.43543 -0.726918 0
M  V30 398 O 44.5128 1.46804 -0.988818 0
M  V30 399 C 41.6418 2.6656 -2.16335 0
M  V30 400 C 40.7278 2.58019 -3.36581 0
M  V30 401 N 41.1188 2.1911 -4.55878 0
M  V30 402 C 39.4168 2.89035 -3.39669 0
M  V30 403 C 40.1178 2.21174 -5.38012 0
M  V30 404 N 39.0938 2.60632 -4.77045 0
M  V30 405 H 42.8958 0.999583 -2.76379 0
M  V30 406 H 40.4098 0.456652 -1.55848 0
M  V30 407 H 42.4068 3.43194 -2.36692 0
M  V30 408 H 41.0668 2.98463 -1.27867 0
M  V30 409 H 42.0778 1.90672 -4.81523 0
M  V30 410 H 38.7548 3.25485 -2.61469 0
M  V30 411 H 40.1448 1.9344 -6.43452 0
M  V30 412 N 42.8649 1.48995 0.513639 0
M  V30 413 C 44.1109 1.58076 1.27042 0
M  V30 414 C 44.4439 0.261026 1.92438 0
M  V30 415 O 43.7189 -0.734393 1.80103 0
M  V30 416 C 44.0019 2.73091 2.34719 0
M  V30 417 C 43.8549 4.14821 1.73907 0
M  V30 418 C 45.1739 2.83796 3.36375 0
M  V30 419 H 42.2929 0.575391 0.460536 0
M  V30 420 H 44.9349 1.81232 0.570516 0
M  V30 421 H 43.0849 2.53479 2.94416 0
M  V30 422 H 44.7569 4.45917 1.18135 0
M  V30 423 H 42.9999 4.21058 1.0437 0
M  V30 424 H 43.6709 4.91147 2.51949 0
M  V30 425 H 46.1469 3.01611 2.86653 0
M  V30 426 H 45.0229 3.65971 4.09093 0
M  V30 427 H 45.2839 1.92624 3.9793 0
M  V30 428 N 44.343 -0.763751 1.37857 0
M  V30 429 C 45.759 -1.06542 1.18832 0
M  V30 430 C 45.959 -2.01478 0.0299722 0
M  V30 431 O 45.015 -2.4458 -0.627447 0
M  V30 432 C 46.328 -1.65525 2.51042 0
M  V30 433 C 47.876 -1.77745 2.57635 0
M  V30 434 C 48.351 -2.4014 3.89996 0
M  V30 435 N 49.842 -2.47582 3.91481 0
M  V30 436 C 50.577 -2.96732 4.9065 0
M  V30 437 N 50.073 -3.45993 6.00217 0
M  V30 438 N 51.866 -2.95679 4.78048 0
M  V30 439 H 44.017 -0.133556 2.1198 0
M  V30 440 H 46.28 -0.121879 0.940133 0
M  V30 441 H 45.986 -1.03236 3.36207 0
M  V30 442 H 45.86 -2.64719 2.68707 0
M  V30 443 H 48.247 -2.39164 1.72872 0
M  V30 444 H 48.328 -0.772836 2.43846 0
M  V30 445 H 47.972 -1.79358 4.75177 0
M  V30 446 H 47.902 -3.41223 4.01092 0
M  V30 447 H 50.393 -2.1273 3.12337 0
M  V30 448 H 50.706 -3.81922 6.7183 0
M  V30 449 H 49.051 -3.44077 6.03851 0
M  V30 450 H 52.242 -2.56499 3.91568 0
M  V30 451 H 52.415 -3.33672 5.55488 0
M  V30 452 N 45.8211 -1.22559 -0.990812 0
M  V30 453 C 47.0671 -1.05297 -1.73322 0
M  V30 454 C 47.4001 0.410655 -1.89808 0
M  V30 455 O 46.6751 1.30439 -1.44277 0
M  V30 456 C 46.9581 -1.76713 -3.13759 0
M  V30 457 C 46.8111 -3.30684 -3.04907 0
M  V30 458 C 48.1301 -1.52121 -4.12974 0
M  V30 459 H 45.2491 -0.38392 -0.629106 0
M  V30 460 H 47.8911 -1.50926 -1.15418 0
M  V30 461 H 46.0411 -1.37924 -3.63193 0
M  V30 462 H 47.7131 -3.7893 -2.63077 0
M  V30 463 H 45.9561 -3.60253 -2.41661 0
M  V30 464 H 46.6271 -3.75833 -4.04294 0
M  V30 465 H 49.1031 -1.85819 -3.72304 0
M  V30 466 H 47.9791 -2.04582 -5.0935 0
M  V30 467 H 48.2401 -0.454257 -4.3976 0
M  V30 468 N 47.2992 1.18797 -1.03562 0
M  V30 469 C 48.2292 2.24472 -0.643019 0
M  V30 470 C 49.2102 1.66433 0.351283 0
M  V30 471 O 50.3952 1.92803 0.232505 0
M  V30 472 C 47.5252 3.473 4.24935e-05 0
M  V30 473 C 46.4792 4.18055 -0.917257 0
M  V30 474 C 45.8052 5.34519 -0.138941 0
M  V30 475 C 47.1052 4.72109 -2.23407 0
M  V30 476 H 48.7992 2.57566 -1.52643 0
M  V30 477 H 46.3452 1.23806 -0.735394 0
M  V30 478 H 48.2982 4.20426 0.286383 0
M  V30 479 H 47.0222 3.13424 0.918299 0
M  V30 480 H 45.6812 3.46821 -1.1879 0
M  V30 481 H 45.3292 4.96891 0.781562 0
M  V30 482 H 45.0292 5.82794 -0.750005 0
M  V30 483 H 46.5532 6.10438 0.1405 0
M  V30 484 H 47.9672 5.36955 -2.00879 0
M  V30 485 H 46.3642 5.30897 -2.79765 0
M  V30 486 H 47.4342 3.89807 -2.88407 0
M  V30 487 N 48.7773 0.814389 1.34928 0
M  V30 488 C 49.7243 0.22822 2.29669 0
M  V30 489 C 50.6943 -0.642164 1.53184 0
M  V30 490 O 51.8793 -0.585605 1.81591 0
M  V30 491 C 49.0193 -0.61089 3.3965 0
M  V30 492 C 48.1323 0.280792 4.31086 0
M  V30 493 C 47.2673 -0.567067 5.28165 0
M  V30 494 C 46.3063 0.324531 6.11239 0
M  V30 495 N 45.4433 -0.483756 7.00431 0
M  V30 496 H 50.2833 1.04153 2.79206 0
M  V30 497 H 47.8203 0.525133 1.37407 0
M  V30 498 H 49.7783 -1.11263 4.0209 0
M  V30 499 H 48.4083 -1.38939 2.91369 0
M  V30 500 H 47.4603 0.900688 3.69583 0
M  V30 501 H 48.7723 0.966723 4.89342 0
M  V30 502 H 47.9263 -1.13363 5.96015 0
M  V30 503 H 46.6653 -1.28654 4.70425 0
M  V30 504 H 45.6703 0.903298 5.42329 0
M  V30 505 H 46.8953 1.04198 6.71059 0
M  V30 506 H 44.8413 -1.18706 6.45171 0
M  V30 507 H 44.7583 0.143965 7.55863 0
M  V30 508 H 46.0263 -1.03334 7.7262 0
M  V30 509 N 50.2554 -1.46986 0.568584 0
M  V30 510 C 51.1854 -2.32946 -0.160753 0
M  V30 511 C 52.1664 -1.44487 -0.897631 0
M  V30 512 O 53.3514 -1.73327 -0.875867 0
M  V30 513 C 50.4814 -3.26494 -1.18403 0
M  V30 514 C 49.4354 -4.24282 -0.562895 0
M  V30 515 C 48.7614 -5.07236 -1.69163 0
M  V30 516 C 50.0614 -5.19989 0.490761 0
M  V30 517 H 51.7554 -2.94175 0.556916 0
M  V30 518 H 49.3014 -1.4146 0.26927 0
M  V30 519 H 51.2544 -3.85477 -1.70251 0
M  V30 520 H 49.9784 -2.63343 -1.93179 0
M  V30 521 H 48.6374 -3.66541 -0.0656164 0
M  V30 522 H 48.2854 -4.4048 -2.42871 0
M  V30 523 H 47.9854 -5.7345 -1.28174 0
M  V30 524 H 49.5094 -5.6908 -2.21314 0
M  V30 525 H 50.9234 -5.73271 0.0579047 0
M  V30 526 H 49.3204 -5.94469 0.820165 0
M  V30 527 H 50.3904 -4.64777 1.3824 0
M  V30 528 N 51.7335 -0.305618 -1.54608 0
M  V30 529 C 52.6635 0.561482 -2.26649 0
M  V30 530 C 53.6445 1.13415 -1.26772 0
M  V30 531 O 54.8295 1.16262 -1.55553 0
M  V30 532 C 51.9595 1.73122 -3.01075 0
M  V30 533 C 50.9135 1.2887 -4.08138 0
M  V30 534 C 50.2395 2.54396 -4.70305 0
M  V30 535 C 51.5395 0.416578 -5.20636 0
M  V30 536 H 53.2335 -0.0393902 -2.99374 0
M  V30 537 H 50.7795 -0.020385 -1.43986 0
M  V30 538 H 52.7325 2.34396 -3.50195 0
M  V30 539 H 51.4565 2.3584 -2.25936 0
M  V30 540 H 50.1155 0.698991 -3.59875 0
M  V30 541 H 49.7635 3.15439 -3.918 0
M  V30 542 H 49.4635 2.25486 -5.42614 0
M  V30 543 H 50.9875 3.16464 -5.2219 0
M  V30 544 H 52.4015 0.935116 -5.65622 0
M  V30 545 H 50.7985 0.221046 -5.99693 0
M  V30 546 H 51.8685 -0.557162 -4.81688 0
M  V30 547 N 53.2116 1.57565 -0.0334293 0
M  V30 548 C 54.4366 1.96689 0.657895 0
M  V30 549 C 54.8616 0.910057 1.64619 0
M  V30 550 O 54.2196 -0.128598 1.80843 0
M  V30 551 C 54.2676 3.34905 1.33683 0
M  V30 552 O 53.3716 3.31574 2.45219 0
M  V30 553 H 52.7126 0.641205 0.172489 0
M  V30 554 H 55.2426 2.04372 -0.0965621 0
M  V30 555 H 55.2526 3.71234 1.69262 0
M  V30 556 H 53.9276 4.11366 0.612411 0
M  V30 557 H 52.5046 3.06968 2.11719 0
M  V30 558 N 54.6897 -0.239769 1.55765 0
M  V30 559 C 55.5997 -1.31831 1.94056 0
M  V30 560 C 56.6157 -1.52275 0.841925 0
M  V30 561 O 57.7917 -1.65759 1.14394 0
M  V30 562 C 54.8567 -2.65156 2.23368 0
M  V30 563 C 53.9177 -2.53173 3.46701 0
M  V30 564 C 53.1507 -3.8014 3.74606 0
M  V30 565 O 53.3737 -4.82343 3.04469 0
M  V30 566 O 52.3077 -3.78344 4.68123 0
M  V30 567 H 56.1337 -1.02347 2.85935 0
M  V30 568 H 53.7187 -0.441123 1.42739 0
M  V30 569 H 55.6007 -3.43929 2.43497 0
M  V30 570 H 54.2757 -2.94358 1.34666 0
M  V30 571 H 53.1827 -1.72662 3.31871 0
M  V30 572 H 54.5157 -2.28915 4.35728 0
M  V30 573 N 56.1678 -1.49265 -0.50573 0
M  V30 574 C 57.4448 -1.49012 -1.26707 0
M  V30 575 C 57.8248 -0.215205 -2.1 0
M  V30 576 O 57.1728 0.802547 -2.13943 0
M  V30 577 C 57.3828 -2.7663 -2.12783 0
M  V30 578 C 58.7308 -3.25932 -2.72127 0
M  V30 579 O 59.7548 -2.77715 -2.23054 0
M  V30 580 O 58.6138 -4.09897 -3.61451 0
M  V30 581 H 55.7078 -0.596197 -0.57313 0
M  V30 582 H 58.2538 -1.61524 -0.52039 0
M  V30 583 H 57.0258 -3.60916 -1.5118 0
M  V30 584 H 56.6488 -2.66956 -2.94653 0
M  V30 585 N 57.6459 0.756429 -1.3826 0
M  V30 586 C 59.0569 1.33359 -1.30661 0
M  V30 587 C 59.4079 1.96161 0.0388875 0
M  V30 588 O 58.5329 1.94874 0.940918 0
M  V30 589 C 59.1279 2.42477 -2.36622 0
M  V30 590 C 57.6869 2.95922 -2.3261 0
M  V30 591 C 56.8339 1.69275 -2.19639 0
M  V30 592 H 59.7849 0.55552 -1.4866 0
M  V30 593 H 59.8059 3.22345 -2.02174 0
M  V30 594 H 59.3179 1.96739 -3.34538 0
M  V30 595 H 57.4189 3.45996 -1.38267 0
M  V30 596 H 57.5319 3.50494 -3.26636 0
M  V30 597 H 55.8959 1.92793 -1.66442 0
M  V30 598 H 56.6789 1.25619 -3.19491 0
M  V30 599 N 59.124 1.23083 0.984299 0
M  V30 600 C 60.087 1.00979 2.05757 0
M  V30 601 C 61.087 -0.0269573 1.60777 0
M  V30 602 O 62.277 0.212403 1.729 0
M  V30 603 C 59.409 0.527072 3.36801 0
M  V30 604 H 60.602 1.9622 2.26799 0
M  V30 605 H 58.155 1.05072 1.15714 0
M  V30 606 H 58.89 -0.429294 3.21446 0
M  V30 607 H 58.675 1.27515 3.70786 0
M  V30 608 H 60.165 0.392942 4.15747 0
M  V30 609 N 60.6021 -1.18246 1.0419 0
M  V30 610 C 61.5501 -2.23968 0.627792 0
M  V30 611 C 62.5441 -1.65828 -0.346019 0
M  V30 612 O 63.7501 -1.78733 -0.213175 0
M  V30 613 H 60.1251 -0.728939 0.184802 0
M  V30 614 H 62.0961 -2.56202 1.52981 0
M  V30 615 C 60.8451 -3.47699 0.00796591 0
M  V30 616 H 60.1681 -3.92734 0.748347 0
M  V30 617 H 61.6081 -4.23294 -0.24455 0
M  V30 618 C 60.0671 -3.13153 -1.24246 0
M  V30 619 O 60.5971 -3.27003 -2.33307 0
M  V30 620 N 58.8031 -2.67467 -1.13622 0
M  V30 621 H 58.3501 -2.56396 -0.248734 0
M  V30 622 H 58.3081 -2.44724 -1.97377 0
M  V30 623 N 62.0802 -0.821533 -1.34494 0
M  V30 624 C 63.3102 -0.421272 -2.02259 0
M  V30 625 C 63.7182 0.977047 -1.6202 0
M  V30 626 O 63.0612 1.64348 -0.820703 0
M  V30 627 C 63.1232 -0.44231 -3.56769 0
M  V30 628 C 62.7872 -1.79372 -4.20327 0
M  V30 629 C 63.7842 -2.75435 -4.40944 0
M  V30 630 C 61.4692 -2.08182 -4.57127 0
M  V30 631 C 63.4632 -3.98482 -4.97484 0
M  V30 632 C 61.1502 -3.31489 -5.13379 0
M  V30 633 C 62.1482 -4.26457 -5.33501 0
M  V30 634 O 61.8362 -5.47585 -5.88562 0
M  V30 635 H 61.5682 -0.167473 -0.654927 0
M  V30 636 H 64.1222 -1.11073 -1.72777 0
M  V30 637 H 62.3522 0.303836 -3.85505 0
M  V30 638 H 64.0412 -0.0622925 -4.05852 0
M  V30 639 H 64.8072 -2.54473 -4.12878 0
M  V30 640 H 60.6862 -1.35066 -4.4077 0
M  V30 641 H 64.2302 -4.72618 -5.13106 0
M  V30 642 H 60.1272 -3.52316 -5.40873 0
M  V30 643 H 60.8952 -5.49086 -6.06998 0
M  V30 644 N 63.5583 1.46682 -0.576371 0
M  V30 645 C 64.5213 2.28707 0.150239 0
M  V30 646 C 65.5213 1.38035 0.824794 0
M  V30 647 O 66.7113 1.60476 0.677719 0
M  V30 648 C 63.8433 3.18248 1.22192 0
M  V30 649 H 65.0363 2.94423 -0.570521 0
M  V30 650 H 62.5893 1.52688 -0.334078 0
M  V30 651 H 63.3243 2.57265 1.97447 0
M  V30 652 H 63.1093 3.85 0.742812 0
M  V30 653 H 64.5993 3.80001 1.73172 0
M  V30 654 N 65.0364 0.313813 1.54444 0
M  V30 655 C 66.3134 -0.345447 1.92525 0
M  V30 656 C 66.6934 -1.70667 1.24242 0
M  V30 657 O 66.0414 -2.25273 0.382654 0
M  V30 658 C 66.2514 -0.44737 3.46121 0
M  V30 659 C 67.5994 -0.712238 4.18584 0
M  V30 660 O 68.6234 -0.530678 3.52225 0
M  V30 661 O 67.4824 -1.06183 5.36085 0
M  V30 662 H 64.5764 -0.195407 0.803583 0
M  V30 663 H 67.1224 0.362813 1.65776 0
M  V30 664 H 65.8944 0.509043 3.87975 0
M  V30 665 H 65.5174 -1.20359 3.78945 0
M  V30 666 N 66.5145 -1.57545 0.0417849 0
M  V30 667 C 67.4775 -2.09885 -0.92093 0
M  V30 668 C 68.4775 -1.01648 -1.24596 0
M  V30 669 O 69.6675 -1.27759 -1.1842 0
M  V30 670 C 66.7995 -2.57527 -2.23367 0
M  V30 671 H 67.9925 -2.96236 -0.467382 0
M  V30 672 H 65.5455 -1.5493 -0.206467 0
M  V30 673 H 66.2805 -1.74542 -2.73323 0
M  V30 674 H 66.0655 -3.36613 -2.01083 0
M  V30 675 H 67.5555 -2.98201 -2.92346 0
M  V30 676 N 67.9926 0.231505 -1.5589 0
M  V30 677 C 69.4036 0.799327 -1.68724 0
M  V30 678 C 69.7546 1.85398 -0.642022 0
M  V30 679 O 68.8796 2.1539 0.208784 0
M  V30 680 C 69.4746 1.45664 -3.05888 0
M  V30 681 C 68.0336 1.97197 -3.20609 0
M  V30 682 C 67.1806 0.828552 -2.64632 0
M  V30 683 H 70.1316 0.00702616 -1.58698 0
M  V30 684 H 70.1526 2.32517 -3.01191 0
M  V30 685 H 69.6646 0.688808 -3.81939 0
M  V30 686 H 67.7656 2.76813 -2.4941 0
M  V30 687 H 67.8786 2.15878 -4.27707 0
M  V30 688 H 66.2426 1.23321 -2.22854 0
M  V30 689 H 67.0256 0.0735544 -3.43221 0
M  V30 690 N 69.4707 1.49531 0.497807 0
M  V30 691 C 70.6987 1.62893 1.27567 0
M  V30 692 C 71.1137 0.301585 1.86376 0
M  V30 693 O 70.4707 -0.713335 1.67982 0
M  V30 694 C 70.5217 2.70013 2.40364 0
M  V30 695 O 70.2427 3.976 1.83972 0
M  V30 696 C 71.7437 2.94109 3.31685 0
M  V30 697 H 68.9637 0.548298 0.386794 0
M  V30 698 H 71.5077 1.95584 0.597245 0
M  V30 699 H 69.6627 2.40092 3.04031 0
M  V30 700 H 70.0767 4.56631 2.58047 0
M  V30 701 H 71.5507 3.72788 4.07104 0
M  V30 702 H 72.0277 2.04147 3.88871 0
M  V30 703 H 72.6337 3.2546 2.73781 0
M  V30 704 N 70.9488 -0.749086 1.3866 0
M  V30 705 C 71.8588 -1.89358 1.38494 0
M  V30 706 C 72.8748 -1.71708 0.281476 0
M  V30 707 O 74.0508 -1.94554 0.520643 0
M  V30 708 C 71.1158 -3.24782 1.21316 0
M  V30 709 C 70.1768 -3.54926 2.41508 0
M  V30 710 C 69.4098 -4.83888 2.2514 0
M  V30 711 O 69.6328 -5.56592 1.24746 0
M  V30 712 O 68.5668 -5.13612 3.13826 0
M  V30 713 H 72.3928 -1.92452 2.34938 0
M  V30 714 H 69.9778 -0.894981 1.19626 0
M  V30 715 H 71.8598 -4.05739 1.13814 0
M  V30 716 H 70.5348 -3.2249 0.279592 0
M  V30 717 H 69.4418 -2.74112 2.54585 0
M  V30 718 H 70.7748 -3.61983 3.3351 0
M  V30 719 N 72.4269 -1.23603 -0.977757 0
M  V30 720 C 73.6749 -1.06759 -1.71601 0
M  V30 721 C 73.9959 0.395929 -1.90938 0
M  V30 722 O 73.2659 1.28356 -1.47992 0
M  V30 723 H 71.8459 -0.392062 -0.635843 0
M  V30 724 H 74.5079 -1.55362 -1.1768 0
M  V30 725 H 73.6039 -1.55763 -2.70452 0
M  V30 726 N 73.905 1.17692 -1.04816 0
M  V30 727 C 75.154 1.87192 -0.751132 0
M  V30 728 C 75.467 1.8169 0.724441 0
M  V30 729 O 76.673 2.46625 1.13527 0
M  V30 730 C 75.129 3.35857 -1.29338 0
M  V30 731 C 74.737 3.4987 -2.79812 0
M  V30 732 C 76.481 4.10709 -1.07322 0
M  V30 733 C 74.388 4.92536 -3.27356 0
M  V30 734 H 73.318 0.701162 -0.277288 0
M  V30 735 H 75.969 1.32932 -1.26496 0
M  V30 736 H 74.351 3.89631 -0.707376 0
M  V30 737 H 75.525 3.06332 -3.44235 0
M  V30 738 H 73.84 2.88433 -3.00325 0
M  V30 739 H 76.437 5.15952 -1.4035 0
M  V30 740 H 76.78 4.16299 -0.0108001 0
M  V30 741 H 77.313 3.6313 -1.62423 0
M  V30 742 H 74.052 4.92119 -4.33012 0
M  V30 743 H 73.572 5.3676 -2.67673 0
M  V30 744 H 75.251 5.61288 -3.21815 0
M  V30 745 N 75.3831 0.828654 1.34056 0
M  V30 746 C 76.7991 0.515135 1.51058 0
M  V30 747 C 76.9991 -0.959581 1.77184 0
M  V30 748 O 76.0551 -1.74382 1.82612 0
M  V30 749 C 77.3681 1.37963 2.67183 0
M  V30 750 C 78.9161 1.37735 2.81066 0
M  V30 751 C 79.3911 2.22645 4.00241 0
M  V30 752 N 80.8821 2.203 4.07458 0
M  V30 753 C 81.6171 2.82744 4.98842 0
M  V30 754 N 81.1131 3.54201 5.9541 0
M  V30 755 N 82.9061 2.72268 4.91759 0
M  V30 756 H 75.0571 1.78343 1.15358 0
M  V30 757 H 77.3201 0.760304 0.566252 0
M  V30 758 H 77.0261 2.42714 2.54525 0
M  V30 759 H 76.9001 1.0484 3.62338 0
M  V30 760 H 79.2871 0.337593 2.93163 0
M  V30 761 H 79.3681 1.74859 1.86703 0
M  V30 762 H 79.0121 3.26674 3.88905 0
M  V30 763 H 78.9421 1.82869 4.93829 0
M  V30 764 H 81.4331 1.68327 3.38341 0
M  V30 765 H 81.7461 3.9908 6.61782 0
M  V30 766 H 80.0911 3.58308 5.95517 0
M  V30 767 H 83.2821 2.16014 4.15278 0
M  V30 768 H 83.4551 3.21219 5.62781 0
M  V30 769 N 76.8612 -1.46375 0.584142 0
M  V30 770 C 78.2772 -1.57694 0.245929 0
M  V30 771 C 78.4772 -1.57903 -1.25175 0
M  V30 772 O 77.5332 -1.49676 -2.03355 0
M  V30 773 C 78.8462 -2.87028 0.896402 0
M  V30 774 C 80.3942 -3.00662 0.870127 0
M  V30 775 C 80.8692 -4.32734 1.50017 0
M  V30 776 N 82.3602 -4.39436 1.46458 0
M  V30 777 C 83.0952 -5.40248 1.92144 0
M  V30 778 N 82.5912 -6.47726 2.4581 0
M  V30 779 N 84.3842 -5.31459 1.83052 0
M  V30 780 H 76.5352 -1.44483 1.55687 0
M  V30 781 H 78.7982 -0.689291 0.650831 0
M  V30 782 H 78.5042 -2.9269 1.95002 0
M  V30 783 H 78.3782 -3.75014 0.405486 0
M  V30 784 H 80.7652 -2.94581 -0.174871 0
M  V30 785 H 80.8462 -2.14148 1.39908 0
M  V30 786 H 80.4902 -4.39573 2.54437 0
M  V30 787 H 80.4202 -5.18025 0.946432 0
M  V30 788 H 82.9112 -3.62367 1.07231 0
M  V30 789 H 83.2242 -7.20863 2.78525 0
M  V30 790 H 81.5692 -6.48542 2.49836 0
M  V30 791 H 84.7602 -4.46396 1.40883 0
M  V30 792 H 84.9332 -6.09881 2.18973 0
M  V30 793 N 78.3393 -0.321999 -1.54275 0
M  V30 794 C 79.5883 0.281931 -1.9972 0
M  V30 795 C 79.9013 1.53369 -1.21397 0
M  V30 796 O 81.1073 2.21352 -1.57211 0
M  V30 797 C 79.5633 0.5529 -3.55628 0
M  V30 798 C 79.1713 -0.681721 -4.42783 0
M  V30 799 C 80.9153 1.11687 -4.09544 0
M  V30 800 C 78.8223 -0.382742 -5.9016 0
M  V30 801 H 77.7523 0.109124 -0.746062 0
M  V30 802 H 80.4033 -0.43398 -1.78294 0
M  V30 803 H 78.7853 1.32896 -3.73035 0
M  V30 804 H 79.9593 -1.45723 -4.37151 0
M  V30 805 H 78.2743 -1.1658 -3.99748 0
M  V30 806 H 80.8713 1.35515 -5.17242 0
M  V30 807 H 81.2143 2.06575 -3.61431 0
M  V30 808 H 81.7473 0.402032 -3.95763 0
M  V30 809 H 78.4863 -1.30076 -6.42464 0
M  V30 810 H 78.0063 0.355094 -5.98748 0
M  V30 811 H 79.6853 0.00800157 -6.47 0
M  V30 812 N 79.8174 1.5752 -0.0501392 0
M  V30 813 C 80.7474 2.14502 0.922566 0
M  V30 814 C 81.7284 1.06642 1.3252 0
M  V30 815 O 82.9134 1.34577 1.4001 0
M  V30 816 C 80.0434 2.68916 2.19776 0
M  V30 817 C 78.9974 3.8175 1.93523 0
M  V30 818 C 78.3234 4.22677 3.27487 0
M  V30 819 C 79.6234 5.06932 1.25765 0
M  V30 820 H 81.3174 2.9603 0.447952 0
M  V30 821 H 78.8634 1.42401 0.214024 0
M  V30 822 H 80.8164 3.07419 2.88222 0
M  V30 823 H 79.5404 1.84578 2.69441 0
M  V30 824 H 78.1994 3.43718 1.27489 0
M  V30 825 H 77.8474 3.35291 3.74952 0
M  V30 826 H 77.5474 4.98725 3.1072 0
M  V30 827 H 79.0714 4.63779 3.97166 0
M  V30 828 H 80.4854 5.42888 1.84244 0
M  V30 829 H 78.8824 5.88116 1.19328 0
M  V30 830 H 79.9524 4.84337 0.233536 0
M  V30 831 N 81.2955 -0.223234 1.56011 0
M  V30 832 C 82.2055 -1.29766 1.95443 0
M  V30 833 C 83.2215 -1.51373 0.858028 0
M  V30 834 O 84.3975 -1.64536 1.16146 0
M  V30 835 C 81.4625 -2.62772 2.26167 0
M  V30 836 C 80.5235 -2.49482 3.49367 0
M  V30 837 C 79.7565 -3.76145 3.78616 0
M  V30 838 O 79.9795 -4.79087 3.09568 0
M  V30 839 O 78.9135 -3.73358 4.72109 0
M  V30 840 H 82.7395 -0.99309 2.87004 0
M  V30 841 H 80.3245 -0.425958 1.43199 0
M  V30 842 H 82.2065 -3.41327 2.47131 0
M  V30 843 H 80.8815 -2.92913 1.37781 0
M  V30 844 H 79.7885 -1.69133 3.33684 0
M  V30 845 H 81.1215 -2.2428 4.38131 0
M  V30 846 N 82.7736 -1.49793 -0.48987 0
M  V30 847 C 83.7056 -1.63413 -1.60713 0
M  V30 848 C 84.7186 -0.516329 -1.54395 0
M  V30 849 O 85.9076 -0.788812 -1.60125 0
M  V30 850 C 83.0076 -1.58516 -2.99543 0
M  V30 851 C 82.1806 -2.86016 -3.30928 0
M  V30 852 C 81.2396 -2.74018 -4.49222 0
M  V30 853 O 80.2656 -3.47964 -4.50455 0
M  V30 854 N 81.4676 -1.86309 -5.4979 0
M  V30 855 H 84.2326 -2.59777 -1.49452 0
M  V30 856 H 81.7936 -1.47022 -0.677955 0
M  V30 857 H 83.7856 -1.48128 -3.76617 0
M  V30 858 H 82.3556 -0.69965 -3.0467 0
M  V30 859 H 81.5756 -3.10672 -2.42645 0
M  V30 860 H 82.8636 -3.70521 -3.487 0
M  V30 861 H 82.2616 -1.2551 -5.51601 0
M  V30 862 H 80.8186 -1.81837 -6.25922 0
M  V30 863 N 84.2517 0.741722 -1.39055 0
M  V30 864 C 85.1617 1.88621 -1.39496 0
M  V30 865 C 86.1777 1.71557 -0.290578 0
M  V30 866 O 87.3537 1.94275 -0.530954 0
M  V30 867 C 84.4187 3.24134 -1.23037 0
M  V30 868 C 83.4797 3.5364 -2.43387 0
M  V30 869 C 82.7127 4.82687 -2.27703 0
M  V30 870 O 82.9357 5.55922 -1.27696 0
M  V30 871 O 81.8697 5.1194 -3.16545 0
M  V30 872 H 85.6957 1.91203 -2.35956 0
M  V30 873 H 83.2807 0.888625 -1.20099 0
M  V30 874 H 85.1627 4.0513 -1.15964 0
M  V30 875 H 83.8377 3.22337 -0.296691 0
M  V30 876 H 82.7447 2.72758 -2.56035 0
M  V30 877 H 84.0777 3.60209 -3.35425 0
M  V30 878 N 85.7298 1.2412 0.971189 0
M  V30 879 C 86.6928 1.03156 2.04674 0
M  V30 880 C 87.6928 -0.00990322 1.60797 0
M  V30 881 O 88.8828 0.230729 1.72665 0
M  V30 882 C 86.0148 0.562765 3.36223 0
M  V30 883 H 87.2078 1.98614 2.24705 0
M  V30 884 H 84.7608 1.06293 1.14593 0
M  V30 885 H 85.4958 -0.395176 3.21883 0
M  V30 886 H 85.2808 1.31441 3.69413 0
M  V30 887 H 86.7708 0.437015 4.15307 0
M  V30 888 N 87.2079 -1.17134 1.05439 0
M  V30 889 C 88.4559 -1.87085 0.764429 0
M  V30 890 C 88.7769 -1.81584 -0.710787 0
M  V30 891 O 88.0469 -1.24349 -1.51374 0
M  V30 892 H 86.6269 -0.692627 0.279779 0
M  V30 893 H 89.2889 -1.42087 1.33406 0
M  V30 894 H 88.3849 -2.92759 1.0816 0
M  V30 895 N 88.686 -0.835752 -1.33615 0
M  V30 896 C 89.619 -0.211815 -2.27215 0
M  V30 897 C 90.597 0.639249 -1.49507 0
M  V30 898 O 91.781 0.600193 -1.78689 0
M  V30 899 C 88.908 0.702893 -3.31326 0
M  V30 900 C 87.954 -0.0723049 -4.26439 0
M  V30 901 S 88.787 -1.42811 -5.16106 0
M  V30 902 C 89.943 -0.518613 -6.23748 0
M  V30 903 H 90.176 -1.00533 -2.79786 0
M  V30 904 H 87.709 -0.632336 -1.40858 0
M  V30 905 H 89.667 1.22505 -3.91794 0
M  V30 906 H 88.328 1.47004 -2.77576 0
M  V30 907 H 87.521 0.62359 -5.00127 0
M  V30 908 H 87.123 -0.525424 -3.70291 0
M  V30 909 H 89.415 0.284778 -6.76901 0
M  V30 910 H 90.358 -1.22556 -6.97413 0
M  V30 911 H 90.766 -0.101344 -5.64409 0
M  V30 912 N 90.1641 1.46063 -0.591896 0
M  V30 913 C 91.0941 2.33172 0.123673 0
M  V30 914 C 92.0751 1.45897 0.87453 0
M  V30 915 O 93.2601 1.74698 0.848181 0
M  V30 916 C 90.3901 3.28336 1.13194 0
M  V30 917 C 89.3441 4.25124 0.495324 0
M  V30 918 C 88.6701 5.09863 1.61071 0
M  V30 919 C 89.9701 5.19143 -0.573425 0
M  V30 920 H 91.6641 2.93252 -0.603646 0
M  V30 921 H 89.2101 1.41014 -0.291741 0
M  V30 922 H 91.1631 3.88137 1.64097 0
M  V30 923 H 89.8871 2.66383 1.88965 0
M  V30 924 H 88.5461 3.66599 0.00729452 0
M  V30 925 H 88.1941 4.44288 2.35832 0
M  V30 926 H 87.8941 5.75417 1.19035 0
M  V30 927 H 89.4181 5.72529 2.12233 0
M  V30 928 H 90.8321 5.73106 -0.1491 0
M  V30 929 H 89.2291 5.93089 -0.914636 0
M  V30 930 H 90.2991 4.62519 -1.45617 0
M  V30 931 N 91.6422 0.330177 1.54103 0
M  V30 932 C 92.5722 -0.525353 2.27513 0
M  V30 933 C 93.5532 -1.11383 1.2856 0
M  V30 934 O 94.7382 -1.13773 1.57383 0
M  V30 935 C 91.8682 -1.6831 3.03791 0
M  V30 936 C 90.8222 -1.2236 4.10137 0
M  V30 937 C 90.1482 -2.46882 4.74293 0
M  V30 938 C 91.4482 -0.333697 5.21233 0
M  V30 939 H 93.1422 0.087013 2.99274 0
M  V30 940 H 90.6882 0.0432893 1.43935 0
M  V30 941 H 92.6412 -2.28795 3.5388 0
M  V30 942 H 91.3652 -2.32216 2.29659 0
M  V30 943 H 90.0242 -0.64165 3.60941 0
M  V30 944 H 89.6722 -3.09165 3.96769 0
M  V30 945 H 89.3722 -2.16825 5.46133 0
M  V30 946 H 90.8962 -3.08117 5.27159 0
M  V30 947 H 92.3102 -0.845013 5.67038 0
M  V30 948 H 90.7072 -0.125612 5.99969 0
M  V30 949 H 91.7772 0.633724 4.80741 0
M  V30 950 N 93.1203 -1.57491 0.0584922 0
M  V30 951 C 94.5313 -1.80526 -0.476138 0
M  V30 952 C 94.8823 -0.971334 -1.70469 0
M  V30 953 O 94.0073 -0.190012 -2.15564 0
M  V30 954 C 94.6023 -3.27424 -0.870587 0
M  V30 955 C 93.1613 -3.51351 -1.35015 0
M  V30 956 C 92.3083 -2.75343 -0.32887 0
M  V30 957 H 95.2593 -1.56133 0.284312 0
M  V30 958 H 95.2803 -3.38745 -1.73299 0
M  V30 959 H 94.7923 -3.88093 0.0237627 0
M  V30 960 H 92.8933 -2.95971 -2.26345 0
M  V30 961 H 93.0063 -4.60059 -1.33726 0
M  V30 962 H 91.3703 -2.417 -0.803321 0
M  V30 963 H 92.1533 -3.38743 0.557521 0
M  V30 964 N 94.5984 0.214957 -1.56127 0
M  V30 965 C 96.0144 0.564948 -1.49267 0
M  V30 966 C 96.2144 1.86827 -0.754838 0
M  V30 967 O 95.2704 2.50745 -0.297198 0
M  V30 968 C 96.5834 0.638071 -2.93852 0
M  V30 969 C 98.1314 0.728253 -3.0441 0
M  V30 970 C 98.6064 0.832663 -4.50367 0
M  V30 971 N 100.097 0.896712 -4.54437 0
M  V30 972 C 100.832 0.997324 -5.6466 0
M  V30 973 N 100.328 1.06147 -6.8462 0
M  V30 974 N 102.121 1.03297 -5.52527 0
M  V30 975 H 94.2724 -0.640211 -2.02522 0
M  V30 976 H 96.5354 -0.225507 -0.920788 0
M  V30 977 H 96.2414 -0.250126 -3.50809 0
M  V30 978 H 96.1154 1.49947 -3.46115 0
M  V30 979 H 98.5024 1.60689 -2.47514 0
M  V30 980 H 98.5834 -0.158952 -2.55306 0
M  V30 981 H 98.2274 -0.0415417 -5.07883 0
M  V30 982 H 98.1574 1.73538 -4.97184 0
M  V30 983 H 100.648 0.857188 -3.6805 0
M  V30 984 H 100.961 1.1382 -7.64372 0
M  V30 985 H 99.3064 1.03049 -6.87318 0
M  V30 986 H 102.497 0.979558 -4.57736 0
M  V30 987 H 102.67 1.10793 -6.38458 0
M  V30 988 N 96.0765 1.50051 0.48192 0
M  V30 989 C 97.3535 1.51009 1.2432 0
M  V30 990 C 97.7335 0.248587 2.09631 0
M  V30 991 O 97.0815 -0.768409 2.15192 0
M  V30 992 C 97.2915 2.79981 2.08355 0
M  V30 993 C 98.6395 3.3022 2.66908 0
M  V30 994 O 99.6635 2.81228 2.18607 0
M  V30 995 O 98.5225 4.15595 3.54884 0
M  V30 996 H 95.6165 0.605239 0.563573 0
M  V30 997 H 98.1625 1.62332 0.494627 0
M  V30 998 H 96.9345 3.63275 1.45419 0
M  V30 999 H 96.5575 2.7161 2.90368 0
M  V30 1000 N 97.5546 -0.734337 1.39446 0
M  V30 1001 C 98.4866 -1.85861 1.34121 0
M  V30 1002 C 99.4996 -1.60871 0.249864 0
M  V30 1003 O 100.689 -1.71093 0.508865 0
M  V30 1004 C 97.7886 -3.21899 1.05991 0
M  V30 1005 C 96.9616 -3.74239 2.26415 0
M  V30 1006 C 96.0206 -4.88841 1.94733 0
M  V30 1007 O 95.0466 -5.02468 2.67422 0
M  V30 1008 N 96.2486 -5.73261 0.913884 0
M  V30 1009 H 99.0136 -1.90934 2.31007 0
M  V30 1010 H 96.5746 -0.915102 1.33557 0
M  V30 1011 H 98.5666 -3.96136 0.828147 0
M  V30 1012 H 97.1366 -3.12091 0.178361 0
M  V30 1013 H 96.3566 -2.91347 2.65539 0
M  V30 1014 H 97.6446 -4.05942 3.06738 0
M  V30 1015 H 97.0426 -5.64842 0.311476 0
M  V30 1016 H 95.5996 -6.47563 0.742015 0
M  V30 1017 N 99.0327 -1.24633 -0.964593 0
M  V30 1018 C 100.444 -1.08045 -1.5226 0
M  V30 1019 C 100.795 0.347116 -1.93105 0
M  V30 1020 O 99.9197 1.23588 -1.77637 0
M  V30 1021 C 100.515 -1.95514 -2.76695 0
M  V30 1022 C 99.0737 -1.8314 -3.28841 0
M  V30 1023 C 98.2207 -1.90262 -2.01732 0
M  V30 1024 H 101.172 -1.38064 -0.782553 0
M  V30 1025 H 101.193 -1.48925 -3.50145 0
M  V30 1026 H 100.705 -2.99407 -2.46936 0
M  V30 1027 H 98.8057 -0.82092 -3.63444 0
M  V30 1028 H 98.9187 -2.67406 -3.97531 0
M  V30 1029 H 97.2827 -1.34027 -2.16584 0
M  V30 1030 H 98.0657 -2.9574 -1.74334 0
M  V30 1031 N 100.511 1.16574 -1.06058 0
M  V30 1032 C 101.441 2.23057 -0.690488 0
M  V30 1033 C 102.422 1.67141 0.315901 0
M  V30 1034 O 103.607 1.93253 0.191556 0
M  V30 1035 C 100.737 3.47222 -0.073625 0
M  V30 1036 C 99.6908 4.16016 -1.00573 0
M  V30 1037 C 99.0168 5.34104 -0.252289 0
M  V30 1038 C 100.317 4.67264 -2.33371 0
M  V30 1039 H 102.011 2.54271 -1.58072 0
M  V30 1040 H 99.5568 1.22218 -0.76149 0
M  V30 1041 H 101.51 4.20939 0.19714 0
M  V30 1042 H 100.234 3.15302 0.85161 0
M  V30 1043 H 98.8928 3.44223 -1.2612 0
M  V30 1044 H 98.5408 4.98437 0.675988 0
M  V30 1045 H 98.2408 5.81072 -0.873455 0
M  V30 1046 H 99.7648 6.10599 0.0109857 0
M  V30 1047 H 101.179 5.32573 -2.12223 0
M  V30 1048 H 99.5758 5.24843 -2.90963 0
M  V30 1049 H 100.646 3.83602 -2.96611 0
M  V30 1050 N 101.989 0.842826 1.3317 0
M  V30 1051 C 103.266 0.362216 1.92217 0
M  V30 1052 C 103.646 -1.15289 1.76838 0
M  V30 1053 O 102.994 -1.96914 1.15919 0
M  V30 1054 C 103.204 0.813495 3.39387 0
M  V30 1055 C 104.552 0.823804 4.16532 0
M  V30 1056 O 105.576 0.757358 3.48055 0
M  V30 1057 O 104.435 0.915193 5.38782 0
M  V30 1058 H 101.529 0.103317 0.820521 0
M  V30 1059 H 104.075 0.928942 1.42017 0
M  V30 1060 H 102.847 1.85624 3.4447 0
M  V30 1061 H 102.47 0.223561 3.96971 0
M  V30 1062 N 103.467 -1.45747 0.599634 0
M  V30 1063 C 104.692 -2.07178 0.0960198 0
M  V30 1064 C 105.117 -1.44268 -1.207 0
M  V30 1065 O 104.475 -0.532503 -1.73303 0
M  V30 1066 C 104.523 -3.60579 -0.0385348 0
M  V30 1067 O 103.627 -3.97713 -1.0908 0
M  V30 1068 H 102.968 -0.660251 0.0704593 0
M  V30 1069 H 105.498 -1.87124 0.827385 0
M  V30 1070 H 105.508 -4.07298 -0.239304 0
M  V30 1071 H 104.183 -4.05756 0.912947 0
M  V30 1072 H 102.76 -3.62678 -0.867135 0
M  V30 1073 N 104.945 -0.338344 -1.53925 0
M  V30 1074 C 106.17 0.263987 -2.05713 0
M  V30 1075 C 106.595 1.43847 -1.21201 0
M  V30 1076 O 105.953 1.79904 -0.224535 0
M  V30 1077 C 106.001 0.662 -3.54471 0
M  V30 1078 O 105.105 1.76265 -3.72833 0
M  V30 1079 H 104.446 0.0448722 -0.662482 0
M  V30 1080 H 106.976 -0.491048 -1.9862 0
M  V30 1081 H 106.986 0.940594 -3.9701 0
M  V30 1082 H 105.661 -0.196937 -4.15433 0
M  V30 1083 H 104.238 1.48173 -3.42198 0
M  V30 1084 N 106.423 1.57458 -0.0668435 0
M  V30 1085 C 107.373 2.0896 0.912119 0
M  V30 1086 C 108.357 0.998186 1.26195 0
M  V30 1087 O 109.549 1.26133 1.24175 0
M  V30 1088 C 106.678 2.6508 2.18145 0
M  V30 1089 C 105.764 3.81218 1.85832 0
M  V30 1090 N 106.155 4.90378 1.23948 0
M  V30 1091 C 104.453 3.9042 2.15612 0
M  V30 1092 C 105.154 5.71279 1.09616 0
M  V30 1093 N 104.13 5.19389 1.60423 0
M  V30 1094 H 107.932 2.90749 0.42924 0
M  V30 1095 H 105.446 1.6182 0.137184 0
M  V30 1096 H 107.443 3.0029 2.89192 0
M  V30 1097 H 106.103 1.84736 2.67025 0
M  V30 1098 H 107.114 5.09847 0.909731 0
M  V30 1099 H 103.791 3.21043 2.66903 0
M  V30 1100 H 105.181 6.69085 0.614425 0
M  V30 1101 N 107.901 -0.206675 1.56239 0
M  V30 1102 C 109.15 -0.926964 1.79138 0
M  V30 1103 C 109.463 -1.84901 0.638043 0
M  V30 1104 O 110.669 -2.60906 0.751033 0
M  V30 1105 C 109.125 -1.6986 3.17294 0
M  V30 1106 C 108.733 -0.821956 4.40395 0
M  V30 1107 C 110.477 -2.40922 3.4951 0
M  V30 1108 C 108.384 -1.59179 5.69575 0
M  V30 1109 H 107.314 -0.349864 0.667915 0
M  V30 1110 H 109.965 -0.180487 1.8261 0
M  V30 1111 H 108.347 -2.48853 3.08039 0
M  V30 1112 H 109.521 -0.0715019 4.60745 0
M  V30 1113 H 107.836 -0.222741 4.15804 0
M  V30 1114 H 110.433 -2.99047 4.43255 0
M  V30 1115 H 110.776 -3.14542 2.72707 0
M  V30 1116 H 111.309 -1.68905 3.60161 0
M  V30 1117 H 108.048 -0.898589 6.49312 0
M  V30 1118 H 107.568 -2.31648 5.53262 0
M  V30 1119 H 109.247 -2.14862 6.10281 0
M  V30 1120 N 109.379 -1.50304 -0.473955 0
M  V30 1121 C 110.342 -1.6841 -1.55469 0
M  V30 1122 C 111.342 -0.554905 -1.50922 0
M  V30 1123 O 112.532 -0.821882 -1.53593 0
M  V30 1124 C 109.664 -1.70667 -2.95102 0
M  V30 1125 H 110.857 -2.64828 -1.40733 0
M  V30 1126 H 108.41 -1.39742 -0.700132 0
M  V30 1127 H 109.145 -0.75932 -3.15285 0
M  V30 1128 H 108.93 -2.52698 -2.9981 0
M  V30 1129 H 110.42 -1.8664 -3.73571 0
M  V30 1130 N 110.857 0.726932 -1.39834 0
M  V30 1131 C 112.082 1.52121 -1.40976 0
M  V30 1132 C 112.507 1.88098 -0.00826029 0
M  V30 1133 O 111.865 1.52479 0.980807 0
M  V30 1134 C 111.913 2.78021 -2.29644 0
M  V30 1135 O 111.017 3.74272 -1.73188 0
M  V30 1136 H 110.358 0.45908 -0.479731 0
M  V30 1137 H 112.888 0.896207 -1.83927 0
M  V30 1138 H 112.898 3.26671 -2.44438 0
M  V30 1139 H 111.573 2.51169 -3.31492 0
M  V30 1140 H 110.15 3.33073 -1.6768 0
M  V30 1141 N 112.336 1.25143 0.95797 0
M  V30 1142 C 113.585 1.0909 1.69654 0
M  V30 1143 C 113.898 -0.368548 1.92097 0
M  V30 1144 O 115.104 -0.649455 2.63618 0
M  V30 1145 C 113.56 1.90395 3.05414 0
M  V30 1146 C 113.168 3.4081 2.90779 0
M  V30 1147 C 114.912 1.82901 3.83076 0
M  V30 1148 C 112.819 4.14423 4.21909 0
M  V30 1149 H 111.749 0.404625 0.636235 0
M  V30 1150 H 114.4 1.4931 1.06672 0
M  V30 1151 H 112.782 1.42996 3.69281 0
M  V30 1152 H 113.956 3.95859 2.35865 0
M  V30 1153 H 112.271 3.49361 2.26575 0
M  V30 1154 H 114.868 2.35196 4.80195 0
M  V30 1155 H 115.211 0.796224 4.08615 0
M  V30 1156 H 115.744 2.28033 3.25954 0
M  V30 1157 H 112.483 5.18102 4.01561 0
M  V30 1158 H 112.003 3.64159 4.76601 0
M  V30 1159 H 113.682 4.21956 4.90471 0
M  V30 1160 N 113.814 -1.1601 1.06675 0
M  V30 1161 C 115.23 -1.38622 0.790948 0
M  V30 1162 C 115.43 -1.92109 -0.607965 0
M  V30 1163 O 114.486 -2.12239 -1.36787 0
M  V30 1164 C 115.799 -2.36347 1.85905 0
M  V30 1165 C 117.347 -2.50023 1.88301 0
M  V30 1166 C 117.822 -3.51033 2.94176 0
M  V30 1167 N 119.313 -3.58563 2.93235 0
M  V30 1168 C 120.048 -4.36521 3.71803 0
M  V30 1169 N 119.544 -5.17869 4.602 0
M  V30 1170 N 121.337 -4.31541 3.60178 0
M  V30 1171 H 113.488 -0.796294 1.96908 0
M  V30 1172 H 115.751 -0.412597 0.853503 0
M  V30 1173 H 115.457 -2.04147 2.86386 0
M  V30 1174 H 115.331 -3.36042 1.71334 0
M  V30 1175 H 117.718 -2.81524 0.884769 0
M  V30 1176 H 117.799 -1.5035 2.06951 0
M  V30 1177 H 117.443 -3.20268 3.94196 0
M  V30 1178 H 117.373 -4.50445 2.72776 0
M  V30 1179 H 119.864 -3.00496 2.29152 0
M  V30 1180 H 120.177 -5.74578 5.16797 0
M  V30 1181 H 118.522 -5.17199 4.64253 0
M  V30 1182 H 121.713 -3.67051 2.90502 0
M  V30 1183 H 121.886 -4.9205 4.21653 0
M  V30 1184 N 115.292 -0.849877 -1.32721 0
M  V30 1185 C 116.225 -0.235903 -2.26977 0
M  V30 1186 C 117.203 0.623355 -1.50177 0
M  V30 1187 O 118.387 0.581207 -1.79316 0
M  V30 1188 C 115.514 0.667712 -3.32053 0
M  V30 1189 C 114.56 -0.11753 -4.26338 0
M  V30 1190 S 115.393 -1.48277 -5.14562 0
M  V30 1191 C 116.549 -0.584741 -6.23163 0
M  V30 1192 H 116.782 -1.03495 -2.78704 0
M  V30 1193 H 114.315 -0.64724 -1.40179 0
M  V30 1194 H 116.273 1.18343 -3.93072 0
M  V30 1195 H 114.934 1.44052 -2.7912 0
M  V30 1196 H 114.127 0.57051 -5.00761 0
M  V30 1197 H 113.729 -0.564668 -3.69713 0
M  V30 1198 H 116.021 0.212968 -6.77165 0
M  V30 1199 H 116.964 -1.29947 -6.96074 0
M  V30 1200 H 117.372 -0.161202 -5.6427 0
M  V30 1201 N 116.77 1.45427 -0.607355 0
M  V30 1202 C 118.018 2.01841 -0.102253 0
M  V30 1203 C 118.339 1.47832 1.27164 0
M  V30 1204 O 117.609 0.672497 1.83995 0
M  V30 1205 H 116.189 0.746188 -0.0348101 0
M  V30 1206 H 118.851 1.78229 -0.7887 0
M  V30 1207 H 117.947 3.12057 -0.0518585 0
M  V30 1208 N 118.248 0.346503 1.53744 0
M  V30 1209 C 119.476 -0.25041 2.05379 0
M  V30 1210 C 119.891 -1.43979 1.22129 0
M  V30 1211 O 119.248 -1.80677 0.257321 0
M  V30 1212 C 119.299 -0.662575 3.55376 0
M  V30 1213 O 119.02 0.479515 4.35468 0
M  V30 1214 C 120.521 -1.31989 4.23195 0
M  V30 1215 H 117.741 -0.0478198 0.669294 0
M  V30 1216 H 120.285 0.499346 1.9831 0
M  V30 1217 H 118.44 -1.36227 3.62658 0
M  V30 1218 H 118.854 0.15037 5.24284 0
M  V30 1219 H 120.328 -1.55902 5.29527 0
M  V30 1220 H 120.805 -2.27436 3.75725 0
M  V30 1221 H 121.411 -0.662154 4.20114 0
M  V30 1222 N 119.726 -1.57421 0.075193 0
M  V30 1223 C 120.954 -1.97946 -0.602076 0
M  V30 1224 C 121.369 -0.953674 -1.62943 0
M  V30 1225 O 120.726 0.0592551 -1.82404 0
M  V30 1226 C 120.777 -3.38546 -1.26762 0
M  V30 1227 O 120.498 -4.37195 -0.281376 0
M  V30 1228 C 121.999 -3.93966 -2.03239 0
M  V30 1229 H 119.219 -0.650918 -0.162931 0
M  V30 1230 H 121.763 -2.03959 0.148601 0
M  V30 1231 H 119.918 -3.33609 -1.96936 0
M  V30 1232 H 120.332 -5.18975 -0.759267 0
M  V30 1233 H 121.806 -4.94555 -2.45193 0
M  V30 1234 H 122.283 -3.30693 -2.8903 0
M  V30 1235 H 122.889 -4.02315 -1.37924 0
M  V30 1236 N 121.204 0.198386 -1.56346 0
M  V30 1237 C 122.45 0.920648 -1.80698 0
M  V30 1238 C 122.783 1.83045 -0.648697 0
M  V30 1239 O 122.058 1.91308 0.350925 0
M  V30 1240 C 122.341 1.73971 -3.15287 0
M  V30 1241 C 122.194 0.85485 -4.41602 0
M  V30 1242 C 123.513 2.71296 -3.46535 0
M  V30 1243 H 120.632 0.333261 -0.657348 0
M  V30 1244 H 123.274 0.188198 -1.89066 0
M  V30 1245 H 121.424 2.36416 -3.08285 0
M  V30 1246 H 123.096 0.245362 -4.60647 0
M  V30 1247 H 121.339 0.161398 -4.335 0
M  V30 1248 H 122.01 1.46286 -5.32264 0
M  V30 1249 H 124.486 2.18983 -3.53816 0
M  V30 1250 H 123.362 3.2569 -4.41834 0
M  V30 1251 H 123.623 3.5018 -2.69864 0
M  V30 1252 N 122.682 1.50554 0.465978 0
M  V30 1253 C 123.645 1.69233 1.54574 0
M  V30 1254 C 124.645 0.562901 1.50626 0
M  V30 1255 O 125.835 0.830016 1.53155 0
M  V30 1256 C 122.967 1.7223 2.94193 0
M  V30 1257 H 124.16 2.65571 1.39327 0
M  V30 1258 H 121.713 1.40111 0.692711 0
M  V30 1259 H 122.448 0.77603 3.14878 0
M  V30 1260 H 122.233 2.54285 2.98466 0
M  V30 1261 H 123.723 1.88618 3.72576 0
M  V30 1262 N 124.16 -0.719506 1.40217 0
M  V30 1263 C 125.388 -1.50864 1.41589 0
M  V30 1264 C 125.803 -1.88794 0.0145275 0
M  V30 1265 O 125.16 -1.55174 -0.960594 0
M  V30 1266 C 125.211 -2.78646 2.30302 0
M  V30 1267 O 124.932 -2.42321 3.64983 0
M  V30 1268 C 126.433 -3.72569 2.40224 0
M  V30 1269 H 123.653 -0.465709 0.48307 0
M  V30 1270 H 126.197 -0.88785 1.84221 0
M  V30 1271 H 124.352 -3.37019 1.91042 0
M  V30 1272 H 124.766 -3.24514 4.12057 0
M  V30 1273 H 126.24 -4.5908 3.06512 0
M  V30 1274 H 126.717 -4.15403 1.42608 0
M  V30 1275 H 127.323 -3.20109 2.80019 0
M  V30 1276 N 125.638 -1.25649 -0.95132 0
M  V30 1277 C 126.586 -1.06118 -2.06982 0
M  V30 1278 C 127.58 0.00889169 -1.69398 0
M  V30 1279 O 128.786 -0.146988 -1.79399 0
M  V30 1280 H 125.161 -0.326248 -0.677544 0
M  V30 1281 H 127.132 -2.00932 -2.2061 0
M  V30 1282 C 125.881 -0.700145 -3.40578 0
M  V30 1283 H 125.204 -1.51537 -3.69968 0
M  V30 1284 H 126.644 -0.603211 -4.19687 0
M  V30 1285 C 125.103 0.59403 -3.31622 0
M  V30 1286 O 125.633 1.63522 -3.66911 0
M  V30 1287 N 123.839 0.58089 -2.84735 0
M  V30 1288 H 123.386 -0.266783 -2.56215 0
M  V30 1289 H 123.344 1.44695 -2.79125 0
M  V30 1290 N 127.117 1.15442 -1.07289 0
M  V30 1291 C 128.08 2.18358 -0.696591 0
M  V30 1292 C 129.08 1.58637 0.262837 0
M  V30 1293 O 130.27 1.74145 0.0438809 0
M  V30 1294 C 127.402 3.4089 -0.0266151 0
M  V30 1295 H 128.595 2.53162 -1.60776 0
M  V30 1296 H 126.148 1.29893 -0.869342 0
M  V30 1297 H 126.883 3.11653 0.896822 0
M  V30 1298 H 126.668 3.85495 -0.716657 0
M  V30 1299 H 128.158 4.17009 0.222028 0
M  V30 1300 N 128.595 0.856903 1.32268 0
M  V30 1301 C 129.525 0.31858 2.31316 0
M  V30 1302 C 130.506 -0.583487 1.59779 0
M  V30 1303 O 131.691 -0.503259 1.87566 0
M  V30 1304 C 128.821 -0.491979 3.43798 0
M  V30 1305 C 127.775 0.315849 4.26833 0
M  V30 1306 C 127.101 -0.619586 5.31098 0
M  V30 1307 C 128.401 1.54282 4.98993 0
M  V30 1308 H 130.095 1.14621 2.76591 0
M  V30 1309 H 127.641 0.552613 1.32974 0
M  V30 1310 H 129.594 -0.879012 4.1213 0
M  V30 1311 H 128.318 -1.35299 2.97257 0
M  V30 1312 H 126.977 0.684664 3.6015 0
M  V30 1313 H 126.625 -1.47751 4.8081 0
M  V30 1314 H 126.325 -0.0830621 5.87541 0
M  V30 1315 H 127.849 -1.00375 6.02293 0
M  V30 1316 H 129.263 1.22796 5.59995 0
M  V30 1317 H 127.66 2.01745 5.65172 0
M  V30 1318 H 128.73 2.30285 4.26728 0
M  V30 1319 N 130.073 -1.45103 0.615059 0
M  V30 1320 C 131.003 -2.33339 -0.0865619 0
M  V30 1321 C 131.984 -1.4727 -0.851209 0
M  V30 1322 O 133.169 -1.76026 -0.820281 0
M  V30 1323 C 130.299 -3.30095 -1.07956 0
M  V30 1324 C 129.253 -4.25858 -0.427628 0
M  V30 1325 C 128.579 -5.12361 -1.5294 0
M  V30 1326 C 129.879 -5.18165 0.655944 0
M  V30 1327 H 131.573 -2.92254 0.650224 0
M  V30 1328 H 129.119 -1.40532 0.314138 0
M  V30 1329 H 131.072 -3.90698 -1.57901 0
M  V30 1330 H 129.796 -2.69355 -1.84703 0
M  V30 1331 H 128.455 -3.66564 0.0510292 0
M  V30 1332 H 128.103 -4.47984 -2.28734 0
M  V30 1333 H 127.803 -5.77238 -1.09865 0
M  V30 1334 H 129.327 -5.75833 -2.03098 0
M  V30 1335 H 130.741 -5.72796 0.240257 0
M  V30 1336 H 129.138 -5.91559 1.00888 0
M  V30 1337 H 130.208 -4.60144 1.52957 0
M  V30 1338 N 131.551 -0.354651 -1.53558 0
M  V30 1339 C 132.461 0.50515 -2.29097 0
M  V30 1340 C 133.477 1.10223 -1.34636 0
M  V30 1341 O 134.653 1.11553 -1.67684 0
M  V30 1342 C 131.718 1.63479 -3.05738 0
M  V30 1343 C 130.779 1.06636 -4.15845 0
M  V30 1344 C 130.012 2.14217 -4.88822 0
M  V30 1345 O 130.235 3.35137 -4.61562 0
M  V30 1346 O 129.169 1.77887 -5.75013 0
M  V30 1347 H 132.995 -0.109237 -3.03503 0
M  V30 1348 H 130.58 -0.119357 -1.48922 0
M  V30 1349 H 132.462 2.2918 -3.5363 0
M  V30 1350 H 131.137 2.23478 -2.34178 0
M  V30 1351 H 130.044 0.373565 -3.7223 0
M  V30 1352 H 131.377 0.511081 -4.89539 0
M  V30 1353 N 133.029 1.57378 -0.0835403 0
M  V30 1354 C 134.445 1.57246 0.273109 0
M  V30 1355 C 134.645 1.09385 1.69225 0
M  V30 1356 O 133.701 0.765051 2.40631 0
M  V30 1357 C 135.014 3.00614 0.0720628 0
M  V30 1358 C 136.562 3.12684 0.1407 0
M  V30 1359 C 137.037 4.57989 -0.0322094 0
M  V30 1360 N 138.528 4.63194 0.0230085 0
M  V30 1361 C 139.263 5.73335 -0.0861941 0
M  V30 1362 N 138.759 6.9235 -0.24958 0
M  V30 1363 N 140.552 5.62093 -0.0282886 0
M  V30 1364 H 132.703 1.86801 -1.0109 0
M  V30 1365 H 134.966 0.861687 -0.395222 0
M  V30 1366 H 134.672 3.39786 -0.907662 0
M  V30 1367 H 134.546 3.68193 0.81936 0
M  V30 1368 H 136.933 2.73391 1.11092 0
M  V30 1369 H 137.014 2.47719 -0.637896 0
M  V30 1370 H 136.658 4.97973 -0.999247 0
M  V30 1371 H 136.588 5.21 0.765937 0
M  V30 1372 H 139.079 3.77613 0.14722 0
M  V30 1373 H 139.392 7.72117 -0.324733 0
M  V30 1374 H 137.737 6.94415 -0.285097 0
M  V30 1375 H 140.928 4.67997 0.0981408 0
M  V30 1376 H 141.101 6.47895 -0.116845 0
M  V30 1377 N 134.507 -0.190092 1.56449 0
M  V30 1378 C 135.454 -1.23557 1.94942 0
M  V30 1379 C 136.424 -1.44972 0.810696 0
M  V30 1380 O 137.609 -1.58023 1.06927 0
M  V30 1381 C 134.749 -2.57416 2.2985 0
M  V30 1382 C 133.862 -2.43537 3.5681 0
M  V30 1383 C 132.997 -3.70134 3.81017 0
M  V30 1384 C 132.036 -3.51109 5.01387 0
M  V30 1385 N 131.173 -4.6973 5.21822 0
M  V30 1386 H 136.013 -0.900304 2.84075 0
M  V30 1387 H 133.55 -0.43318 1.40577 0
M  V30 1388 H 135.508 -3.35409 2.48106 0
M  V30 1389 H 134.138 -2.88975 1.43852 0
M  V30 1390 H 133.19 -1.56816 3.46573 0
M  V30 1391 H 134.502 -2.25415 4.4496 0
M  V30 1392 H 133.656 -4.56566 3.9954 0
M  V30 1393 H 132.395 -3.91215 2.91207 0
M  V30 1394 H 131.4 -2.63063 4.82782 0
M  V30 1395 H 132.625 -3.31468 5.9271 0
M  V30 1396 H 130.571 -4.91065 4.34961 0
M  V30 1397 H 130.488 -4.54452 6.0416 0
M  V30 1398 H 131.756 -5.57499 5.44808 0
M  V30 1399 N 135.985 -1.50799 -0.457987 0
M  V30 1400 C 137.233 -1.62121 -1.2067 0
M  V30 1401 C 137.554 -0.329793 -1.92191 0
M  V30 1402 O 136.824 0.653409 -1.84682 0
M  V30 1403 H 135.404 -0.597441 -0.448411 0
M  V30 1404 H 138.066 -1.87637 -0.527096 0
M  V30 1405 H 137.162 -2.43882 -1.94751 0
M  V30 1406 N 137.463 0.71206 -1.40597 0
M  V30 1407 C 138.373 1.8562 -1.43466 0
M  V30 1408 C 139.389 1.70902 -0.326902 0
M  V30 1409 O 140.565 1.93105 -0.572043 0
M  V30 1410 C 137.63 3.21451 -1.29884 0
M  V30 1411 C 136.691 3.48398 -2.50833 0
M  V30 1412 C 135.924 4.77749 -2.3789 0
M  V30 1413 O 136.147 5.53089 -1.39459 0
M  V30 1414 O 135.081 5.05111 -3.27333 0
M  V30 1415 H 138.907 1.86155 -2.39958 0
M  V30 1416 H 136.492 0.86295 -1.21957 0
M  V30 1417 H 138.374 4.02579 -1.24531 0
M  V30 1418 H 137.049 3.21636 -0.364997 0
M  V30 1419 H 135.956 2.67265 -2.61763 0
M  V30 1420 H 137.289 3.53014 -3.4299 0
M  V30 1421 N 138.941 1.26152 0.944643 0
M  V30 1422 C 140.357 1.03189 1.21754 0
M  V30 1423 C 140.557 -0.245112 2.00004 0
M  V30 1424 O 139.613 -0.955176 2.33736 0
M  V30 1425 C 140.926 2.26119 1.98219 0
M  V30 1426 C 142.474 2.30984 2.11224 0
M  V30 1427 C 142.949 3.53597 2.91089 0
M  V30 1428 N 144.44 3.54053 2.98664 0
M  V30 1429 C 145.175 4.45593 3.60881 0
M  V30 1430 N 144.671 5.47416 4.24626 0
M  V30 1431 N 146.464 4.33252 3.58119 0
M  V30 1432 H 138.615 2.08177 0.421437 0
M  V30 1433 H 140.878 0.914723 0.248969 0
M  V30 1434 H 140.584 3.18984 1.48128 0
M  V30 1435 H 140.458 2.3009 2.98895 0
M  V30 1436 H 142.845 1.38635 2.60508 0
M  V30 1437 H 142.926 2.31026 1.09821 0
M  V30 1438 H 142.57 4.46273 2.42493 0
M  V30 1439 H 142.5 3.50802 3.92741 0
M  V30 1440 H 144.991 2.80403 2.53343 0
M  V30 1441 H 145.304 6.13459 4.69987 0
M  V30 1442 H 143.649 5.51278 4.23223 0
M  V30 1443 H 146.84 3.52924 3.0751 0
M  V30 1444 H 147.013 5.04786 4.06319 0
M  V30 1445 N 140.419 -1.14872 1.07899 0
M  V30 1446 C 141.665 -1.86064 0.806725 0
M  V30 1447 C 141.998 -1.82434 -0.665706 0
M  V30 1448 O 141.273 -1.25138 -1.48899 0
M  V30 1449 C 141.556 -3.34929 1.32267 0
M  V30 1450 C 141.409 -3.47161 2.86006 0
M  V30 1451 C 142.728 -4.29863 0.943717 0
M  V30 1452 H 139.847 -0.675591 0.294526 0
M  V30 1453 H 142.489 -1.34925 1.33773 0
M  V30 1454 H 140.639 -3.78611 0.870974 0
M  V30 1455 H 142.311 -3.12302 3.39507 0
M  V30 1456 H 140.554 -2.88539 3.23925 0
M  V30 1457 H 141.225 -4.51777 3.17177 0
M  V30 1458 H 143.701 -3.9417 1.33302 0
M  V30 1459 H 142.577 -5.32494 1.33198 0
M  V30 1460 H 142.838 -4.41846 -0.149796 0
M  V30 1461 N 141.898 -0.863906 -1.31812 0
M  V30 1462 C 142.861 -0.320212 -2.26952 0
M  V30 1463 C 143.861 0.525369 -1.51975 0
M  V30 1464 O 145.051 0.335547 -1.70938 0
M  V30 1465 C 142.183 0.545919 -3.365 0
M  V30 1466 H 143.376 -1.16004 -2.76556 0
M  V30 1467 H 140.929 -0.638995 -1.42641 0
M  V30 1468 H 141.664 1.40718 -2.92179 0
M  V30 1469 H 141.449 -0.0594674 -3.92055 0
M  V30 1470 H 142.939 0.918796 -4.07367 0
M  V30 1471 N 143.376 1.44774 -0.622745 0
M  V30 1472 C 144.306 2.33382 0.0741861 0
M  V30 1473 C 145.287 1.47719 0.843387 0
M  V30 1474 O 146.472 1.76458 0.810934 0
M  V30 1475 C 143.602 3.30663 1.06204 0
M  V30 1476 C 142.556 4.26079 0.405037 0
M  V30 1477 C 141.882 5.13165 1.5022 0
M  V30 1478 C 143.182 5.1781 -0.683414 0
M  V30 1479 H 144.876 2.91905 -0.665713 0
M  V30 1480 H 142.422 1.40363 -0.321587 0
M  V30 1481 H 144.375 3.9153 1.55827 0
M  V30 1482 H 143.099 2.70331 1.83272 0
M  V30 1483 H 141.758 3.66532 -0.0704683 0
M  V30 1484 H 141.406 4.49191 2.26355 0
M  V30 1485 H 141.106 5.77812 1.06803 0
M  V30 1486 H 142.63 5.76902 2.00041 0
M  V30 1487 H 144.044 5.72661 -0.270631 0
M  V30 1488 H 142.441 5.91015 -1.04023 0
M  V30 1489 H 143.511 4.59326 -1.55395 0
M  V30 1490 N 144.854 0.36279 1.53368 0
M  V30 1491 C 145.784 -0.476976 2.28576 0
M  V30 1492 C 146.765 -1.08631 1.30894 0
M  V30 1493 O 147.95 -1.10409 1.59761 0
M  V30 1494 C 145.08 -1.61828 3.07293 0
M  V30 1495 C 144.034 -1.13633 4.1264 0
M  V30 1496 C 143.36 -2.36766 4.79423 0
M  V30 1497 C 144.66 -0.223061 5.21823 0
M  V30 1498 H 146.354 0.150474 2.99022 0
M  V30 1499 H 143.9 0.0738103 1.43811 0
M  V30 1500 H 145.853 -2.21237 3.58653 0
M  V30 1501 H 144.577 -2.27292 2.34533 0
M  V30 1502 H 143.236 -0.564945 3.62221 0
M  V30 1503 H 142.884 -3.0068 4.03238 0
M  V30 1504 H 142.584 -2.05192 5.50609 0
M  V30 1505 H 144.108 -2.96865 5.33576 0
M  V30 1506 H 145.522 -0.724545 5.68703 0
M  V30 1507 H 143.919 0.001678 6.001 0
M  V30 1508 H 144.989 0.735553 4.79289 0
M  V30 1509 N 146.332 -1.57332 0.0918853 0
M  V30 1510 C 147.578 -1.94524 -0.573425 0
M  V30 1511 C 147.911 -0.973578 -1.68033 0
M  V30 1512 O 147.186 -0.00609226 -1.94499 0
M  V30 1513 C 147.469 -3.41858 -1.13161 0
M  V30 1514 C 147.322 -4.4979 -0.0299747 0
M  V30 1515 C 148.641 -3.90435 -2.03098 0
M  V30 1516 H 145.76 -0.70734 -0.206975 0
M  V30 1517 H 148.402 -1.89309 0.161942 0
M  V30 1518 H 146.552 -3.46433 -1.7583 0
M  V30 1519 H 148.224 -4.57327 0.604112 0
M  V30 1520 H 146.467 -4.291 0.636833 0
M  V30 1521 H 147.138 -5.50069 -0.461287 0
M  V30 1522 H 149.614 -3.87992 -1.50338 0
M  V30 1523 H 148.49 -4.94097 -2.39081 0
M  V30 1524 H 148.751 -3.29541 -2.94712 0
M  V30 1525 N 147.81 0.181792 -1.56548 0
M  V30 1526 C 149.038 0.915947 -1.85521 0
M  V30 1527 C 149.453 1.76282 -0.676016 0
M  V30 1528 O 148.81 1.79012 0.355077 0
M  V30 1529 C 148.861 1.80126 -3.13427 0
M  V30 1530 O 148.582 0.988562 -4.26801 0
M  V30 1531 C 150.083 2.64597 -3.55673 0
M  V30 1532 H 147.303 0.26661 -0.61576 0
M  V30 1533 H 149.847 0.185039 -2.03661 0
M  V30 1534 H 148.002 2.48563 -2.97145 0
M  V30 1535 H 148.416 1.59308 -4.99721 0
M  V30 1536 H 149.89 3.2235 -4.48101 0
M  V30 1537 H 150.367 3.38958 -2.79292 0
M  V30 1538 H 150.973 2.0151 -3.74532 0
M  V30 1539 N 149.288 1.51039 0.449983 0
M  V30 1540 C 150.704 1.38934 0.785462 0
M  V30 1541 C 150.904 0.461817 1.96136 0
M  V30 1542 O 149.96 -0.0877389 2.52348 0
M  V30 1543 C 151.273 2.80724 1.0777 0
M  V30 1544 C 152.821 2.89787 1.1829 0
M  V30 1545 C 153.296 4.32457 1.50815 0
M  V30 1546 N 154.787 4.35505 1.57764 0
M  V30 1547 C 155.522 5.42914 1.84477 0
M  V30 1548 N 155.018 6.60502 2.09068 0
M  V30 1549 N 156.811 5.3038 1.86155 0
M  V30 1550 H 148.962 2.09904 -0.324647 0
M  V30 1551 H 151.225 0.944378 -0.0827957 0
M  V30 1552 H 150.931 3.50531 0.286498 0
M  V30 1553 H 150.805 3.19273 2.00859 0
M  V30 1554 H 153.192 2.20186 1.96474 0
M  V30 1555 H 153.273 2.54752 0.231314 0
M  V30 1556 H 152.917 5.02603 0.731622 0
M  V30 1557 H 152.847 4.64995 2.47158 0
M  V30 1558 H 155.338 3.50724 1.40715 0
M  V30 1559 H 155.651 7.38158 2.28785 0
M  V30 1560 H 153.996 6.63639 2.06416 0
M  V30 1561 H 157.187 4.37505 1.66454 0
M  V30 1562 H 157.36 6.1417 2.06637 0
M  V30 1563 N 150.766 -0.704594 1.40972 0
M  V30 1564 C 152.014 -1.46169 1.39568 0
M  V30 1565 C 152.335 -1.95 0.00253745 0
M  V30 1566 O 151.605 -1.71095 -0.954114 0
M  V30 1567 H 150.185 -0.542326 0.513704 0
M  V30 1568 H 152.847 -0.834553 1.76128 0
M  V30 1569 H 151.943 -2.32922 2.07735 0
M  V30 1570 N 152.244 -1.26651 -0.937939 0
M  V30 1571 C 153.491 -1.12387 -1.6845 0
M  V30 1572 C 153.819 0.332208 -1.91642 0
M  V30 1573 O 153.074 1.2602 -1.49725 0
M  V30 1574 C 153.373 -1.84168 -3.06295 0
M  V30 1575 C 153.039 -3.34056 -3.02849 0
M  V30 1576 C 151.701 -3.74942 -3.01616 0
M  V30 1577 C 154.053 -4.29741 -2.9491 0
M  V30 1578 C 151.381 -5.09894 -2.90215 0
M  V30 1579 C 153.733 -5.64738 -2.8505 0
M  V30 1580 C 152.397 -6.0493 -2.82162 0
M  V30 1581 H 151.667 -0.411252 -0.616403 0
M  V30 1582 H 154.314 -1.57134 -1.09459 0
M  V30 1583 H 152.619 -1.319 -3.6893 0
M  V30 1584 H 154.316 -1.70569 -3.62915 0
M  V30 1585 H 150.906 -3.01534 -3.0459 0
M  V30 1586 H 155.09 -3.99133 -2.94969 0
M  V30 1587 H 150.346 -5.40194 -2.86358 0
M  V30 1588 H 154.52 -6.38561 -2.77872 0
M  V30 1589 H 152.147 -7.09457 -2.73084 0
M  V30 1590 N 153.722 1.14298 -1.08507 0
M  V30 1591 C 155.138 1.37347 -0.812901 0
M  V30 1592 C 155.338 1.93052 0.577325 0
M  V30 1593 O 154.394 2.14389 1.33393 0
M  V30 1594 C 155.707 2.33359 -1.89642 0
M  V30 1595 C 157.255 2.46996 -1.92255 0
M  V30 1596 C 157.73 3.46309 -2.99724 0
M  V30 1597 N 159.221 3.53853 -2.98902 0
M  V30 1598 C 159.956 4.3055 -3.787 0
M  V30 1599 N 159.452 5.10482 -4.6838 0
M  V30 1600 N 161.245 4.25757 -3.66998 0
M  V30 1601 H 153.396 0.764867 -1.9815 0
M  V30 1602 H 155.659 0.398966 -0.859959 0
M  V30 1603 H 155.365 1.99565 -2.89597 0
M  V30 1604 H 155.239 3.33274 -1.76659 0
M  V30 1605 H 157.626 2.80081 -0.929445 0
M  V30 1606 H 157.707 1.47039 -2.09316 0
M  V30 1607 H 157.351 3.13957 -3.99241 0
M  V30 1608 H 157.281 4.46049 -2.79907 0
M  V30 1609 H 159.772 2.96812 -2.33904 0
M  V30 1610 H 160.085 5.66284 -5.25873 0
M  V30 1611 H 158.43 5.09747 -4.72422 0
M  V30 1612 H 161.621 3.62383 -2.96304 0
M  V30 1613 H 161.794 4.85279 -4.29427 0
M  V30 1614 N 155.201 0.870884 1.31352 0
M  V30 1615 C 156.478 0.402907 1.91405 0
M  V30 1616 C 156.858 -1.11512 1.79244 0
M  V30 1617 O 156.206 -1.94411 1.2007 0
M  V30 1618 C 156.416 0.885301 3.37585 0
M  V30 1619 C 157.764 0.911971 4.14691 0
M  V30 1620 O 158.788 0.831016 3.46371 0
M  V30 1621 O 157.647 1.02927 5.3672 0
M  V30 1622 H 154.741 0.120698 0.818145 0
M  V30 1623 H 157.287 0.958857 1.40014 0
M  V30 1624 H 156.059 1.92889 3.40455 0
M  V30 1625 H 155.682 0.307714 3.96407 0
M  V30 1626 N 156.679 -1.44442 0.630414 0
M  V30 1627 C 157.609 -2.33418 -0.0618083 0
M  V30 1628 C 158.59 -1.48165 -0.835541 0
M  V30 1629 O 159.775 -1.76886 -0.801564 0
M  V30 1630 C 156.905 -3.31222 -1.04449 0
M  V30 1631 C 155.859 -4.26288 -0.382436 0
M  V30 1632 C 155.185 -5.13954 -1.47497 0
M  V30 1633 C 156.485 -5.1744 0.710865 0
M  V30 1634 H 158.179 -2.91548 0.681184 0
M  V30 1635 H 155.725 -1.40191 0.329026 0
M  V30 1636 H 157.678 -3.92351 -1.53748 0
M  V30 1637 H 156.402 -2.71299 -1.81836 0
M  V30 1638 H 155.061 -3.6649 0.0899054 0
M  V30 1639 H 154.709 -4.50385 -2.2397 0
M  V30 1640 H 154.409 -5.7837 -1.03737 0
M  V30 1641 H 155.933 -5.77955 -1.96979 0
M  V30 1642 H 157.347 -5.72509 0.300996 0
M  V30 1643 H 155.744 -5.90455 1.07156 0
M  V30 1644 H 156.814 -4.58496 1.57829 0
M  V30 1645 N 158.157 -0.370918 -1.53173 0
M  V30 1646 C 159.087 0.464847 -2.28826 0
M  V30 1647 C 160.068 1.07936 -1.31468 0
M  V30 1648 O 161.253 1.0956 -1.60344 0
M  V30 1649 C 158.383 1.60196 -3.08147 0
M  V30 1650 C 157.337 1.11443 -4.13237 0
M  V30 1651 C 156.663 2.3422 -4.80672 0
M  V30 1652 C 157.963 0.195384 -5.21934 0
M  V30 1653 H 159.657 -0.166329 -2.98938 0
M  V30 1654 H 157.203 -0.0814359 -1.4377 0
M  V30 1655 H 159.156 2.19332 -3.59822 0
M  V30 1656 H 157.88 2.26045 -2.35735 0
M  V30 1657 H 156.539 0.545727 -3.62515 0
M  V30 1658 H 156.187 2.98537 -4.04827 0
M  V30 1659 H 155.887 2.02269 -5.51689 0
M  V30 1660 H 157.411 2.94032 -5.35143 0
M  V30 1661 H 158.825 0.694375 -5.69079 0
M  V30 1662 H 157.222 -0.0335027 -6.00091 0
M  V30 1663 H 158.292 -0.760961 -4.78892 0
M  V30 1664 N 159.635 1.57281 -0.100228 0
M  V30 1665 C 160.585 2.10848 0.86759 0
M  V30 1666 C 161.569 1.02473 1.24049 0
M  V30 1667 O 162.761 1.28739 1.21471 0
M  V30 1668 C 159.89 2.69648 2.12474 0
M  V30 1669 C 158.976 3.85074 1.77704 0
M  V30 1670 N 159.367 4.92897 1.13518 0
M  V30 1671 C 157.665 3.94905 2.07282 0
M  V30 1672 C 158.366 5.73475 0.974735 0
M  V30 1673 N 157.342 5.22675 1.4937 0
M  V30 1674 H 161.144 2.91594 0.367471 0
M  V30 1675 H 158.658 1.62074 0.102829 0
M  V30 1676 H 160.655 3.06356 2.82757 0
M  V30 1677 H 159.315 1.90359 2.63047 0
M  V30 1678 H 160.326 5.11662 0.801381 0
M  V30 1679 H 157.003 3.26633 2.60033 0
M  V30 1680 H 158.393 6.70238 0.472364 0
M  V30 1681 N 161.113 -0.173488 1.56642 0
M  V30 1682 C 162.362 -0.888758 1.81063 0
M  V30 1683 C 162.675 -1.83506 0.67712 0
M  V30 1684 O 163.881 -2.59254 0.806206 0
M  V30 1685 C 162.337 -1.63091 3.20826 0
M  V30 1686 C 161.945 -0.728357 4.4204 0
M  V30 1687 C 163.689 -2.33454 3.54541 0
M  V30 1688 C 161.596 -1.47062 5.72823 0
M  V30 1689 H 160.526 -0.335618 0.675186 0
M  V30 1690 H 163.177 -0.141712 1.82952 0
M  V30 1691 H 161.559 -2.42263 3.13248 0
M  V30 1692 H 162.733 0.0262449 4.60793 0
M  V30 1693 H 161.048 -0.134492 4.16183 0
M  V30 1694 H 163.645 -2.89578 4.49498 0
M  V30 1695 H 163.988 -3.08687 2.79317 0
M  V30 1696 H 164.521 -1.61227 3.63663 0
M  V30 1697 H 161.26 -0.760658 6.51072 0
M  V30 1698 H 160.78 -2.1986 5.58052 0
M  V30 1699 H 162.459 -2.01868 6.14702 0
M  V30 1700 N 162.591 -1.51276 -0.441967 0
M  V30 1701 C 163.839 -1.63392 -1.18943 0
M  V30 1702 C 164.16 -0.350159 -1.9183 0
M  V30 1703 O 163.43 0.633784 -1.85364 0
M  V30 1704 H 162.01 -0.602164 -0.442049 0
M  V30 1705 H 164.672 -1.88186 -0.507165 0
M  V30 1706 H 163.768 -2.45934 -1.92154 0
M  V30 1707 N 164.069 0.697108 -1.41344 0
M  V30 1708 C 165.297 1.48593 -1.43972 0
M  V30 1709 C 165.712 1.88747 -0.0445612 0
M  V30 1710 O 165.069 1.56682 0.935785 0
M  V30 1711 C 165.12 2.74946 -2.34706 0
M  V30 1712 O 164.841 2.36484 -3.68791 0
M  V30 1713 C 166.342 3.687 -2.46121 0
M  V30 1714 H 163.562 0.457964 -0.490418 0
M  V30 1715 H 166.106 0.858429 -1.8561 0
M  V30 1716 H 164.261 3.33937 -1.9638 0
M  V30 1717 H 164.675 3.17918 -4.17167 0
M  V30 1718 H 166.149 4.54145 -3.13777 0
M  V30 1719 H 166.626 4.13081 -1.49199 0
M  V30 1720 H 167.232 3.15613 -2.85076 0
M  V30 1721 N 165.547 1.27147 0.931209 0
M  V30 1722 C 166.479 1.05364 2.03546 0
M  V30 1723 C 167.492 0.0108438 1.62796 0
M  V30 1724 O 168.681 0.25202 1.76712 0
M  V30 1725 C 165.781 0.575566 3.33977 0
M  V30 1726 C 164.954 1.68985 4.03439 0
M  V30 1727 C 164.013 1.20813 5.12143 0
M  V30 1728 O 163.039 1.90712 5.363 0
M  V30 1729 N 164.241 0.0618851 5.80467 0
M  V30 1730 H 167.006 2.00454 2.22796 0
M  V30 1731 H 164.567 1.18666 1.10136 0
M  V30 1732 H 166.559 0.237264 4.04004 0
M  V30 1733 H 165.129 -0.282016 3.11325 0
M  V30 1734 H 164.349 2.19861 3.27192 0
M  V30 1735 H 165.637 2.4378 4.46597 0
M  V30 1736 H 165.035 -0.521621 5.6329 0
M  V30 1737 H 163.592 -0.217264 6.51438 0
M  V30 1738 N 167.025 -1.13721 1.09112 0
M  V30 1739 C 167.988 -2.17222 0.731241 0
M  V30 1740 C 168.988 -1.59035 -0.237566 0
M  V30 1741 O 170.178 -1.74192 -0.0161704 0
M  V30 1742 C 167.31 -3.40804 0.0808443 0
M  V30 1743 H 168.503 -2.50573 1.64783 0
M  V30 1744 H 166.056 -1.28493 0.889897 0
M  V30 1745 H 166.791 -3.1304 -0.847127 0
M  V30 1746 H 166.576 -3.84306 0.777896 0
M  V30 1747 H 168.066 -4.1731 -0.155657 0
M  V30 1748 N 168.503 -0.877838 -1.30888 0
M  V30 1749 C 169.919 -0.570844 -1.49042 0
M  V30 1750 C 170.119 0.893159 -1.80624 0
M  V30 1751 O 169.175 1.67485 -1.88958 0
M  V30 1752 C 170.488 -1.47784 -2.61878 0
M  V30 1753 C 172.036 -1.48071 -2.75761 0
M  V30 1754 C 172.511 -2.37347 -3.91702 0
M  V30 1755 N 174.002 -2.35271 -3.99001 0
M  V30 1756 C 174.737 -3.01063 -4.88004 0
M  V30 1757 N 174.233 -3.76055 -5.81854 0
M  V30 1758 N 176.026 -2.90332 -4.81315 0
M  V30 1759 H 168.177 -1.82502 -1.0866 0
M  V30 1760 H 170.44 -0.780797 -0.537644 0
M  V30 1761 H 170.146 -2.51993 -2.45341 0
M  V30 1762 H 170.02 -1.18215 -3.58197 0
M  V30 1763 H 172.407 -0.446166 -2.91708 0
M  V30 1764 H 172.488 -1.81668 -1.80085 0
M  V30 1765 H 172.132 -3.40883 -3.76512 0
M  V30 1766 H 172.062 -2.01071 -4.86701 0
M  V30 1767 H 174.553 -1.80768 -3.3186 0
M  V30 1768 H 174.866 -4.23366 -6.46514 0
M  V30 1769 H 173.211 -3.80163 -5.81808 0
M  V30 1770 H 176.402 -2.31278 -4.06974 0
M  V30 1771 H 176.575 -3.41885 -5.50471 0
M  V30 1772 N 169.982 1.44106 -0.638065 0
M  V30 1773 C 171.23 2.01579 -0.145043 0
M  V30 1774 C 171.551 1.50496 1.24 0
M  V30 1775 O 170.821 0.711374 1.82527 0
M  V30 1776 H 169.401 0.745282 -0.05063 0
M  V30 1777 H 172.063 1.76516 -0.826327 0
M  V30 1778 H 171.159 3.11877 -0.118039 0
M  V30 1779 N 171.46 0.379036 1.52974 0
M  V30 1780 C 172.737 -0.263479 1.93817 0
M  V30 1781 C 173.117 -1.65244 1.31368 0
M  V30 1782 O 172.465 -2.23448 0.477856 0
M  V30 1783 C 172.675 -0.300166 3.47707 0
M  V30 1784 C 174.023 -0.534061 4.21228 0
M  V30 1785 O 175.047 -0.38081 3.54159 0
M  V30 1786 O 173.906 -0.833501 5.40106 0
M  V30 1787 H 171 -0.161149 0.811147 0
M  V30 1788 H 173.546 0.432798 1.64088 0
M  V30 1789 H 172.318 0.673138 3.85467 0
M  V30 1790 H 171.941 -1.04179 3.83709 0
M  V30 1791 N 172.938 -1.57226 0.108567 0
M  V30 1792 C 173.868 -2.17778 -0.84232 0
M  V30 1793 C 174.849 -1.11487 -1.2847 0
M  V30 1794 O 176.034 -1.39681 -1.34918 0
M  V30 1795 C 173.164 -2.76888 -2.09644 0
M  V30 1796 C 172.118 -3.88669 -1.79221 0
M  V30 1797 C 171.444 -4.34541 -3.11574 0
M  V30 1798 C 172.744 -5.11251 -1.06864 0
M  V30 1799 H 174.438 -2.97489 -0.337774 0
M  V30 1800 H 171.984 -1.43097 -0.161025 0
M  V30 1801 H 173.937 -3.17904 -2.76614 0
M  V30 1802 H 172.661 -1.94451 -2.62405 0
M  V30 1803 H 171.32 -3.48213 -1.14644 0
M  V30 1804 H 170.968 -3.48977 -3.62249 0
M  V30 1805 H 170.668 -5.09914 -2.91996 0
M  V30 1806 H 172.192 -4.782 -3.7968 0
M  V30 1807 H 173.606 -5.49352 -1.63968 0
M  V30 1808 H 172.003 -5.9214 -0.974178 0
M  V30 1809 H 173.073 -4.8487 -0.0536168 0
M  V30 1810 N 174.416 0.165178 -1.56732 0
M  V30 1811 C 175.663 0.880807 -1.8234 0
M  V30 1812 C 175.991 1.81977 -0.686621 0
M  V30 1813 O 175.246 1.92971 0.325697 0
M  V30 1814 C 175.545 1.70405 -3.1416 0
M  V30 1815 C 175.211 0.913475 -4.4155 0
M  V30 1816 C 173.873 0.695303 -4.7615 0
M  V30 1817 C 176.225 0.359349 -5.1996 0
M  V30 1818 C 173.553 -0.0879947 -5.86634 0
M  V30 1819 C 175.905 -0.410893 -6.31264 0
M  V30 1820 C 174.569 -0.639808 -6.64427 0
M  V30 1821 H 173.839 0.32231 -0.667231 0
M  V30 1822 H 176.486 0.145402 -1.90947 0
M  V30 1823 H 174.791 2.50903 -3.00923 0
M  V30 1824 H 176.488 2.26091 -3.31186 0
M  V30 1825 H 173.078 1.09357 -4.14414 0
M  V30 1826 H 177.262 0.515228 -4.93618 0
M  V30 1827 H 172.518 -0.27503 -6.10781 0
M  V30 1828 H 176.692 -0.847494 -6.91224 0
M  V30 1829 H 174.319 -1.24864 -7.49875 0
M  V30 1830 N 175.894 1.51508 0.433938 0
M  V30 1831 C 177.171 1.54888 1.19453 0
M  V30 1832 C 177.551 0.315154 2.08734 0
M  V30 1833 O 176.899 -0.699558 2.17528 0
M  V30 1834 C 177.109 2.86467 1.99342 0
M  V30 1835 C 178.457 3.38545 2.56267 0
M  V30 1836 O 179.481 2.88041 2.0955 0
M  V30 1837 O 178.34 4.26675 3.41483 0
M  V30 1838 H 175.434 0.622863 0.544032 0
M  V30 1839 H 177.98 1.63823 0.442732 0
M  V30 1840 H 176.752 3.67718 1.33788 0
M  V30 1841 H 176.375 2.8071 2.8158 0
M  V30 1842 N 177.372 -0.689602 1.41712 0
M  V30 1843 C 178.302 -1.81577 1.46806 0
M  V30 1844 C 179.283 -1.66945 0.326105 0
M  V30 1845 O 180.468 -1.86588 0.538377 0
M  V30 1846 C 177.598 -3.19762 1.35535 0
M  V30 1847 C 176.552 -3.49107 2.47605 0
M  V30 1848 C 175.878 -4.86711 2.21397 0
M  V30 1849 C 177.178 -3.47483 3.89939 0
M  V30 1850 H 178.872 -1.7757 2.41058 0
M  V30 1851 H 176.418 -0.852887 1.16025 0
M  V30 1852 H 178.371 -3.98263 1.3771 0
M  V30 1853 H 177.095 -3.24409 0.377708 0
M  V30 1854 H 175.754 -2.72959 2.44722 0
M  V30 1855 H 175.402 -4.8799 1.21961 0
M  V30 1856 H 175.102 -5.0731 2.96497 0
M  V30 1857 H 176.626 -5.67515 2.25297 0
M  V30 1858 H 178.04 -4.1598 3.94505 0
M  V30 1859 H 176.437 -3.79615 4.64771 0
M  V30 1860 H 177.507 -2.46341 4.17665 0
M  V30 1861 N 178.85 -1.27639 -0.924453 0
M  V30 1862 C 179.813 -1.10681 -2.00705 0
M  V30 1863 C 180.813 -0.0497823 -1.60723 0
M  V30 1864 O 182.003 -0.294654 -1.7169 0
M  V30 1865 C 179.135 -0.687164 -3.33902 0
M  V30 1866 H 180.328 -2.06817 -2.17179 0
M  V30 1867 H 177.881 -1.10473 -1.10569 0
M  V30 1868 H 178.616 0.275439 -3.23128 0
M  V30 1869 H 178.401 -1.45061 -3.6428 0
M  V30 1870 H 179.891 -0.590853 -4.13399 0
M  V30 1871 N 180.328 1.1314 -1.09713 0
M  V30 1872 C 181.574 1.84757 -0.836224 0
M  V30 1873 C 181.907 1.8347 0.636598 0
M  V30 1874 O 181.182 1.27491 1.46889 0
M  V30 1875 C 181.465 3.32782 -1.37578 0
M  V30 1876 C 181.318 3.42567 -2.91493 0
M  V30 1877 C 182.637 4.28307 -1.01198 0
M  V30 1878 H 179.756 0.67082 -0.305236 0
M  V30 1879 H 182.398 1.3278 -1.35903 0
M  V30 1880 H 180.548 3.77177 -0.931097 0
M  V30 1881 H 182.22 3.06862 -3.44432 0
M  V30 1882 H 180.463 2.83349 -3.28475 0
M  V30 1883 H 181.134 4.46674 -3.24324 0
M  V30 1884 H 183.61 3.91999 -1.39556 0
M  V30 1885 H 182.486 5.30307 -1.41653 0
M  V30 1886 H 182.747 4.42029 0.0794833 0
M  V30 1887 N 181.806 0.884767 1.30421 0
M  V30 1888 C 183.217 0.553656 1.78302 0
M  V30 1889 C 183.568 -0.930153 1.7275 0
M  V30 1890 O 182.693 -1.72681 1.30423 0
M  V30 1891 C 183.288 0.998234 3.2376 0
M  V30 1892 C 181.847 0.71854 3.69478 0
M  V30 1893 C 180.994 1.18132 2.50879 0
M  V30 1894 H 183.945 1.06901 1.17294 0
M  V30 1895 H 183.966 0.327118 3.79091 0
M  V30 1896 H 183.478 2.0782 3.27769 0
M  V30 1897 H 181.579 -0.349444 3.70958 0
M  V30 1898 H 181.692 1.30595 4.60958 0
M  V30 1899 H 180.056 0.600669 2.47516 0
M  V30 1900 H 180.839 2.26902 2.57624 0
M  V30 1901 N 183.284 -1.43765 0.645699 0
M  V30 1902 C 184.217 -2.2798 -0.100072 0
M  V30 1903 C 185.195 -1.39391 -0.837194 0
M  V30 1904 O 186.379 -1.68833 -0.838306 0
M  V30 1905 C 183.506 -3.18643 -1.14823 0
M  V30 1906 C 182.552 -4.2344 -0.510009 0
M  V30 1907 S 183.385 -5.30761 0.710824 0
M  V30 1908 C 184.541 -6.24992 -0.33699 0
M  V30 1909 H 184.774 -2.90884 0.614322 0
M  V30 1910 H 182.307 -1.48166 0.434304 0
M  V30 1911 H 184.265 -3.71424 -1.74799 0
M  V30 1912 H 182.926 -2.54932 -1.8349 0
M  V30 1913 H 182.119 -4.86948 -1.29991 0
M  V30 1914 H 181.721 -3.73997 0.0154577 0
M  V30 1915 H 184.013 -6.66691 -1.20537 0
M  V30 1916 H 184.956 -7.07612 0.262879 0
M  V30 1917 H 185.364 -5.60517 -0.669425 0
M  V30 1918 N 184.763 -0.387143 -1.52771 0
M  V30 1919 C 186.174 0.0873634 -1.86495 0
M  V30 1920 C 186.525 1.46336 -1.30691 0
M  V30 1921 O 185.65 2.068 -0.637409 0
M  V30 1922 C 186.245 0.165305 -3.38396 0
M  V30 1923 C 184.804 0.584101 -3.7184 0
M  V30 1924 C 183.951 -0.255279 -2.76122 0
M  V30 1925 H 186.902 -0.605104 -1.46711 0
M  V30 1926 H 186.923 0.984848 -3.67534 0
M  V30 1927 H 186.435 -0.836301 -3.78982 0
M  V30 1928 H 184.536 1.59315 -3.36823 0
M  V30 1929 H 184.649 0.343749 -4.77865 0
M  V30 1930 H 183.013 0.279126 -2.53166 0
M  V30 1931 H 183.796 -1.25482 -3.19545 0
M  V30 1932 N 186.241 1.57166 -0.116904 0
M  V30 1933 C 187.151 2.18745 0.847812 0
M  V30 1934 C 188.167 1.163 1.29423 0
M  V30 1935 O 189.343 1.48761 1.35765 0
M  V30 1936 C 186.408 2.77307 2.0809 0
M  V30 1937 C 185.469 3.94781 1.68661 0
M  V30 1938 C 184.702 4.50541 2.86091 0
M  V30 1939 O 184.925 4.05202 4.01456 0
M  V30 1940 O 183.859 5.41256 2.63298 0
M  V30 1941 H 187.685 3.01632 0.353778 0
M  V30 1942 H 185.27 1.49005 0.108599 0
M  V30 1943 H 187.152 3.14647 2.80313 0
M  V30 1944 H 185.827 1.97452 2.56504 0
M  V30 1945 H 184.734 3.62214 0.935518 0
M  V30 1946 H 186.067 4.76065 1.24991 0
M  V30 1947 N 187.719 -0.156864 1.56817 0
M  V30 1948 C 188.965 -0.872416 1.83076 0
M  V30 1949 C 189.298 -1.81261 0.697001 0
M  V30 1950 O 188.573 -1.92171 -0.30008 0
M  V30 1951 C 188.856 -1.65551 3.19789 0
M  V30 1952 C 188.709 -0.737467 4.43713 0
M  V30 1953 C 190.028 -2.62012 3.53606 0
M  V30 1954 H 187.147 -0.315715 0.665953 0
M  V30 1955 H 189.789 -0.138004 1.89498 0
M  V30 1956 H 187.939 -2.28159 3.14445 0
M  V30 1957 H 189.611 -0.123143 4.61136 0
M  V30 1958 H 187.854 -0.0464067 4.33775 0
M  V30 1959 H 188.525 -1.32122 5.35955 0
M  V30 1960 H 191.001 -2.09525 3.59497 0
M  V30 1961 H 189.877 -3.13861 4.50314 0
M  V30 1962 H 190.138 -3.42902 2.79053 0
M  V30 1963 N 189.197 -1.51736 -0.425897 0
M  V30 1964 C 190.127 -1.76827 -1.52494 0
M  V30 1965 C 191.108 -0.618524 -1.58456 0
M  V30 1966 O 192.293 -0.862416 -1.74 0
M  V30 1967 C 189.423 -1.90374 -2.90474 0
M  V30 1968 C 188.377 -3.0588 -2.99369 0
M  V30 1969 C 187.703 -3.04625 -4.3944 0
M  V30 1970 C 189.003 -4.45644 -2.72394 0
M  V30 1971 H 190.697 -2.68855 -1.31748 0
M  V30 1972 H 188.243 -1.29372 -0.632362 0
M  V30 1973 H 190.196 -2.0651 -3.6733 0
M  V30 1974 H 188.92 -0.95004 -3.12477 0
M  V30 1975 H 187.579 -2.89467 -2.24954 0
M  V30 1976 H 187.227 -2.0701 -4.58428 0
M  V30 1977 H 186.927 -3.82195 -4.46319 0
M  V30 1978 H 188.451 -3.22869 -5.18255 0
M  V30 1979 H 189.865 -4.62348 -3.38979 0
M  V30 1980 H 188.262 -5.25006 -2.9067 0
M  V30 1981 H 189.332 -4.54893 -1.67929 0
M  V30 1982 N 190.675 0.682077 -1.42076 0
M  V30 1983 C 191.905 1.46844 -1.45329 0
M  V30 1984 C 192.313 1.89102 -0.0609328 0
M  V30 1985 O 191.656 1.58238 0.933082 0
M  V30 1986 C 191.718 2.75375 -2.31104 0
M  V30 1987 C 191.382 2.55238 -3.79081 0
M  V30 1988 C 192.379 2.20309 -4.70914 0
M  V30 1989 C 190.064 2.70459 -4.2327 0
M  V30 1990 C 192.058 2.00859 -6.04925 0
M  V30 1991 C 189.745 2.50624 -5.57343 0
M  V30 1992 C 190.743 2.15876 -6.47986 0
M  V30 1993 O 190.431 1.96227 -7.79583 0
M  V30 1994 H 190.163 0.4586 -0.496651 0
M  V30 1995 H 192.717 0.846131 -1.87162 0
M  V30 1996 H 190.947 3.40061 -1.84107 0
M  V30 1997 H 192.636 3.37231 -2.25898 0
M  V30 1998 H 193.402 2.08153 -4.38061 0
M  V30 1999 H 189.281 2.96485 -3.53012 0
M  V30 2000 H 192.825 1.7366 -6.75639 0
M  V30 2001 H 188.722 2.62375 -5.89771 0
M  V30 2002 H 189.49 2.10883 -7.90867 0
M  V30 2003 N 192.153 1.28127 0.917671 0
M  V30 2004 C 193.063 1.13556 2.05286 0
M  V30 2005 C 194.079 0.0630914 1.73886 0
M  V30 2006 O 195.255 0.271598 1.9956 0
M  V30 2007 C 192.32 0.794676 3.3747 0
M  V30 2008 C 191.381 1.94909 3.82504 0
M  V30 2009 C 190.614 1.62437 5.0838 0
M  V30 2010 O 190.837 0.536905 5.67867 0
M  V30 2011 O 189.771 2.46677 5.4903 0
M  V30 2012 H 193.597 2.08844 2.20495 0
M  V30 2013 H 191.182 1.07409 1.03845 0
M  V30 2014 H 193.064 0.618344 4.16839 0
M  V30 2015 H 191.739 -0.128581 3.23445 0
M  V30 2016 H 190.646 2.18055 3.03978 0
M  V30 2017 H 191.979 2.85291 4.01086 0
M  V30 2018 N 193.631 -1.12557 1.10312 0
M  V30 2019 C 194.541 -2.21841 0.763142 0
M  V30 2020 C 195.557 -1.72354 -0.238801 0
M  V30 2021 O 196.733 -2.01249 -0.0778746 0
M  V30 2022 C 193.798 -3.46131 0.198632 0
M  V30 2023 C 192.859 -4.10464 1.25769 0
M  V30 2024 C 192.092 -5.28821 0.72002 0
M  V30 2025 O 192.315 -5.6859 -0.453993 0
M  V30 2026 O 191.249 -5.83437 1.47935 0
M  V30 2027 H 195.075 -2.53312 1.67532 0
M  V30 2028 H 192.66 -1.20867 0.878157 0
M  V30 2029 H 194.542 -4.2125 -0.112401 0
M  V30 2030 H 193.217 -3.16338 -0.686419 0
M  V30 2031 H 192.124 -3.3713 1.62156 0
M  V30 2032 H 193.457 -4.44408 2.11571 0
M  V30 2033 N 195.109 -0.891671 -1.2995 0
M  V30 2034 C 196.355 -0.514261 -1.96171 0
M  V30 2035 C 196.688 0.935506 -1.70182 0
M  V30 2036 O 195.963 1.66204 -1.01028 0
M  V30 2037 C 196.246 -0.797719 -3.51153 0
M  V30 2038 C 196.099 -2.2986 -3.86632 0
M  V30 2039 C 197.418 -0.278749 -4.39216 0
M  V30 2040 H 194.537 -0.188314 -0.712535 0
M  V30 2041 H 197.179 -1.11689 -1.53706 0
M  V30 2042 H 195.329 -0.284826 -3.87455 0
M  V30 2043 H 197.001 -2.88042 -3.60319 0
M  V30 2044 H 195.244 -2.76257 -3.34462 0
M  V30 2045 H 195.915 -2.44753 -4.94773 0
M  V30 2046 H 198.391 -0.717825 -4.09862 0
M  V30 2047 H 197.267 -0.506353 -5.46559 0
M  V30 2048 H 197.528 0.820266 -4.34424 0
M  V30 2049 N 196.587 1.43421 -0.653314 0
M  V30 2050 C 197.517 2.33487 0.0246656 0
M  V30 2051 C 198.498 1.49475 0.811863 0
M  V30 2052 O 199.683 1.78139 0.773322 0
M  V30 2053 C 196.813 3.32841 0.99166 0
M  V30 2054 C 195.767 4.26842 0.314568 0
M  V30 2055 C 195.093 5.16236 1.39302 0
M  V30 2056 C 196.393 5.16243 -0.793095 0
M  V30 2057 H 198.087 2.90427 -0.727481 0
M  V30 2058 H 195.633 1.39649 -0.351287 0
M  V30 2059 H 197.586 3.94747 1.47487 0
M  V30 2060 H 196.31 2.74158 1.77497 0
M  V30 2061 H 194.969 3.663 -0.148199 0
M  V30 2062 H 194.617 4.53891 2.16776 0
M  V30 2063 H 194.317 5.79948 0.945223 0
M  V30 2064 H 195.841 5.81015 1.87759 0
M  V30 2065 H 197.255 5.71958 -0.392039 0
M  V30 2066 H 195.652 5.88676 -1.16536 0
M  V30 2067 H 196.722 4.55927 -1.65103 0
M  V30 2068 N 198.065 0.39524 1.52563 0
M  V30 2069 C 198.975 -0.444232 2.30356 0
M  V30 2070 C 199.991 -1.06615 1.37511 0
M  V30 2071 O 201.167 -1.07067 1.70583 0
M  V30 2072 C 198.232 -1.55315 3.09964 0
M  V30 2073 C 197.293 -0.955734 4.18526 0
M  V30 2074 C 196.526 -2.01181 4.9433 0
M  V30 2075 O 196.749 -3.22781 4.70285 0
M  V30 2076 O 195.683 -1.62579 5.79527 0
M  V30 2077 H 199.509 0.189667 3.03107 0
M  V30 2078 H 197.094 0.1588 1.48554 0
M  V30 2079 H 198.976 -2.19724 3.59582 0
M  V30 2080 H 197.651 -2.17191 2.4002 0
M  V30 2081 H 196.558 -0.274743 3.7309 0
M  V30 2082 H 197.891 -0.381109 4.90722 0
M  V30 2083 N 199.544 -1.57102 0.125237 0
M  V30 2084 C 200.79 -1.95697 -0.532035 0
M  V30 2085 C 201.123 -1.009 -1.6593 0
M  V30 2086 O 200.398 -0.047347 -1.94442 0
M  V30 2087 C 200.681 -3.44181 -1.05884 0
M  V30 2088 C 200.534 -4.49752 0.0654392 0
M  V30 2089 C 201.853 -3.94655 -1.9477 0
M  V30 2090 H 198.972 -0.711571 -0.191925 0
M  V30 2091 H 201.614 -1.88923 0.20206 0
M  V30 2092 H 199.764 -3.50085 -1.68442 0
M  V30 2093 H 201.436 -4.55943 0.700982 0
M  V30 2094 H 199.679 -4.27653 0.727709 0
M  V30 2095 H 200.35 -5.50924 -0.344505 0
M  V30 2096 H 202.826 -3.91094 -1.42074 0
M  V30 2097 H 201.702 -4.99057 -2.28546 0
M  V30 2098 H 201.963 -3.35718 -2.87656 0
M  V30 2099 N 201.022 0.148545 -1.56898 0
M  V30 2100 C 202.299 0.890019 -1.74178 0
M  V30 2101 C 202.679 1.99407 -0.692839 0
M  V30 2102 O 202.027 2.26671 0.288505 0
M  V30 2103 C 202.237 1.43389 -3.18183 0
M  V30 2104 C 203.585 1.89791 -3.79822 0
M  V30 2105 O 204.609 1.53134 -3.21603 0
M  V30 2106 O 203.468 2.57387 -4.82093 0
M  V30 2107 H 200.562 0.420496 -0.712118 0
M  V30 2108 H 203.108 0.134591 -1.69165 0
M  V30 2109 H 201.88 0.640383 -3.86024 0
M  V30 2110 H 201.503 2.25287 -3.27615 0
M  V30 2111 N 202.5 1.5196 0.417844 0
M  V30 2112 C 203.41 1.77554 1.53336 0
M  V30 2113 C 204.426 0.660655 1.6097 0
M  V30 2114 O 205.602 0.945099 1.77848 0
M  V30 2115 C 202.667 1.91291 2.89152 0
M  V30 2116 C 201.728 3.15183 2.91475 0
M  V30 2117 C 200.961 3.28256 4.20813 0
M  V30 2118 O 201.184 2.46798 5.14244 0
M  V30 2119 O 200.118 4.21356 4.29817 0
M  V30 2120 H 203.944 2.7222 1.34647 0
M  V30 2121 H 201.529 1.36698 0.602828 0
M  V30 2122 H 203.411 2.02199 3.69721 0
M  V30 2123 H 202.086 0.998129 3.07927 0
M  V30 2124 H 200.993 3.09739 2.09791 0
M  V30 2125 H 202.326 4.06414 2.77648 0
M  V30 2126 N 203.978 -0.674533 1.42435 0
M  V30 2127 C 205.394 -0.98769 1.25367 0
M  V30 2128 C 205.594 -2.00879 0.158044 0
M  V30 2129 O 204.65 -2.48075 -0.470633 0
M  V30 2130 C 205.963 -1.49224 2.6106 0
M  V30 2131 C 207.511 -1.61 2.68417 0
M  V30 2132 C 207.986 -2.14852 4.04478 0
M  V30 2133 N 209.477 -2.22185 4.06434 0
M  V30 2134 C 210.212 -2.64928 5.08528 0
M  V30 2135 N 209.708 -3.07121 6.21006 0
M  V30 2136 N 211.501 -2.64679 4.95885 0
M  V30 2137 H 203.652 0.00152503 2.124 0
M  V30 2138 H 205.915 -0.0618434 0.945981 0
M  V30 2139 H 205.621 -0.816453 3.42092 0
M  V30 2140 H 205.495 -2.47094 2.84999 0
M  V30 2141 H 207.882 -2.27686 1.87732 0
M  V30 2142 H 207.963 -0.616195 2.48267 0
M  V30 2143 H 207.607 -1.48775 4.85622 0
M  V30 2144 H 207.537 -3.15024 4.2198 0
M  V30 2145 H 210.028 -1.92435 3.25234 0
M  V30 2146 H 210.341 -3.38423 6.94759 0
M  V30 2147 H 208.686 -3.04978 6.24511 0
M  V30 2148 H 211.877 -2.31078 4.07088 0
M  V30 2149 H 212.05 -2.9767 5.75584 0
M  V30 2150 N 205.456 -1.28612 -0.910864 0
M  V30 2151 C 206.702 -1.16106 -1.66274 0
M  V30 2152 C 207.035 0.289113 -1.92036 0
M  V30 2153 O 206.31 1.21 -1.52281 0
M  V30 2154 C 206.593 -1.96309 -3.01885 0
M  V30 2155 C 206.446 -3.49405 -2.8326 0
M  V30 2156 C 207.765 -1.78076 -4.02463 0
M  V30 2157 H 204.884 -0.423152 -0.603417 0
M  V30 2158 H 207.526 -1.57961 -1.05586 0
M  V30 2159 H 205.676 -1.60742 -3.53687 0
M  V30 2160 H 207.348 -3.94894 -2.38446 0
M  V30 2161 H 205.591 -3.74893 -2.18261 0
M  V30 2162 H 206.262 -4.00784 -3.79574 0
M  V30 2163 H 208.738 -2.0912 -3.59733 0
M  V30 2164 H 207.614 -2.36561 -4.95308 0
M  V30 2165 H 207.875 -0.733008 -4.35981 0
M  V30 2166 N 206.934 1.1197 -1.10907 0
M  V30 2167 C 208.18 1.8386 -0.855773 0
M  V30 2168 C 208.513 1.84134 0.617103 0
M  V30 2169 O 207.788 1.29041 1.45529 0
M  V30 2170 C 208.071 3.31305 -1.411 0
M  V30 2171 C 207.924 3.39456 -2.9511 0
M  V30 2172 C 209.243 4.2721 -1.05736 0
M  V30 2173 H 206.362 0.667545 -0.312334 0
M  V30 2174 H 209.004 1.31331 -1.37303 0
M  V30 2175 H 207.154 3.76169 -0.97105 0
M  V30 2176 H 208.826 3.03191 -3.47668 0
M  V30 2177 H 207.069 2.79849 -3.31462 0
M  V30 2178 H 207.74 4.43209 -3.29044 0
M  V30 2179 H 210.216 3.90497 -1.43706 0
M  V30 2180 H 209.092 5.28775 -1.47269 0
M  V30 2181 H 209.353 4.42088 0.0325958 0
M  V30 2182 N 208.412 0.89855 1.29475 0
M  V30 2183 C 209.342 0.39201 2.30186 0
M  V30 2184 C 210.323 -0.532359 1.61555 0
M  V30 2185 O 211.508 -0.443331 1.89072 0
M  V30 2186 C 208.638 -0.382353 3.45189 0
M  V30 2187 C 207.592 0.451483 4.25612 0
M  V30 2188 C 206.918 -0.450307 5.328 0
M  V30 2189 C 208.218 1.70079 4.93832 0
M  V30 2190 H 209.912 1.23362 2.72804 0
M  V30 2191 H 207.458 0.594638 1.31149 0
M  V30 2192 H 209.411 -0.747451 4.14718 0
M  V30 2193 H 208.135 -1.25774 3.01411 0
M  V30 2194 H 206.794 0.798897 3.57789 0
M  V30 2195 H 206.442 -1.32379 4.85268 0
M  V30 2196 H 206.142 0.103902 5.87508 0
M  V30 2197 H 207.666 -0.811623 6.05182 0
M  V30 2198 H 209.08 1.40549 5.55805 0
M  V30 2199 H 207.477 2.19623 5.58467 0
M  V30 2200 H 208.547 2.43744 4.19186 0
M  V30 2201 N 209.89 -1.43072 0.660911 0
M  V30 2202 C 210.84 -2.27948 -0.04847 0
M  V30 2203 C 211.824 -1.40325 -0.787246 0
M  V30 2204 O 213.016 -1.63893 -0.668446 0
M  V30 2205 C 210.145 -3.28143 -1.00881 0
M  V30 2206 C 209.231 -4.23252 -0.268108 0
M  V30 2207 N 209.622 -5.00656 0.719528 0
M  V30 2208 C 207.92 -4.43092 -0.508493 0
M  V30 2209 C 208.621 -5.70019 1.15988 0
M  V30 2210 N 207.597 -5.41364 0.492584 0
M  V30 2211 H 211.399 -2.85213 0.709279 0
M  V30 2212 H 208.913 -1.54869 0.488822 0
M  V30 2213 H 210.91 -3.87736 -1.53188 0
M  V30 2214 H 209.57 -2.7244 -1.76654 0
M  V30 2215 H 210.581 -5.06115 1.09855 0
M  V30 2216 H 207.258 -3.98449 -1.24679 0
M  V30 2217 H 208.648 -6.4214 1.97751 0
M  V30 2218 N 211.368 -0.403325 -1.52352 0
M  V30 2219 C 212.784 -0.0539281 -1.59509 0
M  V30 2220 C 212.984 1.43307 -1.41652 0
M  V30 2221 O 212.04 2.19924 -1.24056 0
M  V30 2222 C 213.353 -0.543654 -2.95745 0
M  V30 2223 C 214.901 -0.501125 -3.08962 0
M  V30 2224 C 215.376 -0.967267 -4.47669 0
M  V30 2225 N 216.867 -0.923849 -4.53893 0
M  V30 2226 C 217.602 -1.25578 -5.5948 0
M  V30 2227 N 217.098 -1.65889 -6.72646 0
M  V30 2228 N 218.891 -1.17613 -5.49658 0
M  V30 2229 H 211.042 -1.37123 -1.62206 0
M  V30 2230 H 213.305 -0.56294 -0.76276 0
M  V30 2231 H 213.011 -1.58275 -3.14073 0
M  V30 2232 H 212.885 0.0498042 -3.77167 0
M  V30 2233 H 215.272 0.528909 -2.90321 0
M  V30 2234 H 215.353 -1.13056 -2.2946 0
M  V30 2235 H 214.997 -1.9956 -4.67053 0
M  V30 2236 H 214.927 -0.314698 -5.25659 0
M  V30 2237 H 217.418 -0.627403 -3.72655 0
M  V30 2238 H 217.731 -1.89543 -7.49195 0
M  V30 2239 H 216.076 -1.69787 -6.73942 0
M  V30 2240 H 219.267 -0.860115 -4.6013 0
M  V30 2241 H 219.44 -1.43812 -6.3184 0
M  V30 2242 N 212.846 1.57033 -0.133567 0
M  V30 2243 C 214.094 1.953 0.519848 0
M  V30 2244 C 214.415 1.01866 1.66278 0
M  V30 2245 O 213.685 0.0776513 1.95746 0
M  V30 2246 H 212.265 0.721091 0.195032 0
M  V30 2247 H 214.927 1.93809 -0.205921 0
M  V30 2248 H 214.023 2.98695 0.904854 0
M  V30 2249 N 214.325 -0.140222 1.56975 0
M  V30 2250 C 215.235 -1.19223 2.02047 0
M  V30 2251 C 216.251 -1.46612 0.937062 0
M  V30 2252 O 217.427 -1.58148 1.24704 0
M  V30 2253 C 214.492 -2.50414 2.39778 0
M  V30 2254 C 213.553 -2.30612 3.621 0
M  V30 2255 C 212.786 -3.55547 3.98023 0
M  V30 2256 O 213.009 -4.62004 3.34528 0
M  V30 2257 O 211.943 -3.47808 4.91237 0
M  V30 2258 H 215.769 -0.839559 2.91865 0
M  V30 2259 H 213.354 -0.349453 1.45256 0
M  V30 2260 H 215.236 -3.27747 2.64877 0
M  V30 2261 H 213.911 -2.85198 1.53114 0
M  V30 2262 H 212.818 -1.51207 3.4218 0
M  V30 2263 H 214.151 -2.00741 4.49404 0
M  V30 2264 N 215.803 -1.52179 -0.40978 0
M  V30 2265 C 216.766 -1.74853 -1.48186 0
M  V30 2266 C 217.766 -0.618417 -1.48433 0
M  V30 2267 O 218.956 -0.886286 -1.49969 0
M  V30 2268 C 216.088 -1.8303 -2.87598 0
M  V30 2269 H 217.281 -2.70559 -1.29374 0
M  V30 2270 H 214.834 -1.42586 -0.640233 0
M  V30 2271 H 215.569 -0.89236 -3.11781 0
M  V30 2272 H 215.354 -2.65187 -2.88822 0
M  V30 2273 H 216.844 -2.02316 -3.65319 0
M  V30 2274 N 217.281 0.66697 -1.42791 0
M  V30 2275 C 218.529 1.42417 -1.43394 0
M  V30 2276 C 218.85 1.94925 -0.0542373 0
M  V30 2277 O 218.12 1.73564 0.908415 0
M  V30 2278 H 216.7 0.528515 -0.527902 0
M  V30 2279 H 219.362 0.787562 -1.78279 0
M  V30 2280 H 218.458 2.27333 -2.13837 0
M  V30 2281 N 218.759 1.29093 0.90403 0
M  V30 2282 C 219.987 1.19689 1.68766 0
M  V30 2283 C 220.402 -0.243113 1.87228 0
M  V30 2284 O 219.759 -1.16326 1.40621 0
M  V30 2285 C 219.81 1.90144 3.07453 0
M  V30 2286 O 219.531 3.2852 2.89838 0
M  V30 2287 C 221.032 1.87162 4.01852 0
M  V30 2288 H 218.252 0.415035 0.527244 0
M  V30 2289 H 220.796 1.7039 1.13082 0
M  V30 2290 H 218.951 1.43289 3.59926 0
M  V30 2291 H 219.365 3.63944 3.77684 0
M  V30 2292 H 220.839 2.41032 4.96596 0
M  V30 2293 H 221.316 0.84617 4.30972 0
M  V30 2294 H 221.922 2.33741 3.5531 0
M  V30 2295 N 220.237 -1.11381 1.11499 0
M  V30 2296 C 221.485 -1.8277 0.862524 0
M  V30 2297 C 221.806 -1.85097 -0.613534 0
M  V30 2298 O 221.076 -1.32198 -1.4457 0
M  V30 2299 H 219.656 -0.676823 0.316101 0
M  V30 2300 H 222.318 -1.34816 1.4075 0
M  V30 2301 H 221.414 -2.86614 1.23527 0
M  V30 2302 N 221.715 -0.905404 -1.28997 0
M  V30 2303 C 222.943 -0.549846 -1.9946 0
M  V30 2304 C 223.358 0.866834 -1.67724 0
M  V30 2305 O 222.715 1.57298 -0.925404 0
M  V30 2306 C 222.766 -0.739387 -3.53858 0
M  V30 2307 O 222.487 -2.10031 -3.84472 0
M  V30 2308 C 223.988 -0.389541 -4.41585 0
M  V30 2309 H 221.208 -0.210429 -0.637151 0
M  V30 2310 H 223.752 -1.21632 -1.64396 0
M  V30 2311 H 221.907 -0.120023 -3.87214 0
M  V30 2312 H 222.321 -2.13385 -4.79132 0
M  V30 2313 H 223.795 -0.572972 -5.49018 0
M  V30 2314 H 224.272 0.673756 -4.34001 0
M  V30 2315 H 224.878 -0.986089 -4.1371 0
M  V30 2316 N 223.193 1.4272 -0.668489 0
M  V30 2317 C 224.604 1.84793 -0.266151 0
M  V30 2318 C 224.955 1.55959 1.19043 0
M  V30 2319 O 224.08 1.01622 1.91055 0
M  V30 2320 C 224.675 3.35436 -0.476271 0
M  V30 2321 C 223.234 3.76182 -0.128113 0
M  V30 2322 C 222.381 2.66344 -0.771777 0
M  V30 2323 H 225.332 1.32656 -0.871098 0
M  V30 2324 H 225.353 3.79515 0.273561 0
M  V30 2325 H 224.865 3.5639 -1.53647 0
M  V30 2326 H 222.966 3.60836 0.928891 0
M  V30 2327 H 223.079 4.75766 -0.564231 0
M  V30 2328 H 221.443 2.53885 -0.203652 0
M  V30 2329 H 222.226 2.90123 -1.83531 0
M  V30 2330 N 224.671 0.411399 1.52136 0
M  V30 2331 C 225.917 -0.163888 2.02137 0
M  V30 2332 C 226.25 -1.44597 1.29636 0
M  V30 2333 O 225.525 -1.90272 0.403353 0
M  V30 2334 C 225.808 -0.40927 3.57767 0
M  V30 2335 C 225.661 0.889643 4.40914 0
M  V30 2336 C 226.98 -1.19042 4.23694 0
M  V30 2337 H 224.099 -0.0580896 0.734707 0
M  V30 2338 H 226.741 0.54531 1.82007 0
M  V30 2339 H 224.891 -1.0134 3.7505 0
M  V30 2340 H 226.563 1.52575 4.35337 0
M  V30 2341 H 224.806 1.50011 4.07037 0
M  V30 2342 H 225.477 0.672314 5.4789 0
M  V30 2343 H 227.953 -0.678942 4.10524 0
M  V30 2344 H 226.829 -1.33086 5.32522 0
M  V30 2345 H 227.09 -2.21166 3.82803 0
M  V30 2346 N 226.149 -1.5696 0.141893 0
M  V30 2347 C 227.096 -2.16501 -0.799737 0
M  V30 2348 C 228.066 -1.09643 -1.24771 0
M  V30 2349 O 229.251 -1.3766 -1.32115 0
M  V30 2350 C 226.391 -2.78679 -2.03549 0
M  V30 2351 C 225.504 -3.99914 -1.6338 0
M  V30 2352 C 224.639 -4.50106 -2.82096 0
M  V30 2353 C 223.678 -5.63819 -2.38275 0
M  V30 2354 N 222.815 -6.08651 -3.49983 0
M  V30 2355 H 227.655 -2.96632 -0.285179 0
M  V30 2356 H 225.192 -1.46533 -0.129053 0
M  V30 2357 H 227.15 -3.1287 -2.75986 0
M  V30 2358 H 225.78 -2.012 -2.52425 0
M  V30 2359 H 224.832 -3.71735 -0.807279 0
M  V30 2360 H 226.144 -4.82311 -1.27192 0
M  V30 2361 H 225.298 -4.86325 -3.62729 0
M  V30 2362 H 224.037 -3.66706 -3.21525 0
M  V30 2363 H 223.042 -5.2718 -1.56081 0
M  V30 2364 H 224.267 -6.49 -1.99938 0
M  V30 2365 H 222.213 -5.28188 -3.89042 0
M  V30 2366 H 222.13 -6.85961 -3.17794 0
M  V30 2367 H 223.398 -6.49515 -4.30988 0
M  V30 2368 N 227.627 0.131896 -1.57047 0
M  V30 2369 C 228.875 0.840269 -1.83804 0
M  V30 2370 C 229.196 1.81017 -0.72512 0
M  V30 2371 O 228.466 1.94272 0.251995 0
M  V30 2372 H 227.046 0.313294 -0.678127 0
M  V30 2373 H 229.708 0.122294 -1.94516 0
M  V30 2374 H 228.804 1.39335 -2.79271 0
M  V30 2375 N 229.106 1.52395 0.401703 0
M  V30 2376 C 230.522 1.41363 0.740864 0
M  V30 2377 C 230.722 0.523982 1.94568 0
M  V30 2378 O 229.778 -0.00741204 2.52499 0
M  V30 2379 C 231.091 2.84011 0.987847 0
M  V30 2380 C 232.639 2.93404 1.09011 0
M  V30 2381 C 233.114 4.37036 1.3698 0
M  V30 2382 N 234.605 4.40304 1.43829 0
M  V30 2383 C 235.34 5.48508 1.67112 0
M  V30 2384 N 234.836 6.66819 1.87949 0
M  V30 2385 N 236.629 5.36034 1.69187 0
M  V30 2386 H 228.78 2.08765 -0.391262 0
M  V30 2387 H 231.043 0.941265 -0.112798 0
M  V30 2388 H 230.749 3.51265 0.174835 0
M  V30 2389 H 230.623 3.25502 1.906 0
M  V30 2390 H 233.01 2.26325 1.8937 0
M  V30 2391 H 233.091 2.55359 0.15015 0
M  V30 2392 H 232.735 5.04676 0.571353 0
M  V30 2393 H 232.665 4.72623 2.3224 0
M  V30 2394 H 235.156 3.55024 1.29486 0
M  V30 2395 H 235.469 7.45063 2.05185 0
M  V30 2396 H 233.814 6.6987 1.85199 0
M  V30 2397 H 237.005 4.42579 1.52451 0
M  V30 2398 H 237.178 6.20434 1.86993 0
M  V30 2399 N 230.584 -0.659388 1.43143 0
M  V30 2400 C 231.812 -1.44723 1.47861 0
M  V30 2401 C 232.227 -1.88563 0.0945886 0
M  V30 2402 O 231.584 -1.59108 -0.893915 0
M  V30 2403 C 231.635 -2.68627 2.41913 0
M  V30 2404 O 231.356 -2.26623 3.74932 0
M  V30 2405 C 232.857 -3.62045 2.55809 0
M  V30 2406 H 230.077 -0.444801 0.502387 0
M  V30 2407 H 232.621 -0.808916 1.87821 0
M  V30 2408 H 230.776 -3.28613 2.05164 0
M  V30 2409 H 231.19 -3.06745 4.2545 0
M  V30 2410 H 232.664 -4.45666 3.25708 0
M  V30 2411 H 233.141 -4.08981 1.60099 0
M  V30 2412 H 233.747 -3.07944 2.93344 0
M  V30 2413 N 232.062 -1.29571 -0.897171 0
M  V30 2414 C 233.31 -1.17456 -1.64464 0
M  V30 2415 C 233.631 0.273698 -1.9307 0
M  V30 2416 O 232.901 1.18684 -1.55855 0
M  V30 2417 H 231.481 -0.431706 -0.609622 0
M  V30 2418 H 234.143 -1.62531 -1.07562 0
M  V30 2419 H 233.239 -1.72648 -2.59998 0
M  V30 2420 N 233.54 1.10788 -1.12088 0
M  V30 2421 C 234.817 1.79136 -0.785476 0
M  V30 2422 C 235.197 1.98246 0.725377 0
M  V30 2423 O 234.545 1.57258 1.65778 0
M  V30 2424 C 234.755 3.12375 -1.55636 0
M  V30 2425 C 236.103 3.8731 -1.74001 0
M  V30 2426 O 237.127 3.22085 -1.52117 0
M  V30 2427 O 235.986 5.04369 -2.10415 0
M  V30 2428 H 233.08 0.776226 -0.285311 0
M  V30 2429 H 235.626 1.1747 -1.2247 0
M  V30 2430 H 234.398 2.93863 -2.5838 0
M  V30 2431 H 234.021 3.81758 -1.11114 0
M  V30 2432 N 235.018 0.912232 1.28515 0
M  V30 2433 C 235.948 0.416403 2.29757 0
M  V30 2434 C 236.929 -0.515194 1.6211 0
M  V30 2435 O 238.114 -0.423253 1.89532 0
M  V30 2436 C 235.244 -0.34572 3.45575 0
M  V30 2437 C 234.198 0.496599 4.25109 0
M  V30 2438 C 233.524 -0.393771 5.33248 0
M  V30 2439 C 234.824 1.75307 4.92001 0
M  V30 2440 H 236.518 1.26249 2.7148 0
M  V30 2441 H 234.064 0.608515 1.30511 0
M  V30 2442 H 236.017 -0.703422 4.15488 0
M  V30 2443 H 234.741 -1.2257 3.02728 0
M  V30 2444 H 233.4 0.8368 3.56922 0
M  V30 2445 H 233.048 -1.27225 4.86644 0
M  V30 2446 H 232.748 0.166209 5.87365 0
M  V30 2447 H 234.272 -0.747389 6.06009 0
M  V30 2448 H 235.686 1.46437 5.54283 0
M  V30 2449 H 234.083 2.25534 5.56106 0
M  V30 2450 H 235.153 2.48176 4.16577 0
M  V30 2451 N 236.496 -1.42363 0.676048 0
M  V30 2452 C 237.426 -2.33497 0.0124832 0
M  V30 2453 C 238.407 -1.50748 -0.787981 0
M  V30 2454 O 239.592 -1.79346 -0.744884 0
M  V30 2455 C 236.722 -3.34377 -0.938582 0
M  V30 2456 C 235.676 -4.27289 -0.246622 0
M  V30 2457 C 235.002 -5.18386 -1.31071 0
M  V30 2458 C 236.302 -5.14916 0.875125 0
M  V30 2459 H 237.996 -2.89233 0.773593 0
M  V30 2460 H 235.542 -1.39073 0.37346 0
M  V30 2461 H 237.495 -3.97044 -1.41188 0
M  V30 2462 H 236.219 -2.76947 -1.73113 0
M  V30 2463 H 234.878 -3.66018 0.206456 0
M  V30 2464 H 234.526 -4.57282 -2.09528 0
M  V30 2465 H 234.226 -5.81378 -0.852839 0
M  V30 2466 H 235.75 -5.83929 -1.78492 0
M  V30 2467 H 237.164 -5.71262 0.482983 0
M  V30 2468 H 235.561 -5.86747 1.25887 0
M  V30 2469 H 236.631 -4.53242 1.72335 0
M  V30 2470 N 237.974 -0.419461 -1.51915 0
M  V30 2471 C 238.884 0.407528 -2.31033 0
M  V30 2472 C 239.9 1.04413 -1.3919 0
M  V30 2473 O 241.076 1.0434 -1.72265 0
M  V30 2474 C 238.141 1.50365 -3.12396 0
M  V30 2475 C 237.202 0.889029 -4.19994 0
M  V30 2476 C 236.435 1.93291 -4.97468 0
M  V30 2477 O 236.658 3.15259 -4.75361 0
M  V30 2478 O 235.592 1.53339 -5.8204 0
M  V30 2479 H 239.418 -0.237865 -3.02767 0
M  V30 2480 H 237.003 -0.182413 -1.48282 0
M  V30 2481 H 238.885 2.13975 -3.63032 0
M  V30 2482 H 237.56 2.13345 -2.43445 0
M  V30 2483 H 236.467 0.215353 -3.7348 0
M  V30 2484 H 237.8 0.302991 -4.91267 0
M  V30 2485 N 239.452 1.56882 -0.150215 0
M  V30 2486 C 240.698 1.96518 0.500834 0
M  V30 2487 C 241.031 1.03527 1.64304 0
M  V30 2488 O 240.306 0.0782751 1.94342 0
M  V30 2489 C 240.589 3.45822 1.00395 0
M  V30 2490 C 240.442 4.49591 -0.136983 0
M  V30 2491 C 241.761 3.97704 1.88467 0
M  V30 2492 H 238.88 0.714535 0.18058 0
M  V30 2493 H 241.522 1.88577 -0.232091 0
M  V30 2494 H 239.672 3.5272 1.62851 0
M  V30 2495 H 241.344 4.5477 -0.77343 0
M  V30 2496 H 239.587 4.26441 -0.795652 0
M  V30 2497 H 240.258 5.51402 0.256815 0
M  V30 2498 H 242.734 3.93304 1.35834 0
M  V30 2499 H 241.61 5.0263 2.20578 0
M  V30 2500 H 241.871 3.40252 2.82279 0
M  V30 2501 N 240.93 -0.123565 1.57115 0
M  V30 2502 C 241.862 -1.17739 1.96648 0
M  V30 2503 C 242.875 -1.37906 0.865201 0
M  V30 2504 O 244.064 -1.37062 1.14351 0
M  V30 2505 C 241.164 -2.53821 2.24562 0
M  V30 2506 C 240.337 -2.54317 3.55867 0
M  V30 2507 C 239.396 -3.72112 3.72047 0
M  V30 2508 O 238.422 -3.55907 4.44206 0
M  V30 2509 N 239.624 -4.90498 3.10471 0
M  V30 2510 H 242.389 -0.841147 2.87654 0
M  V30 2511 H 239.95 -0.31289 1.58848 0
M  V30 2512 H 241.942 -3.31175 2.32606 0
M  V30 2513 H 240.512 -2.79645 1.39705 0
M  V30 2514 H 239.732 -1.62711 3.59053 0
M  V30 2515 H 241.02 -2.51701 4.42181 0
M  V30 2516 H 240.418 -5.06567 2.51806 0
M  V30 2517 H 238.975 -5.65544 3.24043 0
M  V30 2518 N 242.408 -1.52605 -0.393616 0
M  V30 2519 C 243.34 -1.73303 -1.49995 0
M  V30 2520 C 244.353 -0.613473 -1.50799 0
M  V30 2521 O 245.542 -0.889049 -1.54784 0
M  V30 2522 C 242.642 -1.77245 -2.88855 0
M  V30 2523 C 241.815 -3.06483 -3.12069 0
M  V30 2524 C 240.874 -3.02033 -4.30886 0
M  V30 2525 O 239.9 -3.75907 -4.27414 0
M  V30 2526 N 241.102 -2.20897 -5.36828 0
M  V30 2527 H 243.867 -2.68756 -1.32629 0
M  V30 2528 H 241.428 -1.51036 -0.583083 0
M  V30 2529 H 243.42 -1.7178 -3.66434 0
M  V30 2530 H 241.99 -0.891993 -2.99603 0
M  V30 2531 H 241.21 -3.25474 -2.22396 0
M  V30 2532 H 242.498 -3.91947 -3.2443 0
M  V30 2533 H 241.896 -1.60336 -5.42502 0
M  V30 2534 H 240.453 -2.21275 -6.13091 0
M  V30 2535 N 243.887 0.651787 -1.4349 0
M  V30 2536 C 245.298 1.233 -1.40193 0
M  V30 2537 C 245.649 1.9591 -0.106727 0
M  V30 2538 O 244.774 2.01316 0.793773 0
M  V30 2539 C 245.369 2.24257 -2.53957 0
M  V30 2540 C 243.928 2.77852 -2.5392 0
M  V30 2541 C 243.075 1.52517 -2.3159 0
M  V30 2542 H 246.026 0.443717 -1.52371 0
M  V30 2543 H 246.047 3.0646 -2.25528 0
M  V30 2544 H 245.559 1.71382 -3.4821 0
M  V30 2545 H 243.66 3.34786 -1.63551 0
M  V30 2546 H 243.773 3.25299 -3.51735 0
M  V30 2547 H 242.137 1.79915 -1.80285 0
M  V30 2548 H 242.92 1.01574 -3.27929 0
M  V30 2549 N 245.365 1.30045 0.890287 0
M  V30 2550 C 246.611 1.18737 1.64406 0
M  V30 2551 C 246.944 -0.258525 1.92472 0
M  V30 2552 O 246.219 -1.18562 1.54186 0
M  V30 2553 C 246.502 2.01087 2.98724 0
M  V30 2554 C 246.355 3.53867 2.77665 0
M  V30 2555 C 247.674 1.84457 3.9958 0
M  V30 2556 H 244.793 0.432698 0.596608 0
M  V30 2557 H 247.435 1.5962 1.0306 0
M  V30 2558 H 245.585 1.66349 3.51084 0
M  V30 2559 H 247.257 3.98637 2.32133 0
M  V30 2560 H 245.5 3.78318 2.12269 0
M  V30 2561 H 246.171 4.06772 3.7315 0
M  V30 2562 H 248.647 2.14817 3.56361 0
M  V30 2563 H 247.523 2.44411 4.91482 0
M  V30 2564 H 247.784 0.802276 4.3476 0
M  V30 2565 N 246.843 -1.10192 1.12674 0
M  V30 2566 C 248.12 -1.78717 0.794965 0
M  V30 2567 C 248.5 -1.98628 -0.714853 0
M  V30 2568 O 247.848 -1.58135 -1.64941 0
M  V30 2569 C 248.058 -3.11546 1.5729 0
M  V30 2570 C 249.406 -3.86382 1.76052 0
M  V30 2571 O 250.43 -3.21274 1.53823 0
M  V30 2572 O 249.289 -5.03246 2.13087 0
M  V30 2573 H 246.383 -0.774702 0.289423 0
M  V30 2574 H 248.929 -1.16819 1.23091 0
M  V30 2575 H 247.701 -2.92489 2.59935 0
M  V30 2576 H 247.324 -3.81164 1.13137 0
M  V30 2577 N 248.321 -0.919034 -1.28029 0
M  V30 2578 C 249.251 -0.428581 -2.29533 0
M  V30 2579 C 250.232 0.50659 -1.62381 0
M  V30 2580 O 251.417 0.413195 -1.89753 0
M  V30 2581 C 248.547 0.327388 -3.45753 0
M  V30 2582 C 247.501 -0.519137 -4.2484 0
M  V30 2583 C 246.827 0.365486 -5.33449 0
M  V30 2584 C 248.127 -1.77914 -4.91064 0
M  V30 2585 H 249.821 -1.27687 -2.70807 0
M  V30 2586 H 247.367 -0.615428 -1.30186 0
M  V30 2587 H 249.32 0.681378 -4.15855 0
M  V30 2588 H 248.044 1.20963 -3.03374 0
M  V30 2589 H 246.703 -0.855717 -3.56473 0
M  V30 2590 H 246.351 1.24642 -4.87312 0
M  V30 2591 H 246.051 -0.197356 -5.87268 0
M  V30 2592 H 247.575 0.715241 -6.06396 0
M  V30 2593 H 248.989 -1.49374 -5.53498 0
M  V30 2594 H 247.386 -2.2848 -5.54903 0
M  V30 2595 H 248.456 -2.50382 -4.15255 0
M  V30 2596 N 249.799 1.42003 -0.683588 0
M  V30 2597 C 251.047 2.01015 -0.209101 0
M  V30 2598 C 251.368 1.54365 1.19149 0
M  V30 2599 O 250.638 0.769083 1.80172 0
M  V30 2600 H 249.218 0.743294 -0.074315 0
M  V30 2601 H 251.88 1.73798 -0.882066 0
M  V30 2602 H 250.976 3.11343 -0.2172 0
M  V30 2603 N 251.277 0.427512 1.51691 0
M  V30 2604 C 252.24 -0.377132 2.26076 0
M  V30 2605 C 253.24 -0.958089 1.29141 0
M  V30 2606 O 254.43 -0.83408 1.52934 0
M  V30 2607 C 251.562 -1.53262 3.04506 0
M  V30 2608 H 252.755 0.27464 2.9864 0
M  V30 2609 H 250.308 0.180445 1.55255 0
M  V30 2610 H 251.043 -2.22072 2.36335 0
M  V30 2611 H 250.828 -1.12232 3.75694 0
M  V30 2612 H 252.318 -2.10135 3.60878 0
M  V30 2613 N 252.755 -1.56801 0.158532 0
M  V30 2614 C 253.685 -2.20347 -0.772609 0
M  V30 2615 C 254.666 -1.15518 -1.24859 0
M  V30 2616 O 255.851 -1.43902 -1.30406 0
M  V30 2617 C 252.981 -2.83417 -2.00729 0
M  V30 2618 C 251.935 -3.94174 -1.66765 0
M  V30 2619 C 251.261 -4.44233 -2.97592 0
M  V30 2620 C 252.561 -5.14392 -0.905447 0
M  V30 2621 H 254.255 -2.98413 -0.242959 0
M  V30 2622 H 251.801 -1.43537 -0.115419 0
M  V30 2623 H 253.754 -3.26543 -2.6636 0
M  V30 2624 H 252.478 -2.02701 -2.56086 0
M  V30 2625 H 251.137 -3.51684 -1.03508 0
M  V30 2626 H 250.785 -3.60325 -3.50963 0
M  V30 2627 H 250.485 -5.18945 -2.75626 0
M  V30 2628 H 252.009 -4.90037 -3.64274 0
M  V30 2629 H 253.423 -5.5429 -1.46408 0
M  V30 2630 H 251.82 -5.9494 -0.7853 0
M  V30 2631 H 252.89 -4.84795 0.100668 0
M  V30 2632 N 254.233 0.115231 -1.57178 0
M  V30 2633 C 255.649 0.468877 -1.52557 0
M  V30 2634 C 255.849 1.81649 -0.872125 0
M  V30 2635 O 254.905 2.48347 -0.45606 0
M  V30 2636 C 256.218 0.4499 -2.97315 0
M  V30 2637 C 257.766 0.533185 -3.08425 0
M  V30 2638 C 258.241 0.54456 -4.54751 0
M  V30 2639 N 259.732 0.605892 -4.5922 0
M  V30 2640 C 260.467 0.636203 -5.6986 0
M  V30 2641 N 259.963 0.623931 -6.89985 0
M  V30 2642 N 261.756 0.679496 -5.57978 0
M  V30 2643 H 253.907 -0.767712 -1.9804 0
M  V30 2644 H 256.17 -0.283609 -0.904583 0
M  V30 2645 H 255.876 -0.472721 -3.48509 0
M  V30 2646 H 255.75 1.27632 -3.5495 0
M  V30 2647 H 258.137 1.44623 -2.57232 0
M  V30 2648 H 258.218 -0.320995 -2.53778 0
M  V30 2649 H 257.862 -0.364452 -5.06591 0
M  V30 2650 H 257.792 1.41568 -5.07214 0
M  V30 2651 H 260.283 0.621386 -3.72756 0
M  V30 2652 H 260.596 0.649787 -7.70063 0
M  V30 2653 H 258.941 0.591296 -6.9248 0
M  V30 2654 H 262.132 0.686472 -4.63039 0
M  V30 2655 H 262.305 0.69965 -6.44212 0
M  V30 2656 N 255.711 1.52812 0.385517 0
M  V30 2657 C 256.959 1.67694 1.12797 0
M  V30 2658 C 257.28 0.421115 1.90399 0
M  V30 2659 O 256.55 -0.564551 1.87589 0
M  V30 2660 H 255.13 0.618155 0.419396 0
M  V30 2661 H 257.792 1.89938 0.436972 0
M  V30 2662 H 256.888 2.52896 1.82894 0
M  V30 2663 N 257.189 -0.644168 1.43834 0
M  V30 2664 C 258.136 -1.75671 1.49694 0
M  V30 2665 C 259.106 -1.6246 0.345809 0
M  V30 2666 O 260.291 -1.82573 0.554234 0
M  V30 2667 C 257.431 -3.13867 1.43463 0
M  V30 2668 C 256.544 -3.38147 2.6885 0
M  V30 2669 C 255.679 -4.66241 2.54544 0
M  V30 2670 C 254.718 -4.83657 3.75157 0
M  V30 2671 N 253.855 -6.03016 3.59605 0
M  V30 2672 H 258.695 -1.69998 2.44754 0
M  V30 2673 H 256.232 -0.829458 1.21484 0
M  V30 2674 H 258.19 -3.9377 1.37843 0
M  V30 2675 H 256.82 -3.18588 0.519783 0
M  V30 2676 H 255.872 -2.52276 2.84712 0
M  V30 2677 H 257.184 -3.46899 3.58417 0
M  V30 2678 H 256.338 -5.54285 2.46683 0
M  V30 2679 H 255.077 -4.59826 1.62516 0
M  V30 2680 H 254.082 -3.94046 3.83416 0
M  V30 2681 H 255.307 -4.91896 4.68204 0
M  V30 2682 H 253.253 -5.97715 2.7032 0
M  V30 2683 H 253.17 -6.12766 4.42779 0
M  V30 2684 H 254.438 -6.93657 3.55613 0
M  V30 2685 N 258.668 -1.30515 -0.883378 0
M  V30 2686 C 259.598 -1.19607 -2.00541 0
M  V30 2687 C 260.579 -0.086346 -1.69881 0
M  V30 2688 O 261.764 -0.268654 -1.92333 0
M  V30 2689 C 258.894 -0.888758 -3.35736 0
M  V30 2690 C 257.848 -1.95659 -3.8066 0
M  V30 2691 C 257.174 -1.50224 -5.13164 0
M  V30 2692 C 258.474 -3.36788 -3.99213 0
M  V30 2693 H 260.168 -2.13476 -2.09925 0
M  V30 2694 H 257.714 -1.02775 -1.00863 0
M  V30 2695 H 259.667 -0.799094 -4.13754 0
M  V30 2696 H 258.391 0.0856125 -3.26488 0
M  V30 2697 H 257.05 -2.03591 -3.04871 0
M  V30 2698 H 256.698 -0.516092 -5.00345 0
M  V30 2699 H 256.398 -2.2165 -5.44192 0
M  V30 2700 H 257.922 -1.42639 -5.93706 0
M  V30 2701 H 259.336 -3.31605 -4.67665 0
M  V30 2702 H 257.733 -4.06314 -4.41621 0
M  V30 2703 H 258.803 -3.78561 -3.03017 0
M  V30 2704 N 260.146 1.09593 -1.13257 0
M  V30 2705 C 261.056 2.19739 -0.821691 0
M  V30 2706 C 262.072 1.72926 0.19302 0
M  V30 2707 O 263.248 2.01385 0.0244895 0
M  V30 2708 C 260.313 3.45482 -0.290333 0
M  V30 2709 C 259.374 4.06985 -1.36607 0
M  V30 2710 C 258.607 5.26726 -0.859975 0
M  V30 2711 O 258.83 5.69594 0.303082 0
M  V30 2712 O 257.764 5.7931 -1.63351 0
M  V30 2713 H 261.59 2.48781 -1.74189 0
M  V30 2714 H 259.175 1.18496 -0.909894 0
M  V30 2715 H 261.057 4.214 0.000674022 0
M  V30 2716 H 259.732 3.18047 0.602306 0
M  V30 2717 H 258.639 3.32712 -1.71037 0
M  V30 2718 H 259.972 4.38643 -2.23279 0
M  V30 2719 N 261.624 0.925811 1.2754 0
M  V30 2720 C 262.872 0.564138 1.94067 0
M  V30 2721 C 263.193 -0.897188 1.73134 0
M  V30 2722 O 262.463 -1.63573 1.07799 0
M  V30 2723 H 261.043 0.205645 0.718136 0
M  V30 2724 H 263.705 1.1778 1.55287 0
M  V30 2725 H 262.801 0.76881 3.02483 0
M  V30 2726 N 263.102 -1.41638 0.69111 0
M  V30 2727 C 264.032 -2.3347 0.037248 0
M  V30 2728 C 265.013 -1.51575 -0.771947 0
M  V30 2729 O 266.198 -1.80126 -0.72582 0
M  V30 2730 C 263.328 -3.35354 -0.903064 0
M  V30 2731 C 262.282 -4.27526 -0.201288 0
M  V30 2732 C 261.608 -5.19747 -1.25565 0
M  V30 2733 C 262.908 -5.13959 0.929689 0
M  V30 2734 H 264.602 -2.88397 0.804227 0
M  V30 2735 H 262.148 -1.38669 0.388189 0
M  V30 2736 H 264.101 -3.98519 -1.36969 0
M  V30 2737 H 262.825 -2.78767 -1.70166 0
M  V30 2738 H 261.484 -3.65779 0.245265 0
M  V30 2739 H 261.132 -4.59479 -2.04666 0
M  V30 2740 H 260.832 -5.8225 -0.791128 0
M  V30 2741 H 262.356 -5.85789 -1.72288 0
M  V30 2742 H 263.77 -5.70718 0.543546 0
M  V30 2743 H 262.167 -5.85379 1.32103 0
M  V30 2744 H 263.237 -4.51389 1.77133 0
M  V30 2745 N 264.58 -0.43555 -1.51462 0
M  V30 2746 C 265.51 0.367376 -2.30592 0
M  V30 2747 C 266.491 1.02263 -1.35928 0
M  V30 2748 O 267.676 1.02661 -1.64847 0
M  V30 2749 C 264.806 1.46983 -3.14664 0
M  V30 2750 C 263.76 0.938161 -4.17591 0
M  V30 2751 C 263.086 2.13622 -4.90173 0
M  V30 2752 C 264.386 -0.0261621 -5.22293 0
M  V30 2753 H 266.08 -0.292969 -2.97963 0
M  V30 2754 H 263.626 -0.14234 -1.43295 0
M  V30 2755 H 265.579 2.03873 -3.688 0
M  V30 2756 H 264.303 2.15843 -2.4511 0
M  V30 2757 H 262.962 0.391481 -3.64504 0
M  V30 2758 H 262.61 2.81098 -4.17124 0
M  V30 2759 H 262.31 1.78688 -5.59772 0
M  V30 2760 H 263.834 2.7107 -5.47132 0
M  V30 2761 H 265.248 0.452384 -5.71512 0
M  V30 2762 H 263.645 -0.287992 -5.99409 0
M  V30 2763 H 264.715 -0.963391 -4.75233 0
M  V30 2764 N 266.058 1.56714 -0.166846 0
M  V30 2765 C 267.283 2.01557 0.488833 0
M  V30 2766 C 267.708 1.0463 1.56314 0
M  V30 2767 O 267.066 0.0251304 1.81283 0
M  V30 2768 C 267.114 3.4503 1.04818 0
M  V30 2769 O 266.218 3.51163 2.16236 0
M  V30 2770 H 265.559 0.653516 0.117526 0
M  V30 2771 H 268.089 2.02818 -0.269421 0
M  V30 2772 H 268.099 3.84243 1.37191 0
M  V30 2773 H 266.774 4.15077 0.261572 0
M  V30 2774 H 265.351 3.23807 1.84942 0
M  V30 2775 N 267.536 -0.106894 1.57237 0
M  V30 2776 C 268.952 -0.46078 1.52804 0
M  V30 2777 C 269.152 -1.81184 0.881746 0
M  V30 2778 O 268.208 -2.48102 0.469224 0
M  V30 2779 C 269.521 -0.434127 2.9755 0
M  V30 2780 C 271.069 -0.516821 3.08704 0
M  V30 2781 C 271.544 -0.520436 4.55033 0
M  V30 2782 N 273.035 -0.58153 4.59535 0
M  V30 2783 C 273.77 -0.605973 5.70189 0
M  V30 2784 N 273.266 -0.587331 6.90306 0
M  V30 2785 N 275.059 -0.649895 5.5833 0
M  V30 2786 H 267.21 0.778203 1.9763 0
M  V30 2787 H 269.473 0.288403 0.903066 0
M  V30 2788 H 269.179 0.491197 3.48253 0
M  V30 2789 H 269.053 -1.25748 3.55622 0
M  V30 2790 H 271.44 -1.43256 2.57995 0
M  V30 2791 H 271.521 0.334449 2.53604 0
M  V30 2792 H 271.165 0.391313 5.0639 0
M  V30 2793 H 271.095 -1.38876 5.07958 0
M  V30 2794 H 273.586 -0.60161 3.73081 0
M  V30 2795 H 273.899 -0.60894 7.70397 0
M  V30 2796 H 272.244 -0.554564 6.92784 0
M  V30 2797 H 275.435 -0.661907 4.63397 0
M  V30 2798 H 275.608 -0.665476 6.44574 0
M  V30 2799 N 269.014 -1.53014 -0.377408 0
M  V30 2800 C 270.262 -1.6829 -1.11906 0
M  V30 2801 C 270.583 -0.431206 -1.90173 0
M  V30 2802 O 269.853 0.554595 -1.87886 0
M  V30 2803 H 268.433 -0.620371 -0.416112 0
M  V30 2804 H 271.095 -1.90167 -0.426893 0
M  V30 2805 H 270.191 -2.53862 -1.8155 0
M  V30 2806 N 270.492 0.636531 -1.44174 0
M  V30 2807 C 271.741 1.39213 -1.45954 0
M  V30 2808 C 272.054 1.95374 -0.0939119 0
M  V30 2809 O 273.26 2.71498 0.0107767 0
M  V30 2810 C 271.716 2.52025 -2.56927 0
M  V30 2811 C 271.324 2.024 -3.99673 0
M  V30 2812 C 273.068 3.29269 -2.67922 0
M  V30 2813 C 270.975 3.12521 -5.0208 0
M  V30 2814 H 269.905 0.523132 -0.542999 0
M  V30 2815 H 272.556 0.685349 -1.70221 0
M  V30 2816 H 270.938 3.25253 -2.25891 0
M  V30 2817 H 272.112 1.36073 -4.40251 0
M  V30 2818 H 270.427 1.37987 -3.92872 0
M  V30 2819 H 273.024 4.11352 -3.41605 0
M  V30 2820 H 273.367 3.78397 -1.73555 0
M  V30 2821 H 273.9 2.63129 -2.98342 0
M  V30 2822 H 270.639 2.68343 -5.98057 0
M  V30 2823 H 270.159 3.77507 -4.66099 0
M  V30 2824 H 271.838 3.77385 -5.25538 0
M  V30 2825 N 271.97 1.30982 0.876444 0
M  V30 2826 C 273.386 1.09498 1.16113 0
M  V30 2827 C 273.586 -0.13875 2.01022 0
M  V30 2828 O 272.642 -0.829935 2.38471 0
M  V30 2829 C 273.955 2.36308 1.85954 0
M  V30 2830 C 275.503 2.41856 1.98683 0
M  V30 2831 C 275.978 3.6853 2.71937 0
M  V30 2832 N 277.469 3.69387 2.79477 0
M  V30 2833 C 278.204 4.64096 3.36753 0
M  V30 2834 N 277.7 5.69155 3.95012 0
M  V30 2835 N 279.493 4.51626 3.3465 0
M  V30 2836 H 271.644 2.10118 0.310494 0
M  V30 2837 H 273.907 0.926634 0.200131 0
M  V30 2838 H 273.613 3.26388 1.31011 0
M  V30 2839 H 273.487 2.4561 2.86278 0
M  V30 2840 H 275.874 1.52249 2.52793 0
M  V30 2841 H 275.955 2.36523 0.9742 0
M  V30 2842 H 275.599 4.58499 2.18496 0
M  V30 2843 H 275.529 3.71127 3.73593 0
M  V30 2844 H 278.02 2.93438 2.38123 0
M  V30 2845 H 278.333 6.3751 4.36808 0
M  V30 2846 H 276.678 5.72937 3.93406 0
M  V30 2847 H 279.869 3.68728 2.8837 0
M  V30 2848 H 280.042 5.25614 3.7899 0
M  V30 2849 N 273.449 -1.08991 1.13837 0
M  V30 2850 C 274.674 -1.85551 0.926585 0
M  V30 2851 C 275.099 -1.80782 -0.519566 0
M  V30 2852 O 274.457 -1.18855 -1.36906 0
M  V30 2853 C 274.505 -3.31266 1.42462 0
M  V30 2854 O 273.609 -4.07822 0.612789 0
M  V30 2855 H 272.95 -0.575192 0.331738 0
M  V30 2856 H 275.48 -1.37604 1.51414 0
M  V30 2857 H 275.49 -3.82112 1.43019 0
M  V30 2858 H 274.165 -3.34052 2.47754 0
M  V30 2859 H 272.742 -3.66731 0.675463 0
M  V30 2860 N 274.927 -0.932562 -1.27047 0
M  V30 2861 C 275.857 -0.452902 -2.29066 0
M  V30 2862 C 276.838 0.489338 -1.62909 0
M  V30 2863 O 278.023 0.393046 -1.90181 0
M  V30 2864 C 275.153 0.290698 -3.46081 0
M  V30 2865 C 274.107 -0.564168 -4.24265 0
M  V30 2866 C 273.433 0.308886 -5.33807 0
M  V30 2867 C 274.733 -1.83112 -4.89149 0
M  V30 2868 H 276.427 -1.30552 -2.69437 0
M  V30 2869 H 273.973 -0.629201 -1.29526 0
M  V30 2870 H 275.926 0.637233 -4.16554 0
M  V30 2871 H 274.65 1.17738 -3.0464 0
M  V30 2872 H 273.309 -0.893477 -3.55545 0
M  V30 2873 H 272.957 1.19467 -4.88607 0
M  V30 2874 H 272.657 -0.259633 -5.87026 0
M  V30 2875 H 274.181 0.650884 -6.07121 0
M  V30 2876 H 275.595 -1.55236 -5.51883 0
M  V30 2877 H 273.992 -2.34353 -5.52448 0
M  V30 2878 H 275.062 -2.54772 -4.12576 0
M  V30 2879 N 276.405 1.4127 -0.698611 0
M  V30 2880 C 277.368 2.29158 -0.044132 0
M  V30 2881 C 278.368 1.44529 0.704841 0
M  V30 2882 O 279.558 1.65643 0.539276 0
M  V30 2883 C 276.69 3.27459 0.947809 0
M  V30 2884 H 277.883 2.88529 -0.817994 0
M  V30 2885 H 275.436 1.49307 -0.46228 0
M  V30 2886 H 276.171 2.73073 1.74933 0
M  V30 2887 H 275.956 3.8991 0.41385 0
M  V30 2888 H 277.446 3.93311 1.40344 0
M  V30 2889 N 277.883 0.443576 1.51229 0
M  V30 2890 C 279.129 -0.120975 2.02439 0
M  V30 2891 C 279.462 -1.41815 1.32674 0
M  V30 2892 O 278.737 -1.89373 0.443622 0
M  V30 2893 C 279.02 -0.333291 3.58554 0
M  V30 2894 C 278.873 0.982968 4.38928 0
M  V30 2895 C 280.192 -1.10028 4.26124 0
M  V30 2896 H 277.311 -0.0424923 0.735774 0
M  V30 2897 H 279.953 0.583794 1.80809 0
M  V30 2898 H 278.103 -0.933614 3.77115 0
M  V30 2899 H 279.775 1.61775 4.32003 0
M  V30 2900 H 278.018 1.58611 4.03763 0
M  V30 2901 H 278.689 0.788379 5.46341 0
M  V30 2902 H 281.165 -0.591711 4.11871 0
M  V30 2903 H 280.041 -1.21761 5.35225 0
M  V30 2904 H 280.302 -2.12996 3.87408 0
M  V30 2905 N 279.361 -1.56624 0.175154 0
M  V30 2906 C 280.607 -1.9729 -0.469506 0
M  V30 2907 C 280.94 -1.06128 -1.62636 0
M  V30 2908 O 280.215 -0.109183 -1.94193 0
M  V30 2909 C 280.498 -3.47375 -0.948804 0
M  V30 2910 C 280.351 -4.49317 0.208491 0
M  V30 2911 C 281.67 -4.00652 -1.82116 0
M  V30 2912 H 278.789 -0.717317 -0.16919 0
M  V30 2913 H 281.431 -1.88184 0.262062 0
M  V30 2914 H 279.581 -3.55267 -1.57219 0
M  V30 2915 H 281.253 -4.53482 0.845682 0
M  V30 2916 H 279.496 -4.25121 0.863395 0
M  V30 2917 H 280.167 -5.51741 -0.169059 0
M  V30 2918 H 282.643 -3.95416 -1.2956 0
M  V30 2919 H 281.519 -5.06075 -2.12554 0
M  V30 2920 H 281.78 -3.44699 -2.7683 0
M  V30 2921 N 280.839 0.0985539 -1.57292 0
M  V30 2922 C 281.769 1.12064 -2.04851 0
M  V30 2923 C 282.75 1.41981 -0.936767 0
M  V30 2924 O 283.935 1.52071 -1.20781 0
M  V30 2925 C 281.065 2.44144 -2.47004 0
M  V30 2926 C 280.019 2.28643 -3.6181 0
M  V30 2927 C 279.345 3.65869 -3.89929 0
M  V30 2928 C 280.645 1.72986 -4.92822 0
M  V30 2929 H 282.339 0.724979 -2.9049 0
M  V30 2930 H 279.885 0.34729 -1.39749 0
M  V30 2931 H 281.838 3.15914 -2.78884 0
M  V30 2932 H 280.562 2.85639 -1.5836 0
M  V30 2933 H 279.221 1.59318 -3.30172 0
M  V30 2934 H 278.869 4.04885 -2.98458 0
M  V30 2935 H 278.569 3.56344 -4.67218 0
M  V30 2936 H 280.093 4.39112 -4.2428 0
M  V30 2937 H 281.507 2.34593 -5.23105 0
M  V30 2938 H 279.904 1.74229 -5.74251 0
M  V30 2939 H 280.974 0.689007 -4.7998 0
M  V30 2940 N 282.317 1.53212 0.369288 0
M  V30 2941 C 283.25 1.74166 1.4745 0
M  V30 2942 C 284.228 0.589923 1.51521 0
M  V30 2943 O 285.412 0.822078 1.69629 0
M  V30 2944 C 282.539 1.81711 2.8583 0
M  V30 2945 C 281.585 3.03649 2.99499 0
M  V30 2946 S 282.418 4.63242 2.6864 0
M  V30 2947 C 283.574 4.7363 4.09177 0
M  V30 2948 H 283.807 2.67636 1.29454 0
M  V30 2949 H 281.34 1.43754 0.563396 0
M  V30 2950 H 283.298 1.86743 3.65564 0
M  V30 2951 H 281.959 0.89299 3.01139 0
M  V30 2952 H 281.152 3.05526 4.00836 0
M  V30 2953 H 280.754 2.9671 2.27683 0
M  V30 2954 H 283.046 4.53456 5.03372 0
M  V30 2955 H 283.989 5.75682 4.12306 0
M  V30 2956 H 284.397 4.02295 3.96004 0
M  V30 2957 N 283.795 -0.628877 1.44509 0
M  V30 2958 C 284.745 -1.7345 1.47983 0
M  V30 2959 C 285.729 -1.5715 0.345373 0
M  V30 2960 O 286.921 -1.66848 0.590829 0
M  V30 2961 C 284.05 -3.12143 1.42904 0
M  V30 2962 C 283.136 -3.33906 2.61472 0
M  V30 2963 N 283.527 -3.26024 3.86706 0
M  V30 2964 C 281.825 -3.64709 2.56716 0
M  V30 2965 C 282.526 -3.48536 4.65722 0
M  V30 2966 N 281.502 -3.71517 3.96832 0
M  V30 2967 H 285.304 -1.65818 2.42655 0
M  V30 2968 H 282.818 -0.831419 1.39503 0
M  V30 2969 H 284.815 -3.91433 1.43476 0
M  V30 2970 H 283.475 -3.2094 0.492717 0
M  V30 2971 H 284.486 -3.04893 4.18641 0
M  V30 2972 H 281.163 -3.80473 1.71891 0
M  V30 2973 H 282.553 -3.48016 5.74747 0
M  V30 2974 N 285.273 -1.31445 -0.869486 0
M  V30 2975 C 286.498 -1.24256 -1.66058 0
M  V30 2976 C 286.923 0.188928 -1.87149 0
M  V30 2977 O 286.281 1.13522 -1.4136 0
M  V30 2978 C 286.329 -1.9924 -3.00559 0
M  V30 2979 O 285.433 -1.33007 -3.90362 0
M  V30 2980 H 284.774 -0.428973 -0.506831 0
M  V30 2981 H 287.304 -1.73521 -1.08404 0
M  V30 2982 H 287.314 -2.08854 -3.50491 0
M  V30 2983 H 285.989 -3.03342 -2.84528 0
M  V30 2984 H 284.566 -1.31848 -3.48813 0
M  V30 2985 N 286.751 1.08385 -1.14413 0
M  V30 2986 C 287.981 1.8425 -0.934644 0
M  V30 2987 C 288.389 1.81907 0.520234 0
M  V30 2988 O 287.732 1.22126 1.37226 0
M  V30 2989 C 287.794 3.32853 -1.35828 0
M  V30 2990 C 287.458 3.5893 -2.82875 0
M  V30 2991 C 288.455 3.53756 -3.80989 0
M  V30 2992 C 286.14 3.86934 -3.20293 0
M  V30 2993 C 288.134 3.76216 -5.14529 0
M  V30 2994 C 285.821 4.09047 -4.54008 0
M  V30 2995 C 286.819 4.03682 -5.50936 0
M  V30 2996 O 286.507 4.25214 -6.82238 0
M  V30 2997 H 286.239 0.588502 -0.332628 0
M  V30 2998 H 288.793 1.37792 -1.52324 0
M  V30 2999 H 287.023 3.8007 -0.713019 0
M  V30 3000 H 288.712 3.90154 -1.11957 0
M  V30 3001 H 289.478 3.32135 -3.53428 0
M  V30 3002 H 285.357 3.9023 -2.45442 0
M  V30 3003 H 288.901 3.71943 -5.90173 0
M  V30 3004 H 284.798 4.30151 -4.8129 0
M  V30 3005 H 285.566 4.42619 -6.88499 0
M  V30 3006 N 288.23 0.939286 1.26551 0
M  V30 3007 C 289.458 0.602536 1.97932 0
M  V30 3008 C 289.873 -0.82206 1.69964 0
M  V30 3009 O 289.23 -1.54789 0.966784 0
M  V30 3010 C 289.281 0.832946 3.51773 0
M  V30 3011 O 289.002 2.20151 3.78768 0
M  V30 3012 C 290.503 0.506483 4.40397 0
M  V30 3013 H 287.723 0.227248 0.631347 0
M  V30 3014 H 290.267 1.25948 1.61113 0
M  V30 3015 H 288.422 0.222644 3.8676 0
M  V30 3016 H 288.836 2.26013 4.73306 0
M  V30 3017 H 290.31 0.718333 5.47306 0
M  V30 3018 H 290.787 -0.558451 4.35635 0
M  V30 3019 H 291.393 1.09543 4.10951 0
M  V30 3020 N 289.708 -1.40897 0.706093 0
M  V30 3021 C 290.954 -2.01849 0.250681 0
M  V30 3022 C 291.309 -1.5496 -1.14041 0
M  V30 3023 O 290.602 -0.755566 -1.76073 0
M  V30 3024 C 290.796 -3.5646 0.259099 0
M  V30 3025 C 290.625 -4.18357 1.64947 0
M  V30 3026 C 289.395 -4.522 2.25485 0
M  V30 3027 C 291.593 -4.43856 2.598 0
M  V30 3028 N 289.575 -4.9944 3.56977 0
M  V30 3029 C 290.946 -4.92986 3.75985 0
M  V30 3030 C 293.001 -4.25882 2.57933 0
M  V30 3031 C 291.704 -5.2603 4.90597 0
M  V30 3032 C 293.73 -4.6002 3.71665 0
M  V30 3033 C 293.092 -5.09331 4.86581 0
M  V30 3034 H 289.191 -0.769843 0.137353 0
M  V30 3035 H 291.775 -1.71278 0.925845 0
M  V30 3036 H 289.946 -3.86481 -0.385592 0
M  V30 3037 H 291.678 -4.04144 -0.21213 0
M  V30 3038 H 288.433 -4.3901 1.77671 0
M  V30 3039 H 288.857 -5.27454 4.24407 0
M  V30 3040 H 293.499 -3.86986 1.70298 0
M  V30 3041 H 291.217 -5.63843 5.78884 0
M  V30 3042 H 294.803 -4.47762 3.71484 0
M  V30 3043 H 293.683 -5.35251 5.73129 0
M  V30 3044 N 291.186 -0.45159 -1.50991 0
M  V30 3045 C 292.149 0.341117 -2.26647 0
M  V30 3046 C 293.149 0.937422 -1.30649 0
M  V30 3047 O 294.339 0.809644 -1.54241 0
M  V30 3048 C 291.471 1.48398 -3.06905 0
M  V30 3049 H 292.664 -0.322117 -2.98165 0
M  V30 3050 H 290.217 -0.205122 -1.54948 0
M  V30 3051 H 290.952 2.18284 -2.39838 0
M  V30 3052 H 290.737 1.06241 -3.77432 0
M  V30 3053 H 292.227 2.04367 -3.64176 0
M  V30 3054 N 292.664 1.56529 -0.183458 0
M  V30 3055 C 293.596 2.15747 0.773697 0
M  V30 3056 C 294.609 1.1162 1.1851 0
M  V30 3057 O 295.798 1.3876 1.12285 0
M  V30 3058 C 292.898 2.6952 2.05456 0
M  V30 3059 C 292.071 3.98429 1.8048 0
M  V30 3060 C 291.13 4.37145 2.92901 0
M  V30 3061 O 290.156 5.04791 2.6301 0
M  V30 3062 N 291.358 3.99695 4.2098 0
M  V30 3063 H 294.123 2.98505 0.26736 0
M  V30 3064 H 291.684 1.619 -0.0010878 0
M  V30 3065 H 293.676 2.92412 2.79781 0
M  V30 3066 H 292.246 1.91282 2.47245 0
M  V30 3067 H 291.466 3.8379 0.899947 0
M  V30 3068 H 292.754 4.82597 1.61175 0
M  V30 3069 H 292.152 3.4526 4.48121 0
M  V30 3070 H 290.709 4.27562 4.9197 0
M  V30 3071 N 294.142 -0.090211 1.57342 0
M  V30 3072 C 295.092 -1.11557 1.98844 0
M  V30 3073 C 296.076 -1.35503 0.867624 0
M  V30 3074 O 297.268 -1.36113 1.13148 0
M  V30 3075 C 294.397 -2.43446 2.42051 0
M  V30 3076 C 293.483 -2.22853 3.60828 0
M  V30 3077 N 293.874 -1.72141 4.75606 0
M  V30 3078 C 292.172 -2.53401 3.67021 0
M  V30 3079 C 292.873 -1.65932 5.57531 0
M  V30 3080 N 291.849 -2.11323 5.00843 0
M  V30 3081 H 295.651 -0.716499 2.85032 0
M  V30 3082 H 293.165 -0.297567 1.59651 0
M  V30 3083 H 295.162 -3.17644 2.70014 0
M  V30 3084 H 293.822 -2.84087 1.57241 0
M  V30 3085 H 294.833 -1.41268 4.98261 0
M  V30 3086 H 291.51 -2.97532 2.92884 0
M  V30 3087 H 292.9 -1.27733 6.59647 0
M  V30 3088 N 295.62 -1.53406 -0.361157 0
M  V30 3089 C 296.53 -1.83122 -1.4664 0
M  V30 3090 C 297.546 -0.719943 -1.58407 0
M  V30 3091 O 298.722 -1.01046 -1.74218 0
M  V30 3092 C 295.787 -2.01891 -2.81853 0
M  V30 3093 C 294.848 -3.25784 -2.79577 0
M  V30 3094 C 294.081 -3.43648 -4.0834 0
M  V30 3095 O 294.304 -2.65714 -5.0473 0
M  V30 3096 O 293.238 -4.37018 -4.13883 0
M  V30 3097 H 297.064 -2.7703 -1.24451 0
M  V30 3098 H 294.649 -1.38841 -0.551678 0
M  V30 3099 H 296.531 -2.15782 -3.61962 0
M  V30 3100 H 295.206 -1.11173 -3.0401 0
M  V30 3101 H 294.113 -3.17312 -1.98151 0
M  V30 3102 H 295.446 -4.16439 -2.62373 0
M  V30 3103 N 297.098 0.621204 -1.44841 0
M  V30 3104 C 298.03 1.74615 -1.48466 0
M  V30 3105 C 299.043 1.58377 -0.37691 0
M  V30 3106 O 300.232 1.66508 -0.643215 0
M  V30 3107 C 297.332 3.12459 -1.31236 0
M  V30 3108 C 296.505 3.55064 -2.55438 0
M  V30 3109 C 295.564 4.71821 -2.32963 0
M  V30 3110 O 294.59 4.79628 -3.06505 0
M  V30 3111 N 295.792 5.64186 -1.36654 0
M  V30 3112 H 298.557 1.71973 -2.45449 0
M  V30 3113 H 296.118 0.806077 -1.40407 0
M  V30 3114 H 298.11 3.88302 -1.14032 0
M  V30 3115 H 296.68 3.09686 -0.4258 0
M  V30 3116 H 295.9 2.69324 -2.87851 0
M  V30 3117 H 297.188 3.80284 -3.38026 0
M  V30 3118 H 296.586 5.6058 -0.759344 0
M  V30 3119 H 295.143 6.39618 -1.25425 0
M  V30 3120 N 298.576 1.31904 0.862503 0
M  V30 3121 C 299.508 1.16005 1.97675 0
M  V30 3122 C 300.521 0.0971234 1.6251 0
M  V30 3123 O 301.71 0.345337 1.75128 0
M  V30 3124 C 298.81 0.751791 3.30456 0
M  V30 3125 C 297.983 1.90133 3.93914 0
M  V30 3126 C 297.042 1.4779 5.05019 0
M  V30 3127 O 296.068 2.18872 5.25437 0
M  V30 3128 N 297.27 0.369491 5.79323 0
M  V30 3129 H 300.035 2.11982 2.11857 0
M  V30 3130 H 297.596 1.24337 1.03691 0
M  V30 3131 H 299.588 0.451084 4.02178 0
M  V30 3132 H 298.158 -0.116593 3.12382 0
M  V30 3133 H 297.378 2.36896 3.15078 0
M  V30 3134 H 298.666 2.67111 4.33047 0
M  V30 3135 H 298.064 -0.222299 5.65263 0
M  V30 3136 H 296.621 0.128354 6.51674 0
M  V30 3137 N 300.054 -1.07777 1.14986 0
M  V30 3138 C 301.3 -1.80557 0.923422 0
M  V30 3139 C 301.633 -1.86298 -0.548337 0
M  V30 3140 O 300.908 -1.34354 -1.40639 0
M  V30 3141 C 301.191 -3.25839 1.53299 0
M  V30 3142 C 301.044 -3.28269 3.07505 0
M  V30 3143 C 302.363 -4.22991 1.21518 0
M  V30 3144 H 299.482 -0.655493 0.336894 0
M  V30 3145 H 302.124 -1.26144 1.42083 0
M  V30 3146 H 300.274 -3.72306 1.10999 0
M  V30 3147 H 301.946 -2.90079 3.58681 0
M  V30 3148 H 300.189 -2.67355 3.4162 0
M  V30 3149 H 300.86 -4.30691 3.45266 0
M  V30 3150 H 303.336 -3.84894 1.581 0
M  V30 3151 H 302.212 -5.22945 1.66793 0
M  V30 3152 H 302.473 -4.41904 0.131505 0
M  V30 3153 N 301.532 -0.945985 -1.26051 0
M  V30 3154 C 302.78 -0.594941 -1.93145 0
M  V30 3155 C 303.101 0.86953 -1.7454 0
M  V30 3156 O 302.371 1.61838 -1.10387 0
M  V30 3157 H 300.951 -0.217044 -0.714773 0
M  V30 3158 H 303.613 -1.20235 -1.53393 0
M  V30 3159 H 302.709 -0.816835 -3.01221 0
M  V30 3160 N 303.011 1.40521 -0.713556 0
M  V30 3161 C 304.257 2.01221 -0.252564 0
M  V30 3162 C 304.59 1.56444 1.1506 0
M  V30 3163 O 303.865 0.783597 1.78017 0
M  V30 3164 C 304.148 3.58582 -0.330332 0
M  V30 3165 C 304.001 4.13437 -1.77173 0
M  V30 3166 C 305.32 4.39079 0.299641 0
M  V30 3167 H 302.439 0.731077 -0.0932471 0
M  V30 3168 H 305.081 1.67026 -0.905673 0
M  V30 3169 H 303.231 3.87844 0.225737 0
M  V30 3170 H 304.903 3.9498 -2.38303 0
M  V30 3171 H 303.146 3.67801 -2.3001 0
M  V30 3172 H 303.817 5.22597 -1.77755 0
M  V30 3173 H 306.293 4.15735 -0.174139 0
M  V30 3174 H 305.169 5.4848 0.214771 0
M  V30 3175 H 305.43 4.19915 1.38288 0
M  V30 3176 N 304.489 0.459591 1.5075 0
M  V30 3177 C 305.419 -0.330644 2.31147 0
M  V30 3178 C 306.4 -1.00087 1.37538 0
M  V30 3179 O 307.585 -1.00025 1.66459 0
M  V30 3180 C 304.715 -1.41958 3.16962 0
M  V30 3181 C 303.669 -0.871608 4.19031 0
M  V30 3182 C 302.995 -2.05797 4.9351 0
M  V30 3183 C 304.295 0.109251 5.22186 0
M  V30 3184 H 305.989 0.340336 2.97459 0
M  V30 3185 H 303.535 0.165119 1.4305 0
M  V30 3186 H 305.488 -1.9798 3.71997 0
M  V30 3187 H 304.212 -2.11917 2.48513 0
M  V30 3188 H 302.871 -0.333442 3.6508 0
M  V30 3189 H 302.519 -2.74427 4.21544 0
M  V30 3190 H 302.219 -1.6976 5.62544 0
M  V30 3191 H 303.743 -2.62331 5.51375 0
M  V30 3192 H 305.157 -0.361405 5.7216 0
M  V30 3193 H 303.554 0.383316 5.98875 0
M  V30 3194 H 304.624 1.03887 4.73641 0
M  V30 3195 N 305.967 -1.56429 0.191757 0
M  V30 3196 C 306.93 -2.17707 -0.716688 0
M  V30 3197 C 307.93 -1.13061 -1.14341 0
M  V30 3198 O 309.12 -1.38464 -1.05704 0
M  V30 3199 C 306.252 -2.77644 -1.97804 0
M  V30 3200 H 307.445 -2.99342 -0.1829 0
M  V30 3201 H 304.998 -1.56193 -0.0578566 0
M  V30 3202 H 305.733 -1.99799 -2.55443 0
M  V30 3203 H 305.518 -3.54246 -1.68083 0
M  V30 3204 H 307.008 -3.24708 -2.62592 0
M  V30 3205 N 307.445 0.0818655 -1.57387 0
M  V30 3206 C 308.861 0.436412 -1.53517 0
M  V30 3207 C 309.061 1.79758 -0.910459 0
M  V30 3208 O 308.117 2.47324 -0.508636 0
M  V30 3209 C 309.43 0.386734 -2.98203 0
M  V30 3210 C 310.978 0.467644 -3.09487 0
M  V30 3211 C 311.453 0.447978 -4.55804 0
M  V30 3212 N 312.944 0.508348 -4.60402 0
M  V30 3213 C 313.679 0.515184 -5.71081 0
M  V30 3214 N 313.175 0.477435 -6.91153 0
M  V30 3215 N 314.968 0.560988 -5.59294 0
M  V30 3216 H 307.119 -0.809546 -1.96367 0
M  V30 3217 H 309.382 -0.302733 -0.898363 0
M  V30 3218 H 309.088 -0.546539 -3.47427 0
M  V30 3219 H 308.962 1.20075 -3.57578 0
M  V30 3220 H 311.349 1.39134 -2.60242 0
M  V30 3221 H 311.43 -0.374753 -2.5304 0
M  V30 3222 H 311.074 -0.471826 -5.05704 0
M  V30 3223 H 311.004 1.30777 -5.10103 0
M  V30 3224 H 313.495 0.54218 -3.7399 0
M  V30 3225 H 313.808 0.486299 -7.71268 0
M  V30 3226 H 312.153 0.444278 -6.93579 0
M  V30 3227 H 315.344 0.5881 -4.64391 0
M  V30 3228 H 315.517 0.562846 -6.45551 0
M  V30 3229 N 308.923 1.53595 0.353017 0
M  V30 3230 C 309.833 1.83897 1.45667 0
M  V30 3231 C 310.849 0.728334 1.58023 0
M  V30 3232 O 312.025 1.01968 1.73679 0
M  V30 3233 C 309.09 2.03383 2.80778 0
M  V30 3234 C 308.151 3.27262 2.77845 0
M  V30 3235 C 307.384 3.45809 4.06512 0
M  V30 3236 O 307.607 2.68387 5.03314 0
M  V30 3237 O 306.541 4.39207 4.11559 0
M  V30 3238 H 310.367 2.77686 1.2298 0
M  V30 3239 H 307.952 1.39132 0.544308 0
M  V30 3240 H 309.834 2.17698 3.60812 0
M  V30 3241 H 308.509 1.12783 3.03417 0
M  V30 3242 H 307.416 3.18359 1.96465 0
M  V30 3243 H 308.749 4.17824 2.60161 0
M  V30 3244 N 310.401 -0.613514 1.45168 0
M  V30 3245 C 311.331 -1.7354 1.56225 0
M  V30 3246 C 312.312 -1.64981 0.41414 0
M  V30 3247 O 313.497 -1.83472 0.636526 0
M  V30 3248 C 310.627 -3.12128 1.52295 0
M  V30 3249 C 309.581 -3.35491 2.65762 0
M  V30 3250 C 308.907 -4.74291 2.46885 0
M  V30 3251 C 310.207 -3.26325 4.0781 0
M  V30 3252 H 311.901 -1.64543 2.50132 0
M  V30 3253 H 309.447 -0.790185 1.20383 0
M  V30 3254 H 311.4 -3.90404 1.58628 0
M  V30 3255 H 310.124 -3.2195 0.549139 0
M  V30 3256 H 308.783 -2.59603 2.58847 0
M  V30 3257 H 308.431 -4.80839 1.47657 0
M  V30 3258 H 308.131 -4.9088 3.22972 0
M  V30 3259 H 309.655 -5.54775 2.55063 0
M  V30 3260 H 311.069 -3.94483 4.16 0
M  V30 3261 H 309.466 -3.54445 4.8424 0
M  V30 3262 H 310.536 -2.23855 4.30136 0
M  V30 3263 N 311.879 -1.3236 -0.855495 0
M  V30 3264 C 313.127 -1.22629 -1.60644 0
M  V30 3265 C 313.448 0.212136 -1.93843 0
M  V30 3266 O 312.718 1.13666 -1.59552 0
M  V30 3267 H 311.298 -0.450882 -0.595579 0
M  V30 3268 H 313.96 -1.65871 -1.02337 0
M  V30 3269 H 313.056 -1.80832 -2.54374 0
M  V30 3270 N 313.357 1.07166 -1.15556 0
M  V30 3271 C 314.604 1.79798 -0.931604 0
M  V30 3272 C 314.932 1.8682 0.54115 0
M  V30 3273 O 314.187 1.34942 1.41736 0
M  V30 3274 C 314.486 3.24707 -1.49332 0
M  V30 3275 C 314.152 3.37781 -2.98688 0
M  V30 3276 C 312.814 3.41057 -3.39461 0
M  V30 3277 C 315.166 3.40424 -3.94665 0
M  V30 3278 C 312.494 3.4458 -4.74849 0
M  V30 3279 C 314.846 3.45485 -5.29927 0
M  V30 3280 C 313.51 3.47039 -5.70193 0
M  V30 3281 H 312.78 0.657928 -0.340898 0
M  V30 3282 H 315.427 1.26091 -1.44129 0
M  V30 3283 H 313.732 3.81208 -0.904859 0
M  V30 3284 H 315.429 3.79486 -1.29582 0
M  V30 3285 H 312.019 3.35932 -2.66172 0
M  V30 3286 H 316.203 3.37113 -3.64237 0
M  V30 3287 H 311.459 3.44083 -5.05388 0
M  V30 3288 H 315.633 3.46476 -6.04092 0
M  V30 3289 H 313.26 3.49522 -6.75084 0
M  V30 3290 N 314.835 0.952656 1.25548 0
M  V30 3291 C 316.063 0.623496 1.97282 0
M  V30 3292 C 316.478 -0.803987 1.70826 0
M  V30 3293 O 315.835 -1.53755 0.983147 0
M  V30 3294 C 315.886 0.870209 3.5087 0
M  V30 3295 O 315.607 2.24156 3.76412 0
M  V30 3296 C 317.108 0.553164 4.39835 0
M  V30 3297 H 314.328 0.233931 0.628902 0
M  V30 3298 H 316.872 1.27649 1.59768 0
M  V30 3299 H 315.027 0.263652 3.86502 0
M  V30 3300 H 315.441 2.31021 4.70882 0
M  V30 3301 H 316.915 0.776342 5.46513 0
M  V30 3302 H 317.392 -0.512215 4.36203 0
M  V30 3303 H 317.998 1.13896 4.09766 0
M  V30 3304 N 316.313 -1.40141 0.720998 0
M  V30 3305 C 317.263 -2.27949 0.0482544 0
M  V30 3306 C 318.247 -1.43538 -0.727021 0
M  V30 3307 O 319.439 -1.6658 -0.598332 0
M  V30 3308 C 316.568 -3.32126 -0.868729 0
M  V30 3309 C 315.654 -4.24008 -0.0883515 0
M  V30 3310 N 316.045 -4.97154 0.931226 0
M  V30 3311 C 314.343 -4.4485 -0.320105 0
M  V30 3312 C 315.044 -5.64587 1.4006 0
M  V30 3313 N 314.02 -5.38787 0.721752 0
M  V30 3314 H 317.822 -2.81948 0.829609 0
M  V30 3315 H 315.336 -1.52656 0.554067 0
M  V30 3316 H 317.333 -3.93884 -1.36605 0
M  V30 3317 H 315.993 -2.79687 -1.6494 0
M  V30 3318 H 317.004 -5.01 1.31222 0
M  V30 3319 H 313.681 -4.03378 -1.07668 0
M  V30 3320 H 315.071 -6.33175 2.24808 0
M  V30 3321 N 317.792 -0.46758 -1.50504 0
M  V30 3322 C 319.038 0.0887532 -2.02606 0
M  V30 3323 C 319.371 1.39686 -1.34913 0
M  V30 3324 O 318.646 1.88644 -0.473694 0
M  V30 3325 C 318.929 0.276206 -3.59039 0
M  V30 3326 C 318.782 -1.05267 -4.37309 0
M  V30 3327 C 320.101 1.03235 -4.27821 0
M  V30 3328 H 317.22 0.0307814 -0.736357 0
M  V30 3329 H 319.862 -0.612485 -1.79857 0
M  V30 3330 H 318.012 0.8735 -3.78553 0
M  V30 3331 H 319.684 -1.68628 -4.29374 0
M  V30 3332 H 317.927 -1.65015 -4.01189 0
M  V30 3333 H 318.598 -0.875197 -5.45018 0
M  V30 3334 H 321.074 0.526111 -4.12761 0
M  V30 3335 H 319.95 1.1323 -5.37094 0
M  V30 3336 H 320.211 2.06806 -3.90748 0
M  V30 3337 N 319.27 1.56325 -0.20005 0
M  V30 3338 C 320.495 2.02548 0.44597 0
M  V30 3339 C 320.92 1.07922 1.5406 0
M  V30 3340 O 320.278 0.0635775 1.81188 0
M  V30 3341 C 320.326 3.47175 0.974761 0
M  V30 3342 O 319.43 3.55671 2.08739 0
M  V30 3343 H 318.771 0.655862 0.103638 0
M  V30 3344 H 321.301 2.02201 -0.312381 0
M  V30 3345 H 321.311 3.87067 1.2901 0
M  V30 3346 H 319.986 4.15538 0.17347 0
M  V30 3347 H 318.563 3.27657 1.78032 0
M  V30 3348 N 320.748 -0.0735177 1.57428 0
M  V30 3349 C 321.678 -1.0879 2.06608 0
M  V30 3350 C 322.659 -1.40473 0.959237 0
M  V30 3351 O 323.844 -1.5013 1.23185 0
M  V30 3352 C 320.974 -2.40183 2.50857 0
M  V30 3353 C 319.928 -2.22858 3.65402 0
M  V30 3354 C 319.254 -3.59619 3.957 0
M  V30 3355 C 320.554 -1.65123 4.95511 0
M  V30 3356 H 322.248 -0.678673 2.91607 0
M  V30 3357 H 319.794 -0.325013 1.40284 0
M  V30 3358 H 321.747 -3.11437 2.83874 0
M  V30 3359 H 320.471 -2.83083 1.62885 0
M  V30 3360 H 319.13 -1.54045 3.32664 0
M  V30 3361 H 318.778 -4.00086 3.04861 0
M  V30 3362 H 318.478 -3.48866 4.72828 0
M  V30 3363 H 320.002 -4.32306 4.31212 0
M  V30 3364 H 321.416 -2.26241 5.26771 0
M  V30 3365 H 319.813 -1.65071 5.7695 0
M  V30 3366 H 320.883 -0.612559 4.81015 0
M  V30 3367 N 322.226 -1.5378 -0.344866 0
M  V30 3368 C 323.451 -1.75211 -1.10977 0
M  V30 3369 C 323.876 -0.48936 -1.81623 0
M  V30 3370 O 323.234 0.557925 -1.72502 0
M  V30 3371 C 323.282 -2.93147 -2.09993 0
M  V30 3372 O 322.386 -2.63203 -3.17487 0
M  V30 3373 H 321.727 -0.581241 -0.321021 0
M  V30 3374 H 324.257 -2.00738 -0.395661 0
M  V30 3375 H 324.267 -3.19898 -2.53237 0
M  V30 3376 H 322.942 -3.84731 -1.5797 0
M  V30 3377 H 321.519 -2.47336 -2.79069 0
M  V30 3378 N 323.704 0.605807 -1.45491 0
M  V30 3379 C 324.929 1.39625 -1.53361 0
M  V30 3380 C 325.354 1.87351 -0.167645 0
M  V30 3381 O 324.712 1.60243 0.848051 0
M  V30 3382 C 324.76 2.57559 -2.5238 0
M  V30 3383 O 323.864 3.58248 -2.04285 0
M  V30 3384 H 323.205 0.416771 -0.516912 0
M  V30 3385 H 325.735 0.737103 -1.90861 0
M  V30 3386 H 325.745 3.0478 -2.71244 0
M  V30 3387 H 324.42 2.22171 -3.51586 0
M  V30 3388 H 322.997 3.17664 -1.95305 0
M  V30 3389 N 325.182 1.32811 0.848464 0
M  V30 3390 C 326.092 1.24278 1.98978 0
M  V30 3391 C 327.108 0.155176 1.73307 0
M  V30 3392 O 328.284 0.376999 1.9784 0
M  V30 3393 C 325.349 0.972444 3.32783 0
M  V30 3394 C 324.41 2.14911 3.71634 0
M  V30 3395 C 323.643 1.89157 4.99054 0
M  V30 3396 O 323.866 0.837165 5.64223 0
M  V30 3397 O 322.8 2.75433 5.35183 0
M  V30 3398 H 326.626 2.20238 2.09115 0
M  V30 3399 H 324.211 1.12762 0.980052 0
M  V30 3400 H 326.093 0.838432 4.12975 0
M  V30 3401 H 324.768 0.043051 3.23671 0
M  V30 3402 H 323.675 2.33862 2.91992 0
M  V30 3403 H 325.008 3.06151 3.85399 0
M  V30 3404 N 326.66 -1.06551 1.16123 0
M  V30 3405 C 327.623 -2.12132 0.867906 0
M  V30 3406 C 328.623 -1.60224 -0.135944 0
M  V30 3407 O 329.813 -1.73943 0.0946422 0
M  V30 3408 C 326.945 -3.396 0.297419 0
M  V30 3409 H 328.138 -2.39586 1.80385 0
M  V30 3410 H 325.691 -1.22574 0.969812 0
M  V30 3411 H 326.426 -3.17794 -0.64633 0
M  V30 3412 H 326.211 -3.78581 1.02073 0
M  V30 3413 H 327.701 -4.17455 0.110052 0
M  V30 3414 N 328.138 -0.959301 -1.25041 0
M  V30 3415 C 329.071 -0.427418 -2.24161 0
M  V30 3416 C 330.049 0.493837 -1.54919 0
M  V30 3417 O 331.233 0.427144 -1.83597 0
M  V30 3418 C 328.36 0.383893 -3.36517 0
M  V30 3419 C 327.406 -0.478431 -4.23808 0
M  V30 3420 S 328.239 -1.91353 -5.00144 0
M  V30 3421 C 329.395 -1.11077 -6.15965 0
M  V30 3422 H 329.628 -1.26743 -2.6893 0
M  V30 3423 H 327.161 -0.763714 -1.34189 0
M  V30 3424 H 329.119 0.846039 -4.01687 0
M  V30 3425 H 327.78 1.19878 -2.90324 0
M  V30 3426 H 326.973 0.14406 -5.03794 0
M  V30 3427 H 326.575 -0.87597 -3.63597 0
M  V30 3428 H 328.867 -0.361699 -6.76534 0
M  V30 3429 H 329.81 -1.88472 -6.82557 0
M  V30 3430 H 330.218 -0.638843 -5.60873 0
M  V30 3431 N 329.616 1.39756 -0.72842 0
M  V30 3432 C 331.027 1.83498 -0.344289 0
M  V30 3433 C 331.378 1.60868 1.12321 0
M  V30 3434 O 330.503 1.09634 1.86573 0
M  V30 3435 C 331.098 3.33114 -0.618112 0
M  V30 3436 C 329.657 3.753 -0.287549 0
M  V30 3437 C 328.804 2.62831 -0.884048 0
M  V30 3438 H 331.755 1.28842 -0.926578 0
M  V30 3439 H 331.776 3.80334 0.112349 0
M  V30 3440 H 331.288 3.49553 -1.68625 0
M  V30 3441 H 329.389 3.64451 0.775012 0
M  V30 3442 H 329.502 4.72945 -0.765512 0
M  V30 3443 H 327.866 2.52792 -0.311149 0
M  V30 3444 H 328.649 2.82078 -1.95671 0
M  V30 3445 N 331.094 0.475555 1.50254 0
M  V30 3446 C 332.027 -0.362381 2.25304 0
M  V30 3447 C 333.005 -0.992393 1.28803 0
M  V30 3448 O 334.189 -1.02746 1.58036 0
M  V30 3449 C 331.316 -1.50813 3.03271 0
M  V30 3450 C 330.362 -0.995044 4.1473 0
M  V30 3451 S 331.195 0.0938436 5.35418 0
M  V30 3452 C 332.351 -1.05567 6.16933 0
M  V30 3453 H 332.584 0.274686 2.96028 0
M  V30 3454 H 330.117 0.260495 1.52187 0
M  V30 3455 H 332.075 -2.16476 3.48781 0
M  V30 3456 H 330.736 -2.11672 2.32064 0
M  V30 3457 H 329.929 -1.85293 4.68703 0
M  V30 3458 H 329.531 -0.416052 3.71679 0
M  V30 3459 H 331.823 -1.96636 6.48337 0
M  V30 3460 H 332.766 -0.555109 7.05921 0
M  V30 3461 H 333.174 -1.31151 5.49053 0
M  V30 3462 N 332.573 -1.56217 0.208337 0
M  V30 3463 C 333.819 -1.98242 -0.427552 0
M  V30 3464 C 334.152 -1.09554 -1.60348 0
M  V30 3465 O 333.427 -0.15035 -1.93918 0
M  V30 3466 C 333.71 -3.4931 -0.874907 0
M  V30 3467 C 333.563 -4.48773 0.303751 0
M  V30 3468 C 334.882 -4.04424 -1.73577 0
M  V30 3469 H 332.001 -0.720744 -0.153936 0
M  V30 3470 H 334.643 -1.87586 0.30192 0
M  V30 3471 H 332.793 -3.58522 -1.49648 0
M  V30 3472 H 334.465 -4.51586 0.941682 0
M  V30 3473 H 332.708 -4.23194 0.953375 0
M  V30 3474 H 333.379 -5.51976 -0.0519883 0
M  V30 3475 H 335.855 -3.98075 -1.21143 0
M  V30 3476 H 334.731 -5.1047 -2.01771 0
M  V30 3477 H 334.992 -3.50494 -2.69456 0
M  V30 3478 N 334.051 0.0651679 -1.57465 0
M  V30 3479 C 335.467 0.420105 -1.53972 0
M  V30 3480 C 335.667 1.78782 -0.929474 0
M  V30 3481 O 334.723 2.46771 -0.534839 0
M  V30 3482 C 336.036 0.355084 -2.98596 0
M  V30 3483 C 337.584 0.434792 -3.09965 0
M  V30 3484 C 338.059 0.399609 -4.56253 0
M  V30 3485 N 339.55 0.459488 -4.60915 0
M  V30 3486 C 340.285 0.454584 -5.71595 0
M  V30 3487 N 339.781 0.404102 -6.9162 0
M  V30 3488 N 341.574 0.501635 -5.59857 0
M  V30 3489 H 333.725 -0.830328 -1.95498 0
M  V30 3490 H 335.988 -0.312244 -0.895102 0
M  V30 3491 H 335.694 -0.583357 -3.46828 0
M  V30 3492 H 335.568 1.16275 -3.58831 0
M  V30 3493 H 337.955 1.36366 -2.61703 0
M  V30 3494 H 338.036 -0.40157 -2.52628 0
M  V30 3495 H 337.68 -0.525436 -5.05175 0
M  V30 3496 H 337.61 1.25359 -5.11461 0
M  V30 3497 H 340.101 0.502482 -3.74544 0
M  V30 3498 H 340.414 0.404468 -7.71741 0
M  V30 3499 H 338.759 0.37069 -6.94011 0
M  V30 3500 H 341.95 0.538812 -4.64989 0
M  V30 3501 H 342.123 0.494345 -6.46112 0
M  V30 3502 N 335.529 1.53961 0.336706 0
M  V30 3503 C 336.778 1.70751 1.07363 0
M  V30 3504 C 337.091 0.481061 1.89592 0
M  V30 3505 O 338.297 0.530046 2.66276 0
M  V30 3506 C 336.753 3.01965 1.95818 0
M  V30 3507 C 336.361 4.31971 1.18764 0
M  V30 3508 C 338.105 3.28121 2.69327 0
M  V30 3509 C 336.012 5.54255 2.06289 0
M  V30 3510 H 334.942 0.636292 0.404535 0
M  V30 3511 H 337.593 1.80459 0.332681 0
M  V30 3512 H 335.975 2.86132 2.7376 0
M  V30 3513 H 337.149 4.5853 0.456849 0
M  V30 3514 H 335.464 4.12481 0.569946 0
M  V30 3515 H 338.061 4.16673 3.35094 0
M  V30 3516 H 338.404 2.45426 3.36261 0
M  V30 3517 H 338.937 3.44762 1.98454 0
M  V30 3518 H 335.676 6.39513 1.43885 0
M  V30 3519 H 335.196 5.31935 2.77138 0
M  V30 3520 H 336.875 5.90159 2.65182 0
M  V30 3521 N 337.007 -0.598083 1.45811 0
M  V30 3522 C 338.253 -1.35882 1.50545 0
M  V30 3523 C 338.586 -1.93616 0.150445 0
M  V30 3524 O 337.861 -1.75604 -0.83628 0
M  V30 3525 C 338.144 -2.49966 2.59208 0
M  V30 3526 C 337.997 -1.97367 4.04186 0
M  V30 3527 C 339.316 -3.52068 2.64076 0
M  V30 3528 H 336.435 -0.492717 0.548087 0
M  V30 3529 H 339.077 -0.673319 1.77669 0
M  V30 3530 H 337.227 -3.08443 2.3621 0
M  V30 3531 H 338.899 -1.43466 4.38423 0
M  V30 3532 H 337.142 -1.283 4.14393 0
M  V30 3533 H 337.813 -2.79649 4.75921 0
M  V30 3534 H 340.289 -3.03448 2.84708 0
M  V30 3535 H 339.165 -4.2937 3.41954 0
M  V30 3536 H 339.426 -4.08304 1.69531 0
M  V30 3537 N 338.485 -1.33259 -0.841409 0
M  V30 3538 C 339.896 -1.22066 -1.41269 0
M  V30 3539 C 340.247 0.161479 -1.95534 0
M  V30 3540 O 339.372 1.06094 -1.88608 0
M  V30 3541 C 339.967 -2.20996 -2.568 0
M  V30 3542 C 338.526 -2.13649 -3.09888 0
M  V30 3543 C 337.673 -2.08623 -1.82679 0
M  V30 3544 H 340.624 -1.44895 -0.647395 0
M  V30 3545 H 340.645 -1.81621 -3.34356 0
M  V30 3546 H 340.157 -3.2158 -2.17274 0
M  V30 3547 H 338.258 -1.16359 -3.53965 0
M  V30 3548 H 338.371 -3.04079 -3.70234 0
M  V30 3549 H 336.735 -1.54061 -2.02824 0
M  V30 3550 H 337.518 -3.1101 -1.45353 0
M  V30 3551 N 339.963 1.05934 -1.16686 0
M  V30 3552 C 341.379 1.30938 -0.912542 0
M  V30 3553 C 341.579 1.96803 0.432533 0
M  V30 3554 O 340.635 2.23693 1.17123 0
M  V30 3555 C 341.948 2.18649 -2.06429 0
M  V30 3556 C 343.496 2.32055 -2.10047 0
M  V30 3557 C 343.971 3.23122 -3.24586 0
M  V30 3558 N 345.462 3.30706 -3.24327 0
M  V30 3559 C 346.197 4.01273 -4.09594 0
M  V30 3560 N 345.693 4.74332 -5.04956 0
M  V30 3561 N 347.486 3.97361 -3.97569 0
M  V30 3562 H 339.637 0.615777 -2.03278 0
M  V30 3563 H 341.9 0.334077 -0.887185 0
M  V30 3564 H 341.606 1.77534 -3.03603 0
M  V30 3565 H 341.48 3.19252 -2.00894 0
M  V30 3566 H 343.867 2.72415 -1.13464 0
M  V30 3567 H 343.948 1.31107 -2.19647 0
M  V30 3568 H 343.592 2.83477 -4.2143 0
M  V30 3569 H 343.522 4.24057 -3.12223 0
M  V30 3570 H 346.013 2.78644 -2.55276 0
M  V30 3571 H 346.326 5.25716 -5.6643 0
M  V30 3572 H 344.671 4.733 -5.08933 0
M  V30 3573 H 347.862 3.39405 -3.22369 0
M  V30 3574 H 348.035 4.52089 -4.64241 0
M  V30 3575 N 341.441 0.965919 1.2453 0
M  V30 3576 C 342.689 0.625593 1.92174 0
M  V30 3577 C 343.01 -0.841652 1.75901 0
M  V30 3578 O 342.28 -1.60061 1.12948 0
M  V30 3579 H 340.86 0.228388 0.71123 0
M  V30 3580 H 343.522 1.2266 1.51461 0
M  V30 3581 H 342.618 0.864653 2.99884 0
M  V30 3582 N 342.919 -1.39368 0.735821 0
M  V30 3583 C 343.869 -2.27885 0.0724287 0
M  V30 3584 C 344.853 -1.44301 -0.711756 0
M  V30 3585 O 346.045 -1.67206 -0.58063 0
M  V30 3586 C 343.174 -3.33029 -0.833454 0
M  V30 3587 C 342.26 -4.24078 -0.0433749 0
M  V30 3588 N 342.651 -4.96138 0.983903 0
M  V30 3589 C 340.949 -4.45164 -0.272905 0
M  V30 3590 C 341.65 -5.63069 1.4604 0
M  V30 3591 N 340.626 -5.37991 0.778857 0
M  V30 3592 H 344.428 -2.81052 0.859467 0
M  V30 3593 H 341.942 -1.5206 0.570227 0
M  V30 3594 H 343.939 -3.95311 -1.32419 0
M  V30 3595 H 342.599 -2.81421 -1.61964 0
M  V30 3596 H 343.61 -4.9958 1.36528 0
M  V30 3597 H 340.287 -4.04497 -1.03383 0
M  V30 3598 H 341.677 -6.30755 2.31511 0
M  V30 3599 N 344.397 -0.483516 -1.5 0
M  V30 3600 C 345.625 0.0644831 -2.06799 0
M  V30 3601 C 346.04 1.32399 -1.34596 0
M  V30 3602 O 345.397 1.77626 -0.418946 0
M  V30 3603 C 345.448 0.339927 -3.59898 0
M  V30 3604 O 345.169 -0.869635 -4.29382 0
M  V30 3605 C 346.67 0.933515 -4.33359 0
M  V30 3606 H 343.89 -0.0126333 -0.670881 0
M  V30 3607 H 346.434 -0.675864 -1.93009 0
M  V30 3608 H 344.589 1.03022 -3.7345 0
M  V30 3609 H 345.003 -0.62179 -5.20801 0
M  V30 3610 H 346.477 1.07593 -5.41413 0
M  V30 3611 H 346.954 1.92685 -3.94676 0
M  V30 3612 H 347.56 0.281221 -4.24369 0
M  V30 3613 N 345.875 1.56104 -0.216619 0
M  V30 3614 C 346.838 2.18819 0.681962 0
M  V30 3615 C 347.838 1.14866 1.12528 0
M  V30 3616 O 349.028 1.40128 1.03488 0
M  V30 3617 C 346.16 2.80756 1.93362 0
M  V30 3618 H 347.353 2.99595 0.135254 0
M  V30 3619 H 344.906 1.56265 0.0330003 0
M  V30 3620 H 345.641 2.03837 2.52232 0
M  V30 3621 H 345.426 3.56876 1.62426 0
M  V30 3622 H 346.916 3.28844 2.57393 0
M  V30 3623 N 347.353 -0.0568162 1.57498 0
M  V30 3624 C 348.593 -0.758273 1.89815 0
M  V30 3625 C 348.957 -1.73978 0.812132 0
M  V30 3626 O 350.158 -2.48744 1.01881 0
M  V30 3627 C 348.429 -1.43465 3.27342 0
M  V30 3628 S 349.988 -2.1691 3.81439 0
M  V30 3629 H 346.806 -0.251836 0.664906 0
M  V30 3630 H 349.408 -0.0137997 1.95495 0
M  V30 3631 H 348.112 -0.706693 4.0427 0
M  V30 3632 H 347.643 -2.21825 3.24896 0
M  V30 3633 H 349.658 -3.43658 3.5793 0
M  V30 3634 N 348.832 -1.54138 -0.328536 0
M  V30 3635 C 349.795 -1.82462 -1.38709 0
M  V30 3636 C 350.795 -0.696229 -1.44946 0
M  V30 3637 O 351.985 -0.964535 -1.4506 0
M  V30 3638 C 349.117 -1.98018 -2.77492 0
M  V30 3639 H 350.31 -2.77037 -1.14851 0
M  V30 3640 H 347.863 -1.45779 -0.563751 0
M  V30 3641 H 348.598 -1.05637 -3.06613 0
M  V30 3642 H 348.383 -2.80124 -2.74359 0
M  V30 3643 H 349.873 -2.21396 -3.54081 0
M  V30 3644 N 350.31 0.590341 -1.46126 0
M  V30 3645 C 351.587 1.35029 -1.41515 0
M  V30 3646 C 351.967 2.10888 -0.0946472 0
M  V30 3647 O 351.315 2.08998 0.923693 0
M  V30 3648 C 351.525 2.28269 -2.63997 0
M  V30 3649 C 352.873 2.90338 -3.09821 0
M  V30 3650 O 353.897 2.38585 -2.64492 0
M  V30 3651 O 352.756 3.84321 -3.88535 0
M  V30 3652 H 349.85 0.606317 -0.562413 0
M  V30 3653 H 352.396 0.611994 -1.58281 0
M  V30 3654 H 351.168 1.71591 -3.51671 0
M  V30 3655 H 350.791 3.0945 -2.49652 0
M  V30 3656 N 351.788 1.33704 0.83433 0
M  V30 3657 C 352.751 1.24244 1.92603 0
M  V30 3658 C 353.751 0.160383 1.59998 0
M  V30 3659 O 354.941 0.412228 1.69252 0
M  V30 3660 C 352.073 0.91555 3.28376 0
M  V30 3661 H 353.266 2.21287 2.02416 0
M  V30 3662 H 350.819 1.17827 1.02696 0
M  V30 3663 H 351.554 -0.0521886 3.24258 0
M  V30 3664 H 351.339 1.69811 3.53422 0
M  V30 3665 H 352.829 0.874231 4.08347 0
M  V30 3666 N 353.266 -1.05314 1.17247 0
M  V30 3667 C 354.496 -1.81707 0.983166 0
M  V30 3668 C 354.904 -1.83222 -0.471822 0
M  V30 3669 O 354.247 -1.25721 -1.3394 0
M  V30 3670 C 354.309 -3.29134 1.44606 0
M  V30 3671 C 353.973 -3.51304 2.92292 0
M  V30 3672 C 354.97 -3.4353 3.90235 0
M  V30 3673 C 352.655 -3.78306 3.30439 0
M  V30 3674 C 354.649 -3.62442 5.24323 0
M  V30 3675 C 352.336 -3.96866 4.64694 0
M  V30 3676 C 353.334 -3.88933 5.61445 0
M  V30 3677 O 353.022 -4.06976 6.93272 0
M  V30 3678 H 352.754 -0.579476 0.348114 0
M  V30 3679 H 355.308 -1.33705 1.55924 0
M  V30 3680 H 353.538 -3.78046 0.813537 0
M  V30 3681 H 355.227 -3.87049 1.22262 0
M  V30 3682 H 355.993 -3.22648 3.62109 0
M  V30 3683 H 351.872 -3.83585 2.55702 0
M  V30 3684 H 355.416 -3.56165 5.99827 0
M  V30 3685 H 351.313 -4.1724 4.92525 0
M  V30 3686 H 352.081 -4.24209 6.99992 0
M  V30 3687 N 354.744 -0.972509 -1.24016 0
M  V30 3688 C 355.674 -0.525548 -2.27509 0
M  V30 3689 C 356.655 0.437262 -1.64384 0
M  V30 3690 O 357.84 0.332343 -1.91335 0
M  V30 3691 C 354.97 0.180448 -3.46831 0
M  V30 3692 C 353.924 -0.698859 -4.22256 0
M  V30 3693 C 353.25 0.138903 -5.3452 0
M  V30 3694 C 354.55 -1.98582 -4.83076 0
M  V30 3695 H 356.244 -1.39058 -2.65148 0
M  V30 3696 H 353.79 -0.67009 -1.27459 0
M  V30 3697 H 355.743 0.504387 -4.18371 0
M  V30 3698 H 354.467 1.07987 -3.08231 0
M  V30 3699 H 353.126 -1.00614 -3.52523 0
M  V30 3700 H 352.774 1.03862 -4.9216 0
M  V30 3701 H 352.474 -0.446259 -5.85903 0
M  V30 3702 H 353.998 0.457404 -6.08884 0
M  V30 3703 H 355.412 -1.72715 -5.46665 0
M  V30 3704 H 353.809 -2.5181 -5.44713 0
M  V30 3705 H 354.879 -2.67769 -4.04262 0
M  V30 3706 N 356.222 1.38976 -0.743202 0
M  V30 3707 C 357.45 2.04636 -0.30525 0
M  V30 3708 C 357.865 1.56044 1.06281 0
M  V30 3709 O 357.222 0.728921 1.67311 0
M  V30 3710 C 357.273 3.60193 -0.307177 0
M  V30 3711 O 356.994 4.06998 -1.62124 0
M  V30 3712 C 358.495 4.4306 0.145928 0
M  V30 3713 H 355.715 0.65788 -0.132041 0
M  V30 3714 H 358.259 1.77866 -1.00915 0
M  V30 3715 H 356.414 3.85835 0.347898 0
M  V30 3716 H 356.828 5.01371 -1.54036 0
M  V30 3717 H 358.302 5.51921 0.0934183 0
M  V30 3718 H 358.779 4.22706 1.19231 0
M  V30 3719 H 359.385 4.22584 -0.479886 0
M  V30 3720 N 357.7 0.491464 1.49741 0
M  V30 3721 C 359.111 0.0413169 1.86654 0
M  V30 3722 C 359.462 -1.36985 1.40462 0
M  V30 3723 O 358.587 -2.01917 0.778354 0
M  V30 3724 C 359.182 0.0682023 3.38731 0
M  V30 3725 C 357.741 -0.32656 3.74981 0
M  V30 3726 C 356.888 0.444888 2.73708 0
M  V30 3727 H 359.839 0.704733 1.42194 0
M  V30 3728 H 359.86 -0.729322 3.73445 0
M  V30 3729 H 359.372 1.09539 3.72321 0
M  V30 3730 H 357.473 -1.35734 3.46997 0
M  V30 3731 H 357.586 -0.013741 4.79098 0
M  V30 3732 H 355.95 -0.104062 2.54487 0
M  V30 3733 H 356.733 1.47197 3.10142 0
M  V30 3734 N 359.178 -1.55987 0.224894 0
M  V30 3735 C 360.141 -2.19178 -0.670348 0
M  V30 3736 C 361.141 -1.15461 -1.11917 0
M  V30 3737 O 362.331 -1.40675 -1.02743 0
M  V30 3738 C 359.463 -2.81777 -1.9187 0
M  V30 3739 H 360.656 -2.99662 -0.119364 0
M  V30 3740 H 358.209 -1.5628 -0.0247128 0
M  V30 3741 H 358.944 -2.05172 -2.51147 0
M  V30 3742 H 358.729 -3.57732 -1.60531 0
M  V30 3743 H 360.219 -3.30205 -2.55645 0
M  V30 3744 N 360.656 0.0484629 -1.57525 0
M  V30 3745 C 361.905 0.742065 -1.87553 0
M  V30 3746 C 362.218 1.77545 -0.820802 0
M  V30 3747 O 363.424 2.52027 -1.00967 0
M  V30 3748 C 361.88 1.37081 -3.32771 0
M  V30 3749 C 361.488 0.374786 -4.4643 0
M  V30 3750 C 363.232 2.04542 -3.71972 0
M  V30 3751 C 361.139 1.01077 -5.82698 0
M  V30 3752 H 360.069 0.280903 -0.699721 0
M  V30 3753 H 362.72 -0.00411877 -1.835 0
M  V30 3754 H 361.102 2.16605 -3.31509 0
M  V30 3755 H 362.276 -0.392331 -4.59127 0
M  V30 3756 H 360.591 -0.196653 -4.15935 0
M  V30 3757 H 363.188 2.52943 -4.71088 0
M  V30 3758 H 363.531 2.85515 -3.02964 0
M  V30 3759 H 364.064 1.31819 -3.75325 0
M  V30 3760 H 360.803 0.240878 -6.55057 0
M  V30 3761 H 360.323 1.74819 -5.73758 0
M  V30 3762 H 362.002 1.52383 -6.28799 0
M  V30 3763 N 362.134 1.5431 0.320358 0
M  V30 3764 C 363.066 1.80262 1.41556 0
M  V30 3765 C 364.079 0.684723 1.477 0
M  V30 3766 O 365.268 0.961886 1.50366 0
M  V30 3767 C 362.368 1.90825 2.8007 0
M  V30 3768 C 361.541 3.21023 2.97091 0
M  V30 3769 C 360.6 3.22247 4.15985 0
M  V30 3770 O 359.626 3.95871 4.08992 0
M  V30 3771 N 360.828 2.46258 5.25678 0
M  V30 3772 H 363.593 2.74778 1.19655 0
M  V30 3773 H 361.154 1.53646 0.510358 0
M  V30 3774 H 363.146 1.89067 3.57821 0
M  V30 3775 H 361.716 1.03392 2.95006 0
M  V30 3776 H 360.936 3.35715 2.06614 0
M  V30 3777 H 362.224 4.0698 3.05361 0
M  V30 3778 H 361.622 1.86037 5.34235 0
M  V30 3779 H 360.179 2.50275 6.01835 0
M  V30 3780 N 363.613 -0.582584 1.46437 0
M  V30 3781 C 365.029 -0.905962 1.31394 0
M  V30 3782 C 365.229 -1.99468 0.285476 0
M  V30 3783 O 364.285 -2.50566 -0.311914 0
M  V30 3784 C 365.598 -1.3232 2.70022 0
M  V30 3785 C 367.146 -1.43604 2.78113 0
M  V30 3786 C 367.621 -1.88694 4.17323 0
M  V30 3787 N 369.112 -1.95887 4.19741 0
M  V30 3788 C 369.847 -2.32051 5.24347 0
M  V30 3789 N 369.343 -2.67006 6.39281 0
M  V30 3790 N 371.136 -2.32606 5.11713 0
M  V30 3791 H 363.287 0.1366 2.1196 0
M  V30 3792 H 365.55 -0.00155736 0.947999 0
M  V30 3793 H 365.256 -0.597242 3.46592 0
M  V30 3794 H 365.13 -2.28469 3.00136 0
M  V30 3795 H 367.517 -2.15286 2.01832 0
M  V30 3796 H 367.598 -0.457059 2.51684 0
M  V30 3797 H 367.242 -1.1759 4.941 0
M  V30 3798 H 367.172 -2.8755 4.4116 0
M  V30 3799 H 369.663 -1.71362 3.36814 0
M  V30 3800 H 369.976 -2.93554 7.14875 0
M  V30 3801 H 368.321 -2.64644 6.42642 0
M  V30 3802 H 371.512 -2.04721 4.2096 0
M  V30 3803 H 371.685 -2.60462 5.93349 0
M  V30 3804 N 365.091 -1.34144 -0.827227 0
M  V30 3805 C 366.321 -1.29138 -1.61267 0
M  V30 3806 C 366.729 0.137597 -1.88699 0
M  V30 3807 O 366.072 1.09379 -1.47587 0
M  V30 3808 C 366.134 -2.0097 -2.9808 0
M  V30 3809 C 365.798 -3.50242 -2.93563 0
M  V30 3810 C 366.795 -4.4523 -2.68452 0
M  V30 3811 C 364.48 -3.92592 -3.13331 0
M  V30 3812 C 366.474 -5.80542 -2.63154 0
M  V30 3813 C 364.161 -5.28005 -3.07658 0
M  V30 3814 C 365.159 -6.21792 -2.82602 0
M  V30 3815 O 364.847 -7.54723 -2.76853 0
M  V30 3816 H 364.579 -0.445851 -0.508127 0
M  V30 3817 H 367.133 -1.77263 -1.03763 0
M  V30 3818 H 365.363 -1.47451 -3.57484 0
M  V30 3819 H 367.052 -1.89309 -3.5905 0
M  V30 3820 H 367.818 -4.13832 -2.52919 0
M  V30 3821 H 363.697 -3.19994 -3.31851 0
M  V30 3822 H 367.241 -6.53717 -2.43516 0
M  V30 3823 H 363.138 -5.59023 -3.22743 0
M  V30 3824 H 363.906 -7.64409 -2.92611 0
M  V30 3825 N 366.569 1.04691 -1.17803 0
M  V30 3826 C 367.815 1.78045 -0.970969 0
M  V30 3827 C 368.148 1.87686 0.498751 0
M  V30 3828 O 367.423 1.38035 1.37027 0
M  V30 3829 C 367.706 3.2166 -1.61884 0
M  V30 3830 C 367.559 3.20001 -3.161 0
M  V30 3831 C 368.878 4.1962 -1.3269 0
M  V30 3832 H 365.997 0.64633 -0.354155 0
M  V30 3833 H 368.639 1.22333 -1.45378 0
M  V30 3834 H 366.789 3.69232 -1.20831 0
M  V30 3835 H 368.461 2.80467 -3.66246 0
M  V30 3836 H 366.704 2.58203 -3.48588 0
M  V30 3837 H 367.375 4.21386 -3.56564 0
M  V30 3838 H 369.851 3.80567 -1.68249 0
M  V30 3839 H 368.727 5.18339 -1.80599 0
M  V30 3840 H 368.988 4.414 -0.248622 0
M  V30 3841 N 368.047 0.979072 1.23499 0
M  V30 3842 C 368.979 0.476271 2.24197 0
M  V30 3843 C 369.992 -0.421166 1.57258 0
M  V30 3844 O 371.181 -0.225515 1.7707 0
M  V30 3845 C 368.281 -0.330503 3.37285 0
M  V30 3846 C 367.454 0.559744 4.33804 0
M  V30 3847 C 366.513 -0.192954 5.25846 0
M  V30 3848 O 365.539 0.416978 5.67671 0
M  V30 3849 N 366.741 -1.47932 5.61334 0
M  V30 3850 H 369.506 1.34211 2.67969 0
M  V30 3851 H 367.067 0.852189 1.37657 0
M  V30 3852 H 369.059 -0.842361 3.95836 0
M  V30 3853 H 367.629 -1.09734 2.92707 0
M  V30 3854 H 366.849 1.25245 3.73775 0
M  V30 3855 H 368.137 1.1665 4.95248 0
M  V30 3856 H 367.535 -1.9964 5.29302 0
M  V30 3857 H 366.092 -1.93664 6.22364 0
M  V30 3858 N 369.525 -1.3858 0.750561 0
M  V30 3859 C 370.773 -1.99789 0.30477 0
M  V30 3860 C 371.094 -1.59874 -1.11649 0
M  V30 3861 O 370.364 -0.85417 -1.76297 0
M  V30 3862 H 368.944 -0.738902 0.109694 0
M  V30 3863 H 371.606 -1.69391 0.963983 0
M  V30 3864 H 370.702 -3.09952 0.365499 0
M  V30 3865 N 371.003 -0.499398 -1.49478 0
M  V30 3866 C 372.25 0.0456899 -2.02448 0
M  V30 3867 C 372.578 1.37142 -1.37921 0
M  V30 3868 O 371.833 1.89111 -0.503544 0
M  V30 3869 C 372.132 0.248424 -3.56536 0
M  V30 3870 C 371.798 -0.999107 -4.39692 0
M  V30 3871 C 370.46 -1.34108 -4.62135 0
M  V30 3872 C 372.812 -1.82842 -4.88076 0
M  V30 3873 C 370.14 -2.51191 -5.30208 0
M  V30 3874 C 372.492 -2.99076 -5.57437 0
M  V30 3875 C 371.156 -3.33655 -5.78127 0
M  V30 3876 H 370.426 0.0167191 -0.740811 0
M  V30 3877 H 373.073 -0.65923 -1.79795 0
M  V30 3878 H 371.378 1.03586 -3.77859 0
M  V30 3879 H 373.075 0.684605 -3.95113 0
M  V30 3880 H 369.665 -0.722729 -4.22463 0
M  V30 3881 H 373.849 -1.57737 -4.70566 0
M  V30 3882 H 369.105 -2.78221 -5.44429 0
M  V30 3883 H 373.279 -3.63664 -5.93904 0
M  V30 3884 H 370.906 -4.24483 -6.30649 0
M  V30 3885 N 372.481 1.55866 -0.233164 0
M  V30 3886 C 373.721 2.00506 0.397078 0
M  V30 3887 C 374.085 1.1176 1.56121 0
M  V30 3888 O 375.286 1.45796 2.25825 0
M  V30 3889 C 373.557 3.4811 0.809601 0
M  V30 3890 S 375.116 4.14765 1.43231 0
M  V30 3891 H 371.934 0.699828 0.125547 0
M  V30 3892 H 374.536 1.92429 -0.345177 0
M  V30 3893 H 373.24 4.10373 -0.0471601 0
M  V30 3894 H 372.771 3.60085 1.58438 0
M  V30 3895 H 374.786 4.14914 2.7214 0
M  V30 3896 N 373.959 -0.0401083 1.57549 0
M  V30 3897 C 375.375 -0.395556 1.54621 0
M  V30 3898 C 375.575 -1.77281 0.957799 0
M  V30 3899 O 374.631 -2.45888 0.574031 0
M  V30 3900 C 375.944 -0.307535 2.99123 0
M  V30 3901 C 377.492 -0.385425 3.10618 0
M  V30 3902 C 377.967 -0.326973 4.56831 0
M  V30 3903 N 379.458 -0.386102 4.61588 0
M  V30 3904 C 380.193 -0.363591 5.72246 0
M  V30 3905 N 379.689 -0.29402 6.92176 0
M  V30 3906 N 381.482 -0.412503 5.60584 0
M  V30 3907 H 373.633 0.861325 1.94152 0
M  V30 3908 H 375.896 0.326445 0.890021 0
M  V30 3909 H 375.602 0.638461 3.45856 0
M  V30 3910 H 375.476 -1.10552 3.60636 0
M  V30 3911 H 377.863 -1.32185 2.63839 0
M  V30 3912 H 377.944 0.44171 2.51957 0
M  V30 3913 H 377.588 0.605738 5.04275 0
M  V30 3914 H 377.518 -1.17207 5.13391 0
M  V30 3915 H 380.009 -0.442832 3.75296 0
M  V30 3916 H 380.322 -0.28164 7.72287 0
M  V30 3917 H 378.667 -0.260232 6.94513 0
M  V30 3918 H 381.858 -0.464769 4.65787 0
M  V30 3919 H 382.031 -0.391492 6.46816 0
M  V30 3920 N 375.437 -1.54477 -0.31217 0
M  V30 3921 C 376.685 -1.72884 -1.04668 0
M  V30 3922 C 377.006 -0.511477 -1.88173 0
M  V30 3923 O 376.276 0.474407 -1.90069 0
M  V30 3924 H 374.856 -0.637461 -0.389425 0
M  V30 3925 H 377.518 -1.91807 -0.345852 0
M  V30 3926 H 376.614 -2.61334 -1.70619 0
M  V30 3927 N 376.915 0.57481 -1.46744 0
M  V30 3928 C 378.162 1.33272 -1.52462 0
M  V30 3929 C 378.49 1.93669 -0.179572 0
M  V30 3930 O 377.745 1.7743 0.825664 0
M  V30 3931 C 378.044 2.476 -2.57738 0
M  V30 3932 C 377.71 2.05146 -4.01529 0
M  V30 3933 C 376.372 1.93284 -4.40676 0
M  V30 3934 C 378.724 1.72506 -4.91824 0
M  V30 3935 C 376.052 1.47049 -5.67973 0
M  V30 3936 C 378.404 1.27748 -6.19567 0
M  V30 3937 C 377.068 1.14468 -6.57612 0
M  V30 3938 H 376.338 0.487678 -0.557899 0
M  V30 3939 H 378.985 0.646456 -1.80259 0
M  V30 3940 H 377.29 3.21708 -2.23632 0
M  V30 3941 H 378.987 3.05807 -2.5939 0
M  V30 3942 H 375.577 2.15316 -3.7059 0
M  V30 3943 H 379.761 1.80552 -4.62293 0
M  V30 3944 H 375.017 1.35417 -5.96215 0
M  V30 3945 H 379.191 1.01547 -6.88957 0
M  V30 3946 H 376.818 0.78419 -7.56145 0
M  V30 3947 N 378.394 1.34581 0.820102 0
M  V30 3948 C 379.326 1.22236 1.93884 0
M  V30 3949 C 380.339 0.148776 1.62119 0
M  V30 3950 O 381.528 0.400877 1.7394 0
M  V30 3951 C 378.628 0.856542 3.27897 0
M  V30 3952 C 377.801 2.02569 3.87666 0
M  V30 3953 C 376.86 1.63782 5.00062 0
M  V30 3954 O 375.886 2.35477 5.18208 0
M  V30 3955 N 377.088 0.553611 5.77854 0
M  V30 3956 H 379.853 2.18615 2.05006 0
M  V30 3957 H 377.414 1.27573 0.99683 0
M  V30 3958 H 379.406 0.578806 4.0054 0
M  V30 3959 H 377.976 -0.0171518 3.12595 0
M  V30 3960 H 377.196 2.468 3.07382 0
M  V30 3961 H 378.484 2.80752 4.24329 0
M  V30 3962 H 377.882 -0.0423528 5.65684 0
M  V30 3963 H 376.439 0.335614 6.50935 0
M  V30 3964 N 379.872 -1.04064 1.18357 0
M  V30 3965 C 381.12 -1.76915 0.977013 0
M  V30 3966 C 381.441 -1.88624 -0.494577 0
M  V30 3967 O 380.711 -1.41125 -1.3587 0
M  V30 3968 H 379.291 -0.65535 0.358504 0
M  V30 3969 H 381.953 -1.25592 1.49039 0
M  V30 3970 H 381.049 -2.78178 1.41504 0
M  V30 3971 N 381.35 -0.985608 -1.22978 0
M  V30 3972 C 382.282 -0.488154 -2.23941 0
M  V30 3973 C 383.295 0.41282 -1.57479 0
M  V30 3974 O 384.484 0.216121 -1.77187 0
M  V30 3975 C 381.584 0.312611 -3.37455 0
M  V30 3976 C 380.757 -0.582741 -4.33501 0
M  V30 3977 C 379.816 0.165064 -5.25941 0
M  V30 3978 O 378.842 -0.447077 -5.67442 0
M  V30 3979 N 380.044 1.44953 -5.62111 0
M  V30 3980 H 382.809 -1.3563 -2.67254 0
M  V30 3981 H 380.37 -0.859477 -1.37203 0
M  V30 3982 H 382.362 0.821357 -3.96277 0
M  V30 3983 H 380.932 1.0818 -2.93285 0
M  V30 3984 H 380.152 -1.27225 -3.73105 0
M  V30 3985 H 381.44 -1.19275 -4.94622 0
M  V30 3986 H 380.838 1.9683 -5.30353 0
M  V30 3987 H 379.395 1.90361 -6.23383 0
M  V30 3988 N 382.828 1.3818 -0.7579 0
M  V30 3989 C 383.758 2.33027 -0.148597 0
M  V30 3990 C 384.739 1.55085 0.69875 0
M  V30 3991 O 385.924 1.83384 0.639053 0
M  V30 3992 C 383.054 3.3928 0.742034 0
M  V30 3993 C 382.008 4.28 -0.00291946 0
M  V30 3994 C 381.334 5.25146 1.00625 0
M  V30 3995 C 382.634 5.08938 -1.17385 0
M  V30 3996 H 384.328 2.84231 -0.940909 0
M  V30 3997 H 381.874 1.36659 -0.453908 0
M  V30 3998 H 383.827 4.046 1.17799 0
M  V30 3999 H 382.551 2.86569 1.56671 0
M  V30 4000 H 381.21 3.64192 -0.419504 0
M  V30 4001 H 380.858 4.68721 1.8251 0
M  V30 4002 H 380.558 5.85361 0.512428 0
M  V30 4003 H 382.082 5.93342 1.44143 0
M  V30 4004 H 383.496 5.67474 -0.815224 0
M  V30 4005 H 381.893 5.7841 -1.59882 0
M  V30 4006 H 382.963 4.42424 -1.98468 0
M  V30 4007 N 384.306 0.507319 1.49211 0
M  V30 4008 C 385.253 -0.267728 2.29242 0
M  V30 4009 C 386.223 -0.954609 1.35928 0
M  V30 4010 O 387.408 -0.960046 1.64887 0
M  V30 4011 C 384.548 -1.32243 3.18756 0
M  V30 4012 C 383.661 -0.64669 4.27132 0
M  V30 4013 C 382.796 -1.68238 5.03855 0
M  V30 4014 C 381.835 -0.98885 6.0406 0
M  V30 4015 N 380.972 -1.96903 6.73924 0
M  V30 4016 H 385.812 0.420968 2.95012 0
M  V30 4017 H 383.349 0.219443 1.45454 0
M  V30 4018 H 385.307 -1.94599 3.69036 0
M  V30 4019 H 383.937 -1.97981 2.54958 0
M  V30 4020 H 382.989 0.0902926 3.80293 0
M  V30 4021 H 384.301 -0.101058 4.98698 0
M  V30 4022 H 383.455 -2.38081 5.58034 0
M  V30 4023 H 382.194 -2.26187 4.32077 0
M  V30 4024 H 381.199 -0.276222 5.49106 0
M  V30 4025 H 382.424 -0.415767 6.77826 0
M  V30 4026 H 380.37 -2.53803 6.04913 0
M  V30 4027 H 380.287 -1.47423 7.41487 0
M  V30 4028 H 381.555 -2.66015 7.32705 0
M  V30 4029 N 385.784 -1.5574 0.241426 0
M  V30 4030 C 387.061 -1.90704 -0.434881 0
M  V30 4031 C 387.441 -1.16145 -1.76277 0
M  V30 4032 O 386.789 -0.277152 -2.26813 0
M  V30 4033 C 386.999 -3.43657 -0.608343 0
M  V30 4034 C 388.347 -4.14806 -0.906725 0
M  V30 4035 O 389.371 -3.49366 -0.694408 0
M  V30 4036 O 388.23 -5.30548 -1.31075 0
M  V30 4037 H 385.324 -0.793592 -0.23268 0
M  V30 4038 H 387.87 -1.67288 0.285086 0
M  V30 4039 H 386.642 -3.89927 0.327505 0
M  V30 4040 H 386.265 -3.72918 -1.37906 0
M  V30 4041 N 387.262 0.0317525 -1.57568 0
M  V30 4042 C 388.508 0.724175 -1.8943 0
M  V30 4043 C 388.841 1.75149 -0.838836 0
M  V30 4044 O 388.116 1.93948 0.146422 0
M  V30 4045 C 388.399 1.39615 -3.31933 0
M  V30 4046 C 388.252 0.382537 -4.4817 0
M  V30 4047 C 389.571 2.33084 -3.73309 0
M  V30 4048 H 386.69 0.261797 -0.688935 0
M  V30 4049 H 389.332 -0.013017 -1.89996 0
M  V30 4050 H 387.482 2.02451 -3.31581 0
M  V30 4051 H 389.154 -0.243689 -4.60656 0
M  V30 4052 H 387.397 -0.29844 -4.32772 0
M  V30 4053 H 388.068 0.891145 -5.44759 0
M  V30 4054 H 390.544 1.80295 -3.7501 0
M  V30 4055 H 389.42 2.77084 -4.73831 0
M  V30 4056 H 389.681 3.19643 -3.05419 0
M  V30 4057 N 388.74 1.54641 0.303973 0
M  V30 4058 C 389.672 1.81754 1.39636 0
M  V30 4059 C 390.685 0.70035 1.46966 0
M  V30 4060 O 391.874 0.97778 1.49338 0
M  V30 4061 C 388.974 1.93785 2.7803 0
M  V30 4062 C 388.147 3.24156 2.93669 0
M  V30 4063 C 387.206 3.26641 4.12544 0
M  V30 4064 O 386.232 4.00187 4.04771 0
M  V30 4065 N 387.434 2.5182 5.23036 0
M  V30 4066 H 390.199 2.76031 1.16734 0
M  V30 4067 H 387.76 1.54178 0.494033 0
M  V30 4068 H 389.752 1.92852 3.55795 0
M  V30 4069 H 388.322 1.06515 2.93893 0
M  V30 4070 H 387.542 3.37887 2.03042 0
M  V30 4071 H 388.83 4.10195 3.01027 0
M  V30 4072 H 388.228 1.91692 5.32232 0
M  V30 4073 H 386.785 2.56644 5.99147 0
M  V30 4074 N 390.218 -0.567019 1.47046 0
M  V30 4075 C 391.464 -1.32658 1.53394 0
M  V30 4076 C 391.797 -1.93254 0.19148 0
M  V30 4077 O 391.072 -1.77338 -0.798844 0
M  V30 4078 C 391.355 -2.44412 2.64452 0
M  V30 4079 C 391.208 -1.88749 4.08282 0
M  V30 4080 C 392.527 -3.46387 2.71485 0
M  V30 4081 H 389.646 -0.48098 0.558415 0
M  V30 4082 H 392.288 -0.635481 1.79058 0
M  V30 4083 H 390.438 -3.03363 2.427 0
M  V30 4084 H 392.11 -1.34134 4.41368 0
M  V30 4085 H 390.353 -1.19481 4.17021 0
M  V30 4086 H 391.024 -2.69491 4.81745 0
M  V30 4087 H 393.5 -2.9734 2.91081 0
M  V30 4088 H 392.376 -4.2202 3.50985 0
M  V30 4089 H 392.637 -4.04616 1.78153 0
M  V30 4090 N 391.696 -1.35014 -0.812953 0
M  V30 4091 C 392.626 -1.30069 -1.93919 0
M  V30 4092 C 393.607 -0.176275 -1.69184 0
M  V30 4093 O 394.792 -0.370227 -1.90638 0
M  V30 4094 C 391.922 -1.06547 -3.30552 0
M  V30 4095 C 390.876 -2.15561 -3.69753 0
M  V30 4096 C 390.202 -1.77214 -5.04479 0
M  V30 4097 C 391.502 -3.57476 -3.808 0
M  V30 4098 H 393.196 -2.24303 -1.98314 0
M  V30 4099 H 390.742 -1.07977 -0.952736 0
M  V30 4100 H 392.695 -1.01729 -4.08937 0
M  V30 4101 H 391.419 -0.0875719 -3.26483 0
M  V30 4102 H 390.078 -2.19466 -2.9365 0
M  V30 4103 H 389.726 -0.780589 -4.96906 0
M  V30 4104 H 389.426 -2.50184 -5.31678 0
M  V30 4105 H 390.95 -1.7391 -5.8531 0
M  V30 4106 H 392.364 -3.55929 -4.4943 0
M  V30 4107 H 390.761 -4.29152 -4.19462 0
M  V30 4108 H 391.831 -3.94091 -2.82525 0
M  V30 4109 N 393.175 1.03435 -1.18907 0
M  V30 4110 C 394.422 1.76743 -0.988334 0
M  V30 4111 C 394.75 1.88447 0.481441 0
M  V30 4112 O 394.005 1.39383 1.37371 0
M  V30 4113 C 394.304 3.19792 -1.59586 0
M  V30 4114 C 393.97 3.28108 -3.09283 0
M  V30 4115 C 392.632 3.30084 -3.5014 0
M  V30 4116 C 394.984 3.27696 -4.05296 0
M  V30 4117 C 392.312 3.29299 -4.85571 0
M  V30 4118 C 394.664 3.28451 -5.4065 0
M  V30 4119 C 393.328 3.28723 -5.80946 0
M  V30 4120 H 392.598 0.64675 -0.361657 0
M  V30 4121 H 395.245 1.21442 -1.48068 0
M  V30 4122 H 393.55 3.78136 -1.02568 0
M  V30 4123 H 395.247 3.75171 -1.41589 0
M  V30 4124 H 391.837 3.27294 -2.76725 0
M  V30 4125 H 396.021 3.25354 -3.74778 0
M  V30 4126 H 391.277 3.2783 -5.16079 0
M  V30 4127 H 395.451 3.27082 -6.14809 0
M  V30 4128 H 393.078 3.27868 -6.85862 0
M  V30 4129 N 394.653 0.992116 1.22453 0
M  V30 4130 C 395.586 0.486701 2.22949 0
M  V30 4131 C 396.564 -0.45259 1.56174 0
M  V30 4132 O 397.748 -0.378317 1.84665 0
M  V30 4133 C 394.875 -0.294537 3.37417 0
M  V30 4134 C 393.921 0.590628 4.22391 0
M  V30 4135 S 394.754 2.04546 4.94895 0
M  V30 4136 C 395.91 1.27369 6.12803 0
M  V30 4137 H 396.143 1.33828 2.65475 0
M  V30 4138 H 393.676 0.799023 1.32117 0
M  V30 4139 H 395.634 -0.739241 4.03789 0
M  V30 4140 H 394.295 -1.12139 2.934 0
M  V30 4141 H 393.488 -0.0104375 5.03999 0
M  V30 4142 H 393.09 0.972064 3.61147 0
M  V30 4143 H 395.382 0.540943 6.75337 0
M  V30 4144 H 396.325 2.06502 6.7732 0
M  V30 4145 H 396.733 0.787324 5.58983 0
M  V30 4146 N 396.131 -1.37776 0.765217 0
M  V30 4147 C 397.547 -1.53297 0.444108 0
M  V30 4148 C 397.747 -1.72515 -1.04119 0
M  V30 4149 O 396.803 -1.74278 -1.82711 0
M  V30 4150 C 398.116 -2.73328 1.25349 0
M  V30 4151 C 399.664 -2.87185 1.24473 0
M  V30 4152 C 400.139 -4.10191 2.03733 0
M  V30 4153 N 401.63 -4.17291 2.01053 0
M  V30 4154 C 402.365 -5.11488 2.59166 0
M  V30 4155 N 401.861 -6.11285 3.26041 0
M  V30 4156 N 403.654 -5.03924 2.49032 0
M  V30 4157 H 395.805 -1.23552 1.72768 0
M  V30 4158 H 398.068 -0.601103 0.733062 0
M  V30 4159 H 397.774 -2.6557 2.30577 0
M  V30 4160 H 397.648 -3.66834 0.87823 0
M  V30 4161 H 400.035 -2.94418 0.20047 0
M  V30 4162 H 400.116 -1.94657 1.65959 0
M  V30 4163 H 399.76 -4.0372 3.08176 0
M  V30 4164 H 399.69 -5.01821 1.59633 0
M  V30 4165 H 402.181 -3.45825 1.5236 0
M  V30 4166 H 402.494 -6.79678 3.67774 0
M  V30 4167 H 400.839 -6.11583 3.30138 0
M  V30 4168 H 404.03 -4.24902 1.96407 0
M  V30 4169 H 404.203 -5.77152 2.94617 0
M  V30 4170 N 397.609 -0.515225 -1.4894 0
M  V30 4171 C 398.834 0.022727 -2.07388 0
M  V30 4172 C 399.259 1.2876 -1.37122 0
M  V30 4173 O 398.617 1.76067 -0.432431 0
M  V30 4174 C 398.665 0.244869 -3.59768 0
M  V30 4175 O 397.769 1.31667 -3.90817 0
M  V30 4176 H 397.11 -0.0325506 -0.663202 0
M  V30 4177 H 399.64 -0.718918 -1.91553 0
M  V30 4178 H 399.65 0.47205 -4.0526 0
M  V30 4179 H 398.325 -0.679194 -4.10317 0
M  V30 4180 H 396.902 1.07331 -3.5712 0
M  V30 4181 N 399.087 1.5561 -0.249682 0
M  V30 4182 C 400.364 1.90932 0.424761 0
M  V30 4183 C 400.744 1.17078 1.75658 0
M  V30 4184 O 400.092 0.289176 2.26663 0
M  V30 4185 C 400.302 3.43975 0.590109 0
M  V30 4186 C 401.65 4.15281 0.884714 0
M  V30 4187 O 402.674 3.49729 0.67587 0
M  V30 4188 O 401.533 5.31236 1.28259 0
M  V30 4189 H 398.627 0.794815 0.228468 0
M  V30 4190 H 401.173 1.67135 -0.293954 0
M  V30 4191 H 399.945 3.89748 -0.34818 0
M  V30 4192 H 399.568 3.73644 1.35926 0
M  V30 4193 N 400.565 -0.0233959 1.57583 0
M  V30 4194 C 401.813 -0.711654 1.89156 0
M  V30 4195 C 402.134 -1.75591 0.848096 0
M  V30 4196 O 401.404 -1.95547 -0.117566 0
M  V30 4197 H 399.984 -0.265835 0.698098 0
M  V30 4198 H 402.646 0.0119948 1.94896 0
M  V30 4199 H 401.742 -1.19766 2.88206 0
M  V30 4200 N 402.043 -1.548 -0.295768 0
M  V30 4201 C 403.291 -1.73985 -1.02828 0
M  V30 4202 C 403.612 -0.531406 -1.87619 0
M  V30 4203 O 402.882 0.454221 -1.90561 0
M  V30 4204 H 401.462 -0.641556 -0.382642 0
M  V30 4205 H 404.124 -1.92163 -0.325489 0
M  V30 4206 H 403.22 -2.63129 -1.67838 0
M  V30 4207 N 403.521 0.559213 -1.47345 0
M  V30 4208 C 404.451 1.67622 -1.62558 0
M  V30 4209 C 405.432 1.63331 -0.475087 0
M  V30 4210 O 406.617 1.80983 -0.704182 0
M  V30 4211 C 403.747 3.0626 -1.63774 0
M  V30 4212 C 402.701 3.25397 -2.7803 0
M  V30 4213 C 402.027 4.64801 -2.64318 0
M  V30 4214 C 403.327 3.10965 -4.19641 0
M  V30 4215 H 405.021 1.55146 -2.56067 0
M  V30 4216 H 402.567 0.744961 -1.23233 0
M  V30 4217 H 404.52 3.84247 -1.73008 0
M  V30 4218 H 403.244 3.1969 -0.66825 0
M  V30 4219 H 401.903 2.49817 -2.68304 0
M  V30 4220 H 401.551 4.75028 -1.65401 0
M  V30 4221 H 401.251 4.78555 -3.40968 0
M  V30 4222 H 402.775 5.44926 -2.75478 0
M  V30 4223 H 404.189 3.78772 -4.30354 0
M  V30 4224 H 402.586 3.36229 -4.97062 0
M  V30 4225 H 403.656 2.07736 -4.38148 0
M  V30 4226 N 404.999 1.35443 0.805782 0
M  V30 4227 C 405.962 1.28301 1.89925 0
M  V30 4228 C 406.962 0.194285 1.59622 0
M  V30 4229 O 408.152 0.448036 1.6834 0
M  V30 4230 C 405.284 0.984997 3.2636 0
M  V30 4231 H 406.477 2.2553 1.97677 0
M  V30 4232 H 404.03 1.19979 1.00173 0
M  V30 4233 H 404.765 0.016603 3.24296 0
M  V30 4234 H 404.55 1.77269 3.4974 0
M  V30 4235 H 406.04 0.960651 4.064 0
M  V30 4236 N 406.477 -1.02803 1.19454 0
M  V30 4237 C 407.888 -1.57667 0.999899 0
M  V30 4238 C 408.239 -1.91041 -0.446956 0
M  V30 4239 O 407.364 -1.70978 -1.32648 0
M  V30 4240 C 407.959 -2.86477 1.80877 0
M  V30 4241 C 406.518 -3.37911 1.65811 0
M  V30 4242 C 405.665 -2.11343 1.79526 0
M  V30 4243 H 408.616 -0.853214 1.33813 0
M  V30 4244 H 408.637 -3.57408 1.30536 0
M  V30 4245 H 408.149 -2.62155 2.86175 0
M  V30 4246 H 406.25 -3.67218 0.63102 0
M  V30 4247 H 406.363 -4.10885 2.46395 0
M  V30 4248 H 404.727 -2.23254 1.22596 0
M  V30 4249 H 405.51 -1.89461 2.86285 0
M  V30 4250 N 407.956 -0.998596 -1.21925 0
M  V30 4251 C 408.889 -0.498517 -2.22688 0
M  V30 4252 C 409.867 0.444301 -1.56412 0
M  V30 4253 O 411.051 0.368518 -1.84863 0
M  V30 4254 C 408.178 0.276639 -3.37568 0
M  V30 4255 C 407.224 -0.61302 -4.22071 0
M  V30 4256 S 408.057 -2.07168 -4.93803 0
M  V30 4257 C 409.213 -1.30617 -6.12119 0
M  V30 4258 H 409.446 -1.35234 -2.64762 0
M  V30 4259 H 406.979 -0.806018 -1.31692 0
M  V30 4260 H 408.937 0.717817 -4.04175 0
M  V30 4261 H 407.598 1.10581 -2.93991 0
M  V30 4262 H 406.791 -0.0162909 -5.03997 0
M  V30 4263 H 406.393 -0.991202 -3.60626 0
M  V30 4264 H 408.685 -0.57675 -6.75041 0
M  V30 4265 H 409.628 -2.10091 -6.76215 0
M  V30 4266 H 410.036 -0.816957 -5.58557 0
M  V30 4267 N 409.434 1.37368 -0.772513 0
M  V30 4268 C 410.711 1.93839 -0.26188 0
M  V30 4269 C 411.091 1.7061 1.24319 0
M  V30 4270 O 410.439 1.05534 2.02669 0
M  V30 4271 C 410.649 3.43154 -0.636102 0
M  V30 4272 C 411.997 4.20249 -0.606324 0
M  V30 4273 O 413.021 3.5152 -0.575538 0
M  V30 4274 O 411.88 5.42809 -0.634086 0
M  V30 4275 H 408.974 0.82478 -0.0605555 0
M  V30 4276 H 411.52 1.4665 -0.853917 0
M  V30 4277 H 410.292 3.53647 -1.6748 0
M  V30 4278 H 409.915 3.97596 -0.0170516 0
M  V30 4279 N 410.912 0.523116 1.48665 0
M  V30 4280 C 412.14 -0.0096312 2.06898 0
M  V30 4281 C 412.555 -1.28784 1.38059 0
M  V30 4282 O 411.912 -1.76453 0.465893 0
M  V30 4283 C 411.963 -0.244386 3.60673 0
M  V30 4284 O 411.684 0.983172 4.26925 0
M  V30 4285 C 413.185 -0.818289 4.35682 0
M  V30 4286 H 410.405 0.0304161 0.67031 0
M  V30 4287 H 412.949 0.726799 1.91149 0
M  V30 4288 H 411.104 -0.930847 3.76051 0
M  V30 4289 H 411.518 0.759653 5.1897 0
M  V30 4290 H 412.992 -0.93201 5.44075 0
M  V30 4291 H 413.469 -1.82153 3.99646 0
M  V30 4292 H 414.075 -0.168609 4.24966 0
M  V30 4293 N 412.39 -1.55475 0.257931 0
M  V30 4294 C 413.637 -1.99207 -0.363728 0
M  V30 4295 C 413.965 -1.1462 -1.57139 0
M  V30 4296 O 413.22 -0.199653 -1.94679 0
M  V30 4297 C 413.519 -3.48183 -0.806433 0
M  V30 4298 C 413.185 -4.49936 0.294684 0
M  V30 4299 C 411.847 -4.77481 0.597076 0
M  V30 4300 C 414.199 -5.10769 1.03751 0
M  V30 4301 C 411.527 -5.63132 1.64618 0
M  V30 4302 C 413.879 -5.97558 2.07622 0
M  V30 4303 C 412.543 -6.23432 2.38514 0
M  V30 4304 H 411.813 -0.728949 -0.133097 0
M  V30 4305 H 414.46 -1.8793 0.368059 0
M  V30 4306 H 412.765 -3.56848 -1.61761 0
M  V30 4307 H 414.462 -3.79415 -1.29789 0
M  V30 4308 H 411.052 -4.28572 0.0488649 0
M  V30 4309 H 415.236 -4.89527 0.817149 0
M  V30 4310 H 410.492 -5.8143 1.89074 0
M  V30 4311 H 414.666 -6.43735 2.65666 0
M  V30 4312 H 412.293 -6.89594 3.19943 0
M  V30 4313 N 413.868 0.0150385 -1.57593 0
M  V30 4314 C 415.093 0.718067 -1.94573 0
M  V30 4315 C 415.518 1.6734 -0.859005 0
M  V30 4316 O 414.876 1.80362 0.184147 0
M  V30 4317 C 414.924 1.43918 -3.30636 0
M  V30 4318 O 414.028 2.55299 -3.23876 0
M  V30 4319 H 413.369 0.192125 -0.635597 0
M  V30 4320 H 415.899 -0.0336708 -2.04572 0
M  V30 4321 H 415.909 1.80598 -3.65853 0
M  V30 4322 H 414.584 0.738619 -4.09289 0
M  V30 4323 H 413.161 2.21058 -3.00312 0
M  V30 4324 N 415.346 1.54954 0.287554 0
M  V30 4325 C 416.594 1.74528 1.01904 0
M  V30 4326 C 416.915 0.541349 1.87335 0
M  V30 4327 O 416.185 -0.444108 1.908 0
M  V30 4328 H 414.765 0.643576 0.379235 0
M  V30 4329 H 417.427 1.92333 0.315294 0
M  V30 4330 H 416.523 2.64015 1.6644 0
M  V30 4331 N 416.824 -0.551391 1.4764 0
M  V30 4332 C 418.049 -1.33837 1.58437 0
M  V30 4333 C 418.474 -1.866 0.237063 0
M  V30 4334 O 417.832 -1.6328 -0.787994 0
M  V30 4335 C 417.88 -2.48014 2.61766 0
M  V30 4336 O 416.984 -3.50419 2.1744 0
M  V30 4337 H 416.325 -0.397299 0.532024 0
M  V30 4338 H 418.855 -0.665759 1.93465 0
M  V30 4339 H 418.865 -2.94503 2.82369 0
M  V30 4340 H 417.54 -2.08969 3.5959 0
M  V30 4341 H 416.117 -3.10196 2.06961 0
M  V30 4342 N 418.302 -1.35869 -0.798587 0
M  V30 4343 C 419.527 -1.32883 -1.59238 0
M  V30 4344 C 419.952 0.0894587 -1.87887 0
M  V30 4345 O 419.31 1.05869 -1.47178 0
M  V30 4346 C 419.358 -2.14892 -2.89575 0
M  V30 4347 O 418.462 -1.53512 -3.82763 0
M  V30 4348 H 417.803 -0.455236 -0.48338 0
M  V30 4349 H 420.333 -1.79024 -0.990539 0
M  V30 4350 H 420.343 -2.27139 -3.38928 0
M  V30 4351 H 419.018 -3.17998 -2.68049 0
M  V30 4352 H 417.595 -1.50153 -3.41334 0
M  V30 4353 N 419.78 1.02168 -1.19998 0
M  V30 4354 C 420.743 2.08765 -0.94604 0
M  V30 4355 C 421.743 1.60618 0.0763846 0
M  V30 4356 O 422.933 1.73472 -0.159135 0
M  V30 4357 C 420.065 3.38262 -0.423255 0
M  V30 4358 H 421.258 2.32726 -1.89153 0
M  V30 4359 H 418.811 1.1889 -1.01464 0
M  V30 4360 H 419.546 3.19974 0.527938 0
M  V30 4361 H 419.331 3.74532 -1.16053 0
M  V30 4362 H 420.821 4.16759 -0.264911 0
M  V30 4363 N 421.258 1.00505 1.21394 0
M  V30 4364 C 422.504 0.688793 1.90745 0
M  V30 4365 C 422.837 -0.778486 1.77914 0
M  V30 4366 O 422.112 -1.56433 1.15581 0
M  V30 4367 C 422.395 1.11063 3.42545 0
M  V30 4368 C 422.248 2.63737 3.64367 0
M  V30 4369 C 423.567 0.673059 4.34923 0
M  V30 4370 H 420.686 0.251702 0.692687 0
M  V30 4371 H 423.328 1.25074 1.43026 0
M  V30 4372 H 421.478 0.632508 3.83317 0
M  V30 4373 H 423.15 3.19313 3.32922 0
M  V30 4374 H 421.393 3.05248 3.08231 0
M  V30 4375 H 422.064 2.88305 4.70727 0
M  V30 4376 H 424.54 1.08392 4.01734 0
M  V30 4377 H 423.416 0.996383 5.39781 0
M  V30 4378 H 423.677 -0.425808 4.40045 0
M  V30 4379 N 422.737 -1.36956 0.779787 0
M  V30 4380 C 423.667 -2.32761 0.185651 0
M  V30 4381 C 424.648 -1.56177 -0.673989 0
M  V30 4382 O 425.833 -1.84378 -0.609797 0
M  V30 4383 C 422.963 -3.40418 -0.687964 0
M  V30 4384 C 421.917 -4.27941 0.0710102 0
M  V30 4385 C 421.243 -5.26681 -0.922573 0
M  V30 4386 C 422.543 -5.07006 1.25467 0
M  V30 4387 H 424.237 -2.82698 0.986008 0
M  V30 4388 H 421.783 -1.3592 0.475592 0
M  V30 4389 H 423.736 -4.06423 -1.11348 0
M  V30 4390 H 422.46 -2.89025 -1.52093 0
M  V30 4391 H 421.119 -3.63478 0.47739 0
M  V30 4392 H 420.767 -4.71565 -1.7503 0
M  V30 4393 H 420.467 -5.86103 -0.419237 0
M  V30 4394 H 421.991 -5.9556 -1.34686 0
M  V30 4395 H 423.405 -5.66105 0.905401 0
M  V30 4396 H 421.802 -5.75793 1.69063 0
M  V30 4397 H 422.872 -4.3921 2.05481 0
M  V30 4398 N 424.215 -0.530993 -1.48385 0
M  V30 4399 C 425.44 0.000729535 -2.074 0
M  V30 4400 C 425.865 1.27298 -1.3848 0
M  V30 4401 O 425.223 1.75599 -0.451081 0
M  V30 4402 C 425.271 0.206697 -3.60007 0
M  V30 4403 O 424.375 1.27514 -3.92191 0
M  V30 4404 H 423.716 -0.039583 -0.662819 0
M  V30 4405 H 426.246 -0.739194 -1.9078 0
M  V30 4406 H 426.256 0.42904 -4.05738 0
M  V30 4407 H 424.931 -0.722675 -4.09573 0
M  V30 4408 H 423.508 1.03537 -3.58238 0
M  V30 4409 N 425.693 1.55336 -0.266172 0
M  V30 4410 C 426.941 1.99003 0.35246 0
M  V30 4411 C 427.262 1.15591 1.57047 0
M  V30 4412 O 426.532 0.243268 1.94384 0
M  V30 4413 H 425.112 0.735025 0.133217 0
M  V30 4414 H 427.774 1.91367 -0.369434 0
M  V30 4415 H 426.87 3.05289 0.648453 0
M  V30 4416 N 427.171 -0.0066808 1.57599 0
M  V30 4417 C 428.582 -0.550379 1.78403 0
M  V30 4418 C 428.933 -1.74339 0.900014 0
M  V30 4419 O 428.058 -2.16166 0.100713 0
M  V30 4420 C 428.653 -1.00523 3.23544 0
M  V30 4421 C 427.212 -1.49428 3.45468 0
M  V30 4422 C 426.359 -0.442444 2.73748 0
M  V30 4423 H 429.31 0.219508 1.57175 0
M  V30 4424 H 429.331 -1.87157 3.31289 0
M  V30 4425 H 428.843 -0.136735 3.87859 0
M  V30 4426 H 426.944 -2.3839 2.86358 0
M  V30 4427 H 427.057 -1.52635 4.54136 0
M  V30 4428 H 425.421 -0.902578 2.38171 0
M  V30 4429 H 426.204 0.416973 3.40758 0
M  V30 4430 N 428.649 -1.55105 -0.279332 0
M  V30 4431 C 429.612 -1.86783 -1.32834 0
M  V30 4432 C 430.612 -0.74199 -1.42657 0
M  V30 4433 O 431.802 -1.0102 -1.41918 0
M  V30 4434 C 428.934 -2.06746 -2.71052 0
M  V30 4435 H 430.127 -2.8055 -1.05979 0
M  V30 4436 H 427.68 -1.47499 -0.517087 0
M  V30 4437 H 428.415 -1.15339 -3.03097 0
M  V30 4438 H 428.2 -2.88711 -2.65309 0
M  V30 4439 H 429.69 -2.32549 -3.46858 0
M  V30 4440 N 430.127 0.543554 -1.4793 0
M  V30 4441 C 431.375 1.29752 -1.54948 0
M  V30 4442 C 431.696 1.93764 -0.219242 0
M  V30 4443 O 430.966 1.80639 0.75805 0
M  V30 4444 H 429.546 0.481874 -0.570795 0
M  V30 4445 H 432.208 0.633636 -1.84312 0
M  V30 4446 H 431.304 2.08392 -2.32334 0
M  V30 4447 N 431.605 1.3629 0.791371 0
M  V30 4448 C 432.853 1.30154 1.5461 0
M  V30 4449 C 433.174 -0.119409 1.94634 0
M  V30 4450 O 432.444 -1.05924 1.64794 0
M  V30 4451 H 431.024 0.478784 0.573389 0
M  V30 4452 H 433.686 1.70565 0.94306 0
M  V30 4453 H 432.782 1.92762 2.45457 0
M  V30 4454 N 433.083 -1.0153 1.20538 0
M  V30 4455 C 434.329 -1.75408 1.01783 0
M  V30 4456 C 434.662 -1.88943 -0.448814 0
M  V30 4457 O 433.937 -1.4162 -1.33319 0
M  V30 4458 C 434.22 -3.17255 1.70356 0
M  V30 4459 C 434.073 -3.11508 3.24473 0
M  V30 4460 C 435.392 -4.15955 1.43769 0
M  V30 4461 H 432.511 -0.636713 0.371167 0
M  V30 4462 H 435.153 -1.18436 1.4857 0
M  V30 4463 H 433.303 -3.65898 1.30578 0
M  V30 4464 H 434.975 -2.70658 3.73553 0
M  V30 4465 H 433.218 -2.4887 3.55311 0
M  V30 4466 H 433.889 -4.11784 3.67611 0
M  V30 4467 H 436.365 -3.75973 1.7828 0
M  V30 4468 H 435.241 -5.13368 1.94279 0
M  V30 4469 H 435.502 -4.40586 0.365564 0
M  V30 4470 N 434.561 -1.01147 -1.20859 0
M  V30 4471 C 435.807 -0.698899 -1.90377 0
M  V30 4472 C 436.14 0.76904 -1.78324 0
M  V30 4473 O 435.415 1.55817 -1.16409 0
M  V30 4474 C 435.698 -1.12878 -3.41951 0
M  V30 4475 C 435.551 -2.65665 -3.62963 0
M  V30 4476 C 436.87 -0.696114 -4.3456 0
M  V30 4477 H 433.989 -0.255372 -0.691342 0
M  V30 4478 H 436.631 -1.25831 -1.42361 0
M  V30 4479 H 434.781 -0.652827 -3.82976 0
M  V30 4480 H 436.453 -3.21074 -3.31224 0
M  V30 4481 H 434.696 -3.06878 -3.06608 0
M  V30 4482 H 435.367 -2.90797 -4.69192 0
M  V30 4483 H 437.843 -1.10521 -4.01154 0
M  V30 4484 H 436.719 -1.025 -5.39245 0
M  V30 4485 H 436.98 0.402465 -4.40264 0
M  V30 4486 N 436.039 1.36541 -0.78704 0
M  V30 4487 C 437.287 1.98911 -0.357633 0
M  V30 4488 C 437.608 1.62778 1.07371 0
M  V30 4489 O 436.878 0.900612 1.73971 0
M  V30 4490 H 435.458 0.735734 -0.129246 0
M  V30 4491 H 438.12 1.66776 -1.00855 0
M  V30 4492 H 437.216 3.08874 -0.447549 0
M  V30 4493 N 437.518 0.538854 1.48102 0
M  V30 4494 C 438.748 0.0122958 2.06596 0
M  V30 4495 C 439.156 -1.27861 1.39457 0
M  V30 4496 O 438.499 -1.77348 0.478907 0
M  V30 4497 C 438.561 -0.273131 3.58461 0
M  V30 4498 C 438.225 0.92561 4.47528 0
M  V30 4499 C 439.222 1.82637 4.86765 0
M  V30 4500 C 436.907 1.13511 4.89306 0
M  V30 4501 C 438.901 2.92047 5.66558 0
M  V30 4502 C 436.588 2.23233 5.68868 0
M  V30 4503 C 437.586 3.12333 6.07402 0
M  V30 4504 O 437.274 4.20155 6.85365 0
M  V30 4505 H 437.006 0.0344283 0.675123 0
M  V30 4506 H 439.56 0.746494 1.91355 0
M  V30 4507 H 437.79 -1.06141 3.71848 0
M  V30 4508 H 439.479 -0.742842 3.99045 0
M  V30 4509 H 440.245 1.67649 4.55103 0
M  V30 4510 H 436.124 0.450835 4.5879 0
M  V30 4511 H 439.668 3.6162 5.96554 0
M  V30 4512 H 435.565 2.38201 5.99942 0
M  V30 4513 H 436.333 4.17975 7.03732 0
M  V30 4514 N 438.996 -1.55193 0.274407 0
M  V30 4515 C 440.221 -2.04446 -0.348824 0
M  V30 4516 C 440.646 -1.15149 -1.48735 0
M  V30 4517 O 440.004 -0.149952 -1.80679 0
M  V30 4518 C 440.052 -3.51431 -0.808009 0
M  V30 4519 O 439.156 -3.65225 -1.91531 0
M  V30 4520 H 438.497 -0.66006 -0.0722276 0
M  V30 4521 H 441.027 -2.00481 0.408498 0
M  V30 4522 H 441.037 -3.92781 -1.10395 0
M  V30 4523 H 439.712 -4.15892 0.0249865 0
M  V30 4524 H 438.289 -3.35778 -1.62196 0
M  V30 4525 N 440.474 -0.00167713 -1.576 0
M  V30 4526 C 441.437 0.974046 -2.07473 0
M  V30 4527 C 442.437 1.27143 -0.984444 0
M  V30 4528 O 443.627 1.21633 -1.24703 0
M  V30 4529 C 440.759 2.29849 -2.51759 0
M  V30 4530 H 441.952 0.54262 -2.9495 0
M  V30 4531 H 439.505 0.245829 -1.54355 0
M  V30 4532 H 440.24 2.77677 -1.67529 0
M  V30 4533 H 440.025 2.09584 -3.31386 0
M  V30 4534 H 441.515 2.9984 -2.90664 0
M  V30 4535 N 441.952 1.55251 0.271103 0
M  V30 4536 C 443.18 1.79974 1.02064 0
M  V30 4537 C 443.595 0.574003 1.79863 0
M  V30 4538 O 442.952 -0.456962 1.76686 0
M  V30 4539 C 443.003 3.02603 1.97772 0
M  V30 4540 O 442.724 4.20443 1.23124 0
M  V30 4541 C 444.225 3.39944 2.84522 0
M  V30 4542 H 441.445 0.599489 0.301419 0
M  V30 4543 H 443.989 2.02268 0.301313 0
M  V30 4544 H 442.144 2.8243 2.65165 0
M  V30 4545 H 442.558 4.89783 1.87651 0
M  V30 4546 H 444.032 4.28915 3.47471 0
M  V30 4547 H 444.509 2.59432 3.54389 0
M  V30 4548 H 445.115 3.62383 2.22618 0
M  V30 4549 N 443.43 -0.535701 1.48216 0
M  V30 4550 C 444.658 -1.31671 1.59594 0
M  V30 4551 C 445.073 -1.87083 0.254056 0
M  V30 4552 O 444.43 -1.66112 -0.755854 0
M  V30 4553 C 444.481 -2.47158 2.63809 0
M  V30 4554 O 444.202 -1.94032 3.92789 0
M  V30 4555 C 445.703 -3.39062 2.85573 0
M  V30 4556 H 442.923 -0.400623 0.538277 0
M  V30 4557 H 445.467 -0.646827 1.94001 0
M  V30 4558 H 443.622 -3.10043 2.32276 0
M  V30 4559 H 444.036 -2.69585 4.49916 0
M  V30 4560 H 445.51 -4.16459 3.62306 0
M  V30 4561 H 445.987 -3.93941 1.94184 0
M  V30 4562 H 446.593 -2.81975 3.18387 0
M  V30 4563 N 444.908 -1.36708 -0.784132 0
M  V30 4564 C 446.138 -1.34203 -1.57077 0
M  V30 4565 C 446.546 0.0774945 -1.89041 0
M  V30 4566 O 445.889 1.04628 -1.50992 0
M  V30 4567 C 445.951 -2.10351 -2.91535 0
M  V30 4568 C 445.615 -3.59405 -2.82272 0
M  V30 4569 C 446.612 -4.53545 -2.54151 0
M  V30 4570 C 444.297 -4.02362 -3.00683 0
M  V30 4571 C 446.291 -5.8862 -2.44551 0
M  V30 4572 C 443.978 -5.37526 -2.90704 0
M  V30 4573 C 444.976 -6.30468 -2.62677 0
M  V30 4574 O 444.664 -7.63149 -2.52702 0
M  V30 4575 H 444.396 -0.461791 -0.493685 0
M  V30 4576 H 446.95 -1.80475 -0.980712 0
M  V30 4577 H 445.18 -1.5875 -3.52612 0
M  V30 4578 H 446.869 -2.00636 -3.52845 0
M  V30 4579 H 447.635 -4.21669 -2.39625 0
M  V30 4580 H 443.514 -3.30389 -3.21503 0
M  V30 4581 H 447.058 -6.61133 -2.22596 0
M  V30 4582 H 442.955 -5.69008 -3.04795 0
M  V30 4583 H 443.723 -7.73331 -2.68144 0
M  V30 4584 N 446.386 1.0089 -1.21074 0
M  V30 4585 C 447.318 2.09737 -0.924291 0
M  V30 4586 C 448.331 1.62546 0.0909809 0
M  V30 4587 O 449.52 1.77942 -0.141021 0
M  V30 4588 C 446.62 3.36922 -0.36559 0
M  V30 4589 C 445.793 4.13216 -1.43426 0
M  V30 4590 C 444.852 5.18696 -0.885496 0
M  V30 4591 O 443.878 5.47176 -1.56801 0
M  V30 4592 N 445.08 5.79718 0.301227 0
M  V30 4593 H 447.845 2.34895 -1.8613 0
M  V30 4594 H 445.406 1.17341 -1.11546 0
M  V30 4595 H 447.398 4.04697 0.0158407 0
M  V30 4596 H 445.968 3.08952 0.476149 0
M  V30 4597 H 445.188 3.40301 -1.9897 0
M  V30 4598 H 446.476 4.60967 -2.15376 0
M  V30 4599 H 445.874 5.58926 0.872849 0
M  V30 4600 H 444.431 6.48804 0.624211 0
M  V30 4601 N 447.864 1.01787 1.20321 0
M  V30 4602 C 448.796 0.547357 2.22568 0
M  V30 4603 C 449.809 -0.370922 1.58518 0
M  V30 4604 O 450.998 -0.169067 1.77698 0
M  V30 4605 C 448.098 -0.223031 3.38165 0
M  V30 4606 C 447.271 0.697472 4.31803 0
M  V30 4607 C 446.33 -0.025562 5.26194 0
M  V30 4608 O 445.356 0.597367 5.66057 0
M  V30 4609 N 446.558 -1.29999 5.65757 0
M  V30 4610 H 449.323 1.42668 2.63564 0
M  V30 4611 H 446.884 0.895552 1.34876 0
M  V30 4612 H 448.876 -0.716002 3.98316 0
M  V30 4613 H 447.446 -1.00366 2.9605 0
M  V30 4614 H 446.666 1.37073 3.69601 0
M  V30 4615 H 447.954 1.32347 4.91286 0
M  V30 4616 H 447.352 -1.827 5.35385 0
M  V30 4617 H 445.909 -1.73766 6.28211 0
M  V30 4618 N 449.342 -1.36122 0.79427 0
M  V30 4619 C 450.252 -2.33769 0.197296 0
M  V30 4620 C 451.268 -1.61276 -0.653153 0
M  V30 4621 O 452.444 -1.9323 -0.5678 0
M  V30 4622 C 449.509 -3.40474 -0.654098 0
M  V30 4623 C 448.57 -4.28759 0.215411 0
M  V30 4624 C 447.803 -5.30368 -0.595443 0
M  V30 4625 O 448.026 -5.40211 -1.83107 0
M  V30 4626 O 446.96 -6.019 0.00721351 0
M  V30 4627 H 450.786 -2.86597 1.00478 0
M  V30 4628 H 448.371 -1.38676 0.555818 0
M  V30 4629 H 450.253 -4.05703 -1.13944 0
M  V30 4630 H 448.928 -2.89937 -1.43938 0
M  V30 4631 H 447.835 -3.66554 0.747615 0
M  V30 4632 H 449.168 -4.82661 0.964332 0
M  V30 4633 N 450.82 -0.546701 -1.47814 0
M  V30 4634 C 452.068 -0.0187037 -2.02091 0
M  V30 4635 C 452.389 1.33168 -1.42447 0
M  V30 4636 O 451.659 1.86619 -0.595839 0
M  V30 4637 H 450.239 -0.00392531 -0.74699 0
M  V30 4638 H 452.901 -0.714327 -1.81338 0
M  V30 4639 H 451.997 0.0772219 -3.12004 0
M  V30 4640 N 452.299 1.55045 -0.282633 0
M  V30 4641 C 453.547 1.99365 0.331334 0
M  V30 4642 C 453.868 1.1725 1.55812 0
M  V30 4643 O 453.138 0.263871 1.94115 0
M  V30 4644 H 451.718 0.736397 0.125414 0
M  V30 4645 H 454.38 1.90964 -0.389711 0
M  V30 4646 H 453.476 3.0596 0.616036 0
M  V30 4647 N 453.777 0.010035 1.57597 0
M  V30 4648 C 454.709 -1.00649 2.05918 0
M  V30 4649 C 455.722 -1.30077 0.978964 0
M  V30 4650 O 456.911 -1.26878 1.25556 0
M  V30 4651 C 454.011 -2.33876 2.45265 0
M  V30 4652 C 453.184 -2.23242 3.7614 0
M  V30 4653 C 452.243 -3.39242 4.02245 0
M  V30 4654 O 451.269 -3.1698 4.72771 0
M  V30 4655 N 452.471 -4.6242 3.50924 0
M  V30 4656 H 455.236 -0.594333 2.93748 0
M  V30 4657 H 452.797 -0.17714 1.60928 0
M  V30 4658 H 454.789 -3.1027 2.59836 0
M  V30 4659 H 453.359 -2.66799 1.62902 0
M  V30 4660 H 452.579 -1.31696 3.71551 0
M  V30 4661 H 453.867 -2.13321 4.61922 0
M  V30 4662 H 453.265 -4.83404 2.93832 0
M  V30 4663 H 451.822 -5.36046 3.70807 0
M  V30 4664 N 455.255 -1.55392 -0.262866 0
M  V30 4665 C 456.666 -1.67079 -0.833158 0
M  V30 4666 C 457.017 -0.604539 -1.86654 0
M  V30 4667 O 456.142 0.252138 -2.14926 0
M  V30 4668 C 456.737 -3.02891 -1.51797 0
M  V30 4669 C 455.296 -3.16571 -2.03617 0
M  V30 4670 C 454.443 -2.62909 -0.881701 0
M  V30 4671 H 457.394 -1.58652 -0.0389986 0
M  V30 4672 H 457.415 -2.96445 -2.38538 0
M  V30 4673 H 456.927 -3.80473 -0.765619 0
M  V30 4674 H 455.028 -2.43782 -2.81782 0
M  V30 4675 H 455.141 -4.23271 -2.24452 0
M  V30 4676 H 453.505 -2.20324 -1.27786 0
M  V30 4677 H 454.288 -3.43003 -0.14269 0
M  V30 4678 N 456.733 0.527833 -1.48498 0
M  V30 4679 C 457.979 1.28545 -1.56857 0
M  V30 4680 C 458.312 1.92678 -0.242651 0
M  V30 4681 O 457.587 1.79394 0.751545 0
M  V30 4682 C 457.87 2.37314 -2.70839 0
M  V30 4683 C 457.723 1.77858 -4.13142 0
M  V30 4684 C 459.042 3.39068 -2.80573 0
M  V30 4685 H 456.161 0.466006 -0.570971 0
M  V30 4686 H 458.803 0.587784 -1.8068 0
M  V30 4687 H 456.953 2.96821 -2.50658 0
M  V30 4688 H 458.625 1.22385 -4.44769 0
M  V30 4689 H 456.868 1.08383 -4.20042 0
M  V30 4690 H 457.539 2.56624 -4.88721 0
M  V30 4691 H 460.015 2.89518 -2.98862 0
M  V30 4692 H 458.891 4.12566 -3.6205 0
M  V30 4693 H 459.152 3.9975 -1.88818 0
M  V30 4694 N 458.211 1.37122 0.776871 0
M  V30 4695 C 459.46 1.31373 1.53049 0
M  V30 4696 C 459.773 -0.101016 1.95339 0
M  V30 4697 O 460.979 -0.280953 2.70042 0
M  V30 4698 C 459.435 2.30567 2.76346 0
M  V30 4699 C 459.043 3.77543 2.41175 0
M  V30 4700 C 460.787 2.33818 3.54301 0
M  V30 4701 C 458.694 4.68481 3.60943 0
M  V30 4702 H 457.624 0.488234 0.574581 0
M  V30 4703 H 460.275 1.62554 0.851372 0
M  V30 4704 H 458.657 1.92396 3.46121 0
M  V30 4705 H 459.831 4.24521 1.79216 0
M  V30 4706 H 458.146 3.77187 1.76405 0
M  V30 4707 H 460.743 2.98965 4.4331 0
M  V30 4708 H 461.086 1.3503 3.93793 0
M  V30 4709 H 461.619 2.7067 2.91518 0
M  V30 4710 H 458.358 5.68378 3.26537 0
M  V30 4711 H 457.878 4.2621 4.22025 0
M  V30 4712 H 459.557 4.85366 4.27819 0
M  V30 4713 N 459.689 -1.00246 1.21608 0
M  V30 4714 C 460.937 -1.73717 1.0328 0
M  V30 4715 C 461.258 -1.90102 -0.434318 0
M  V30 4716 O 460.528 -1.45376 -1.31311 0
M  V30 4717 H 459.108 -0.643613 0.379172 0
M  V30 4718 H 461.77 -1.20787 1.52959 0
M  V30 4719 H 460.866 -2.73535 1.50283 0
M  V30 4720 N 461.167 -1.02423 -1.1978 0
M  V30 4721 C 462.414 -0.717988 -1.89344 0
M  V30 4722 C 462.742 0.753036 -1.79331 0
M  V30 4723 O 461.997 1.56355 -1.17692 0
M  V30 4724 C 462.296 -1.1088 -3.39765 0
M  V30 4725 C 461.962 -2.57731 -3.6998 0
M  V30 4726 C 460.624 -2.97854 -3.77937 0
M  V30 4727 C 462.976 -3.52763 -3.83677 0
M  V30 4728 C 460.304 -4.31931 -3.97054 0
M  V30 4729 C 462.656 -4.86538 -4.04306 0
M  V30 4730 C 461.32 -5.26356 -4.10494 0
M  V30 4731 H 460.59 -0.26273 -0.692859 0
M  V30 4732 H 463.237 -1.28623 -1.41875 0
M  V30 4733 H 461.542 -0.459094 -3.89101 0
M  V30 4734 H 463.239 -0.849432 -3.919 0
M  V30 4735 H 459.829 -2.25646 -3.64393 0
M  V30 4736 H 464.013 -3.2292 -3.76877 0
M  V30 4737 H 459.269 -4.62324 -4.00083 0
M  V30 4738 H 463.443 -5.60093 -4.13846 0
M  V30 4739 H 461.07 -6.3026 -4.2506 0
M  V30 4740 N 462.645 1.35699 -0.801477 0
M  V30 4741 C 463.922 1.9324 -0.302937 0
M  V30 4742 C 464.302 1.73209 1.20672 0
M  V30 4743 O 463.65 1.09809 2.00385 0
M  V30 4744 C 463.86 3.41728 -0.708747 0
M  V30 4745 C 465.208 4.18868 -0.695328 0
M  V30 4746 O 466.232 3.5022 -0.649971 0
M  V30 4747 O 465.091 5.41342 -0.749081 0
M  V30 4748 H 462.185 0.82331 -0.0780367 0
M  V30 4749 H 464.731 1.44806 -0.884832 0
M  V30 4750 H 463.503 3.50015 -1.74944 0
M  V30 4751 H 463.126 3.97471 -0.101384 0
M  V30 4752 N 464.123 0.554532 1.47522 0
M  V30 4753 C 465.056 -0.242442 2.26908 0
M  V30 4754 C 466.034 -0.922722 1.33883 0
M  V30 4755 O 467.218 -0.942244 1.63261 0
M  V30 4756 C 464.345 -1.34525 3.10839 0
M  V30 4757 C 463.391 -0.773805 4.19422 0
M  V30 4758 S 464.224 0.377525 5.34168 0
M  V30 4759 C 465.38 -0.727164 6.21662 0
M  V30 4760 H 465.613 0.431218 2.94156 0
M  V30 4761 H 463.146 0.3408 1.50592 0
M  V30 4762 H 465.104 -1.97683 3.59766 0
M  V30 4763 H 463.765 -1.99073 2.42958 0
M  V30 4764 H 462.958 -1.60187 4.77866 0
M  V30 4765 H 462.56 -0.218448 3.73361 0
M  V30 4766 H 464.852 -1.61992 6.57849 0
M  V30 4767 H 465.795 -0.180135 7.07871 0
M  V30 4768 H 466.203 -1.01863 5.55233 0
M  V30 4769 N 465.601 -1.54893 0.290851 0
M  V30 4770 C 466.849 -1.99538 -0.320756 0
M  V30 4771 C 467.17 -1.18075 -1.55188 0
M  V30 4772 O 466.44 -0.274162 -1.93972 0
M  V30 4773 H 465.02 -0.737052 -0.121507 0
M  V30 4774 H 467.682 -1.90755 0.399832 0
M  V30 4775 H 466.778 -3.06282 -0.599802 0
M  V30 4776 N 467.08 -0.0183926 -1.57589 0
M  V30 4777 C 468.328 0.661253 -1.90976 0
M  V30 4778 C 468.649 1.73281 -0.894353 0
M  V30 4779 O 467.919 1.9579 0.0656788 0
M  V30 4780 H 466.499 0.247233 -0.704901 0
M  V30 4781 H 469.161 -0.0636639 -1.94796 0
M  V30 4782 H 468.257 1.12083 -2.9128 0
M  V30 4783 N 468.558 1.5553 0.254621 0
M  V30 4784 C 469.786 1.81046 1.00149 0
M  V30 4785 C 470.201 0.593047 1.79244 0
M  V30 4786 O 469.558 -0.438196 1.77161 0
M  V30 4787 C 469.609 3.04684 1.94551 0
M  V30 4788 O 469.33 4.21725 1.18658 0
M  V30 4789 C 470.831 3.42943 2.80901 0
M  V30 4790 H 468.051 0.602653 0.295044 0
M  V30 4791 H 470.595 2.02576 0.279842 0
M  V30 4792 H 468.75 2.85226 2.62154 0
M  V30 4793 H 469.164 4.91746 1.82445 0
M  V30 4794 H 470.638 4.32576 3.42902 0
M  V30 4795 H 471.115 2.63176 3.51617 0
M  V30 4796 H 471.721 3.64724 2.18762 0
M  V30 4797 N 470.036 -0.519951 1.48776 0
M  V30 4798 C 471.261 -1.30447 1.6124 0
M  V30 4799 C 471.686 -1.86055 0.276591 0
M  V30 4800 O 471.044 -1.64915 -0.753183 0
M  V30 4801 C 471.092 -2.42406 2.66967 0
M  V30 4802 O 470.196 -3.45728 2.24824 0
M  V30 4803 H 469.537 -0.385924 0.540332 0
M  V30 4804 H 472.067 -0.624572 1.94834 0
M  V30 4805 H 472.077 -2.88447 2.88552 0
M  V30 4806 H 470.752 -2.01294 3.63941 0
M  V30 4807 H 469.329 -3.05737 2.13494 0
M  V30 4808 N 471.514 -1.37532 -0.769588 0
M  V30 4809 C 472.742 -1.36059 -1.55871 0
M  V30 4810 C 473.157 0.053544 -1.88724 0
M  V30 4811 O 472.514 1.01591 -1.5161 0
M  V30 4812 C 472.565 -2.20107 -2.86767 0
M  V30 4813 O 472.286 -3.56009 -2.55321 0
M  V30 4814 C 473.787 -2.26636 -3.80987 0
M  V30 4815 H 471.007 -0.465967 -0.482821 0
M  V30 4816 H 473.551 -1.80901 -0.953686 0
M  V30 4817 H 471.706 -1.78768 -3.43687 0
M  V30 4818 H 472.12 -4.0009 -3.39158 0
M  V30 4819 H 473.594 -2.89763 -4.69831 0
M  V30 4820 H 474.071 -1.2754 -4.20274 0
M  V30 4821 H 474.677 -2.68296 -3.29996 0
M  V30 4822 N 472.992 0.995999 -1.22138 0
M  V30 4823 C 474.269 1.70834 -0.952642 0
M  V30 4824 C 474.649 2.04257 0.533119 0
M  V30 4825 O 473.997 1.72343 1.50034 0
M  V30 4826 C 474.207 2.96119 -1.84701 0
M  V30 4827 C 475.555 3.68962 -2.10124 0
M  V30 4828 O 476.579 3.0612 -1.82124 0
M  V30 4829 O 475.438 4.82017 -2.57531 0
M  V30 4830 H 472.532 0.745498 -0.357997 0
M  V30 4831 H 475.078 1.05262 -1.33109 0
M  V30 4832 H 473.85 2.67898 -2.85213 0
M  V30 4833 H 473.473 3.6943 -1.46995 0
M  V30 4834 N 474.47 1.03057 1.19235 0
M  V30 4835 C 475.716 0.729098 1.89241 0
M  V30 4836 C 476.049 -0.740573 1.79525 0
M  V30 4837 O 475.324 -1.53946 1.18874 0
M  V30 4838 C 475.607 1.18304 3.40112 0
M  V30 4839 C 475.46 2.71406 3.5869 0
M  V30 4840 C 476.779 0.765161 4.33397 0
M  V30 4841 H 473.898 0.266338 0.687192 0
M  V30 4842 H 476.54 1.28079 1.40341 0
M  V30 4843 H 474.69 0.713672 3.81889 0
M  V30 4844 H 476.362 3.26303 3.26074 0
M  V30 4845 H 474.605 3.11717 3.01687 0
M  V30 4846 H 475.276 2.98225 4.64506 0
M  V30 4847 H 477.752 1.16889 3.99345 0
M  V30 4848 H 476.628 1.11065 5.37546 0
M  V30 4849 H 476.889 -0.332372 4.40849 0
M  V30 4850 N 475.948 -1.35272 0.808662 0
M  V30 4851 C 477.173 -2.03477 0.401475 0
M  V30 4852 C 477.598 -1.60537 -0.980279 0
M  V30 4853 O 476.956 -0.78304 -1.63518 0
M  V30 4854 C 477.004 -3.57181 0.495354 0
M  V30 4855 O 476.108 -4.09474 -0.490397 0
M  V30 4856 H 475.449 -0.642561 0.167366 0
M  V30 4857 H 477.979 -1.72824 1.09512 0
M  V30 4858 H 477.989 -4.06356 0.365912 0
M  V30 4859 H 476.664 -3.87784 1.5032 0
M  V30 4860 H 475.241 -3.71516 -0.321023 0
M  V30 4861 N 477.426 -0.562348 -1.47226 0
M  V30 4862 C 478.842 -0.222492 -1.58042 0
M  V30 4863 C 479.042 1.27505 -1.56028 0
M  V30 4864 O 478.098 2.05555 -1.46641 0
M  V30 4865 C 479.411 -0.853694 -2.88327 0
M  V30 4866 C 480.959 -0.825397 -3.01921 0
M  V30 4867 C 481.434 -1.43576 -4.34914 0
M  V30 4868 N 482.925 -1.39918 -4.41562 0
M  V30 4869 C 483.66 -1.84103 -5.43041 0
M  V30 4870 N 483.156 -2.36167 -6.51304 0
M  V30 4871 N 484.949 -1.75142 -5.34118 0
M  V30 4872 H 477.1 -1.53525 -1.46778 0
M  V30 4873 H 479.363 -0.640527 -0.698877 0
M  V30 4874 H 479.069 -1.90635 -2.95552 0
M  V30 4875 H 478.943 -0.34977 -3.75575 0
M  V30 4876 H 481.33 0.218583 -2.94289 0
M  V30 4877 H 481.411 -1.36713 -2.16202 0
M  V30 4878 H 481.055 -2.47884 -4.43301 0
M  V30 4879 H 480.985 -0.869427 -5.19373 0
M  V30 4880 H 483.476 -1.0184 -3.63919 0
M  V30 4881 H 483.789 -2.67793 -7.24919 0
M  V30 4882 H 482.134 -2.40181 -6.52179 0
M  V30 4883 H 485.325 -1.34241 -4.48439 0
M  V30 4884 H 485.498 -2.09895 -6.13065 0
M  V30 4885 N 478.904 1.54736 -0.299062 0
M  V30 4886 C 480.134 2.04215 0.312992 0
M  V30 4887 C 480.542 1.17596 1.48215 0
M  V30 4888 O 479.885 0.193835 1.82674 0
M  V30 4889 C 479.947 3.49696 0.833862 0
M  V30 4890 C 479.611 4.56518 -0.20977 0
M  V30 4891 C 480.608 5.09442 -1.03756 0
M  V30 4892 C 478.293 5.01073 -0.35091 0
M  V30 4893 C 480.287 6.05459 -1.99244 0
M  V30 4894 C 477.974 5.9691 -1.30924 0
M  V30 4895 C 478.972 6.48987 -2.1285 0
M  V30 4896 O 478.66 7.42947 -3.07059 0
M  V30 4897 H 478.392 0.672128 0.0722494 0
M  V30 4898 H 480.946 2.00718 -0.436043 0
M  V30 4899 H 479.176 3.5051 1.63339 0
M  V30 4900 H 480.865 3.82381 1.36159 0
M  V30 4901 H 481.631 4.75816 -0.939376 0
M  V30 4902 H 477.51 4.60168 0.276813 0
M  V30 4903 H 481.054 6.46031 -2.63229 0
M  V30 4904 H 476.951 6.29953 -1.40815 0
M  V30 4905 H 477.719 7.60743 -3.02015 0
M  V30 4906 N 480.382 0.0267497 1.57577 0
M  V30 4907 C 481.345 -0.940916 2.08996 0
M  V30 4908 C 482.345 -1.25561 1.00455 0
M  V30 4909 O 483.535 -1.19634 1.26623 0
M  V30 4910 C 480.667 -2.25814 2.55384 0
M  V30 4911 H 481.86 -0.495628 2.95776 0
M  V30 4912 H 479.413 -0.221241 1.54726 0
M  V30 4913 H 480.148 -2.74976 1.71926 0
M  V30 4914 H 479.933 -2.04285 3.34679 0
M  V30 4915 H 481.423 -2.95178 2.95398 0
M  V30 4916 N 481.861 -1.55662 -0.24637 0
M  V30 4917 C 483.109 -1.77168 -0.972411 0
M  V30 4918 C 483.43 -0.590827 -1.85834 0
M  V30 4919 O 482.7 0.393365 -1.9191 0
M  V30 4920 H 481.28 -0.653405 -0.362038 0
M  V30 4921 H 483.942 -1.93101 -0.264189 0
M  V30 4922 H 483.038 -2.68335 -1.59382 0
M  V30 4923 N 483.339 0.512053 -1.4905 0
M  V30 4924 C 484.249 1.64139 -1.67617 0
M  V30 4925 C 485.265 1.64786 -0.558701 0
M  V30 4926 O 486.441 1.8341 -0.832034 0
M  V30 4927 C 483.506 3.00548 -1.72835 0
M  V30 4928 C 482.567 3.10615 -2.96339 0
M  V30 4929 C 481.8 4.40517 -3.01298 0
M  V30 4930 O 482.023 5.28671 -2.14157 0
M  V30 4931 O 480.957 4.55325 -3.93653 0
M  V30 4932 H 484.783 1.51407 -2.63267 0
M  V30 4933 H 482.368 0.687131 -1.32661 0
M  V30 4934 H 484.25 3.81641 -1.78683 0
M  V30 4935 H 482.925 3.13566 -0.803616 0
M  V30 4936 H 481.832 2.2875 -2.96014 0
M  V30 4937 H 483.165 3.0252 -3.88256 0
M  V30 4938 N 484.817 1.37938 0.762283 0
M  V30 4939 C 486.064 1.33668 1.52115 0
M  V30 4940 C 486.392 -0.0759538 1.94352 0
M  V30 4941 O 485.647 -1.05121 1.6507 0
M  V30 4942 C 485.946 2.23042 2.79261 0
M  V30 4943 C 485.612 3.71159 2.56031 0
M  V30 4944 C 484.274 4.11523 2.49404 0
M  V30 4945 C 486.626 4.64955 2.35513 0
M  V30 4946 C 483.954 5.43784 2.20263 0
M  V30 4947 C 486.306 5.97464 2.07894 0
M  V30 4948 C 484.97 6.36922 1.99718 0
M  V30 4949 H 484.24 0.489127 0.556629 0
M  V30 4950 H 486.887 1.70224 0.877262 0
M  V30 4951 H 485.192 1.79512 3.48256 0
M  V30 4952 H 486.889 2.17047 3.37182 0
M  V30 4953 H 483.479 3.39153 2.62056 0
M  V30 4954 H 487.663 4.34623 2.39617 0
M  V30 4955 H 482.919 5.73307 2.12435 0
M  V30 4956 H 487.093 6.6969 1.91019 0
M  V30 4957 H 484.72 7.39331 1.76902 0
M  V30 4958 N 486.295 -0.989507 1.22664 0
M  V30 4959 C 487.205 -2.11449 1.01619 0
M  V30 4960 C 488.221 -1.73962 -0.036545 0
M  V30 4961 O 489.397 -2.00788 0.156924 0
M  V30 4962 C 486.462 -3.41465 0.600204 0
M  V30 4963 C 485.523 -3.93033 1.72695 0
M  V30 4964 C 484.756 -5.16844 1.33071 0
M  V30 4965 O 484.979 -5.7001 0.210975 0
M  V30 4966 O 483.913 -5.6225 2.14845 0
M  V30 4967 H 487.739 -2.32088 1.9588 0
M  V30 4968 H 485.324 -1.09823 1.01289 0
M  V30 4969 H 487.206 -4.19695 0.37873 0
M  V30 4970 H 485.881 -3.22178 -0.313511 0
M  V30 4971 H 484.788 -3.15961 2.00298 0
M  V30 4972 H 486.121 -4.16758 2.61865 0
M  V30 4973 N 487.773 -1.03688 -1.18687 0
M  V30 4974 C 488.723 -0.595067 -2.20098 0
M  V30 4975 C 489.707 0.360465 -1.5681 0
M  V30 4976 O 490.899 0.180136 -1.76081 0
M  V30 4977 C 488.028 0.0444495 -3.43271 0
M  V30 4978 C 487.114 -0.934002 -4.13687 0
M  V30 4979 N 487.505 -2.09957 -4.60165 0
M  V30 4980 C 485.803 -0.759177 -4.39491 0
M  V30 4981 C 486.504 -2.71735 -5.1433 0
M  V30 4982 N 485.48 -1.99638 -5.05614 0
M  V30 4983 H 489.282 -1.48336 -2.5372 0
M  V30 4984 H 486.796 -0.904949 -1.3485 0
M  V30 4985 H 488.793 0.37864 -4.15177 0
M  V30 4986 H 487.453 0.928325 -3.11147 0
M  V30 4987 H 488.464 -2.47863 -4.54735 0
M  V30 4988 H 485.141 0.0749292 -4.17433 0
M  V30 4989 H 486.531 -3.70492 -5.60523 0
M  V30 4990 N 489.251 1.34841 -0.815825 0
M  V30 4991 C 490.497 1.98793 -0.401129 0
M  V30 4992 C 490.83 1.64548 1.03139 0
M  V30 4993 O 490.105 0.913487 1.71714 0
M  V30 4994 C 490.388 3.55143 -0.595409 0
M  V30 4995 C 490.241 3.99155 -2.07352 0
M  V30 4996 C 491.56 4.40092 -0.0268823 0
M  V30 4997 H 488.679 0.722146 -0.14722 0
M  V30 4998 H 491.321 1.59847 -1.02707 0
M  V30 4999 H 489.471 3.8845 -0.0625779 0
M  V30 5000 H 491.143 3.76216 -2.66945 0
M  V30 5001 H 489.386 3.49726 -2.56659 0
M  V30 5002 H 490.057 5.07971 -2.1603 0
M  V30 5003 H 492.533 4.13298 -0.482042 0
M  V30 5004 H 491.409 5.48562 -0.19267 0
M  V30 5005 H 491.67 4.29016 1.06759 0
M  V30 5006 N 490.729 0.570148 1.46925 0
M  V30 5007 C 491.976 0.0509529 2.02436 0
M  V30 5008 C 492.304 -1.30405 1.44308 0
M  V30 5009 O 491.559 -1.86493 0.593198 0
M  V30 5010 C 491.858 -0.0780336 3.57315 0
M  V30 5011 C 491.524 1.20775 4.34424 0
M  V30 5012 C 490.186 1.56004 4.5521 0
M  V30 5013 C 492.538 2.0592 4.78797 0
M  V30 5014 C 489.866 2.76201 5.17619 0
M  V30 5015 C 492.218 3.25332 5.42533 0
M  V30 5016 C 490.882 3.60859 5.61549 0
M  V30 5017 H 490.152 0.018645 0.740765 0
M  V30 5018 H 492.799 0.744262 1.76445 0
M  V30 5019 H 491.104 -0.854394 3.82371 0
M  V30 5020 H 492.801 -0.495312 3.97929 0
M  V30 5021 H 489.391 0.923469 4.18533 0
M  V30 5022 H 493.575 1.80008 4.62505 0
M  V30 5023 H 488.831 3.0388 5.30535 0
M  V30 5024 H 493.005 3.91586 5.75876 0
M  V30 5025 H 490.632 4.54088 6.09678 0
M  V30 5026 N 492.207 -1.54576 0.307264 0
M  V30 5027 C 493.117 -2.27435 -0.57536 0
M  V30 5028 C 494.133 -1.31183 -1.14311 0
M  V30 5029 O 495.309 -1.64175 -1.16656 0
M  V30 5030 C 492.374 -3.00566 -1.72803 0
M  V30 5031 C 491.435 -4.12369 -1.19373 0
M  V30 5032 C 490.668 -4.82003 -2.29147 0
M  V30 5033 O 490.891 -4.51038 -3.49171 0
M  V30 5034 O 489.825 -5.69271 -1.95485 0
M  V30 5035 H 493.651 -3.03696 0.0158558 0
M  V30 5036 H 491.236 -1.49219 0.0735064 0
M  V30 5037 H 493.118 -3.46416 -2.39946 0
M  V30 5038 H 491.793 -2.27195 -2.30574 0
M  V30 5039 H 490.7 -3.70905 -0.487851 0
M  V30 5040 H 492.033 -4.87736 -0.661376 0
M  V30 5041 N 493.685 -0.035106 -1.57561 0
M  V30 5042 C 494.648 0.929819 -2.09492 0
M  V30 5043 C 495.648 1.25026 -1.01119 0
M  V30 5044 O 496.838 1.18961 -1.27255 0
M  V30 5045 C 493.97 2.24457 -2.56577 0
M  V30 5046 H 495.163 0.479935 -2.96035 0
M  V30 5047 H 492.716 0.213033 -1.54841 0
M  V30 5048 H 493.451 2.74061 -1.73382 0
M  V30 5049 H 493.236 2.02508 -3.35757 0
M  V30 5050 H 494.726 2.93607 -2.96959 0
M  V30 5051 N 495.163 1.55791 0.238111 0
M  V30 5052 C 496.388 1.8244 0.986432 0
M  V30 5053 C 496.813 0.613314 1.7782 0
M  V30 5054 O 496.171 -0.437767 1.75935 0
M  V30 5055 C 496.219 3.06917 1.893 0
M  V30 5056 O 495.323 2.84449 2.98601 0
M  V30 5057 H 494.664 0.601975 0.280218 0
M  V30 5058 H 497.194 2.02987 0.256437 0
M  V30 5059 H 497.204 3.36583 2.30598 0
M  V30 5060 H 495.879 3.947 1.31091 0
M  V30 5061 H 494.456 2.65972 2.61368 0
M  V30 5062 N 496.642 -0.504142 1.49319 0
M  V30 5063 C 497.87 -1.28256 1.62351 0
M  V30 5064 C 498.285 -1.86502 0.293682 0
M  V30 5065 O 497.642 -1.67678 -0.720449 0
M  V30 5066 C 497.693 -2.41507 2.68992 0
M  V30 5067 O 497.414 -1.85656 3.96817 0
M  V30 5068 C 498.915 -3.32929 2.927 0
M  V30 5069 H 496.135 -0.389115 0.546654 0
M  V30 5070 H 498.679 -0.605531 1.95329 0
M  V30 5071 H 496.834 -3.05046 2.38801 0
M  V30 5072 H 497.248 -2.59981 4.55533 0
M  V30 5073 H 498.722 -4.0868 3.71058 0
M  V30 5074 H 499.199 -3.89733 2.02496 0
M  V30 5075 H 499.805 -2.75158 3.24296 0
M  V30 5076 N 498.12 -1.38341 -0.754957 0
M  V30 5077 C 499.083 -1.35262 -1.85032 0
M  V30 5078 C 500.083 -0.253393 -1.58791 0
M  V30 5079 O 501.273 -0.510205 -1.66561 0
M  V30 5080 C 498.405 -1.10544 -3.22479 0
M  V30 5081 H 499.598 -2.32712 -1.8917 0
M  V30 5082 H 497.151 -1.23614 -0.956515 0
M  V30 5083 H 497.886 -0.136952 -3.24011 0
M  V30 5084 H 497.671 -1.90127 -3.4292 0
M  V30 5085 H 499.161 -1.11082 -4.02555 0
M  V30 5086 N 499.598 0.982988 -1.23187 0
M  V30 5087 C 500.846 1.72052 -1.06031 0
M  V30 5088 C 501.167 1.90769 0.404019 0
M  V30 5089 O 500.437 1.47446 1.28982 0
M  V30 5090 H 499.017 0.637499 -0.389363 0
M  V30 5091 H 501.679 1.18338 -1.54862 0
M  V30 5092 H 500.775 2.7111 -1.54615 0
M  V30 5093 N 501.076 1.04316 1.18135 0
M  V30 5094 C 502.322 0.749128 1.88457 0
M  V30 5095 C 502.655 -0.72149 1.803 0
M  V30 5096 O 501.93 -1.52676 1.205 0
M  V30 5097 C 502.213 1.21905 3.38838 0
M  V30 5098 C 502.066 2.75195 3.55792 0
M  V30 5099 C 503.385 0.811085 4.32561 0
M  V30 5100 H 500.504 0.273611 0.684329 0
M  V30 5101 H 503.146 1.29561 1.38975 0
M  V30 5102 H 501.296 0.754137 3.8111 0
M  V30 5103 H 502.968 3.29743 3.22595 0
M  V30 5104 H 501.211 3.14899 2.98364 0
M  V30 5105 H 501.882 3.03135 4.61317 0
M  V30 5106 H 504.358 1.21118 3.98082 0
M  V30 5107 H 503.234 1.16761 5.36338 0
M  V30 5108 H 503.495 -0.285596 4.41177 0
M  V30 5109 N 502.554 -1.34406 0.822964 0
M  V30 5110 C 503.782 -2.02508 0.424039 0
M  V30 5111 C 504.197 -1.61975 -0.970022 0
M  V30 5112 O 503.554 -0.825228 -1.62777 0
M  V30 5113 C 503.605 -3.57789 0.516657 0
M  V30 5114 O 503.326 -3.96853 1.85577 0
M  V30 5115 C 504.827 -4.43157 0.112637 0
M  V30 5116 H 502.047 -0.649063 0.170173 0
M  V30 5117 H 504.591 -1.7168 1.11113 0
M  V30 5118 H 502.746 -3.87207 -0.122353 0
M  V30 5119 H 503.16 -4.91538 1.83005 0
M  V30 5120 H 504.634 -5.51527 0.228526 0
M  V30 5121 H 505.111 -4.28939 -0.943837 0
M  V30 5122 H 505.717 -4.19067 0.725449 0
M  V30 5123 N 504.032 -0.577932 -1.46621 0
M  V30 5124 C 504.962 0.145917 -2.33044 0
M  V30 5125 C 505.943 0.888412 -1.45056 0
M  V30 5126 O 507.128 0.864812 -1.73881 0
M  V30 5127 C 504.258 1.16322 -3.27241 0
M  V30 5128 C 503.212 0.535868 -4.24632 0
M  V30 5129 C 502.538 1.65929 -5.08303 0
M  V30 5130 C 503.838 -0.523861 -5.19666 0
M  V30 5131 H 505.532 -0.575636 -2.93814 0
M  V30 5132 H 503.078 -0.278272 -1.41286 0
M  V30 5133 H 505.031 1.67793 -3.86553 0
M  V30 5134 H 503.755 1.91498 -2.64567 0
M  V30 5135 H 502.414 0.0422759 -3.66576 0
M  V30 5136 H 502.062 2.40061 -4.42018 0
M  V30 5137 H 501.762 1.2452 -5.74255 0
M  V30 5138 H 503.286 2.17686 -5.70478 0
M  V30 5139 H 504.7 -0.0944059 -5.73222 0
M  V30 5140 H 503.097 -0.858 -5.93935 0
M  V30 5141 H 504.167 -1.41197 -4.63887 0
M  V30 5142 N 505.51 1.54411 -0.315457 0
M  V30 5143 C 506.442 2.21527 0.588067 0
M  V30 5144 C 507.455 1.21263 1.08624 0
M  V30 5145 O 508.644 1.47777 1.00121 0
M  V30 5146 C 505.744 2.85963 1.81875 0
M  V30 5147 C 504.917 4.12291 1.46063 0
M  V30 5148 C 503.976 4.60396 2.54799 0
M  V30 5149 O 503.002 5.25265 2.19283 0
M  V30 5150 N 504.204 4.33935 3.85591 0
M  V30 5151 H 506.969 2.99697 0.013414 0
M  V30 5152 H 504.53 1.61308 -0.138295 0
M  V30 5153 H 506.522 3.15071 2.53993 0
M  V30 5154 H 505.092 2.11548 2.30144 0
M  V30 5155 H 504.312 3.90036 0.571445 0
M  V30 5156 H 505.6 4.9452 1.19695 0
M  V30 5157 H 504.998 3.81996 4.17248 0
M  V30 5158 H 503.555 4.67718 4.53964 0
M  V30 5159 N 506.988 0.0434614 1.5754 0
M  V30 5160 C 507.951 -0.918696 2.09982 0
M  V30 5161 C 508.951 -1.24488 1.01781 0
M  V30 5162 O 510.141 -1.18284 1.27885 0
M  V30 5163 C 507.273 -2.23093 2.57764 0
M  V30 5164 H 508.466 -0.464229 2.96285 0
M  V30 5165 H 506.019 -0.204818 1.54952 0
M  V30 5166 H 506.754 -2.73137 1.74832 0
M  V30 5167 H 506.539 -2.00724 3.36827 0
M  V30 5168 H 508.029 -2.92028 2.98512 0
M  V30 5169 N 508.466 -1.55915 -0.229846 0
M  V30 5170 C 509.877 -1.68809 -0.797531 0
M  V30 5171 C 510.228 -0.643995 -1.8533 0
M  V30 5172 O 509.353 0.206492 -2.15413 0
M  V30 5173 C 509.948 -3.06043 -1.45338 0
M  V30 5174 C 508.507 -3.20819 -1.96856 0
M  V30 5175 C 507.654 -2.6472 -0.825736 0
M  V30 5176 H 510.605 -1.58699 -0.00533733 0
M  V30 5177 H 510.626 -3.01438 -2.32196 0
M  V30 5178 H 510.138 -3.82012 -0.684743 0
M  V30 5179 H 508.239 -2.49704 -2.76548 0
M  V30 5180 H 508.352 -4.27937 -2.15423 0
M  V30 5181 H 506.716 -2.22985 -1.23084 0
M  V30 5182 H 507.499 -3.43229 -0.0699019 0
M  V30 5183 N 509.944 0.496216 -1.49584 0
M  V30 5184 C 510.876 1.61404 -1.62731 0
M  V30 5185 C 511.889 1.54613 -0.50978 0
M  V30 5186 O 513.078 1.60458 -0.782017 0
M  V30 5187 C 510.178 3.00212 -1.57245 0
M  V30 5188 C 509.351 3.32138 -2.84611 0
M  V30 5189 C 508.41 4.5038 -2.72112 0
M  V30 5190 O 507.436 4.51926 -3.46051 0
M  V30 5191 N 508.638 5.50575 -1.83977 0
M  V30 5192 H 511.403 1.50552 -2.59141 0
M  V30 5193 H 508.964 0.684182 -1.46733 0
M  V30 5194 H 510.956 3.77241 -1.4653 0
M  V30 5195 H 509.526 3.04964 -0.686729 0
M  V30 5196 H 508.746 2.4396 -3.09641 0
M  V30 5197 H 510.034 3.50268 -3.69039 0
M  V30 5198 H 509.432 5.52128 -1.23171 0
M  V30 5199 H 507.989 6.26687 -1.79182 0
M  V30 5200 N 511.423 1.38739 0.74761 0
M  V30 5201 C 512.353 1.39173 1.87492 0
M  V30 5202 C 513.334 0.256794 1.6815 0
M  V30 5203 O 514.519 0.460762 1.88655 0
M  V30 5204 C 511.649 1.22197 3.25093 0
M  V30 5205 C 510.603 2.32957 3.59047 0
M  V30 5206 C 509.929 2.01082 4.95449 0
M  V30 5207 C 511.229 3.75237 3.6331 0
M  V30 5208 H 512.923 2.3351 1.87386 0
M  V30 5209 H 510.469 1.12399 0.900134 0
M  V30 5210 H 512.422 1.21124 4.03617 0
M  V30 5211 H 511.146 0.243241 3.25693 0
M  V30 5212 H 509.805 2.33226 2.82845 0
M  V30 5213 H 509.453 1.01678 4.92616 0
M  V30 5214 H 509.153 2.75267 5.19136 0
M  V30 5215 H 510.677 2.01638 5.76346 0
M  V30 5216 H 512.091 3.76966 4.31937 0
M  V30 5217 H 510.488 4.48677 3.98509 0
M  V30 5218 H 511.558 4.07122 2.634 0
M  V30 5219 N 512.901 -0.976442 1.23707 0
M  V30 5220 C 514.178 -1.69296 0.979699 0
M  V30 5221 C 514.558 -2.0508 -0.500555 0
M  V30 5222 O 513.906 -1.74708 -1.47273 0
M  V30 5223 C 514.116 -2.93143 1.89389 0
M  V30 5224 C 515.464 -3.65572 2.15968 0
M  V30 5225 O 516.488 -3.03184 1.86971 0
M  V30 5226 O 515.347 -4.77859 2.65167 0
M  V30 5227 H 512.441 -0.739708 0.369812 0
M  V30 5228 H 514.987 -1.03131 1.34767 0
M  V30 5229 H 513.759 -2.63327 2.89439 0
M  V30 5230 H 513.382 -3.67044 1.52854 0
M  V30 5231 N 514.379 -1.04941 -1.1758 0
M  V30 5232 C 515.628 -0.753124 -1.87112 0
M  V30 5233 C 515.941 0.722507 -1.81767 0
M  V30 5234 O 517.147 1.13265 -2.46746 0
M  V30 5235 C 515.603 -1.29695 -3.35719 0
M  V30 5236 C 515.211 -2.80184 -3.49572 0
M  V30 5237 C 516.955 -1.07759 -4.10595 0
M  V30 5238 C 514.862 -3.2788 -4.92187 0
M  V30 5239 H 513.792 -0.278034 -0.700866 0
M  V30 5240 H 516.443 -1.26637 -1.32798 0
M  V30 5241 H 514.825 -0.711522 -3.89555 0
M  V30 5242 H 515.999 -3.44561 -3.05965 0
M  V30 5243 H 514.314 -3.00632 -2.88113 0
M  V30 5244 H 516.911 -1.40899 -5.15802 0
M  V30 5245 H 517.254 -0.0152302 -4.16297 0
M  V30 5246 H 517.787 -1.62809 -3.62957 0
M  V30 5247 H 514.526 -4.33535 -4.91658 0
M  V30 5248 H 514.046 -2.68245 -5.36475 0
M  V30 5249 H 515.725 -3.22412 -5.60945 0
M  V30 5250 N 515.857 1.33968 -0.830081 0
M  V30 5251 C 516.805 2.31301 -0.245435 0
M  V30 5252 C 517.799 1.57734 0.617762 0
M  V30 5253 O 519.005 1.72674 0.508303 0
M  V30 5254 H 515.38 0.749552 -0.0606316 0
M  V30 5255 H 517.351 2.78129 -1.08105 0
M  V30 5256 C 516.1 3.42961 0.572084 0
M  V30 5257 H 515.423 3.99714 -0.0828118 0
M  V30 5258 H 516.863 4.13286 0.94715 0
M  V30 5259 C 515.322 2.88043 1.74737 0
M  V30 5260 O 515.852 2.83508 2.8458 0
M  V30 5261 N 514.058 2.44768 1.56642 0
M  V30 5262 H 513.605 2.48656 0.672901 0
M  V30 5263 H 513.563 2.08375 2.3543 0
M  V30 5264 N 517.335 0.585699 1.46312 0
M  V30 5265 C 518.563 0.0781299 2.06752 0
M  V30 5266 C 518.978 -1.22812 1.43396 0
M  V30 5267 O 518.335 -1.74318 0.540314 0
M  V30 5268 C 518.386 -0.0911927 3.61385 0
M  V30 5269 O 518.107 1.16336 4.22371 0
M  V30 5270 C 519.608 -0.632765 4.38761 0
M  V30 5271 H 516.828 0.0588188 0.668417 0
M  V30 5272 H 519.372 0.807218 1.87894 0
M  V30 5273 H 517.527 -0.770514 3.7966 0
M  V30 5274 H 517.941 0.979082 5.15281 0
M  V30 5275 H 519.415 -0.70041 5.47538 0
M  V30 5276 H 519.892 -1.65039 4.07012 0
M  V30 5277 H 520.498 0.0117856 4.25298 0
M  V30 5278 N 518.813 -1.54241 0.323641 0
M  V30 5279 C 520.059 -2.00867 -0.279323 0
M  V30 5280 C 520.392 -1.21146 -1.5178 0
M  V30 5281 O 519.667 -0.29378 -1.92269 0
M  V30 5282 C 519.95 -3.54837 -0.613387 0
M  V30 5283 C 519.803 -4.45284 0.635803 0
M  V30 5284 C 521.122 -4.16186 -1.43099 0
M  V30 5285 H 518.241 -0.730177 -0.100049 0
M  V30 5286 H 520.883 -1.84829 0.440235 0
M  V30 5287 H 519.033 -3.68634 -1.22641 0
M  V30 5288 H 520.705 -4.43357 1.27406 0
M  V30 5289 H 518.948 -4.14956 1.26466 0
M  V30 5290 H 519.619 -5.5084 0.357597 0
M  V30 5291 H 522.095 -4.05964 -0.912814 0
M  V30 5292 H 520.971 -5.24031 -1.6335 0
M  V30 5293 H 521.232 -3.69516 -2.42715 0
M  V30 5294 N 520.291 -0.0518155 -1.57515 0
M  V30 5295 C 521.254 0.907547 -2.10467 0
M  V30 5296 C 522.254 1.23947 -1.02439 0
M  V30 5297 O 523.444 1.17604 -1.2851 0
M  V30 5298 C 520.576 2.21723 -2.58944 0
M  V30 5299 H 521.769 0.44851 -2.96527 0
M  V30 5300 H 519.322 0.196598 -1.55059 0
M  V30 5301 H 520.057 2.72206 -1.76279 0
M  V30 5302 H 519.842 1.98935 -3.37886 0
M  V30 5303 H 521.332 2.90441 -3.00056 0
M  V30 5304 N 521.769 1.56035 0.221574 0
M  V30 5305 C 522.732 1.91584 1.2581 0
M  V30 5306 C 523.732 0.794425 1.39805 0
M  V30 5307 O 524.922 1.06217 1.38071 0
M  V30 5308 C 522.054 2.16663 2.63192 0
M  V30 5309 H 523.247 2.8429 0.954935 0
M  V30 5310 H 520.8 1.49316 0.461988 0
M  V30 5311 H 521.535 1.26508 2.98607 0
M  V30 5312 H 521.32 2.98358 2.5441 0
M  V30 5313 H 522.81 2.45262 3.37988 0
M  V30 5314 N 523.247 -0.488276 1.49845 0
M  V30 5315 C 524.495 -1.23911 1.59657 0
M  V30 5316 C 524.816 -1.92816 0.291005 0
M  V30 5317 O 524.086 -1.83328 -0.690485 0
M  V30 5318 H 522.666 -0.460357 0.588286 0
M  V30 5319 H 525.328 -0.564794 1.86537 0
M  V30 5320 H 524.424 -1.99625 2.39909 0
M  V30 5321 N 524.725 -1.39134 -0.740242 0
M  V30 5322 C 525.973 -1.35803 -1.49673 0
M  V30 5323 C 526.294 0.0470897 -1.94943 0
M  V30 5324 O 525.564 0.997347 -1.68611 0
M  V30 5325 H 524.144 -0.499736 -0.555224 0
M  V30 5326 H 526.806 -1.73947 -0.879107 0
M  V30 5327 H 525.902 -2.0174 -2.38133 0
M  V30 5328 N 526.204 0.969867 -1.24223 0
M  V30 5329 C 527.452 1.70918 -1.0785 0
M  V30 5330 C 527.773 1.91186 0.383763 0
M  V30 5331 O 527.043 1.48806 1.27411 0
M  V30 5332 H 525.623 0.633334 -0.396103 0
M  V30 5333 H 528.285 1.16689 -1.56108 0
M  V30 5334 H 527.381 2.69455 -1.57482 0
M  V30 5335 N 527.682 1.05563 1.17022 0
M  V30 5336 C 528.907 0.788437 1.91829 0
M  V30 5337 C 529.332 -0.650356 1.76499 0
M  V30 5338 O 528.69 -1.45229 1.08527 0
M  V30 5339 C 528.738 1.1786 3.40795 0
M  V30 5340 O 527.842 0.312965 4.11211 0
M  V30 5341 H 527.183 0.288794 0.597908 0
M  V30 5342 H 529.713 1.40948 1.48307 0
M  V30 5343 H 529.723 1.14697 3.91546 0
M  V30 5344 H 528.398 2.22666 3.51273 0
M  V30 5345 H 526.975 0.405515 3.70689 0
M  V30 5346 N 529.16 -1.33526 0.837174 0
M  V30 5347 C 530.576 -1.50727 0.524743 0
M  V30 5348 C 530.776 -1.77792 -0.948279 0
M  V30 5349 O 529.832 -1.83719 -1.73216 0
M  V30 5350 C 531.145 -2.66299 1.39661 0
M  V30 5351 C 532.693 -2.80183 1.39521 0
M  V30 5352 C 533.168 -3.98815 2.25189 0
M  V30 5353 N 534.659 -4.06047 2.2289 0
M  V30 5354 C 535.394 -4.97032 2.85915 0
M  V30 5355 N 534.89 -5.93143 3.57985 0
M  V30 5356 N 536.683 -4.90015 2.75394 0
M  V30 5357 H 528.834 -1.1422 1.79074 0
M  V30 5358 H 531.097 -0.561399 0.763894 0
M  V30 5359 H 530.803 -2.52974 2.4433 0
M  V30 5360 H 530.677 -3.61663 1.07145 0
M  V30 5361 H 533.064 -2.92942 0.356253 0
M  V30 5362 H 533.145 -1.85586 1.76044 0
M  V30 5363 H 532.789 -3.86817 3.29143 0
M  V30 5364 H 532.719 -4.92654 1.86009 0
M  V30 5365 H 535.21 -3.37262 1.70478 0
M  V30 5366 H 535.523 -6.59227 4.03286 0
M  V30 5367 H 533.868 -5.93223 3.62093 0
M  V30 5368 H 537.059 -4.13894 2.18654 0
M  V30 5369 H 537.232 -5.60724 3.24796 0
M  V30 5370 N 530.638 -0.59345 -1.46 0
M  V30 5371 C 531.568 0.121192 -2.33185 0
M  V30 5372 C 532.549 0.872977 -1.4599 0
M  V30 5373 O 533.734 0.846321 -1.74789 0
M  V30 5374 C 530.864 1.12844 -3.28456 0
M  V30 5375 C 529.818 0.4908 -4.25177 0
M  V30 5376 C 529.144 1.60529 -5.10034 0
M  V30 5377 C 530.444 -0.578949 -5.19081 0
M  V30 5378 H 532.138 -0.606767 -2.93187 0
M  V30 5379 H 529.684 -0.293242 -1.40983 0
M  V30 5380 H 531.637 1.63684 -3.88311 0
M  V30 5381 H 530.361 1.88681 -2.66584 0
M  V30 5382 H 529.02 0.00339328 -3.666 0
M  V30 5383 H 528.668 2.35359 -4.44539 0
M  V30 5384 H 528.368 1.18422 -5.75543 0
M  V30 5385 H 529.892 2.11623 -5.72755 0
M  V30 5386 H 531.306 -0.155199 -5.7309 0
M  V30 5387 H 529.703 -0.920947 -5.92991 0
M  V30 5388 H 530.773 -1.46109 -4.62364 0
M  V30 5389 N 532.116 1.54067 -0.331816 0
M  V30 5390 C 533.363 2.00715 0.268269 0
M  V30 5391 C 533.691 1.21986 1.51491 0
M  V30 5392 O 532.946 0.292309 1.93505 0
M  V30 5393 C 533.245 3.51634 0.639392 0
M  V30 5394 C 532.911 4.48018 -0.509019 0
M  V30 5395 C 531.573 4.74089 -0.824209 0
M  V30 5396 C 533.925 5.05237 -1.28003 0
M  V30 5397 C 531.253 5.54637 -1.91298 0
M  V30 5398 C 533.605 5.86972 -2.35895 0
M  V30 5399 C 532.269 6.11342 -2.67987 0
M  V30 5400 H 531.539 0.734469 0.0981667 0
M  V30 5401 H 534.186 1.8596 -0.457304 0
M  V30 5402 H 532.491 3.6416 1.44551 0
M  V30 5403 H 534.188 3.85175 1.11539 0
M  V30 5404 H 530.778 4.27851 -0.253287 0
M  V30 5405 H 534.962 4.8507 -1.04978 0
M  V30 5406 H 530.218 5.71747 -2.16599 0
M  V30 5407 H 534.392 6.30327 -2.96076 0
M  V30 5408 H 532.019 6.73544 -3.5248 0
M  V30 5409 N 533.594 0.0601682 1.57485 0
M  V30 5410 C 534.841 -0.611594 1.93043 0
M  V30 5411 C 535.169 -1.70317 0.939274 0
M  V30 5412 O 534.424 -1.95644 -0.046996 0
M  V30 5413 C 534.723 -1.23831 3.35262 0
M  V30 5414 C 534.389 -0.274037 4.50066 0
M  V30 5415 C 533.051 -0.00872394 4.81199 0
M  V30 5416 C 535.403 0.386308 5.19766 0
M  V30 5417 C 532.731 0.924218 5.79375 0
M  V30 5418 C 535.083 1.3075 6.1894 0
M  V30 5419 C 533.747 1.58139 6.48497 0
M  V30 5420 H 533.017 -0.223798 0.706396 0
M  V30 5421 H 535.664 0.128566 1.91068 0
M  V30 5422 H 533.969 -2.05394 3.33647 0
M  V30 5423 H 535.666 -1.76517 3.60059 0
M  V30 5424 H 532.256 -0.491008 4.25778 0
M  V30 5425 H 536.44 0.194436 4.95919 0
M  V30 5426 H 531.696 1.1438 6.00606 0
M  V30 5427 H 535.87 1.82519 6.72056 0
M  V30 5428 H 533.497 2.30593 7.24383 0
M  V30 5429 N 535.072 -1.5615 -0.213296 0
M  V30 5430 C 536.488 -1.49327 -0.56336 0
M  V30 5431 C 536.688 -0.756826 -1.86747 0
M  V30 5432 O 535.744 -0.299866 -2.50713 0
M  V30 5433 C 537.057 -2.9392 -0.634944 0
M  V30 5434 C 538.605 -3.04487 -0.725013 0
M  V30 5435 C 539.08 -4.50456 -0.82787 0
M  V30 5436 N 540.571 -4.54533 -0.891876 0
M  V30 5437 C 541.306 -5.64766 -0.991315 0
M  V30 5438 N 540.802 -6.84733 -1.05419 0
M  V30 5439 N 542.595 -5.52637 -1.02709 0
M  V30 5440 H 534.746 -2.02453 0.642366 0
M  V30 5441 H 537.009 -0.920548 0.226487 0
M  V30 5442 H 536.715 -3.50783 0.253859 0
M  V30 5443 H 536.589 -3.46274 -1.49579 0
M  V30 5444 H 538.976 -2.47685 -1.60425 0
M  V30 5445 H 539.057 -2.55289 0.161669 0
M  V30 5446 H 538.701 -5.07878 0.0469464 0
M  V30 5447 H 538.631 -4.97369 -1.73009 0
M  V30 5448 H 541.122 -3.68141 -0.85327 0
M  V30 5449 H 541.435 -7.64493 -1.13007 0
M  V30 5450 H 539.78 -6.87427 -1.02318 0
M  V30 5451 H 542.971 -4.5784 -0.974687 0
M  V30 5452 H 543.144 -6.38576 -1.10113 0
M  V30 5453 N 536.55 0.480323 -1.50102 0
M  V30 5454 C 537.775 1.26126 -1.64642 0
M  V30 5455 C 538.2 1.85257 -0.325823 0
M  V30 5456 O 537.558 1.66854 0.709194 0
M  V30 5457 C 537.606 2.35243 -2.73301 0
M  V30 5458 O 536.71 3.39646 -2.33911 0
M  V30 5459 H 536.051 0.371463 -0.550374 0
M  V30 5460 H 538.581 0.572696 -1.96421 0
M  V30 5461 H 538.591 2.80695 -2.96098 0
M  V30 5462 H 537.266 1.91574 -3.6915 0
M  V30 5463 H 535.843 2.99969 -2.21525 0
M  V30 5464 N 538.028 1.39524 0.732853 0
M  V30 5465 C 539.276 1.36594 1.48951 0
M  V30 5466 C 539.597 -0.0367507 1.94965 0
M  V30 5467 O 538.867 -0.988391 1.69138 0
M  V30 5468 H 537.447 0.502673 0.552566 0
M  V30 5469 H 540.109 1.74411 0.869869 0
M  V30 5470 H 539.205 2.03 2.3706 0
M  V30 5471 N 539.506 -0.963266 1.24736 0
M  V30 5472 C 540.436 -2.07628 1.06832 0
M  V30 5473 C 541.417 -1.70088 -0.0200566 0
M  V30 5474 O 542.602 -1.93636 0.147854 0
M  V30 5475 C 539.732 -3.40636 0.677069 0
M  V30 5476 C 538.686 -3.9215 1.71471 0
M  V30 5477 C 538.012 -5.21553 1.1784 0
M  V30 5478 C 539.312 -4.19493 3.11164 0
M  V30 5479 H 541.006 -2.22864 1.9993 0
M  V30 5480 H 538.552 -1.07093 0.96266 0
M  V30 5481 H 540.505 -4.17941 0.538792 0
M  V30 5482 H 539.229 -3.25313 -0.289612 0
M  V30 5483 H 537.888 -3.17005 1.84128 0
M  V30 5484 H 537.536 -5.02593 0.202195 0
M  V30 5485 H 537.236 -5.56988 1.87185 0
M  V30 5486 H 538.76 -6.01463 1.05233 0
M  V30 5487 H 540.174 -4.87487 3.01711 0
M  V30 5488 H 538.571 -4.66165 3.77902 0
M  V30 5489 H 539.641 -3.26097 3.58871 0
M  V30 5490 N 540.985 -1.06182 -1.16461 0
M  V30 5491 C 542.232 -0.777863 -1.86964 0
M  V30 5492 C 542.56 0.695602 -1.81636 0
M  V30 5493 O 541.815 1.52532 -1.22607 0
M  V30 5494 C 542.114 -1.21633 -3.36066 0
M  V30 5495 C 541.78 -2.69371 -3.61594 0
M  V30 5496 C 540.442 -3.09727 -3.6827 0
M  V30 5497 C 542.794 -3.64791 -3.7226 0
M  V30 5498 C 540.122 -4.44345 -3.83112 0
M  V30 5499 C 542.474 -4.99155 -3.88623 0
M  V30 5500 C 541.138 -5.39149 -3.93541 0
M  V30 5501 H 540.408 -0.28464 -0.68415 0
M  V30 5502 H 543.055 -1.33071 -1.37711 0
M  V30 5503 H 541.36 -0.582651 -3.87443 0
M  V30 5504 H 543.057 -0.973682 -3.88999 0
M  V30 5505 H 539.647 -2.37124 -3.57029 0
M  V30 5506 H 543.831 -3.34746 -3.66413 0
M  V30 5507 H 539.087 -4.74819 -3.85172 0
M  V30 5508 H 543.261 -5.72976 -3.95817 0
M  V30 5509 H 540.888 -6.43464 -4.04794 0
M  V30 5510 N 542.463 1.3308 -0.844243 0
M  V30 5511 C 543.709 1.97898 -0.443206 0
M  V30 5512 C 544.042 1.66699 0.99625 0
M  V30 5513 O 543.317 0.949704 1.69738 0
M  V30 5514 C 543.6 3.53801 -0.670606 0
M  V30 5515 C 543.453 3.94667 -2.15772 0
M  V30 5516 C 544.772 4.39936 -0.120226 0
M  V30 5517 H 541.891 0.718861 -0.162504 0
M  V30 5518 H 544.533 1.57633 -1.06075 0
M  V30 5519 H 542.683 3.88229 -0.14496 0
M  V30 5520 H 544.355 3.70469 -2.74865 0
M  V30 5521 H 542.598 3.44203 -2.6402 0
M  V30 5522 H 543.269 5.03275 -2.26757 0
M  V30 5523 H 545.745 4.12183 -0.5696 0
M  V30 5524 H 544.621 5.4803 -0.308984 0
M  V30 5525 H 544.882 4.31184 0.976347 0
M  V30 5526 N 543.941 0.601185 1.45683 0
M  V30 5527 C 545.187 0.0940202 2.02582 0
M  V30 5528 C 545.52 -1.26972 1.46941 0
M  V30 5529 O 544.795 -1.83613 0.641612 0
M  V30 5530 C 545.078 0.0481715 3.60068 0
M  V30 5531 C 544.931 1.44212 4.26055 0
M  V30 5532 C 546.25 -0.642975 4.35378 0
M  V30 5533 H 543.369 0.0356404 0.736138 0
M  V30 5534 H 546.011 0.771929 1.73612 0
M  V30 5535 H 544.161 -0.529128 3.8488 0
M  V30 5536 H 545.833 2.06601 4.12449 0
M  V30 5537 H 544.076 2.00465 3.84703 0
M  V30 5538 H 544.747 1.36234 5.34925 0
M  V30 5539 H 547.223 -0.152351 4.15821 0
M  V30 5540 H 546.099 -0.644141 5.45107 0
M  V30 5541 H 546.36 -1.70785 4.0778 0
M  V30 5542 N 545.419 -1.53889 0.339982 0
M  V30 5543 C 546.667 -2.00458 -0.257112 0
M  V30 5544 C 546.988 -1.22953 -1.51353 0
M  V30 5545 O 546.258 -0.335734 -1.93002 0
M  V30 5546 H 544.838 -0.740544 -0.0979965 0
M  V30 5547 H 547.5 -1.89386 0.460317 0
M  V30 5548 H 546.596 -3.08035 -0.502057 0
M  V30 5549 N 546.897 -0.0685191 -1.57451 0
M  V30 5550 C 548.308 0.464634 -1.80826 0
M  V30 5551 C 548.659 1.69847 -0.982169 0
M  V30 5552 O 547.784 2.15439 -0.203734 0
M  V30 5553 C 548.379 0.849721 -3.27971 0
M  V30 5554 C 546.938 1.32776 -3.52204 0
M  V30 5555 C 546.085 0.311332 -2.75547 0
M  V30 5556 H 549.036 -0.294248 -1.55948 0
M  V30 5557 H 549.057 1.71138 -3.39841 0
M  V30 5558 H 548.569 -0.0484736 -3.8807 0
M  V30 5559 H 546.67 2.24456 -2.97406 0
M  V30 5560 H 546.783 1.30794 -4.60901 0
M  V30 5561 H 545.147 0.787915 -2.42206 0
M  V30 5562 H 545.93 -0.579078 -3.38381 0
M  V30 5563 N 548.375 1.56261 0.205012 0
M  V30 5564 C 549.285 1.96944 1.27476 0
M  V30 5565 C 550.301 0.875636 1.50362 0
M  V30 5566 O 551.477 1.18058 1.6317 0
M  V30 5567 C 548.542 2.29219 2.60115 0
M  V30 5568 C 547.603 3.52255 2.45387 0
M  V30 5569 C 546.836 3.8298 3.71701 0
M  V30 5570 O 547.059 3.15138 4.75441 0
M  V30 5571 O 545.993 4.76435 3.67823 0
M  V30 5572 H 549.819 2.88144 0.959527 0
M  V30 5573 H 547.404 1.43686 0.409217 0
M  V30 5574 H 549.286 2.51098 3.3842 0
M  V30 5575 H 547.961 1.4119 2.91285 0
M  V30 5576 H 546.868 3.35635 1.65227 0
M  V30 5577 H 548.201 4.40719 2.19152 0
M  V30 5578 N 549.853 -0.472356 1.50355 0
M  V30 5579 C 551.078 -1.25251 1.65309 0
M  V30 5580 C 551.503 -1.85081 0.335643 0
M  V30 5581 O 550.861 -1.67227 -0.700335 0
M  V30 5582 C 550.909 -2.3379 2.74544 0
M  V30 5583 O 550.013 -3.38401 2.35709 0
M  V30 5584 H 549.354 -0.368539 0.552336 0
M  V30 5585 H 551.884 -0.562271 1.96722 0
M  V30 5586 H 551.894 -2.79121 2.97583 0
M  V30 5587 H 550.569 -1.89614 3.70161 0
M  V30 5588 H 549.146 -2.9879 2.23112 0
M  V30 5589 N 551.331 -1.39911 -0.725443 0
M  V30 5590 C 552.294 -1.39156 -1.82121 0
M  V30 5591 C 553.294 -0.287018 -1.58218 0
M  V30 5592 O 554.484 -0.545421 -1.65441 0
M  V30 5593 C 551.616 -1.1736 -3.20062 0
M  V30 5594 H 552.809 -2.36672 -1.84191 0
M  V30 5595 H 550.362 -1.25615 -0.930079 0
M  V30 5596 H 551.097 -0.205648 -3.23647 0
M  V30 5597 H 550.882 -1.97358 -3.3881 0
M  V30 5598 H 552.372 -1.19596 -4.00108 0
M  V30 5599 N 552.809 0.956637 -1.25245 0
M  V30 5600 C 554.057 1.69764 -1.09657 0
M  V30 5601 C 554.378 1.91583 0.363464 0
M  V30 5602 O 553.648 1.50149 1.25825 0
M  V30 5603 H 552.228 0.629097 -0.402798 0
M  V30 5604 H 554.89 1.15026 -1.57337 0
M  V30 5605 H 553.986 2.67769 -1.60331 0
M  V30 5606 N 554.287 1.06798 1.15896 0
M  V30 5607 C 555.25 0.687328 2.18651 0
M  V30 5608 C 556.25 -0.269559 1.58524 0
M  V30 5609 O 557.44 -0.0512627 1.74125 0
M  V30 5610 C 554.572 0.0121642 3.40898 0
M  V30 5611 H 555.765 1.59701 2.53842 0
M  V30 5612 H 553.318 0.863828 1.3026 0
M  V30 5613 H 554.053 -0.910025 3.1127 0
M  V30 5614 H 553.838 0.700309 3.85795 0
M  V30 5615 H 555.328 -0.239703 4.16911 0
M  V30 5616 N 555.766 -1.3263 0.851289 0
M  V30 5617 C 556.716 -2.26451 0.265302 0
M  V30 5618 C 557.7 -1.49814 -0.586899 0
M  V30 5619 O 558.892 -1.71525 -0.436834 0
M  V30 5620 C 556.021 -3.38895 -0.548212 0
M  V30 5621 C 555.107 -4.2292 0.316189 0
M  V30 5622 N 555.498 -4.86014 1.40084 0
M  V30 5623 C 553.796 -4.45876 0.105356 0
M  V30 5624 C 554.497 -5.48667 1.93235 0
M  V30 5625 N 553.473 -5.29455 1.232 0
M  V30 5626 H 557.275 -2.72757 1.09457 0
M  V30 5627 H 554.789 -1.4668 0.697047 0
M  V30 5628 H 556.786 -4.05111 -0.984402 0
M  V30 5629 H 555.446 -2.94135 -1.37531 0
M  V30 5630 H 556.457 -4.86212 1.78377 0
M  V30 5631 H 553.134 -4.11804 -0.687299 0
M  V30 5632 H 554.524 -6.08865 2.84135 0
M  V30 5633 N 557.244 -0.608902 -1.45362 0
M  V30 5634 C 558.655 -0.189511 -1.85736 0
M  V30 5635 C 559.006 1.2539 -1.50903 0
M  V30 5636 O 558.131 1.95094 -0.936347 0
M  V30 5637 C 558.726 -0.33716 -3.37118 0
M  V30 5638 C 557.285 0.0275487 -3.7639 0
M  V30 5639 C 556.432 -0.660983 -2.69307 0
M  V30 5640 H 559.383 -0.815499 -1.36144 0
M  V30 5641 H 559.404 0.430257 -3.7806 0
M  V30 5642 H 558.916 -1.38779 -3.62439 0
M  V30 5643 H 557.017 1.0773 -3.56686 0
M  V30 5644 H 557.13 -0.367018 -4.77692 0
M  V30 5645 H 555.494 -0.0984958 -2.54509 0
M  V30 5646 H 556.277 -1.71377 -2.97464 0
M  V30 5647 N 558.722 1.53707 -0.348139 0
M  V30 5648 C 559.97 2.00591 0.246478 0
M  V30 5649 C 560.291 1.23753 1.50699 0
M  V30 5650 O 559.561 0.345964 1.92821 0
M  V30 5651 H 558.141 0.741053 0.0940679 0
M  V30 5652 H 560.803 1.89139 -0.470354 0
M  V30 5653 H 559.899 3.08297 0.485714 0
M  V30 5654 N 560.2 0.0768682 1.57412 0
M  V30 5655 C 561.611 -0.455037 1.8107 0
M  V30 5656 C 561.962 -1.69323 0.991162 0
M  V30 5657 O 561.087 -2.15328 0.215156 0
M  V30 5658 C 561.682 -0.832316 3.28417 0
M  V30 5659 C 560.241 -1.30906 3.52903 0
M  V30 5660 C 559.388 -0.296714 2.75708 0
M  V30 5661 H 562.339 0.302514 1.5579 0
M  V30 5662 H 562.36 -1.69333 3.40744 0
M  V30 5663 H 561.872 0.0690532 3.88039 0
M  V30 5664 H 559.973 -2.22875 2.98592 0
M  V30 5665 H 560.086 -1.28348 4.61588 0
M  V30 5666 H 558.45 -0.775059 2.42621 0
M  V30 5667 H 559.233 0.597015 3.38069 0
M  V30 5668 N 561.678 -1.56367 -0.196722 0
M  V30 5669 C 562.641 -1.93561 -1.22746 0
M  V30 5670 C 563.641 -0.816566 -1.38524 0
M  V30 5671 O 564.831 -1.084 -1.36363 0
M  V30 5672 C 561.963 -2.20823 -2.59712 0
M  V30 5673 H 563.156 -2.85774 -0.909586 0
M  V30 5674 H 560.709 -1.50032 -0.438174 0
M  V30 5675 H 561.444 -1.31243 -2.96557 0
M  V30 5676 H 561.229 -3.02368 -2.49632 0
M  V30 5677 H 562.719 -2.50608 -3.34044 0
M  V30 5678 N 563.156 0.464375 -1.50603 0
M  V30 5679 C 564.396 1.22573 -1.6357 0
M  V30 5680 C 564.76 1.89111 -0.331834 0
M  V30 5681 O 565.961 2.66679 -0.336999 0
M  V30 5682 C 564.232 2.23643 -2.7878 0
M  V30 5683 S 565.791 3.08628 -3.1192 0
M  V30 5684 H 562.609 0.416058 -0.576556 0
M  V30 5685 H 565.211 0.521637 -1.88412 0
M  V30 5686 H 563.915 1.73354 -3.7199 0
M  V30 5687 H 563.446 2.98672 -2.56044 0
M  V30 5688 H 565.461 4.24904 -2.56264 0
M  V30 5689 N 564.634 1.40294 0.718013 0
M  V30 5690 C 565.864 1.41544 1.50495 0
M  V30 5691 C 566.272 0.0127877 1.89196 0
M  V30 5692 O 565.615 -0.97305 1.55812 0
M  V30 5693 C 565.677 2.24021 2.81167 0
M  V30 5694 C 565.341 3.72463 2.64803 0
M  V30 5695 C 566.338 4.65154 2.32223 0
M  V30 5696 C 564.023 4.1625 2.81143 0
M  V30 5697 C 566.017 5.99618 2.16189 0
M  V30 5698 C 563.704 5.50784 2.64727 0
M  V30 5699 C 564.702 6.42283 2.32297 0
M  V30 5700 O 564.39 7.74337 2.16004 0
M  V30 5701 H 564.122 0.484819 0.471091 0
M  V30 5702 H 566.676 1.84948 0.893488 0
M  V30 5703 H 564.906 1.75393 3.44636 0
M  V30 5704 H 566.595 2.17243 3.42871 0
M  V30 5705 H 567.361 4.32622 2.19234 0
M  V30 5706 H 563.24 3.45352 3.05373 0
M  V30 5707 H 566.784 6.71 1.90799 0
M  V30 5708 H 562.681 5.82902 2.773 0
M  V30 5709 H 563.449 7.85244 2.30942 0
M  V30 5710 N 566.112 -0.949982 1.2575 0
M  V30 5711 C 567.528 -1.22191 1.02672 0
M  V30 5712 C 567.728 -1.99898 -0.253588 0
M  V30 5713 O 566.784 -2.33329 -0.965076 0
M  V30 5714 C 568.097 -1.99175 2.25277 0
M  V30 5715 C 569.645 -2.12201 2.30087 0
M  V30 5716 C 570.12 -2.92586 3.5236 0
M  V30 5717 N 571.611 -3.00163 3.52784 0
M  V30 5718 C 572.346 -3.62766 4.44059 0
M  V30 5719 N 571.842 -4.26943 5.45611 0
M  V30 5720 N 573.635 -3.59953 4.3173 0
M  V30 5721 H 565.786 -0.430258 2.07996 0
M  V30 5722 H 568.049 -0.252844 0.91366 0
M  V30 5723 H 567.755 -1.49479 3.18354 0
M  V30 5724 H 567.629 -2.99868 2.28821 0
M  V30 5725 H 570.016 -2.61093 1.3753 0
M  V30 5726 H 570.097 -1.10799 2.30559 0
M  V30 5727 H 569.741 -2.44383 4.45241 0
M  V30 5728 H 569.671 -3.94224 3.49134 0
M  V30 5729 H 572.162 -2.54529 2.79327 0
M  V30 5730 H 572.475 -4.72583 6.11461 0
M  V30 5731 H 570.82 -4.25557 5.49478 0
M  V30 5732 H 574.011 -3.09003 3.51617 0
M  V30 5733 H 574.184 -4.08455 5.03059 0
M  V30 5734 N 567.59 -1.07411 -1.15328 0
M  V30 5735 C 568.537 -0.694995 -2.20087 0
M  V30 5736 C 569.507 0.313904 -1.63107 0
M  V30 5737 O 570.692 0.200216 -1.89747 0
M  V30 5738 C 567.832 -0.0996218 -3.44956 0
M  V30 5739 C 566.945 -1.16007 -4.16133 0
M  V30 5740 C 566.08 -0.529636 -5.28553 0
M  V30 5741 C 565.119 -1.57283 -5.91548 0
M  V30 5742 N 564.256 -0.964932 -6.95438 0
M  V30 5743 H 569.096 -1.5927 -2.51867 0
M  V30 5744 H 566.633 -0.796115 -1.23695 0
M  V30 5745 H 568.591 0.263197 -4.16369 0
M  V30 5746 H 567.221 0.761435 -3.13691 0
M  V30 5747 H 566.273 -1.64045 -3.4321 0
M  V30 5748 H 567.585 -1.95101 -4.59061 0
M  V30 5749 H 566.739 -0.114487 -6.06592 0
M  V30 5750 H 565.478 0.29307 -4.86819 0
M  V30 5751 H 564.483 -1.99775 -5.12221 0
M  V30 5752 H 565.708 -2.39783 -6.35359 0
M  V30 5753 H 563.654 -0.16314 -6.55797 0
M  V30 5754 H 563.571 -1.69311 -7.36797 0
M  V30 5755 H 564.839 -0.575305 -7.77374 0
M  V30 5756 N 569.068 1.32177 -0.85831 0
M  V30 5757 C 570.316 1.96735 -0.462568 0
M  V30 5758 C 570.637 1.6824 0.985911 0
M  V30 5759 O 569.907 0.991564 1.68952 0
M  V30 5760 H 568.487 0.727849 -0.168064 0
M  V30 5761 H 571.149 1.61195 -1.09554 0
M  V30 5762 H 570.245 3.06068 -0.610647 0
M  V30 5763 N 570.547 0.616602 1.45037 0
M  V30 5764 C 571.795 0.115103 2.01772 0
M  V30 5765 C 572.116 -1.2622 1.48639 0
M  V30 5766 O 571.386 -1.83563 0.684199 0
M  V30 5767 H 569.966 0.0395607 0.745952 0
M  V30 5768 H 572.628 0.800032 1.77723 0
M  V30 5769 H 571.724 0.0717274 3.12018 0
M  V30 5770 N 572.025 -1.5352 0.356285 0
M  V30 5771 C 573.436 -1.86282 -0.12492 0
M  V30 5772 C 573.787 -1.27717 -1.48939 0
M  V30 5773 O 572.912 -0.595614 -2.08042 0
M  V30 5774 C 573.507 -3.37995 -0.23345 0
M  V30 5775 C 572.066 -3.70588 -0.658899 0
M  V30 5776 C 571.213 -2.76581 0.199596 0
M  V30 5777 H 574.164 -1.47901 0.575423 0
M  V30 5778 H 574.185 -3.65475 -1.0587 0
M  V30 5779 H 573.697 -3.8059 0.759776 0
M  V30 5780 H 571.798 -3.33544 -1.66069 0
M  V30 5781 H 571.911 -4.77076 -0.439957 0
M  V30 5782 H 570.275 -2.52552 -0.330076 0
M  V30 5783 H 571.058 -3.22008 1.19019 0
M  V30 5784 N 573.503 -0.0852151 -1.57369 0
M  V30 5785 C 574.749 0.581666 -1.94279 0
M  V30 5786 C 575.082 1.68444 -0.966446 0
M  V30 5787 O 574.357 1.945 0.00215277 0
M  V30 5788 C 574.64 1.14609 -3.41375 0
M  V30 5789 C 574.493 0.0490414 -4.49773 0
M  V30 5790 C 575.812 2.04751 -3.8957 0
M  V30 5791 H 572.931 0.209972 -0.706456 0
M  V30 5792 H 575.573 -0.153915 -1.89376 0
M  V30 5793 H 573.723 1.77297 -3.45685 0
M  V30 5794 H 575.395 -0.584721 -4.57579 0
M  V30 5795 H 573.638 -0.618638 -4.29366 0
M  V30 5796 H 574.309 0.484601 -5.49869 0
M  V30 5797 H 576.785 1.51981 -3.87351 0
M  V30 5798 H 575.661 2.41173 -4.93079 0
M  V30 5799 H 575.922 2.96107 -3.28288 0
M  V30 5800 N 574.981 1.5647 0.188427 0
M  V30 5801 C 576.209 1.85131 0.923803 0
M  V30 5802 C 576.624 0.668537 1.76567 0
M  V30 5803 O 575.981 -0.362662 1.7886 0
M  V30 5804 C 576.032 3.12661 1.81453 0
M  V30 5805 O 575.753 4.26378 1.00665 0
M  V30 5806 C 577.254 3.54548 2.66103 0
M  V30 5807 H 574.474 0.614624 0.269218 0
M  V30 5808 H 577.018 2.03581 0.193671 0
M  V30 5809 H 575.173 2.96088 2.49821 0
M  V30 5810 H 575.587 4.99041 1.61425 0
M  V30 5811 H 577.061 4.4673 3.24247 0
M  V30 5812 H 577.538 2.77853 3.40139 0
M  V30 5813 H 578.144 3.73674 2.03096 0
M  V30 5814 N 576.459 -0.456382 1.50847 0
M  V30 5815 C 577.705 -1.20914 1.62811 0
M  V30 5816 C 578.038 -1.91301 0.334304 0
M  V30 5817 O 577.313 -1.82775 -0.665098 0
M  V30 5818 C 577.596 -2.24122 2.81853 0
M  V30 5819 C 577.449 -1.57944 4.21158 0
M  V30 5820 C 578.768 -3.25295 2.96431 0
M  V30 5821 H 575.887 -0.438233 0.592554 0
M  V30 5822 H 578.529 -0.50091 1.83278 0
M  V30 5823 H 576.679 -2.84524 2.64534 0
M  V30 5824 H 578.351 -1.01025 4.50102 0
M  V30 5825 H 576.594 -0.882185 4.24735 0
M  V30 5826 H 577.265 -2.33014 5.00408 0
M  V30 5827 H 579.741 -2.7493 3.12335 0
M  V30 5828 H 578.617 -3.94822 3.81322 0
M  V30 5829 H 578.878 -3.90286 2.07676 0
M  V30 5830 N 577.937 -1.40673 -0.710563 0
M  V30 5831 C 579.165 -1.42547 -1.4996 0
M  V30 5832 C 579.58 -0.0265485 -1.88781 0
M  V30 5833 O 578.937 0.950694 -1.55782 0
M  V30 5834 C 578.988 -2.32071 -2.77173 0
M  V30 5835 O 578.709 -3.66518 -2.39992 0
M  V30 5836 C 580.21 -2.42591 -3.71032 0
M  V30 5837 H 577.43 -0.486025 -0.462623 0
M  V30 5838 H 579.974 -1.84783 -0.876102 0
M  V30 5839 H 578.129 -1.93184 -3.35795 0
M  V30 5840 H 578.543 -4.14115 -3.21884 0
M  V30 5841 H 580.017 -3.09429 -4.57119 0
M  V30 5842 H 580.494 -1.4525 -4.14486 0
M  V30 5843 H 581.1 -2.82051 -3.18319 0
M  V30 5844 N 579.415 0.9433 -1.26252 0
M  V30 5845 C 580.692 1.66639 -1.02424 0
M  V30 5846 C 581.072 2.06335 0.446006 0
M  V30 5847 O 580.42 1.78551 1.42589 0
M  V30 5848 C 580.63 2.88019 -1.97094 0
M  V30 5849 C 581.978 3.59718 -2.25584 0
M  V30 5850 O 583.002 2.9812 -1.94943 0
M  V30 5851 O 581.861 4.7066 -2.77743 0
M  V30 5852 H 578.955 0.729643 -0.389294 0
M  V30 5853 H 581.501 0.995218 -1.37454 0
M  V30 5854 H 580.273 2.5556 -2.96319 0
M  V30 5855 H 579.896 3.62863 -1.62532 0
M  V30 5856 N 580.893 1.08022 1.14757 0
M  V30 5857 C 581.856 0.71048 2.1791 0
M  V30 5858 C 582.856 -0.252731 1.58801 0
M  V30 5859 O 584.046 -0.0327915 1.74169 0
M  V30 5860 C 581.178 0.0483203 3.40866 0
M  V30 5861 H 582.371 1.62384 2.52134 0
M  V30 5862 H 579.924 0.877595 1.29337 0
M  V30 5863 H 580.659 -0.876959 3.12218 0
M  V30 5864 H 580.444 0.741189 3.85031 0
M  V30 5865 H 581.934 -0.195471 4.17142 0
M  V30 5866 N 582.371 -1.3172 0.865308 0
M  V30 5867 C 583.319 -2.30569 0.306674 0
M  V30 5868 C 584.313 -1.59317 -0.575724 0
M  V30 5869 O 585.519 -1.73961 -0.462343 0
M  V30 5870 H 581.894 -0.747681 0.0804834 0
M  V30 5871 H 583.865 -2.75165 1.15441 0
M  V30 5872 C 582.614 -3.44358 -0.480952 0
M  V30 5873 H 581.937 -3.99354 0.18876 0
M  V30 5874 H 583.377 -4.15652 -0.837241 0
M  V30 5875 C 581.836 -2.92574 -1.67039 0
M  V30 5876 O 582.366 -2.90954 -2.76964 0
M  V30 5877 N 580.572 -2.48835 -1.50097 0
M  V30 5878 H 580.119 -2.50353 -0.606738 0
M  V30 5879 H 580.077 -2.14543 -2.29823 0
M  V30 5880 N 583.85 -0.624285 -1.44708 0
M  V30 5881 C 584.779 0.0717025 -2.3339 0
M  V30 5882 C 585.76 0.841814 -1.47809 0
M  V30 5883 O 586.946 0.809056 -1.76544 0
M  V30 5884 C 584.076 1.05852 -3.30776 0
M  V30 5885 C 583.029 0.400503 -4.26122 0
M  V30 5886 C 582.356 1.49674 -5.13324 0
M  V30 5887 C 583.656 -0.688924 -5.17737 0
M  V30 5888 H 585.35 -0.668819 -2.91834 0
M  V30 5889 H 582.896 -0.32308 -1.40329 0
M  V30 5890 H 584.849 1.5541 -3.91696 0
M  V30 5891 H 583.572 1.82984 -2.70526 0
M  V30 5892 H 582.231 -0.0743687 -3.66525 0
M  V30 5893 H 581.88 2.25877 -4.49431 0
M  V30 5894 H 581.58 1.06188 -5.77926 0
M  V30 5895 H 583.104 1.99427 -5.77115 0
M  V30 5896 H 584.518 -0.276724 -5.72632 0
M  V30 5897 H 582.915 -1.04652 -5.90904 0
M  V30 5898 H 583.985 -1.55884 -4.5916 0
M  V30 5899 N 585.328 1.53329 -0.364422 0
M  V30 5900 C 586.574 2.01537 0.225969 0
M  V30 5901 C 586.907 1.25128 1.48515 0
M  V30 5902 O 586.182 0.344653 1.91422 0
M  V30 5903 C 586.465 3.56339 0.519092 0
M  V30 5904 C 586.318 4.43441 -0.753639 0
M  V30 5905 C 587.637 4.19833 1.32015 0
M  V30 5906 H 584.756 0.732573 0.0806548 0
M  V30 5907 H 587.398 1.83597 -0.489084 0
M  V30 5908 H 585.548 3.71756 1.12825 0
M  V30 5909 H 587.22 4.39823 -1.39116 0
M  V30 5910 H 585.463 4.11457 -1.37424 0
M  V30 5911 H 586.134 5.49699 -0.503517 0
M  V30 5912 H 588.61 4.08242 0.804859 0
M  V30 5913 H 587.486 5.28177 1.49399 0
M  V30 5914 H 587.747 3.75821 2.32832 0
M  V30 5915 N 586.806 0.0935595 1.57322 0
M  V30 5916 C 587.736 -0.863062 2.16964 0
M  V30 5917 C 588.717 -1.29528 1.10256 0
M  V30 5918 O 589.902 -1.36245 1.38387 0
M  V30 5919 C 587.032 -2.12276 2.74875 0
M  V30 5920 C 585.986 -1.82921 3.86942 0
M  V30 5921 C 585.312 -3.15707 4.31548 0
M  V30 5922 C 586.612 -1.11737 5.10208 0
M  V30 5923 H 588.306 -0.366145 2.97153 0
M  V30 5924 H 585.852 -0.174673 1.42937 0
M  V30 5925 H 587.805 -2.79634 3.1525 0
M  V30 5926 H 586.529 -2.64248 1.91938 0
M  V30 5927 H 585.188 -1.17961 3.47103 0
M  V30 5928 H 584.836 -3.65563 3.45504 0
M  V30 5929 H 584.536 -2.96849 5.07104 0
M  V30 5930 H 586.06 -3.84226 4.74555 0
M  V30 5931 H 587.474 -1.69203 5.47762 0
M  V30 5932 H 585.871 -1.03064 5.91183 0
M  V30 5933 H 586.941 -0.0998818 4.84797 0
M  V30 5934 N 588.284 -1.56567 -0.180126 0
M  V30 5935 C 589.532 -1.81133 -0.896392 0
M  V30 5936 C 589.853 -0.669114 -1.83161 0
M  V30 5937 O 589.123 0.311616 -1.93406 0
M  V30 5938 H 587.703 -0.668172 -0.333999 0
M  V30 5939 H 590.365 -1.94048 -0.182051 0
M  V30 5940 H 589.461 -2.74854 -1.47857 0
M  V30 5941 N 589.762 0.448376 -1.51087 0
M  V30 5942 C 591.178 0.783984 -1.39017 0
M  V30 5943 C 591.378 1.96087 -0.463904 0
M  V30 5944 O 590.434 2.52357 0.0850534 0
M  V30 5945 C 591.747 1.07471 -2.80839 0
M  V30 5946 C 593.295 1.17981 -2.89913 0
M  V30 5947 C 593.77 1.50354 -4.32617 0
M  V30 5948 N 595.261 1.57301 -4.35673 0
M  V30 5949 C 595.996 1.839 -5.4311 0
M  V30 5950 N 595.492 2.08365 -6.60724 0
M  V30 5951 N 597.285 1.8559 -5.30578 0
M  V30 5952 H 589.436 -0.326881 -2.0987 0
M  V30 5953 H 591.699 -0.0838006 -0.944289 0
M  V30 5954 H 591.405 0.282768 -3.50561 0
M  V30 5955 H 591.279 2.00519 -3.19487 0
M  V30 5956 H 593.666 1.9624 -2.20395 0
M  V30 5957 H 593.747 0.228603 -2.54776 0
M  V30 5958 H 593.391 0.726273 -5.0268 0
M  V30 5959 H 593.321 2.46663 -4.65258 0
M  V30 5960 H 595.812 1.40342 -3.50874 0
M  V30 5961 H 596.125 2.27999 -7.38401 0
M  V30 5962 H 594.47 2.0571 -6.63859 0
M  V30 5963 H 597.661 1.65989 -4.37682 0
M  V30 5964 H 597.834 2.05983 -6.1439 0
M  V30 5965 N 591.24 1.41047 0.703093 0
M  V30 5966 C 592.17 1.45067 1.82969 0
M  V30 5967 C 593.151 0.31016 1.67248 0
M  V30 5968 O 594.336 0.520548 1.87093 0
M  V30 5969 C 591.466 1.32478 3.2104 0
M  V30 5970 C 590.42 2.44262 3.51454 0
M  V30 5971 C 589.746 2.16742 4.88801 0
M  V30 5972 C 591.046 3.86606 3.51189 0
M  V30 5973 H 592.74 2.39353 1.79863 0
M  V30 5974 H 590.286 1.15206 0.863919 0
M  V30 5975 H 592.239 1.33904 3.99559 0
M  V30 5976 H 590.963 0.346735 3.24754 0
M  V30 5977 H 589.622 2.42107 2.75282 0
M  V30 5978 H 589.27 1.17299 4.89132 0
M  V30 5979 H 588.97 2.91643 5.10116 0
M  V30 5980 H 590.494 2.19872 5.69639 0
M  V30 5981 H 591.908 3.90517 4.19725 0
M  V30 5982 H 590.305 4.61128 3.84033 0
M  V30 5983 H 591.375 4.15296 2.50315 0
M  V30 5984 N 592.718 -0.936591 1.26751 0
M  V30 5985 C 593.648 -2.05315 1.11212 0
M  V30 5986 C 594.629 -1.70092 0.0160262 0
M  V30 5987 O 595.814 -1.93279 0.188894 0
M  V30 5988 C 592.944 -3.39123 0.749171 0
M  V30 5989 C 591.898 -3.88425 1.79751 0
M  V30 5990 C 591.224 -5.18936 1.28876 0
M  V30 5991 C 592.524 -4.12798 3.19992 0
M  V30 5992 H 594.218 -2.18573 2.04613 0
M  V30 5993 H 591.764 -1.05027 0.985159 0
M  V30 5994 H 593.717 -4.16704 0.627323 0
M  V30 5995 H 592.441 -3.25855 -0.220543 0
M  V30 5996 H 591.1 -3.13028 1.90811 0
M  V30 5997 H 590.748 -5.02051 0.308757 0
M  V30 5998 H 590.448 -5.52892 1.98958 0
M  V30 5999 H 591.972 -5.99096 1.17967 0
M  V30 6000 H 593.386 -4.80977 3.11983 0
M  V30 6001 H 591.783 -4.58044 3.87705 0
M  V30 6002 H 592.853 -3.18412 3.65707 0
M  V30 6003 N 594.196 -1.08629 -1.14182 0
M  V30 6004 C 595.607 -0.838003 -1.66836 0
M  V30 6005 C 595.958 0.634885 -1.85644 0
M  V30 6006 O 595.083 1.49008 -1.56926 0
M  V30 6007 C 595.678 -1.51465 -3.03058 0
M  V30 6008 C 594.237 -1.31355 -3.52736 0
M  V30 6009 C 593.384 -1.57599 -2.28162 0
M  V30 6010 H 596.335 -1.24656 -0.982165 0
M  V30 6011 H 596.356 -0.943134 -3.68626 0
M  V30 6012 H 595.868 -2.58661 -2.89337 0
M  V30 6013 H 593.969 -0.262384 -3.71675 0
M  V30 6014 H 594.082 -2.04275 -4.33369 0
M  V30 6015 H 592.446 -0.997659 -2.34348 0
M  V30 6016 H 593.229 -2.66006 -2.17015 0
M  V30 6017 N 595.674 1.31259 -0.872281 0
M  V30 6018 C 596.637 2.26744 -0.334656 0
M  V30 6019 C 597.637 1.52307 0.515681 0
M  V30 6020 O 598.827 1.71148 0.324656 0
M  V30 6021 C 595.959 3.36841 0.524482 0
M  V30 6022 H 597.152 2.75812 -1.17762 0
M  V30 6023 H 594.705 1.42232 -0.648064 0
M  V30 6024 H 595.44 2.93069 1.38855 0
M  V30 6025 H 595.225 3.92009 -0.0844299 0
M  V30 6026 H 596.715 4.07944 0.892838 0
M  V30 6027 N 597.152 0.631951 1.44375 0
M  V30 6028 C 598.377 0.142146 2.06912 0
M  V30 6029 C 598.802 -1.17456 1.4692 0
M  V30 6030 O 598.16 -1.72074 0.570975 0
M  V30 6031 C 598.208 0.0417952 3.60576 0
M  V30 6032 O 597.312 -1.00194 4.00044 0
M  V30 6033 H 596.653 0.0851491 0.658518 0
M  V30 6034 H 599.183 0.868863 1.85235 0
M  V30 6035 H 599.193 -0.148517 4.0773 0
M  V30 6036 H 597.868 1.0031 4.03622 0
M  V30 6037 H 596.445 -0.786131 3.64519 0
M  V30 6038 N 598.631 -1.53133 0.372548 0
M  V30 6039 C 599.878 -2.01356 -0.214959 0
M  V30 6040 C 600.206 -1.2596 -1.48204 0
M  V30 6041 O 599.461 -0.343511 -1.92662 0
M  V30 6042 C 599.76 -3.53206 -0.545938 0
M  V30 6043 C 599.426 -4.46511 0.627624 0
M  V30 6044 C 598.088 -4.71737 0.949615 0
M  V30 6045 C 600.44 -5.01666 1.41353 0
M  V30 6046 C 597.768 -5.4937 2.05936 0
M  V30 6047 C 600.12 -5.80511 2.51375 0
M  V30 6048 C 598.784 -6.04022 2.84101 0
M  V30 6049 H 598.054 -0.736813 -0.078659 0
M  V30 6050 H 600.701 -1.84682 0.506447 0
M  V30 6051 H 599.006 -3.67864 -1.34845 0
M  V30 6052 H 600.703 -3.87997 -1.01287 0
M  V30 6053 H 597.293 -4.27029 0.366635 0
M  V30 6054 H 601.477 -4.82117 1.17802 0
M  V30 6055 H 596.733 -5.65803 2.31682 0
M  V30 6056 H 600.907 -6.22255 3.12684 0
M  V30 6057 H 598.534 -6.63962 3.70214 0
M  V30 6058 N 600.109 -0.101901 -1.5727 0
M  V30 6059 C 601.52 0.426173 -1.81771 0
M  V30 6060 C 601.871 1.67725 -1.01797 0
M  V30 6061 O 600.996 2.14958 -0.249386 0
M  V30 6062 C 601.591 0.779962 -3.297 0
M  V30 6063 C 600.15 1.25275 -3.54941 0
M  V30 6064 C 599.297 0.252814 -2.76145 0
M  V30 6065 H 602.248 -0.32726 -1.55289 0
M  V30 6066 H 602.269 1.63891 -3.43395 0
M  V30 6067 H 601.781 -0.130778 -3.8788 0
M  V30 6068 H 599.882 2.18097 -3.021 0
M  V30 6069 H 599.995 1.20988 -4.63572 0
M  V30 6070 H 598.359 0.736362 -2.43823 0
M  V30 6071 H 599.142 -0.650724 -3.37076 0
M  V30 6072 N 601.587 1.56661 0.17182 0
M  V30 6073 C 602.827 1.83762 0.895029 0
M  V30 6074 C 603.191 0.682752 1.79451 0
M  V30 6075 O 604.392 0.834208 2.55528 0
M  V30 6076 C 602.663 3.15976 1.67015 0
M  V30 6077 S 604.222 3.64558 2.44219 0
M  V30 6078 H 601.04 0.644713 0.299778 0
M  V30 6079 H 603.642 1.94871 0.156701 0
M  V30 6080 H 602.346 3.98021 1.00039 0
M  V30 6081 H 601.877 3.07807 2.44986 0
M  V30 6082 H 603.892 3.31845 3.68909 0
M  V30 6083 N 603.065 -0.440357 1.51323 0
M  V30 6084 C 604.314 -1.18697 1.63076 0
M  V30 6085 C 604.627 -1.92418 0.35136 0
M  V30 6086 O 605.833 -2.69258 0.348221 0
M  V30 6087 C 604.289 -2.15849 2.87988 0
M  V30 6088 C 603.897 -1.47789 4.22921 0
M  V30 6089 C 605.641 -2.90962 3.09098 0
M  V30 6090 C 603.548 -2.43407 5.38987 0
M  V30 6091 H 602.478 -0.44676 0.607389 0
M  V30 6092 H 605.129 -0.454313 1.77787 0
M  V30 6093 H 603.511 -2.92537 2.66905 0
M  V30 6094 H 604.685 -0.7668 4.54375 0
M  V30 6095 H 603 -0.848404 4.07665 0
M  V30 6096 H 605.597 -3.62584 3.92985 0
M  V30 6097 H 605.94 -3.52133 2.22053 0
M  V30 6098 H 606.473 -2.21381 3.30507 0
M  V30 6099 H 603.212 -1.86929 6.28282 0
M  V30 6100 H 602.732 -3.12579 5.11913 0
M  V30 6101 H 604.411 -3.046 5.70813 0
M  V30 6102 N 604.543 -1.41418 -0.695603 0
M  V30 6103 C 605.79 -1.40774 -1.45564 0
M  V30 6104 C 606.118 -0.0168604 -1.94493 0
M  V30 6105 O 605.373 0.971259 -1.69897 0
M  V30 6106 C 605.672 -2.36112 -2.68302 0
M  V30 6107 C 605.338 -3.82952 -2.38031 0
M  V30 6108 C 604 -4.22954 -2.29486 0
M  V30 6109 C 606.352 -4.75662 -2.13061 0
M  V30 6110 C 603.68 -5.53674 -1.94067 0
M  V30 6111 C 606.032 -6.06702 -1.79151 0
M  V30 6112 C 604.696 -6.45725 -1.69102 0
M  V30 6113 H 603.966 -0.515128 -0.532658 0
M  V30 6114 H 606.613 -1.74216 -0.795047 0
M  V30 6115 H 604.918 -1.95924 -3.39295 0
M  V30 6116 H 606.615 -2.32887 -3.26442 0
M  V30 6117 H 603.205 -3.5127 -2.45576 0
M  V30 6118 H 607.389 -4.45561 -2.18608 0
M  V30 6119 H 602.645 -5.8279 -1.8484 0
M  V30 6120 H 606.819 -6.78041 -1.5885 0
M  V30 6121 H 604.446 -7.46929 -1.41426 0
M  V30 6122 N 606.021 0.929856 -1.27246 0
M  V30 6123 C 607.269 1.674 -1.13233 0
M  V30 6124 C 607.59 1.92311 0.322744 0
M  V30 6125 O 606.86 1.52784 1.22612 0
M  V30 6126 H 605.44 0.620411 -0.416052 0
M  V30 6127 H 608.102 1.11663 -1.59741 0
M  V30 6128 H 607.198 2.64308 -1.65975 0
M  V30 6129 N 607.499 1.09233 1.13605 0
M  V30 6130 C 608.91 0.846839 1.6639 0
M  V30 6131 C 609.261 -0.625031 1.85978 0
M  V30 6132 O 608.386 -1.48173 1.57714 0
M  V30 6133 C 608.981 1.5307 3.0225 0
M  V30 6134 C 607.54 1.33223 3.52035 0
M  V30 6135 C 606.687 1.58806 2.27323 0
M  V30 6136 H 609.638 1.25175 0.975541 0
M  V30 6137 H 609.659 0.96267 3.68121 0
M  V30 6138 H 609.171 2.60192 2.87961 0
M  V30 6139 H 607.272 0.282091 3.71531 0
M  V30 6140 H 607.385 2.0657 4.32279 0
M  V30 6141 H 605.749 1.01007 2.33815 0
M  V30 6142 H 606.532 2.67153 2.15602 0
M  V30 6143 N 608.977 -1.30795 0.87923 0
M  V30 6144 C 610.225 -1.95974 0.493809 0
M  V30 6145 C 610.546 -1.69787 -0.959021 0
M  V30 6146 O 609.816 -1.01832 -1.67353 0
M  V30 6147 H 608.396 -0.725083 0.179622 0
M  V30 6148 H 611.058 -1.59432 1.12105 0
M  V30 6149 H 610.154 -3.05058 0.659263 0
M  V30 6150 N 610.455 -0.639598 -1.44038 0
M  V30 6151 C 611.365 0.0612377 -2.3452 0
M  V30 6152 C 612.381 0.826717 -1.53106 0
M  V30 6153 O 613.557 0.777059 -1.85806 0
M  V30 6154 C 610.622 1.02492 -3.31204 0
M  V30 6155 C 609.683 0.25788 -4.28525 0
M  V30 6156 C 608.916 1.17566 -5.2059 0
M  V30 6157 O 609.139 2.41461 -5.16771 0
M  V30 6158 O 608.073 0.655407 -5.98321 0
M  V30 6159 H 611.899 -0.68318 -2.95916 0
M  V30 6160 H 609.484 -0.399784 -1.43952 0
M  V30 6161 H 611.366 1.57911 -3.90694 0
M  V30 6162 H 610.041 1.7498 -2.7233 0
M  V30 6163 H 608.948 -0.339566 -3.72556 0
M  V30 6164 H 610.281 -0.427154 -4.90343 0
M  V30 6165 N 611.933 1.52934 -0.380664 0
M  V30 6166 C 612.881 2.27727 0.47361 0
M  V30 6167 C 613.875 1.31288 1.0705 0
M  V30 6168 O 615.081 1.4886 1.01197 0
M  V30 6169 H 611.456 0.732189 0.171475 0
M  V30 6170 H 613.427 2.97864 -0.178785 0
M  V30 6171 C 612.176 3.0904 1.59341 0
M  V30 6172 H 611.499 3.831 1.14343 0
M  V30 6173 H 612.939 3.64527 2.16555 0
M  V30 6174 C 611.398 2.20813 2.54447 0
M  V30 6175 O 611.928 1.82907 3.57642 0
M  V30 6176 N 610.134 1.85145 2.23986 0
M  V30 6177 H 609.681 2.16169 1.40103 0
M  V30 6178 H 609.639 1.26402 2.87871 0
M  V30 6179 N 613.412 0.11024 1.57214 0
M  V30 6180 C 614.344 -0.873497 2.11902 0
M  V30 6181 C 615.357 -1.23588 1.05971 0
M  V30 6182 O 616.546 -1.18636 1.33371 0
M  V30 6183 C 613.646 -2.17805 2.59643 0
M  V30 6184 C 612.819 -1.98869 3.89576 0
M  V30 6185 C 611.878 -3.12974 4.23006 0
M  V30 6186 O 610.904 -2.86272 4.91973 0
M  V30 6187 N 612.106 -4.39167 3.79622 0
M  V30 6188 H 614.871 -0.406317 2.96933 0
M  V30 6189 H 612.432 -0.074437 1.61729 0
M  V30 6190 H 614.424 -2.93117 2.79042 0
M  V30 6191 H 612.994 -2.55899 1.7954 0
M  V30 6192 H 612.214 -1.078 3.79174 0
M  V30 6193 H 613.502 -1.83512 4.74553 0
M  V30 6194 H 612.9 -4.63739 3.2398 0
M  V30 6195 H 611.457 -5.11379 4.04147 0
M  V30 6196 N 614.89 -1.56749 -0.16351 0
M  V30 6197 C 616.301 -1.72039 -0.725216 0
M  V30 6198 C 616.652 -0.72202 -1.82432 0
M  V30 6199 O 615.777 0.114942 -2.16095 0
M  V30 6200 C 616.372 -3.11932 -1.32227 0
M  V30 6201 C 614.931 -3.28879 -1.83072 0
M  V30 6202 C 614.078 -2.67984 -0.712716 0
M  V30 6203 H 617.029 -1.58579 0.0619772 0
M  V30 6204 H 617.05 -3.11015 -2.19202 0
M  V30 6205 H 616.562 -3.84572 -0.522103 0
M  V30 6206 H 614.663 -2.61209 -2.65708 0
M  V30 6207 H 614.776 -4.36688 -1.97079 0
M  V30 6208 H 613.14 -2.28005 -1.13515 0
M  V30 6209 H 613.923 -3.43216 0.0757361 0
M  V30 6210 N 616.368 0.432326 -1.51554 0
M  V30 6211 C 617.298 1.53242 -1.76179 0
M  V30 6212 C 618.279 1.58717 -0.611801 0
M  V30 6213 O 619.464 1.74364 -0.855033 0
M  V30 6214 C 616.594 2.91278 -1.89141 0
M  V30 6215 C 615.548 3.00663 -3.04608 0
M  V30 6216 C 614.874 4.40728 -3.02759 0
M  V30 6217 C 616.174 2.74281 -4.44485 0
M  V30 6218 H 617.868 1.32886 -2.68294 0
M  V30 6219 H 615.414 0.637841 -1.29103 0
M  V30 6220 H 617.367 3.68203 -2.04951 0
M  V30 6221 H 616.091 3.12877 -0.936785 0
M  V30 6222 H 614.75 2.26179 -2.88511 0
M  V30 6223 H 614.398 4.59301 -2.05065 0
M  V30 6224 H 614.098 4.47936 -3.80299 0
M  V30 6225 H 615.622 5.19619 -3.20669 0
M  V30 6226 H 617.036 3.40936 -4.60907 0
M  V30 6227 H 615.433 2.92893 -5.23769 0
M  V30 6228 H 616.503 1.69856 -4.54177 0
M  V30 6229 N 617.846 1.41785 0.688094 0
M  V30 6230 C 619.071 1.45117 1.48175 0
M  V30 6231 C 619.496 0.060129 1.88004 0
M  V30 6232 O 618.854 -0.938385 1.55126 0
M  V30 6233 C 618.902 2.37224 2.71583 0
M  V30 6234 O 618.006 1.83443 3.69354 0
M  V30 6235 H 617.347 0.492208 0.445676 0
M  V30 6236 H 619.877 1.86329 0.845145 0
M  V30 6237 H 619.887 2.53353 3.19806 0
M  V30 6238 H 618.562 3.38293 2.41931 0
M  V30 6239 H 617.139 1.76802 3.28322 0
M  V30 6240 N 619.324 -0.923095 1.27737 0
M  V30 6241 C 620.735 -1.48626 1.12993 0
M  V30 6242 C 621.086 -1.94142 -0.283439 0
M  V30 6243 O 620.211 -1.81605 -1.17681 0
M  V30 6244 C 620.806 -2.70117 2.04505 0
M  V30 6245 C 619.365 -3.22642 1.93853 0
M  V30 6246 C 618.512 -1.95368 1.96791 0
M  V30 6247 H 621.463 -0.736737 1.40563 0
M  V30 6248 H 621.484 -3.4506 1.60356 0
M  V30 6249 H 620.996 -2.36959 3.07363 0
M  V30 6250 H 619.097 -3.60549 0.939968 0
M  V30 6251 H 619.21 -3.88525 2.80331 0
M  V30 6252 H 617.574 -2.12061 1.41076 0
M  V30 6253 H 618.357 -1.64517 3.01312 0
M  V30 6254 N 620.802 -1.09834 -1.13024 0
M  V30 6255 C 621.712 -0.753731 -2.22162 0
M  V30 6256 C 622.728 0.246105 -1.72251 0
M  V30 6257 O 623.904 0.0864051 -2.01215 0
M  V30 6258 C 620.969 -0.183958 -3.46212 0
M  V30 6259 C 620.03 -1.24028 -4.10993 0
M  V30 6260 C 619.263 -0.697597 -5.29121 0
M  V30 6261 O 619.486 0.478092 -5.68393 0
M  V30 6262 O 618.42 -1.4546 -5.84059 0
M  V30 6263 H 622.246 -1.66456 -2.5402 0
M  V30 6264 H 619.831 -0.873026 -1.21238 0
M  V30 6265 H 621.713 0.130257 -4.21199 0
M  V30 6266 H 620.388 0.699823 -3.16045 0
M  V30 6267 H 619.295 -1.60725 -3.37814 0
M  V30 6268 H 620.628 -2.09685 -4.45301 0
M  V30 6269 N 622.28 1.30327 -0.886154 0
M  V30 6270 C 623.243 2.26376 -0.358687 0
M  V30 6271 C 624.243 1.52845 0.499498 0
M  V30 6272 O 625.433 1.71483 0.306485 0
M  V30 6273 C 622.565 3.37379 0.488726 0
M  V30 6274 H 623.758 2.74547 -1.20681 0
M  V30 6275 H 621.311 1.41536 -0.663113 0
M  V30 6276 H 622.046 2.94526 1.35739 0
M  V30 6277 H 621.831 3.91897 -0.126003 0
M  V30 6278 H 623.321 4.08868 0.84952 0
M  V30 6279 N 623.758 0.647228 1.43697 0
M  V30 6280 C 624.983 0.164083 2.0675 0
M  V30 6281 C 625.408 -1.15892 1.48158 0
M  V30 6282 O 624.766 -1.71459 0.589194 0
M  V30 6283 C 624.814 0.0800368 3.60511 0
M  V30 6284 O 623.918 -0.959453 4.01084 0
M  V30 6285 H 623.259 0.0921288 0.657578 0
M  V30 6286 H 625.789 0.88846 1.84303 0
M  V30 6287 H 625.799 -0.105263 4.07864 0
M  V30 6288 H 624.474 1.04586 4.02535 0
M  V30 6289 H 623.051 -0.747425 3.65333 0
M  V30 6290 N 625.236 -1.5273 0.388769 0
M  V30 6291 C 626.652 -1.59553 0.0387049 0
M  V30 6292 C 626.852 -1.40278 -1.44652 0
M  V30 6293 O 625.908 -1.21951 -2.21098 0
M  V30 6294 C 627.221 -2.9625 0.515409 0
M  V30 6295 C 628.769 -3.09426 0.471621 0
M  V30 6296 C 629.244 -4.48572 0.924505 0
M  V30 6297 N 630.735 -4.54754 0.880496 0
M  V30 6298 C 631.47 -5.60653 1.20234 0
M  V30 6299 N 630.966 -6.74198 1.59463 0
M  V30 6300 N 632.759 -5.50755 1.12363 0
M  V30 6301 H 624.91 -1.63508 1.35569 0
M  V30 6302 H 627.173 -0.768097 0.555636 0
M  V30 6303 H 626.879 -3.15569 1.5527 0
M  V30 6304 H 626.753 -3.77102 -0.085792 0
M  V30 6305 H 629.14 -2.89804 -0.556588 0
M  V30 6306 H 629.221 -2.30528 1.10862 0
M  V30 6307 H 628.865 -4.68936 1.95094 0
M  V30 6308 H 628.795 -5.25935 0.264524 0
M  V30 6309 H 631.286 -3.73237 0.591815 0
M  V30 6310 H 631.599 -7.5097 1.82385 0
M  V30 6311 H 629.944 -6.75531 1.63349 0
M  V30 6312 H 633.135 -4.6093 0.816169 0
M  V30 6313 H 633.308 -6.33184 1.37777 0
M  V30 6314 N 626.714 -0.118576 -1.57153 0
M  V30 6315 C 627.661 0.831789 -2.1529 0
M  V30 6316 C 628.631 1.26385 -1.07778 0
M  V30 6317 O 629.816 1.34144 -1.35684 0
M  V30 6318 C 626.956 2.07664 -2.75626 0
M  V30 6319 C 626.069 1.69298 -3.97444 0
M  V30 6320 C 625.204 2.88747 -4.45868 0
M  V30 6321 C 624.243 2.46619 -5.60219 0
M  V30 6322 N 623.38 3.5898 -6.03389 0
M  V30 6323 H 628.22 0.329183 -2.96176 0
M  V30 6324 H 625.757 0.150792 -1.46325 0
M  V30 6325 H 627.715 2.80601 -3.08738 0
M  V30 6326 H 626.345 2.55384 -1.97431 0
M  V30 6327 H 625.397 0.862374 -3.70496 0
M  V30 6328 H 626.709 1.34338 -4.80369 0
M  V30 6329 H 625.863 3.69909 -4.80887 0
M  V30 6330 H 624.602 3.26933 -3.61892 0
M  V30 6331 H 623.607 1.63889 -5.24805 0
M  V30 6332 H 624.832 2.0955 -6.45961 0
M  V30 6333 H 622.778 3.9684 -5.22354 0
M  V30 6334 H 622.695 3.27942 -6.81168 0
M  V30 6335 H 623.963 4.40583 -6.43045 0
M  V30 6336 N 628.193 1.56834 0.155195 0
M  V30 6337 C 629.156 1.96748 1.17571 0
M  V30 6338 C 630.156 0.853006 1.3631 0
M  V30 6339 O 631.346 1.11978 1.33441 0
M  V30 6340 C 628.478 2.27631 2.53765 0
M  V30 6341 H 629.671 2.88085 0.833498 0
M  V30 6342 H 627.224 1.51141 0.398242 0
M  V30 6343 H 627.959 1.39059 2.92973 0
M  V30 6344 H 627.744 3.0888 2.41527 0
M  V30 6345 H 629.234 2.59377 3.27282 0
M  V30 6346 N 629.671 -0.424282 1.51781 0
M  V30 6347 C 630.601 -1.52305 1.7699 0
M  V30 6348 C 631.582 -1.5839 0.620209 0
M  V30 6349 O 632.767 -1.73908 0.864268 0
M  V30 6350 C 629.897 -2.90271 1.90683 0
M  V30 6351 C 628.851 -2.99043 3.06198 0
M  V30 6352 C 628.177 -4.39116 3.05092 0
M  V30 6353 C 629.477 -2.7192 4.45934 0
M  V30 6354 H 631.171 -1.31461 2.68995 0
M  V30 6355 H 628.717 -0.630985 1.29439 0
M  V30 6356 H 630.67 -3.6711 2.06901 0
M  V30 6357 H 629.394 -3.12376 0.953365 0
M  V30 6358 H 628.053 -2.24646 2.89706 0
M  V30 6359 H 627.701 -4.58207 2.07498 0
M  V30 6360 H 627.401 -4.45912 3.82669 0
M  V30 6361 H 628.925 -5.17911 3.2342 0
M  V30 6362 H 630.339 -3.38487 4.62709 0
M  V30 6363 H 628.736 -2.90111 5.25315 0
M  V30 6364 H 629.806 -1.67445 4.55072 0
M  V30 6365 N 631.149 -1.42148 -0.680565 0
M  V30 6366 C 632.059 -1.47565 -1.82378 0
M  V30 6367 C 633.075 -0.36489 -1.70131 0
M  V30 6368 O 634.251 -0.614916 -1.91783 0
M  V30 6369 C 631.316 -1.37013 -3.18478 0
M  V30 6370 C 630.377 -2.58532 -3.42724 0
M  V30 6371 C 629.61 -2.48473 -4.72331 0
M  V30 6372 O 629.833 -1.51745 -5.49845 0
M  V30 6373 O 628.767 -3.38503 -4.97694 0
M  V30 6374 H 632.593 -2.44045 -1.80764 0
M  V30 6375 H 630.178 -1.23849 -0.835569 0
M  V30 6376 H 632.06 -1.33468 -3.99705 0
M  V30 6377 H 630.735 -0.436552 -3.20743 0
M  V30 6378 H 629.642 -2.67652 -2.61368 0
M  V30 6379 H 630.975 -3.50769 -3.45286 0
M  V30 6380 N 632.627 0.916307 -1.28225 0
M  V30 6381 C 633.59 1.99996 -1.11957 0
M  V30 6382 C 634.59 1.60688 -0.0600152 0
M  V30 6383 O 635.78 1.71499 -0.30558 0
M  V30 6384 C 632.912 3.33458 -0.708411 0
M  V30 6385 H 634.105 2.15858 -2.08196 0
M  V30 6386 H 631.658 1.09863 -1.11175 0
M  V30 6387 H 632.393 3.23297 0.254859 0
M  V30 6388 H 632.178 3.63349 -1.47377 0
M  V30 6389 H 633.668 4.13014 -0.617164 0
M  V30 6390 N 634.105 1.10431 1.1244 0
M  V30 6391 C 635.351 0.847972 1.84221 0
M  V30 6392 C 635.684 -0.624903 1.83871 0
M  V30 6393 O 634.959 -1.46074 1.28423 0
M  V30 6394 C 635.242 1.39695 3.319 0
M  V30 6395 C 635.095 2.93668 3.40704 0
M  V30 6396 C 636.414 1.03924 4.27654 0
M  V30 6397 H 633.533 0.309502 0.668863 0
M  V30 6398 H 636.175 1.36745 1.31912 0
M  V30 6399 H 634.325 0.955095 3.76577 0
M  V30 6400 H 635.997 3.46379 3.04662 0
M  V30 6401 H 634.24 3.30272 2.81252 0
M  V30 6402 H 634.911 3.27162 4.446 0
M  V30 6403 H 637.387 1.42049 3.91102 0
M  V30 6404 H 636.263 1.45027 5.29394 0
M  V30 6405 H 636.524 -0.051336 4.4207 0
M  V30 6406 N 635.583 -1.29855 0.893053 0
M  V30 6407 C 636.546 -2.26183 0.370687 0
M  V30 6408 C 637.546 -1.53108 -0.491385 0
M  V30 6409 O 638.736 -1.71643 -0.297386 0
M  V30 6410 C 635.868 -3.37633 -0.470827 0
M  V30 6411 H 637.061 -2.73903 1.22135 0
M  V30 6412 H 634.614 -1.41183 0.67061 0
M  V30 6413 H 635.349 -2.95241 -1.34175 0
M  V30 6414 H 635.134 -3.91825 0.146784 0
M  V30 6415 H 636.624 -4.09313 -0.827825 0
M  V30 6416 N 637.061 -0.65484 -1.43351 0
M  V30 6417 C 638.289 -0.176685 -2.06144 0
M  V30 6418 C 638.704 1.15831 -1.49093 0
M  V30 6419 O 638.061 1.71542 -0.622868 0
M  V30 6420 C 638.112 -0.0813326 -3.61408 0
M  V30 6421 O 637.833 -1.36355 -4.1634 0
M  V30 6422 C 639.334 0.422706 -4.4128 0
M  V30 6423 H 636.554 -0.0906429 -0.66485 0
M  V30 6424 H 639.098 -0.895945 -1.83829 0
M  V30 6425 H 637.253 0.588496 -3.82904 0
M  V30 6426 H 637.667 -1.22381 -5.10023 0
M  V30 6427 H 639.141 0.438375 -5.50257 0
M  V30 6428 H 639.618 1.45432 -4.14423 0
M  V30 6429 H 640.224 -0.214687 -4.24758 0
M  V30 6430 N 638.539 1.52521 -0.396863 0
M  V30 6431 C 639.449 2.30403 0.44178 0
M  V30 6432 C 640.465 1.37625 1.06468 0
M  V30 6433 O 641.641 1.70697 1.06886 0
M  V30 6434 C 638.706 3.1013 1.54986 0
M  V30 6435 C 637.767 4.18628 0.951279 0
M  V30 6436 C 637 4.94543 2.00655 0
M  V30 6437 O 637.223 4.70629 3.22281 0
M  V30 6438 O 636.157 5.797 1.61962 0
M  V30 6439 H 639.983 3.03087 -0.192892 0
M  V30 6440 H 637.568 1.48537 -0.16038 0
M  V30 6441 H 639.45 3.59816 2.19341 0
M  V30 6442 H 638.125 2.40251 2.16935 0
M  V30 6443 H 637.032 3.73119 0.270773 0
M  V30 6444 H 638.365 4.90763 0.375887 0
M  V30 6445 N 640.017 0.126909 1.57088 0
M  V30 6446 C 641.263 -0.529952 1.95753 0
M  V30 6447 C 641.596 -1.65823 1.01077 0
M  V30 6448 O 640.871 -1.94437 0.0494162 0
M  V30 6449 C 641.154 -1.05517 3.44294 0
M  V30 6450 C 641.007 0.0702253 4.49745 0
M  V30 6451 C 642.326 -1.9435 3.94862 0
M  V30 6452 H 639.445 -0.191168 0.711775 0
M  V30 6453 H 642.087 0.204071 1.88901 0
M  V30 6454 H 640.237 -1.68069 3.50264 0
M  V30 6455 H 641.909 0.705834 4.55868 0
M  V30 6456 H 640.152 0.732259 4.27575 0
M  V30 6457 H 640.823 -0.338642 5.5096 0
M  V30 6458 H 643.299 -1.41658 3.91244 0
M  V30 6459 H 642.175 -2.28015 4.993 0
M  V30 6460 H 642.436 -2.87299 3.36024 0
M  V30 6461 N 641.495 -1.56914 -0.146875 0
M  V30 6462 C 642.443 -1.99224 -1.20053 0
M  V30 6463 C 643.437 -0.884661 -1.44465 0
M  V30 6464 O 644.643 -1.06984 -1.44756 0
M  V30 6465 H 641.018 -0.634191 -0.404112 0
M  V30 6466 H 642.989 -2.86998 -0.816987 0
M  V30 6467 C 641.738 -2.38899 -2.52632 0
M  V30 6468 H 641.061 -3.23677 -2.34677 0
M  V30 6469 H 642.501 -2.72326 -3.24984 0
M  V30 6470 C 640.96 -1.2417 -3.13183 0
M  V30 6471 O 641.49 -0.542503 -3.9802 0
M  V30 6472 N 639.696 -1.00592 -2.72635 0
M  V30 6473 H 639.243 -1.57627 -2.03744 0
M  V30 6474 H 639.201 -0.240174 -3.13481 0
M  V30 6475 N 642.974 0.416227 -1.52004 0
M  V30 6476 C 644.199 1.19029 -1.69843 0
M  V30 6477 C 644.624 1.83708 -0.404103 0
M  V30 6478 O 643.982 1.69711 0.637787 0
M  V30 6479 C 644.03 2.23439 -2.83032 0
M  V30 6480 O 643.134 3.29419 -2.48106 0
M  V30 6481 H 642.475 0.347785 -0.565634 0
M  V30 6482 H 645.005 0.488871 -1.98674 0
M  V30 6483 H 645.015 2.67884 -3.07737 0
M  V30 6484 H 643.69 1.75745 -3.76944 0
M  V30 6485 H 642.267 2.90303 -2.34048 0
M  V30 6486 N 644.452 1.42507 0.673017 0
M  V30 6487 C 645.699 1.43072 1.43306 0
M  V30 6488 C 646.027 0.0478004 1.94441 0
M  V30 6489 O 645.282 -0.944106 1.71421 0
M  V30 6490 C 645.581 2.40351 2.64511 0
M  V30 6491 C 645.247 3.8669 2.31908 0
M  V30 6492 C 643.909 4.26551 2.22728 0
M  V30 6493 C 646.261 4.78991 2.05467 0
M  V30 6494 C 643.589 5.56691 1.85234 0
M  V30 6495 C 645.941 6.09476 1.69477 0
M  V30 6496 C 644.605 6.48334 1.58808 0
M  V30 6497 H 643.875 0.523536 0.524395 0
M  V30 6498 H 646.522 1.75459 0.76723 0
M  V30 6499 H 644.827 2.01297 3.36135 0
M  V30 6500 H 646.524 2.38051 3.22696 0
M  V30 6501 H 643.114 3.55132 2.39956 0
M  V30 6502 H 647.298 4.48982 2.11492 0
M  V30 6503 H 642.554 5.85657 1.75545 0
M  V30 6504 H 646.728 6.80482 1.48043 0
M  V30 6505 H 644.355 7.49084 1.29525 0
M  V30 6506 N 645.93 -0.909495 1.28709 0
M  V30 6507 C 646.86 -2.0291 1.15542 0
M  V30 6508 C 647.841 -1.7002 0.0521017 0
M  V30 6509 O 649.026 -1.92835 0.229849 0
M  V30 6510 C 646.156 -3.37458 0.820935 0
M  V30 6511 C 645.11 -3.84524 1.87949 0
M  V30 6512 C 644.436 -5.16086 1.39854 0
M  V30 6513 C 645.736 -4.05918 3.28676 0
M  V30 6514 H 647.43 -2.14183 2.09203 0
M  V30 6515 H 644.976 -1.02913 1.00722 0
M  V30 6516 H 646.929 -4.1528 0.715571 0
M  V30 6517 H 645.653 -3.26249 -0.151374 0
M  V30 6518 H 644.312 -3.08911 1.97408 0
M  V30 6519 H 643.96 -5.01284 0.41518 0
M  V30 6520 H 643.66 -5.48547 2.1064 0
M  V30 6521 H 645.184 -5.96459 1.30649 0
M  V30 6522 H 646.598 -4.74252 3.22115 0
M  V30 6523 H 644.995 -4.49717 3.97334 0
M  V30 6524 H 646.065 -3.10583 3.72379 0
M  V30 6525 N 647.408 -1.11026 -1.11852 0
M  V30 6526 C 648.636 -0.878818 -1.87308 0
M  V30 6527 C 649.051 0.57111 -1.79955 0
M  V30 6528 O 648.408 1.39409 -1.17777 0
M  V30 6529 C 648.459 -1.3264 -3.36287 0
M  V30 6530 O 648.18 -2.71948 -3.43476 0
M  V30 6531 C 649.681 -1.12974 -4.28663 0
M  V30 6532 H 646.901 -0.315015 -0.592458 0
M  V30 6533 H 649.445 -1.47649 -1.41492 0
M  V30 6534 H 647.6 -0.772269 -3.79625 0
M  V30 6535 H 648.014 -2.91241 -4.3621 0
M  V30 6536 H 649.488 -1.49198 -5.31454 0
M  V30 6537 H 649.965 -0.0689127 -4.39146 0
M  V30 6538 H 650.571 -1.67064 -3.91113 0
M  V30 6539 N 648.886 1.2938 -0.899927 0
M  V30 6540 C 649.834 2.29675 -0.367698 0
M  V30 6541 C 650.828 1.60787 0.533282 0
M  V30 6542 O 652.034 1.75126 0.416058 0
M  V30 6543 H 648.409 0.745284 -0.100279 0
M  V30 6544 H 650.38 2.72008 -1.22696 0
M  V30 6545 C 649.129 3.45512 0.389483 0
M  V30 6546 H 648.452 3.98713 -0.294575 0
M  V30 6547 H 649.892 4.17725 0.726744 0
M  V30 6548 C 648.351 2.969 1.59223 0
M  V30 6549 O 648.881 2.98195 2.69152 0
M  V30 6550 N 647.087 2.52728 1.43447 0
M  V30 6551 H 646.634 2.51873 0.540148 0
M  V30 6552 H 646.592 2.20561 2.24054 0
M  V30 6553 N 650.364 0.662433 1.43002 0
M  V30 6554 C 651.612 0.179237 2.01304 0
M  V30 6555 C 651.933 -1.21428 1.52579 0
M  V30 6556 O 651.203 -1.81294 0.742252 0
M  V30 6557 H 649.783 0.0632725 0.744316 0
M  V30 6558 H 652.445 0.856169 1.75088 0
M  V30 6559 H 651.541 0.170957 3.11631 0
M  V30 6560 N 651.842 -1.52309 0.404946 0
M  V30 6561 C 653.253 -1.86585 -0.0655926 0
M  V30 6562 C 653.604 -1.3239 -1.44801 0
M  V30 6563 O 652.729 -0.6615 -2.06042 0
M  V30 6564 C 653.324 -3.38566 -0.125801 0
M  V30 6565 C 651.883 -3.72497 -0.540666 0
M  V30 6566 C 651.03 -2.75806 0.287487 0
M  V30 6567 H 653.981 -1.45995 0.622185 0
M  V30 6568 H 654.002 -3.68658 -0.941888 0
M  V30 6569 H 653.514 -3.77981 0.880473 0
M  V30 6570 H 651.615 -3.38659 -1.55373 0
M  V30 6571 H 651.728 -4.78234 -0.287956 0
M  V30 6572 H 650.092 -2.53474 -0.249561 0
M  V30 6573 H 650.875 -3.18059 1.29203 0
M  V30 6574 N 653.32 -0.135238 -1.57019 0
M  V30 6575 C 654.56 0.521686 -1.9763 0
M  V30 6576 C 654.924 1.62804 -1.01778 0
M  V30 6577 O 656.125 2.345 -1.31389 0
M  V30 6578 C 654.396 1.0257 -3.42365 0
M  V30 6579 S 655.955 1.68888 -4.04997 0
M  V30 6580 H 652.773 0.169064 -0.690607 0
M  V30 6581 H 655.375 -0.224168 -1.94211 0
M  V30 6582 H 654.079 0.209556 -4.09865 0
M  V30 6583 H 653.61 1.80645 -3.49472 0
M  V30 6584 H 655.625 2.97554 -3.97084 0
M  V30 6585 N 654.798 1.5699 0.138552 0
M  V30 6586 C 656.209 1.73171 0.697754 0
M  V30 6587 C 656.56 0.750952 1.8126 0
M  V30 6588 O 655.685 -0.080549 2.1625 0
M  V30 6589 C 656.28 3.13996 1.27248 0
M  V30 6590 C 654.839 3.3175 1.77816 0
M  V30 6591 C 653.986 2.69084 0.669991 0
M  V30 6592 H 656.937 1.5846 -0.0871979 0
M  V30 6593 H 656.958 3.14463 2.14227 0
M  V30 6594 H 656.47 3.85354 0.460855 0
M  V30 6595 H 654.571 2.65403 2.61519 0
M  V30 6596 H 654.684 4.39768 1.90107 0
M  V30 6597 H 653.048 2.29782 1.09874 0
M  V30 6598 H 653.831 3.43053 -0.130329 0
M  V30 6599 N 656.276 -0.40816 1.52223 0
M  V30 6600 C 657.239 -1.48 1.7501 0
M  V30 6601 C 658.239 -1.48367 0.619996 0
M  V30 6602 O 659.429 -1.49874 0.887881 0
M  V30 6603 C 656.561 -2.87403 1.83336 0
M  V30 6604 H 657.754 -1.29086 2.70697 0
M  V30 6605 H 655.307 -0.638715 1.42654 0
M  V30 6606 H 656.042 -3.11686 0.895677 0
M  V30 6607 H 655.827 -2.8854 2.65494 0
M  V30 6608 H 657.317 -3.65103 2.02705 0
M  V30 6609 N 657.755 -1.42862 -0.66545 0
M  V30 6610 C 658.98 -1.47456 -1.45848 0
M  V30 6611 C 659.405 -0.0900312 -1.87884 0
M  V30 6612 O 658.763 0.913587 -1.56599 0
M  V30 6613 C 658.811 -2.41514 -2.67774 0
M  V30 6614 O 657.915 -1.89296 -3.66389 0
M  V30 6615 H 657.256 -0.499236 -0.437789 0
M  V30 6616 H 659.786 -1.8765 -0.815394 0
M  V30 6617 H 659.796 -2.58409 -3.15735 0
M  V30 6618 H 658.471 -3.42099 -2.36519 0
M  V30 6619 H 657.048 -1.82003 -3.25468 0
M  V30 6620 N 659.233 0.902656 -1.29189 0
M  V30 6621 C 660.644 1.46809 -1.15343 0
M  V30 6622 C 660.995 1.94568 0.252517 0
M  V30 6623 O 660.12 1.83454 1.14777 0
M  V30 6624 C 660.715 2.66829 -2.08776 0
M  V30 6625 C 659.274 3.19518 -1.98961 0
M  V30 6626 C 658.421 1.92212 -1.99874 0
M  V30 6627 H 661.372 0.714282 -1.41717 0
M  V30 6628 H 661.393 3.42465 -1.65826 0
M  V30 6629 H 660.905 2.32039 -3.11094 0
M  V30 6630 H 659.006 3.59008 -0.99721 0
M  V30 6631 H 659.119 3.84016 -2.86477 0
M  V30 6632 H 657.483 2.0979 -1.44431 0
M  V30 6633 H 658.266 1.59702 -3.03891 0
M  V30 6634 N 660.711 1.11618 1.11262 0
M  V30 6635 C 661.641 0.79846 2.19424 0
M  V30 6636 C 662.622 -0.234003 1.68483 0
M  V30 6637 O 663.807 -0.0970704 1.93957 0
M  V30 6638 C 660.937 0.242892 3.4645 0
M  V30 6639 C 659.891 1.20744 4.10615 0
M  V30 6640 C 659.217 0.512494 5.32238 0
M  V30 6641 C 660.517 2.55884 4.55325 0
M  V30 6642 H 662.211 1.70286 2.46258 0
M  V30 6643 H 659.757 0.820195 1.18359 0
M  V30 6644 H 661.71 0.00840447 4.21399 0
M  V30 6645 H 660.434 -0.696811 3.1908 0
M  V30 6646 H 659.093 1.42759 3.37662 0
M  V30 6647 H 658.741 -0.432075 5.01141 0
M  V30 6648 H 658.441 1.15583 5.7612 0
M  V30 6649 H 659.965 0.286842 6.09926 0
M  V30 6650 H 661.379 2.37946 5.21588 0
M  V30 6651 H 659.776 3.16216 5.10027 0
M  V30 6652 H 660.846 3.14968 3.68678 0
M  V30 6653 N 662.189 -1.289 0.906776 0
M  V30 6654 C 663.414 -1.99939 0.551303 0
M  V30 6655 C 663.839 -1.67366 -0.858496 0
M  V30 6656 O 663.197 -0.902176 -1.57259 0
M  V30 6657 C 663.245 -3.52523 0.758937 0
M  V30 6658 O 662.349 -4.11983 -0.185308 0
M  V30 6659 H 661.69 -0.628376 0.214568 0
M  V30 6660 H 664.22 -1.64225 1.2203 0
M  V30 6661 H 664.23 -4.02522 0.666329 0
M  V30 6662 H 662.905 -3.75566 1.78671 0
M  V30 6663 H 661.482 -3.72873 -0.0445577 0
M  V30 6664 N 663.667 -0.670007 -1.42649 0
M  V30 6665 C 664.597 -0.00258501 -2.335 0
M  V30 6666 C 665.578 0.794364 -1.50412 0
M  V30 6667 O 666.763 0.75248 -1.79029 0
M  V30 6668 C 663.893 0.952748 -3.33976 0
M  V30 6669 C 662.847 0.264733 -4.2718 0
M  V30 6670 C 662.173 1.33267 -5.17826 0
M  V30 6671 C 663.473 -0.853289 -5.15283 0
M  V30 6672 H 665.167 -0.761326 -2.89559 0
M  V30 6673 H 662.713 -0.367561 -1.3923 0
M  V30 6674 H 664.666 1.4287 -3.96442 0
M  V30 6675 H 663.39 1.74285 -2.7621 0
M  V30 6676 H 662.049 -0.190938 -3.66102 0
M  V30 6677 H 661.697 2.11464 -4.5639 0
M  V30 6678 H 661.397 0.877476 -5.81011 0
M  V30 6679 H 662.921 1.80965 -5.83167 0
M  V30 6680 H 664.335 -0.458763 -5.71462 0
M  V30 6681 H 662.732 -1.23398 -5.87276 0
M  V30 6682 H 663.802 -1.70412 -4.53969 0
M  V30 6683 N 665.145 1.52092 -0.413018 0
M  V30 6684 C 666.055 2.30858 0.417318 0
M  V30 6685 C 667.071 1.38746 1.05003 0
M  V30 6686 O 668.247 1.71821 1.05069 0
M  V30 6687 C 665.312 3.11756 1.51687 0
M  V30 6688 C 664.373 4.19613 0.906825 0
M  V30 6689 C 663.606 4.96644 1.95399 0
M  V30 6690 O 663.829 4.7402 3.17271 0
M  V30 6691 O 662.763 5.81385 1.55805 0
M  V30 6692 H 666.589 3.02865 -0.225028 0
M  V30 6693 H 664.174 1.48358 -0.176126 0
M  V30 6694 H 666.056 3.62122 2.15512 0
M  V30 6695 H 664.731 2.42539 2.14375 0
M  V30 6696 H 663.638 3.73385 0.231183 0
M  V30 6697 H 664.971 4.91134 0.323814 0
M  V30 6698 N 666.623 0.143563 1.56945 0
M  V30 6699 C 667.533 -0.810562 2.20152 0
M  V30 6700 C 668.549 -1.27431 1.1848 0
M  V30 6701 O 669.725 -1.33221 1.51044 0
M  V30 6702 C 666.79 -2.03353 2.80799 0
M  V30 6703 C 665.851 -1.61936 3.97587 0
M  V30 6704 C 665.084 -2.78403 4.55332 0
M  V30 6705 O 665.307 -3.94521 4.11958 0
M  V30 6706 O 664.241 -2.54073 5.45647 0
M  V30 6707 H 668.067 -0.30253 3.02189 0
M  V30 6708 H 665.652 -0.0832925 1.49168 0
M  V30 6709 H 667.534 -2.74932 3.19359 0
M  V30 6710 H 666.209 -2.53116 2.01777 0
M  V30 6711 H 665.116 -0.873904 3.6375 0
M  V30 6712 H 666.449 -1.16892 4.78118 0
M  V30 6713 N 668.101 -1.57061 -0.130224 0
M  V30 6714 C 669.347 -1.8453 -0.841216 0
M  V30 6715 C 669.68 -0.727666 -1.80052 0
M  V30 6716 O 668.955 0.267419 -1.92653 0
M  V30 6717 C 669.238 -3.22553 -1.60099 0
M  V30 6718 C 669.091 -4.44901 -0.662048 0
M  V30 6719 C 670.41 -3.58003 -2.55973 0
M  V30 6720 H 667.529 -0.671215 -0.304366 0
M  V30 6721 H 670.171 -1.89705 -0.105821 0
M  V30 6722 H 668.321 -3.18272 -2.22789 0
M  V30 6723 H 669.993 -4.61278 -0.0448559 0
M  V30 6724 H 668.236 -4.33791 0.0272253 0
M  V30 6725 H 668.907 -5.3812 -1.23006 0
M  V30 6726 H 671.383 -3.63002 -2.03393 0
M  V30 6727 H 670.259 -4.55576 -3.06172 0
M  V30 6728 H 670.52 -2.84833 -3.38116 0
M  V30 6729 N 669.579 0.400081 -1.52437 0
M  V30 6730 C 670.542 1.4707 -1.75793 0
M  V30 6731 C 671.542 1.48036 -0.627856 0
M  V30 6732 O 672.732 1.49401 -0.895817 0
M  V30 6733 C 669.864 2.86427 -1.84858 0
M  V30 6734 H 671.057 1.27649 -2.71377 0
M  V30 6735 H 668.61 0.631141 -1.42991 0
M  V30 6736 H 669.345 3.11207 -0.912194 0
M  V30 6737 H 669.13 2.87128 -2.6702 0
M  V30 6738 H 670.62 3.64023 -2.04638 0
M  V30 6739 N 671.057 1.43213 0.657864 0
M  V30 6740 C 671.99 1.42456 1.78273 0
M  V30 6741 C 672.968 0.286598 1.60054 0
M  V30 6742 O 674.152 0.479467 1.823 0
M  V30 6743 C 671.279 1.23169 3.15511 0
M  V30 6744 C 670.325 2.40181 3.52442 0
M  V30 6745 S 671.158 4.02729 3.52944 0
M  V30 6746 C 672.314 3.85816 4.92846 0
M  V30 6747 H 672.547 2.37642 1.78644 0
M  V30 6748 H 670.08 1.30188 0.830084 0
M  V30 6749 H 672.038 1.12728 3.94719 0
M  V30 6750 H 670.699 0.295398 3.12708 0
M  V30 6751 H 669.892 2.22478 4.52239 0
M  V30 6752 H 669.494 2.47224 2.80636 0
M  V30 6753 H 671.786 3.47853 5.81381 0
M  V30 6754 H 672.729 4.85348 5.15599 0
M  V30 6755 H 673.137 3.18361 4.66162 0
M  V30 6756 N 672.536 -0.895792 1.29666 0
M  V30 6757 C 673.784 -1.64339 1.17631 0
M  V30 6758 C 674.105 -1.93099 -0.271643 0
M  V30 6759 O 673.375 -1.55981 -1.18518 0
M  V30 6760 H 671.955 -0.609162 0.432354 0
M  V30 6761 H 674.617 -1.07389 1.62646 0
M  V30 6762 H 673.713 -2.59815 1.72924 0
M  V30 6763 N 674.014 -1.12206 -1.10668 0
M  V30 6764 C 675.261 -0.875875 -1.82578 0
M  V30 6765 C 675.589 0.598342 -1.85068 0
M  V30 6766 O 674.844 1.45818 -1.3052 0
M  V30 6767 C 675.143 -1.39276 -3.29146 0
M  V30 6768 C 674.809 -2.8816 -3.46806 0
M  V30 6769 C 673.471 -3.28813 -3.51334 0
M  V30 6770 C 675.823 -3.8401 -3.52399 0
M  V30 6771 C 673.151 -4.64028 -3.59019 0
M  V30 6772 C 675.503 -5.19053 -3.61617 0
M  V30 6773 C 674.167 -5.59252 -3.64408 0
M  V30 6774 H 673.437 -0.320505 -0.6681 0
M  V30 6775 H 676.084 -1.40184 -1.30464 0
M  V30 6776 H 674.389 -0.787207 -3.8381 0
M  V30 6777 H 676.086 -1.17851 -3.83291 0
M  V30 6778 H 672.676 -2.55716 -3.43958 0
M  V30 6779 H 676.86 -3.53698 -3.48154 0
M  V30 6780 H 672.116 -4.94568 -3.59461 0
M  V30 6781 H 676.29 -5.93152 -3.64889 0
M  V30 6782 H 673.917 -6.64017 -3.70116 0
M  V30 6783 N 675.492 1.28418 -0.913599 0
M  V30 6784 C 676.738 1.9527 -0.547484 0
M  V30 6785 C 677.071 1.71745 0.906486 0
M  V30 6786 O 676.346 1.03834 1.64465 0
M  V30 6787 C 676.629 3.49748 -0.857205 0
M  V30 6788 C 676.482 3.82675 -2.3639 0
M  V30 6789 C 677.801 4.3868 -0.353258 0
M  V30 6790 H 674.92 0.709236 -0.200381 0
M  V30 6791 H 677.562 1.51789 -1.14281 0
M  V30 6792 H 675.712 3.86915 -0.350548 0
M  V30 6793 H 677.384 3.55378 -2.94116 0
M  V30 6794 H 675.627 3.29724 -2.81894 0
M  V30 6795 H 676.298 4.90547 -2.53115 0
M  V30 6796 H 678.774 4.08584 -0.787288 0
M  V30 6797 H 677.65 5.45621 -0.599049 0
M  V30 6798 H 677.911 4.35753 0.746413 0
M  V30 6799 N 676.97 0.677563 1.42291 0
M  V30 6800 C 678.386 0.347376 1.55774 0
M  V30 6801 C 678.586 -1.14703 1.65667 0
M  V30 6802 O 677.642 -1.93252 1.62512 0
M  V30 6803 C 678.955 1.08011 2.80631 0
M  V30 6804 C 680.503 1.06271 2.94407 0
M  V30 6805 C 680.978 1.77683 4.22129 0
M  V30 6806 N 682.469 1.74564 4.29047 0
M  V30 6807 C 683.204 2.26673 5.26694 0
M  V30 6808 N 682.7 2.87176 6.30477 0
M  V30 6809 N 684.493 2.17032 5.18511 0
M  V30 6810 H 676.644 1.64703 1.34114 0
M  V30 6811 H 678.907 0.694038 0.645768 0
M  V30 6812 H 678.613 2.13518 2.79469 0
M  V30 6813 H 678.487 0.647115 3.71608 0
M  V30 6814 H 680.874 0.0159658 2.95096 0
M  V30 6815 H 680.955 1.53461 2.04654 0
M  V30 6816 H 680.599 2.82327 4.22201 0
M  V30 6817 H 680.529 1.2794 5.10822 0
M  V30 6818 H 683.02 1.30436 3.54676 0
M  V30 6819 H 683.333 3.24551 7.01346 0
M  V30 6820 H 681.678 2.91247 6.31031 0
M  V30 6821 H 684.869 1.69451 4.36353 0
M  V30 6822 H 685.042 2.57948 5.94446 0
M  V30 6823 N 678.448 -1.51871 0.421078 0
M  V30 6824 C 679.694 -2.02237 -0.151014 0
M  V30 6825 C 680.027 -1.30554 -1.43768 0
M  V30 6826 O 679.302 -0.41546 -1.90011 0
M  V30 6827 C 679.585 -3.5802 -0.386482 0
M  V30 6828 C 679.438 -4.40339 0.9177 0
M  V30 6829 C 680.757 -4.24444 -1.16342 0
M  V30 6830 H 677.876 -0.735062 -0.0534102 0
M  V30 6831 H 680.518 -1.81656 0.556888 0
M  V30 6832 H 678.668 -3.75688 -0.989494 0
M  V30 6833 H 680.34 -4.34357 1.55344 0
M  V30 6834 H 678.583 -4.06073 1.526 0
M  V30 6835 H 679.254 -5.47451 0.707187 0
M  V30 6836 H 681.73 -4.10948 -0.652788 0
M  V30 6837 H 680.606 -5.33358 -1.29693 0
M  V30 6838 H 680.867 -3.84204 -2.18724 0
M  V30 6839 N 679.926 -0.151884 -1.56866 0
M  V30 6840 C 680.889 0.771861 -2.15812 0
M  V30 6841 C 681.889 1.17181 -1.10115 0
M  V30 6842 O 683.079 1.09194 -1.35729 0
M  V30 6843 C 680.211 2.04806 -2.7252 0
M  V30 6844 H 681.404 0.259021 -2.98779 0
M  V30 6845 H 678.957 0.097588 -1.55995 0
M  V30 6846 H 679.692 2.60445 -1.93233 0
M  V30 6847 H 679.477 1.77044 -3.49854 0
M  V30 6848 H 680.967 2.70771 -3.1792 0
M  V30 6849 N 681.404 1.57128 0.121893 0
M  V30 6850 C 682.352 2.01109 1.16868 0
M  V30 6851 C 683.346 0.907532 1.43039 0
M  V30 6852 O 684.552 1.09274 1.43036 0
M  V30 6853 H 680.927 0.640539 0.393971 0
M  V30 6854 H 682.898 2.88261 0.771224 0
M  V30 6855 C 681.647 2.42887 2.48799 0
M  V30 6856 H 680.97 3.2737 2.29498 0
M  V30 6857 H 682.41 2.77461 3.20611 0
M  V30 6858 C 680.869 1.29137 3.11168 0
M  V30 6859 O 681.399 0.605756 3.97106 0
M  V30 6860 N 679.605 1.04916 2.71 0
M  V30 6861 H 679.152 1.60848 2.01211 0
M  V30 6862 H 679.11 0.290016 3.1306 0
M  V30 6863 N 682.882 -0.391992 1.52647 0
M  V30 6864 C 683.792 -1.503 1.80131 0
M  V30 6865 C 684.808 -1.59825 0.687882 0
M  V30 6866 O 685.984 -1.76218 0.975149 0
M  V30 6867 C 683.049 -2.85863 1.96171 0
M  V30 6868 C 682.11 -2.86084 3.20085 0
M  V30 6869 C 681.343 -4.15181 3.35351 0
M  V30 6870 O 681.566 -5.09981 2.55491 0
M  V30 6871 O 680.5 -4.22603 4.28591 0
M  V30 6872 H 684.326 -1.30007 2.74466 0
M  V30 6873 H 681.911 -0.579539 1.37701 0
M  V30 6874 H 683.793 -3.66236 2.08445 0
M  V30 6875 H 682.468 -3.06189 1.05025 0
M  V30 6876 H 681.375 -2.04504 3.13256 0
M  V30 6877 H 682.708 -2.7071 4.11068 0
M  V30 6878 N 684.36 -1.4356 -0.65026 0
M  V30 6879 C 685.323 -1.48615 -1.74489 0
M  V30 6880 C 686.323 -0.370483 -1.56474 0
M  V30 6881 O 687.513 -0.632351 -1.62317 0
M  V30 6882 C 684.645 -1.34161 -3.13391 0
M  V30 6883 H 685.838 -2.46103 -1.71387 0
M  V30 6884 H 683.391 -1.30369 -0.862186 0
M  V30 6885 H 684.126 -0.376918 -3.22102 0
M  V30 6886 H 683.911 -2.1504 -3.27872 0
M  V30 6887 H 685.401 -1.40637 -3.93206 0
M  V30 6888 N 685.838 0.888903 -1.30139 0
M  V30 6889 C 686.771 1.99655 -1.10514 0
M  V30 6890 C 687.749 1.62594 -0.0138934 0
M  V30 6891 O 688.933 1.87762 -0.166689 0
M  V30 6892 C 686.06 3.31708 -0.684655 0
M  V30 6893 C 685.106 3.87755 -1.77619 0
M  V30 6894 S 685.939 4.15532 -3.37777 0
M  V30 6895 C 687.095 5.5061 -2.97622 0
M  V30 6896 H 687.328 2.15996 -2.04287 0
M  V30 6897 H 684.861 1.03682 -1.14409 0
M  V30 6898 H 686.819 4.08039 -0.448782 0
M  V30 6899 H 685.48 3.1323 0.233648 0
M  V30 6900 H 684.673 4.83164 -1.43417 0
M  V30 6901 H 684.275 3.18149 -1.96614 0
M  V30 6902 H 686.567 6.31518 -2.45338 0
M  V30 6903 H 687.51 5.89747 -3.91924 0
M  V30 6904 H 687.918 5.12983 -2.35603 0
M  V30 6905 N 687.317 1.12792 1.10072 0
M  V30 6906 C 688.557 0.895691 1.8373 0
M  V30 6907 C 688.921 -0.568131 1.83402 0
M  V30 6908 O 690.122 -0.917666 2.52651 0
M  V30 6909 C 688.393 1.4593 3.2625 0
M  V30 6910 S 689.952 1.36615 4.16991 0
M  V30 6911 H 686.77 0.323017 0.633389 0
M  V30 6912 H 689.372 1.43816 1.32428 0
M  V30 6913 H 688.076 2.51818 3.24062 0
M  V30 6914 H 687.607 0.914478 3.82624 0
M  V30 6915 H 689.622 0.340131 4.95033 0
M  V30 6916 N 688.795 -1.27931 0.920396 0
M  V30 6917 C 690.211 -1.47085 0.619537 0
M  V30 6918 C 690.411 -1.83463 -0.833291 0
M  V30 6919 O 689.467 -1.94363 -1.61181 0
M  V30 6920 C 690.78 -2.56878 1.56314 0
M  V30 6921 C 692.328 -2.70743 1.57058 0
M  V30 6922 C 692.803 -3.83687 2.50097 0
M  V30 6923 N 694.294 -3.9105 2.48262 0
M  V30 6924 C 695.029 -4.77842 3.16945 0
M  V30 6925 N 694.525 -5.69176 3.94982 0
M  V30 6926 N 696.318 -4.71509 3.06 0
M  V30 6927 H 688.469 -1.02601 1.85975 0
M  V30 6928 H 690.732 -0.511682 0.798051 0
M  V30 6929 H 690.438 -2.36923 2.59923 0
M  V30 6930 H 690.312 -3.54117 1.29928 0
M  V30 6931 H 692.699 -2.90083 0.541832 0
M  V30 6932 H 692.78 -1.74015 1.8749 0
M  V30 6933 H 692.424 -3.65101 3.53077 0
M  V30 6934 H 692.354 -4.79827 2.16964 0
M  V30 6935 H 694.845 -3.25738 1.91581 0
M  V30 6936 H 695.158 -6.32245 4.44394 0
M  V30 6937 H 693.503 -5.68995 3.99086 0
M  V30 6938 H 696.694 -3.99151 2.44533 0
M  V30 6939 H 696.867 -5.38933 3.59799 0
M  V30 6940 N 690.273 -0.685099 -1.4193 0
M  V30 6941 C 691.684 -0.287699 -1.8447 0
M  V30 6942 C 692.035 1.17215 -1.57338 0
M  V30 6943 O 691.16 1.89856 -1.03845 0
M  V30 6944 C 691.755 -0.515385 -3.34857 0
M  V30 6945 C 690.314 -0.172006 -3.76007 0
M  V30 6946 C 689.461 -0.802808 -2.65425 0
M  V30 6947 H 692.412 -0.88652 -1.3163 0
M  V30 6948 H 692.433 0.229251 -3.79809 0
M  V30 6949 H 691.945 -1.57796 -3.54573 0
M  V30 6950 H 690.046 0.886716 -3.61895 0
M  V30 6951 H 690.159 -0.619717 -4.75075 0
M  V30 6952 H 688.523 -0.233267 -2.5363 0
M  V30 6953 H 689.306 -1.86904 -2.87961 0
M  V30 6954 N 691.751 1.51645 -0.429126 0
M  V30 6955 C 693 2.01203 0.141538 0
M  V30 6956 C 693.313 1.31828 1.44502 0
M  V30 6957 O 694.519 1.7231 2.09813 0
M  V30 6958 C 692.975 3.58624 0.302786 0
M  V30 6959 C 692.583 4.3693 -0.989775 0
M  V30 6960 C 694.327 4.16353 0.827661 0
M  V30 6961 C 692.234 5.86037 -0.794619 0
M  V30 6962 H 691.164 0.751867 0.05667 0
M  V30 6963 H 693.815 1.74822 -0.557633 0
M  V30 6964 H 692.197 3.81417 1.06476 0
M  V30 6965 H 693.371 4.25887 -1.75945 0
M  V30 6966 H 691.686 3.90614 -1.44256 0
M  V30 6967 H 694.283 5.25455 0.990026 0
M  V30 6968 H 694.626 3.74995 1.80787 0
M  V30 6969 H 695.159 3.97606 0.124213 0
M  V30 6970 H 691.898 6.31792 -1.74697 0
M  V30 6971 H 691.418 5.99765 -0.0645968 0
M  V30 6972 H 693.097 6.45471 -0.444591 0
M  V30 6973 N 693.229 0.160201 1.56784 0
M  V30 6974 C 694.645 -0.196089 1.58391 0
M  V30 6975 C 694.845 -1.63689 1.17508 0
M  V30 6976 O 693.901 -2.36613 0.881506 0
M  V30 6977 C 695.214 0.0746449 3.00607 0
M  V30 6978 C 696.762 0.0119762 3.12998 0
M  V30 6979 C 697.237 0.255551 4.57286 0
M  V30 6980 N 698.728 0.202938 4.62755 0
M  V30 6981 C 699.463 0.365731 5.72232 0
M  V30 6982 N 698.959 0.586972 6.90309 0
M  V30 6983 N 700.752 0.302411 5.61286 0
M  V30 6984 H 692.903 1.1008 1.81648 0
M  V30 6985 H 695.166 0.436779 0.841384 0
M  V30 6986 H 694.872 1.07231 3.34954 0
M  V30 6987 H 694.746 -0.638802 3.71751 0
M  V30 6988 H 697.133 -0.976254 2.78484 0
M  V30 6989 H 697.214 0.75796 2.44313 0
M  V30 6990 H 696.858 1.24094 4.92507 0
M  V30 6991 H 696.788 -0.510912 5.24116 0
M  V30 6992 H 699.279 0.0371328 3.77882 0
M  V30 6993 H 699.592 0.700941 7.69615 0
M  V30 6994 H 697.937 0.623453 6.92198 0
M  V30 6995 H 701.128 0.130238 4.67919 0
M  V30 6996 H 701.301 0.432712 6.46554 0
M  V30 6997 N 694.707 -1.5719 -0.113559 0
M  V30 6998 C 695.67 -1.99796 -1.12314 0
M  V30 6999 C 696.67 -0.888847 -1.34001 0
M  V30 7000 O 697.86 -1.15476 -1.30426 0
M  V30 7001 C 694.992 -2.34279 -2.47641 0
M  V30 7002 H 696.185 -2.90193 -0.756825 0
M  V30 7003 H 693.738 -1.52144 -0.358029 0
M  V30 7004 H 694.473 -1.46778 -2.89183 0
M  V30 7005 H 694.258 -3.15175 -2.33253 0
M  V30 7006 H 695.748 -2.67963 -3.2029 0
M  V30 7007 N 696.185 0.383891 -1.52853 0
M  V30 7008 C 697.115 1.47559 -1.80965 0
M  V30 7009 C 698.096 1.5669 -0.661986 0
M  V30 7010 O 699.281 1.71556 -0.910072 0
M  V30 7011 C 696.411 2.85114 -1.98312 0
M  V30 7012 C 695.365 2.9082 -3.14019 0
M  V30 7013 C 694.691 4.30873 -3.16627 0
M  V30 7014 C 695.991 2.60001 -4.52986 0
M  V30 7015 H 697.685 1.24283 -2.72386 0
M  V30 7016 H 695.231 0.596445 -1.31067 0
M  V30 7017 H 697.184 3.61496 -2.16561 0
M  V30 7018 H 695.908 3.09738 -1.03585 0
M  V30 7019 H 694.567 2.16886 -2.9556 0
M  V30 7020 H 694.215 4.52545 -2.19573 0
M  V30 7021 H 693.915 4.3561 -3.94357 0
M  V30 7022 H 695.439 5.09154 -3.37038 0
M  V30 7023 H 696.853 3.261 -4.71521 0
M  V30 7024 H 695.25 2.76081 -5.32822 0
M  V30 7025 H 696.32 1.5532 -4.59351 0
M  V30 7026 N 697.663 1.43903 0.642637 0
M  V30 7027 C 698.891 1.4954 1.42988 0
M  V30 7028 C 699.306 0.116588 1.8844 0
M  V30 7029 O 698.663 -0.875285 1.60141 0
M  V30 7030 C 698.714 2.45031 2.65785 0
M  V30 7031 O 698.435 3.77551 2.22232 0
M  V30 7032 C 699.936 2.60017 3.59035 0
M  V30 7033 H 697.156 0.507544 0.438907 0
M  V30 7034 H 699.7 1.88752 0.786942 0
M  V30 7035 H 697.855 2.08985 3.26196 0
M  V30 7036 H 698.269 4.29001 3.01759 0
M  V30 7037 H 699.743 3.30887 4.41835 0
M  V30 7038 H 700.22 1.64861 4.07084 0
M  V30 7039 H 700.826 2.96918 3.045 0
M  V30 7040 N 699.141 -0.881989 1.30609 0
M  V30 7041 C 700.073 -1.99375 1.13058 0
M  V30 7042 C 701.086 -1.62636 0.0729879 0
M  V30 7043 O 702.275 -1.75621 0.319301 0
M  V30 7044 C 699.375 -3.31536 0.702651 0
M  V30 7045 C 698.548 -3.96693 1.84265 0
M  V30 7046 C 697.607 -5.07158 1.40277 0
M  V30 7047 O 696.633 -5.28628 2.11048 0
M  V30 7048 N 697.835 -5.79808 0.283449 0
M  V30 7049 H 700.6 -2.14981 2.08814 0
M  V30 7050 H 698.161 -1.05526 1.22784 0
M  V30 7051 H 700.153 -4.02804 0.391331 0
M  V30 7052 H 698.723 -3.12175 -0.162954 0
M  V30 7053 H 697.943 -3.1856 2.32192 0
M  V30 7054 H 699.231 -4.36964 2.60653 0
M  V30 7055 H 698.629 -5.64871 -0.306189 0
M  V30 7056 H 697.186 -6.51792 0.0315985 0
M  V30 7057 N 700.619 -1.13374 -1.09472 0
M  V30 7058 C 701.582 -0.813639 -2.14272 0
M  V30 7059 C 702.582 0.176677 -1.59826 0
M  V30 7060 O 703.772 -0.0503441 -1.74127 0
M  V30 7061 C 700.904 -0.210897 -3.40247 0
M  V30 7062 H 702.097 -1.74229 -2.44099 0
M  V30 7063 H 699.65 -0.938304 -1.25002 0
M  V30 7064 H 700.385 0.726998 -3.16046 0
M  V30 7065 H 700.17 -0.924048 -3.81056 0
M  V30 7066 H 701.66 -0.00377603 -4.176 0
M  V30 7067 N 702.098 1.27442 -0.927168 0
M  V30 7068 C 703.514 1.46754 -0.627329 0
M  V30 7069 C 703.714 1.83902 0.823549 0
M  V30 7070 O 702.77 1.95215 1.60148 0
M  V30 7071 C 704.083 2.56045 -1.57674 0
M  V30 7072 C 705.631 2.69906 -1.58491 0
M  V30 7073 C 706.106 3.82355 -2.52128 0
M  V30 7074 N 707.597 3.89728 -2.50332 0
M  V30 7075 C 708.332 4.76155 -3.19475 0
M  V30 7076 N 707.828 5.67073 -3.97995 0
M  V30 7077 N 709.621 4.6988 -3.08496 0
M  V30 7078 H 701.772 1.01613 -1.86517 0
M  V30 7079 H 704.035 0.507443 -0.800753 0
M  V30 7080 H 703.741 2.35542 -2.61176 0
M  V30 7081 H 703.615 3.53423 -1.31804 0
M  V30 7082 H 706.002 2.89792 -0.557208 0
M  V30 7083 H 706.083 1.73018 -1.8841 0
M  V30 7084 H 705.727 3.63224 -3.55008 0
M  V30 7085 H 705.657 4.7867 -2.19505 0
M  V30 7086 H 708.148 3.24717 -1.93306 0
M  V30 7087 H 708.461 6.2988 -4.4774 0
M  V30 7088 H 706.806 5.6687 -4.02098 0
M  V30 7089 H 709.997 3.97848 -2.46646 0
M  V30 7090 H 710.17 5.37017 -3.62652 0
M  V30 7091 N 703.576 0.692616 1.41565 0
M  V30 7092 C 704.824 0.221896 2.00878 0
M  V30 7093 C 705.145 -1.18164 1.5512 0
M  V30 7094 O 704.415 -1.79679 0.78054 0
M  V30 7095 H 702.995 0.0790463 0.742806 0
M  V30 7096 H 705.657 0.893115 1.73232 0
M  V30 7097 H 704.753 0.23702 3.11199 0
M  V30 7098 N 705.054 -1.51416 0.437162 0
M  V30 7099 C 706.004 -2.24599 -0.392311 0
M  V30 7100 C 706.988 -1.2682 -0.990221 0
M  V30 7101 O 708.18 -1.51912 -0.908391 0
M  V30 7102 C 705.309 -3.09134 -1.49301 0
M  V30 7103 C 704.395 -4.14342 -0.904503 0
M  V30 7104 N 704.786 -5.0578 -0.0451511 0
M  V30 7105 C 703.084 -4.30323 -1.1721 0
M  V30 7106 C 703.785 -5.81 0.285344 0
M  V30 7107 N 702.761 -5.42591 -0.330993 0
M  V30 7108 H 706.563 -2.92655 0.270221 0
M  V30 7109 H 704.077 -1.60476 0.249226 0
M  V30 7110 H 706.074 -3.6014 -2.10011 0
M  V30 7111 H 704.734 -2.42622 -2.15788 0
M  V30 7112 H 705.745 -5.16903 0.321271 0
M  V30 7113 H 702.422 -3.75037 -1.83448 0
M  V30 7114 H 703.812 -6.64646 0.984626 0
M  V30 7115 N 706.532 -0.168513 -1.56696 0
M  V30 7116 C 707.809 0.523367 -1.88468 0
M  V30 7117 C 708.189 1.81503 -1.07796 0
M  V30 7118 O 707.537 2.27859 -0.171045 0
M  V30 7119 C 707.747 0.767991 -3.40445 0
M  V30 7120 C 709.095 1.09924 -4.10124 0
M  V30 7121 O 710.119 0.856625 -3.45746 0
M  V30 7122 O 708.978 1.55681 -5.23856 0
M  V30 7123 H 706.072 0.269447 -0.781874 0
M  V30 7124 H 708.618 -0.206739 -1.68436 0
M  V30 7125 H 707.39 -0.145254 -3.9103 0
M  V30 7126 H 707.013 1.55151 -3.66079 0
M  V30 7127 N 708.01 1.57248 0.105221 0
M  V30 7128 C 709.421 1.74612 0.660865 0
M  V30 7129 C 709.772 0.789231 1.79626 0
M  V30 7130 O 708.897 -0.0346611 2.16372 0
M  V30 7131 C 709.492 3.16624 1.20559 0
M  V30 7132 C 708.051 3.35447 1.7074 0
M  V30 7133 C 707.198 2.70445 0.612764 0
M  V30 7134 H 710.149 1.5824 -0.12079 0
M  V30 7135 H 710.17 3.18937 2.07508 0
M  V30 7136 H 709.682 3.86245 0.379012 0
M  V30 7137 H 707.783 2.7089 2.5583 0
M  V30 7138 H 707.896 4.43702 1.80736 0
M  V30 7139 H 706.26 2.32061 1.04975 0
M  V30 7140 H 707.043 3.42699 -0.203066 0
M  V30 7141 N 709.488 -0.375779 1.53054 0
M  V30 7142 C 710.713 -1.14484 1.7294 0
M  V30 7143 C 711.138 -1.82572 0.452668 0
M  V30 7144 O 710.496 -1.71343 -0.592567 0
M  V30 7145 C 710.544 -2.15857 2.88857 0
M  V30 7146 O 709.648 -3.22725 2.56753 0
M  V30 7147 H 708.989 -0.332666 0.574656 0
M  V30 7148 H 711.519 -0.436025 1.999 0
M  V30 7149 H 711.529 -2.59631 3.14731 0
M  V30 7150 H 710.204 -1.65689 3.81471 0
M  V30 7151 H 708.781 -2.83996 2.41663 0
M  V30 7152 N 710.966 -1.44241 -0.634997 0
M  V30 7153 C 711.929 -1.50457 -1.72903 0
M  V30 7154 C 712.929 -0.387058 -1.56072 0
M  V30 7155 O 714.119 -0.649531 -1.61638 0
M  V30 7156 C 711.251 -1.37477 -3.1195 0
M  V30 7157 H 712.444 -2.47907 -1.68767 0
M  V30 7158 H 709.997 -1.31276 -0.84831 0
M  V30 7159 H 710.732 -0.41106 -3.21684 0
M  V30 7160 H 710.517 -2.18506 -3.25573 0
M  V30 7161 H 712.007 -1.44799 -3.91692 0
M  V30 7162 N 712.444 0.87505 -1.31075 0
M  V30 7163 C 713.394 1.96933 -1.14898 0
M  V30 7164 C 714.378 1.60783 -0.0613703 0
M  V30 7165 O 715.57 1.74678 -0.285751 0
M  V30 7166 C 712.699 3.3253 -0.853166 0
M  V30 7167 C 711.785 3.74963 -1.98151 0
M  V30 7168 N 712.176 3.89403 -3.22799 0
M  V30 7169 C 710.474 4.04436 -1.8801 0
M  V30 7170 C 711.175 4.25563 -3.96574 0
M  V30 7171 N 710.151 4.3597 -3.24701 0
M  V30 7172 H 713.953 2.06201 -2.09424 0
M  V30 7173 H 711.467 1.06551 -1.22558 0
M  V30 7174 H 713.464 4.10666 -0.718266 0
M  V30 7175 H 712.124 3.24592 0.0839218 0
M  V30 7176 H 713.135 3.74266 -3.57974 0
M  V30 7177 H 709.812 4.04915 -1.01733 0
M  V30 7178 H 711.202 4.44375 -5.03965 0
M  V30 7179 N 713.922 1.13953 1.08869 0
M  V30 7180 C 715.168 0.906151 1.8143 0
M  V30 7181 C 715.501 -0.566089 1.85766 0
M  V30 7182 O 714.776 -1.41915 1.33006 0
M  V30 7183 C 715.059 1.50183 3.27287 0
M  V30 7184 C 714.912 3.04359 3.31189 0
M  V30 7185 C 716.231 1.17477 4.24131 0
M  V30 7186 H 713.35 0.330624 0.658678 0
M  V30 7187 H 715.992 1.40873 1.27495 0
M  V30 7188 H 714.142 1.07442 3.73348 0
M  V30 7189 H 715.814 3.55896 2.93488 0
M  V30 7190 H 714.057 3.39053 2.70602 0
M  V30 7191 H 714.728 3.41141 4.33966 0
M  V30 7192 H 717.204 1.5442 3.86385 0
M  V30 7193 H 716.08 1.61795 5.24513 0
M  V30 7194 H 716.341 0.0893312 4.4201 0
M  V30 7195 N 715.4 -1.26948 0.933913 0
M  V30 7196 C 716.33 -2.29017 0.45534 0
M  V30 7197 C 717.311 -1.62961 -0.487605 0
M  V30 7198 O 718.496 -1.90223 -0.391022 0
M  V30 7199 C 715.626 -3.46112 -0.287015 0
M  V30 7200 C 714.58 -4.24205 0.568682 0
M  V30 7201 C 713.906 -5.3384 -0.303206 0
M  V30 7202 C 715.206 -4.88954 1.83633 0
M  V30 7203 H 716.9 -2.69298 1.30839 0
M  V30 7204 H 714.446 -1.29459 0.630579 0
M  V30 7205 H 716.399 -4.16622 -0.6328 0
M  V30 7206 H 715.123 -3.04765 -1.17414 0
M  V30 7207 H 713.782 -3.5545 0.897261 0
M  V30 7208 H 713.43 -4.88734 -1.18947 0
M  V30 7209 H 713.13 -5.86998 0.265879 0
M  V30 7210 H 714.654 -6.0719 -0.644423 0
M  V30 7211 H 716.068 -5.51717 1.55823 0
M  V30 7212 H 714.465 -5.52198 2.34941 0
M  V30 7213 H 715.535 -4.12305 2.55211 0
M  V30 7214 N 716.879 -0.700114 -1.41195 0
M  V30 7215 C 717.842 -0.0465706 -2.29153 0
M  V30 7216 C 718.842 0.703302 -1.44604 0
M  V30 7217 O 720.032 0.537513 -1.657 0
M  V30 7218 C 717.164 0.944324 -3.2756 0
M  V30 7219 H 718.357 -0.821064 -2.88442 0
M  V30 7220 H 715.91 -0.463869 -1.49258 0
M  V30 7221 H 716.645 1.74642 -2.73259 0
M  V30 7222 H 716.43 0.409701 -3.89954 0
M  V30 7223 H 717.92 1.39925 -3.9346 0
M  V30 7224 N 718.357 1.51182 -0.445186 0
M  V30 7225 C 719.597 2.04061 0.117717 0
M  V30 7226 C 719.961 1.32158 1.39278 0
M  V30 7227 O 721.162 1.75452 2.03642 0
M  V30 7228 C 719.433 3.55933 0.323445 0
M  V30 7229 S 720.992 4.30516 0.848627 0
M  V30 7230 H 717.81 0.710442 0.028165 0
M  V30 7231 H 720.412 1.85858 -0.606391 0
M  V30 7232 H 719.116 4.0583 -0.610764 0
M  V30 7233 H 718.647 3.78444 1.07441 0
M  V30 7234 H 720.662 4.48382 2.12528 0
M  V30 7235 N 719.835 0.176821 1.56605 0
M  V30 7236 C 721.082 -0.466715 1.97048 0
M  V30 7237 C 721.41 -1.6288 1.06302 0
M  V30 7238 O 720.665 -1.95453 0.0982571 0
M  V30 7239 C 720.964 -0.986208 3.43524 0
M  V30 7240 C 720.63 0.0605667 4.50859 0
M  V30 7241 C 719.292 0.348242 4.79938 0
M  V30 7242 C 721.644 0.770794 5.15469 0
M  V30 7243 C 718.972 1.35144 5.70923 0
M  V30 7244 C 721.324 1.76301 6.07537 0
M  V30 7245 C 719.988 2.05808 6.3498 0
M  V30 7246 H 719.258 -0.170783 0.721051 0
M  V30 7247 H 721.905 0.269942 1.89588 0
M  V30 7248 H 720.21 -1.80079 3.47964 0
M  V30 7249 H 721.907 -1.49323 3.72161 0
M  V30 7250 H 718.497 -0.173823 4.28247 0
M  V30 7251 H 722.681 0.56176 4.9311 0
M  V30 7252 H 717.937 1.58616 5.90467 0
M  V30 7253 H 722.111 2.31868 6.56666 0
M  V30 7254 H 719.738 2.8369 7.05283 0
M  V30 7255 N 721.313 -1.57302 -0.09688 0
M  V30 7256 C 722.561 -1.8563 -0.799117 0
M  V30 7257 C 722.882 -0.765263 -1.79356 0
M  V30 7258 O 722.152 0.208657 -1.94786 0
M  V30 7259 H 720.732 -0.684937 -0.298111 0
M  V30 7260 H 723.394 -1.9474 -0.0789341 0
M  V30 7261 H 722.49 -2.82305 -1.3308 0
M  V30 7262 N 722.791 0.367657 -1.53252 0
M  V30 7263 C 724.039 1.10832 -1.68999 0
M  V30 7264 C 724.36 1.89894 -0.443306 0
M  V30 7265 O 723.63 1.88235 0.54262 0
M  V30 7266 H 722.21 0.412153 -0.623008 0
M  V30 7267 H 724.872 0.414775 -1.90435 0
M  V30 7268 H 723.968 1.7993 -2.55013 0
M  V30 7269 N 724.269 1.44576 0.627338 0
M  V30 7270 C 725.232 1.51372 1.72102 0
M  V30 7271 C 726.232 0.395329 1.55865 0
M  V30 7272 O 727.422 0.658094 1.61291 0
M  V30 7273 C 724.554 1.39129 3.11217 0
M  V30 7274 H 725.747 2.48798 1.6745 0
M  V30 7275 H 723.3 1.31724 0.841336 0
M  V30 7276 H 724.035 0.428114 3.21462 0
M  V30 7277 H 723.82 2.20229 3.24409 0
M  V30 7278 H 725.31 1.46874 3.90919 0
M  V30 7279 N 725.747 -0.868086 1.31537 0
M  V30 7280 C 726.995 -1.61807 1.21091 0
M  V30 7281 C 727.316 -1.93631 -0.230623 0
M  V30 7282 O 726.586 -1.5846 -1.15183 0
M  V30 7283 H 725.166 -0.599854 0.445178 0
M  V30 7284 H 727.828 -1.03915 1.64887 0
M  V30 7285 H 726.924 -2.56088 1.78396 0
M  V30 7286 N 727.225 -1.14528 -1.08264 0
M  V30 7287 C 728.473 -0.912599 -1.80322 0
M  V30 7288 C 728.794 0.562256 -1.86718 0
M  V30 7289 O 728.064 1.40869 -1.36135 0
M  V30 7290 H 726.644 -0.334645 -0.667849 0
M  V30 7291 H 729.306 -1.44415 -1.30883 0
M  V30 7292 H 728.402 -1.31384 -2.83098 0
M  V30 7293 N 728.703 1.26451 -0.940633 0
M  V30 7294 C 729.635 2.25556 -0.407104 0
M  V30 7295 C 730.648 1.55888 0.469324 0
M  V30 7296 O 731.837 1.76292 0.279858 0
M  V30 7297 C 728.937 3.36109 0.434064 0
M  V30 7298 C 728.11 4.3532 -0.426082 0
M  V30 7299 C 727.169 5.25004 0.354563 0
M  V30 7300 O 726.195 5.68684 -0.242219 0
M  V30 7301 N 727.397 5.5652 1.65123 0
M  V30 7302 H 730.162 2.7197 -1.25907 0
M  V30 7303 H 727.723 1.40212 -0.809456 0
M  V30 7304 H 729.715 3.93059 0.963684 0
M  V30 7305 H 728.285 2.89194 1.18683 0
M  V30 7306 H 727.505 3.77449 -1.13692 0
M  V30 7307 H 728.793 4.986 -1.01366 0
M  V30 7308 H 728.191 5.22912 2.15822 0
M  V30 7309 H 726.748 6.16115 2.12711 0
M  V30 7310 N 730.181 0.707592 1.40822 0
M  V30 7311 C 731.131 0.0265008 2.27985 0
M  V30 7312 C 732.115 -0.740685 1.42838 0
M  V30 7313 O 733.307 -0.6142 1.66002 0
M  V30 7314 C 730.436 -0.900382 3.31282 0
M  V30 7315 C 729.522 -0.128807 4.23904 0
M  V30 7316 N 729.913 0.883744 4.9802 0
M  V30 7317 C 728.211 -0.362539 4.44524 0
M  V30 7318 C 728.912 1.34666 5.65898 0
M  V30 7319 N 727.888 0.670306 5.39451 0
M  V30 7320 H 731.69 0.802667 2.82727 0
M  V30 7321 H 729.204 0.539475 1.53178 0
M  V30 7322 H 731.201 -1.40357 3.92563 0
M  V30 7323 H 729.861 -1.67601 2.781 0
M  V30 7324 H 730.872 1.26435 5.0223 0
M  V30 7325 H 727.549 -1.11512 4.02332 0
M  V30 7326 H 728.939 2.18756 6.35292 0
M  V30 7327 N 731.66 -1.50943 0.453197 0
M  V30 7328 C 732.623 -2.26684 -0.338705 0
M  V30 7329 C 733.623 -1.30748 -0.936032 0
M  V30 7330 O 734.813 -1.54327 -0.808002 0
M  V30 7331 C 731.945 -3.07063 -1.48071 0
M  V30 7332 H 733.138 -2.98131 0.325289 0
M  V30 7333 H 730.691 -1.54926 0.206771 0
M  V30 7334 H 731.426 -2.4007 -2.18029 0
M  V30 7335 H 731.211 -3.77545 -1.0584 0
M  V30 7336 H 732.701 -3.64393 -2.0398 0
M  V30 7337 N 733.138 -0.185124 -1.56509 0
M  V30 7338 C 734.378 0.458547 -1.9919 0
M  V30 7339 C 734.742 1.59484 -1.06906 0
M  V30 7340 O 735.943 2.30201 -1.38783 0
M  V30 7341 C 734.214 0.916263 -3.45455 0
M  V30 7342 S 735.773 1.55918 -4.10165 0
M  V30 7343 H 732.591 0.147008 -0.695636 0
M  V30 7344 H 735.193 -0.285841 -1.93399 0
M  V30 7345 H 733.897 0.0790543 -4.10324 0
M  V30 7346 H 733.428 1.69436 -3.55042 0
M  V30 7347 H 735.443 2.84771 -4.0635 0
M  V30 7348 N 734.616 1.57351 0.0885366 0
M  V30 7349 C 735.579 2.01557 1.09121 0
M  V30 7350 C 736.579 0.910052 1.3257 0
M  V30 7351 O 737.769 1.17537 1.28572 0
M  V30 7352 C 734.901 2.38189 2.43883 0
M  V30 7353 H 736.094 2.91361 0.710562 0
M  V30 7354 H 733.647 1.52694 0.333779 0
M  V30 7355 H 734.382 1.5136 2.86811 0
M  V30 7356 H 734.167 3.18846 2.28209 0
M  V30 7357 H 735.657 2.73025 3.15986 0
M  V30 7358 N 736.094 -0.359525 1.53444 0
M  V30 7359 C 737.343 -1.09886 1.69139 0
M  V30 7360 C 737.656 -1.90285 0.452863 0
M  V30 7361 O 738.862 -2.67033 0.490459 0
M  V30 7362 C 737.318 -2.0028 2.99025 0
M  V30 7363 C 736.926 -1.25164 4.30161 0
M  V30 7364 C 738.67 -2.74168 3.24086 0
M  V30 7365 C 736.577 -2.14494 5.51132 0
M  V30 7366 H 735.507 -0.413936 0.630217 0
M  V30 7367 H 738.158 -0.359434 1.79945 0
M  V30 7368 H 736.54 -2.77978 2.82036 0
M  V30 7369 H 737.714 -0.524867 4.57801 0
M  V30 7370 H 736.029 -0.631116 4.11589 0
M  V30 7371 H 738.626 -3.41243 4.11652 0
M  V30 7372 H 738.969 -3.39868 2.40407 0
M  V30 7373 H 739.502 -2.0355 3.41778 0
M  V30 7374 H 736.241 -1.53362 6.37307 0
M  V30 7375 H 735.761 -2.85004 5.27762 0
M  V30 7376 H 737.44 -2.73914 5.86157 0
M  V30 7377 N 737.572 -1.44907 -0.619662 0
M  V30 7378 C 738.535 -1.52282 -1.71297 0
M  V30 7379 C 739.535 -0.40359 -1.55653 0
M  V30 7380 O 740.725 -0.666638 -1.6094 0
M  V30 7381 C 737.857 -1.40778 -3.10474 0
M  V30 7382 H 739.05 -2.49683 -1.66128 0
M  V30 7383 H 736.603 -1.32168 -0.834339 0
M  V30 7384 H 737.338 -0.445156 -3.2123 0
M  V30 7385 H 737.123 -2.21947 -3.23237 0
M  V30 7386 H 738.613 -1.48946 -3.90135 0
M  V30 7387 N 739.05 0.861098 -1.31996 0
M  V30 7388 C 740.466 1.14827 -1.10846 0
M  V30 7389 C 740.666 2.0117 0.11528 0
M  V30 7390 O 739.722 2.39423 0.802048 0
M  V30 7391 C 741.035 1.83183 -2.38462 0
M  V30 7392 C 742.583 1.95847 -2.44158 0
M  V30 7393 C 743.058 2.67617 -3.71679 0
M  V30 7394 N 744.549 2.75147 -3.72624 0
M  V30 7395 C 745.284 3.31314 -4.67994 0
M  V30 7396 N 744.78 3.88343 -5.73726 0
M  V30 7397 N 746.573 3.29356 -4.55501 0
M  V30 7398 H 738.724 0.285951 -2.10466 0
M  V30 7399 H 740.987 0.189303 -0.928907 0
M  V30 7400 H 740.693 1.27193 -3.27895 0
M  V30 7401 H 740.567 2.83393 -2.48935 0
M  V30 7402 H 742.954 2.50999 -1.55189 0
M  V30 7403 H 743.035 0.94653 -2.37644 0
M  V30 7404 H 742.679 2.13131 -4.61018 0
M  V30 7405 H 742.609 3.69237 -3.75462 0
M  V30 7406 H 745.1 2.34682 -2.96197 0
M  V30 7407 H 745.413 4.29338 -6.42564 0
M  V30 7408 H 743.758 3.86693 -5.77489 0
M  V30 7409 H 746.949 2.84047 -3.72069 0
M  V30 7410 H 747.122 3.7283 -5.30001 0
M  V30 7411 N 740.528 1.15101 1.07655 0
M  V30 7412 C 741.491 0.847625 2.12951 0
M  V30 7413 C 742.491 -0.151227 1.60087 0
M  V30 7414 O 743.681 0.0780399 1.74025 0
M  V30 7415 C 740.813 0.265 3.39868 0
M  V30 7416 H 742.006 1.7809 2.41296 0
M  V30 7417 H 739.559 0.958072 1.23494 0
M  V30 7418 H 740.294 -0.676625 3.17163 0
M  V30 7419 H 740.079 0.984554 3.79538 0
M  V30 7420 H 741.569 0.0702121 4.17541 0
M  V30 7421 N 742.006 -1.2595 0.947325 0
M  V30 7422 C 742.936 -2.28521 0.479604 0
M  V30 7423 C 743.917 -1.63469 -0.470293 0
M  V30 7424 O 745.102 -1.90627 -0.370824 0
M  V30 7425 C 742.232 -3.46397 -0.250289 0
M  V30 7426 C 741.186 -4.23578 0.613643 0
M  V30 7427 C 740.512 -5.34131 -0.246568 0
M  V30 7428 C 741.812 -4.86979 1.88809 0
M  V30 7429 H 743.506 -2.67895 1.33688 0
M  V30 7430 H 741.052 -1.28783 0.644274 0
M  V30 7431 H 743.005 -4.17269 -0.588576 0
M  V30 7432 H 741.729 -3.05993 -1.14175 0
M  V30 7433 H 740.388 -3.54478 0.93491 0
M  V30 7434 H 740.036 -4.89968 -1.13756 0
M  V30 7435 H 739.736 -5.86683 0.328123 0
M  V30 7436 H 741.26 -6.07839 -0.579986 0
M  V30 7437 H 742.674 -5.50034 1.61666 0
M  V30 7438 H 741.071 -5.49675 2.40784 0
M  V30 7439 H 742.141 -4.09575 2.5957 0
M  V30 7440 N 743.484 -0.715051 -1.40445 0
M  V30 7441 C 744.732 -0.253826 -2.005 0
M  V30 7442 C 745.053 1.15681 -1.5698 0
M  V30 7443 O 744.323 1.78414 -0.809027 0
M  V30 7444 H 742.903 -0.0908537 -0.741454 0
M  V30 7445 H 745.565 -0.920561 -1.7179 0
M  V30 7446 H 744.661 -0.286499 -3.10782 0
M  V30 7447 N 744.962 1.50701 -0.461195 0
M  V30 7448 C 745.895 2.24948 0.383863 0
M  V30 7449 C 746.873 1.27851 1.00464 0
M  V30 7450 O 748.057 1.57049 1.04249 0
M  V30 7451 C 745.184 3.01818 1.537 0
M  V30 7452 C 744.23 4.13762 1.03457 0
M  V30 7453 S 745.063 5.35483 -0.0427485 0
M  V30 7454 C 746.219 6.15898 1.11449 0
M  V30 7455 H 746.452 2.96277 -0.246425 0
M  V30 7456 H 743.985 1.52428 -0.245961 0
M  V30 7457 H 745.943 3.467 2.19794 0
M  V30 7458 H 744.604 2.30034 2.13877 0
M  V30 7459 H 743.797 4.66914 1.89757 0
M  V30 7460 H 743.399 3.71265 0.4515 0
M  V30 7461 H 745.691 6.46431 2.02813 0
M  V30 7462 H 746.634 7.05359 0.622444 0
M  V30 7463 H 747.042 5.47777 1.36385 0
M  V30 7464 N 746.441 0.193421 1.56409 0
M  V30 7465 C 747.718 -0.493318 1.89277 0
M  V30 7466 C 748.098 -1.79765 1.10669 0
M  V30 7467 O 747.446 -2.27558 0.207274 0
M  V30 7468 C 747.656 -0.713732 3.41624 0
M  V30 7469 C 749.004 -1.03385 4.11821 0
M  V30 7470 O 750.028 -0.801511 3.47065 0
M  V30 7471 O 748.887 -1.47327 5.26267 0
M  V30 7472 H 745.981 -0.256973 0.786062 0
M  V30 7473 H 748.527 0.23351 1.68086 0
M  V30 7474 H 747.299 0.207446 3.9075 0
M  V30 7475 H 746.922 -1.49308 3.68501 0
M  V30 7476 N 747.919 -1.57396 -0.0801906 0
M  V30 7477 C 749.147 -1.91055 -0.794075 0
M  V30 7478 C 749.562 -0.788583 -1.71542 0
M  V30 7479 O 748.919 0.238587 -1.80934 0
M  V30 7480 C 748.97 -3.24418 -1.59484 0
M  V30 7481 O 748.691 -4.323 -0.710532 0
M  V30 7482 C 750.192 -3.72037 -2.41046 0
M  V30 7483 H 747.412 -0.63171 -0.226238 0
M  V30 7484 H 749.956 -2.04431 -0.0529685 0
M  V30 7485 H 748.111 -3.12595 -2.2883 0
M  V30 7486 H 748.525 -5.08976 -1.26663 0
M  V30 7487 H 749.999 -4.68006 -2.92702 0
M  V30 7488 H 750.476 -3.00624 -3.2019 0
M  V30 7489 H 751.082 -3.86777 -1.76871 0
M  V30 7490 N 749.397 0.351382 -1.53633 0
M  V30 7491 C 750.643 1.09411 -1.70754 0
M  V30 7492 C 750.976 1.88544 -0.465293 0
M  V30 7493 O 750.251 1.86923 0.537608 0
M  V30 7494 C 750.534 2.04173 -2.96623 0
M  V30 7495 C 750.387 1.28556 -4.31038 0
M  V30 7496 C 751.706 3.04102 -3.18136 0
M  V30 7497 H 748.825 0.396373 -0.621335 0
M  V30 7498 H 751.467 0.373464 -1.86293 0
M  V30 7499 H 749.617 2.65625 -2.83506 0
M  V30 7500 H 751.289 0.697786 -4.55992 0
M  V30 7501 H 749.532 0.587498 -4.29803 0
M  V30 7502 H 750.203 1.97989 -5.15271 0
M  V30 7503 H 752.679 2.5276 -3.30532 0
M  V30 7504 H 751.555 3.67616 -4.07615 0
M  V30 7505 H 751.816 3.75053 -2.34068 0
M  V30 7506 N 750.875 1.45233 0.611969 0
M  V30 7507 C 751.825 1.49997 1.71711 0
M  V30 7508 C 752.809 0.363689 1.56736 0
M  V30 7509 O 754.001 0.610261 1.66147 0
M  V30 7510 C 751.13 1.46537 3.10454 0
M  V30 7511 C 750.216 2.65351 3.30831 0
M  V30 7512 N 750.607 3.90485 3.21489 0
M  V30 7513 C 748.905 2.60955 3.61688 0
M  V30 7514 C 749.606 4.69758 3.43078 0
M  V30 7515 N 748.582 4.01141 3.66861 0
M  V30 7516 H 752.384 2.44574 1.62975 0
M  V30 7517 H 749.898 1.40464 0.815082 0
M  V30 7518 H 751.895 1.48035 3.89732 0
M  V30 7519 H 750.555 0.530139 3.20343 0
M  V30 7520 H 751.566 4.22171 2.99987 0
M  V30 7521 H 748.243 1.76319 3.78441 0
M  V30 7522 H 749.633 5.7877 3.41285 0
M  V30 7523 N 752.353 -0.854086 1.3245 0
M  V30 7524 C 753.602 -1.60318 1.22397 0
M  V30 7525 C 753.915 -1.9444 -0.212664 0
M  V30 7526 O 755.121 -2.67991 -0.435066 0
M  V30 7527 C 753.577 -2.8909 2.1437 0
M  V30 7528 C 753.185 -2.62391 3.63119 0
M  V30 7529 C 754.929 -3.67104 2.13155 0
M  V30 7530 C 752.836 -3.87167 4.47052 0
M  V30 7531 H 751.766 -0.601586 0.454544 0
M  V30 7532 H 754.417 -0.943023 1.57415 0
M  V30 7533 H 752.799 -3.56567 1.72268 0
M  V30 7534 H 753.973 -2.03222 4.13567 0
M  V30 7535 H 752.288 -1.97706 3.66471 0
M  V30 7536 H 754.885 -4.59696 2.731 0
M  V30 7537 H 755.228 -4.00876 1.12268 0
M  V30 7538 H 755.761 -3.06533 2.5354 0
M  V30 7539 H 752.5 -3.58536 5.48755 0
M  V30 7540 H 752.02 -4.45729 4.01355 0
M  V30 7541 H 753.699 -4.549 4.60081 0
M  V30 7542 N 753.831 -1.1567 -1.07043 0
M  V30 7543 C 754.781 -0.824733 -2.12561 0
M  V30 7544 C 755.765 0.19243 -1.59745 0
M  V30 7545 O 756.957 -0.00728759 -1.76998 0
M  V30 7546 C 754.086 -0.31921 -3.41813 0
M  V30 7547 C 753.172 -1.36671 -4.01475 0
M  V30 7548 N 753.563 -2.57493 -4.35351 0
M  V30 7549 C 751.861 -1.22018 -4.28984 0
M  V30 7550 C 752.562 -3.24658 -4.82672 0
M  V30 7551 N 751.538 -2.52043 -4.81638 0
M  V30 7552 H 755.34 -1.74363 -2.3659 0
M  V30 7553 H 752.854 -1.04262 -1.24511 0
M  V30 7554 H 754.851 -0.0630216 -4.16852 0
M  V30 7555 H 753.511 0.593708 -3.19226 0
M  V30 7556 H 754.522 -2.94612 -4.25939 0
M  V30 7557 H 751.199 -0.367414 -4.1588 0
M  V30 7558 H 752.589 -4.2775 -5.1815 0
M  V30 7559 N 755.309 1.25446 -0.953992 0
M  V30 7560 C 756.725 1.4539 -0.658316 0
M  V30 7561 C 756.925 1.85607 0.784356 0
M  V30 7562 O 755.981 1.98568 1.55972 0
M  V30 7563 C 757.294 2.52643 -1.6307 0
M  V30 7564 C 758.842 2.66484 -1.64181 0
M  V30 7565 C 759.317 3.76921 -2.60182 0
M  V30 7566 N 760.808 3.84331 -2.58542 0
M  V30 7567 C 761.543 4.69271 -3.29503 0
M  V30 7568 N 761.039 5.58503 -4.09934 0
M  V30 7569 N 762.832 4.6323 -3.18393 0
M  V30 7570 H 754.983 0.976337 -1.8863 0
M  V30 7571 H 757.246 0.490343 -0.811337 0
M  V30 7572 H 756.952 2.29949 -2.66114 0
M  V30 7573 H 756.826 3.50547 -1.39271 0
M  V30 7574 H 759.213 2.88545 -0.618552 0
M  V30 7575 H 759.294 1.68982 -1.92038 0
M  V30 7576 H 758.938 3.55612 -3.62633 0
M  V30 7577 H 758.868 4.73906 -2.29609 0
M  V30 7578 H 761.359 3.20544 -2.0015 0
M  V30 7579 H 761.672 6.20241 -4.61 0
M  V30 7580 H 760.017 5.58214 -4.14032 0
M  V30 7581 H 763.208 3.92527 -2.5503 0
M  V30 7582 H 763.381 5.29204 -3.73961 0
M  V30 7583 N 756.787 0.722489 1.40064 0
M  V30 7584 C 757.737 0.0506801 2.27944 0
M  V30 7585 C 758.721 -0.725493 1.43615 0
M  V30 7586 O 759.913 -0.596559 1.66644 0
M  V30 7587 C 757.042 -0.865195 3.32219 0
M  V30 7588 C 756.128 -0.0838393 4.24017 0
M  V30 7589 N 756.519 0.936516 4.97054 0
M  V30 7590 C 754.817 -0.315371 4.44884 0
M  V30 7591 C 755.518 1.4066 5.64437 0
M  V30 7592 N 754.494 0.727485 5.3871 0
M  V30 7593 H 758.296 0.832609 2.8186 0
M  V30 7594 H 755.81 0.555691 1.52597 0
M  V30 7595 H 757.807 -1.36186 3.94029 0
M  V30 7596 H 756.467 -1.64642 2.79862 0
M  V30 7597 H 757.478 1.31755 5.0086 0
M  V30 7598 H 754.155 -1.07238 4.03492 0
M  V30 7599 H 755.545 2.25482 6.32936 0
M  V30 7600 N 758.265 -1.50454 0.469181 0
M  V30 7601 C 759.49 -2.0722 -0.0864892 0
M  V30 7602 C 759.915 -1.33098 -1.32916 0
M  V30 7603 O 759.273 -0.378084 -1.77314 0
M  V30 7604 C 759.321 -3.58845 -0.355384 0
M  V30 7605 O 758.425 -3.86583 -1.43622 0
M  V30 7606 H 757.766 -0.663889 0.0121414 0
M  V30 7607 H 760.296 -1.93674 0.659674 0
M  V30 7608 H 760.306 -4.03617 -0.596447 0
M  V30 7609 H 758.981 -4.12211 0.552698 0
M  V30 7610 H 757.558 -3.5365 -1.18262 0
M  V30 7611 N 759.743 -0.201713 -1.56304 0
M  V30 7612 C 760.991 0.434447 -1.97375 0
M  V30 7613 C 761.312 1.61692 -1.08998 0
M  V30 7614 O 760.582 1.95223 -0.162682 0
M  V30 7615 H 759.162 0.163497 -0.728888 0
M  V30 7616 H 761.824 -0.289988 -1.92731 0
M  V30 7617 H 760.92 0.774136 -3.02347 0
M  V30 7618 N 761.222 1.57436 0.0718424 0
M  V30 7619 C 762.152 2.06724 1.08571 0
M  V30 7620 C 763.133 0.960731 1.40371 0
M  V30 7621 O 764.318 1.23345 1.49999 0
M  V30 7622 C 761.448 2.51112 2.39916 0
M  V30 7623 C 760.402 3.65639 2.22469 0
M  V30 7624 C 759.728 3.96082 3.59198 0
M  V30 7625 C 761.028 4.95687 1.64596 0
M  V30 7626 H 762.722 2.91679 0.675569 0
M  V30 7627 H 760.268 1.40319 0.32352 0
M  V30 7628 H 762.221 2.84206 3.11135 0
M  V30 7629 H 760.945 1.63186 2.8291 0
M  V30 7630 H 759.604 3.32828 1.53691 0
M  V30 7631 H 759.252 3.05287 3.99761 0
M  V30 7632 H 758.952 4.73199 3.48362 0
M  V30 7633 H 760.476 4.31672 4.31847 0
M  V30 7634 H 761.89 5.27011 2.25681 0
M  V30 7635 H 760.287 5.77126 1.64457 0
M  V30 7636 H 761.357 4.8108 0.60744 0
M  V30 7637 N 762.7 -0.34323 1.53817 0
M  V30 7638 C 763.63 -1.42709 1.84814 0
M  V30 7639 C 764.611 -1.5488 0.703297 0
M  V30 7640 O 765.796 -1.69082 0.955237 0
M  V30 7641 C 762.926 -2.79756 2.05801 0
M  V30 7642 C 761.88 -2.82392 3.21619 0
M  V30 7643 C 761.206 -4.22326 3.2794 0
M  V30 7644 C 762.506 -2.479 4.59721 0
M  V30 7645 H 764.2 -1.17018 2.75585 0
M  V30 7646 H 761.746 -0.561485 1.32602 0
M  V30 7647 H 763.699 -3.55627 2.26069 0
M  V30 7648 H 762.423 -3.06883 1.11761 0
M  V30 7649 H 761.082 -2.08974 3.01207 0
M  V30 7650 H 760.73 -4.46564 2.31494 0
M  V30 7651 H 760.43 -4.25001 4.05768 0
M  V30 7652 H 761.954 -5.00039 3.50419 0
M  V30 7653 H 763.368 -3.13484 4.80001 0
M  V30 7654 H 761.765 -2.61857 5.39954 0
M  V30 7655 H 762.835 -1.43087 4.63308 0
M  V30 7656 N 764.178 -1.45556 -0.604258 0
M  V30 7657 C 765.403 -1.53509 -1.39462 0
M  V30 7658 C 765.828 -0.169638 -1.87333 0
M  V30 7659 O 765.186 0.846346 -1.60333 0
M  V30 7660 C 765.234 -2.52654 -2.5729 0
M  V30 7661 O 764.338 -2.04666 -3.5803 0
M  V30 7662 H 763.679 -0.517355 -0.416221 0
M  V30 7663 H 766.209 -1.90939 -0.735072 0
M  V30 7664 H 766.219 -2.71568 -3.04491 0
M  V30 7665 H 764.894 -3.51823 -2.21797 0
M  V30 7666 H 763.471 -1.95643 -3.17456 0
M  V30 7667 N 765.656 0.84705 -1.32902 0
M  V30 7668 C 766.619 1.9378 -1.224 0
M  V30 7669 C 767.619 1.60144 -0.145108 0
M  V30 7670 O 768.809 1.69638 -0.396058 0
M  V30 7671 C 765.941 3.29234 -0.884174 0
M  V30 7672 H 767.134 2.04518 -2.19345 0
M  V30 7673 H 764.687 1.03816 -1.16842 0
M  V30 7674 H 765.422 3.24193 0.0831277 0
M  V30 7675 H 765.207 3.55026 -1.6643 0
M  V30 7676 H 766.697 4.09162 -0.835226 0
M  V30 7677 N 767.134 1.16236 1.06428 0
M  V30 7678 C 768.064 0.890807 2.1584 0
M  V30 7679 C 769.045 -0.162333 1.69324 0
M  V30 7680 O 770.23 -0.0147191 1.94194 0
M  V30 7681 C 767.36 0.389615 3.45108 0
M  V30 7682 C 766.314 1.38051 4.05125 0
M  V30 7683 C 765.64 0.737773 5.29586 0
M  V30 7684 C 766.94 2.74965 4.44062 0
M  V30 7685 H 768.634 1.80577 2.38814 0
M  V30 7686 H 766.18 0.869657 1.14774 0
M  V30 7687 H 768.133 0.187127 4.20984 0
M  V30 7688 H 766.857 -0.560851 3.21748 0
M  V30 7689 H 765.516 1.56952 3.31303 0
M  V30 7690 H 765.164 -0.219135 5.02522 0
M  V30 7691 H 764.864 1.39914 5.70699 0
M  V30 7692 H 766.388 0.545275 6.0816 0
M  V30 7693 H 767.802 2.59855 5.11027 0
M  V30 7694 H 766.199 3.37563 4.96156 0
M  V30 7695 H 767.269 3.30321 3.54987 0
M  V30 7696 N 768.612 -1.24939 0.960631 0
M  V30 7697 C 769.86 -1.92437 0.617441 0
M  V30 7698 C 770.181 -1.75543 -0.849101 0
M  V30 7699 O 769.451 -1.12269 -1.60538 0
M  V30 7700 H 768.031 -0.712192 0.225371 0
M  V30 7701 H 770.693 -1.5198 1.22017 0
M  V30 7702 H 769.789 -3.00247 0.851933 0
M  V30 7703 N 770.09 -0.729906 -1.39679 0
M  V30 7704 C 771.02 -0.101618 -2.33279 0
M  V30 7705 C 772.001 0.729854 -1.53646 0
M  V30 7706 O 773.186 0.67587 -1.82059 0
M  V30 7707 C 770.316 0.81024 -3.37716 0
M  V30 7708 C 769.27 0.0833126 -4.27919 0
M  V30 7709 C 768.596 1.11185 -5.23012 0
M  V30 7710 C 769.896 -1.07107 -5.112 0
M  V30 7711 H 771.59 -0.883452 -2.86069 0
M  V30 7712 H 769.136 -0.426283 -1.37546 0
M  V30 7713 H 771.089 1.25927 -4.02145 0
M  V30 7714 H 769.813 1.62413 -2.83354 0
M  V30 7715 H 768.472 -0.346043 -3.64963 0
M  V30 7716 H 768.12 1.91917 -4.64948 0
M  V30 7717 H 767.82 0.63026 -5.8421 0
M  V30 7718 H 769.344 1.56068 -5.90318 0
M  V30 7719 H 770.758 -0.700726 -5.69002 0
M  V30 7720 H 769.155 -1.48196 -5.81514 0
M  V30 7721 H 770.225 -1.89513 -4.46332 0
M  V30 7722 N 771.568 1.50203 -0.477153 0
M  V30 7723 C 772.531 2.27194 0.302599 0
M  V30 7724 C 773.531 1.32221 0.915112 0
M  V30 7725 O 774.721 1.55593 0.783348 0
M  V30 7726 C 771.853 3.0938 1.43167 0
M  V30 7727 H 773.046 2.97575 -0.372678 0
M  V30 7728 H 770.599 1.54578 -0.231392 0
M  V30 7729 H 771.334 2.43509 2.14182 0
M  V30 7730 H 771.119 3.79181 0.998197 0
M  V30 7731 H 772.609 3.67592 1.98157 0
M  V30 7732 N 773.046 0.209999 1.56195 0
M  V30 7733 C 773.976 -0.699746 2.22769 0
M  V30 7734 C 774.957 -1.20993 1.1956 0
M  V30 7735 O 776.142 -1.25605 1.48112 0
M  V30 7736 C 773.272 -1.91302 2.89863 0
M  V30 7737 C 772.226 -1.53715 3.99444 0
M  V30 7738 C 771.552 -2.82826 4.53777 0
M  V30 7739 C 772.852 -0.735836 5.17091 0
M  V30 7740 H 774.546 -0.144716 2.9905 0
M  V30 7741 H 772.092 -0.0681645 1.43839 0
M  V30 7742 H 774.045 -2.5548 3.35124 0
M  V30 7743 H 772.769 -2.49283 2.11011 0
M  V30 7744 H 771.428 -0.918892 3.54897 0
M  V30 7745 H 771.076 -3.38927 3.71669 0
M  V30 7746 H 770.776 -2.58415 5.27727 0
M  V30 7747 H 772.3 -3.47966 5.01749 0
M  V30 7748 H 773.714 -1.28105 5.58804 0
M  V30 7749 H 772.111 -0.589272 5.972 0
M  V30 7750 H 773.181 0.260004 4.84202 0
M  V30 7751 N 774.524 -1.57472 -0.0634922 0
M  V30 7752 C 775.487 -2.03268 -1.059 0
M  V30 7753 C 776.487 -0.931028 -1.31105 0
M  V30 7754 O 777.677 -1.19567 -1.26686 0
M  V30 7755 C 774.809 -2.42039 -2.40062 0
M  V30 7756 H 776.002 -2.92454 -0.664119 0
M  V30 7757 H 773.555 -1.53206 -0.309444 0
M  V30 7758 H 774.29 -1.55904 -2.84367 0
M  V30 7759 H 774.075 -3.22437 -2.23108 0
M  V30 7760 H 775.565 -2.78017 -3.11603 0
M  V30 7761 N 776.003 0.335068 -1.53997 0
M  V30 7762 C 777.28 1.09188 -1.62288 0
M  V30 7763 C 777.66 2.0626 -0.449458 0
M  V30 7764 O 777.008 2.21596 0.557444 0
M  V30 7765 C 777.218 1.80403 -2.98757 0
M  V30 7766 C 778.566 2.33841 -3.54406 0
M  V30 7767 O 779.59 1.90487 -3.00987 0
M  V30 7768 O 778.449 3.1318 -4.47862 0
M  V30 7769 H 775.543 0.502621 -0.656736 0
M  V30 7770 H 778.089 0.33588 -1.66343 0
M  V30 7771 H 776.861 1.09732 -3.75599 0
M  V30 7772 H 776.484 2.62841 -2.9833 0
M  V30 7773 N 777.481 1.45874 0.596531 0
M  V30 7774 C 778.727 1.5069 1.35722 0
M  V30 7775 C 779.06 0.152506 1.936 0
M  V30 7776 O 778.335 -0.834411 1.75692 0
M  V30 7777 C 778.618 2.59474 2.4969 0
M  V30 7778 C 778.471 4.04396 1.96937 0
M  V30 7779 C 779.79 2.64451 3.51787 0
M  V30 7780 H 776.909 0.548611 0.492133 0
M  V30 7781 H 779.551 1.77741 0.671428 0
M  V30 7782 H 777.701 2.36539 3.08191 0
M  V30 7783 H 779.373 4.38576 1.43 0
M  V30 7784 H 777.616 4.14529 1.27859 0
M  V30 7785 H 778.287 4.76218 2.79143 0
M  V30 7786 H 780.763 2.85031 3.03145 0
M  V30 7787 H 779.639 3.42411 4.29006 0
M  V30 7788 H 779.9 1.69965 4.08123 0
M  V30 7789 N 778.959 -0.83999 1.33349 0
M  V30 7790 C 780.205 -1.59753 1.24927 0
M  V30 7791 C 780.538 -1.93318 -0.184855 0
M  V30 7792 O 779.813 -1.586 -1.12589 0
M  V30 7793 C 780.096 -2.90829 2.12345 0
M  V30 7794 C 779.949 -2.63953 3.6421 0
M  V30 7795 C 781.268 -3.92246 1.99577 0
M  V30 7796 H 778.387 -0.579654 0.45516 0
M  V30 7797 H 781.029 -0.968909 1.63439 0
M  V30 7798 H 779.179 -3.44478 1.79631 0
M  V30 7799 H 780.851 -2.16745 4.07209 0
M  V30 7800 H 779.094 -1.97671 3.86146 0
M  V30 7801 H 779.765 -3.57348 4.20721 0
M  V30 7802 H 782.241 -3.479 2.28265 0
M  V30 7803 H 781.117 -4.81793 2.62996 0
M  V30 7804 H 781.378 -4.3138 0.967673 0
M  V30 7805 N 780.437 -1.16799 -1.0581 0
M  V30 7806 C 781.387 -0.847231 -2.11674 0
M  V30 7807 C 782.371 0.175476 -1.5994 0
M  V30 7808 O 783.563 -0.0260602 -1.76981 0
M  V30 7809 C 780.692 -0.355446 -3.41455 0
M  V30 7810 C 779.778 -1.40922 -4.00002 0
M  V30 7811 N 780.169 -2.62096 -4.32596 0
M  V30 7812 C 778.467 -1.26562 -4.27666 0
M  V30 7813 C 779.168 -3.29759 -4.79201 0
M  V30 7814 N 778.144 -2.57138 -4.78938 0
M  V30 7815 H 781.946 -1.76862 -2.34727 0
M  V30 7816 H 779.46 -1.05577 -1.23399 0
M  V30 7817 H 781.457 -0.107231 -4.16762 0
M  V30 7818 H 780.117 0.559817 -3.19838 0
M  V30 7819 H 781.128 -2.99113 -4.22791 0
M  V30 7820 H 777.805 -0.411503 -4.15467 0
M  V30 7821 H 779.195 -4.33222 -5.13584 0
M  V30 7822 N 781.915 1.24427 -0.967243 0
M  V30 7823 C 782.825 2.29109 -0.504592 0
M  V30 7824 C 783.841 1.68495 0.434224 0
M  V30 7825 O 785.017 1.99041 0.307379 0
M  V30 7826 C 782.082 3.46133 0.198273 0
M  V30 7827 C 781.143 4.22149 -0.780313 0
M  V30 7828 C 780.376 5.33585 -0.110896 0
M  V30 7829 O 780.599 5.59676 1.10088 0
M  V30 7830 O 779.533 5.96522 -0.802823 0
M  V30 7831 H 783.359 2.708 -1.37482 0
M  V30 7832 H 780.944 1.30111 -0.73426 0
M  V30 7833 H 782.826 4.17205 0.593124 0
M  V30 7834 H 781.501 3.0642 1.04347 0
M  V30 7835 H 780.408 3.53454 -1.22561 0
M  V30 7836 H 781.741 4.65677 -1.59392 0
M  V30 7837 N 783.393 0.737304 1.3929 0
M  V30 7838 C 784.356 0.10731 2.28949 0
M  V30 7839 C 785.356 -0.664716 1.46418 0
M  V30 7840 O 786.546 -0.493392 1.67067 0
M  V30 7841 C 783.678 -0.857145 3.29948 0
M  V30 7842 H 784.871 0.89725 2.86163 0
M  V30 7843 H 782.424 0.503279 1.47976 0
M  V30 7844 H 783.159 -1.67336 2.77794 0
M  V30 7845 H 782.944 -0.306167 3.90903 0
M  V30 7846 H 784.434 -1.29444 3.97031 0
M  V30 7847 N 784.871 -1.49948 0.485112 0
M  V30 7848 C 785.803 -2.26691 -0.338222 0
M  V30 7849 C 786.816 -1.32584 -0.944742 0
M  V30 7850 O 788.005 -1.57989 -0.830772 0
M  V30 7851 C 785.105 -3.04405 -1.48966 0
M  V30 7852 C 784.278 -4.25971 -0.993371 0
M  V30 7853 C 783.337 -4.85861 -2.02052 0
M  V30 7854 O 782.363 -5.46382 -1.59547 0
M  V30 7855 N 783.565 -4.74101 -3.34975 0
M  V30 7856 H 786.33 -2.97989 0.319748 0
M  V30 7857 H 783.891 -1.58772 0.316714 0
M  V30 7858 H 785.883 -3.41348 -2.17403 0
M  V30 7859 H 784.453 -2.35815 -2.05207 0
M  V30 7860 H 783.673 -3.93971 -0.134424 0
M  V30 7861 H 784.961 -5.0476 -0.639934 0
M  V30 7862 H 784.359 -4.26002 -3.72208 0
M  V30 7863 H 782.916 -5.15274 -3.9917 0
M  V30 7864 N 786.349 -0.21828 -1.56081 0
M  V30 7865 C 787.259 0.704602 -2.23769 0
M  V30 7866 C 788.275 1.21633 -1.24425 0
M  V30 7867 O 789.451 1.25862 -1.57228 0
M  V30 7868 C 786.516 1.89725 -2.90182 0
M  V30 7869 C 785.577 1.42782 -4.0486 0
M  V30 7870 C 784.81 2.56361 -4.68097 0
M  V30 7871 O 785.033 3.74417 -4.30312 0
M  V30 7872 O 783.967 2.2775 -5.57148 0
M  V30 7873 H 787.793 0.158007 -3.03289 0
M  V30 7874 H 785.378 0.0120279 -1.49395 0
M  V30 7875 H 787.26 2.59382 -3.32113 0
M  V30 7876 H 785.935 2.432 -2.13624 0
M  V30 7877 H 784.842 0.699359 -3.67505 0
M  V30 7878 H 786.175 0.939474 -4.83151 0
M  V30 7879 N 787.827 1.57504 0.0551401 0
M  V30 7880 C 789.238 1.76626 0.604979 0
M  V30 7881 C 789.589 0.845978 1.77024 0
M  V30 7882 O 788.714 0.0341936 2.16373 0
M  V30 7883 C 789.309 3.203 1.10425 0
M  V30 7884 C 787.868 3.4071 1.59981 0
M  V30 7885 C 787.015 2.72258 0.526414 0
M  V30 7886 H 789.966 1.57775 -0.171072 0
M  V30 7887 H 789.987 3.25377 1.97256 0
M  V30 7888 H 789.499 3.87255 0.255939 0
M  V30 7889 H 787.6 2.78892 2.47083 0
M  V30 7890 H 787.713 4.49227 1.66528 0
M  V30 7891 H 786.077 2.35283 0.97539 0
M  V30 7892 H 786.86 3.41879 -0.311991 0
M  V30 7893 N 789.305 -0.326896 1.54172 0
M  V30 7894 C 790.545 -1.07349 1.73941 0
M  V30 7895 C 790.909 -1.85355 0.50075 0
M  V30 7896 O 792.11 -2.62562 0.575731 0
M  V30 7897 C 790.381 -1.97636 2.97783 0
M  V30 7898 S 791.94 -2.79292 3.3844 0
M  V30 7899 H 788.758 -0.362459 0.611673 0
M  V30 7900 H 791.36 -0.349884 1.92344 0
M  V30 7901 H 790.064 -1.39158 3.86087 0
M  V30 7902 H 789.595 -2.74406 2.81895 0
M  V30 7903 H 791.61 -4.00106 2.93478 0
M  V30 7904 N 790.784 -1.46188 -0.588786 0
M  V30 7905 C 792.009 -1.5498 -1.37826 0
M  V30 7906 C 792.434 -0.189498 -1.87143 0
M  V30 7907 O 791.792 0.829293 -1.61222 0
M  V30 7908 C 791.84 -2.55369 -2.54596 0
M  V30 7909 O 790.944 -2.08452 -3.55839 0
M  V30 7910 H 790.285 -0.521741 -0.41071 0
M  V30 7911 H 792.815 -1.91708 -0.714779 0
M  V30 7912 H 792.825 -2.74782 -3.01594 0
M  V30 7913 H 791.5 -3.54155 -2.18052 0
M  V30 7914 H 790.077 -1.98999 -3.15363 0
M  V30 7915 N 792.262 0.832906 -1.33792 0
M  V30 7916 C 793.192 1.95828 -1.27176 0
M  V30 7917 C 794.173 1.69427 -0.15114 0
M  V30 7918 O 795.358 1.91167 -0.341886 0
M  V30 7919 C 792.488 3.32098 -1.01629 0
M  V30 7920 C 791.442 3.72912 -2.10049 0
M  V30 7921 C 790.768 5.07054 -1.69706 0
M  V30 7922 C 792.068 3.86064 -3.51783 0
M  V30 7923 H 793.762 2.01622 -2.21334 0
M  V30 7924 H 791.308 0.96866 -1.0655 0
M  V30 7925 H 793.261 4.10402 -0.956474 0
M  V30 7926 H 791.985 3.26577 -0.0390956 0
M  V30 7927 H 790.644 2.96876 -2.15082 0
M  V30 7928 H 790.292 4.9801 -0.706737 0
M  V30 7929 H 789.992 5.35333 -2.42264 0
M  V30 7930 H 791.516 5.87827 -1.65202 0
M  V30 7931 H 792.93 4.54665 -3.49218 0
M  V30 7932 H 791.327 4.25787 -4.22878 0
M  V30 7933 H 792.397 2.88344 -3.89854 0
M  V30 7934 N 793.74 1.17359 1.05189 0
M  V30 7935 C 794.67 0.91365 2.14883 0
M  V30 7936 C 795.651 -0.144365 1.69486 0
M  V30 7937 O 796.836 0.00587861 1.94199 0
M  V30 7938 C 793.966 0.426196 3.44675 0
M  V30 7939 C 792.92 1.4234 4.03638 0
M  V30 7940 C 792.246 0.793902 5.28773 0
M  V30 7941 C 793.546 2.7966 4.41121 0
M  V30 7942 H 795.24 1.831 2.36885 0
M  V30 7943 H 792.786 0.881781 1.13845 0
M  V30 7944 H 794.739 0.231767 4.20762 0
M  V30 7945 H 793.463 -0.526693 3.22325 0
M  V30 7946 H 792.122 1.60457 3.2962 0
M  V30 7947 H 791.77 -0.165824 5.02727 0
M  V30 7948 H 791.47 1.45959 5.69183 0
M  V30 7949 H 792.994 0.609747 6.07548 0
M  V30 7950 H 794.408 2.6526 5.08242 0
M  V30 7951 H 792.805 3.42807 4.92548 0
M  V30 7952 H 793.875 3.34068 3.51464 0
M  V30 7953 N 795.218 -1.23913 0.973828 0
M  V30 7954 C 796.448 -1.95911 0.655938 0
M  V30 7955 C 796.856 -1.72375 -0.779967 0
M  V30 7956 O 796.199 -1.00807 -1.5357 0
M  V30 7957 C 796.261 -3.49103 0.858324 0
M  V30 7958 C 795.925 -3.96347 2.27504 0
M  V30 7959 C 796.922 -4.05537 3.25324 0
M  V30 7960 C 794.607 -4.29509 2.60437 0
M  V30 7961 C 796.601 -4.47233 4.5416 0
M  V30 7962 C 794.288 -4.70887 3.89498 0
M  V30 7963 C 795.286 -4.79714 4.86172 0
M  V30 7964 O 794.974 -5.20166 6.1293 0
M  V30 7965 H 794.706 -0.630721 0.243244 0
M  V30 7966 H 797.26 -1.58534 1.30599 0
M  V30 7967 H 795.49 -3.86405 0.151097 0
M  V30 7968 H 797.179 -4.02311 0.538592 0
M  V30 7969 H 797.945 -3.80128 3.0121 0
M  V30 7970 H 793.824 -4.21853 1.85906 0
M  V30 7971 H 797.368 -4.54038 5.29618 0
M  V30 7972 H 793.265 -4.95744 4.1341 0
M  V30 7973 H 794.033 -5.38298 6.16586 0
M  V30 7974 N 796.696 -0.74468 -1.38897 0
M  V30 7975 C 797.659 -0.11945 -2.28889 0
M  V30 7976 C 798.659 0.656942 -1.46768 0
M  V30 7977 O 799.849 0.484525 -1.67326 0
M  V30 7978 C 796.981 0.839635 -3.30398 0
M  V30 7979 H 798.174 -0.912414 -2.85683 0
M  V30 7980 H 795.727 -0.511119 -1.47707 0
M  V30 7981 H 796.462 1.6586 -2.78677 0
M  V30 7982 H 796.247 0.285432 -3.9106 0
M  V30 7983 H 797.737 1.27337 -3.97712 0
M  V30 7984 N 798.174 1.49689 -0.493057 0
M  V30 7985 C 799.585 1.8665 -0.0433032 0
M  V30 7986 C 799.936 1.40607 1.36836 0
M  V30 7987 O 799.061 0.780503 2.01834 0
M  V30 7988 C 799.656 3.38724 -0.0718069 0
M  V30 7989 C 798.215 3.75015 0.32257 0
M  V30 7990 C 797.362 2.7366 -0.4478 0
M  V30 7991 H 800.313 1.42119 -0.706246 0
M  V30 7992 H 800.334 3.73522 0.725347 0
M  V30 7993 H 799.846 3.72204 -1.09935 0
M  V30 7994 H 797.947 3.47142 1.35364 0
M  V30 7995 H 798.06 4.79099 0.00864259 0
M  V30 7996 H 796.424 2.54498 0.101354 0
M  V30 7997 H 797.207 3.09985 -1.47527 0
M  V30 7998 N 799.652 0.226554 1.55963 0
M  V30 7999 C 800.562 -0.692725 2.24139 0
M  V30 8000 C 801.578 -1.20971 1.25068 0
M  V30 8001 O 802.754 -1.25027 1.57893 0
M  V30 8002 C 799.819 -1.88183 2.91184 0
M  V30 8003 C 798.88 -1.40633 4.05612 0
M  V30 8004 C 798.113 -2.53875 4.6945 0
M  V30 8005 O 798.336 -3.72129 4.32292 0
M  V30 8006 O 797.27 -2.24792 5.58348 0
M  V30 8007 H 801.096 -0.141921 3.03368 0
M  V30 8008 H 798.681 -0.0041049 1.49399 0
M  V30 8009 H 800.563 -2.57617 3.33484 0
M  V30 8010 H 799.238 -2.42064 2.14911 0
M  V30 8011 H 798.145 -0.67986 3.67871 0
M  V30 8012 H 799.478 -0.913838 4.83642 0
M  V30 8013 N 801.13 -1.57531 -0.0467866 0
M  V30 8014 C 802.358 -1.92696 -0.753371 0
M  V30 8015 C 802.773 -0.824792 -1.69831 0
M  V30 8016 O 802.13 0.200155 -1.81399 0
M  V30 8017 C 802.181 -3.27728 -1.52566 0
M  V30 8018 O 801.902 -4.3371 -0.618674 0
M  V30 8019 C 803.403 -3.77066 -2.33101 0
M  V30 8020 H 800.623 -0.636367 -0.212788 0
M  V30 8021 H 803.167 -2.04498 -0.00959361 0
M  V30 8022 H 801.322 -3.17378 -2.22148 0
M  V30 8023 H 801.736 -5.11548 -1.15839 0
M  V30 8024 H 803.21 -4.74109 -2.82709 0
M  V30 8025 H 803.687 -3.07348 -3.13741 0
M  V30 8026 H 804.293 -3.90442 -1.68628 0
M  V30 8027 N 802.608 0.318715 -1.54344 0
M  V30 8028 C 803.855 1.05608 -1.72781 0
M  V30 8029 C 804.183 1.87854 -0.504083 0
M  V30 8030 O 803.438 1.88826 0.51414 0
M  V30 8031 C 803.737 2.00514 -2.95853 0
M  V30 8032 C 803.403 1.34385 -4.30409 0
M  V30 8033 C 802.065 1.16081 -4.66989 0
M  V30 8034 C 804.417 0.869627 -5.13894 0
M  V30 8035 C 801.745 0.490114 -5.84649 0
M  V30 8036 C 804.097 0.212735 -6.32242 0
M  V30 8037 C 802.761 0.0175882 -6.67498 0
M  V30 8038 H 802.031 0.386449 -0.632249 0
M  V30 8039 H 804.678 0.332729 -1.88587 0
M  V30 8040 H 802.983 2.79317 -2.74753 0
M  V30 8041 H 804.68 2.57605 -3.07312 0
M  V30 8042 H 801.27 1.49634 -4.01631 0
M  V30 8043 H 805.454 0.998809 -4.86146 0
M  V30 8044 H 800.71 0.327767 -6.10521 0
M  V30 8045 H 804.884 -0.162699 -6.9621 0
M  V30 8046 H 802.511 -0.504137 -7.58527 0
M  V30 8047 N 804.086 1.46499 0.581025 0
M  V30 8048 C 805.332 1.52121 1.34116 0
M  V30 8049 C 805.665 0.173031 1.93428 0
M  V30 8050 O 804.94 -0.815729 1.76568 0
M  V30 8051 C 805.223 2.62108 2.46924 0
M  V30 8052 C 805.076 4.06462 1.92636 0
M  V30 8053 C 806.395 2.68167 3.48962 0
M  V30 8054 H 803.514 0.5538 0.486287 0
M  V30 8055 H 806.156 1.78443 0.652538 0
M  V30 8056 H 804.306 2.39794 3.05665 0
M  V30 8057 H 805.978 4.40068 1.3834 0
M  V30 8058 H 804.221 4.15862 1.23455 0
M  V30 8059 H 804.892 4.79152 2.74076 0
M  V30 8060 H 807.368 2.8823 3.00104 0
M  V30 8061 H 806.244 3.46942 4.2535 0
M  V30 8062 H 806.505 1.74284 4.06297 0
M  V30 8063 N 805.565 -0.825799 1.34232 0
M  V30 8064 C 806.497 -1.94401 1.21413 0
M  V30 8065 C 807.51 -1.6218 0.141902 0
M  V30 8066 O 808.699 -1.74109 0.3935 0
M  V30 8067 C 805.799 -3.28257 0.842635 0
M  V30 8068 C 804.972 -3.88521 2.00924 0
M  V30 8069 C 804.031 -5.00752 1.61661 0
M  V30 8070 O 803.057 -5.19201 2.33279 0
M  V30 8071 N 804.259 -5.78084 0.52911 0
M  V30 8072 H 807.024 -2.05931 2.17744 0
M  V30 8073 H 804.585 -1.00223 1.27149 0
M  V30 8074 H 806.577 -4.00781 0.561822 0
M  V30 8075 H 805.147 -3.12585 -0.0304029 0
M  V30 8076 H 804.367 -3.08425 2.45495 0
M  V30 8077 H 805.655 -4.25516 2.78951 0
M  V30 8078 H 805.053 -5.65661 -0.0663322 0
M  V30 8079 H 803.61 -6.51072 0.308017 0
M  V30 8080 N 807.043 -1.17915 -1.04565 0
M  V30 8081 C 807.973 -0.925033 -2.14395 0
M  V30 8082 C 808.954 0.135375 -1.6956 0
M  V30 8083 O 810.139 -0.0161774 -1.94193 0
M  V30 8084 C 807.269 -0.444469 -3.44444 0
M  V30 8085 C 806.223 -1.44478 -4.02877 0
M  V30 8086 C 805.549 -0.821933 -5.28345 0
M  V30 8087 C 806.849 -2.81995 -4.39632 0
M  V30 8088 H 808.543 -1.84354 -2.35911 0
M  V30 8089 H 806.089 -0.887806 -1.13375 0
M  V30 8090 H 808.042 -0.254078 -4.20633 0
M  V30 8091 H 806.766 0.509592 -3.226 0
M  V30 8092 H 805.425 -1.62203 -3.28764 0
M  V30 8093 H 805.073 0.139161 -5.02807 0
M  V30 8094 H 804.773 -1.48976 -5.68401 0
M  V30 8095 H 806.297 -0.641959 -6.07216 0
M  V30 8096 H 807.711 -2.67952 -5.06828 0
M  V30 8097 H 806.108 -3.45414 -4.90723 0
M  V30 8098 H 807.178 -3.35927 -3.49687 0
M  V30 8099 N 808.521 1.23394 -0.980386 0
M  V30 8100 C 809.798 1.87242 -0.565667 0
M  V30 8101 C 810.178 1.88151 0.957197 0
M  V30 8102 O 809.526 1.36309 1.8339 0
M  V30 8103 C 809.736 3.28743 -1.17172 0
M  V30 8104 C 811.084 4.05335 -1.26446 0
M  V30 8105 O 812.108 3.37962 -1.12517 0
M  V30 8106 O 810.967 5.25908 -1.48604 0
M  V30 8107 H 808.061 0.80477 -0.190459 0
M  V30 8108 H 810.607 1.3127 -1.07547 0
M  V30 8109 H 809.379 3.22647 -2.21392 0
M  V30 8110 H 809.002 3.92305 -0.646739 0
M  V30 8111 N 809.999 0.752036 1.385 0
M  V30 8112 C 810.931 0.0835089 2.29048 0
M  V30 8113 C 811.944 -0.685402 1.47669 0
M  V30 8114 O 813.133 -0.526748 1.70551 0
M  V30 8115 C 810.233 -0.905772 3.26572 0
M  V30 8116 C 809.406 -0.194828 4.36966 0
M  V30 8117 C 808.465 -1.09464 5.14688 0
M  V30 8118 O 807.491 -0.565743 5.66381 0
M  V30 8119 N 808.693 -2.42287 5.2752 0
M  V30 8120 H 811.458 0.861142 2.87062 0
M  V30 8121 H 809.019 0.602689 1.50264 0
M  V30 8122 H 811.011 -1.51072 3.75446 0
M  V30 8123 H 809.581 -1.58449 2.69467 0
M  V30 8124 H 808.801 0.590812 3.89747 0
M  V30 8125 H 810.089 0.297189 5.07931 0
M  V30 8126 H 809.487 -2.87715 4.8707 0
M  V30 8127 H 808.044 -2.97836 5.79773 0
M  V30 8128 N 811.477 -1.49425 0.500989 0
M  V30 8129 C 812.893 -1.58826 0.156951 0
M  V30 8130 C 813.093 -1.50622 -1.33848 0
M  V30 8131 O 812.149 -1.38016 -2.11442 0
M  V30 8132 C 813.462 -2.91611 0.73374 0
M  V30 8133 C 815.01 -3.05076 0.699846 0
M  V30 8134 C 815.485 -4.40479 1.2547 0
M  V30 8135 N 816.976 -4.4697 1.2154 0
M  V30 8136 C 817.711 -5.50189 1.6149 0
M  V30 8137 N 817.207 -6.60512 2.09034 0
M  V30 8138 N 819 -5.40903 1.52907 0
M  V30 8139 H 811.151 -1.53001 1.47324 0
M  V30 8140 H 813.414 -0.724765 0.61108 0
M  V30 8141 H 813.12 -3.03182 1.78251 0
M  V30 8142 H 812.994 -3.767 0.19417 0
M  V30 8143 H 815.381 -2.93134 -0.340085 0
M  V30 8144 H 815.462 -2.2167 1.27656 0
M  V30 8145 H 815.106 -4.53172 2.29341 0
M  V30 8146 H 815.036 -5.22524 0.653921 0
M  V30 8147 H 817.527 -3.67819 0.867043 0
M  V30 8148 H 817.84 -7.35372 2.37588 0
M  V30 8149 H 816.185 -6.61553 2.13008 0
M  V30 8150 H 819.376 -4.53606 1.15583 0
M  V30 8151 H 819.549 -6.21219 1.84365 0
M  V30 8152 N 812.955 -0.234822 -1.55841 0
M  V30 8153 C 813.885 0.664217 -2.23854 0
M  V30 8154 C 814.866 1.19076 -1.2147 0
M  V30 8155 O 816.051 1.23232 -1.50091 0
M  V30 8156 C 813.181 1.86666 -2.9287 0
M  V30 8157 C 812.135 1.47341 -4.01839 0
M  V30 8158 C 811.461 2.75571 -4.58219 0
M  V30 8159 C 812.761 0.653479 -5.18196 0
M  V30 8160 H 814.455 0.0971213 -2.99242 0
M  V30 8161 H 812.001 0.0452724 -1.43929 0
M  V30 8162 H 813.954 2.50116 -3.39146 0
M  V30 8163 H 812.678 2.45894 -2.1495 0
M  V30 8164 H 811.337 0.862314 -3.56314 0
M  V30 8165 H 810.985 3.32971 -3.77014 0
M  V30 8166 H 810.685 2.49987 -5.31771 0
M  V30 8167 H 812.209 3.39939 -5.07221 0
M  V30 8168 H 813.623 1.19198 -5.60771 0
M  V30 8169 H 812.02 0.494188 -5.98062 0
M  V30 8170 H 813.09 -0.337004 -4.83728 0
M  V30 8171 N 814.433 1.57553 0.0384317 0
M  V30 8172 C 815.658 1.93485 0.746872 0
M  V30 8173 C 816.083 0.834069 1.68597 0
M  V30 8174 O 815.441 -0.210902 1.80069 0
M  V30 8175 C 815.489 3.28463 1.4881 0
M  V30 8176 O 814.593 3.20051 2.60079 0
M  V30 8177 H 813.934 0.632675 0.201539 0
M  V30 8178 H 816.464 2.046 -0.00329815 0
M  V30 8179 H 816.474 3.63132 1.86009 0
M  V30 8180 H 815.149 4.08147 0.799297 0
M  V30 8181 H 813.726 2.96998 2.25492 0
M  V30 8182 N 815.911 -0.310526 1.54511 0
M  V30 8183 C 817.327 -0.655637 1.45511 0
M  V30 8184 C 817.527 -1.91114 0.638564 0
M  V30 8185 O 816.583 -2.52098 0.142497 0
M  V30 8186 C 817.896 -0.817501 2.89374 0
M  V30 8187 C 819.444 -0.914003 2.99358 0
M  V30 8188 C 819.919 -1.10794 4.44397 0
M  V30 8189 N 821.41 -1.17437 4.48066 0
M  V30 8190 C 822.145 -1.34255 5.57461 0
M  V30 8191 N 821.641 -1.48032 6.768 0
M  V30 8192 N 823.434 -1.37067 5.45132 0
M  V30 8193 H 815.585 0.514506 2.06074 0
M  V30 8194 H 817.848 0.168478 0.932909 0
M  V30 8195 H 817.554 0.034003 3.51684 0
M  V30 8196 H 817.428 -1.7094 3.36243 0
M  V30 8197 H 819.815 -1.756 2.37168 0
M  V30 8198 H 819.896 0.00170958 2.558 0
M  V30 8199 H 819.54 -0.270743 5.07178 0
M  V30 8200 H 819.47 -2.03773 4.85576 0
M  V30 8201 H 821.961 -1.08181 3.62084 0
M  V30 8202 H 822.274 -1.60593 7.5593 0
M  V30 8203 H 820.619 -1.45105 6.79683 0
M  V30 8204 H 823.81 -1.25909 4.50849 0
M  V30 8205 H 823.983 -1.49831 6.3044 0
M  V30 8206 N 817.389 -1.46805 -0.573248 0
M  V30 8207 C 818.319 -1.60951 -1.69165 0
M  V30 8208 C 819.3 -0.45948 -1.63777 0
M  V30 8209 O 820.485 -0.68688 -1.81647 0
M  V30 8210 C 817.615 -1.60844 -3.07809 0
M  V30 8211 C 816.569 -2.74913 -3.28035 0
M  V30 8212 C 815.895 -2.59871 -4.67302 0
M  V30 8213 C 817.195 -4.16654 -3.14955 0
M  V30 8214 H 818.889 -2.54574 -1.57582 0
M  V30 8215 H 816.435 -1.22516 -0.756686 0
M  V30 8216 H 818.388 -1.69334 -3.85881 0
M  V30 8217 H 817.112 -0.637714 -3.20314 0
M  V30 8218 H 815.771 -2.65908 -2.52366 0
M  V30 8219 H 815.419 -1.60861 -4.76585 0
M  V30 8220 H 815.119 -3.36386 -4.81786 0
M  V30 8221 H 816.643 -2.70265 -5.4753 0
M  V30 8222 H 818.057 -4.26721 -3.82861 0
M  V30 8223 H 816.454 -4.93831 -3.40956 0
M  V30 8224 H 817.524 -4.36146 -2.11908 0
M  V30 8225 N 818.867 0.818669 -1.34668 0
M  V30 8226 C 819.777 1.9616 -1.2868 0
M  V30 8227 C 820.793 1.72918 -0.193742 0
M  V30 8228 O 821.969 1.96951 -0.420975 0
M  V30 8229 C 819.034 3.30534 -1.04633 0
M  V30 8230 C 818.095 3.66755 -2.23136 0
M  V30 8231 C 817.328 4.94717 -2.00227 0
M  V30 8232 O 817.551 5.62218 -0.96264 0
M  V30 8233 O 816.485 5.28915 -2.87286 0
M  V30 8234 H 820.311 2.04157 -2.24842 0
M  V30 8235 H 817.896 0.954691 -1.14917 0
M  V30 8236 H 819.778 4.11005 -0.930216 0
M  V30 8237 H 818.453 3.23495 -0.115139 0
M  V30 8238 H 817.36 2.8671 -2.40308 0
M  V30 8239 H 818.693 3.78484 -3.1466 0
M  V30 8240 N 820.346 1.18468 1.03938 0
M  V30 8241 C 821.256 0.927889 2.1547 0
M  V30 8242 C 822.272 -0.108447 1.73662 0
M  V30 8243 O 823.448 0.0737636 2.01265 0
M  V30 8244 C 820.513 0.458494 3.43655 0
M  V30 8245 C 819.574 1.56295 3.99838 0
M  V30 8246 C 818.807 1.11586 5.21904 0
M  V30 8247 O 819.03 -0.0249057 5.70395 0
M  V30 8248 O 817.964 1.91412 5.70653 0
M  V30 8249 H 821.79 1.86116 2.39989 0
M  V30 8250 H 819.375 0.966607 1.13917 0
M  V30 8251 H 821.257 0.204861 4.20902 0
M  V30 8252 H 819.932 -0.446464 3.20606 0
M  V30 8253 H 818.839 1.87061 3.23974 0
M  V30 8254 H 820.172 2.44408 4.2723 0
M  V30 8255 N 821.824 -1.22873 0.986916 0
M  V30 8256 C 822.756 -2.23889 0.490537 0
M  V30 8257 C 823.769 -1.57523 -0.411144 0
M  V30 8258 O 824.958 -1.7721 -0.214236 0
M  V30 8259 C 822.058 -3.37488 -0.30902 0
M  V30 8260 C 821.231 -4.33438 0.587354 0
M  V30 8261 C 820.29 -5.25958 -0.159467 0
M  V30 8262 O 819.316 -5.67394 0.453115 0
M  V30 8263 N 820.518 -5.62265 -1.44355 0
M  V30 8264 H 823.283 -2.67109 1.35914 0
M  V30 8265 H 820.844 -1.37111 0.860937 0
M  V30 8266 H 822.836 -3.96365 -0.817139 0
M  V30 8267 H 821.406 -2.934 -1.07868 0
M  V30 8268 H 820.626 -3.72969 1.27622 0
M  V30 8269 H 821.914 -4.94495 1.19801 0
M  V30 8270 H 821.312 -5.30562 -1.96266 0
M  V30 8271 H 819.869 -6.23585 -1.89698 0
M  V30 8272 N 823.302 -0.75937 -1.38099 0
M  V30 8273 C 824.542 -0.323116 -2.0183 0
M  V30 8274 C 824.906 1.07658 -1.58977 0
M  V30 8275 O 826.107 1.61227 -2.1508 0
M  V30 8276 C 824.378 -0.448234 -3.54578 0
M  V30 8277 S 825.937 -0.0954152 -4.38696 0
M  V30 8278 H 822.755 -0.125013 -0.699923 0
M  V30 8279 H 825.357 -0.991262 -1.68506 0
M  V30 8280 H 824.061 -1.46778 -3.83255 0
M  V30 8281 H 823.592 0.236895 -3.92686 0
M  V30 8282 H 825.607 1.11312 -4.83554 0
M  V30 8283 N 824.78 1.49157 -0.508906 0
M  V30 8284 C 826.026 2.02773 0.0328469 0
M  V30 8285 C 826.359 1.38714 1.35912 0
M  V30 8286 O 825.634 0.525536 1.87266 0
M  V30 8287 C 825.917 3.59664 0.177088 0
M  V30 8288 C 825.77 4.34239 -1.17287 0
M  V30 8289 C 827.089 4.30505 0.913977 0
M  V30 8290 H 824.208 0.736926 0.0104631 0
M  V30 8291 H 826.85 1.781 -0.661851 0
M  V30 8292 H 825 3.80818 0.768774 0
M  V30 8293 H 826.672 4.24561 -1.80404 0
M  V30 8294 H 824.915 3.96486 -1.76016 0
M  V30 8295 H 825.586 5.42397 -1.02516 0
M  V30 8296 H 828.062 4.14054 0.412084 0
M  V30 8297 H 826.938 5.40012 0.983759 0
M  V30 8298 H 827.199 3.96302 1.95951 0
M  V30 8299 N 826.258 0.243083 1.55714 0
M  V30 8300 C 827.535 -0.432851 1.90751 0
M  V30 8301 C 827.915 -1.76153 1.16333 0
M  V30 8302 O 827.263 -2.26783 0.279565 0
M  V30 8303 C 827.473 -0.604685 3.43722 0
M  V30 8304 C 828.821 -0.90231 4.14902 0
M  V30 8305 O 829.845 -0.690689 3.49439 0
M  V30 8306 O 828.704 -1.3051 5.30688 0
M  V30 8307 H 825.798 -0.231835 0.79384 0
M  V30 8308 H 828.344 0.286867 1.67258 0
M  V30 8309 H 827.116 0.331655 3.89892 0
M  V30 8310 H 826.739 -1.37509 3.73065 0
M  V30 8311 N 827.736 -1.57571 -0.0300757 0
M  V30 8312 C 828.699 -2.05468 -1.01565 0
M  V30 8313 C 829.699 -0.958628 -1.29101 0
M  V30 8314 O 830.889 -1.22228 -1.24121 0
M  V30 8315 C 828.021 -2.47077 -2.34874 0
M  V30 8316 H 829.214 -2.93797 -0.601936 0
M  V30 8317 H 826.767 -1.53828 -0.276878 0
M  V30 8318 H 827.502 -1.61901 -2.80996 0
M  V30 8319 H 827.287 -3.27097 -2.16218 0
M  V30 8320 H 828.777 -2.84564 -3.05635 0
M  V30 8321 N 829.214 0.302327 -1.54673 0
M  V30 8322 C 830.144 1.37759 -1.88533 0
M  V30 8323 C 831.125 1.52961 -0.744113 0
M  V30 8324 O 832.31 1.6649 -0.999731 0
M  V30 8325 C 829.44 2.74201 -2.13146 0
M  V30 8326 C 828.394 2.73765 -3.28993 0
M  V30 8327 C 827.72 4.13483 -3.39022 0
M  V30 8328 C 829.02 2.35624 -4.66132 0
M  V30 8329 H 830.714 1.0967 -2.78591 0
M  V30 8330 H 828.26 0.52613 -1.34044 0
M  V30 8331 H 830.213 3.49508 -2.35419 0
M  V30 8332 H 828.937 3.03812 -1.19858 0
M  V30 8333 H 827.596 2.00914 -3.06642 0
M  V30 8334 H 827.244 4.40269 -2.43253 0
M  V30 8335 H 826.944 4.14093 -4.16894 0
M  V30 8336 H 828.468 4.90572 -3.63553 0
M  V30 8337 H 829.882 3.00647 -4.88143 0
M  V30 8338 H 828.279 2.47449 -5.46707 0
M  V30 8339 H 829.349 1.30753 -4.66939 0
M  V30 8340 N 830.692 1.47107 0.565454 0
M  V30 8341 C 831.624 1.55024 1.6882 0
M  V30 8342 C 832.637 0.4371 1.56822 0
M  V30 8343 O 833.826 0.706315 1.63931 0
M  V30 8344 C 830.926 1.43069 3.0722 0
M  V30 8345 C 830.099 2.68807 3.45053 0
M  V30 8346 C 829.158 2.50806 4.62583 0
M  V30 8347 O 828.184 3.24593 4.67577 0
M  V30 8348 N 829.386 1.58093 5.58558 0
M  V30 8349 H 832.151 2.51836 1.62477 0
M  V30 8350 H 829.712 1.43382 0.751885 0
M  V30 8351 H 831.704 1.28773 3.83666 0
M  V30 8352 H 830.274 0.543721 3.07835 0
M  V30 8353 H 829.494 2.97923 2.58138 0
M  V30 8354 H 830.782 3.52298 3.67101 0
M  V30 8355 H 830.18 0.972807 5.57273 0
M  V30 8356 H 828.737 1.49753 6.34364 0
M  V30 8357 N 832.17 -0.811516 1.35101 0
M  V30 8358 C 833.133 -1.90467 1.27495 0
M  V30 8359 C 834.133 -1.59703 0.187516 0
M  V30 8360 O 835.323 -1.68528 0.440896 0
M  V30 8361 C 832.455 -3.26774 0.971154 0
M  V30 8362 H 833.648 -1.98631 2.2469 0
M  V30 8363 H 831.201 -1.00681 1.19553 0
M  V30 8364 H 831.936 -3.243 0.0028557 0
M  V30 8365 H 831.721 -3.50488 1.75785 0
M  V30 8366 H 833.211 -4.06804 0.943414 0
M  V30 8367 N 833.648 -1.19017 -1.03309 0
M  V30 8368 C 834.58 -0.881847 -2.11556 0
M  V30 8369 C 835.593 0.123711 -1.62329 0
M  V30 8370 O 836.782 -0.105141 -1.7819 0
M  V30 8371 C 833.882 -0.297634 -3.37591 0
M  V30 8372 C 833.055 -1.35072 -4.16022 0
M  V30 8373 C 832.114 -0.780812 -5.20375 0
M  V30 8374 O 831.14 -1.45745 -5.50224 0
M  V30 8375 N 832.342 0.417964 -5.78993 0
M  V30 8376 H 835.107 -1.81359 -2.38598 0
M  V30 8377 H 832.668 -1.0916 -1.19565 0
M  V30 8378 H 834.66 0.097374 -4.04583 0
M  V30 8379 H 833.23 0.538299 -3.0793 0
M  V30 8380 H 832.45 -1.92074 -3.4424 0
M  V30 8381 H 833.738 -2.06044 -4.65213 0
M  V30 8382 H 833.136 0.985281 -5.57054 0
M  V30 8383 H 831.693 0.754802 -6.47415 0
M  V30 8384 N 835.127 1.22348 -0.993418 0
M  V30 8385 C 836.375 1.90733 -0.668246 0
M  V30 8386 C 836.696 1.77732 0.802261 0
M  V30 8387 O 835.966 1.16486 1.57505 0
M  V30 8388 H 834.546 0.705966 -0.244174 0
M  V30 8389 H 837.208 1.48691 -1.26004 0
M  V30 8390 H 836.304 2.97883 -0.931239 0
M  V30 8391 N 836.605 0.766683 1.37694 0
M  V30 8392 C 837.852 0.328714 1.99814 0
M  V30 8393 C 838.18 -1.09333 1.60862 0
M  V30 8394 O 837.435 -1.7657 0.8439 0
M  V30 8395 C 837.734 0.413831 3.54996 0
M  V30 8396 C 837.4 1.7934 4.137 0
M  V30 8397 C 836.062 2.17092 4.29447 0
M  V30 8398 C 838.414 2.69776 4.45949 0
M  V30 8399 C 835.742 3.44726 4.74743 0
M  V30 8400 C 838.094 3.96814 4.92667 0
M  V30 8401 C 836.758 4.34618 5.0662 0
M  V30 8402 H 836.028 0.120285 0.731172 0
M  V30 8403 H 838.675 0.97972 1.64541 0
M  V30 8404 H 836.98 -0.320723 3.90485 0
M  V30 8405 H 838.677 0.0563369 4.0096 0
M  V30 8406 H 835.267 1.48997 4.01868 0
M  V30 8407 H 839.451 2.41871 4.33373 0
M  V30 8408 H 834.707 3.73917 4.83731 0
M  V30 8409 H 838.881 4.67022 5.16588 0
M  V30 8410 H 836.508 5.33578 5.41478 0
M  V30 8411 N 838.083 -1.48885 0.516809 0
M  V30 8412 C 839.494 -1.86557 0.0729921 0
M  V30 8413 C 839.845 -1.42767 -1.34581 0
M  V30 8414 O 838.97 -0.812514 -2.00567 0
M  V30 8415 C 839.565 -3.38567 0.125686 0
M  V30 8416 C 838.124 -3.75481 -0.262867 0
M  V30 8417 C 837.271 -2.72913 0.491281 0
M  V30 8418 H 840.222 -1.40978 0.728767 0
M  V30 8419 H 840.243 -3.74629 -0.665831 0
M  V30 8420 H 839.755 -3.70408 1.15842 0
M  V30 8421 H 837.856 -3.49251 -1.29824 0
M  V30 8422 H 837.969 -4.79052 0.067579 0
M  V30 8423 H 836.333 -2.54627 -0.0608525 0
M  V30 8424 H 837.116 -3.07599 1.5244 0
M  V30 8425 N 839.561 -0.251338 -1.55583 0
M  V30 8426 C 840.977 0.103409 -1.59265 0
M  V30 8427 C 841.177 1.56559 -1.26852 0
M  V30 8428 O 840.233 2.31071 -1.01796 0
M  V30 8429 C 841.546 -0.249781 -2.99661 0
M  V30 8430 C 843.094 -0.194442 -3.12395 0
M  V30 8431 C 843.569 -0.521728 -4.55019 0
M  V30 8432 N 845.06 -0.472393 -4.60785 0
M  V30 8433 C 845.795 -0.698737 -5.69127 0
M  V30 8434 N 845.291 -0.988443 -6.85713 0
M  V30 8435 N 847.084 -0.629143 -5.58568 0
M  V30 8436 H 839.235 -1.20484 -1.74921 0
M  V30 8437 H 841.498 -0.485092 -0.814488 0
M  V30 8438 H 841.204 -1.26577 -3.28133 0
M  V30 8439 H 841.078 0.420973 -3.74844 0
M  V30 8440 H 843.465 0.812229 -2.83702 0
M  V30 8441 H 843.546 -0.899111 -2.39478 0
M  V30 8442 H 843.19 -1.52597 -4.84434 0
M  V30 8443 H 843.12 0.204468 -5.26203 0
M  V30 8444 H 845.611 -0.257386 -3.77022 0
M  V30 8445 H 845.924 -1.14846 -7.64219 0
M  V30 8446 H 844.269 -1.02596 -6.87386 0
M  V30 8447 H 847.46 -0.402826 -4.66364 0
M  V30 8448 H 847.633 -0.808935 -6.42931 0
M  V30 8449 N 841.039 1.57585 0.0217189 0
M  V30 8450 C 842.264 1.94267 0.726309 0
M  V30 8451 C 842.689 0.851904 1.67703 0
M  V30 8452 O 842.047 -0.191792 1.80283 0
M  V30 8453 C 842.095 3.30023 1.45318 0
M  V30 8454 O 841.199 3.22791 2.5667 0
M  V30 8455 H 840.54 0.634777 0.194818 0
M  V30 8456 H 843.07 2.04585 -0.0249985 0
M  V30 8457 H 843.08 3.65084 1.82147 0
M  V30 8458 H 841.755 4.08972 0.755962 0
M  V30 8459 H 840.332 2.99373 2.2233 0
M  V30 8460 N 842.517 -0.29412 1.54831 0
M  V30 8461 C 843.449 -1.38476 1.82639 0
M  V30 8462 C 844.462 -1.46517 0.709694 0
M  V30 8463 O 845.651 -1.48712 0.987269 0
M  V30 8464 C 842.751 -2.76791 1.95551 0
M  V30 8465 C 841.924 -2.91599 3.26019 0
M  V30 8466 C 840.983 -4.10456 3.29261 0
M  V30 8467 O 840.009 -4.02214 4.02756 0
M  V30 8468 N 841.211 -5.21422 2.55145 0
M  V30 8469 H 843.976 -1.14974 2.76769 0
M  V30 8470 H 841.537 -0.484206 1.5449 0
M  V30 8471 H 843.529 -3.5456 1.95113 0
M  V30 8472 H 842.099 -2.93209 1.08384 0
M  V30 8473 H 841.319 -2.00886 3.39173 0
M  V30 8474 H 842.607 -2.98409 4.12104 0
M  V30 8475 H 842.005 -5.31 1.95078 0
M  V30 8476 H 840.562 -5.97501 2.60454 0
M  V30 8477 N 843.995 -1.47404 -0.557645 0
M  V30 8478 C 845.244 -1.53268 -1.31118 0
M  V30 8479 C 845.557 -0.199414 -1.94581 0
M  V30 8480 O 846.763 -0.136039 -2.71159 0
M  V30 8481 C 845.219 -2.70178 -2.37764 0
M  V30 8482 C 844.827 -4.10032 -1.80493 0
M  V30 8483 C 846.571 -2.85334 -3.14301 0
M  V30 8484 C 844.478 -5.18244 -2.84916 0
M  V30 8485 H 843.408 -0.570491 -0.493007 0
M  V30 8486 H 846.059 -1.73678 -0.592308 0
M  V30 8487 H 844.441 -2.43147 -3.12563 0
M  V30 8488 H 845.615 -4.46964 -1.12069 0
M  V30 8489 H 843.93 -3.99759 -1.16542 0
M  V30 8490 H 846.527 -3.63347 -3.92279 0
M  V30 8491 H 846.87 -1.93761 -3.68459 0
M  V30 8492 H 847.403 -3.12133 -2.46613 0
M  V30 8493 H 844.142 -6.11691 -2.35614 0
M  V30 8494 H 843.662 -4.85829 -3.51753 0
M  V30 8495 H 845.341 -5.45174 -3.48417 0
M  V30 8496 N 845.473 0.80434 -1.35529 0
M  V30 8497 C 846.698 1.598 -1.32207 0
M  V30 8498 C 847.123 1.87848 0.0974226 0
M  V30 8499 O 846.481 1.46728 1.06492 0
M  V30 8500 C 846.529 2.90483 -2.13663 0
M  V30 8501 O 845.633 3.83411 -1.51888 0
M  V30 8502 H 844.974 0.485305 -0.453183 0
M  V30 8503 H 847.504 0.998119 -1.78602 0
M  V30 8504 H 847.514 3.39888 -2.257 0
M  V30 8505 H 846.189 2.69395 -3.16859 0
M  V30 8506 H 844.766 3.41967 -1.48704 0
M  V30 8507 N 846.951 1.19563 1.02676 0
M  V30 8508 C 848.179 1.02488 1.79732 0
M  V30 8509 C 848.594 -0.426302 1.83924 0
M  V30 8510 O 847.951 -1.29609 1.28483 0
M  V30 8511 C 848.002 1.58944 3.24683 0
M  V30 8512 O 847.723 2.98382 3.2078 0
M  V30 8513 C 849.224 1.46681 4.1833 0
M  V30 8514 H 846.444 0.361098 0.565552 0
M  V30 8515 H 848.988 1.58426 1.29311 0
M  V30 8516 H 847.143 1.0715 3.72287 0
M  V30 8517 H 847.557 3.24983 4.11687 0
M  V30 8518 H 849.031 1.90959 5.17918 0
M  V30 8519 H 849.508 0.417663 4.3721 0
M  V30 8520 H 850.114 1.97616 3.76601 0
M  V30 8521 N 848.429 -1.21819 0.999893 0
M  V30 8522 C 849.339 -2.27691 0.565159 0
M  V30 8523 C 850.355 -1.69587 -0.389398 0
M  V30 8524 O 851.531 -1.99786 -0.254499 0
M  V30 8525 C 848.596 -3.46537 -0.106432 0
M  V30 8526 C 847.657 -4.19932 0.891964 0
M  V30 8527 C 846.89 -5.33103 0.252327 0
M  V30 8528 O 847.113 -5.62398 -0.952103 0
M  V30 8529 O 846.047 -5.94184 0.960698 0
M  V30 8530 H 849.873 -2.67059 1.44613 0
M  V30 8531 H 847.458 -1.28119 0.768499 0
M  V30 8532 H 849.34 -4.18631 -0.482301 0
M  V30 8533 H 848.015 -3.09079 -0.961865 0
M  V30 8534 H 846.922 -3.5008 1.3189 0
M  V30 8535 H 848.255 -4.61287 1.71682 0
M  V30 8536 N 849.908 -0.773975 -1.37286 0
M  V30 8537 C 851.133 -0.349561 -2.04433 0
M  V30 8538 C 851.558 1.02082 -1.5799 0
M  V30 8539 O 850.916 1.65458 -0.741172 0
M  V30 8540 C 850.964 -0.404292 -3.58326 0
M  V30 8541 O 850.068 0.594447 -4.08093 0
M  V30 8542 H 849.409 -0.150959 -0.646612 0
M  V30 8543 H 851.939 -1.05079 -1.75555 0
M  V30 8544 H 851.949 -0.262378 -4.07155 0
M  V30 8545 H 850.624 -1.40403 -3.91484 0
M  V30 8546 H 849.201 0.415468 -3.70578 0
M  V30 8547 N 851.386 1.48609 -0.524698 0
M  V30 8548 C 852.633 2.02497 0.0113214 0
M  V30 8549 C 852.961 1.40229 1.34781 0
M  V30 8550 O 852.216 0.53557 1.88229 0
M  V30 8551 C 852.515 3.56906 0.187873 0
M  V30 8552 C 852.181 4.37932 -1.07359 0
M  V30 8553 C 850.843 4.59792 -1.41933 0
M  V30 8554 C 853.195 4.84902 -1.911 0
M  V30 8555 C 850.523 5.25868 -2.60154 0
M  V30 8556 C 852.875 5.52281 -3.08495 0
M  V30 8557 C 851.539 5.7238 -3.4342 0
M  V30 8558 H 850.809 0.740988 0.0041428 0
M  V30 8559 H 853.456 1.78651 -0.689652 0
M  V30 8560 H 851.761 3.79563 0.971572 0
M  V30 8561 H 853.458 3.96218 0.617443 0
M  V30 8562 H 850.048 4.21175 -0.794331 0
M  V30 8563 H 854.232 4.67821 -1.65701 0
M  V30 8564 H 849.488 5.39628 -2.87422 0
M  V30 8565 H 853.662 5.87645 -3.73692 0
M  V30 8566 H 851.289 6.23354 -4.35126 0
M  V30 8567 N 852.864 0.259585 1.55447 0
M  V30 8568 C 853.794 -0.62852 2.24882 0
M  V30 8569 C 854.775 -1.17128 1.23349 0
M  V30 8570 O 855.96 -1.20829 1.52033 0
M  V30 8571 C 853.09 -1.81983 2.95803 0
M  V30 8572 C 852.044 -1.40929 4.04132 0
M  V30 8573 C 851.37 -2.68246 4.62545 0
M  V30 8574 C 852.67 -0.570956 5.1917 0
M  V30 8575 H 854.364 -0.0495021 2.99359 0
M  V30 8576 H 851.91 -0.0223688 1.43983 0
M  V30 8577 H 853.863 -2.44689 3.43082 0
M  V30 8578 H 852.587 -2.42444 2.18835 0
M  V30 8579 H 851.246 -0.805519 3.57641 0
M  V30 8580 H 850.894 -3.26931 3.82263 0
M  V30 8581 H 850.594 -2.41495 5.35681 0
M  V30 8582 H 852.118 -3.31827 5.12565 0
M  V30 8583 H 853.532 -1.10262 5.62597 0
M  V30 8584 H 851.929 -0.398979 5.98772 0
M  V30 8585 H 852.999 0.413918 4.8313 0
M  V30 8586 N 854.342 -1.57594 -0.0133615 0
M  V30 8587 C 855.292 -2.04048 -1.01726 0
M  V30 8588 C 856.276 -0.932682 -1.3111 0
M  V30 8589 O 857.468 -1.19652 -1.30432 0
M  V30 8590 C 854.597 -2.53637 -2.31351 0
M  V30 8591 C 853.683 -3.71269 -2.04989 0
M  V30 8592 N 854.074 -4.83436 -1.48739 0
M  V30 8593 C 852.372 -3.78943 -2.35198 0
M  V30 8594 C 853.073 -5.64961 -1.38542 0
M  V30 8595 N 852.049 -5.10554 -1.86643 0
M  V30 8596 H 855.851 -2.88188 -0.576623 0
M  V30 8597 H 853.365 -1.60912 -0.219344 0
M  V30 8598 H 855.362 -2.85186 -3.04096 0
M  V30 8599 H 854.022 -1.7091 -2.76079 0
M  V30 8600 H 855.033 -5.04558 -1.16798 0
M  V30 8601 H 851.71 -3.07047 -2.82893 0
M  V30 8602 H 853.1 -6.65092 -0.954075 0
M  V30 8603 N 855.82 0.285905 -1.54985 0
M  V30 8604 C 856.75 1.35752 -1.89983 0
M  V30 8605 C 857.731 1.52163 -0.760295 0
M  V30 8606 O 858.916 1.65421 -1.01733 0
M  V30 8607 C 856.046 2.71925 -2.16042 0
M  V30 8608 C 855 2.70261 -3.31878 0
M  V30 8609 C 854.326 4.09864 -3.43388 0
M  V30 8610 C 855.626 2.30667 -4.68604 0
M  V30 8611 H 857.32 1.06709 -2.79738 0
M  V30 8612 H 854.866 0.511884 -1.34595 0
M  V30 8613 H 856.819 3.46992 -2.39113 0
M  V30 8614 H 855.543 3.02523 -1.23074 0
M  V30 8615 H 854.202 1.97651 -3.08755 0
M  V30 8616 H 853.85 4.37664 -2.47909 0
M  V30 8617 H 853.55 4.09648 -4.21262 0
M  V30 8618 H 855.074 4.86689 -3.68736 0
M  V30 8619 H 856.488 2.95453 -4.91305 0
M  V30 8620 H 854.885 2.41637 -5.49301 0
M  V30 8621 H 855.955 1.25793 -4.68299 0
M  V30 8622 N 857.298 1.47698 0.54982 0
M  V30 8623 C 858.714 1.3338 0.876468 0
M  V30 8624 C 858.914 0.329837 1.98782 0
M  V30 8625 O 857.97 -0.256022 2.51199 0
M  V30 8626 C 859.283 2.72903 1.26272 0
M  V30 8627 C 860.831 2.81243 1.37373 0
M  V30 8628 C 861.306 4.21423 1.79351 0
M  V30 8629 N 862.797 4.24 1.86489 0
M  V30 8630 C 863.532 5.29386 2.20313 0
M  V30 8631 N 863.028 6.4507 2.527 0
M  V30 8632 N 864.821 5.16768 2.2115 0
M  V30 8633 H 856.972 2.11603 -0.183781 0
M  V30 8634 H 859.235 0.947798 -0.0195601 0
M  V30 8635 H 858.941 3.47836 0.519889 0
M  V30 8636 H 858.815 3.05151 2.21727 0
M  V30 8637 H 861.202 2.06577 2.10737 0
M  V30 8638 H 861.283 2.52639 0.400882 0
M  V30 8639 H 860.927 4.96597 1.06555 0
M  V30 8640 H 860.857 4.47456 2.77652 0
M  V30 8641 H 863.348 3.40547 1.63817 0
M  V30 8642 H 863.661 7.21236 2.77557 0
M  V30 8643 H 862.006 6.48377 2.50263 0
M  V30 8644 H 865.197 4.25416 1.95293 0
M  V30 8645 H 865.37 5.99004 2.4718 0
M  V30 8646 N 858.776 -0.797141 1.35954 0
M  V30 8647 C 860.006 -1.5835 1.32698 0
M  V30 8648 C 860.414 -1.88959 -0.0955298 0
M  V30 8649 O 859.757 -1.49987 -1.06064 0
M  V30 8650 C 859.819 -2.93529 2.0756 0
M  V30 8651 C 859.483 -2.85688 3.56695 0
M  V30 8652 C 860.48 -2.58467 4.51099 0
M  V30 8653 C 858.165 -3.04508 3.99475 0
M  V30 8654 C 860.159 -2.50157 5.8626 0
M  V30 8655 C 857.846 -2.9582 5.34728 0
M  V30 8656 C 858.844 -2.68681 6.27933 0
M  V30 8657 O 858.532 -2.59973 7.60703 0
M  V30 8658 H 858.264 -0.49807 0.457059 0
M  V30 8659 H 860.818 -0.997889 1.79531 0
M  V30 8660 H 859.048 -3.54111 1.55378 0
M  V30 8661 H 860.737 -3.54744 1.9726 0
M  V30 8662 H 861.503 -2.43638 4.19363 0
M  V30 8663 H 857.382 -3.24641 3.27306 0
M  V30 8664 H 860.926 -2.28894 6.58979 0
M  V30 8665 H 856.823 -3.10211 5.66074 0
M  V30 8666 H 857.591 -2.75511 7.70737 0
M  V30 8667 N 860.254 -1.20106 -1.0204 0
M  V30 8668 C 861.186 -0.904236 -2.10609 0
M  V30 8669 C 862.199 0.106487 -1.62451 0
M  V30 8670 O 863.388 -0.124035 -1.78069 0
M  V30 8671 C 860.488 -0.333423 -3.37256 0
M  V30 8672 C 859.661 -1.39476 -4.14566 0
M  V30 8673 C 858.72 -0.835961 -5.19517 0
M  V30 8674 O 857.746 -1.51573 -5.48648 0
M  V30 8675 N 858.948 0.356531 -5.79404 0
M  V30 8676 H 861.713 -1.8388 -2.36661 0
M  V30 8677 H 859.274 -1.10422 -1.184 0
M  V30 8678 H 861.266 0.0544571 -4.04663 0
M  V30 8679 H 859.836 0.505608 -3.08484 0
M  V30 8680 H 859.056 -1.95714 -3.42184 0
M  V30 8681 H 860.344 -2.10967 -4.63001 0
M  V30 8682 H 859.742 0.926143 -5.58067 0
M  V30 8683 H 858.299 0.686093 -6.48179 0
M  V30 8684 N 861.732 1.21287 -1.00634 0
M  V30 8685 C 862.98 1.90013 -0.688438 0
M  V30 8686 C 863.301 1.78573 0.783365 0
M  V30 8687 O 862.571 1.1815 1.56261 0
M  V30 8688 H 861.151 0.703336 -0.251648 0
M  V30 8689 H 863.813 1.47346 -1.27574 0
M  V30 8690 H 862.909 2.96879 -0.962781 0
M  V30 8691 N 863.21 0.781244 1.36873 0
M  V30 8692 C 864.438 0.361566 2.03716 0
M  V30 8693 C 864.853 -1.01937 1.58916 0
M  V30 8694 O 864.21 -1.65237 0.774783 0
M  V30 8695 C 864.261 0.406391 3.59208 0
M  V30 8696 O 863.982 1.73286 4.02372 0
M  V30 8697 C 865.483 -0.0236894 4.43294 0
M  V30 8698 H 862.703 0.150133 0.653988 0
M  V30 8699 H 865.247 1.05781 1.75016 0
M  V30 8700 H 863.402 -0.241364 3.86647 0
M  V30 8701 H 863.816 1.67804 4.96933 0
M  V30 8702 H 865.29 0.0588205 5.51969 0
M  V30 8703 H 865.767 -1.07529 4.25833 0
M  V30 8704 H 866.373 0.59624 4.211 0
M  V30 8705 N 864.689 -1.48329 0.532571 0
M  V30 8706 C 865.966 -1.95492 -0.0650985 0
M  V30 8707 C 866.346 -1.47485 -1.51034 0
M  V30 8708 O 865.694 -0.702516 -2.17433 0
M  V30 8709 C 865.904 -3.48957 0.0548341 0
M  V30 8710 C 867.252 -4.24475 -0.103115 0
M  V30 8711 O 868.276 -3.56195 -0.0188343 0
M  V30 8712 O 867.135 -5.45781 -0.280164 0
M  V30 8713 H 864.229 -0.823327 -0.0778603 0
M  V30 8714 H 866.775 -1.58839 0.597353 0
M  V30 8715 H 865.547 -3.76628 1.06148 0
M  V30 8716 H 865.17 -3.92311 -0.64635 0
M  V30 8717 N 866.167 -0.267825 -1.55308 0
M  V30 8718 C 867.407 0.352316 -2.01341 0
M  V30 8719 C 867.771 1.53593 -1.1521 0
M  V30 8720 O 868.972 2.22521 -1.50791 0
M  V30 8721 C 867.243 0.731857 -3.49827 0
M  V30 8722 S 868.802 1.33956 -4.17853 0
M  V30 8723 H 865.62 0.109927 -0.702451 0
M  V30 8724 H 868.222 -0.387955 -1.91612 0
M  V30 8725 H 866.926 -0.138561 -4.10166 0
M  V30 8726 H 866.457 1.50378 -3.63525 0
M  V30 8727 H 868.472 2.62831 -4.20874 0
M  V30 8728 N 867.645 1.57599 0.00500368 0
M  V30 8729 C 868.608 2.07058 0.982832 0
M  V30 8730 C 869.608 0.979045 1.27559 0
M  V30 8731 O 870.798 1.24187 1.22161 0
M  V30 8732 C 867.93 2.50782 2.30914 0
M  V30 8733 H 869.123 2.94718 0.555119 0
M  V30 8734 H 866.676 1.54249 0.25237 0
M  V30 8735 H 867.411 1.66351 2.78385 0
M  V30 8736 H 867.196 3.30495 2.10987 0
M  V30 8737 H 868.686 2.89391 3.0107 0
M  V30 8738 N 869.123 -0.277682 1.55134 0
M  V30 8739 C 870.053 -1.34742 1.90701 0
M  V30 8740 C 871.034 -1.51757 0.768354 0
M  V30 8741 O 872.219 -1.64879 1.02609 0
M  V30 8742 C 869.349 -2.70775 2.17481 0
M  V30 8743 C 868.303 -2.68497 3.33307 0
M  V30 8744 C 867.629 -4.08037 3.45557 0
M  V30 8745 C 868.929 -2.28178 4.69821 0
M  V30 8746 H 870.623 -1.05224 2.803 0
M  V30 8747 H 868.169 -0.504738 1.34864 0
M  V30 8748 H 870.122 -3.45719 2.40949 0
M  V30 8749 H 868.846 -3.01867 1.24676 0
M  V30 8750 H 867.505 -1.9601 3.09799 0
M  V30 8751 H 867.153 -4.36344 2.50226 0
M  V30 8752 H 866.853 -4.07409 4.23429 0
M  V30 8753 H 868.377 -4.84726 3.71312 0
M  V30 8754 H 869.791 -2.92843 4.92865 0
M  V30 8755 H 868.188 -2.3872 5.50575 0
M  V30 8756 H 869.258 -1.23308 4.6896 0
M  V30 8757 N 870.601 -1.47988 -0.541979 0
M  V30 8758 C 871.534 -1.56172 -1.66389 0
M  V30 8759 C 872.512 -0.412879 -1.57271 0
M  V30 8760 O 873.696 -0.622816 -1.77914 0
M  V30 8761 C 870.823 -1.47851 -3.04726 0
M  V30 8762 C 869.869 -2.67428 -3.32242 0
M  V30 8763 S 870.702 -4.29502 -3.19825 0
M  V30 8764 C 871.858 -4.2376 -4.60628 0
M  V30 8765 H 872.091 -2.51086 -1.59195 0
M  V30 8766 H 869.624 -1.36373 -0.724005 0
M  V30 8767 H 871.582 -1.43738 -3.84512 0
M  V30 8768 H 870.243 -0.542958 -3.09372 0
M  V30 8769 H 869.436 -2.57711 -4.33129 0
M  V30 8770 H 869.038 -2.68743 -2.60103 0
M  V30 8771 H 871.33 -3.92953 -5.51901 0
M  V30 8772 H 872.273 -5.24786 -4.75401 0
M  V30 8773 H 872.681 -3.54398 -4.39389 0
M  V30 8774 N 872.079 0.78992 -1.36375 0
M  V30 8775 C 873.325 1.55007 -1.3077 0
M  V30 8776 C 873.658 1.93871 0.112979 0
M  V30 8777 O 872.933 1.6267 1.06625 0
M  V30 8778 C 873.216 2.82748 -2.22993 0
M  V30 8779 C 873.069 2.50253 -3.73756 0
M  V30 8780 C 874.388 3.84569 -2.13998 0
M  V30 8781 H 871.507 0.562362 -0.476359 0
M  V30 8782 H 874.149 0.907582 -1.66922 0
M  V30 8783 H 872.299 3.37573 -1.92292 0
M  V30 8784 H 873.971 2.01482 -4.14973 0
M  V30 8785 H 872.214 1.83203 -3.93216 0
M  V30 8786 H 872.885 3.41487 -4.33694 0
M  V30 8787 H 875.361 3.39188 -2.4102 0
M  V30 8788 H 874.237 4.717 -2.80697 0
M  V30 8789 H 874.498 4.27491 -1.12711 0
M  V30 8790 N 873.557 1.20646 1.01402 0
M  V30 8791 C 874.782 1.04462 1.79172 0
M  V30 8792 C 875.207 -0.401588 1.83763 0
M  V30 8793 O 874.565 -1.28934 1.27459 0
M  V30 8794 C 874.613 1.63583 3.21361 0
M  V30 8795 O 873.717 0.875198 4.03006 0
M  V30 8796 H 873.058 0.368235 0.552539 0
M  V30 8797 H 875.588 1.59994 1.27526 0
M  V30 8798 H 875.598 1.67426 3.72065 0
M  V30 8799 H 874.273 2.68835 3.17334 0
M  V30 8800 H 872.85 0.911172 3.61597 0
M  V30 8801 N 875.035 -1.20752 1.01276 0
M  V30 8802 C 875.998 -2.2162 0.584583 0
M  V30 8803 C 876.998 -1.57094 -0.343215 0
M  V30 8804 O 878.188 -1.73696 -0.132433 0
M  V30 8805 C 875.32 -3.40583 -0.146872 0
M  V30 8806 H 876.513 -2.61015 1.47686 0
M  V30 8807 H 874.066 -1.34148 0.802123 0
M  V30 8808 H 874.801 -3.06686 -1.05424 0
M  V30 8809 H 874.586 -3.88642 0.51958 0
M  V30 8810 H 876.076 -4.15339 -0.433924 0
M  V30 8811 N 876.513 -0.788492 -1.36457 0
M  V30 8812 C 877.463 -0.159377 -2.27442 0
M  V30 8813 C 878.447 0.656146 -1.46913 0
M  V30 8814 O 879.639 0.516372 -1.693 0
M  V30 8815 C 876.768 0.705703 -3.35968 0
M  V30 8816 C 875.854 -0.11856 -4.23934 0
M  V30 8817 N 876.245 -1.1726 -4.9202 0
M  V30 8818 C 874.543 0.102752 -4.45882 0
M  V30 8819 C 875.244 -1.6743 -5.57083 0
M  V30 8820 N 874.22 -0.983682 -5.34626 0
M  V30 8821 H 878.022 -0.96614 -2.77566 0
M  V30 8822 H 875.536 -0.627864 -1.49772 0
M  V30 8823 H 877.533 1.17231 -4.00078 0
M  V30 8824 H 876.193 1.51102 -2.87399 0
M  V30 8825 H 877.204 -1.55502 -4.94004 0
M  V30 8826 H 873.881 0.878651 -4.08149 0
M  V30 8827 H 875.271 -2.55423 -6.21457 0
M  V30 8828 N 877.991 1.48044 -0.54043 0
M  V30 8829 C 878.923 2.2779 0.253854 0
M  V30 8830 C 879.936 1.35999 0.894883 0
M  V30 8831 O 881.125 1.60963 0.771563 0
M  V30 8832 C 878.225 3.09724 1.37566 0
M  V30 8833 C 877.398 4.29364 0.83459 0
M  V30 8834 C 876.457 4.93026 1.83881 0
M  V30 8835 O 875.483 5.51927 1.39159 0
M  V30 8836 N 876.685 4.86207 3.17149 0
M  V30 8837 H 879.45 2.96597 -0.430125 0
M  V30 8838 H 877.011 1.57487 -0.375423 0
M  V30 8839 H 879.003 3.49181 2.04584 0
M  V30 8840 H 877.573 2.43269 1.96314 0
M  V30 8841 H 876.793 3.94198 -0.0118878 0
M  V30 8842 H 878.081 5.06787 0.452155 0
M  V30 8843 H 877.479 4.39523 3.56141 0
M  V30 8844 H 876.036 5.29733 3.79771 0
M  V30 8845 N 879.47 0.276058 1.55163 0
M  V30 8846 C 880.42 -0.625549 2.19251 0
M  V30 8847 C 881.404 -1.11769 1.15744 0
M  V30 8848 O 882.596 -1.0626 1.41555 0
M  V30 8849 C 879.725 -1.80879 2.91784 0
M  V30 8850 C 878.811 -1.33379 4.0258 0
M  V30 8851 N 879.202 -0.575002 5.02521 0
M  V30 8852 C 877.5 -1.61666 4.15668 0
M  V30 8853 C 878.201 -0.325164 5.8079 0
M  V30 8854 N 877.177 -0.897851 5.36134 0
M  V30 8855 H 880.979 -0.0379943 2.93875 0
M  V30 8856 H 878.493 0.079661 1.62205 0
M  V30 8857 H 880.49 -2.466 3.36146 0
M  V30 8858 H 879.15 -2.40028 2.1867 0
M  V30 8859 H 880.161 -0.222256 5.17423 0
M  V30 8860 H 876.838 -2.21745 3.53745 0
M  V30 8861 H 878.228 0.282598 6.71305 0
M  V30 8862 N 880.948 -1.576 0.00335426 0
M  V30 8863 C 882.359 -1.7875 -0.539008 0
M  V30 8864 C 882.71 -0.911097 -1.73763 0
M  V30 8865 O 881.835 -0.114476 -2.16097 0
M  V30 8866 C 882.43 -3.24177 -0.984611 0
M  V30 8867 C 880.989 -3.46412 -1.47226 0
M  V30 8868 C 880.136 -2.74024 -0.425004 0
M  V30 8869 H 883.087 -1.57032 0.229511 0
M  V30 8870 H 883.108 -3.32474 -1.85044 0
M  V30 8871 H 882.62 -3.87938 -0.112035 0
M  V30 8872 H 880.721 -2.8787 -2.36562 0
M  V30 8873 H 880.834 -4.55098 -1.49741 0
M  V30 8874 H 879.198 -2.38741 -0.887394 0
M  V30 8875 H 879.981 -3.40486 0.438662 0
M  V30 8876 N 882.426 0.269451 -1.5528 0
M  V30 8877 C 883.389 1.31642 -1.87625 0
M  V30 8878 C 884.389 1.42182 -0.751058 0
M  V30 8879 O 885.579 1.41272 -1.01921 0
M  V30 8880 C 882.711 2.6973 -2.08467 0
M  V30 8881 H 883.904 1.0419 -2.81219 0
M  V30 8882 H 881.457 0.507685 -1.47825 0
M  V30 8883 H 882.192 3.02356 -1.17266 0
M  V30 8884 H 881.977 2.63465 -2.90394 0
M  V30 8885 H 883.467 3.4537 -2.34753 0
M  V30 8886 N 883.904 1.48273 0.534124 0
M  V30 8887 C 885.132 1.59734 1.31501 0
M  V30 8888 C 885.547 0.256047 1.87056 0
M  V30 8889 O 884.904 -0.754086 1.66192 0
M  V30 8890 C 884.955 2.64072 2.46877 0
M  V30 8891 O 884.676 3.92995 1.93613 0
M  V30 8892 C 886.177 2.85933 3.38758 0
M  V30 8893 H 883.397 0.538703 0.40005 0
M  V30 8894 H 885.941 1.9407 0.644762 0
M  V30 8895 H 884.096 2.32606 3.09795 0
M  V30 8896 H 884.51 4.50203 2.69106 0
M  V30 8897 H 885.984 3.62749 4.16073 0
M  V30 8898 H 886.461 1.94603 3.93734 0
M  V30 8899 H 887.067 3.18687 2.81636 0
M  V30 8900 N 885.382 -0.782676 1.36792 0
M  V30 8901 C 886.345 -1.8772 1.31507 0
M  V30 8902 C 887.345 -1.59269 0.221349 0
M  V30 8903 O 888.535 -1.67555 0.476544 0
M  V30 8904 C 885.667 -3.24641 1.04025 0
M  V30 8905 H 886.86 -1.9382 2.28853 0
M  V30 8906 H 884.413 -0.981226 1.21662 0
M  V30 8907 H 885.148 -3.24221 0.0716439 0
M  V30 8908 H 884.933 -3.46681 1.8318 0
M  V30 8909 H 886.423 -4.04711 1.02949 0
M  V30 8910 N 886.86 -1.21182 -1.00761 0
M  V30 8911 C 888.276 -0.968607 -1.26847 0
M  V30 8912 C 888.476 0.346561 -1.98497 0
M  V30 8913 O 887.532 1.07287 -2.28573 0
M  V30 8914 C 888.845 -2.1574 -2.09467 0
M  V30 8915 C 890.393 -2.19937 -2.22703 0
M  V30 8916 C 890.868 -3.38328 -3.08704 0
M  V30 8917 N 892.359 -3.38398 -3.16293 0
M  V30 8918 C 893.094 -4.26653 -3.83086 0
M  V30 8919 N 892.59 -5.25101 -4.5193 0
M  V30 8920 N 894.383 -4.14469 -3.797 0
M  V30 8921 H 886.534 -2.05763 -0.526816 0
M  V30 8922 H 888.797 -0.90087 -0.29519 0
M  V30 8923 H 888.503 -3.11034 -1.64167 0
M  V30 8924 H 888.377 -2.14584 -3.10216 0
M  V30 8925 H 890.764 -1.25201 -2.67224 0
M  V30 8926 H 890.845 -2.25139 -1.21433 0
M  V30 8927 H 890.489 -4.33356 -2.64886 0
M  V30 8928 H 890.419 -3.30364 -4.10082 0
M  V30 8929 H 892.91 -2.67149 -2.67282 0
M  V30 8930 H 893.223 -5.8875 -5.00592 0
M  V30 8931 H 891.568 -5.29029 -4.50726 0
M  V30 8932 H 894.759 -3.3682 -3.25069 0
M  V30 8933 H 894.932 -4.83458 -4.31477 0
M  V30 8934 N 888.338 1.20213 -1.01915 0
M  V30 8935 C 889.563 1.94163 -0.729076 0
M  V30 8936 C 889.988 1.74416 0.704323 0
M  V30 8937 O 889.346 1.0401 1.48498 0
M  V30 8938 C 889.394 3.44258 -1.07324 0
M  V30 8939 O 888.498 4.11979 -0.186367 0
M  V30 8940 H 887.839 0.606506 -0.270272 0
M  V30 8941 H 890.369 1.52571 -1.3632 0
M  V30 8942 H 890.379 3.94888 -1.02603 0
M  V30 8943 H 889.054 3.57954 -2.11759 0
M  V30 8944 H 887.631 3.7176 -0.291334 0
M  V30 8945 N 889.816 0.795718 1.36037 0
M  V30 8946 C 891.227 0.433379 1.816 0
M  V30 8947 C 891.578 -1.04341 1.66155 0
M  V30 8948 O 890.703 -1.81004 1.18603 0
M  V30 8949 C 891.298 0.77985 3.29703 0
M  V30 8950 C 889.857 0.470256 3.73451 0
M  V30 8951 C 889.004 1.01119 2.58206 0
M  V30 8952 H 891.955 0.988317 1.24169 0
M  V30 8953 H 891.976 0.0732898 3.80429 0
M  V30 8954 H 891.488 1.85473 3.40913 0
M  V30 8955 H 889.589 -0.596332 3.67797 0
M  V30 8956 H 889.702 0.995276 4.68648 0
M  V30 8957 H 888.066 0.434077 2.50974 0
M  V30 8958 H 888.849 2.09196 2.72198 0
M  V30 8959 N 891.294 -1.47756 0.548274 0
M  V30 8960 C 892.71 -1.58247 0.207401 0
M  V30 8961 C 892.91 -1.54804 -1.28988 0
M  V30 8962 O 891.966 -1.44673 -2.06944 0
M  V30 8963 C 893.279 -2.89129 0.826142 0
M  V30 8964 C 894.827 -3.02695 0.79655 0
M  V30 8965 C 895.302 -4.36264 1.3942 0
M  V30 8966 N 896.793 -4.42877 1.35698 0
M  V30 8967 C 897.528 -5.44773 1.78913 0
M  V30 8968 N 897.024 -6.53528 2.29942 0
M  V30 8969 N 898.817 -5.35765 1.70038 0
M  V30 8970 H 890.968 -1.48236 1.52117 0
M  V30 8971 H 893.231 -0.704957 0.633829 0
M  V30 8972 H 892.937 -2.97358 1.87806 0
M  V30 8973 H 892.811 -3.75891 0.313916 0
M  V30 8974 H 895.198 -2.94067 -0.246655 0
M  V30 8975 H 895.279 -2.17496 1.34644 0
M  V30 8976 H 894.923 -4.45646 2.43642 0
M  V30 8977 H 894.853 -5.20179 0.819827 0
M  V30 8978 H 897.344 -3.64874 0.983623 0
M  V30 8979 H 897.657 -7.27441 2.60863 0
M  V30 8980 H 896.002 -6.54442 2.33947 0
M  V30 8981 H 899.193 -4.49699 1.29955 0
M  V30 8982 H 899.366 -6.1504 2.04035 0
M  V30 8983 N 892.772 -0.284283 -1.55015 0
M  V30 8984 C 893.735 0.586182 -2.21577 0
M  V30 8985 C 894.735 1.07427 -1.1965 0
M  V30 8986 O 895.925 0.972977 -1.44495 0
M  V30 8987 C 893.057 1.80973 -2.88897 0
M  V30 8988 H 894.25 0.00487253 -2.999 0
M  V30 8989 H 891.803 -0.0349696 -1.56261 0
M  V30 8990 H 892.538 2.43131 -2.14611 0
M  V30 8991 H 892.323 1.46757 -3.636 0
M  V30 8992 H 893.813 2.42853 -3.39724 0
M  V30 8993 N 894.251 1.57596 -0.0117121 0
M  V30 8994 C 895.499 1.90694 0.669342 0
M  V30 8995 C 895.82 0.886999 1.73659 0
M  V30 8996 O 895.09 -0.0739779 1.9576 0
M  V30 8997 H 893.67 0.703846 0.250219 0
M  V30 8998 H 896.332 1.94821 -0.0554057 0
M  V30 8999 H 895.428 2.90802 1.13316 0
M  V30 9000 N 895.729 -0.261212 1.5542 0
M  V30 9001 C 897.006 -1.01321 1.67312 0
M  V30 9002 C 897.386 -2.0388 0.547356 0
M  V30 9003 O 896.734 -2.24003 -0.451083 0
M  V30 9004 C 896.944 -1.65943 3.07024 0
M  V30 9005 C 898.292 -2.16666 3.65159 0
M  V30 9006 O 899.316 -1.75909 3.09733 0
M  V30 9007 O 898.175 -2.91455 4.62294 0
M  V30 9008 H 895.269 -0.470714 0.679968 0
M  V30 9009 H 897.815 -0.256133 1.67756 0
M  V30 9010 H 896.587 -0.916868 3.80407 0
M  V30 9011 H 896.21 -2.48308 3.1053 0
M  V30 9012 N 897.207 -1.48554 -0.526253 0
M  V30 9013 C 898.454 -1.56761 -1.28188 0
M  V30 9014 C 898.782 -0.24315 -1.92974 0
M  V30 9015 O 898.037 0.766883 -1.80048 0
M  V30 9016 C 898.336 -2.65739 -2.38993 0
M  V30 9017 C 898.002 -4.08057 -1.91834 0
M  V30 9018 C 896.664 -4.46792 -1.78691 0
M  V30 9019 C 899.016 -4.9723 -1.56242 0
M  V30 9020 C 896.344 -5.72501 -1.28296 0
M  V30 9021 C 898.696 -6.23432 -1.07309 0
M  V30 9022 C 897.36 -6.6102 -0.927853 0
M  V30 9023 H 896.63 -0.573631 -0.469072 0
M  V30 9024 H 899.277 -1.82287 -0.586842 0
M  V30 9025 H 897.582 -2.34088 -3.14181 0
M  V30 9026 H 899.279 -2.69304 -2.97113 0
M  V30 9027 H 895.869 -3.77469 -2.03016 0
M  V30 9028 H 900.053 -4.67979 -1.65255 0
M  V30 9029 H 895.309 -6.00345 -1.15742 0
M  V30 9030 H 899.483 -6.91923 -0.788412 0
M  V30 9031 H 897.11 -7.58314 -0.535162 0
M  V30 9032 N 898.685 0.775411 -1.37205 0
M  V30 9033 C 899.933 1.53081 -1.3195 0
M  V30 9034 C 900.254 1.9476 0.0966864 0
M  V30 9035 O 899.524 1.66019 1.03993 0
M  V30 9036 H 898.104 0.567762 -0.485444 0
M  V30 9037 H 900.766 0.92309 -1.71654 0
M  V30 9038 H 899.862 2.4319 -1.95614 0
M  V30 9039 N 900.163 1.21714 1.00117 0
M  V30 9040 C 901.126 0.981338 2.07129 0
M  V30 9041 C 902.126 -0.0491116 1.60725 0
M  V30 9042 O 903.316 0.188555 1.73177 0
M  V30 9043 C 900.448 0.480608 3.37495 0
M  V30 9044 H 901.641 1.93075 2.29482 0
M  V30 9045 H 899.194 1.03467 1.17151 0
M  V30 9046 H 899.929 -0.473552 3.20824 0
M  V30 9047 H 899.714 1.22393 3.72508 0
M  V30 9048 H 901.204 0.33561 4.16249 0
M  V30 9049 N 901.641 -1.19671 1.02551 0
M  V30 9050 C 902.604 -2.20987 0.608055 0
M  V30 9051 C 903.604 -1.5745 -0.326534 0
M  V30 9052 O 904.794 -1.73827 -0.114003 0
M  V30 9053 C 901.926 -3.4072 -0.11074 0
M  V30 9054 H 903.119 -2.59434 1.50446 0
M  V30 9055 H 900.672 -1.3329 0.816307 0
M  V30 9056 H 901.407 -3.07787 -1.02165 0
M  V30 9057 H 901.192 -3.88069 0.560772 0
M  V30 9058 H 902.682 -4.15776 -0.389848 0
M  V30 9059 N 903.119 -0.802921 -1.35613 0
M  V30 9060 C 904.366 -0.381576 -1.98872 0
M  V30 9061 C 904.694 1.0503 -1.63704 0
M  V30 9062 O 903.949 1.7427 -0.890418 0
M  V30 9063 C 904.248 -0.507806 -3.53774 0
M  V30 9064 C 903.914 -1.90245 -4.088 0
M  V30 9065 C 902.576 -2.28401 -4.2354 0
M  V30 9066 C 904.928 -2.81504 -4.3864 0
M  V30 9067 C 902.256 -3.57192 -4.65436 0
M  V30 9068 C 904.608 -4.09737 -4.81973 0
M  V30 9069 C 903.272 -4.47897 -4.94919 0
M  V30 9070 H 902.542 -0.139629 -0.727726 0
M  V30 9071 H 905.189 -1.023 -1.61886 0
M  V30 9072 H 903.494 0.21708 -3.91198 0
M  V30 9073 H 905.191 -0.162625 -4.0067 0
M  V30 9074 H 901.781 -1.596 -3.97776 0
M  V30 9075 H 905.965 -2.53276 -4.26808 0
M  V30 9076 H 901.221 -3.86611 -4.73648 0
M  V30 9077 H 905.395 -4.80555 -5.04024 0
M  V30 9078 H 903.022 -5.47747 -5.27141 0
M  V30 9079 N 904.597 1.47463 -0.556102 0
M  V30 9080 C 905.843 2.02775 -0.0316806 0
M  V30 9081 C 906.176 1.42967 1.3143 0
M  V30 9082 O 905.451 0.584847 1.85499 0
M  V30 9083 C 905.734 3.60046 0.0625742 0
M  V30 9084 C 905.587 4.30288 -1.31043 0
M  V30 9085 C 906.906 4.33195 0.776553 0
M  V30 9086 H 904.025 0.736886 -0.0129869 0
M  V30 9087 H 906.667 1.75904 -0.718177 0
M  V30 9088 H 904.817 3.83071 0.647231 0
M  V30 9089 H 906.489 4.18607 -1.9382 0
M  V30 9090 H 904.732 3.90685 -1.8854 0
M  V30 9091 H 905.403 5.38861 -1.1972 0
M  V30 9092 H 907.879 4.15156 0.280147 0
M  V30 9093 H 906.755 5.42869 0.81146 0
M  V30 9094 H 907.016 4.02336 1.83244 0
M  V30 9095 N 906.075 0.2925 1.54862 0
M  V30 9096 C 906.985 -0.597036 2.26876 0
M  V30 9097 C 908.001 -1.15558 1.30086 0
M  V30 9098 O 909.177 -1.18217 1.63054 0
M  V30 9099 C 906.242 -1.75664 2.98903 0
M  V30 9100 C 905.303 -1.23303 4.11212 0
M  V30 9101 C 904.536 -2.33736 4.79795 0
M  V30 9102 O 904.759 -3.53459 4.47686 0
M  V30 9103 O 903.693 -2.00908 5.67379 0
M  V30 9104 H 907.519 -0.0131242 3.03697 0
M  V30 9105 H 905.104 0.0592642 1.49282 0
M  V30 9106 H 906.986 -2.43241 3.4411 0
M  V30 9107 H 905.661 -2.32731 2.24984 0
M  V30 9108 H 904.568 -0.523222 3.70423 0
M  V30 9109 H 905.901 -0.707887 4.87083 0
M  V30 9110 N 907.553 -1.57587 0.0200696 0
M  V30 9111 C 908.969 -1.56018 -0.336237 0
M  V30 9112 C 909.169 -1.02478 -1.73495 0
M  V30 9113 O 908.225 -0.667487 -2.43518 0
M  V30 9114 C 909.538 -3.00079 -0.193112 0
M  V30 9115 C 911.086 -3.11863 -0.266557 0
M  V30 9116 C 911.561 -4.57747 -0.152326 0
M  V30 9117 N 913.052 -4.62726 -0.209596 0
M  V30 9118 C 913.787 -5.73217 -0.144855 0
M  V30 9119 N 913.283 -6.92794 -0.0295487 0
M  V30 9120 N 915.076 -5.61751 -0.198184 0
M  V30 9121 H 907.227 -1.90722 0.93482 0
M  V30 9122 H 909.49 -0.876909 0.360186 0
M  V30 9123 H 909.196 -3.43167 0.770036 0
M  V30 9124 H 909.07 -3.64593 -0.967029 0
M  V30 9125 H 911.457 -2.68693 -1.22016 0
M  V30 9126 H 911.538 -2.50087 0.53758 0
M  V30 9127 H 911.182 -5.01595 0.797817 0
M  V30 9128 H 911.112 -5.17491 -0.97521 0
M  V30 9129 H 913.603 -3.76713 -0.299229 0
M  V30 9130 H 913.916 -7.72799 0.0134071 0
M  V30 9131 H 912.261 -6.95 0.00510737 0
M  V30 9132 H 915.452 -4.67222 -0.286603 0
M  V30 9133 H 915.625 -6.47839 -0.144266 0
M  V30 9134 N 909.032 0.252966 -1.55557 0
M  V30 9135 C 910.262 0.998115 -1.8089 0
M  V30 9136 C 910.67 1.79679 -0.592623 0
M  V30 9137 O 910.013 1.78151 0.448093 0
M  V30 9138 C 910.075 1.98878 -2.99479 0
M  V30 9139 C 909.739 1.37761 -4.35742 0
M  V30 9140 C 910.736 0.783142 -5.13968 0
M  V30 9141 C 908.421 1.39879 -4.8243 0
M  V30 9142 C 910.415 0.218004 -6.37027 0
M  V30 9143 C 908.102 0.829801 -6.0544 0
M  V30 9144 C 909.1 0.240426 -6.82577 0
M  V30 9145 O 908.788 -0.319797 -8.03264 0
M  V30 9146 H 908.52 0.29963 -0.605969 0
M  V30 9147 H 911.074 0.282978 -2.03441 0
M  V30 9148 H 909.304 2.74206 -2.72669 0
M  V30 9149 H 910.993 2.59686 -3.11959 0
M  V30 9150 H 911.759 0.759326 -4.79019 0
M  V30 9151 H 907.638 1.84692 -4.22386 0
M  V30 9152 H 911.182 -0.242654 -6.97178 0
M  V30 9153 H 907.079 0.850924 -6.39867 0
M  V30 9154 H 907.847 -0.211078 -8.18228 0
M  V30 9155 N 910.51 1.48831 0.518367 0
M  V30 9156 C 911.443 1.588 1.63884 0
M  V30 9157 C 912.421 0.437847 1.56594 0
M  V30 9158 O 913.605 0.651042 1.769 0
M  V30 9159 C 910.732 1.52681 3.02335 0
M  V30 9160 C 909.778 2.7268 3.27945 0
M  V30 9161 S 910.611 4.34536 3.12951 0
M  V30 9162 C 911.767 4.31034 4.53828 0
M  V30 9163 H 912 2.53587 1.5518 0
M  V30 9164 H 909.533 1.37507 0.702218 0
M  V30 9165 H 911.491 1.49837 3.82177 0
M  V30 9166 H 910.152 0.592107 3.08469 0
M  V30 9167 H 909.345 2.64569 4.28974 0
M  V30 9168 H 908.947 2.72847 2.55794 0
M  V30 9169 H 911.239 4.01683 5.45579 0
M  V30 9170 H 912.182 5.32282 4.66991 0
M  V30 9171 H 912.59 3.61343 4.33695 0
M  V30 9172 N 911.988 -0.768124 1.37614 0
M  V30 9173 C 913.404 -1.06919 1.18493 0
M  V30 9174 C 913.604 -2.01486 0.0235753 0
M  V30 9175 O 912.66 -2.4438 -0.635209 0
M  V30 9176 C 913.973 -1.66321 2.50515 0
M  V30 9177 C 915.521 -1.78562 2.57069 0
M  V30 9178 C 915.996 -2.41377 3.89231 0
M  V30 9179 N 917.487 -2.48824 3.90693 0
M  V30 9180 C 918.222 -2.98288 4.89706 0
M  V30 9181 N 917.718 -3.47897 5.99115 0
M  V30 9182 N 919.511 -2.97196 4.77107 0
M  V30 9183 H 911.662 -0.140286 2.11936 0
M  V30 9184 H 913.925 -0.124863 0.939741 0
M  V30 9185 H 913.631 -1.04303 3.35878 0
M  V30 9186 H 913.505 -2.65571 2.67866 0
M  V30 9187 H 915.892 -2.39712 1.72111 0
M  V30 9188 H 915.973 -0.780574 2.43599 0
M  V30 9189 H 915.617 -1.80866 4.74605 0
M  V30 9190 H 915.547 -3.42495 4.00006 0
M  V30 9191 H 918.038 -2.1372 3.1166 0
M  V30 9192 H 918.351 -3.84053 6.70614 0
M  V30 9193 H 916.696 -3.45993 6.02755 0
M  V30 9194 H 919.887 -2.57741 3.90752 0
M  V30 9195 H 920.06 -3.35434 5.54426 0
M  V30 9196 N 913.466 -1.22244 -0.994698 0
M  V30 9197 C 914.376 -1.00722 -2.11878 0
M  V30 9198 C 915.392 0.043919 -1.73945 0
M  V30 9199 O 916.568 -0.148411 -2.00852 0
M  V30 9200 C 913.633 -0.585723 -3.41717 0
M  V30 9201 C 912.694 -1.71027 -3.93762 0
M  V30 9202 C 911.927 -1.30879 -5.17403 0
M  V30 9203 O 912.15 -0.18681 -5.70094 0
M  V30 9204 O 911.084 -2.1246 -5.63156 0
M  V30 9205 H 914.91 -1.94894 -2.32916 0
M  V30 9206 H 912.495 -1.00822 -1.10251 0
M  V30 9207 H 914.377 -0.360935 -4.19851 0
M  V30 9208 H 913.052 0.327166 -3.22042 0
M  V30 9209 H 911.959 -1.98956 -3.16808 0
M  V30 9210 H 913.292 -2.60096 -4.17865 0
M  V30 9211 N 914.944 1.19125 -1.03184 0
M  V30 9212 C 916.191 1.88883 -0.730029 0
M  V30 9213 C 916.519 1.79807 0.741602 0
M  V30 9214 O 915.774 1.18686 1.55603 0
M  V30 9215 C 916.073 3.39052 -1.13041 0
M  V30 9216 C 915.739 3.68332 -2.60082 0
M  V30 9217 C 914.401 3.76033 -3.00254 0
M  V30 9218 C 916.753 3.81423 -3.55199 0
M  V30 9219 C 914.081 3.94296 -4.34451 0
M  V30 9220 C 916.433 4.012 -4.89103 0
M  V30 9221 C 915.097 4.07134 -5.28959 0
M  V30 9222 H 914.367 0.691172 -0.267137 0
M  V30 9223 H 917.014 1.41053 -1.29523 0
M  V30 9224 H 915.319 3.88801 -0.48386 0
M  V30 9225 H 917.016 3.91351 -0.874368 0
M  V30 9226 H 913.606 3.62948 -2.27961 0
M  V30 9227 H 917.79 3.74814 -3.25313 0
M  V30 9228 H 913.046 3.97131 -4.64863 0
M  V30 9229 H 917.22 4.10271 -5.62717 0
M  V30 9230 H 914.847 4.21038 -6.32954 0
M  V30 9231 N 916.422 0.810101 1.35185 0
M  V30 9232 C 917.67 0.391343 1.98275 0
M  V30 9233 C 917.991 -1.04592 1.64577 0
M  V30 9234 O 917.261 -1.72417 0.93001 0
M  V30 9235 H 915.841 0.141715 0.733434 0
M  V30 9236 H 918.503 1.03672 1.6504 0
M  V30 9237 H 917.599 0.49991 3.0807 0
M  V30 9238 N 917.9 -1.47166 0.563914 0
M  V30 9239 C 919.147 -2.02456 0.042371 0
M  V30 9240 C 919.475 -1.43753 -1.31016 0
M  V30 9241 O 918.73 -0.585287 -1.86743 0
M  V30 9242 C 919.029 -3.57279 -0.0931797 0
M  V30 9243 C 918.695 -4.34932 1.18933 0
M  V30 9244 C 917.357 -4.55867 1.54073 0
M  V30 9245 C 919.709 -4.79665 2.03889 0
M  V30 9246 C 917.037 -5.18785 2.74005 0
M  V30 9247 C 919.389 -5.43907 3.23029 0
M  V30 9248 C 918.053 -5.63074 3.58475 0
M  V30 9249 H 917.323 -0.740838 0.0155047 0
M  V30 9250 H 919.97 -1.76759 0.736776 0
M  V30 9251 H 918.275 -3.82005 -0.870596 0
M  V30 9252 H 919.972 -3.97716 -0.512176 0
M  V30 9253 H 916.562 -4.18921 0.905718 0
M  V30 9254 H 920.746 -4.63264 1.78046 0
M  V30 9255 H 916.002 -5.31818 3.01628 0
M  V30 9256 H 920.176 -5.77531 3.89141 0
M  V30 9257 H 917.803 -6.11598 4.515 0
M  V30 9258 N 919.378 -0.300708 -1.54705 0
M  V30 9259 C 920.624 0.309111 -2.0043 0
M  V30 9260 C 920.957 1.53562 -1.1888 0
M  V30 9261 O 920.232 1.92683 -0.265205 0
M  V30 9262 C 920.515 0.665995 -3.53888 0
M  V30 9263 C 920.368 -0.56963 -4.46178 0
M  V30 9264 C 921.687 1.49262 -4.14016 0
M  V30 9265 H 918.806 0.110878 -0.728612 0
M  V30 9266 H 921.448 -0.412748 -1.85463 0
M  V30 9267 H 919.598 1.281 -3.66773 0
M  V30 9268 H 921.27 -1.20811 -4.45199 0
M  V30 9269 H 919.513 -1.20292 -4.16788 0
M  V30 9270 H 920.184 -0.275785 -5.51311 0
M  V30 9271 H 922.66 0.972979 -4.04564 0
M  V30 9272 H 921.536 1.71111 -5.21548 0
M  V30 9273 H 921.797 2.48174 -3.65872 0
M  V30 9274 N 920.856 1.57574 -0.0284266 0
M  V30 9275 C 922.105 1.9095 0.649704 0
M  V30 9276 C 922.418 0.906421 1.7333 0
M  V30 9277 O 923.624 1.1314 2.46803 0
M  V30 9278 C 922.08 3.39061 1.20687 0
M  V30 9279 C 921.688 4.47726 0.156597 0
M  V30 9280 C 923.432 3.81505 1.86156 0
M  V30 9281 C 921.339 5.86935 0.725365 0
M  V30 9282 H 920.269 0.712589 0.24644 0
M  V30 9283 H 922.92 1.83261 -0.0936143 0
M  V30 9284 H 921.302 3.41679 2.00178 0
M  V30 9285 H 922.476 4.56667 -0.6158 0
M  V30 9286 H 920.791 4.14481 -0.399288 0
M  V30 9287 H 923.388 4.82865 2.29665 0
M  V30 9288 H 923.731 3.16529 2.70398 0
M  V30 9289 H 924.264 3.81307 1.13356 0
M  V30 9290 H 921.003 6.55453 -0.0789081 0
M  V30 9291 H 920.523 5.81602 1.46627 0
M  V30 9292 H 922.202 6.35483 1.21532 0
M  V30 9293 N 922.334 -0.244713 1.55689 0
M  V30 9294 C 923.745 -0.813603 1.6804 0
M  V30 9295 C 924.096 -1.85936 0.626281 0
M  V30 9296 O 923.221 -2.15206 -0.227038 0
M  V30 9297 C 923.816 -1.48252 3.04642 0
M  V30 9298 C 922.375 -1.99908 3.18926 0
M  V30 9299 C 921.522 -0.850958 2.6392 0
M  V30 9300 H 924.473 -0.0204805 1.58687 0
M  V30 9301 H 924.494 -2.35062 2.99209 0
M  V30 9302 H 924.006 -0.721164 3.81341 0
M  V30 9303 H 922.107 -2.78918 2.47054 0
M  V30 9304 H 922.22 -2.19497 4.25862 0
M  V30 9305 H 920.584 -1.25206 2.21801 0
M  V30 9306 H 921.367 -0.10265 3.43146 0
M  V30 9307 N 923.813 -1.49104 -0.510467 0
M  V30 9308 C 924.723 -1.67792 -1.6396 0
M  V30 9309 C 925.739 -0.560454 -1.64727 0
M  V30 9310 O 926.915 -0.833985 -1.83321 0
M  V30 9311 C 923.98 -1.73154 -3.00364 0
M  V30 9312 C 923.041 -2.9667 -3.10299 0
M  V30 9313 C 922.274 -3.01767 -4.40196 0
M  V30 9314 O 922.497 -2.1472 -5.28443 0
M  V30 9315 O 921.431 -3.94137 -4.54906 0
M  V30 9316 H 925.257 -2.63428 -1.51126 0
M  V30 9317 H 922.842 -1.32734 -0.685719 0
M  V30 9318 H 924.724 -1.79089 -3.81451 0
M  V30 9319 H 923.399 -0.806952 -3.1348 0
M  V30 9320 H 922.306 -2.96257 -2.28435 0
M  V30 9321 H 923.639 -3.88578 -3.02106 0
M  V30 9322 N 925.291 0.760815 -1.38019 0
M  V30 9323 C 926.707 1.06289 -1.19058 0
M  V30 9324 C 926.907 2.01471 -0.0342603 0
M  V30 9325 O 925.963 2.44713 0.62224 0
M  V30 9326 C 927.276 1.6499 -2.51394 0
M  V30 9327 C 928.824 1.77196 -2.58013 0
M  V30 9328 C 929.299 2.3931 -3.90506 0
M  V30 9329 N 930.79 2.46749 -3.92007 0
M  V30 9330 C 931.525 2.95687 -4.91281 0
M  V30 9331 N 931.021 3.44715 -6.00952 0
M  V30 9332 N 932.814 2.94661 -4.78677 0
M  V30 9333 H 924.965 0.129045 -2.12008 0
M  V30 9334 H 927.228 0.119878 -0.94039 0
M  V30 9335 H 926.934 1.0252 -3.36426 0
M  V30 9336 H 926.808 2.64146 -2.6927 0
M  V30 9337 H 929.195 2.38796 -1.7338 0
M  V30 9338 H 929.276 0.767645 -2.4401 0
M  V30 9339 H 928.92 1.78346 -4.75558 0
M  V30 9340 H 928.85 3.40369 -4.01817 0
M  V30 9341 H 931.341 2.12064 -3.12789 0
M  V30 9342 H 931.654 3.80492 -6.72641 0
M  V30 9343 H 929.999 3.42791 -6.04582 0
M  V30 9344 H 933.19 2.55665 -3.92113 0
M  V30 9345 H 933.363 3.32489 -5.56197 0
M  V30 9346 N 926.769 1.22769 0.988202 0
M  V30 9347 C 928.18 1.0512 1.54294 0
M  V30 9348 C 928.531 -0.383904 1.92407 0
M  V30 9349 O 927.656 -1.26955 1.75246 0
M  V30 9350 C 928.251 1.90198 2.80375 0
M  V30 9351 C 926.81 1.76831 3.32276 0
M  V30 9352 C 925.957 1.86377 2.05326 0
M  V30 9353 H 928.908 1.36546 0.808758 0
M  V30 9354 H 928.929 1.42216 3.52923 0
M  V30 9355 H 928.441 2.9464 2.52605 0
M  V30 9356 H 926.542 0.751412 3.64945 0
M  V30 9357 H 926.655 2.59771 4.02562 0
M  V30 9358 H 925.019 1.2987 2.19103 0
M  V30 9359 H 925.802 2.9236 1.79946 0
M  V30 9360 N 928.247 -1.18576 1.03814 0
M  V30 9361 C 929.493 -1.88773 0.741132 0
M  V30 9362 C 929.826 -1.79993 -0.729127 0
M  V30 9363 O 929.101 -1.19851 -1.53186 0
M  V30 9364 C 929.384 -3.39352 1.20468 0
M  V30 9365 C 929.237 -3.56955 2.73684 0
M  V30 9366 C 930.556 -4.32901 0.792741 0
M  V30 9367 H 927.675 -0.685482 0.270708 0
M  V30 9368 H 930.317 -1.39523 1.2897 0
M  V30 9369 H 928.467 -3.81427 0.737974 0
M  V30 9370 H 930.139 -3.2399 3.28372 0
M  V30 9371 H 928.382 -2.99696 3.13632 0
M  V30 9372 H 929.053 -4.62598 3.01176 0
M  V30 9373 H 931.529 -3.98592 1.1943 0
M  V30 9374 H 930.405 -5.36828 1.14486 0
M  V30 9375 H 930.666 -4.41052 -0.304295 0
M  V30 9376 N 929.725 -0.817259 -1.34754 0
M  V30 9377 C 930.971 -0.403244 -1.98751 0
M  V30 9378 C 931.304 1.02963 -1.64658 0
M  V30 9379 O 930.579 1.71617 -0.915314 0
M  V30 9380 C 930.862 -0.599188 -3.5508 0
M  V30 9381 C 930.715 -2.07777 -3.98934 0
M  V30 9382 C 932.034 -0.0315656 -4.40089 0
M  V30 9383 H 929.153 -0.147988 -0.721989 0
M  V30 9384 H 931.795 -1.02877 -1.59738 0
M  V30 9385 H 929.945 -0.0667116 -3.88443 0
M  V30 9386 H 931.617 -2.67345 -3.75931 0
M  V30 9387 H 929.86 -2.57031 -3.49453 0
M  V30 9388 H 930.531 -2.16571 -5.07741 0
M  V30 9389 H 933.007 -0.48644 -4.13247 0
M  V30 9390 H 931.883 -0.198507 -5.48541 0
M  V30 9391 H 932.144 1.06302 -4.2913 0
M  V30 9392 N 931.203 1.46865 -0.571711 0
M  V30 9393 C 932.449 2.0273 -0.0531858 0
M  V30 9394 C 932.782 1.44353 1.29907 0
M  V30 9395 O 932.057 0.604488 1.84868 0
M  V30 9396 C 932.34 3.60092 0.0243831 0
M  V30 9397 C 932.193 4.28874 -1.35599 0
M  V30 9398 C 933.512 4.33994 0.730563 0
M  V30 9399 H 930.631 0.736706 -0.0208018 0
M  V30 9400 H 933.273 1.75132 -0.736794 0
M  V30 9401 H 931.423 3.83736 0.606565 0
M  V30 9402 H 933.095 4.16527 -1.98249 0
M  V30 9403 H 931.338 3.88664 -1.92674 0
M  V30 9404 H 932.009 5.37561 -1.25429 0
M  V30 9405 H 934.485 4.1543 0.236098 0
M  V30 9406 H 933.361 5.43699 0.753836 0
M  V30 9407 H 933.622 4.04257 1.78967 0
M  V30 9408 N 932.681 0.308908 1.54543 0
M  V30 9409 C 933.958 -0.351558 1.92415 0
M  V30 9410 C 934.338 -1.71061 1.23699 0
M  V30 9411 O 933.686 -2.25394 0.3755 0
M  V30 9412 C 933.896 -0.458357 3.45977 0
M  V30 9413 C 935.244 -0.725524 4.18355 0
M  V30 9414 O 936.268 -0.541859 3.52054 0
M  V30 9415 O 935.127 -1.07884 5.35745 0
M  V30 9416 H 932.221 -0.197957 0.802958 0
M  V30 9417 H 934.767 0.357548 1.65891 0
M  V30 9418 H 933.539 0.496723 3.88134 0
M  V30 9419 H 933.162 -1.21562 3.78561 0
M  V30 9420 N 934.159 -1.57557 0.0367827 0
M  V30 9421 C 935.436 -1.83427 -0.679261 0
M  V30 9422 C 935.816 -0.922274 -1.89888 0
M  V30 9423 O 935.164 0.02025 -2.28491 0
M  V30 9424 C 935.374 -3.32823 -1.05022 0
M  V30 9425 C 936.722 -3.99486 -1.43861 0
M  V30 9426 O 937.746 -3.37364 -1.14297 0
M  V30 9427 O 936.605 -5.0899 -1.98977 0
M  V30 9428 H 933.699 -0.756581 -0.333936 0
M  V30 9429 H 936.245 -1.69575 0.0650494 0
M  V30 9430 H 935.017 -3.90874 -0.182509 0
M  V30 9431 H 934.64 -3.5181 -1.85244 0
M  V30 9432 N 935.637 0.236453 -1.55816 0
M  V30 9433 C 936.883 0.964439 -1.784 0
M  V30 9434 C 937.216 1.84573 -0.603868 0
M  V30 9435 O 936.491 1.90395 0.397473 0
M  V30 9436 C 936.774 1.81608 -3.10951 0
M  V30 9437 C 936.627 0.962283 -4.39386 0
M  V30 9438 C 937.946 2.79665 -3.39817 0
M  V30 9439 H 935.065 0.349192 -0.649026 0
M  V30 9440 H 937.707 0.234247 -1.8855 0
M  V30 9441 H 935.857 2.43864 -3.02428 0
M  V30 9442 H 937.529 0.35762 -4.59912 0
M  V30 9443 H 935.772 0.267062 -4.32977 0
M  V30 9444 H 936.443 1.59222 -5.28538 0
M  V30 9445 H 938.919 2.27546 -3.4837 0
M  V30 9446 H 937.795 3.36367 -4.33761 0
M  V30 9447 H 938.056 3.56657 -2.61244 0
M  V30 9448 N 937.115 1.49373 0.502552 0
M  V30 9449 C 938.531 1.36101 0.833591 0
M  V30 9450 C 938.731 0.392911 1.97632 0
M  V30 9451 O 937.787 -0.175975 2.51886 0
M  V30 9452 C 939.1 2.76782 1.17526 0
M  V30 9453 C 940.648 2.85471 1.28356 0
M  V30 9454 C 941.123 4.26915 1.65853 0
M  V30 9455 N 942.614 4.29719 1.72905 0
M  V30 9456 C 943.349 5.36127 2.0336 0
M  V30 9457 N 942.845 6.52782 2.32049 0
M  V30 9458 N 944.638 5.23542 2.04598 0
M  V30 9459 H 936.789 2.10912 -0.251008 0
M  V30 9460 H 939.052 0.946696 -0.0497037 0
M  V30 9461 H 938.758 3.49314 0.408965 0
M  V30 9462 H 938.632 3.1205 2.11907 0
M  V30 9463 H 941.019 2.13177 2.04058 0
M  V30 9464 H 941.1 2.53787 0.320304 0
M  V30 9465 H 940.744 4.99735 0.907022 0
M  V30 9466 H 940.674 4.56063 2.63276 0
M  V30 9467 H 943.165 3.45586 1.529 0
M  V30 9468 H 943.478 7.29701 2.54471 0
M  V30 9469 H 941.823 6.56011 2.29509 0
M  V30 9470 H 945.014 4.31413 1.8166 0
M  V30 9471 H 945.187 6.06565 2.27998 0
M  V30 9472 N 938.594 -0.753485 1.38421 0
M  V30 9473 C 939.84 -1.51485 1.34834 0
M  V30 9474 C 940.173 -1.94102 -0.0615381 0
M  V30 9475 O 939.448 -1.65439 -1.02274 0
M  V30 9476 C 939.731 -2.76736 2.30411 0
M  V30 9477 C 939.584 -2.40256 3.80259 0
M  V30 9478 C 940.903 -3.7876 2.24119 0
M  V30 9479 H 938.022 -0.549534 0.491102 0
M  V30 9480 H 940.664 -0.863006 1.6927 0
M  V30 9481 H 938.814 -3.32357 2.01175 0
M  V30 9482 H 940.486 -1.90409 4.20169 0
M  V30 9483 H 938.729 -1.72714 3.97935 0
M  V30 9484 H 939.4 -3.29869 4.42595 0
M  V30 9485 H 941.876 -3.32679 2.49928 0
M  V30 9486 H 940.752 -4.64092 2.93104 0
M  V30 9487 H 941.013 -4.24352 1.24006 0
M  V30 9488 N 940.072 -1.23292 -0.981677 0
M  V30 9489 C 941.488 -0.995295 -1.24764 0
M  V30 9490 C 941.688 0.304379 -1.99188 0
M  V30 9491 O 940.744 1.02414 -2.30798 0
M  V30 9492 C 942.057 -2.20135 -2.04844 0
M  V30 9493 C 943.605 -2.24612 -2.17988 0
M  V30 9494 C 944.08 -3.448 -3.01458 0
M  V30 9495 N 945.571 -3.45031 -3.09044 0
M  V30 9496 C 946.306 -4.34683 -3.7395 0
M  V30 9497 N 945.802 -5.34569 -4.4069 0
M  V30 9498 N 947.595 -4.22429 -3.70823 0
M  V30 9499 H 939.746 -2.06834 -0.483052 0
M  V30 9500 H 942.009 -0.906929 -0.276014 0
M  V30 9501 H 941.715 -3.14446 -1.57532 0
M  V30 9502 H 941.589 -2.21115 -3.05594 0
M  V30 9503 H 943.976 -1.30841 -2.64508 0
M  V30 9504 H 944.057 -2.27664 -1.16631 0
M  V30 9505 H 943.701 -4.38877 -2.55635 0
M  V30 9506 H 943.631 -3.38988 -4.02982 0
M  V30 9507 H 946.122 -2.72759 -2.61555 0
M  V30 9508 H 946.435 -5.99236 -4.87991 0
M  V30 9509 H 944.78 -5.3847 -4.39403 0
M  V30 9510 H 947.971 -3.43639 -3.17851 0
M  V30 9511 H 948.144 -4.92501 -4.21126 0
M  V30 9512 N 941.55 1.18024 -1.04442 0
M  V30 9513 C 942.798 1.87727 -0.74854 0
M  V30 9514 C 943.119 1.80975 0.726156 0
M  V30 9515 O 942.389 1.23061 1.52423 0
M  V30 9516 H 940.969 0.694974 -0.273897 0
M  V30 9517 H 943.631 1.43213 -1.32197 0
M  V30 9518 H 942.727 2.93665 -1.05674 0
M  V30 9519 N 943.028 0.824394 1.34319 0
M  V30 9520 C 944.256 0.426194 2.02463 0
M  V30 9521 C 944.671 -0.968298 1.62078 0
M  V30 9522 O 944.028 -1.62689 0.82696 0
M  V30 9523 C 944.079 0.520465 3.57734 0
M  V30 9524 O 943.8 1.86 3.96656 0
M  V30 9525 C 945.301 0.117353 4.43145 0
M  V30 9526 H 942.521 0.170864 0.648881 0
M  V30 9527 H 945.065 1.11296 1.71562 0
M  V30 9528 H 943.22 -0.118233 3.8722 0
M  V30 9529 H 943.634 1.83528 4.91343 0
M  V30 9530 H 945.108 0.234395 5.51502 0
M  V30 9531 H 945.585 -0.939271 4.29039 0
M  V30 9532 H 946.191 0.729908 4.1899 0
M  V30 9533 N 944.506 -1.46559 0.579492 0
M  V30 9534 C 945.754 -2.02 0.0637157 0
M  V30 9535 C 946.075 -1.45378 -1.29962 0
M  V30 9536 O 945.345 -0.637262 -1.85245 0
M  V30 9537 H 943.925 -0.746717 0.0205638 0
M  V30 9538 H 946.587 -1.79702 0.754544 0
M  V30 9539 H 945.683 -3.12099 -0.00770254 0
M  V30 9540 N 945.984 -0.3171 -1.54377 0
M  V30 9541 C 947.4 0.035766 -1.5956 0
M  V30 9542 C 947.6 1.51038 -1.33378 0
M  V30 9543 O 946.656 2.26546 -1.11505 0
M  V30 9544 C 947.969 -0.376652 -2.98332 0
M  V30 9545 C 949.517 -0.326765 -3.1129 0
M  V30 9546 C 949.992 -0.714247 -4.52396 0
M  V30 9547 N 951.483 -0.667402 -4.58367 0
M  V30 9548 C 952.218 -0.939494 -5.65651 0
M  V30 9549 N 951.714 -1.27839 -6.80903 0
M  V30 9550 N 953.507 -0.865484 -5.55397 0
M  V30 9551 H 945.658 -1.27794 -1.69654 0
M  V30 9552 H 947.921 -0.5192 -0.79318 0
M  V30 9553 H 947.627 -1.40381 -3.22469 0
M  V30 9554 H 947.501 0.261611 -3.76292 0
M  V30 9555 H 949.888 0.69117 -2.86892 0
M  V30 9556 H 949.969 -0.999873 -2.35449 0
M  V30 9557 H 949.613 -1.73007 -4.77526 0
M  V30 9558 H 949.543 -0.0188962 -5.26597 0
M  V30 9559 H 952.034 -0.417062 -3.75592 0
M  V30 9560 H 952.347 -1.47155 -7.5866 0
M  V30 9561 H 950.692 -1.31658 -6.82416 0
M  V30 9562 H 953.883 -0.600265 -4.64235 0
M  V30 9563 H 954.056 -1.0809 -6.38921 0
M  V30 9564 N 947.462 1.57535 -0.0451378 0
M  V30 9565 C 948.687 1.97172 0.64326 0
M  V30 9566 C 949.112 0.922266 1.63939 0
M  V30 9567 O 948.47 -0.115155 1.80934 0
M  V30 9568 C 948.518 3.35889 1.3119 0
M  V30 9569 O 947.622 3.33387 2.42748 0
M  V30 9570 H 946.963 0.642469 0.167719 0
M  V30 9571 H 949.493 2.04295 -0.111747 0
M  V30 9572 H 949.503 3.72481 1.66499 0
M  V30 9573 H 948.178 4.1181 0.581823 0
M  V30 9574 H 946.755 3.08533 2.09432 0
M  V30 9575 N 948.94 -0.228186 1.55939 0
M  V30 9576 C 950.188 -0.951668 1.78291 0
M  V30 9577 C 950.509 -1.85132 0.612474 0
M  V30 9578 O 949.779 -1.92356 -0.370942 0
M  V30 9579 H 948.359 -0.354388 0.657585 0
M  V30 9580 H 951.021 -0.241635 1.93396 0
M  V30 9581 H 950.117 -1.56239 2.70177 0
M  V30 9582 N 950.418 -1.49637 -0.494624 0
M  V30 9583 C 951.348 -1.69692 -1.60396 0
M  V30 9584 C 952.329 -0.545648 -1.61111 0
M  V30 9585 O 953.514 -0.782202 -1.77751 0
M  V30 9586 C 950.644 -1.76934 -2.9885 0
M  V30 9587 C 949.598 -2.91915 -3.13001 0
M  V30 9588 C 948.924 -2.84276 -4.5287 0
M  V30 9589 C 950.224 -4.32764 -2.92426 0
M  V30 9590 H 951.918 -2.6257 -1.43866 0
M  V30 9591 H 949.464 -1.26355 -0.690679 0
M  V30 9592 H 951.417 -1.8955 -3.76362 0
M  V30 9593 H 950.141 -0.806609 -3.16483 0
M  V30 9594 H 948.8 -2.78911 -2.37916 0
M  V30 9595 H 948.448 -1.85897 -4.67388 0
M  V30 9596 H 948.148 -3.61452 -4.63278 0
M  V30 9597 H 949.672 -2.98909 -5.32434 0
M  V30 9598 H 951.086 -4.46415 -3.59703 0
M  V30 9599 H 949.483 -5.1121 -3.143 0
M  V30 9600 H 950.553 -4.46765 -1.88491 0
M  V30 9601 N 951.896 0.746133 -1.38819 0
M  V30 9602 C 953.312 1.0502 -1.20179 0
M  V30 9603 C 953.512 2.01423 -0.0556271 0
M  V30 9604 O 952.568 2.45359 0.59625 0
M  V30 9605 C 953.881 1.62315 -2.53129 0
M  V30 9606 C 955.429 1.74449 -2.59878 0
M  V30 9607 C 955.904 2.35155 -3.93022 0
M  V30 9608 N 957.395 2.42577 -3.94602 0
M  V30 9609 C 958.13 2.9046 -4.94389 0
M  V30 9610 N 957.626 3.38322 -6.04574 0
M  V30 9611 N 959.419 2.89568 -4.81775 0
M  V30 9612 H 951.57 0.106551 -2.12133 0
M  V30 9613 H 953.833 0.109897 -0.941609 0
M  V30 9614 H 953.539 0.98946 -3.37495 0
M  V30 9615 H 953.413 2.61276 -2.72057 0
M  V30 9616 H 955.8 2.36943 -1.75903 0
M  V30 9617 H 955.881 0.741721 -2.4481 0
M  V30 9618 H 955.525 1.73292 -4.77422 0
M  V30 9619 H 955.455 3.36088 -4.05404 0
M  V30 9620 H 957.946 2.08735 -3.15021 0
M  V30 9621 H 958.259 3.73336 -6.76639 0
M  V30 9622 H 956.604 3.3636 -6.08184 0
M  V30 9623 H 959.795 2.51492 -3.94803 0
M  V30 9624 H 959.968 3.26571 -5.59692 0
M  V30 9625 N 953.375 1.23811 0.975125 0
M  V30 9626 C 954.305 1.04846 2.08638 0
M  V30 9627 C 955.286 -0.0362859 1.70061 0
M  V30 9628 O 956.471 0.12937 1.93769 0
M  V30 9629 C 953.601 0.644534 3.41267 0
M  V30 9630 C 952.555 1.67722 3.93768 0
M  V30 9631 C 951.881 1.12857 5.22654 0
M  V30 9632 C 953.181 3.07147 4.22443 0
M  V30 9633 H 954.875 1.97795 2.24761 0
M  V30 9634 H 952.421 0.952397 1.08006 0
M  V30 9635 H 954.374 0.498887 4.18436 0
M  V30 9636 H 953.098 -0.320641 3.25022 0
M  V30 9637 H 951.757 1.81095 3.18748 0
M  V30 9638 H 951.405 0.154227 5.02764 0
M  V30 9639 H 951.105 1.81862 5.58749 0
M  V30 9640 H 952.629 0.994891 6.0244 0
M  V30 9641 H 954.043 2.97045 4.90344 0
M  V30 9642 H 952.44 3.73437 4.6975 0
M  V30 9643 H 953.51 3.55743 3.29507 0
M  V30 9644 N 954.853 -1.17469 1.05066 0
M  V30 9645 C 955.763 -2.25089 0.661222 0
M  V30 9646 C 956.779 -1.71086 -0.31712 0
M  V30 9647 O 957.955 -2.00685 -0.169534 0
M  V30 9648 C 955.02 -3.46676 0.0406415 0
M  V30 9649 C 954.081 -4.15771 1.06927 0
M  V30 9650 C 953.314 -5.31553 0.478208 0
M  V30 9651 O 953.537 -5.6593 -0.712714 0
M  V30 9652 O 952.471 -5.89574 1.21185 0
M  V30 9653 H 956.297 -2.60685 1.5581 0
M  V30 9654 H 953.882 -1.24744 0.822147 0
M  V30 9655 H 955.764 -4.203 -0.304312 0
M  V30 9656 H 954.439 -3.1288 -0.829909 0
M  V30 9657 H 953.346 -3.44171 1.46619 0
M  V30 9658 H 954.679 -4.53591 1.91092 0
M  V30 9659 N 956.331 -0.831506 -1.3388 0
M  V30 9660 C 957.608 -0.345907 -1.92517 0
M  V30 9661 C 957.988 1.16784 -1.75854 0
M  V30 9662 O 957.336 1.97889 -1.14245 0
M  V30 9663 C 957.546 -0.784692 -3.40064 0
M  V30 9664 C 958.894 -0.78846 -4.17215 0
M  V30 9665 O 959.918 -0.727823 -3.48685 0
M  V30 9666 O 958.777 -0.869481 -5.39539 0
M  V30 9667 H 955.871 -0.0963568 -0.821367 0
M  V30 9668 H 958.417 -0.916868 -1.42799 0
M  V30 9669 H 957.189 -1.82697 -3.46031 0
M  V30 9670 H 956.812 -0.189897 -3.97146 0
M  V30 9671 N 957.809 1.4625 -0.587256 0
M  V30 9672 C 958.772 2.28812 0.133238 0
M  V30 9673 C 959.772 1.38645 0.814513 0
M  V30 9674 O 960.962 1.60975 0.665774 0
M  V30 9675 C 958.094 3.19147 1.19824 0
M  V30 9676 H 959.287 2.93991 -0.592386 0
M  V30 9677 H 956.84 1.52435 -0.345416 0
M  V30 9678 H 957.575 2.58725 1.95529 0
M  V30 9679 H 957.36 3.85541 0.71418 0
M  V30 9680 H 958.85 3.81278 1.70344 0
M  V30 9681 N 959.287 0.325282 1.54207 0
M  V30 9682 C 960.698 -0.162426 1.85992 0
M  V30 9683 C 961.049 -1.51482 1.2469 0
M  V30 9684 O 960.174 -2.092 0.553578 0
M  V30 9685 C 960.769 -0.3015 3.37456 0
M  V30 9686 C 959.328 -0.73343 3.69185 0
M  V30 9687 C 958.475 0.143831 2.76927 0
M  V30 9688 H 961.426 0.545508 1.4903 0
M  V30 9689 H 961.447 -1.13212 3.63268 0
M  V30 9690 H 960.959 0.682942 3.82044 0
M  V30 9691 H 959.06 -1.72755 3.30131 0
M  V30 9692 H 959.173 -0.535987 4.76092 0
M  V30 9693 H 957.537 -0.380892 2.51836 0
M  V30 9694 H 958.32 1.12507 3.24341 0
M  V30 9695 N 960.765 -1.57509 0.0534917 0
M  V30 9696 C 961.712 -2.11667 -0.920101 0
M  V30 9697 C 962.682 -1.0246 -1.30733 0
M  V30 9698 O 963.867 -1.30021 -1.39639 0
M  V30 9699 C 961.007 -2.66803 -2.18883 0
M  V30 9700 C 960.12 -3.90104 -1.85588 0
M  V30 9701 C 959.255 -4.33547 -3.06937 0
M  V30 9702 C 958.294 -5.49542 -2.69573 0
M  V30 9703 N 957.431 -5.88029 -3.83623 0
M  V30 9704 H 962.271 -2.94562 -0.451371 0
M  V30 9705 H 959.808 -1.45576 -0.211168 0
M  V30 9706 H 961.766 -2.96871 -2.93127 0
M  V30 9707 H 960.396 -1.86702 -2.63329 0
M  V30 9708 H 959.448 -3.66613 -1.01484 0
M  V30 9709 H 960.76 -4.74404 -1.54087 0
M  V30 9710 H 959.914 -4.6518 -3.89477 0
M  V30 9711 H 958.653 -3.48064 -3.41618 0
M  V30 9712 H 957.658 -5.17579 -1.8545 0
M  V30 9713 H 958.883 -6.36743 -2.36082 0
M  V30 9714 H 956.829 -5.05498 -4.181 0
M  V30 9715 H 956.746 -6.67025 -3.55828 0
M  V30 9716 H 958.014 -6.24277 -4.66796 0
M  V30 9717 N 962.243 0.219913 -1.56058 0
M  V30 9718 C 963.206 1.25606 -1.91718 0
M  V30 9719 C 964.206 1.39721 -0.795912 0
M  V30 9720 O 965.396 1.37958 -1.06364 0
M  V30 9721 C 962.528 2.62961 -2.16943 0
M  V30 9722 H 963.721 0.951909 -2.84392 0
M  V30 9723 H 961.274 0.460398 -1.49365 0
M  V30 9724 H 962.009 2.98472 -1.26826 0
M  V30 9725 H 961.794 2.54093 -2.98629 0
M  V30 9726 H 963.284 3.37727 -2.45622 0
M  V30 9727 N 963.721 1.49897 0.486681 0
M  V30 9728 C 964.653 1.63755 1.60365 0
M  V30 9729 C 965.666 0.519614 1.54285 0
M  V30 9730 O 966.855 0.792219 1.59957 0
M  V30 9731 C 963.955 1.59153 2.99205 0
M  V30 9732 C 963.128 2.8672 3.30319 0
M  V30 9733 C 962.187 2.74974 4.48638 0
M  V30 9734 O 961.213 3.48922 4.49714 0
M  V30 9735 N 962.415 1.87479 5.49392 0
M  V30 9736 H 965.18 2.60094 1.48899 0
M  V30 9737 H 962.741 1.47166 0.674825 0
M  V30 9738 H 964.733 1.4893 3.76301 0
M  V30 9739 H 963.303 0.706133 3.0452 0
M  V30 9740 H 962.523 3.11188 2.41983 0
M  V30 9741 H 963.811 3.71262 3.47911 0
M  V30 9742 H 963.209 1.26684 5.51333 0
M  V30 9743 H 961.766 1.83169 6.25534 0
M  V30 9744 N 965.199 -0.738761 1.39212 0
M  V30 9745 C 966.427 -1.52801 1.39497 0
M  V30 9746 C 966.842 -1.88797 -0.0114917 0
M  V30 9747 O 966.199 -1.53835 -0.981887 0
M  V30 9748 C 966.25 -2.81793 2.2644 0
M  V30 9749 O 965.971 -2.47328 3.61608 0
M  V30 9750 C 967.472 -3.75844 2.35067 0
M  V30 9751 H 964.692 -0.472322 0.476606 0
M  V30 9752 H 967.236 -0.913153 1.8298 0
M  V30 9753 H 965.391 -3.3962 1.8638 0
M  V30 9754 H 965.805 -3.30162 4.07545 0
M  V30 9755 H 967.279 -4.6326 3.00157 0
M  V30 9756 H 967.756 -4.17329 1.3687 0
M  V30 9757 H 968.362 -3.23937 2.75581 0
M  V30 9758 N 966.677 -1.24326 -0.968545 0
M  V30 9759 C 967.925 -1.08032 -1.70803 0
M  V30 9760 C 968.246 0.381728 -1.91227 0
M  V30 9761 O 967.516 1.27253 -1.48942 0
M  V30 9762 H 966.096 -0.396777 -0.632912 0
M  V30 9763 H 968.758 -1.56232 -1.16523 0
M  V30 9764 H 967.854 -1.57769 -2.69287 0
M  V30 9765 N 968.156 1.1691 -1.05688 0
M  V30 9766 C 969.567 1.68915 -0.795273 0
M  V30 9767 C 969.918 1.83968 0.681925 0
M  V30 9768 O 969.043 1.53083 1.52953 0
M  V30 9769 C 969.638 3.06814 -1.43703 0
M  V30 9770 C 968.197 3.55965 -1.22335 0
M  V30 9771 C 967.344 2.32099 -1.51741 0
M  V30 9772 H 970.295 1.01357 -1.22116 0
M  V30 9773 H 970.316 3.70907 -0.849016 0
M  V30 9774 H 969.828 2.95826 -2.51214 0
M  V30 9775 H 967.929 3.72222 -0.16771 0
M  V30 9776 H 968.042 4.38427 -1.9318 0
M  V30 9777 H 966.406 2.36811 -0.937696 0
M  V30 9778 H 967.189 2.23715 -2.60397 0
M  V30 9779 N 969.634 0.838594 1.33437 0
M  V30 9780 C 971.045 0.490934 1.8013 0
M  V30 9781 C 971.396 -0.990024 1.6939 0
M  V30 9782 O 970.521 -1.77139 1.24302 0
M  V30 9783 C 971.116 0.884347 3.27055 0
M  V30 9784 C 969.675 0.588829 3.71766 0
M  V30 9785 C 968.822 1.09282 2.54858 0
M  V30 9786 H 971.773 1.02732 1.20962 0
M  V30 9787 H 971.794 0.194283 3.80004 0
M  V30 9788 H 971.306 1.96225 3.34839 0
M  V30 9789 H 969.407 -0.479018 3.69508 0
M  V30 9790 H 969.52 1.14387 4.65245 0
M  V30 9791 H 967.884 0.513702 2.49466 0
M  V30 9792 H 968.667 2.1775 2.65405 0
M  V30 9793 N 971.112 -1.45937 0.595003 0
M  V30 9794 C 972.528 -1.57507 0.257641 0
M  V30 9795 C 972.728 -1.58829 -1.23998 0
M  V30 9796 O 971.784 -1.51183 -2.02237 0
M  V30 9797 C 973.097 -2.86354 0.917708 0
M  V30 9798 C 974.645 -3.00007 0.892446 0
M  V30 9799 C 975.12 -4.31607 1.53229 0
M  V30 9800 N 976.611 -4.38336 1.49719 0
M  V30 9801 C 977.346 -5.38805 1.96154 0
M  V30 9802 N 976.842 -6.45882 2.50617 0
M  V30 9803 N 978.635 -5.30084 1.86997 0
M  V30 9804 H 970.786 -1.43322 1.56756 0
M  V30 9805 H 973.049 -0.684436 0.655936 0
M  V30 9806 H 972.755 -2.91233 1.97171 0
M  V30 9807 H 972.629 -3.74703 0.433344 0
M  V30 9808 H 975.016 -2.94703 -0.152975 0
M  V30 9809 H 975.097 -2.13103 1.41495 0
M  V30 9810 H 974.741 -4.3767 2.57697 0
M  V30 9811 H 974.671 -5.17308 0.984903 0
M  V30 9812 H 977.162 -3.6156 1.09921 0
M  V30 9813 H 977.475 -7.18774 2.83874 0
M  V30 9814 H 975.82 -6.46668 2.54649 0
M  V30 9815 H 979.011 -4.45337 1.44196 0
M  V30 9816 H 979.184 -6.08237 2.23499 0
M  V30 9817 N 972.59 -0.333456 -1.54032 0
M  V30 9818 C 973.836 0.266527 -2.01041 0
M  V30 9819 C 974.169 1.51006 -1.2211 0
M  V30 9820 O 973.444 1.92078 -0.306016 0
M  V30 9821 C 973.727 0.59078 -3.55221 0
M  V30 9822 C 973.58 -0.664143 -4.4487 0
M  V30 9823 C 974.899 1.40447 -4.17088 0
M  V30 9824 H 972.018 0.0953979 -0.7308 0
M  V30 9825 H 974.66 -0.451995 -1.84545 0
M  V30 9826 H 972.81 1.20292 -3.69408 0
M  V30 9827 H 974.482 -1.30227 -4.42537 0
M  V30 9828 H 972.725 -1.29106 -4.14143 0
M  V30 9829 H 973.396 -0.392664 -5.50602 0
M  V30 9830 H 975.872 0.886946 -4.06537 0
M  V30 9831 H 974.748 1.6001 -5.2506 0
M  V30 9832 H 975.009 2.40357 -3.71054 0
M  V30 9833 N 974.068 1.57479 -0.061844 0
M  V30 9834 C 975.345 1.84484 0.649993 0
M  V30 9835 C 975.725 0.952366 1.88396 0
M  V30 9836 O 975.073 0.0161035 2.28494 0
M  V30 9837 C 975.283 3.34452 0.997133 0
M  V30 9838 C 976.631 4.01724 1.37488 0
M  V30 9839 O 977.655 3.3914 1.08916 0
M  V30 9840 O 976.514 5.12091 1.90854 0
M  V30 9841 H 973.608 0.761798 0.321858 0
M  V30 9842 H 976.154 1.6945 -0.0920192 0
M  V30 9843 H 974.926 3.91115 0.120301 0
M  V30 9844 H 974.549 3.54713 1.79624 0
M  V30 9845 N 975.546 -0.211634 1.56173 0
M  V30 9846 C 976.493 -1.26231 1.93221 0
M  V30 9847 C 977.463 -1.46076 0.790641 0
M  V30 9848 O 978.648 -1.59482 1.04739 0
M  V30 9849 C 975.788 -2.60559 2.26281 0
M  V30 9850 C 974.901 -2.48431 3.5342 0
M  V30 9851 C 974.036 -3.7535 3.7588 0
M  V30 9852 C 973.075 -3.57985 4.96501 0
M  V30 9853 N 972.212 -4.76877 5.15299 0
M  V30 9854 H 977.052 -0.939367 2.82807 0
M  V30 9855 H 974.589 -0.452511 1.39967 0
M  V30 9856 H 976.547 -3.38796 2.43461 0
M  V30 9857 H 975.177 -2.9093 1.39855 0
M  V30 9858 H 974.229 -1.61577 3.44379 0
M  V30 9859 H 975.541 -2.31526 4.41811 0
M  V30 9860 H 974.695 -4.62029 3.9321 0
M  V30 9861 H 973.434 -3.95191 2.85788 0
M  V30 9862 H 972.439 -2.69691 4.79111 0
M  V30 9863 H 973.664 -3.39605 5.88086 0
M  V30 9864 H 971.61 -4.97013 4.28152 0
M  V30 9865 H 971.527 -4.62735 5.9784 0
M  V30 9866 H 972.795 -5.64954 5.37073 0
M  V30 9867 N 977.024 -1.50153 -0.478725 0
M  V30 9868 C 977.957 -1.63089 -1.59616 0
M  V30 9869 C 978.935 -0.479211 -1.55378 0
M  V30 9870 O 980.119 -0.697715 -1.75112 0
M  V30 9871 C 977.246 -1.60643 -2.9818 0
M  V30 9872 C 976.292 -2.81279 -3.206 0
M  V30 9873 S 977.125 -4.42681 -3.0132 0
M  V30 9874 C 978.281 -4.42915 -4.42241 0
M  V30 9875 H 978.514 -2.57612 -1.48402 0
M  V30 9876 H 976.047 -1.39321 -0.665513 0
M  V30 9877 H 978.005 -1.59917 -3.7807 0
M  V30 9878 H 976.666 -0.673684 -3.0679 0
M  V30 9879 H 975.859 -2.7585 -4.21809 0
M  V30 9880 H 975.461 -2.79533 -2.4847 0
M  V30 9881 H 977.753 -4.16007 -5.34737 0
M  V30 9882 H 978.696 -5.44477 -4.52715 0
M  V30 9883 H 979.104 -3.72715 -4.23962 0
M  V30 9884 N 978.502 0.731368 -1.39602 0
M  V30 9885 C 979.73 1.52059 -1.40305 0
M  V30 9886 C 980.145 1.888 0.00147921 0
M  V30 9887 O 979.502 1.54354 0.973715 0
M  V30 9888 C 979.553 2.80588 -2.27931 0
M  V30 9889 O 979.274 2.45406 -3.62915 0
M  V30 9890 C 980.775 3.74592 -2.37056 0
M  V30 9891 H 977.995 0.469787 -0.479104 0
M  V30 9892 H 980.539 0.903436 -1.83462 0
M  V30 9893 H 978.694 3.38626 -1.88178 0
M  V30 9894 H 979.108 3.27996 -4.09291 0
M  V30 9895 H 980.582 4.61662 -3.02609 0
M  V30 9896 H 981.059 4.16597 -1.39081 0
M  V30 9897 H 981.665 3.22471 -2.77295 0
M  V30 9898 N 979.98 1.24838 0.961938 0
M  V30 9899 C 980.912 1.00369 2.06055 0
M  V30 9900 C 981.925 -0.0288583 1.62774 0
M  V30 9901 O 983.114 0.208853 1.77274 0
M  V30 9902 C 980.214 0.493953 3.35281 0
M  V30 9903 C 979.387 1.59097 4.07439 0
M  V30 9904 C 978.446 1.08288 5.14937 0
M  V30 9905 O 977.472 1.77577 5.40791 0
M  V30 9906 N 978.674 -0.0796836 5.80445 0
M  V30 9907 H 981.439 1.94962 2.27618 0
M  V30 9908 H 979 1.15945 1.12997 0
M  V30 9909 H 980.992 0.138675 4.04462 0
M  V30 9910 H 979.562 -0.357851 3.10545 0
M  V30 9911 H 978.782 2.11817 3.32456 0
M  V30 9912 H 980.07 2.32817 4.52409 0
M  V30 9913 H 979.468 -0.658827 5.6185 0
M  V30 9914 H 978.025 -0.376057 6.50714 0
M  V30 9915 N 981.458 -1.16348 1.06306 0
M  V30 9916 C 982.698 -1.88556 0.789055 0
M  V30 9917 C 983.062 -1.79849 -0.672179 0
M  V30 9918 O 984.263 -2.46984 -1.06078 0
M  V30 9919 C 982.534 -3.34069 1.27016 0
M  V30 9920 S 984.093 -4.24128 1.12522 0
M  V30 9921 H 980.911 -0.65084 0.286232 0
M  V30 9922 H 983.513 -1.40443 1.36 0
M  V30 9923 H 982.217 -3.37944 2.32856 0
M  V30 9924 H 981.748 -3.87231 0.693963 0
M  V30 9925 H 983.763 -4.96168 0.0562142 0
M  V30 9926 N 982.937 -0.845659 -1.3299 0
M  V30 9927 C 984.167 -0.457686 -2.01467 0
M  V30 9928 C 984.575 0.947664 -1.63756 0
M  V30 9929 O 983.918 1.62841 -0.850213 0
M  V30 9930 C 983.98 -0.506589 -3.55913 0
M  V30 9931 C 983.644 -1.86924 -4.17023 0
M  V30 9932 C 984.641 -2.83344 -4.35904 0
M  V30 9933 C 982.326 -2.16394 -4.53298 0
M  V30 9934 C 984.32 -4.07391 -4.90216 0
M  V30 9935 C 982.007 -3.40695 -5.07316 0
M  V30 9936 C 983.005 -4.3601 -5.25722 0
M  V30 9937 O 982.693 -5.58112 -5.7859 0
M  V30 9938 H 982.425 -0.179258 -0.651799 0
M  V30 9939 H 984.979 -1.14172 -1.70745 0
M  V30 9940 H 983.209 0.234253 -3.8599 0
M  V30 9941 H 984.898 -0.135487 -4.05674 0
M  V30 9942 H 985.664 -2.61879 -4.08221 0
M  V30 9943 H 981.543 -1.42994 -4.38262 0
M  V30 9944 H 985.087 -4.81796 -5.04498 0
M  V30 9945 H 980.984 -3.62014 -5.3443 0
M  V30 9946 H 981.752 -5.59946 -5.96995 0
M  V30 9947 N 984.415 1.45619 -0.602734 0
M  V30 9948 C 985.662 2.02272 -0.0960337 0
M  V30 9949 C 985.99 1.47177 1.27159 0
M  V30 9950 O 985.245 0.634593 1.85125 0
M  V30 9951 C 985.544 3.574 -0.00157909 0
M  V30 9952 C 985.21 4.31626 -1.30422 0
M  V30 9953 C 983.872 4.51622 -1.66106 0
M  V30 9954 C 986.224 4.74091 -2.16535 0
M  V30 9955 C 983.552 5.11338 -2.87663 0
M  V30 9956 C 985.904 5.35151 -3.37336 0
M  V30 9957 C 984.568 5.53371 -3.73278 0
M  V30 9958 H 983.838 0.740166 -0.0351412 0
M  V30 9959 H 986.485 1.74744 -0.783382 0
M  V30 9960 H 984.79 3.84179 0.769008 0
M  V30 9961 H 986.487 3.98934 0.406549 0
M  V30 9962 H 983.077 4.16372 -1.01647 0
M  V30 9963 H 987.261 4.5838 -1.90266 0
M  V30 9964 H 982.517 5.23634 -3.15622 0
M  V30 9965 H 986.691 5.67011 -4.04316 0
M  V30 9966 H 984.318 5.99412 -4.67556 0
M  V30 9967 N 985.893 0.34162 1.53853 0
M  V30 9968 C 986.803 -0.524555 2.2866 0
M  V30 9969 C 987.819 -1.1136 1.33697 0
M  V30 9970 O 988.995 -1.1297 1.66732 0
M  V30 9971 C 986.06 -1.66065 3.04341 0
M  V30 9972 C 985.121 -1.10158 4.14926 0
M  V30 9973 C 984.354 -2.18353 4.86988 0
M  V30 9974 O 984.577 -3.39038 4.58704 0
M  V30 9975 O 983.511 -1.82756 5.73484 0
M  V30 9976 H 987.337 0.0835014 3.03585 0
M  V30 9977 H 984.922 0.106727 1.49018 0
M  V30 9978 H 986.804 -2.3217 3.51674 0
M  V30 9979 H 985.479 -2.25456 2.32275 0
M  V30 9980 H 984.386 -0.405109 3.719 0
M  V30 9981 H 985.719 -0.552567 4.89088 0
M  V30 9982 N 987.371 -1.57444 0.0701946 0
M  V30 9983 C 988.619 -1.93047 -0.598106 0
M  V30 9984 C 988.94 -0.950841 -1.70247 0
M  V30 9985 O 988.21 0.00127177 -1.959 0
M  V30 9986 H 986.79 -0.712648 -0.223924 0
M  V30 9987 H 989.452 -1.94481 0.127674 0
M  V30 9988 H 988.548 -2.94807 -1.02445 0
M  V30 9989 N 988.849 0.203349 -1.56283 0
M  V30 9990 C 990.097 0.923183 -1.79782 0
M  V30 9991 C 990.418 1.84134 -0.64185 0
M  V30 9992 O 989.688 1.92922 0.340292 0
M  V30 9993 H 988.268 0.343881 -0.66314 0
M  V30 9994 H 990.93 0.210837 -1.93756 0
M  V30 9995 H 990.026 1.51921 -2.72629 0
M  V30 9996 N 990.327 1.50405 0.470755 0
M  V30 9997 C 991.557 1.64928 1.24428 0
M  V30 9998 C 991.965 0.332139 1.86262 0
M  V30 9999 O 991.308 -0.695919 1.70008 0
M  V30 10000 C 991.37 2.6829 2.39293 0
M  V30 10001 C 991.034 4.11835 1.98093 0
M  V30 10002 C 992.031 4.97693 1.50326 0
M  V30 10003 C 989.716 4.57753 2.06803 0
M  V30 10004 C 991.71 6.27516 1.11813 0
M  V30 10005 C 989.397 5.87582 1.67902 0
M  V30 10006 C 990.395 6.72289 1.20485 0
M  V30 10007 O 990.083 7.99694 0.821219 0
M  V30 10008 H 989.815 0.557418 0.382442 0
M  V30 10009 H 992.369 1.97382 0.568292 0
M  V30 10010 H 990.599 2.31079 3.10063 0
M  V30 10011 H 992.288 2.7203 3.01255 0
M  V30 10012 H 993.054 4.63434 1.43018 0
M  V30 10013 H 988.933 3.91966 2.42659 0
M  V30 10014 H 992.477 6.93586 0.747317 0
M  V30 10015 H 988.374 6.21362 1.74869 0
M  V30 10016 H 989.142 8.12968 0.950038 0
M  V30 10017 N 991.805 -0.723954 1.39988 0
M  V30 10018 C 992.737 -1.84859 1.35498 0
M  V30 10019 C 993.75 -1.60681 0.261812 0
M  V30 10020 O 994.939 -1.7071 0.521566 0
M  V30 10021 C 992.039 -3.21103 1.08381 0
M  V30 10022 C 991.212 -3.72546 2.2919 0
M  V30 10023 C 990.271 -4.8738 1.9836 0
M  V30 10024 O 989.297 -5.00467 2.71149 0
M  V30 10025 N 990.499 -5.72566 0.956461 0
M  V30 10026 H 993.264 -1.89212 2.3242 0
M  V30 10027 H 990.825 -0.905152 1.34233 0
M  V30 10028 H 992.817 -3.9551 0.857564 0
M  V30 10029 H 991.387 -3.1195 0.201549 0
M  V30 10030 H 990.607 -2.89365 2.67697 0
M  V30 10031 H 991.895 -4.03652 3.09746 0
M  V30 10032 H 991.293 -5.64595 0.353444 0
M  V30 10033 H 989.85 -6.46993 0.790118 0
M  V30 10034 N 993.283 -1.25346 -0.955304 0
M  V30 10035 C 994.193 -1.07412 -2.08566 0
M  V30 10036 C 995.209 -0.0114424 -1.73996 0
M  V30 10037 O 996.385 -0.212236 -2.00279 0
M  V30 10038 C 993.45 -0.694141 -3.3968 0
M  V30 10039 C 992.511 -1.83468 -3.88121 0
M  V30 10040 C 991.744 -1.47274 -5.12978 0
M  V30 10041 O 991.967 -0.368086 -5.69211 0
M  V30 10042 O 990.901 -2.30269 -5.56111 0
M  V30 10043 H 994.727 -2.02206 -2.26598 0
M  V30 10044 H 992.312 -1.04279 -1.06988 0
M  V30 10045 H 994.194 -0.494325 -4.18491 0
M  V30 10046 H 992.869 0.224545 -3.2292 0
M  V30 10047 H 991.776 -2.08935 -3.10318 0
M  V30 10048 H 993.109 -2.73258 -4.09379 0
M  V30 10049 N 994.761 1.15782 -1.06922 0
M  V30 10050 C 995.989 1.90355 -0.81072 0
M  V30 10051 C 996.404 1.77779 0.635614 0
M  V30 10052 O 995.761 1.12675 1.43564 0
M  V30 10053 C 995.812 3.4085 -1.2043 0
M  V30 10054 O 995.533 3.53057 -2.59388 0
M  V30 10055 C 997.034 4.32457 -0.974473 0
M  V30 10056 H 994.254 0.60343 -0.293451 0
M  V30 10057 H 996.798 1.46723 -1.42452 0
M  V30 10058 H 994.953 3.82162 -0.634909 0
M  V30 10059 H 995.367 4.46426 -2.75326 0
M  V30 10060 H 996.841 5.36488 -1.29942 0
M  V30 10061 H 997.318 4.39109 0.0894481 0
M  V30 10062 H 997.924 3.96882 -1.52856 0
M  V30 10063 N 996.239 0.8527 1.3254 0
M  V30 10064 C 997.65 0.510012 1.79599 0
M  V30 10065 C 998.001 -0.972002 1.70431 0
M  V30 10066 O 997.126 -1.7581 1.26173 0
M  V30 10067 C 997.721 0.918986 3.26098 0
M  V30 10068 C 996.28 0.628227 3.7112 0
M  V30 10069 C 995.427 1.11979 2.53685 0
M  V30 10070 H 998.378 1.04009 1.19866 0
M  V30 10071 H 998.399 0.234577 3.79776 0
M  V30 10072 H 997.911 1.99765 3.32739 0
M  V30 10073 H 996.012 -0.4398 3.69995 0
M  V30 10074 H 996.125 1.19315 4.64005 0
M  V30 10075 H 994.489 0.540133 2.48907 0
M  V30 10076 H 995.272 2.20552 2.63081 0
M  V30 10077 N 997.718 -1.45297 0.610449 0
M  V30 10078 C 998.964 -2.02518 0.106917 0
M  V30 10079 C 999.297 -1.47747 -1.26034 0
M  V30 10080 O 998.572 -0.65329 -1.832 0
M  V30 10081 C 998.855 -3.6003 0.0710975 0
M  V30 10082 C 998.708 -4.25128 1.46922 0
M  V30 10083 C 1000.03 -4.35778 -0.61524 0
M  V30 10084 H 997.146 -0.735896 0.040327 0
M  V30 10085 H 999.788 -1.73117 0.782968 0
M  V30 10086 H 997.938 -3.85209 -0.504611 0
M  V30 10087 H 999.61 -4.11125 2.09223 0
M  V30 10088 H 997.853 -3.83418 2.02911 0
M  V30 10089 H 998.524 -5.34046 1.39637 0
M  V30 10090 H 1001 -4.1591 -0.125871 0
M  V30 10091 H 999.876 -5.45506 -0.609419 0
M  V30 10092 H 1000.14 -4.08859 -1.68186 0
M  V30 10093 N 999.196 -0.349774 -1.5367 0
M  V30 10094 C 1000.43 0.245682 -2.05134 0
M  V30 10095 C 1000.83 1.44269 -1.22406 0
M  V30 10096 O 1000.18 1.81938 -0.25379 0
M  V30 10097 C 1000.24 0.718439 -3.52248 0
M  V30 10098 C 999.903 -0.35975 -4.55582 0
M  V30 10099 C 1000.9 -1.20449 -5.05755 0
M  V30 10100 C 998.585 -0.515463 -4.99648 0
M  V30 10101 C 1000.58 -2.19043 -5.98581 0
M  V30 10102 C 998.266 -1.50479 -5.92283 0
M  V30 10103 C 999.264 -2.34072 -6.41638 0
M  V30 10104 O 998.952 -3.31319 -7.3245 0
M  V30 10105 H 998.684 0.0501122 -0.67414 0
M  V30 10106 H 1001.24 -0.5018 -1.99176 0
M  V30 10107 H 999.468 1.51727 -3.55691 0
M  V30 10108 H 1001.16 1.23513 -3.86651 0
M  V30 10109 H 1001.92 -1.09531 -4.7247 0
M  V30 10110 H 997.802 0.12537 -4.60829 0
M  V30 10111 H 1001.35 -2.84327 -6.37027 0
M  V30 10112 H 997.243 -1.61451 -6.24983 0
M  V30 10113 H 998.011 -3.26863 -7.50402 0
M  V30 10114 N 1000.67 1.57404 -0.0785433 0
M  V30 10115 C 1001.6 2.16131 0.883726 0
M  V30 10116 C 1002.58 1.09015 1.30575 0
M  V30 10117 O 1003.77 1.3708 1.37559 0
M  V30 10118 C 1000.9 2.72836 2.1489 0
M  V30 10119 C 999.854 3.85178 1.86605 0
M  V30 10120 C 999.18 4.28516 3.1981 0
M  V30 10121 C 1000.48 5.09118 1.16601 0
M  V30 10122 H 1002.17 2.9679 0.394484 0
M  V30 10123 H 999.72 1.42763 0.188304 0
M  V30 10124 H 1001.67 3.12567 2.8263 0
M  V30 10125 H 1000.4 1.89408 2.66068 0
M  V30 10126 H 999.056 3.45962 1.21268 0
M  V30 10127 H 998.704 3.42 3.68843 0
M  V30 10128 H 998.404 5.04249 3.01674 0
M  V30 10129 H 999.928 4.70868 3.88737 0
M  V30 10130 H 1001.34 5.46123 1.74422 0
M  V30 10131 H 999.739 5.90173 1.087 0
M  V30 10132 H 1000.81 4.8468 0.146138 0
M  V30 10133 N 1002.15 -0.195058 1.56388 0
M  V30 10134 C 1003.08 -1.24444 1.97575 0
M  V30 10135 C 1004.06 -1.47471 0.847717 0
M  V30 10136 O 1005.25 -1.59208 1.11205 0
M  V30 10137 C 1002.38 -2.58866 2.31529 0
M  V30 10138 C 1001.33 -2.50451 3.47071 0
M  V30 10139 C 1000.66 -3.89146 3.667 0
M  V30 10140 C 1001.96 -2.02953 4.81256 0
M  V30 10141 H 1003.65 -0.902178 2.85484 0
M  V30 10142 H 1001.2 -0.43254 1.3735 0
M  V30 10143 H 1003.15 -3.3246 2.58936 0
M  V30 10144 H 1001.87 -2.94833 1.40502 0
M  V30 10145 H 1000.53 -1.79313 3.19754 0
M  V30 10146 H 1000.18 -4.22466 2.73004 0
M  V30 10147 H 999.882 -3.84391 4.44429 0
M  V30 10148 H 1001.41 -4.64363 3.96484 0
M  V30 10149 H 1002.82 -2.66306 5.07695 0
M  V30 10150 H 1001.22 -2.092 5.62455 0
M  V30 10151 H 1002.29 -0.982757 4.74837 0
M  V30 10152 N 1003.63 -1.50653 -0.462772 0
M  V30 10153 C 1004.59 -1.69561 -1.54213 0
M  V30 10154 C 1005.59 -0.566106 -1.50505 0
M  V30 10155 O 1006.78 -0.833273 -1.52978 0
M  V30 10156 C 1003.91 -1.72856 -2.93826 0
M  V30 10157 H 1005.11 -2.65867 -1.38761 0
M  V30 10158 H 1002.66 -1.40259 -0.689728 0
M  V30 10159 H 1003.4 -0.78273 -3.14712 0
M  V30 10160 H 1003.18 -2.54919 -2.97924 0
M  V30 10161 H 1004.67 -1.89411 -3.72174 0
M  V30 10162 N 1005.11 0.71652 -1.4037 0
M  V30 10163 C 1006.02 1.86074 -1.42876 0
M  V30 10164 C 1007.03 1.71005 -0.321475 0
M  V30 10165 O 1008.21 1.93286 -0.565909 0
M  V30 10166 C 1005.28 3.21862 -1.28863 0
M  V30 10167 C 1004.34 3.49193 -2.49726 0
M  V30 10168 C 1003.57 4.78502 -2.36372 0
M  V30 10169 O 1003.79 5.53529 -1.37703 0
M  V30 10170 O 1002.73 5.06147 -3.25728 0
M  V30 10171 H 1006.55 1.86916 -2.39366 0
M  V30 10172 H 1004.14 0.866818 -1.21683 0
M  V30 10173 H 1006.02 4.02972 -1.23253 0
M  V30 10174 H 1004.69 3.2175 -0.354783 0
M  V30 10175 H 1003.6 2.68095 -2.60913 0
M  V30 10176 H 1004.93 3.54101 -3.41868 0
M  V30 10177 N 1006.59 1.25851 0.948643 0
M  V30 10178 C 1007.52 1.09248 2.06367 0
M  V30 10179 C 1008.5 -0.000205168 1.701 0
M  V30 10180 O 1009.68 0.170442 1.93451 0
M  V30 10181 C 1006.81 0.716777 3.39823 0
M  V30 10182 C 1005.77 1.76036 3.90122 0
M  V30 10183 C 1005.09 1.23918 5.20143 0
M  V30 10184 C 1006.39 3.16039 4.15833 0
M  V30 10185 H 1008.09 2.02518 2.20515 0
M  V30 10186 H 1005.63 0.975093 1.05962 0
M  V30 10187 H 1007.59 0.587531 4.17284 0
M  V30 10188 H 1006.31 -0.251626 3.25629 0
M  V30 10189 H 1004.97 1.87815 3.14835 0
M  V30 10190 H 1004.62 0.260836 5.02323 0
M  V30 10191 H 1004.32 1.93673 5.54765 0
M  V30 10192 H 1005.84 1.12245 6.00194 0
M  V30 10193 H 1007.25 3.0738 4.83933 0
M  V30 10194 H 1005.65 3.83317 4.61723 0
M  V30 10195 H 1006.72 3.62652 3.21887 0
M  V30 10196 N 1008.06 -1.15214 1.07534 0
M  V30 10197 C 1009.31 -1.85676 0.79805 0
M  V30 10198 C 1009.63 -1.82837 -0.677919 0
M  V30 10199 O 1008.9 -1.27059 -1.49107 0
M  V30 10200 H 1007.48 -0.687468 0.292227 0
M  V30 10201 H 1010.15 -1.39658 1.35947 0
M  V30 10202 H 1009.24 -2.9076 1.13423 0
M  V30 10203 N 1009.54 -0.859717 -1.32086 0
M  V30 10204 C 1010.77 -0.479028 -2.0097 0
M  V30 10205 C 1011.18 0.930242 -1.64752 0
M  V30 10206 O 1010.52 1.6193 -0.867437 0
M  V30 10207 C 1010.59 -0.54431 -3.55355 0
M  V30 10208 C 1010.25 -1.91337 -4.15017 0
M  V30 10209 C 1011.25 -2.87951 -4.32874 0
M  V30 10210 C 1008.93 -2.21189 -4.50977 0
M  V30 10211 C 1010.93 -4.12567 -4.85867 0
M  V30 10212 C 1008.61 -3.46057 -5.03674 0
M  V30 10213 C 1009.61 -4.41562 -5.21068 0
M  V30 10214 O 1009.3 -5.64218 -5.72637 0
M  V30 10215 H 1009.03 -0.186161 -0.649861 0
M  V30 10216 H 1011.58 -1.15976 -1.69525 0
M  V30 10217 H 1009.81 0.1933 -3.86217 0
M  V30 10218 H 1011.5 -0.178506 -4.05507 0
M  V30 10219 H 1012.27 -2.66194 -4.05421 0
M  V30 10220 H 1008.15 -1.47635 -4.36721 0
M  V30 10221 H 1011.69 -4.8712 -4.99359 0
M  V30 10222 H 1007.59 -3.67662 -5.30561 0
M  V30 10223 H 1008.36 -5.66246 -5.91023 0
M  V30 10224 N 1011.02 1.44971 -0.618145 0
M  V30 10225 C 1012.27 2.0176 -0.11725 0
M  V30 10226 C 1012.59 1.48773 1.26062 0
M  V30 10227 O 1011.86 0.686152 1.83491 0
M  V30 10228 H 1010.44 0.745909 -0.0403545 0
M  V30 10229 H 1013.1 1.77638 -0.801923 0
M  V30 10230 H 1012.2 3.1201 -0.0750477 0
M  V30 10231 N 1012.5 0.357919 1.53482 0
M  V30 10232 C 1013.45 -0.50845 2.22258 0
M  V30 10233 C 1014.43 -1.05476 1.21506 0
M  V30 10234 O 1015.62 -0.986075 1.46988 0
M  V30 10235 C 1012.75 -1.65157 3.00962 0
M  V30 10236 C 1011.84 -1.11851 4.09084 0
M  V30 10237 N 1012.23 -0.307818 5.04862 0
M  V30 10238 C 1010.53 -1.39405 4.23653 0
M  V30 10239 C 1011.23 -0.016842 5.81698 0
M  V30 10240 N 1010.21 -0.612396 5.40139 0
M  V30 10241 H 1014.01 0.117836 2.93664 0
M  V30 10242 H 1011.52 0.16553 1.61554 0
M  V30 10243 H 1013.52 -2.28435 3.48745 0
M  V30 10244 H 1012.18 -2.281 2.31086 0
M  V30 10245 H 1013.19 0.0523313 5.17874 0
M  V30 10246 H 1009.87 -2.02682 3.65002 0
M  V30 10247 H 1011.26 0.638046 6.68864 0
M  V30 10248 N 1013.98 -1.5736 0.0868897 0
M  V30 10249 C 1014.92 -2.13571 -0.874996 0
M  V30 10250 C 1015.89 -1.0521 -1.2853 0
M  V30 10251 O 1017.08 -1.32954 -1.3685 0
M  V30 10252 C 1014.22 -2.71386 -2.13175 0
M  V30 10253 C 1013.33 -3.93953 -1.77272 0
M  V30 10254 C 1012.47 -4.3996 -2.97671 0
M  V30 10255 C 1011.51 -5.55137 -2.57856 0
M  V30 10256 N 1010.64 -5.96034 -3.71064 0
M  V30 10257 H 1015.48 -2.95453 -0.388789 0
M  V30 10258 H 1013.02 -1.45992 -0.180242 0
M  V30 10259 H 1014.98 -3.03022 -2.86764 0
M  V30 10260 H 1013.61 -1.92245 -2.5931 0
M  V30 10261 H 1012.66 -3.68683 -0.936845 0
M  V30 10262 H 1013.97 -4.77565 -1.43989 0
M  V30 10263 H 1013.13 -4.73337 -3.79522 0
M  V30 10264 H 1011.86 -3.55232 -3.34158 0
M  V30 10265 H 1010.87 -5.21397 -1.7443 0
M  V30 10266 H 1012.09 -6.41608 -2.22522 0
M  V30 10267 H 1010.04 -5.14253 -4.07284 0
M  V30 10268 H 1009.96 -6.74423 -3.41599 0
M  V30 10269 H 1011.23 -6.34038 -4.53449 0
M  V30 10270 N 1015.45 0.186762 -1.56489 0
M  V30 10271 C 1016.38 1.23395 -1.98232 0
M  V30 10272 C 1017.37 1.4702 -0.855526 0
M  V30 10273 O 1018.55 1.58616 -1.12048 0
M  V30 10274 C 1015.68 2.57635 -2.32898 0
M  V30 10275 C 1014.63 2.48607 -3.48394 0
M  V30 10276 C 1013.96 3.87196 -3.68759 0
M  V30 10277 C 1015.26 2.00398 -4.82325 0
M  V30 10278 H 1016.95 0.887026 -2.85958 0
M  V30 10279 H 1014.5 0.42525 -1.37578 0
M  V30 10280 H 1016.45 3.31082 -2.60696 0
M  V30 10281 H 1015.18 2.94084 -1.42064 0
M  V30 10282 H 1013.84 1.77615 -3.207 0
M  V30 10283 H 1013.48 4.21012 -2.75241 0
M  V30 10284 H 1013.18 3.82029 -4.46462 0
M  V30 10285 H 1014.71 4.62253 -3.98941 0
M  V30 10286 H 1016.12 2.6361 -5.091 0
M  V30 10287 H 1014.52 2.06214 -5.63556 0
M  V30 10288 H 1015.59 0.957562 -4.75351 0
M  V30 10289 N 1016.93 1.50896 0.454776 0
M  V30 10290 C 1017.88 1.67333 1.54867 0
M  V30 10291 C 1018.87 0.527576 1.52005 0
M  V30 10292 O 1020.06 0.782726 1.58753 0
M  V30 10293 C 1017.19 1.7858 2.93196 0
M  V30 10294 C 1016.27 2.98884 3.0088 0
M  V30 10295 N 1016.66 4.22326 2.78343 0
M  V30 10296 C 1014.96 2.97779 3.32029 0
M  V30 10297 C 1015.66 5.03439 2.91418 0
M  V30 10298 N 1014.64 4.37725 3.22332 0
M  V30 10299 H 1018.44 2.60453 1.36167 0
M  V30 10300 H 1015.96 1.48304 0.661797 0
M  V30 10301 H 1017.95 1.88463 3.7187 0
M  V30 10302 H 1016.61 0.866296 3.1293 0
M  V30 10303 H 1017.62 4.51557 2.53607 0
M  V30 10304 H 1014.3 2.15393 3.57648 0
M  V30 10305 H 1015.69 6.11648 2.78095 0
M  V30 10306 N 1018.41 -0.709066 1.40748 0
M  V30 10307 C 1019.66 -1.46611 1.39103 0
M  V30 10308 C 1019.98 -1.95 -0.00365366 0
M  V30 10309 O 1019.25 -1.70791 -0.959541 0
M  V30 10310 H 1017.83 -0.543954 0.511979 0
M  V30 10311 H 1020.49 -0.840141 1.75863 0
M  V30 10312 H 1019.59 -2.33581 2.06994 0
M  V30 10313 N 1019.89 -1.26353 -0.941956 0
M  V30 10314 C 1021.3 -1.10774 -1.50287 0
M  V30 10315 C 1021.65 0.312229 -1.937 0
M  V30 10316 O 1020.78 1.20364 -1.79838 0
M  V30 10317 C 1021.37 -2.00473 -2.73123 0
M  V30 10318 C 1019.93 -1.89042 -3.25485 0
M  V30 10319 C 1019.08 -1.93869 -1.98267 0
M  V30 10320 H 1022.03 -1.39454 -0.757523 0
M  V30 10321 H 1022.05 -1.55216 -3.47402 0
M  V30 10322 H 1021.56 -3.03812 -2.41495 0
M  V30 10323 H 1019.66 -0.886341 -3.61904 0
M  V30 10324 H 1019.78 -2.74533 -3.92643 0
M  V30 10325 H 1018.14 -1.37912 -2.14132 0
M  V30 10326 H 1018.92 -2.98837 -1.68972 0
M  V30 10327 N 1021.37 1.14642 -1.08144 0
M  V30 10328 C 1022.61 1.87277 -0.818953 0
M  V30 10329 C 1022.97 1.80896 0.643482 0
M  V30 10330 O 1024.17 2.4864 1.02135 0
M  V30 10331 C 1022.44 3.32006 -1.32314 0
M  V30 10332 S 1024 4.22284 -1.19256 0
M  V30 10333 H 1020.82 0.646204 -0.29655 0
M  V30 10334 H 1023.42 1.38261 -1.38217 0
M  V30 10335 H 1022.13 3.34197 -2.38203 0
M  V30 10336 H 1021.66 3.86078 -0.75548 0
M  V30 10337 H 1023.67 4.96016 -0.135143 0
M  V30 10338 N 1022.85 0.866709 1.31628 0
M  V30 10339 C 1023.78 0.335762 2.31073 0
M  V30 10340 C 1024.76 -0.571597 1.60209 0
M  V30 10341 O 1025.94 -0.489306 1.87935 0
M  V30 10342 C 1023.07 -0.466416 3.44154 0
M  V30 10343 C 1022.03 0.347561 4.26586 0
M  V30 10344 C 1021.35 -0.5801 5.31544 0
M  V30 10345 C 1022.65 1.57986 4.97833 0
M  V30 10346 H 1024.35 1.16673 2.75731 0
M  V30 10347 H 1021.89 0.56248 1.3256 0
M  V30 10348 H 1023.84 -0.84836 4.12772 0
M  V30 10349 H 1022.57 -1.33086 2.98254 0
M  V30 10350 H 1021.23 0.71141 3.59631 0
M  V30 10351 H 1020.88 -1.44174 4.81895 0
M  V30 10352 H 1020.58 -0.0393965 5.87587 0
M  V30 10353 H 1022.1 -0.958958 6.03023 0
M  V30 10354 H 1023.51 1.26954 5.59067 0
M  V30 10355 H 1021.91 2.05939 5.63657 0
M  V30 10356 H 1022.98 2.3345 4.25005 0
M  V30 10357 N 1024.32 -1.44642 0.625825 0
M  V30 10358 C 1025.57 -2.01308 0.125682 0
M  V30 10359 C 1025.89 -1.49773 -1.25807 0
M  V30 10360 O 1027.09 -1.98533 -1.85194 0
M  V30 10361 C 1025.55 -3.59479 0.17395 0
M  V30 10362 C 1025.16 -4.20011 1.55868 0
M  V30 10363 C 1026.9 -4.2364 -0.270005 0
M  V30 10364 C 1024.81 -5.7039 1.56235 0
M  V30 10365 H 1023.74 -0.75276 0.0432194 0
M  V30 10366 H 1026.39 -1.65916 0.783842 0
M  V30 10367 H 1024.77 -3.92145 -0.551212 0
M  V30 10368 H 1025.94 -3.98891 2.307 0
M  V30 10369 H 1024.26 -3.68116 1.94627 0
M  V30 10370 H 1026.86 -5.33931 -0.28672 0
M  V30 10371 H 1027.2 -3.95603 -1.29629 0
M  V30 10372 H 1027.73 -3.95759 0.402487 0
M  V30 10373 H 1024.47 -6.03154 2.56683 0
M  V30 10374 H 1023.99 -5.93648 0.856881 0
M  V30 10375 H 1025.67 -6.33929 1.29396 0
M  V30 10376 N 1025.8 -0.366053 -1.5329 0
M  V30 10377 C 1027.05 0.224614 -2.00445 0
M  V30 10378 C 1027.36 1.49829 -1.2574 0
M  V30 10379 O 1028.57 2.16759 -1.63487 0
M  V30 10380 C 1027.03 0.450818 -3.57065 0
M  V30 10381 C 1026.63 -0.808257 -4.40649 0
M  V30 10382 C 1028.38 0.999116 -4.12575 0
M  V30 10383 C 1026.28 -0.551612 -5.88822 0
M  V30 10384 H 1025.21 0.0877114 -0.748881 0
M  V30 10385 H 1027.87 -0.484866 -1.76978 0
M  V30 10386 H 1026.25 1.22157 -3.76688 0
M  V30 10387 H 1027.42 -1.58184 -4.32798 0
M  V30 10388 H 1025.74 -1.27981 -3.96245 0
M  V30 10389 H 1028.33 1.20646 -5.20911 0
M  V30 10390 H 1028.68 1.96139 -3.67199 0
M  V30 10391 H 1029.21 0.288518 -3.96752 0
M  V30 10392 H 1025.95 -1.48423 -6.38475 0
M  V30 10393 H 1025.47 0.183462 -5.99519 0
M  V30 10394 H 1027.15 -0.177307 -6.46757 0
M  V30 10395 N 1027.28 1.57312 -0.0952337 0
M  V30 10396 C 1028.56 1.85822 0.610715 0
M  V30 10397 C 1028.94 0.992114 1.86334 0
M  V30 10398 O 1028.28 0.0645669 2.28409 0
M  V30 10399 C 1028.49 3.36492 0.925967 0
M  V30 10400 C 1029.84 4.0455 1.28936 0
M  V30 10401 O 1030.87 3.41374 1.01698 0
M  V30 10402 O 1029.73 5.16024 1.79949 0
M  V30 10403 H 1026.82 0.768454 0.305626 0
M  V30 10404 H 1029.37 1.69217 -0.127941 0
M  V30 10405 H 1028.14 3.91282 0.0373127 0
M  V30 10406 H 1027.76 3.58443 1.7206 0
M  V30 10407 N 1028.76 -0.17846 1.56586 0
M  V30 10408 C 1029.98 -0.916061 1.86073 0
M  V30 10409 C 1030.41 -1.75349 0.680754 0
M  V30 10410 O 1029.77 -1.77479 -0.37028 0
M  V30 10411 C 1029.81 -1.77445 3.1392 0
M  V30 10412 O 1028.92 -2.87524 2.95641 0
M  V30 10413 H 1028.26 -0.257031 0.612234 0
M  V30 10414 H 1030.79 -0.178755 2.03818 0
M  V30 10415 H 1030.8 -2.1758 3.45142 0
M  V30 10416 H 1029.47 -1.15927 3.99417 0
M  V30 10417 H 1028.05 -2.51023 2.75757 0
M  V30 10418 N 1030.24 -1.51135 -0.446768 0
M  V30 10419 C 1031.18 -1.72328 -1.56224 0
M  V30 10420 C 1032.18 -0.589411 -1.58815 0
M  V30 10421 O 1033.38 -0.770554 -1.62673 0
M  V30 10422 H 1029.76 -0.544339 -0.518844 0
M  V30 10423 H 1031.73 -2.65851 -1.3552 0
M  V30 10424 C 1030.48 -1.85686 -2.93966 0
M  V30 10425 H 1029.8 -2.72336 -2.927 0
M  V30 10426 H 1031.24 -2.0453 -3.71407 0
M  V30 10427 C 1029.7 -0.614328 -3.31252 0
M  V30 10428 O 1030.23 0.235369 -4.0101 0
M  V30 10429 N 1028.44 -0.461181 -2.86917 0
M  V30 10430 H 1027.98 -1.15369 -2.30321 0
M  V30 10431 H 1027.94 0.368966 -3.12227 0
M  V30 10432 N 1031.71 0.701592 -1.41122 0
M  V30 10433 C 1032.94 1.49553 -1.43696 0
M  V30 10434 C 1033.36 1.88053 -0.0421865 0
M  V30 10435 O 1032.72 1.54223 0.953144 0
M  V30 10436 C 1032.77 2.73834 -2.34622 0
M  V30 10437 O 1031.87 3.71088 -1.7991 0
M  V30 10438 H 1031.21 0.450352 -0.487933 0
M  V30 10439 H 1033.74 0.862886 -1.85514 0
M  V30 10440 H 1033.75 3.22209 -2.5029 0
M  V30 10441 H 1032.43 2.45149 -3.35969 0
M  V30 10442 H 1031.01 3.29994 -1.73661 0
M  V30 10443 N 1033.19 1.2685 0.935242 0
M  V30 10444 C 1034.42 1.15538 1.71635 0
M  V30 10445 C 1034.83 -0.288698 1.8658 0
M  V30 10446 O 1034.19 -1.19721 1.37743 0
M  V30 10447 C 1034.24 1.8259 3.11999 0
M  V30 10448 O 1033.96 3.21355 2.97763 0
M  V30 10449 C 1035.46 1.77307 4.06297 0
M  V30 10450 H 1032.68 0.402055 0.537208 0
M  V30 10451 H 1035.23 1.67582 1.17203 0
M  V30 10452 H 1033.38 1.3447 3.63313 0
M  V30 10453 H 1033.8 3.54626 3.86446 0
M  V30 10454 H 1035.27 2.28851 5.02326 0
M  V30 10455 H 1035.75 0.740823 4.32907 0
M  V30 10456 H 1036.35 2.25007 3.60904 0
M  V30 10457 N 1034.67 -1.14067 1.0875 0
M  V30 10458 C 1035.92 -1.84535 0.814235 0
M  V30 10459 C 1036.23 -1.84044 -0.662355 0
M  V30 10460 O 1037.44 -2.50336 -1.05091 0
M  V30 10461 C 1035.89 -3.31273 1.40663 0
M  V30 10462 C 1035.5 -3.40171 2.91526 0
M  V30 10463 C 1037.25 -4.0683 1.21201 0
M  V30 10464 C 1035.15 -4.81141 3.43885 0
M  V30 10465 H 1034.08 -0.691346 0.300926 0
M  V30 10466 H 1036.73 -1.28562 1.30935 0
M  V30 10467 H 1035.12 -3.87005 0.839215 0
M  V30 10468 H 1036.29 -2.94471 3.54434 0
M  V30 10469 H 1034.61 -2.78073 3.09942 0
M  V30 10470 H 1037.2 -5.10891 1.57781 0
M  V30 10471 H 1037.55 -4.16022 0.152092 0
M  V30 10472 H 1038.08 -3.57408 1.74655 0
M  V30 10473 H 1034.82 -4.77138 4.49466 0
M  V30 10474 H 1034.34 -5.27365 2.85738 0
M  V30 10475 H 1036.02 -5.50042 3.40681 0
M  V30 10476 N 1036.15 -0.873678 -1.31166 0
M  V30 10477 C 1037.08 -0.348011 -2.30892 0
M  V30 10478 C 1038.06 0.563092 -1.60509 0
M  V30 10479 O 1039.24 0.479332 -1.88192 0
M  V30 10480 C 1036.37 0.448158 -3.44396 0
M  V30 10481 C 1035.33 -0.370179 -4.26396 0
M  V30 10482 C 1034.65 0.551903 -5.31844 0
M  V30 10483 C 1035.95 -1.60624 -4.96988 0
M  V30 10484 H 1037.65 -1.18134 -2.75109 0
M  V30 10485 H 1035.19 -0.569502 -1.3226 0
M  V30 10486 H 1037.15 0.826458 -4.13216 0
M  V30 10487 H 1035.87 1.31503 -2.98956 0
M  V30 10488 H 1034.53 -0.730472 -3.59249 0
M  V30 10489 H 1034.18 1.41616 -4.82653 0
M  V30 10490 H 1033.88 0.00823478 -5.87599 0
M  V30 10491 H 1035.4 0.926965 -6.03523 0
M  V30 10492 H 1036.82 -1.29917 -5.58386 0
M  V30 10493 H 1035.21 -2.08926 -5.62557 0
M  V30 10494 H 1036.28 -2.357 -4.23761 0
M  V30 10495 N 1037.63 1.44308 -0.633487 0
M  V30 10496 C 1038.87 2.02322 -0.139123 0
M  V30 10497 C 1039.21 1.49733 1.23667 0
M  V30 10498 O 1038.48 0.682353 1.82138 0
M  V30 10499 C 1038.76 3.59871 -0.128366 0
M  V30 10500 C 1038.62 4.22737 -1.53667 0
M  V30 10501 C 1039.94 4.36702 0.545834 0
M  V30 10502 H 1037.05 0.735161 -0.0520293 0
M  V30 10503 H 1039.7 1.7185 -0.810411 0
M  V30 10504 H 1037.85 3.85963 0.443263 0
M  V30 10505 H 1039.52 4.07744 -2.15737 0
M  V30 10506 H 1037.76 3.80142 -2.08985 0
M  V30 10507 H 1038.43 5.31757 -1.48116 0
M  V30 10508 H 1040.91 4.16057 0.0596879 0
M  V30 10509 H 1039.78 5.46407 0.522557 0
M  V30 10510 H 1040.05 4.11483 1.6166 0
M  V30 10511 N 1039.1 0.374177 1.53094 0
M  V30 10512 C 1040.01 -0.475935 2.29722 0
M  V30 10513 C 1041.03 -1.085 1.36029 0
M  V30 10514 O 1042.21 -1.09408 1.69091 0
M  V30 10515 C 1039.27 -1.59572 3.07795 0
M  V30 10516 C 1038.33 -1.01332 4.17169 0
M  V30 10517 C 1037.57 -2.07975 4.9151 0
M  V30 10518 O 1037.79 -3.29232 4.65793 0
M  V30 10519 O 1036.72 -1.7055 5.77232 0
M  V30 10520 H 1040.55 0.147877 3.0334 0
M  V30 10521 H 1038.13 0.138312 1.48758 0
M  V30 10522 H 1040.02 -2.24658 3.5652 0
M  V30 10523 H 1038.69 -2.20478 2.37005 0
M  V30 10524 H 1037.6 -0.326133 3.72676 0
M  V30 10525 H 1038.93 -0.4487 4.90151 0
M  V30 10526 N 1040.58 -1.57259 0.103575 0
M  V30 10527 C 1041.99 -1.81816 -0.424239 0
M  V30 10528 C 1042.34 -1.01976 -1.67617 0
M  V30 10529 O 1041.47 -0.251673 -2.14932 0
M  V30 10530 C 1042.06 -3.29783 -0.776453 0
M  V30 10531 C 1040.62 -3.55074 -1.24897 0
M  V30 10532 C 1039.77 -2.76172 -0.249875 0
M  V30 10533 H 1042.72 -1.55254 0.328913 0
M  V30 10534 H 1042.74 -3.43569 -1.63526 0
M  V30 10535 H 1042.25 -3.87865 0.134906 0
M  V30 10536 H 1040.36 -3.02332 -2.17775 0
M  V30 10537 H 1040.47 -4.637 -1.20495 0
M  V30 10538 H 1038.83 -2.43902 -0.733767 0
M  V30 10539 H 1039.62 -3.37007 0.65431 0
M  V30 10540 N 1042.06 0.170153 -1.56679 0
M  V30 10541 C 1043.31 0.884841 -1.817 0
M  V30 10542 C 1043.63 1.82731 -0.680763 0
M  V30 10543 O 1042.9 1.936 0.299294 0
M  V30 10544 H 1041.48 0.329738 -0.670285 0
M  V30 10545 H 1044.14 0.169691 -1.9416 0
M  V30 10546 H 1043.24 1.46104 -2.7579 0
M  V30 10547 N 1043.54 1.5137 0.438746 0
M  V30 10548 C 1044.78 1.65627 1.19779 0
M  V30 10549 C 1045.14 0.363885 1.8852 0
M  V30 10550 O 1046.34 0.382215 2.66069 0
M  V30 10551 C 1044.61 2.82536 2.18879 0
M  V30 10552 S 1046.17 3.17113 3.0329 0
M  V30 10553 H 1042.99 0.583535 0.406212 0
M  V30 10554 H 1045.59 1.89271 0.489582 0
M  V30 10555 H 1044.3 3.74879 1.67015 0
M  V30 10556 H 1043.83 2.61077 2.94283 0
M  V30 10557 H 1045.84 2.63439 4.20493 0
M  V30 10558 N 1045.02 -0.694098 1.41492 0
M  V30 10559 C 1045.95 -1.81943 1.39389 0
M  V30 10560 C 1046.96 -1.6009 0.295836 0
M  V30 10561 O 1048.15 -1.69565 0.557658 0
M  V30 10562 C 1045.25 -3.18731 1.15167 0
M  V30 10563 C 1044.42 -3.67601 2.37041 0
M  V30 10564 C 1043.48 -4.83063 2.08654 0
M  V30 10565 O 1042.51 -4.94603 2.81704 0
M  V30 10566 N 1043.71 -5.70409 1.0777 0
M  V30 10567 H 1046.48 -1.84239 2.36381 0
M  V30 10568 H 1044.04 -0.876475 1.36123 0
M  V30 10569 H 1046.03 -3.93602 0.941264 0
M  V30 10570 H 1044.6 -3.11452 0.267673 0
M  V30 10571 H 1043.82 -2.83622 2.73774 0
M  V30 10572 H 1045.11 -3.96991 3.18239 0
M  V30 10573 H 1044.5 -5.63718 0.473123 0
M  V30 10574 H 1043.06 -6.45172 0.927177 0
M  V30 10575 N 1046.49 -1.27344 -0.928501 0
M  V30 10576 C 1047.46 -1.10043 -2.01055 0
M  V30 10577 C 1048.46 -0.0446793 -1.60738 0
M  V30 10578 O 1049.65 -0.289202 -1.71783 0
M  V30 10579 C 1046.78 -0.676559 -3.34119 0
M  V30 10580 H 1047.97 -2.06126 -2.17835 0
M  V30 10581 H 1045.53 -1.10121 -1.10919 0
M  V30 10582 H 1046.26 0.285697 -3.23039 0
M  V30 10583 H 1046.05 -1.43903 -3.64739 0
M  V30 10584 H 1047.54 -0.577725 -4.13584 0
M  V30 10585 N 1047.97 1.13488 -1.09353 0
M  V30 10586 C 1048.88 2.2248 -0.744307 0
M  V30 10587 C 1049.9 1.72145 0.253404 0
M  V30 10588 O 1051.07 2.01176 0.0949339 0
M  V30 10589 C 1048.14 3.46286 -0.16928 0
M  V30 10590 C 1047.2 4.11516 -1.22284 0
M  V30 10591 C 1046.43 5.29412 -0.675161 0
M  V30 10592 O 1046.66 5.68185 0.502182 0
M  V30 10593 O 1045.59 5.8467 -1.42983 0
M  V30 10594 H 1049.42 2.54723 -1.65378 0
M  V30 10595 H 1047 1.21607 -0.867879 0
M  V30 10596 H 1048.88 4.2114 0.14811 0
M  V30 10597 H 1047.56 3.15745 0.713214 0
M  V30 10598 H 1046.47 3.38492 -1.59292 0
M  V30 10599 H 1047.8 4.46186 -2.07796 0
M  V30 10600 N 1049.45 0.880621 1.30701 0
M  V30 10601 C 1050.7 0.497611 1.966 0
M  V30 10602 C 1051.03 -0.949901 1.69383 0
M  V30 10603 O 1050.31 -1.67054 0.996152 0
M  V30 10604 C 1050.59 0.767919 3.51817 0
M  V30 10605 C 1050.44 2.26574 3.88567 0
M  V30 10606 C 1051.76 0.241502 4.39437 0
M  V30 10607 H 1048.88 0.182267 0.714106 0
M  V30 10608 H 1051.52 1.10382 1.54648 0
M  V30 10609 H 1049.67 0.251967 3.87682 0
M  V30 10610 H 1051.34 2.84977 3.62748 0
M  V30 10611 H 1049.59 2.73411 3.36792 0
M  V30 10612 H 1050.26 2.40549 4.9683 0
M  V30 10613 H 1052.73 0.683051 4.10455 0
M  V30 10614 H 1051.61 0.459997 5.46969 0
M  V30 10615 H 1051.87 -0.857068 4.33713 0
M  V30 10616 N 1050.93 -1.4397 0.641131 0
M  V30 10617 C 1052.16 -2.06303 0.157006 0
M  V30 10618 C 1052.57 -1.47981 -1.17248 0
M  V30 10619 O 1051.93 -0.606471 -1.72128 0
M  V30 10620 C 1051.98 -3.6147 0.0468425 0
M  V30 10621 O 1051.7 -4.17622 1.32376 0
M  V30 10622 C 1053.2 -4.40857 -0.464795 0
M  V30 10623 H 1050.42 -0.665684 0.0842946 0
M  V30 10624 H 1052.97 -1.84675 0.878363 0
M  V30 10625 H 1051.12 -3.82325 -0.625006 0
M  V30 10626 H 1051.54 -5.11167 1.17509 0
M  V30 10627 H 1053.01 -5.49813 -0.490862 0
M  V30 10628 H 1053.49 -4.13016 -1.4938 0
M  V30 10629 H 1054.09 -4.24943 0.174146 0
M  V30 10630 N 1052.41 -0.382291 -1.52893 0
M  V30 10631 C 1053.35 0.456234 -2.26246 0
M  V30 10632 C 1054.32 1.06366 -1.27575 0
M  V30 10633 O 1055.51 1.09301 -1.5639 0
M  V30 10634 C 1052.65 1.5813 -3.06739 0
M  V30 10635 C 1051.76 0.997416 -4.20328 0
M  V30 10636 C 1050.9 2.09296 -4.8823 0
M  V30 10637 C 1049.94 1.4846 -5.93823 0
M  V30 10638 N 1049.07 2.51916 -6.55349 0
M  V30 10639 H 1053.91 -0.175761 -2.97481 0
M  V30 10640 H 1051.45 -0.0985046 -1.4677 0
M  V30 10641 H 1053.41 2.24426 -3.51694 0
M  V30 10642 H 1052.04 2.18371 -2.37727 0
M  V30 10643 H 1051.09 0.224251 -3.79738 0
M  V30 10644 H 1052.4 0.512784 -4.96157 0
M  V30 10645 H 1051.56 2.83377 -5.36453 0
M  V30 10646 H 1050.3 2.61116 -4.1191 0
M  V30 10647 H 1049.3 0.729001 -5.44946 0
M  V30 10648 H 1050.53 0.97443 -6.72073 0
M  V30 10649 H 1048.47 3.02919 -5.81873 0
M  V30 10650 H 1048.39 2.08188 -7.26769 0
M  V30 10651 H 1049.66 3.25649 -7.08218 0
M  V30 10652 N 1053.89 1.57202 -0.111913 0
M  V30 10653 C 1055.11 1.99297 0.555713 0
M  V30 10654 C 1055.53 0.991444 1.60673 0
M  V30 10655 O 1054.89 -0.0166672 1.82492 0
M  V30 10656 C 1054.94 3.41413 1.18826 0
M  V30 10657 O 1054.66 4.37733 0.179261 0
M  V30 10658 C 1056.16 3.98602 1.93989 0
M  V30 10659 H 1053.38 0.654543 0.147695 0
M  V30 10660 H 1055.92 2.03557 -0.196163 0
M  V30 10661 H 1054.08 3.38115 1.89096 0
M  V30 10662 H 1054.49 5.20606 0.637935 0
M  V30 10663 H 1055.97 5.00143 2.33584 0
M  V30 10664 H 1056.44 3.37349 2.81233 0
M  V30 10665 H 1057.05 4.05424 1.28497 0
M  V30 10666 N 1055.36 -0.161842 1.56767 0
M  V30 10667 C 1056.61 -0.875192 1.82167 0
M  V30 10668 C 1056.93 -1.82367 0.690444 0
M  V30 10669 O 1056.2 -1.93756 -0.289023 0
M  V30 10670 H 1054.78 -0.326178 0.672024 0
M  V30 10671 H 1057.44 -0.159392 1.94247 0
M  V30 10672 H 1056.54 -1.44639 2.76561 0
M  V30 10673 N 1056.84 -1.516 -0.430713 0
M  V30 10674 C 1058.12 -1.55142 -1.19123 0
M  V30 10675 C 1058.5 -0.319596 -2.08667 0
M  V30 10676 O 1057.85 0.694927 -2.17676 0
M  V30 10677 C 1058.06 -2.86891 -1.98732 0
M  V30 10678 C 1059.4 -3.39089 -2.55546 0
M  V30 10679 O 1060.43 -2.88486 -2.08936 0
M  V30 10680 O 1059.29 -4.27401 -3.40574 0
M  V30 10681 H 1056.38 -0.624019 -0.542705 0
M  V30 10682 H 1058.93 -1.63917 -0.439244 0
M  V30 10683 H 1057.7 -3.68002 -1.33005 0
M  V30 10684 H 1057.32 -2.81309 -2.80982 0
M  V30 10685 N 1058.32 0.686584 -1.41858 0
M  V30 10686 C 1059.57 1.44235 -1.40994 0
M  V30 10687 C 1059.88 1.95583 -0.0254979 0
M  V30 10688 O 1061.09 2.71294 0.10576 0
M  V30 10689 C 1059.54 2.6086 -2.47952 0
M  V30 10690 C 1059.15 2.16259 -3.92347 0
M  V30 10691 C 1060.9 3.38441 -2.56237 0
M  V30 10692 C 1058.8 3.29896 -4.90838 0
M  V30 10693 H 1057.73 0.54181 -0.524364 0
M  V30 10694 H 1060.38 0.744486 -1.67719 0
M  V30 10695 H 1058.77 3.32957 -2.14373 0
M  V30 10696 H 1059.94 1.51392 -4.35221 0
M  V30 10697 H 1058.25 1.51648 -3.87804 0
M  V30 10698 H 1060.85 4.23052 -3.27003 0
M  V30 10699 H 1061.19 3.84238 -1.6021 0
M  V30 10700 H 1061.73 2.73406 -2.88953 0
M  V30 10701 H 1058.47 2.89104 -5.88302 0
M  V30 10702 H 1057.99 3.93584 -4.52606 0
M  V30 10703 H 1059.67 3.95541 -5.12012 0
M  V30 10704 N 1059.8 1.27835 0.921735 0
M  V30 10705 C 1061.04 1.15766 1.68457 0
M  V30 10706 C 1061.4 -0.290542 1.89789 0
M  V30 10707 O 1062.6 -0.53378 2.63447 0
M  V30 10708 C 1060.87 1.92591 3.0107 0
M  V30 10709 S 1062.43 1.96804 3.92191 0
M  V30 10710 H 1059.25 0.413169 0.578629 0
M  V30 10711 H 1061.85 1.61826 1.09693 0
M  V30 10712 H 1060.56 2.96991 2.8324 0
M  V30 10713 H 1060.09 1.47049 3.64884 0
M  V30 10714 H 1062.1 1.06877 4.84553 0
M  V30 10715 N 1061.28 -1.12907 1.09954 0
M  V30 10716 C 1062.52 -1.83661 0.833761 0
M  V30 10717 C 1062.84 -1.84736 -0.642798 0
M  V30 10718 O 1064.04 -2.51437 -1.0243 0
M  V30 10719 C 1062.5 -3.29763 1.44168 0
M  V30 10720 C 1062.11 -3.3706 2.95118 0
M  V30 10721 C 1063.85 -4.05522 1.25509 0
M  V30 10722 C 1061.76 -4.77467 3.48969 0
M  V30 10723 H 1060.69 -0.688115 0.308242 0
M  V30 10724 H 1063.34 -1.27166 1.32291 0
M  V30 10725 H 1061.72 -3.86094 0.880215 0
M  V30 10726 H 1062.9 -2.90695 3.57537 0
M  V30 10727 H 1061.21 -2.7477 3.12874 0
M  V30 10728 H 1063.81 -5.09188 1.63191 0
M  V30 10729 H 1064.15 -4.15837 0.196208 0
M  V30 10730 H 1064.68 -3.55536 1.78435 0
M  V30 10731 H 1061.42 -4.72344 4.54501 0
M  V30 10732 H 1060.94 -5.24305 2.91315 0
M  V30 10733 H 1062.62 -5.46397 3.46495 0
M  V30 10734 N 1062.75 -0.88754 -1.30232 0
M  V30 10735 C 1063.98 -0.521562 -2.00735 0
M  V30 10736 C 1064.4 0.883247 -1.66073 0
M  V30 10737 O 1063.76 1.58581 -0.878731 0
M  V30 10738 C 1063.81 -0.706521 -3.53611 0
M  V30 10739 O 1062.91 0.246447 -4.11663 0
M  V30 10740 H 1062.25 -0.205216 -0.631492 0
M  V30 10741 H 1064.78 -1.19579 -1.66018 0
M  V30 10742 H 1064.79 -0.606501 -4.03467 0
M  V30 10743 H 1063.47 -1.73076 -3.78177 0
M  V30 10744 H 1062.05 0.0999062 -3.72766 0
M  V30 10745 N 1064.23 1.43628 -0.648757 0
M  V30 10746 C 1065.48 2.02163 -0.160574 0
M  V30 10747 C 1065.81 1.51037 1.22072 0
M  V30 10748 O 1065.09 0.701633 1.81404 0
M  V30 10749 C 1065.37 3.59715 -0.166528 0
M  V30 10750 C 1065.22 4.21083 -1.58142 0
M  V30 10751 C 1066.54 4.37256 0.499485 0
M  V30 10752 H 1063.66 0.734568 -0.0598238 0
M  V30 10753 H 1066.3 1.70981 -0.828592 0
M  V30 10754 H 1064.45 3.86411 0.402302 0
M  V30 10755 H 1066.12 4.05433 -2.2005 0
M  V30 10756 H 1064.37 3.77904 -2.13005 0
M  V30 10757 H 1065.04 5.30156 -1.53748 0
M  V30 10758 H 1067.51 4.16097 0.0155561 0
M  V30 10759 H 1066.39 5.4693 0.464574 0
M  V30 10760 H 1066.65 4.13175 1.57286 0
M  V30 10761 N 1065.71 0.390394 1.52688 0
M  V30 10762 C 1066.96 -0.191067 2.01195 0
M  V30 10763 C 1067.28 -1.47229 1.27862 0
M  V30 10764 O 1066.55 -1.91793 0.399007 0
M  V30 10765 H 1065.13 -0.073596 0.743366 0
M  V30 10766 H 1067.79 0.522334 1.8777 0
M  V30 10767 H 1066.89 -0.40051 3.0952 0
M  V30 10768 N 1067.19 -1.57141 0.120249 0
M  V30 10769 C 1068.15 -2.14213 -0.815185 0
M  V30 10770 C 1069.15 -1.07731 -1.19376 0
M  V30 10771 O 1070.34 -1.33502 -1.11906 0
M  V30 10772 C 1067.47 -2.68339 -2.10255 0
M  V30 10773 H 1068.67 -2.98197 -0.319166 0
M  V30 10774 H 1066.22 -1.55767 -0.128997 0
M  V30 10775 H 1066.95 -1.87946 -2.64285 0
M  V30 10776 H 1066.74 -3.46216 -1.84057 0
M  V30 10777 H 1068.23 -3.124 -2.77121 0
M  V30 10778 N 1068.67 0.153526 -1.5685 0
M  V30 10779 C 1069.58 1.20932 -2.01029 0
M  V30 10780 C 1070.59 1.47401 -0.924598 0
M  V30 10781 O 1071.77 1.592 -1.23359 0
M  V30 10782 C 1068.83 2.52438 -2.37647 0
M  V30 10783 C 1067.89 2.33673 -3.60132 0
M  V30 10784 C 1067.13 3.58909 -3.94994 0
M  V30 10785 O 1067.35 4.64823 -3.30599 0
M  V30 10786 O 1066.28 3.5196 -4.8827 0
M  V30 10787 H 1070.11 0.864273 -2.91143 0
M  V30 10788 H 1067.7 0.361755 -1.44954 0
M  V30 10789 H 1069.58 3.29981 -2.62088 0
M  V30 10790 H 1068.25 2.86486 -1.5069 0
M  V30 10791 H 1067.16 1.54102 -3.40886 0
M  V30 10792 H 1068.49 2.04544 -4.47686 0
M  V30 10793 N 1070.14 1.51827 0.422667 0
M  V30 10794 C 1071.39 1.65464 1.17258 0
M  V30 10795 C 1071.72 0.376834 1.90509 0
M  V30 10796 O 1071 -0.624219 1.84211 0
M  V30 10797 C 1071.28 2.86776 2.17788 0
M  V30 10798 C 1071.13 4.24571 1.48523 0
M  V30 10799 C 1072.45 3.03603 3.18611 0
M  V30 10800 H 1069.57 0.602169 0.424925 0
M  V30 10801 H 1072.21 1.84349 0.45996 0
M  V30 10802 H 1070.36 2.70806 2.78561 0
M  V30 10803 H 1072.04 4.5224 0.909739 0
M  V30 10804 H 1070.28 4.26595 0.787354 0
M  V30 10805 H 1070.95 5.05475 2.2181 0
M  V30 10806 H 1073.43 3.18381 2.67904 0
M  V30 10807 H 1072.3 3.90022 3.8623 0
M  V30 10808 H 1072.56 2.16318 3.85563 0
M  V30 10809 N 1071.62 -0.679052 1.4222 0
M  V30 10810 C 1073.03 -1.25953 1.37815 0
M  V30 10811 C 1073.38 -1.96077 0.0693215 0
M  V30 10812 O 1072.51 -1.99765 -0.832047 0
M  V30 10813 C 1073.1 -2.29063 2.49631 0
M  V30 10814 C 1071.66 -2.82647 2.48571 0
M  V30 10815 C 1070.81 -1.56909 2.28637 0
M  V30 10816 H 1073.76 -0.472714 1.51496 0
M  V30 10817 H 1073.78 -3.10708 2.19638 0
M  V30 10818 H 1073.29 -1.77996 3.44876 0
M  V30 10819 H 1071.4 -3.37846 1.57132 0
M  V30 10820 H 1071.51 -3.31952 3.45463 0
M  V30 10821 H 1069.87 -1.83323 1.76819 0
M  V30 10822 H 1070.66 -1.07814 3.25931 0
M  V30 10823 N 1073.1 -1.28322 -0.914942 0
M  V30 10824 C 1074.35 -1.15179 -1.66067 0
M  V30 10825 C 1074.67 0.300279 -1.92674 0
M  V30 10826 O 1073.94 1.20821 -1.54205 0
M  V30 10827 H 1072.52 -0.423264 -0.615513 0
M  V30 10828 H 1075.18 -1.61034 -1.09791 0
M  V30 10829 H 1074.28 -1.69048 -2.62353 0
M  V30 10830 N 1074.58 1.12322 -1.10551 0
M  V30 10831 C 1075.81 1.87679 -0.87087 0
M  V30 10832 C 1076.22 1.79711 0.578733 0
M  V30 10833 O 1075.58 1.17185 1.39907 0
M  V30 10834 C 1075.63 3.36846 -1.31213 0
M  V30 10835 O 1075.35 3.44626 -2.70489 0
M  V30 10836 C 1076.85 4.29138 -1.11156 0
M  V30 10837 H 1074.07 0.593788 -0.3125 0
M  V30 10838 H 1076.62 1.42116 -1.47048 0
M  V30 10839 H 1074.77 3.79948 -0.756169 0
M  V30 10840 H 1075.18 4.37441 -2.89389 0
M  V30 10841 H 1076.66 5.32082 -1.46944 0
M  V30 10842 H 1077.14 4.39171 -0.0502963 0
M  V30 10843 H 1077.74 3.91818 -1.65405 0
M  V30 10844 N 1076.06 0.894434 1.2976 0
M  V30 10845 C 1077.3 0.518435 1.96061 0
M  V30 10846 C 1077.64 -0.931882 1.70381 0
M  V30 10847 O 1076.91 -1.65988 1.01381 0
M  V30 10848 C 1077.19 0.80519 3.50982 0
M  V30 10849 C 1077.05 2.30683 3.86142 0
M  V30 10850 C 1078.37 0.288096 4.39156 0
M  V30 10851 H 1075.48 0.18983 0.712133 0
M  V30 10852 H 1078.13 1.12016 1.53468 0
M  V30 10853 H 1076.28 0.293071 3.87393 0
M  V30 10854 H 1077.95 2.88808 3.59705 0
M  V30 10855 H 1076.19 2.76968 3.33873 0
M  V30 10856 H 1076.86 2.45805 4.94251 0
M  V30 10857 H 1079.34 0.726547 4.09708 0
M  V30 10858 H 1078.21 0.517985 5.4645 0
M  V30 10859 H 1078.48 -0.811018 4.34597 0
M  V30 10860 N 1077.53 -1.43282 0.656365 0
M  V30 10861 C 1078.78 -2.01378 0.170702 0
M  V30 10862 C 1079.1 -1.52063 -1.22073 0
M  V30 10863 O 1078.37 -0.73456 -1.81607 0
M  V30 10864 H 1076.95 -0.744577 0.0601168 0
M  V30 10865 H 1079.62 -1.75449 0.848739 0
M  V30 10866 H 1078.71 -3.11701 0.157745 0
M  V30 10867 N 1079.01 -0.398486 -1.52479 0
M  V30 10868 C 1080.42 0.0735015 -1.86555 0
M  V30 10869 C 1080.78 1.45361 -1.31775 0
M  V30 10870 O 1079.9 2.0632 -0.652759 0
M  V30 10871 C 1080.5 0.140152 -3.3851 0
M  V30 10872 C 1079.05 0.556451 -3.72264 0
M  V30 10873 C 1078.2 -0.275792 -2.75925 0
M  V30 10874 H 1081.15 -0.615991 -1.46257 0
M  V30 10875 H 1081.17 0.957507 -3.68255 0
M  V30 10876 H 1080.69 -0.864442 -3.7835 0
M  V30 10877 H 1078.79 1.56808 -3.37997 0
M  V30 10878 H 1078.9 0.308227 -4.78107 0
M  V30 10879 H 1077.26 0.260304 -2.53366 0
M  V30 10880 H 1078.05 -1.27854 -3.18604 0
M  V30 10881 N 1080.49 1.57075 -0.12858 0
M  V30 10882 C 1081.42 2.12907 0.848708 0
M  V30 10883 C 1082.44 1.07406 1.22343 0
M  V30 10884 O 1083.63 1.34746 1.17071 0
M  V30 10885 C 1080.73 2.62167 2.1476 0
M  V30 10886 C 1079.9 3.91871 1.94309 0
M  V30 10887 C 1078.96 4.26629 3.08016 0
M  V30 10888 O 1077.98 4.9528 2.80511 0
M  V30 10889 N 1079.19 3.84721 4.34706 0
M  V30 10890 H 1081.95 2.97387 0.371636 0
M  V30 10891 H 1079.51 1.61805 0.0555574 0
M  V30 10892 H 1081.5 2.82444 2.89841 0
M  V30 10893 H 1080.07 1.82514 2.53786 0
M  V30 10894 H 1079.29 3.80406 1.03367 0
M  V30 10895 H 1080.58 4.76662 1.77962 0
M  V30 10896 H 1079.98 3.2937 4.59926 0
M  V30 10897 H 1078.54 4.10087 5.06628 0
M  V30 10898 N 1081.97 -0.145205 1.5693 0
M  V30 10899 C 1082.9 -1.18096 2.01434 0
M  V30 10900 C 1083.88 -1.447 0.894204 0
M  V30 10901 O 1085.07 -1.55589 1.16214 0
M  V30 10902 C 1082.2 -2.51369 2.39647 0
M  V30 10903 C 1081.15 -2.39283 3.54863 0
M  V30 10904 C 1080.48 -3.77283 3.78895 0
M  V30 10905 C 1081.78 -1.8754 4.87469 0
M  V30 10906 H 1083.47 -0.810897 2.8821 0
M  V30 10907 H 1081.02 -0.388624 1.38657 0
M  V30 10908 H 1082.97 -3.24054 2.69382 0
M  V30 10909 H 1081.69 -2.90214 1.49811 0
M  V30 10910 H 1080.35 -1.6905 3.25296 0
M  V30 10911 H 1080 -4.13567 2.86307 0
M  V30 10912 H 1079.7 -3.70057 4.56433 0
M  V30 10913 H 1081.22 -4.51514 4.11057 0
M  V30 10914 H 1082.64 -2.50019 5.1591 0
M  V30 10915 H 1081.03 -1.912 5.68826 0
M  V30 10916 H 1082.1 -0.831194 4.77723 0
M  V30 10917 N 1083.45 -1.52049 -0.414609 0
M  V30 10918 C 1084.72 -1.56397 -1.17471 0
M  V30 10919 C 1085.1 -0.34171 -2.08316 0
M  V30 10920 O 1084.45 0.6718 -2.18401 0
M  V30 10921 C 1084.66 -2.88983 -1.95678 0
M  V30 10922 C 1086.01 -3.41781 -2.51935 0
M  V30 10923 O 1087.03 -2.90686 -2.05865 0
M  V30 10924 O 1085.89 -4.30989 -3.36022 0
M  V30 10925 H 1082.99 -0.62974 -0.536056 0
M  V30 10926 H 1085.53 -1.64374 -0.421834 0
M  V30 10927 H 1084.31 -3.69392 -1.29094 0
M  V30 10928 H 1083.93 -2.84274 -2.77983 0
M  V30 10929 N 1084.93 0.6715 -1.42579 0
M  V30 10930 C 1086.34 1.2522 -1.38481 0
M  V30 10931 C 1086.69 1.96038 -0.079719 0
M  V30 10932 O 1085.81 2.00203 0.821441 0
M  V30 10933 C 1086.41 2.27736 -2.50842 0
M  V30 10934 C 1084.97 2.81325 -2.50067 0
M  V30 10935 C 1084.11 1.55694 -2.29466 0
M  V30 10936 H 1087.06 0.464673 -1.51745 0
M  V30 10937 H 1087.09 3.09539 -2.21283 0
M  V30 10938 H 1086.6 1.76164 -3.45815 0
M  V30 10939 H 1084.7 3.37008 -1.58922 0
M  V30 10940 H 1084.81 3.30116 -3.47218 0
M  V30 10941 H 1083.18 1.82383 -1.77788 0
M  V30 10942 H 1083.96 1.06084 -3.26498 0
M  V30 10943 N 1086.4 1.28806 0.908124 0
M  V30 10944 C 1087.65 1.15663 1.65242 0
M  V30 10945 C 1087.97 -0.292883 1.93395 0
M  V30 10946 O 1089.17 -0.545509 2.65963 0
M  V30 10947 C 1087.63 2.02233 2.97707 0
M  V30 10948 C 1087.24 3.51958 2.77181 0
M  V30 10949 C 1088.98 1.97792 3.75604 0
M  V30 10950 C 1086.89 4.3066 4.05322 0
M  V30 10951 H 1085.82 0.42928 0.619867 0
M  V30 10952 H 1088.47 1.5338 1.00731 0
M  V30 10953 H 1086.85 1.57377 3.63385 0
M  V30 10954 H 1088.02 4.0481 2.20149 0
M  V30 10955 H 1086.34 3.57983 2.12691 0
M  V30 10956 H 1088.94 2.53858 4.70596 0
M  V30 10957 H 1089.28 0.955956 4.05175 0
M  V30 10958 H 1089.81 2.40648 3.16755 0
M  V30 10959 H 1086.55 5.3346 3.8092 0
M  V30 10960 H 1086.07 3.8258 4.61944 0
M  V30 10961 H 1087.75 4.40878 4.73535 0
M  V30 10962 N 1087.88 -1.11734 1.11145 0
M  V30 10963 C 1088.81 -2.17438 0.724804 0
M  V30 10964 C 1089.83 -1.6099 -0.242069 0
M  V30 10965 O 1091.02 -1.78482 -0.0254259 0
M  V30 10966 C 1088.12 -3.38863 0.050004 0
M  V30 10967 C 1087.29 -4.24785 1.04292 0
M  V30 10968 C 1086.35 -5.24691 0.398243 0
M  V30 10969 O 1085.37 -5.59408 1.05125 0
M  V30 10970 N 1086.58 -5.74388 -0.840184 0
M  V30 10971 H 1089.34 -2.51219 1.63429 0
M  V30 10972 H 1086.9 -1.27226 1.00125 0
M  V30 10973 H 1088.89 -4.02788 -0.392929 0
M  V30 10974 H 1087.46 -3.0317 -0.762005 0
M  V30 10975 H 1086.68 -3.57363 1.6639 0
M  V30 10976 H 1087.97 -4.79033 1.71478 0
M  V30 10977 H 1087.37 -5.48359 -1.38994 0
M  V30 10978 H 1085.93 -6.40163 -1.22615 0
M  V30 10979 N 1089.36 -0.901303 -1.29284 0
M  V30 10980 C 1090.29 -0.396909 -2.30102 0
M  V30 10981 C 1091.27 0.528919 -1.61668 0
M  V30 10982 O 1092.46 0.439306 -1.89166 0
M  V30 10983 C 1089.59 0.375006 -3.45269 0
M  V30 10984 C 1088.54 -0.46054 -4.25515 0
M  V30 10985 C 1087.87 0.438967 -5.32895 0
M  V30 10986 C 1089.17 -1.7113 -4.93469 0
M  V30 10987 H 1090.86 -1.23943 -2.72541 0
M  V30 10988 H 1088.41 -0.597428 -1.31022 0
M  V30 10989 H 1090.36 0.738622 -4.14876 0
M  V30 10990 H 1089.08 1.25132 -3.01678 0
M  V30 10991 H 1087.74 -0.80651 -3.57618 0
M  V30 10992 H 1087.39 1.31346 -4.85548 0
M  V30 10993 H 1087.09 -0.116406 -5.87485 0
M  V30 10994 H 1088.61 0.79874 -6.05353 0
M  V30 10995 H 1090.03 -1.41732 -5.55504 0
M  V30 10996 H 1088.42 -2.20811 -5.57999 0
M  V30 10997 H 1089.49 -2.44636 -4.18666 0
M  V30 10998 N 1090.84 1.42931 -0.663954 0
M  V30 10999 C 1092.06 2.06544 -0.188201 0
M  V30 11000 C 1092.49 1.495 1.14155 0
M  V30 11001 O 1091.85 0.609164 1.7076 0
M  V30 11002 C 1091.89 3.60393 -0.122105 0
M  V30 11003 O 1091 4.02176 0.91258 0
M  V30 11004 H 1090.34 0.656458 -0.0997967 0
M  V30 11005 H 1092.87 1.83253 -0.909909 0
M  V30 11006 H 1092.88 4.07959 0.0576568 0
M  V30 11007 H 1091.55 4.01287 -1.09276 0
M  V30 11008 H 1090.13 3.6618 0.704738 0
M  V30 11009 N 1092.32 0.406567 1.52266 0
M  V30 11010 C 1093.56 -0.171391 2.00971 0
M  V30 11011 C 1093.88 -1.46443 1.29668 0
M  V30 11012 O 1095.08 -2.12348 1.69176 0
M  V30 11013 C 1093.54 -0.35599 3.58135 0
M  V30 11014 C 1093.15 0.924803 4.38351 0
M  V30 11015 C 1094.89 -0.889378 4.15079 0
M  V30 11016 C 1092.8 0.707534 5.87152 0
M  V30 11017 H 1091.73 -0.0678253 0.750943 0
M  V30 11018 H 1094.38 0.531619 1.7563 0
M  V30 11019 H 1092.76 -1.12127 3.79794 0
M  V30 11020 H 1093.94 1.69603 4.28452 0
M  V30 11021 H 1092.25 1.38442 3.92712 0
M  V30 11022 H 1094.85 -1.06792 5.23927 0
M  V30 11023 H 1095.19 -1.86334 3.7227 0
M  V30 11024 H 1095.72 -0.183224 3.97378 0
M  V30 11025 H 1092.46 1.65299 6.34316 0
M  V30 11026 H 1091.98 -0.024446 5.99795 0
M  V30 11027 H 1093.66 0.348721 6.4606 0
M  V30 11028 N 1093.79 -1.57004 0.136909 0
M  V30 11029 C 1095.04 -1.95797 -0.516711 0
M  V30 11030 C 1095.37 -1.02123 -1.65533 0
M  V30 11031 O 1094.62 -0.0484835 -1.9564 0
M  V30 11032 C 1094.92 -3.40903 -1.07331 0
M  V30 11033 C 1094.59 -4.50867 -0.0541941 0
M  V30 11034 C 1093.25 -4.80669 0.225988 0
M  V30 11035 C 1095.6 -5.17264 0.639361 0
M  V30 11036 C 1092.93 -5.74177 1.2057 0
M  V30 11037 C 1095.28 -6.11827 1.60783 0
M  V30 11038 C 1093.95 -6.40012 1.89581 0
M  V30 11039 H 1093.22 -0.716471 -0.189078 0
M  V30 11040 H 1095.86 -1.90213 0.221605 0
M  V30 11041 H 1094.17 -3.43268 -1.88876 0
M  V30 11042 H 1095.87 -3.6824 -1.58745 0
M  V30 11043 H 1092.46 -4.27666 -0.282754 0
M  V30 11044 H 1096.64 -4.9438 0.436085 0
M  V30 11045 H 1091.9 -5.94312 1.43538 0
M  V30 11046 H 1096.07 -6.62354 2.15081 0
M  V30 11047 H 1093.7 -7.12274 2.65649 0
M  V30 11048 N 1095.27 0.136881 -1.57004 0
M  V30 11049 C 1096.5 0.866405 -1.88436 0
M  V30 11050 C 1096.92 1.73483 -0.727006 0
M  V30 11051 O 1096.28 1.78398 0.323094 0
M  V30 11052 C 1096.33 1.69059 -3.18514 0
M  V30 11053 O 1095.43 2.79584 -3.03161 0
M  V30 11054 H 1094.77 0.240709 -0.618834 0
M  V30 11055 H 1097.3 0.124653 -2.0422 0
M  V30 11056 H 1097.31 2.08353 -3.50789 0
M  V30 11057 H 1095.99 1.05296 -4.0235 0
M  V30 11058 H 1094.57 2.43623 -2.82315 0
M  V30 11059 N 1096.75 1.52266 0.40654 0
M  V30 11060 C 1097.7 1.72175 1.49465 0
M  V30 11061 C 1098.68 0.575668 1.50249 0
M  V30 11062 O 1099.88 0.832835 1.56182 0
M  V30 11063 C 1097.01 1.87818 2.87366 0
M  V30 11064 C 1096.09 3.08305 2.91219 0
M  V30 11065 N 1096.48 4.30967 2.64766 0
M  V30 11066 C 1094.78 3.08192 3.22388 0
M  V30 11067 C 1095.48 5.12455 2.75254 0
M  V30 11068 N 1094.46 4.47758 3.08242 0
M  V30 11069 H 1098.26 2.64653 1.27812 0
M  V30 11070 H 1095.77 1.50334 0.61428 0
M  V30 11071 H 1097.77 2.00198 3.65686 0
M  V30 11072 H 1096.43 0.965414 3.10016 0
M  V30 11073 H 1097.44 4.59397 2.39113 0
M  V30 11074 H 1094.12 2.26662 3.50615 0
M  V30 11075 H 1095.51 6.20186 2.58495 0
M  V30 11076 N 1098.23 -0.663929 1.42933 0
M  V30 11077 C 1099.64 -0.978346 1.26097 0
M  V30 11078 C 1099.84 -2.00756 0.172968 0
M  V30 11079 O 1098.9 -2.48418 -0.452184 0
M  V30 11080 C 1100.21 -1.4728 2.62162 0
M  V30 11081 C 1101.76 -1.59001 2.69606 0
M  V30 11082 C 1102.24 -2.1184 4.06064 0
M  V30 11083 N 1103.73 -2.19158 4.08074 0
M  V30 11084 C 1104.46 -2.61141 5.10483 0
M  V30 11085 N 1103.96 -3.02498 6.23271 0
M  V30 11086 N 1105.75 -2.60986 4.97838 0
M  V30 11087 H 1097.9 0.0173096 2.12393 0
M  V30 11088 H 1100.17 -0.0548116 0.946414 0
M  V30 11089 H 1099.87 -0.791008 3.42689 0
M  V30 11090 H 1099.75 -2.4497 2.86827 0
M  V30 11091 H 1102.13 -2.26284 1.89418 0
M  V30 11092 H 1102.21 -0.597728 2.48718 0
M  V30 11093 H 1101.86 -1.45162 4.86714 0
M  V30 11094 H 1101.79 -3.1188 4.2431 0
M  V30 11095 H 1104.28 -1.90013 3.26655 0
M  V30 11096 H 1104.59 -3.33251 6.97254 0
M  V30 11097 H 1102.94 -3.00328 6.2676 0
M  V30 11098 H 1106.13 -2.28046 4.08794 0
M  V30 11099 H 1106.3 -2.93384 5.7778 0
M  V30 11100 N 1099.71 -1.29285 -0.901281 0
M  V30 11101 C 1100.95 -1.17165 -1.65162 0
M  V30 11102 C 1101.28 0.277184 -1.92515 0
M  V30 11103 O 1100.54 1.2168 -1.53273 0
M  V30 11104 C 1100.84 -1.92865 -3.00895 0
M  V30 11105 C 1100.5 -3.42593 -2.93157 0
M  V30 11106 C 1099.16 -3.83426 -2.90754 0
M  V30 11107 C 1101.52 -4.38011 -2.82481 0
M  V30 11108 C 1098.84 -5.17997 -2.75492 0
M  V30 11109 C 1101.2 -5.7267 -2.68759 0
M  V30 11110 C 1099.86 -6.12764 -2.64721 0
M  V30 11111 H 1099.13 -0.428737 -0.604372 0
M  V30 11112 H 1101.78 -1.60204 -1.04914 0
M  V30 11113 H 1100.08 -1.42412 -3.65001 0
M  V30 11114 H 1101.78 -1.80893 -3.57881 0
M  V30 11115 H 1098.37 -3.10134 -2.95829 0
M  V30 11116 H 1102.55 -4.07417 -2.83416 0
M  V30 11117 H 1097.81 -5.48173 -2.70769 0
M  V30 11118 H 1101.98 -6.46258 -2.59469 0
M  V30 11119 H 1099.61 -7.16987 -2.52652 0
M  V30 11120 N 1101.18 1.11143 -1.11736 0
M  V30 11121 C 1102.12 2.16467 -0.722299 0
M  V30 11122 C 1103.1 1.60118 0.283006 0
M  V30 11123 O 1104.28 1.87651 0.178696 0
M  V30 11124 C 1101.41 3.38632 -0.0679339 0
M  V30 11125 C 1100.45 4.13654 -1.03888 0
M  V30 11126 S 1101.29 4.70187 -2.5629 0
M  V30 11127 C 1102.44 5.95671 -1.92163 0
M  V30 11128 H 1102.67 2.49644 -1.61447 0
M  V30 11129 H 1100.21 1.22816 -0.935708 0
M  V30 11130 H 1102.17 4.09378 0.303253 0
M  V30 11131 H 1100.83 3.03709 0.80124 0
M  V30 11132 H 1100.02 5.01221 -0.528522 0
M  V30 11133 H 1099.62 3.48683 -1.35265 0
M  V30 11134 H 1101.91 6.65681 -1.25994 0
M  V30 11135 H 1102.86 6.51357 -2.77741 0
M  V30 11136 H 1103.26 5.47359 -1.3805 0
M  V30 11137 N 1102.66 0.908147 1.28804 0
M  V30 11138 C 1103.89 0.553431 1.9988 0
M  V30 11139 C 1104.31 -0.856714 1.67458 0
M  V30 11140 O 1103.67 -1.57163 0.903849 0
M  V30 11141 C 1103.72 0.762688 3.52442 0
M  V30 11142 O 1102.82 -0.180924 4.12003 0
M  V30 11143 H 1102.16 0.215237 0.628147 0
M  V30 11144 H 1104.69 1.22205 1.64095 0
M  V30 11145 H 1104.7 0.670612 4.02451 0
M  V30 11146 H 1103.38 1.79071 3.75375 0
M  V30 11147 H 1101.96 -0.0405897 3.72878 0
M  V30 11148 N 1104.14 -1.42577 0.671525 0
M  V30 11149 C 1105.39 -2.00806 0.189663 0
M  V30 11150 C 1105.7 -1.537 -1.20978 0
M  V30 11151 O 1106.91 -2.04325 -1.78784 0
M  V30 11152 C 1105.36 -3.58744 0.288227 0
M  V30 11153 C 1104.97 -4.14839 1.69152 0
M  V30 11154 C 1106.72 -4.24285 -0.13509 0
M  V30 11155 C 1104.62 -5.65131 1.74302 0
M  V30 11156 H 1103.55 -0.751004 0.067146 0
M  V30 11157 H 1106.2 -1.63338 0.83623 0
M  V30 11158 H 1104.59 -3.937 -0.426175 0
M  V30 11159 H 1105.76 -3.91349 2.43274 0
M  V30 11160 H 1104.08 -3.61738 2.0624 0
M  V30 11161 H 1106.67 -5.34573 -0.116709 0
M  V30 11162 H 1107.02 -3.99527 -1.16977 0
M  V30 11163 H 1107.55 -3.94278 0.528191 0
M  V30 11164 H 1104.29 -5.94682 2.75742 0
M  V30 11165 H 1103.81 -5.90621 1.04531 0
M  V30 11166 H 1105.49 -6.29491 1.49498 0
M  V30 11167 N 1105.62 -0.414636 -1.52048 0
M  V30 11168 C 1106.58 0.396285 -2.25748 0
M  V30 11169 C 1107.58 0.969003 -1.28324 0
M  V30 11170 O 1108.77 0.847016 -1.52221 0
M  V30 11171 C 1105.9 1.55838 -3.03195 0
M  V30 11172 H 1107.1 -0.249311 -2.98862 0
M  V30 11173 H 1104.65 -0.167276 -1.55402 0
M  V30 11174 H 1105.38 2.24068 -2.34444 0
M  V30 11175 H 1105.17 1.15414 -3.74729 0
M  V30 11176 H 1106.66 2.13187 -3.59084 0
M  V30 11177 N 1107.1 1.56929 -0.145233 0
M  V30 11178 C 1108.01 2.20238 0.808219 0
M  V30 11179 C 1109.02 1.18615 1.27304 0
M  V30 11180 O 1110.2 1.51186 1.3306 0
M  V30 11181 C 1107.26 2.81016 2.03055 0
M  V30 11182 C 1106.32 3.97759 1.61512 0
M  V30 11183 C 1105.56 4.55628 2.77918 0
M  V30 11184 O 1105.78 4.12378 3.94082 0
M  V30 11185 O 1104.71 5.45917 2.53492 0
M  V30 11186 H 1108.54 3.02221 0.299314 0
M  V30 11187 H 1106.13 1.49176 0.0817051 0
M  V30 11188 H 1108.01 3.19652 2.74592 0
M  V30 11189 H 1106.68 2.02047 2.52901 0
M  V30 11190 H 1105.59 3.63842 0.870033 0
M  V30 11191 H 1106.92 4.78242 1.16383 0
M  V30 11192 N 1108.58 -0.128553 1.57075 0
M  V30 11193 C 1109.51 -1.18362 1.96273 0
M  V30 11194 C 1110.52 -1.3818 0.860818 0
M  V30 11195 O 1111.71 -1.37424 1.13916 0
M  V30 11196 C 1108.81 -2.54533 2.23755 0
M  V30 11197 C 1107.98 -2.55446 3.55058 0
M  V30 11198 C 1107.04 -3.73291 3.70864 0
M  V30 11199 O 1106.07 -3.57315 4.43074 0
M  V30 11200 N 1107.27 -4.91481 3.08912 0
M  V30 11201 H 1110.03 -0.850276 2.87385 0
M  V30 11202 H 1107.6 -0.317931 1.58748 0
M  V30 11203 H 1109.59 -3.31912 2.31553 0
M  V30 11204 H 1108.16 -2.80087 1.38816 0
M  V30 11205 H 1107.38 -1.6385 3.58534 0
M  V30 11206 H 1108.67 -2.53104 4.4138 0
M  V30 11207 H 1108.06 -5.07364 2.50196 0
M  V30 11208 H 1106.62 -5.6657 3.22245 0
M  V30 11209 N 1110.05 -1.5248 -0.398459 0
M  V30 11210 C 1110.99 -1.71321 -1.50746 0
M  V30 11211 C 1111.96 -0.5609 -1.52619 0
M  V30 11212 O 1113.15 -0.789557 -1.71167 0
M  V30 11213 C 1110.28 -1.76223 -2.89246 0
M  V30 11214 C 1109.32 -2.97878 -3.05239 0
M  V30 11215 S 1110.15 -4.58031 -2.77431 0
M  V30 11216 C 1111.31 -4.65735 -4.18141 0
M  V30 11217 H 1111.54 -2.65117 -1.34538 0
M  V30 11218 H 1109.08 -1.42653 -0.590727 0
M  V30 11219 H 1111.03 -1.79733 -3.69062 0
M  V30 11220 H 1109.7 -0.83536 -3.02788 0
M  V30 11221 H 1108.89 -2.97821 -4.06594 0
M  V30 11222 H 1108.49 -2.92311 -2.33304 0
M  V30 11223 H 1110.78 -4.43768 -5.11934 0
M  V30 11224 H 1111.73 -5.67709 -4.23217 0
M  V30 11225 H 1112.13 -3.94664 -4.03609 0
M  V30 11226 N 1111.53 0.65634 -1.43283 0
M  V30 11227 C 1112.78 1.41347 -1.44449 0
M  V30 11228 C 1113.1 1.94879 -0.0687217 0
M  V30 11229 O 1112.37 1.74235 0.895492 0
M  V30 11230 H 1110.95 0.524578 -0.531815 0
M  V30 11231 H 1113.61 0.774292 -1.7886 0
M  V30 11232 H 1112.71 2.25737 -2.15521 0
M  V30 11233 N 1113.01 1.29761 0.894412 0
M  V30 11234 C 1114.43 1.07888 1.17611 0
M  V30 11235 C 1114.63 -0.16644 2.00811 0
M  V30 11236 O 1113.68 -0.86272 2.37304 0
M  V30 11237 C 1114.99 2.33723 1.89193 0
M  V30 11238 C 1116.54 2.39095 2.01997 0
M  V30 11239 C 1117.02 3.64747 2.7699 0
M  V30 11240 N 1118.51 3.65501 2.84541 0
M  V30 11241 C 1119.24 4.59411 3.43117 0
M  V30 11242 N 1118.74 5.63657 4.02818 0
M  V30 11243 N 1120.53 4.46971 3.40842 0
M  V30 11244 H 1112.68 2.0967 0.339421 0
M  V30 11245 H 1114.95 0.923788 0.212882 0
M  V30 11246 H 1114.65 3.24551 1.35496 0
M  V30 11247 H 1114.53 2.41642 2.89636 0
M  V30 11248 H 1116.91 1.48751 2.54867 0
M  V30 11249 H 1116.99 2.35158 1.0067 0
M  V30 11250 H 1116.64 4.55445 2.24794 0
M  V30 11251 H 1116.57 3.65944 3.78672 0
M  V30 11252 H 1119.06 2.90129 2.42144 0
M  V30 11253 H 1119.37 6.31429 4.45552 0
M  V30 11254 H 1117.72 5.67461 4.01265 0
M  V30 11255 H 1120.91 3.64719 2.93424 0
M  V30 11256 H 1121.08 5.20341 3.86198 0
M  V30 11257 N 1114.49 -1.10549 1.12324 0
M  V30 11258 C 1115.74 -1.81851 0.872531 0
M  V30 11259 C 1116.05 -1.86058 -0.603468 0
M  V30 11260 O 1117.26 -2.53553 -0.970736 0
M  V30 11261 C 1115.71 -3.26631 1.51131 0
M  V30 11262 C 1115.32 -3.30725 3.02201 0
M  V30 11263 C 1117.06 -4.02768 1.34082 0
M  V30 11264 C 1114.97 -4.69957 3.59018 0
M  V30 11265 H 1113.9 -0.681422 0.322769 0
M  V30 11266 H 1116.55 -1.24332 1.34959 0
M  V30 11267 H 1114.93 -3.8414 0.961913 0
M  V30 11268 H 1116.11 -2.83046 3.63623 0
M  V30 11269 H 1114.42 -2.68072 3.18632 0
M  V30 11270 H 1117.02 -5.05612 1.73955 0
M  V30 11271 H 1117.36 -4.15328 0.284369 0
M  V30 11272 H 1117.9 -3.51671 1.85937 0
M  V30 11273 H 1114.63 -4.62597 4.64418 0
M  V30 11274 H 1114.15 -5.18008 3.02371 0
M  V30 11275 H 1115.83 -5.38925 3.58007 0
M  V30 11276 N 1115.97 -0.914965 -1.28321 0
M  V30 11277 C 1116.9 -0.421292 -2.29668 0
M  V30 11278 C 1117.88 0.511743 -1.6222 0
M  V30 11279 O 1119.06 0.419218 -1.89621 0
M  V30 11280 C 1116.19 0.338364 -3.45648 0
M  V30 11281 C 1115.15 -0.505646 -4.25003 0
M  V30 11282 C 1114.47 0.382421 -5.33331 0
M  V30 11283 C 1115.77 -1.76354 -4.91626 0
M  V30 11284 H 1117.47 -1.26826 -2.71211 0
M  V30 11285 H 1115.01 -0.611291 -1.30381 0
M  V30 11286 H 1116.96 0.694578 -4.15636 0
M  V30 11287 H 1115.69 1.21925 -3.02988 0
M  V30 11288 H 1114.35 -0.844395 -3.56743 0
M  V30 11289 H 1114 1.26189 -4.86914 0
M  V30 11290 H 1113.7 -0.17871 -5.87328 0
M  V30 11291 H 1115.22 0.73449 -6.06166 0
M  V30 11292 H 1116.63 -1.47616 -5.5397 0
M  V30 11293 H 1115.03 -2.26717 -5.55625 0
M  V30 11294 H 1116.1 -2.49063 -4.16048 0
M  V30 11295 N 1117.44 1.42219 -0.679077 0
M  V30 11296 C 1118.38 2.29172 0.035583 0
M  V30 11297 C 1119.39 1.43909 0.761183 0
M  V30 11298 O 1120.58 1.67584 0.61463 0
M  V30 11299 C 1117.68 3.21426 1.07419 0
M  V30 11300 C 1116.85 4.35364 0.421547 0
M  V30 11301 C 1115.91 5.08307 1.36051 0
M  V30 11302 O 1114.94 5.62678 0.859186 0
M  V30 11303 N 1116.14 5.14222 2.69362 0
M  V30 11304 H 1118.9 2.91147 -0.710865 0
M  V30 11305 H 1116.46 1.53192 -0.523821 0
M  V30 11306 H 1118.46 3.67091 1.70371 0
M  V30 11307 H 1117.03 2.60873 1.72233 0
M  V30 11308 H 1116.25 3.9229 -0.387559 0
M  V30 11309 H 1117.53 5.08789 -0.0329421 0
M  V30 11310 H 1116.93 4.71467 3.12627 0
M  V30 11311 H 1115.49 5.63519 3.27551 0
M  V30 11312 N 1118.92 0.422693 1.51826 0
M  V30 11313 C 1120.34 0.0742364 1.59427 0
M  V30 11314 C 1120.54 -1.41491 1.43466 0
M  V30 11315 O 1119.59 -2.18326 1.26846 0
M  V30 11316 C 1120.91 0.581272 2.95028 0
M  V30 11317 C 1122.45 0.54043 3.08299 0
M  V30 11318 C 1122.93 1.0242 4.46401 0
M  V30 11319 N 1124.42 0.981576 4.5268 0
M  V30 11320 C 1125.16 1.32693 5.57835 0
M  V30 11321 N 1124.65 1.74441 6.70479 0
M  V30 11322 N 1126.44 1.24603 5.48115 0
M  V30 11323 H 1118.6 1.39178 1.60447 0
M  V30 11324 H 1120.86 0.572607 0.75553 0
M  V30 11325 H 1120.56 1.62261 3.12032 0
M  V30 11326 H 1120.44 -0.00176969 3.772 0
M  V30 11327 H 1122.83 -0.491895 2.90971 0
M  V30 11328 H 1122.91 1.15969 2.28002 0
M  V30 11329 H 1122.55 2.05491 4.64474 0
M  V30 11330 H 1122.48 0.381613 5.25215 0
M  V30 11331 H 1124.97 0.674808 3.71826 0
M  V30 11332 H 1125.28 1.99068 7.46721 0
M  V30 11333 H 1123.63 1.78356 6.71725 0
M  V30 11334 H 1126.82 0.918641 4.58997 0
M  V30 11335 H 1126.99 1.51847 6.29958 0
M  V30 11336 N 1120.4 -1.5685 0.153553 0
M  V30 11337 C 1121.63 -2.00701 -0.502678 0
M  V30 11338 C 1122.04 -1.0337 -1.57988 0
M  V30 11339 O 1121.4 -0.0317233 -1.82472 0
M  V30 11340 C 1121.45 -3.44443 -1.09732 0
M  V30 11341 O 1121.17 -4.38054 -0.0631405 0
M  V30 11342 C 1122.67 -4.03605 -1.83352 0
M  V30 11343 H 1119.89 -0.658229 -0.130289 0
M  V30 11344 H 1122.44 -2.02965 0.250063 0
M  V30 11345 H 1120.59 -3.43009 -1.80065 0
M  V30 11346 H 1121.01 -5.22114 -0.499681 0
M  V30 11347 H 1122.48 -5.0616 -2.20241 0
M  V30 11348 H 1122.96 -3.44687 -2.7219 0
M  V30 11349 H 1123.56 -4.08688 -1.17703 0
M  V30 11350 N 1121.88 0.120221 -1.57141 0
M  V30 11351 C 1122.84 1.13159 -1.99318 0
M  V30 11352 C 1123.84 1.34376 -0.883158 0
M  V30 11353 O 1125.03 1.30914 -1.14922 0
M  V30 11354 C 1122.16 2.48632 -2.33227 0
M  V30 11355 H 1123.36 0.769119 -2.8987 0
M  V30 11356 H 1120.91 0.364475 -1.51991 0
M  V30 11357 H 1121.64 2.89802 -1.45551 0
M  V30 11358 H 1121.43 2.34587 -3.14184 0
M  V30 11359 H 1122.92 3.21423 -2.66603 0
M  V30 11360 N 1123.36 1.52689 0.390367 0
M  V30 11361 C 1124.61 1.6689 1.13272 0
M  V30 11362 C 1124.92 0.414433 1.91159 0
M  V30 11363 O 1126.12 0.436559 2.67967 0
M  V30 11364 C 1124.58 2.94929 2.06264 0
M  V30 11365 C 1124.19 4.27551 1.33805 0
M  V30 11366 C 1125.93 3.18497 2.80642 0
M  V30 11367 C 1123.84 5.46698 2.25554 0
M  V30 11368 H 1122.77 0.621749 0.426549 0
M  V30 11369 H 1125.42 1.79185 0.395615 0
M  V30 11370 H 1123.8 2.76378 2.83604 0
M  V30 11371 H 1124.98 4.56651 0.616997 0
M  V30 11372 H 1123.29 4.10234 0.713913 0
M  V30 11373 H 1125.89 4.04693 3.49467 0
M  V30 11374 H 1126.23 2.33511 3.44642 0
M  V30 11375 H 1126.76 3.37607 2.10395 0
M  V30 11376 H 1123.5 6.34088 1.66171 0
M  V30 11377 H 1123.02 5.21913 2.95579 0
M  V30 11378 H 1124.7 5.80519 2.85668 0
M  V30 11379 N 1124.83 -0.648732 1.43629 0
M  V30 11380 C 1126.06 -1.44117 1.49148 0
M  V30 11381 C 1126.48 -1.87767 0.111952 0
M  V30 11382 O 1125.84 -1.57655 -0.895249 0
M  V30 11383 C 1125.89 -2.64938 2.44623 0
M  V30 11384 O 1124.99 -3.64155 1.93559 0
M  V30 11385 H 1124.34 -0.431933 0.504312 0
M  V30 11386 H 1126.87 -0.793439 1.88589 0
M  V30 11387 H 1126.88 -3.12698 2.62076 0
M  V30 11388 H 1125.55 -2.3251 3.44836 0
M  V30 11389 H 1124.13 -3.23322 1.85789 0
M  V30 11390 N 1126.31 -1.30234 -0.887518 0
M  V30 11391 C 1127.54 -1.21829 -1.67229 0
M  V30 11392 C 1127.96 0.219251 -1.87523 0
M  V30 11393 O 1127.31 1.14526 -1.42091 0
M  V30 11394 C 1127.36 -1.94044 -3.05007 0
M  V30 11395 O 1127.08 -3.32185 -2.85631 0
M  V30 11396 C 1128.59 -1.92265 -3.99436 0
M  V30 11397 H 1125.81 -0.421716 -0.521916 0
M  V30 11398 H 1128.35 -1.71816 -1.10903 0
M  V30 11399 H 1126.5 -1.47861 -3.58072 0
M  V30 11400 H 1126.92 -3.68724 -3.73018 0
M  V30 11401 H 1128.39 -2.47336 -4.93486 0
M  V30 11402 H 1128.87 -0.900984 -4.29859 0
M  V30 11403 H 1129.48 -2.38247 -3.52305 0
M  V30 11404 N 1127.79 1.09952 -1.12909 0
M  V30 11405 C 1128.74 2.18525 -0.796849 0
M  V30 11406 C 1129.73 1.67985 0.218483 0
M  V30 11407 O 1130.94 1.79839 0.07618 0
M  V30 11408 H 1127.31 0.712714 -0.239882 0
M  V30 11409 H 1129.28 2.43783 -1.72083 0
M  V30 11410 C 1128.03 3.46625 -0.273237 0
M  V30 11411 H 1127.36 3.85879 -1.04582 0
M  V30 11412 H 1128.8 4.23926 -0.0791355 0
M  V30 11413 C 1127.26 3.2172 0.999903 0
M  V30 11414 O 1127.79 3.43851 2.07676 0
M  V30 11415 N 1125.99 2.75356 0.928833 0
M  V30 11416 H 1125.54 2.57547 0.052379 0
M  V30 11417 H 1125.5 2.5907 1.78129 0
M  V30 11418 N 1129.27 0.921757 1.27833 0
M  V30 11419 C 1130.52 0.55493 1.93916 0
M  V30 11420 C 1130.83 -0.907191 1.7329 0
M  V30 11421 O 1132.04 -1.38253 2.33663 0
M  V30 11422 C 1130.49 0.941644 3.47363 0
M  V30 11423 C 1130.1 2.42404 3.76755 0
M  V30 11424 C 1131.84 0.645785 4.19559 0
M  V30 11425 C 1129.75 2.75046 5.23549 0
M  V30 11426 H 1128.68 0.203818 0.72593 0
M  V30 11427 H 1131.33 1.12176 1.4522 0
M  V30 11428 H 1129.71 0.303519 3.94835 0
M  V30 11429 H 1130.89 3.10957 3.40062 0
M  V30 11430 H 1129.2 2.69118 3.17749 0
M  V30 11431 H 1131.8 0.866237 5.27637 0
M  V30 11432 H 1132.14 -0.41676 4.14209 0
M  V30 11433 H 1132.68 1.24274 3.7789 0
M  V30 11434 H 1129.42 3.80186 5.33984 0
M  V30 11435 H 1128.94 2.11138 5.6141 0
M  V30 11436 H 1130.61 2.62474 5.91368 0
M  V30 11437 N 1130.75 -1.41857 0.686609 0
M  V30 11438 C 1131.69 -2.30795 0.015643 0
M  V30 11439 C 1132.66 -1.46616 -0.780569 0
M  V30 11440 O 1133.85 -1.75423 -0.750424 0
M  V30 11441 C 1130.99 -3.32577 -0.921229 0
M  V30 11442 C 1130.1 -4.3184 -0.117585 0
M  V30 11443 C 1129.24 -5.20693 -1.05128 0
M  V30 11444 C 1128.28 -6.11629 -0.240018 0
M  V30 11445 N 1127.41 -6.92995 -1.12704 0
M  V30 11446 H 1132.25 -2.87615 0.77985 0
M  V30 11447 H 1129.79 -1.41661 0.396298 0
M  V30 11448 H 1131.75 -3.90129 -1.47836 0
M  V30 11449 H 1130.38 -2.77328 -1.65193 0
M  V30 11450 H 1129.43 -3.7631 0.55634 0
M  V30 11451 H 1130.74 -4.96168 0.511753 0
M  V30 11452 H 1129.9 -5.83035 -1.67795 0
M  V30 11453 H 1128.63 -4.5657 -1.71449 0
M  V30 11454 H 1127.64 -5.48345 0.399779 0
M  V30 11455 H 1128.86 -6.77805 0.419266 0
M  V30 11456 H 1126.81 -6.31489 -1.77644 0
M  V30 11457 H 1126.73 -7.53974 -0.553065 0
M  V30 11458 H 1128 -7.59813 -1.7408 0
M  V30 11459 N 1132.22 -0.430739 -1.51599 0
M  V30 11460 C 1133.13 0.390347 -2.3133 0
M  V30 11461 C 1134.15 1.03376 -1.39962 0
M  V30 11462 O 1135.33 1.03057 -1.73035 0
M  V30 11463 C 1132.39 1.48039 -3.13505 0
M  V30 11464 C 1131.45 0.857792 -4.20643 0
M  V30 11465 C 1130.69 1.89589 -4.9889 0
M  V30 11466 O 1130.91 3.11717 -4.77691 0
M  V30 11467 O 1129.84 1.49009 -5.83164 0
M  V30 11468 H 1133.67 -0.260358 -3.02582 0
M  V30 11469 H 1131.25 -0.193428 -1.48143 0
M  V30 11470 H 1133.14 2.11272 -3.64612 0
M  V30 11471 H 1131.81 2.1153 -2.45024 0
M  V30 11472 H 1130.72 0.187592 -3.73629 0
M  V30 11473 H 1132.05 0.266474 -4.91478 0
M  V30 11474 N 1133.7 1.56767 -0.161869 0
M  V30 11475 C 1135.12 1.58412 0.194403 0
M  V30 11476 C 1135.32 1.17682 1.63564 0
M  V30 11477 O 1134.37 0.884024 2.36519 0
M  V30 11478 C 1135.69 3.00599 -0.0778438 0
M  V30 11479 C 1137.24 3.12996 -0.015307 0
M  V30 11480 C 1137.71 4.57259 -0.260418 0
M  V30 11481 N 1139.2 4.62733 -0.207863 0
M  V30 11482 C 1139.94 5.72193 -0.371821 0
M  V30 11483 N 1139.43 6.90246 -0.594318 0
M  V30 11484 N 1141.23 5.61253 -0.308384 0
M  V30 11485 H 1133.38 1.81531 -1.10274 0
M  V30 11486 H 1135.64 0.840919 -0.437675 0
M  V30 11487 H 1135.35 3.3484 -1.07587 0
M  V30 11488 H 1135.22 3.71819 0.634845 0
M  V30 11489 H 1137.61 2.78588 0.97329 0
M  V30 11490 H 1137.69 2.44232 -0.760559 0
M  V30 11491 H 1137.33 4.92375 -1.24618 0
M  V30 11492 H 1137.26 5.2417 0.505334 0
M  V30 11493 H 1139.75 3.77878 -0.0411541 0
M  V30 11494 H 1140.07 7.6954 -0.70913 0
M  V30 11495 H 1138.41 6.92131 -0.630819 0
M  V30 11496 H 1141.6 4.67905 -0.135217 0
M  V30 11497 H 1141.77 6.46507 -0.439592 0
M  V30 11498 N 1135.18 -0.111886 1.57202 0
M  V30 11499 C 1136.11 -1.13796 2.03894 0
M  V30 11500 C 1137.09 -1.4277 0.924696 0
M  V30 11501 O 1138.28 -1.53089 1.19488 0
M  V30 11502 C 1135.41 -2.46229 2.44925 0
M  V30 11503 C 1134.36 -2.31702 3.59859 0
M  V30 11504 C 1133.69 -3.69161 3.86813 0
M  V30 11505 C 1134.99 -1.77158 4.91337 0
M  V30 11506 H 1136.68 -0.749581 2.89865 0
M  V30 11507 H 1134.23 -0.359126 1.3945 0
M  V30 11508 H 1136.18 -3.18267 2.76195 0
M  V30 11509 H 1134.9 -2.86971 1.55933 0
M  V30 11510 H 1133.56 -1.62112 3.28809 0
M  V30 11511 H 1133.21 -4.07401 2.95015 0
M  V30 11512 H 1132.91 -3.60292 4.6418 0
M  V30 11513 H 1134.43 -4.42693 4.20542 0
M  V30 11514 H 1135.85 -2.3902 5.21097 0
M  V30 11515 H 1134.25 -1.79091 5.72753 0
M  V30 11516 H 1135.32 -0.729675 4.79379 0
M  V30 11517 N 1136.66 -1.52894 -0.382264 0
M  V30 11518 C 1137.94 -1.58853 -1.14127 0
M  V30 11519 C 1138.32 -0.38582 -2.07544 0
M  V30 11520 O 1137.66 0.625323 -2.19777 0
M  V30 11521 C 1137.87 -2.93068 -1.89504 0
M  V30 11522 C 1139.22 -3.47048 -2.44629 0
M  V30 11523 O 1140.25 -2.94987 -1.99652 0
M  V30 11524 O 1139.1 -4.3802 -3.26804 0
M  V30 11525 H 1136.2 -0.640969 -0.522578 0
M  V30 11526 H 1138.74 -1.65231 -0.386873 0
M  V30 11527 H 1137.52 -3.72047 -1.2123 0
M  V30 11528 H 1137.14 -2.90106 -2.7189 0
M  V30 11529 N 1138.14 0.641106 -1.43971 0
M  V30 11530 C 1139.38 1.40084 -1.46228 0
M  V30 11531 C 1139.71 1.94287 -0.0911011 0
M  V30 11532 O 1138.97 1.73481 0.905688 0
M  V30 11533 C 1139.27 2.59092 -2.46183 0
M  V30 11534 C 1138.93 2.23237 -3.9176 0
M  V30 11535 C 1137.59 2.13171 -4.31407 0
M  V30 11536 C 1139.95 1.94746 -4.83449 0
M  V30 11537 C 1137.27 1.72788 -5.60679 0
M  V30 11538 C 1139.63 1.55858 -6.13099 0
M  V30 11539 C 1138.29 1.44326 -6.5171 0
M  V30 11540 H 1137.56 0.512603 -0.535088 0
M  V30 11541 H 1140.21 0.727956 -1.77124 0
M  V30 11542 H 1138.51 3.31568 -2.08734 0
M  V30 11543 H 1140.21 3.17313 -2.4518 0
M  V30 11544 H 1136.8 2.31986 -3.60389 0
M  V30 11545 H 1140.98 2.01438 -4.53582 0
M  V30 11546 H 1136.24 1.62455 -5.89422 0
M  V30 11547 H 1140.41 1.32848 -6.83611 0
M  V30 11548 H 1138.04 1.12806 -7.51784 0
M  V30 11549 N 1139.62 1.30703 0.880598 0
M  V30 11550 C 1140.84 1.22843 1.67106 0
M  V30 11551 C 1141.27 -0.204788 1.86982 0
M  V30 11552 O 1140.62 -1.14716 1.40392 0
M  V30 11553 C 1140.67 1.96685 3.02237 0
M  V30 11554 O 1139.78 1.29693 3.91476 0
M  V30 11555 H 1139.12 0.424661 0.51045 0
M  V30 11556 H 1141.65 1.72596 1.09871 0
M  V30 11557 H 1141.66 2.05874 3.52249 0
M  V30 11558 H 1140.33 3.00919 2.8709 0
M  V30 11559 H 1138.91 1.28886 3.49918 0
M  V30 11560 N 1141.09 -1.09351 1.1349 0
M  V30 11561 C 1142.33 -1.83156 0.907372 0
M  V30 11562 C 1142.7 -1.8376 -0.556441 0
M  V30 11563 O 1143.9 -2.5323 -0.90156 0
M  V30 11564 C 1142.17 -3.25315 1.48004 0
M  V30 11565 S 1143.73 -4.16113 1.39268 0
M  V30 11566 H 1140.55 -0.631319 0.327043 0
M  V30 11567 H 1143.15 -1.31509 1.44657 0
M  V30 11568 H 1141.85 -3.22452 2.53876 0
M  V30 11569 H 1141.38 -3.82034 0.938822 0
M  V30 11570 H 1143.4 -4.94806 0.371645 0
M  V30 11571 N 1142.57 -0.928524 -1.27343 0
M  V30 11572 C 1143.53 -0.43292 -2.25074 0
M  V30 11573 C 1144.53 0.448976 -1.54405 0
M  V30 11574 O 1145.72 0.249939 -1.72398 0
M  V30 11575 C 1142.86 0.377539 -3.38803 0
M  V30 11576 H 1144.05 -1.29642 -2.70431 0
M  V30 11577 H 1141.6 -0.709289 -1.3928 0
M  V30 11578 H 1142.34 1.25982 -2.98829 0
M  V30 11579 H 1142.12 -0.254782 -3.91271 0
M  V30 11580 H 1143.61 0.714634 -4.1144 0
M  V30 11581 N 1144.05 1.41491 -0.694123 0
M  V30 11582 C 1144.98 2.33462 -0.0422169 0
M  V30 11583 C 1145.96 1.51739 0.76872 0
M  V30 11584 O 1147.15 1.8028 0.721985 0
M  V30 11585 C 1144.28 3.35545 0.895925 0
M  V30 11586 C 1143.23 4.27568 0.192188 0
M  V30 11587 C 1142.56 5.20014 1.24459 0
M  V30 11588 C 1143.86 5.1376 -0.940626 0
M  V30 11589 H 1145.55 2.88225 -0.810363 0
M  V30 11590 H 1143.1 1.38586 -0.39114 0
M  V30 11591 H 1145.05 3.9881 1.36121 0
M  V30 11592 H 1143.77 2.79129 1.69572 0
M  V30 11593 H 1142.43 3.65726 -0.25305 0
M  V30 11594 H 1142.08 4.59913 2.03687 0
M  V30 11595 H 1141.78 5.82417 0.778734 0
M  V30 11596 H 1143.3 5.86155 1.71041 0
M  V30 11597 H 1144.72 5.70601 -0.555692 0
M  V30 11598 H 1143.11 5.85097 -1.33349 0
M  V30 11599 H 1144.18 4.51011 -1.78093 0
M  V30 11600 N 1145.53 0.438773 1.51369 0
M  V30 11601 C 1146.77 -0.127213 2.021 0
M  V30 11602 C 1147.1 -1.42587 1.32284 0
M  V30 11603 O 1146.36 -1.90986 0.426949 0
M  V30 11604 C 1146.66 -0.39186 3.55245 0
M  V30 11605 C 1146.32 0.821158 4.4336 0
M  V30 11606 C 1144.98 1.15381 4.67162 0
M  V30 11607 C 1147.34 1.6303 4.95046 0
M  V30 11608 C 1144.66 2.29626 5.39897 0
M  V30 11609 C 1147.02 2.76376 5.69033 0
M  V30 11610 C 1145.68 3.10094 5.91099 0
M  V30 11611 H 1144.95 -0.0465505 0.739536 0
M  V30 11612 H 1147.6 0.586261 1.82305 0
M  V30 11613 H 1145.9 -1.18724 3.73379 0
M  V30 11614 H 1147.6 -0.843228 3.92034 0
M  V30 11615 H 1144.19 0.551946 4.25031 0
M  V30 11616 H 1148.37 1.38651 4.76539 0
M  V30 11617 H 1143.63 2.56062 5.55196 0
M  V30 11618 H 1147.8 3.39442 6.08072 0
M  V30 11619 H 1145.43 3.98731 6.47238 0
M  V30 11620 N 1147.01 -1.56678 0.170181 0
M  V30 11621 C 1148.25 -1.9646 -0.474125 0
M  V30 11622 C 1148.57 -1.05719 -1.63855 0
M  V30 11623 O 1147.84 -0.123316 -1.95511 0
M  V30 11624 H 1146.42 -0.725446 -0.178149 0
M  V30 11625 H 1149.09 -1.93276 0.251099 0
M  V30 11626 H 1148.18 -3.00726 -0.834894 0
M  V30 11627 N 1148.48 0.103547 -1.57259 0
M  V30 11628 C 1149.89 0.659006 -1.74683 0
M  V30 11629 C 1150.25 1.79542 -0.791142 0
M  V30 11630 O 1149.37 2.16376 0.0323585 0
M  V30 11631 C 1149.97 1.20222 -3.16752 0
M  V30 11632 C 1148.52 1.70382 -3.35629 0
M  V30 11633 C 1147.67 0.609886 -2.7051 0
M  V30 11634 H 1150.62 -0.122474 -1.58227 0
M  V30 11635 H 1150.64 2.07169 -3.19157 0
M  V30 11636 H 1150.16 0.374901 -3.86285 0
M  V30 11637 H 1148.26 2.55542 -2.71162 0
M  V30 11638 H 1148.37 1.80263 -4.43894 0
M  V30 11639 H 1146.73 1.04728 -2.32173 0
M  V30 11640 H 1147.52 -0.206713 -3.42677 0
M  V30 11641 N 1149.96 1.53094 0.37415 0
M  V30 11642 C 1151.24 1.59456 1.13283 0
M  V30 11643 C 1151.62 0.396821 2.07337 0
M  V30 11644 O 1150.97 -0.613659 2.20106 0
M  V30 11645 C 1151.18 2.94069 1.87948 0
M  V30 11646 C 1152.52 3.4834 2.42785 0
M  V30 11647 O 1153.55 2.96042 1.98085 0
M  V30 11648 O 1152.41 4.39747 3.24477 0
M  V30 11649 H 1149.5 0.643731 0.519171 0
M  V30 11650 H 1152.05 1.65434 0.378105 0
M  V30 11651 H 1150.82 3.72685 1.19255 0
M  V30 11652 H 1150.44 2.91544 2.70348 0
M  V30 11653 N 1151.44 -0.633461 1.44309 0
M  V30 11654 C 1152.69 -1.39031 1.46679 0
M  V30 11655 C 1153.01 -1.94745 0.0997165 0
M  V30 11656 O 1152.28 -1.75637 -0.867659 0
M  V30 11657 H 1150.86 -0.516051 0.540093 0
M  V30 11658 H 1153.52 -0.745739 1.80069 0
M  V30 11659 H 1152.62 -2.2228 2.19085 0
M  V30 11660 N 1152.92 -1.31168 -0.873655 0
M  V30 11661 C 1154.17 -1.20404 -1.62319 0
M  V30 11662 C 1154.49 0.238829 -1.93532 0
M  V30 11663 O 1153.76 1.15854 -1.57971 0
M  V30 11664 H 1152.34 -0.442632 -0.601736 0
M  V30 11665 H 1155 -1.64445 -1.04613 0
M  V30 11666 H 1154.1 -1.77309 -2.56842 0
M  V30 11667 N 1154.4 1.08748 -1.14068 0
M  V30 11668 C 1155.33 2.17591 -0.84714 0
M  V30 11669 C 1156.31 1.68962 0.196415 0
M  V30 11670 O 1157.49 1.94125 0.0538415 0
M  V30 11671 C 1154.62 3.45823 -0.320005 0
M  V30 11672 C 1153.58 4.07824 -1.2986 0
M  V30 11673 C 1152.9 5.30965 -0.630925 0
M  V30 11674 C 1154.2 4.49512 -2.65963 0
M  V30 11675 H 1155.9 2.42404 -1.75729 0
M  V30 11676 H 1153.44 1.16502 -0.846356 0
M  V30 11677 H 1155.4 4.21276 -0.102271 0
M  V30 11678 H 1154.12 3.20553 0.625561 0
M  V30 11679 H 1152.78 3.34398 -1.50245 0
M  V30 11680 H 1152.43 5.01979 0.320337 0
M  V30 11681 H 1152.13 5.73402 -1.28388 0
M  V30 11682 H 1153.65 6.09136 -0.422635 0
M  V30 11683 H 1155.06 5.16159 -2.49506 0
M  V30 11684 H 1153.46 5.02857 -3.27498 0
M  V30 11685 H 1154.53 3.6157 -3.23102 0
M  V30 11686 N 1155.87 0.935264 1.26849 0
M  V30 11687 C 1157.12 0.580548 1.94313 0
M  V30 11688 C 1157.45 -0.877205 1.73259 0
M  V30 11689 O 1156.73 -1.62679 1.06611 0
M  V30 11690 C 1157.01 0.916445 3.48243 0
M  V30 11691 C 1156.86 2.42851 3.78607 0
M  V30 11692 C 1158.18 0.427665 4.38017 0
M  V30 11693 H 1155.3 0.21239 0.705733 0
M  V30 11694 H 1157.94 1.16841 1.49827 0
M  V30 11695 H 1156.09 0.416169 3.86265 0
M  V30 11696 H 1157.77 3.00106 3.50335 0
M  V30 11697 H 1156.01 2.8745 3.24892 0
M  V30 11698 H 1156.68 2.61405 4.8618 0
M  V30 11699 H 1159.16 0.856525 4.07189 0
M  V30 11700 H 1158.03 0.691571 5.44526 0
M  V30 11701 H 1158.29 -0.672344 4.36958 0
M  V30 11702 N 1157.35 -1.41121 0.701616 0
M  V30 11703 C 1158.58 -2.05973 0.242896 0
M  V30 11704 C 1159 -1.52474 -1.10151 0
M  V30 11705 O 1158.36 -0.654224 -1.69085 0
M  V30 11706 C 1158.41 -3.59943 0.217614 0
M  V30 11707 O 1157.51 -4.04454 -0.805629 0
M  V30 11708 H 1156.85 -0.653581 0.117166 0
M  V30 11709 H 1159.38 -1.80777 0.958175 0
M  V30 11710 H 1159.39 -4.07969 0.0505267 0
M  V30 11711 H 1158.07 -3.98249 1.19877 0
M  V30 11712 H 1156.65 -3.6792 -0.607404 0
M  V30 11713 N 1158.83 -0.446794 -1.51134 0
M  V30 11714 C 1159.78 0.374154 -2.29571 0
M  V30 11715 C 1160.77 1.01241 -1.35818 0
M  V30 11716 O 1161.98 0.946293 -1.53119 0
M  V30 11717 H 1158.35 0.13948 -0.738951 0
M  V30 11718 H 1160.32 -0.308117 -2.96805 0
M  V30 11719 C 1159.07 1.45754 -3.15675 0
M  V30 11720 H 1158.4 0.975787 -3.87709 0
M  V30 11721 H 1159.84 2.00502 -3.73597 0
M  V30 11722 C 1158.3 2.44606 -2.31667 0
M  V30 11723 O 1158.83 3.49352 -1.98284 0
M  V30 11724 N 1157.03 2.15725 -1.94708 0
M  V30 11725 H 1156.58 1.30572 -2.22056 0
M  V30 11726 H 1156.54 2.82103 -1.38798 0
M  V30 11727 N 1160.31 1.56586 -0.178487 0
M  V30 11728 C 1161.27 2.17091 0.73512 0
M  V30 11729 C 1162.27 1.12088 1.15295 0
M  V30 11730 O 1163.46 1.37563 1.06874 0
M  V30 11731 C 1160.59 2.75957 2.00151 0
M  V30 11732 H 1161.79 2.99176 0.208272 0
M  V30 11733 H 1159.34 1.56138 0.0710967 0
M  V30 11734 H 1160.07 1.97626 2.57127 0
M  V30 11735 H 1159.86 3.52809 1.7108 0
M  V30 11736 H 1161.35 3.2247 2.65335 0
M  V30 11737 N 1161.79 -0.095206 1.57312 0
M  V30 11738 C 1163.2 -0.649733 1.7503 0
M  V30 11739 C 1163.55 -1.7912 0.800652 0
M  V30 11740 O 1162.67 -2.1639 -0.0208831 0
M  V30 11741 C 1163.27 -1.18541 3.17386 0
M  V30 11742 C 1161.83 -1.686 3.36528 0
M  V30 11743 C 1160.97 -0.595531 2.7083 0
M  V30 11744 H 1163.93 0.130863 1.5816 0
M  V30 11745 H 1163.95 -2.05473 3.20252 0
M  V30 11746 H 1163.46 -0.35441 3.86478 0
M  V30 11747 H 1161.56 -2.541 2.72514 0
M  V30 11748 H 1161.67 -1.77907 4.44844 0
M  V30 11749 H 1160.04 -1.03495 2.32725 0
M  V30 11750 H 1160.82 0.224883 3.42563 0
M  V30 11751 N 1163.26 -1.53291 -0.366026 0
M  V30 11752 C 1164.21 -1.76077 -1.44847 0
M  V30 11753 C 1165.2 -0.615302 -1.4867 0
M  V30 11754 O 1166.39 -0.873952 -1.53919 0
M  V30 11755 C 1163.52 -1.95371 -2.82286 0
M  V30 11756 C 1162.61 -3.15918 -2.82943 0
M  V30 11757 N 1163 -4.37835 -2.53247 0
M  V30 11758 C 1161.29 -3.16631 -3.14103 0
M  V30 11759 C 1162 -5.19573 -2.6157 0
M  V30 11760 N 1160.97 -4.55773 -2.96263 0
M  V30 11761 H 1164.77 -2.67949 -1.2075 0
M  V30 11762 H 1162.29 -1.5191 -0.574206 0
M  V30 11763 H 1164.28 -2.09823 -3.6025 0
M  V30 11764 H 1162.94 -1.04727 -3.07347 0
M  V30 11765 H 1163.96 -4.65575 -2.26848 0
M  V30 11766 H 1160.63 -2.35878 -3.44482 0
M  V30 11767 H 1162.02 -6.26821 -2.41961 0
M  V30 11768 N 1164.74 0.6258 -1.44643 0
M  V30 11769 C 1165.99 1.38125 -1.46984 0
M  V30 11770 C 1166.3 1.95299 -0.108429 0
M  V30 11771 O 1167.51 2.71498 -0.00940005 0
M  V30 11772 C 1165.97 2.50108 -2.58793 0
M  V30 11773 C 1165.57 1.99424 -4.01166 0
M  V30 11774 C 1167.32 3.27269 -2.70361 0
M  V30 11775 C 1165.23 3.08781 -5.04389 0
M  V30 11776 H 1164.16 0.519083 -0.546872 0
M  V30 11777 H 1166.81 0.67268 -1.70726 0
M  V30 11778 H 1165.19 3.23565 -2.28302 0
M  V30 11779 H 1166.36 1.32797 -4.4125 0
M  V30 11780 H 1164.68 1.35063 -3.93887 0
M  V30 11781 H 1167.27 4.08802 -3.44652 0
M  V30 11782 H 1167.62 3.77097 -1.76362 0
M  V30 11783 H 1168.15 2.60905 -3.00289 0
M  V30 11784 H 1164.89 2.63891 -6.00035 0
M  V30 11785 H 1164.41 3.74033 -4.68892 0
M  V30 11786 H 1166.09 3.73469 -5.28328 0
M  V30 11787 N 1166.22 1.31629 0.866686 0
M  V30 11788 C 1167.63 1.19347 1.43573 0
M  V30 11789 C 1167.98 -0.198765 1.95191 0
M  V30 11790 O 1167.11 -1.09674 1.86549 0
M  V30 11791 C 1167.7 2.16055 2.6097 0
M  V30 11792 C 1166.26 2.07697 3.13909 0
M  V30 11793 C 1165.41 2.05099 1.86627 0
M  V30 11794 H 1168.36 1.43633 0.674929 0
M  V30 11795 H 1168.38 1.75207 3.37761 0
M  V30 11796 H 1167.89 3.17375 2.23371 0
M  V30 11797 H 1165.99 1.09583 3.56121 0
M  V30 11798 H 1166.11 2.96958 3.75969 0
M  V30 11799 H 1164.47 1.50162 2.05727 0
M  V30 11800 H 1165.25 3.0818 1.51261 0
M  V30 11801 N 1167.7 -1.08142 1.14644 0
M  V30 11802 C 1168.95 -1.80849 0.917685 0
M  V30 11803 C 1169.28 -1.86123 -0.554249 0
M  V30 11804 O 1168.55 -1.33907 -1.41065 0
M  V30 11805 C 1168.84 -3.26325 1.52264 0
M  V30 11806 C 1168.69 -3.29244 3.06461 0
M  V30 11807 C 1170.01 -4.23375 1.20175 0
M  V30 11808 H 1167.13 -0.656559 0.334812 0
M  V30 11809 H 1169.77 -1.26595 1.41682 0
M  V30 11810 H 1167.92 -3.72656 1.09817 0
M  V30 11811 H 1169.59 -2.91216 3.57758 0
M  V30 11812 H 1167.83 -2.68438 3.40769 0
M  V30 11813 H 1168.51 -4.31785 3.43897 0
M  V30 11814 H 1170.98 -3.85394 1.56877 0
M  V30 11815 H 1169.86 -5.23472 1.65132 0
M  V30 11816 H 1170.12 -4.41944 0.117474 0
M  V30 11817 N 1169.18 -0.941978 -1.26351 0
M  V30 11818 C 1170.13 -0.423053 -2.24041 0
M  V30 11819 C 1171.11 0.480668 -1.53553 0
M  V30 11820 O 1172.3 0.315783 -1.7416 0
M  V30 11821 C 1169.43 0.309814 -3.41899 0
M  V30 11822 C 1168.52 -0.611245 -4.19672 0
M  V30 11823 N 1168.91 -1.73738 -4.75025 0
M  V30 11824 C 1167.21 -0.416985 -4.44046 0
M  V30 11825 C 1167.91 -2.31141 -5.33806 0
M  V30 11826 N 1166.88 -1.59934 -5.1954 0
M  V30 11827 H 1170.69 -1.28268 -2.64433 0
M  V30 11828 H 1168.2 -0.797941 -1.41445 0
M  V30 11829 H 1170.2 0.698618 -4.11005 0
M  V30 11830 H 1168.86 1.1662 -3.03035 0
M  V30 11831 H 1169.87 -2.1195 -4.72544 0
M  V30 11832 H 1166.55 0.397561 -4.15603 0
M  V30 11833 H 1167.94 -3.26029 -5.87499 0
M  V30 11834 N 1170.66 1.40747 -0.709091 0
M  V30 11835 C 1171.59 2.33404 -0.0669763 0
M  V30 11836 C 1172.57 1.52546 0.752582 0
M  V30 11837 O 1173.75 1.81036 0.702823 0
M  V30 11838 C 1170.88 3.36476 0.860285 0
M  V30 11839 C 1169.84 4.27748 0.146828 0
M  V30 11840 C 1169.16 5.21304 1.18937 0
M  V30 11841 C 1170.46 5.12734 -0.995064 0
M  V30 11842 H 1172.16 2.87349 -0.840888 0
M  V30 11843 H 1169.7 1.38163 -0.405817 0
M  V30 11844 H 1171.65 4.00231 1.31883 0
M  V30 11845 H 1170.38 2.80912 1.66602 0
M  V30 11846 H 1169.04 3.65437 -0.291826 0
M  V30 11847 H 1168.69 4.62048 1.98798 0
M  V30 11848 H 1168.39 5.8321 0.716917 0
M  V30 11849 H 1169.91 5.87936 1.64815 0
M  V30 11850 H 1171.32 5.69979 -0.61618 0
M  V30 11851 H 1169.72 5.83649 -1.39547 0
M  V30 11852 H 1170.79 4.49097 -1.82867 0
M  V30 11853 N 1172.13 0.454803 1.50895 0
M  V30 11854 C 1173.38 -0.105562 2.01824 0
M  V30 11855 C 1173.7 -1.41673 1.33992 0
M  V30 11856 O 1172.97 -1.89929 0.479994 0
M  V30 11857 H 1171.55 -0.0420011 0.745818 0
M  V30 11858 H 1174.21 0.601504 1.85386 0
M  V30 11859 H 1173.31 -0.268872 3.1094 0
M  V30 11860 N 1173.61 -1.56489 0.186789 0
M  V30 11861 C 1174.57 -2.17478 -0.723596 0
M  V30 11862 C 1175.57 -1.12698 -1.14699 0
M  V30 11863 O 1176.76 -1.38128 -1.06143 0
M  V30 11864 C 1173.9 -2.77015 -1.98685 0
M  V30 11865 H 1175.09 -2.99282 -0.192403 0
M  V30 11866 H 1172.64 -1.56174 -0.0628153 0
M  V30 11867 H 1173.38 -1.98987 -2.56076 0
M  V30 11868 H 1173.16 -3.53711 -1.69207 0
M  V30 11869 H 1174.65 -3.23872 -2.63622 0
M  V30 11870 N 1175.09 0.086862 -1.5736 0
M  V30 11871 C 1176.02 1.13614 -1.97907 0
M  V30 11872 C 1177 1.38395 -0.853564 0
M  V30 11873 O 1178.18 1.52018 -1.11457 0
M  V30 11874 C 1175.31 2.48364 -2.30289 0
M  V30 11875 C 1174.36 2.39814 -3.52692 0
M  V30 11876 S 1175.19 1.80673 -5.04101 0
M  V30 11877 C 1176.35 3.17031 -5.39669 0
M  V30 11878 H 1176.58 0.790538 -2.86597 0
M  V30 11879 H 1174.11 0.294847 -1.51559 0
M  V30 11880 H 1176.07 3.25883 -2.49621 0
M  V30 11881 H 1174.73 2.80091 -1.42154 0
M  V30 11882 H 1173.92 3.3915 -3.72818 0
M  V30 11883 H 1173.53 1.70427 -3.32912 0
M  V30 11884 H 1175.82 4.13319 -5.36818 0
M  V30 11885 H 1176.76 3.017 -6.40611 0
M  V30 11886 H 1177.17 3.16942 -4.67128 0
M  V30 11887 N 1176.57 1.53483 0.357892 0
M  V30 11888 C 1177.5 1.76757 1.4591 0
M  V30 11889 C 1178.51 0.648502 1.49326 0
M  V30 11890 O 1179.7 0.924932 1.52667 0
M  V30 11891 C 1176.8 1.83938 2.8464 0
M  V30 11892 C 1175.97 3.13683 3.04831 0
M  V30 11893 C 1175.03 3.12007 4.23719 0
M  V30 11894 O 1174.06 3.8578 4.18524 0
M  V30 11895 N 1175.26 2.33366 5.31527 0
M  V30 11896 H 1178.03 2.71778 1.2632 0
M  V30 11897 H 1175.59 1.52355 0.547673 0
M  V30 11898 H 1177.58 1.80285 3.62325 0
M  V30 11899 H 1176.15 0.961675 2.9744 0
M  V30 11900 H 1175.37 3.30576 2.14739 0
M  V30 11901 H 1176.66 3.99412 3.15194 0
M  V30 11902 H 1176.06 1.72954 5.38613 0
M  V30 11903 H 1174.61 2.35524 6.07759 0
M  V30 11904 N 1178.05 -0.61812 1.44973 0
M  V30 11905 C 1178.96 -1.7579 1.55355 0
M  V30 11906 C 1179.97 -1.68384 0.438512 0
M  V30 11907 O 1181.15 -1.88928 0.697715 0
M  V30 11908 C 1178.21 -3.1222 1.50729 0
M  V30 11909 C 1177.27 -3.3116 2.73188 0
M  V30 11910 C 1176.51 -4.61082 2.68774 0
M  V30 11911 O 1176.73 -5.42728 1.75507 0
M  V30 11912 O 1175.66 -4.82506 3.59821 0
M  V30 11913 H 1179.49 -1.69983 2.51674 0
M  V30 11914 H 1177.07 -0.780934 1.27365 0
M  V30 11915 H 1178.96 -3.93524 1.5072 0
M  V30 11916 H 1177.63 -3.18541 0.575587 0
M  V30 11917 H 1176.54 -2.49485 2.78762 0
M  V30 11918 H 1177.87 -3.29709 3.65449 0
M  V30 11919 N 1179.52 -1.32087 -0.859693 0
M  V30 11920 C 1180.75 -1.25348 -1.64607 0
M  V30 11921 C 1181.17 0.179425 -1.87945 0
M  V30 11922 O 1180.52 1.11487 -1.44489 0
M  V30 11923 C 1180.57 -2.0047 -3.00822 0
M  V30 11924 O 1180.3 -3.38169 -2.7852 0
M  V30 11925 C 1181.8 -2.00694 -3.95268 0
M  V30 11926 H 1179.02 -0.432692 -0.512854 0
M  V30 11927 H 1181.56 -1.7413 -1.07234 0
M  V30 11928 H 1179.72 -1.55423 -3.54855 0
M  V30 11929 H 1180.13 -3.76553 -3.65113 0
M  V30 11930 H 1181.6 -2.57748 -4.88129 0
M  V30 11931 H 1182.08 -0.99196 -4.27851 0
M  V30 11932 H 1182.69 -2.45666 -3.47172 0
M  V30 11933 N 1181 1.07532 -1.15215 0
M  V30 11934 C 1182.25 1.8036 -0.927263 0
M  V30 11935 C 1182.58 1.86414 0.544371 0
M  V30 11936 O 1181.86 1.34653 1.40353 0
M  V30 11937 C 1182.14 3.25512 -1.53992 0
M  V30 11938 C 1181.99 3.27614 -3.08203 0
M  V30 11939 C 1183.31 4.22731 -1.22418 0
M  V30 11940 H 1180.43 0.654775 -0.338289 0
M  V30 11941 H 1183.07 1.25842 -1.42351 0
M  V30 11942 H 1181.22 3.72068 -1.11791 0
M  V30 11943 H 1182.89 2.89315 -3.59297 0
M  V30 11944 H 1181.14 2.66627 -3.42188 0
M  V30 11945 H 1181.81 4.29956 -3.46182 0
M  V30 11946 H 1184.28 3.84557 -1.58919 0
M  V30 11947 H 1183.16 5.22589 -1.67906 0
M  V30 11948 H 1183.42 4.41875 -0.14091 0
M  V30 11949 N 1182.48 0.948665 1.2585 0
M  V30 11950 C 1183.41 0.421458 2.25292 0
M  V30 11951 C 1184.43 -0.459389 1.56184 0
M  V30 11952 O 1185.61 -0.268627 1.76467 0
M  V30 11953 C 1182.71 -0.412653 3.36378 0
M  V30 11954 C 1181.89 0.453792 4.3504 0
M  V30 11955 C 1180.95 -0.321127 5.25219 0
M  V30 11956 O 1179.97 0.278424 5.68519 0
M  V30 11957 N 1181.17 -1.61576 5.5756 0
M  V30 11958 H 1183.94 1.27636 2.71162 0
M  V30 11959 H 1181.5 0.818367 1.39694 0
M  V30 11960 H 1183.49 -0.938637 3.93664 0
M  V30 11961 H 1182.06 -1.16839 2.89944 0
M  V30 11962 H 1181.28 1.16093 3.76718 0
M  V30 11963 H 1182.57 1.04538 4.97945 0
M  V30 11964 H 1181.97 -2.12488 5.24276 0
M  V30 11965 H 1180.53 -2.08783 6.17457 0
M  V30 11966 N 1183.96 -1.40369 0.716545 0
M  V30 11967 C 1185.21 -2.00869 0.256466 0
M  V30 11968 C 1185.53 -1.56816 -1.15061 0
M  V30 11969 O 1184.79 -0.779696 -1.79497 0
M  V30 11970 C 1185.09 -3.56257 0.285583 0
M  V30 11971 C 1184.75 -4.19897 1.64309 0
M  V30 11972 C 1183.42 -4.36994 2.01469 0
M  V30 11973 C 1185.77 -4.55385 2.53524 0
M  V30 11974 C 1183.1 -4.86862 3.27387 0
M  V30 11975 C 1185.45 -5.06653 3.78795 0
M  V30 11976 C 1184.11 -5.21959 4.16071 0
M  V30 11977 H 1183.38 -0.735033 0.0938475 0
M  V30 11978 H 1186.03 -1.67966 0.919765 0
M  V30 11979 H 1184.33 -3.89075 -0.461287 0
M  V30 11980 H 1186.03 -4.00903 -0.0882496 0
M  V30 11981 H 1182.62 -4.06978 1.34413 0
M  V30 11982 H 1186.8 -4.41811 2.2609 0
M  V30 11983 H 1182.06 -4.96897 3.56235 0
M  V30 11984 H 1186.23 -5.33089 4.48095 0
M  V30 11985 H 1183.86 -5.60362 5.1371 0
M  V30 11986 N 1185.44 -0.462799 -1.50652 0
M  V30 11987 C 1186.37 0.371837 -2.26164 0
M  V30 11988 C 1187.38 0.96432 -1.31167 0
M  V30 11989 O 1188.57 0.854134 -1.56738 0
M  V30 11990 C 1185.67 1.53469 -3.0216 0
M  V30 11991 C 1184.84 1.0565 -4.24449 0
M  V30 11992 C 1183.9 2.09243 -4.82808 0
M  V30 11993 O 1182.93 1.67641 -5.43953 0
M  V30 11994 N 1184.13 3.41976 -4.69076 0
M  V30 11995 H 1186.9 -0.275476 -2.98431 0
M  V30 11996 H 1184.46 -0.293109 -1.59225 0
M  V30 11997 H 1186.45 2.22446 -3.38083 0
M  V30 11998 H 1185.02 2.08685 -2.32743 0
M  V30 11999 H 1184.24 0.192895 -3.93728 0
M  V30 12000 H 1185.53 0.714796 -5.03754 0
M  V30 12001 H 1184.92 3.78491 -4.20429 0
M  V30 12002 H 1183.48 4.06775 -5.09291 0
M  V30 12003 N 1186.91 1.56388 -0.195085 0
M  V30 12004 C 1188.16 1.96755 0.443901 0
M  V30 12005 C 1188.48 1.08483 1.6276 0
M  V30 12006 O 1189.68 1.38632 2.33438 0
M  V30 12007 C 1188.14 3.49933 0.841139 0
M  V30 12008 C 1187.75 4.46868 -0.318275 0
M  V30 12009 C 1189.49 3.99069 1.44721 0
M  V30 12010 C 1187.4 5.91316 0.0999211 0
M  V30 12011 H 1186.33 0.734674 0.169616 0
M  V30 12012 H 1188.98 1.8124 -0.287101 0
M  V30 12013 H 1187.36 3.60951 1.62881 0
M  V30 12014 H 1188.53 4.47581 -1.0958 0
M  V30 12015 H 1186.85 4.07925 -0.835842 0
M  V30 12016 H 1189.45 5.04465 1.77255 0
M  V30 12017 H 1189.79 3.43376 2.35369 0
M  V30 12018 H 1190.32 3.91165 0.723513 0
M  V30 12019 H 1187.06 6.50934 -0.77237 0
M  V30 12020 H 1186.58 5.93856 0.842304 0
M  V30 12021 H 1188.26 6.44778 0.535726 0
M  V30 12022 N 1188.39 -0.0785156 1.57404 0
M  V30 12023 C 1189.32 -1.12058 1.99939 0
M  V30 12024 C 1190.34 -1.35372 0.904343 0
M  V30 12025 O 1191.53 -1.33731 1.1823 0
M  V30 12026 C 1188.63 -2.47285 2.31739 0
M  V30 12027 C 1187.8 -2.44021 3.63005 0
M  V30 12028 C 1186.86 -3.61303 3.82552 0
M  V30 12029 O 1185.88 -3.43039 4.54217 0
M  V30 12030 N 1187.09 -4.81404 3.24392 0
M  V30 12031 H 1189.85 -0.758416 2.89945 0
M  V30 12032 H 1187.41 -0.267266 1.59679 0
M  V30 12033 H 1189.4 -3.24377 2.41995 0
M  V30 12034 H 1187.97 -2.75529 1.47657 0
M  V30 12035 H 1187.19 -1.52361 3.63565 0
M  V30 12036 H 1188.48 -2.38934 4.49208 0
M  V30 12037 H 1187.88 -4.99147 2.66211 0
M  V30 12038 H 1186.44 -5.56031 3.40107 0
M  V30 12039 N 1189.87 -1.5367 -0.349747 0
M  V30 12040 C 1190.82 -1.77604 -1.42972 0
M  V30 12041 C 1191.8 -0.631036 -1.48009 0
M  V30 12042 O 1193 -0.890228 -1.52983 0
M  V30 12043 C 1190.13 -1.98354 -2.80198 0
M  V30 12044 C 1189.21 -3.18901 -2.79576 0
M  V30 12045 N 1189.6 -4.40497 -2.48589 0
M  V30 12046 C 1187.9 -3.19945 -3.10727 0
M  V30 12047 C 1188.6 -5.22318 -2.56045 0
M  V30 12048 N 1187.58 -4.5889 -2.91412 0
M  V30 12049 H 1191.38 -2.69215 -1.17901 0
M  V30 12050 H 1188.89 -1.5251 -0.558062 0
M  V30 12051 H 1190.89 -2.13632 -3.58004 0
M  V30 12052 H 1189.55 -1.07981 -3.06219 0
M  V30 12053 H 1190.56 -4.67955 -2.21898 0
M  V30 12054 H 1187.24 -2.39519 -3.41961 0
M  V30 12055 H 1188.63 -6.29352 -2.35299 0
M  V30 12056 N 1191.35 0.610423 -1.45298 0
M  V30 12057 C 1192.28 1.73207 -1.56594 0
M  V30 12058 C 1193.26 1.64893 -0.417651 0
M  V30 12059 O 1194.44 1.83336 -0.64043 0
M  V30 12060 C 1191.57 3.11803 -1.52959 0
M  V30 12061 C 1190.53 3.34925 -2.66475 0
M  V30 12062 C 1189.85 4.73764 -2.47894 0
M  V30 12063 C 1191.15 3.25456 -4.08504 0
M  V30 12064 H 1192.85 1.6401 -2.50482 0
M  V30 12065 H 1190.39 0.787621 -1.20551 0
M  V30 12066 H 1192.35 3.90065 -1.59458 0
M  V30 12067 H 1191.07 3.21833 -0.55599 0
M  V30 12068 H 1189.73 2.59051 -2.59399 0
M  V30 12069 H 1189.38 4.80524 -1.4868 0
M  V30 12070 H 1189.08 4.90191 -3.24016 0
M  V30 12071 H 1190.6 5.54231 -2.56243 0
M  V30 12072 H 1192.02 3.93597 -4.16839 0
M  V30 12073 H 1190.41 3.53414 -4.84994 0
M  V30 12074 H 1191.48 2.22939 -4.30612 0
M  V30 12075 N 1192.83 1.32541 0.852676 0
M  V30 12076 C 1194.07 1.22971 1.60383 0
M  V30 12077 C 1194.4 -0.208009 1.93887 0
M  V30 12078 O 1193.67 -1.13326 1.59794 0
M  V30 12079 H 1192.25 0.452149 0.594618 0
M  V30 12080 H 1194.91 1.66089 1.01983 0
M  V30 12081 H 1194 1.81373 2.53989 0
M  V30 12082 N 1194.3 -1.0692 1.15784 0
M  V30 12083 C 1195.27 -2.12407 0.861167 0
M  V30 12084 C 1196.27 -1.6018 -0.141031 0
M  V30 12085 O 1197.46 -1.73972 0.0891192 0
M  V30 12086 C 1194.59 -3.39693 0.286636 0
M  V30 12087 H 1195.78 -2.40157 1.79623 0
M  V30 12088 H 1193.34 -1.22881 0.965916 0
M  V30 12089 H 1194.07 -3.17587 -0.656417 0
M  V30 12090 H 1193.86 -3.78903 1.0087 0
M  V30 12091 H 1195.35 -4.17488 0.0967971 0
M  V30 12092 N 1195.78 -0.955326 -1.25345 0
M  V30 12093 C 1197.06 -0.527828 -1.88344 0
M  V30 12094 C 1197.44 0.994911 -1.86185 0
M  V30 12095 O 1196.79 1.86099 -1.32587 0
M  V30 12096 C 1197 -1.10525 -3.31037 0
M  V30 12097 C 1198.35 -1.18253 -4.07801 0
M  V30 12098 O 1199.37 -1.05685 -3.4016 0
M  V30 12099 O 1198.23 -1.37978 -5.28795 0
M  V30 12100 H 1195.32 -0.174206 -0.808444 0
M  V30 12101 H 1197.87 -1.0488 -1.3341 0
M  V30 12102 H 1196.64 -2.14847 -3.27042 0
M  V30 12103 H 1196.26 -0.567568 -3.93528 0
M  V30 12104 N 1197.26 1.39987 -0.723979 0
M  V30 12105 C 1198.19 2.3332 -0.0917282 0
M  V30 12106 C 1199.17 1.53335 0.736361 0
M  V30 12107 O 1200.36 1.81771 0.683582 0
M  V30 12108 C 1197.49 3.3737 0.824549 0
M  V30 12109 C 1196.44 4.2788 0.101452 0
M  V30 12110 C 1195.77 5.22536 1.13401 0
M  V30 12111 C 1197.07 5.11649 -1.04939 0
M  V30 12112 H 1198.76 2.86441 -0.871318 0
M  V30 12113 H 1196.31 1.37725 -0.420448 0
M  V30 12114 H 1198.26 4.01607 1.27631 0
M  V30 12115 H 1196.98 2.82663 1.63613 0
M  V30 12116 H 1195.64 3.65107 -0.330569 0
M  V30 12117 H 1195.29 4.64131 1.93886 0
M  V30 12118 H 1194.99 5.83938 0.65502 0
M  V30 12119 H 1196.52 5.89651 1.58569 0
M  V30 12120 H 1197.93 5.69293 -0.6766 0
M  V30 12121 H 1196.33 5.82137 -1.45729 0
M  V30 12122 H 1197.4 4.47132 -1.8762 0
M  V30 12123 N 1198.74 0.470782 1.50404 0
M  V30 12124 C 1199.69 -0.342183 2.25418 0
M  V30 12125 C 1200.67 -0.961726 1.28995 0
M  V30 12126 O 1201.87 -0.874327 1.53898 0
M  V30 12127 C 1198.99 -1.42378 3.12383 0
M  V30 12128 C 1198.08 -0.811982 4.16254 0
M  V30 12129 N 1198.47 0.0675245 5.05755 0
M  V30 12130 C 1196.77 -1.07596 4.32827 0
M  V30 12131 C 1197.47 0.414693 5.8022 0
M  V30 12132 N 1196.45 -0.210047 5.43194 0
M  V30 12133 H 1200.25 0.335344 2.91981 0
M  V30 12134 H 1197.76 0.284911 1.59881 0
M  V30 12135 H 1199.76 -2.01936 3.64729 0
M  V30 12136 H 1198.42 -2.1033 2.47369 0
M  V30 12137 H 1199.43 0.436333 5.16059 0
M  V30 12138 H 1196.11 -1.75048 3.79031 0
M  V30 12139 H 1197.5 1.13243 6.62288 0
M  V30 12140 N 1200.22 -1.56282 0.203376 0
M  V30 12141 C 1201.63 -1.84146 -0.307752 0
M  V30 12142 C 1201.98 -1.12429 -1.60792 0
M  V30 12143 O 1201.1 -0.387852 -2.12896 0
M  V30 12144 C 1201.7 -3.34053 -0.565152 0
M  V30 12145 C 1200.26 -3.62298 -1.02063 0
M  V30 12146 C 1199.41 -2.77202 -0.0737343 0
M  V30 12147 H 1202.36 -1.52848 0.426983 0
M  V30 12148 H 1202.38 -3.53273 -1.41345 0
M  V30 12149 H 1201.89 -3.86222 0.381301 0
M  V30 12150 H 1199.99 -3.1557 -1.98107 0
M  V30 12151 H 1200.1 -4.70424 -0.907614 0
M  V30 12152 H 1198.47 -2.48074 -0.577169 0
M  V30 12153 H 1199.25 -3.32164 0.86731 0
M  V30 12154 N 1201.7 0.070167 -1.57444 0
M  V30 12155 C 1202.94 0.767495 -1.8696 0
M  V30 12156 C 1203.26 1.78032 -0.795595 0
M  V30 12157 O 1202.53 1.95112 0.175566 0
M  V30 12158 H 1201.11 0.286443 -0.689898 0
M  V30 12159 H 1203.78 0.0458692 -1.94846 0
M  V30 12160 H 1202.87 1.28269 -2.84523 0
M  V30 12161 N 1203.17 1.53854 0.341593 0
M  V30 12162 C 1204.45 1.61823 1.09875 0
M  V30 12163 C 1204.83 0.440711 2.06448 0
M  V30 12164 O 1204.18 -0.566833 2.21358 0
M  V30 12165 C 1204.39 2.9799 1.81668 0
M  V30 12166 C 1205.74 3.53411 2.35341 0
M  V30 12167 O 1206.76 3.00177 1.91761 0
M  V30 12168 O 1205.62 4.4653 3.15076 0
M  V30 12169 H 1202.71 0.654599 0.5054 0
M  V30 12170 H 1205.26 1.66199 0.342929 0
M  V30 12171 H 1204.03 3.7513 1.11323 0
M  V30 12172 H 1203.65 2.97213 2.64103 0
M  V30 12173 N 1204.65 -0.602709 1.4562 0
M  V30 12174 C 1205.9 -1.36359 1.50113 0
M  V30 12175 C 1206.23 -1.93663 0.144297 0
M  V30 12176 O 1205.51 -1.75337 -0.841851 0
M  V30 12177 C 1205.79 -2.50788 2.58413 0
M  V30 12178 C 1205.64 -1.98649 4.03557 0
M  V30 12179 C 1206.96 -3.52905 2.62957 0
M  V30 12180 H 1204.08 -0.494455 0.54652 0
M  V30 12181 H 1206.72 -0.678957 1.77455 0
M  V30 12182 H 1204.87 -3.09191 2.3523 0
M  V30 12183 H 1206.54 -1.44857 4.37966 0
M  V30 12184 H 1204.79 -1.29615 4.13984 0
M  V30 12185 H 1205.46 -2.81159 4.7503 0
M  V30 12186 H 1207.93 -3.0435 2.83743 0
M  V30 12187 H 1206.81 -4.30454 3.40589 0
M  V30 12188 H 1207.07 -4.0884 1.68233 0
M  V30 12189 N 1206.13 -1.32992 -0.845635 0
M  V30 12190 C 1207.06 -1.25301 -1.97033 0
M  V30 12191 C 1208.04 -0.134966 -1.69564 0
M  V30 12192 O 1209.23 -0.323629 -1.91484 0
M  V30 12193 C 1206.36 -0.984551 -3.33052 0
M  V30 12194 C 1205.31 -2.06481 -3.749 0
M  V30 12195 C 1204.64 -1.6486 -5.08651 0
M  V30 12196 C 1205.94 -3.48083 -3.89404 0
M  V30 12197 H 1207.63 -2.194 -2.03725 0
M  V30 12198 H 1205.18 -1.05621 -0.978783 0
M  V30 12199 H 1207.13 -0.917269 -4.11296 0
M  V30 12200 H 1205.85 -0.00793116 -3.26599 0
M  V30 12201 H 1204.51 -2.1224 -2.98915 0
M  V30 12202 H 1204.16 -0.659183 -4.98662 0
M  V30 12203 H 1203.86 -2.37145 -5.37621 0
M  V30 12204 H 1205.38 -1.59585 -5.89377 0
M  V30 12205 H 1206.8 -3.44863 -4.57976 0
M  V30 12206 H 1205.19 -4.18796 -4.29802 0
M  V30 12207 H 1206.26 -3.87084 -2.92051 0
M  V30 12208 N 1207.61 1.06304 -1.1635 0
M  V30 12209 C 1208.54 2.15745 -0.893103 0
M  V30 12210 C 1209.52 1.69341 0.160531 0
M  V30 12211 O 1210.7 1.94196 0.0126526 0
M  V30 12212 C 1207.83 3.45066 -0.393287 0
M  V30 12213 C 1206.79 4.04978 -1.38482 0
M  V30 12214 C 1206.11 5.29507 -0.743409 0
M  V30 12215 C 1207.41 4.4377 -2.75438 0
M  V30 12216 H 1209.11 2.38622 -1.80831 0
M  V30 12217 H 1206.65 1.14681 -0.870878 0
M  V30 12218 H 1208.61 4.20964 -0.191607 0
M  V30 12219 H 1207.33 3.21808 0.557426 0
M  V30 12220 H 1205.99 3.31136 -1.57304 0
M  V30 12221 H 1205.64 5.02545 0.213787 0
M  V30 12222 H 1205.34 5.7055 -1.40521 0
M  V30 12223 H 1206.86 6.08102 -0.551746 0
M  V30 12224 H 1208.28 5.1075 -2.60398 0
M  V30 12225 H 1206.67 4.95797 -3.38091 0
M  V30 12226 H 1207.74 3.54636 -3.30699 0
M  V30 12227 N 1209.09 0.96196 1.24836 0
M  V30 12228 C 1210.31 0.637709 1.97353 0
M  V30 12229 C 1210.74 -0.784919 1.7094 0
M  V30 12230 O 1210.09 -1.53188 0.969694 0
M  V30 12231 C 1210.14 0.911485 3.4889 0
M  V30 12232 O 1209.25 -0.00601668 4.124 0
M  V30 12233 H 1208.59 0.241685 0.618453 0
M  V30 12234 H 1211.12 1.29055 1.58764 0
M  V30 12235 H 1211.13 0.840702 3.99245 0
M  V30 12236 H 1209.8 1.9483 3.67442 0
M  V30 12237 H 1208.38 0.117597 3.72715 0
M  V30 12238 N 1210.56 -1.39601 0.731392 0
M  V30 12239 C 1211.51 -2.32469 0.0781328 0
M  V30 12240 C 1212.51 -1.52873 -0.729811 0
M  V30 12241 O 1213.71 -1.68563 -0.631402 0
M  V30 12242 H 1210.09 -0.751972 0.00646515 0
M  V30 12243 H 1212.06 -2.85196 0.877833 0
M  V30 12244 C 1210.81 -3.37948 -0.817717 0
M  V30 12245 H 1210.13 -3.99272 -0.205417 0
M  V30 12246 H 1211.57 -4.05387 -1.24248 0
M  V30 12247 C 1210.03 -2.74703 -1.95038 0
M  V30 12248 O 1210.56 -2.62266 -3.04269 0
M  V30 12249 N 1208.76 -2.32845 -1.73872 0
M  V30 12250 H 1208.31 -2.43161 -0.850321 0
M  V30 12251 H 1208.27 -1.90869 -2.49833 0
M  V30 12252 N 1212.04 -0.478751 -1.50152 0
M  V30 12253 C 1212.99 0.330224 -2.25596 0
M  V30 12254 C 1213.98 0.954871 -1.29503 0
M  V30 12255 O 1215.17 0.866153 -1.54359 0
M  V30 12256 C 1212.3 1.40719 -3.13134 0
M  V30 12257 C 1211.38 0.789896 -4.16679 0
M  V30 12258 N 1211.77 -0.094345 -5.05712 0
M  V30 12259 C 1210.07 1.05299 -4.33391 0
M  V30 12260 C 1210.77 -0.445458 -5.79992 0
M  V30 12261 N 1209.75 0.181237 -5.43298 0
M  V30 12262 H 1213.55 -0.350824 -2.91799 0
M  V30 12263 H 1211.07 -0.293386 -1.59728 0
M  V30 12264 H 1213.06 1.99999 -3.65795 0
M  V30 12265 H 1211.72 2.09015 -2.48481 0
M  V30 12266 H 1212.73 -0.463695 -5.1582 0
M  V30 12267 H 1209.41 1.73036 -3.79954 0
M  V30 12268 H 1210.8 -1.16754 -6.61678 0
M  V30 12269 N 1213.52 1.56172 -0.211661 0
M  V30 12270 C 1214.93 1.84307 0.297982 0
M  V30 12271 C 1215.28 1.1328 1.60194 0
M  V30 12272 O 1214.41 0.399137 2.12687 0
M  V30 12273 C 1215 3.34348 0.547428 0
M  V30 12274 C 1213.56 3.62835 1.0014 0
M  V30 12275 C 1212.71 2.77237 0.0590326 0
M  V30 12276 H 1215.66 1.5262 -0.435083 0
M  V30 12277 H 1215.68 3.54018 1.39469 0
M  V30 12278 H 1215.19 3.86015 -0.401778 0
M  V30 12279 H 1213.29 3.16616 1.96431 0
M  V30 12280 H 1213.41 4.70899 0.882653 0
M  V30 12281 H 1211.77 2.48377 0.564005 0
M  V30 12282 H 1212.55 3.31699 -0.884913 0
M  V30 12283 N 1215 -0.0618163 1.57479 0
M  V30 12284 C 1216.22 -0.775513 1.92355 0
M  V30 12285 C 1216.65 -1.69816 0.808949 0
M  V30 12286 O 1216.01 -1.79736 -0.23761 0
M  V30 12287 C 1216.05 -1.5367 3.26218 0
M  V30 12288 O 1215.16 -2.64802 3.16155 0
M  V30 12289 H 1214.5 -0.210909 0.629614 0
M  V30 12290 H 1217.03 -0.0270752 2.04582 0
M  V30 12291 H 1217.04 -1.91379 3.6033 0
M  V30 12292 H 1215.71 -0.859798 4.06916 0
M  V30 12293 H 1214.29 -2.29876 2.93618 0
M  V30 12294 N 1216.48 -1.54033 -0.333429 0
M  V30 12295 C 1217.44 -1.82021 -1.39288 0
M  V30 12296 C 1218.44 -0.691623 -1.45166 0
M  V30 12297 O 1219.63 -0.959925 -1.45365 0
M  V30 12298 C 1216.76 -1.97136 -2.78119 0
M  V30 12299 H 1217.95 -2.76671 -1.1573 0
M  V30 12300 H 1215.51 -1.45599 -0.568376 0
M  V30 12301 H 1216.24 -1.04663 -3.06946 0
M  V30 12302 H 1216.03 -2.79251 -2.75247 0
M  V30 12303 H 1217.52 -2.20271 -3.54782 0
M  V30 12304 N 1217.95 0.594978 -1.45938 0
M  V30 12305 C 1219.2 1.35093 -1.50314 0
M  V30 12306 C 1219.52 1.94412 -0.151315 0
M  V30 12307 O 1218.79 1.77876 0.820787 0
M  V30 12308 H 1217.37 0.501549 -0.553586 0
M  V30 12309 H 1220.04 0.697735 -1.81983 0
M  V30 12310 H 1219.13 2.16393 -2.24901 0
M  V30 12311 N 1219.43 1.33438 0.838571 0
M  V30 12312 C 1220.68 1.24665 1.59069 0
M  V30 12313 C 1221 -0.187433 1.94097 0
M  V30 12314 O 1220.27 -1.11625 1.60987 0
M  V30 12315 H 1218.85 0.45843 0.589789 0
M  V30 12316 H 1221.51 1.67161 1.00216 0
M  V30 12317 H 1220.61 1.84057 2.52051 0
M  V30 12318 N 1220.91 -1.05686 1.16912 0
M  V30 12319 C 1222.14 -1.82821 0.979348 0
M  V30 12320 C 1222.56 -1.82196 -0.467575 0
M  V30 12321 O 1221.92 -1.22727 -1.33445 0
M  V30 12322 C 1221.97 -3.2705 1.51891 0
M  V30 12323 O 1221.07 -4.05899 0.729341 0
M  V30 12324 H 1220.41 -0.565455 0.348076 0
M  V30 12325 H 1222.94 -1.33211 1.55293 0
M  V30 12326 H 1222.95 -3.77859 1.53904 0
M  V30 12327 H 1221.63 -3.26819 2.5722 0
M  V30 12328 H 1220.2 -3.64646 0.780221 0
M  V30 12329 N 1222.39 -0.968567 -1.24324 0
M  V30 12330 C 1223.34 -0.470481 -2.23093 0
M  V30 12331 C 1224.32 0.447989 -1.54538 0
M  V30 12332 O 1225.51 0.27877 -1.74791 0
M  V30 12333 C 1222.64 0.237222 -3.42479 0
M  V30 12334 C 1221.73 -0.700126 -4.18281 0
M  V30 12335 N 1222.12 -1.83775 -4.71233 0
M  V30 12336 C 1220.42 -0.51108 -4.43062 0
M  V30 12337 C 1221.12 -2.42411 -5.28783 0
M  V30 12338 N 1220.1 -1.70918 -5.16031 0
M  V30 12339 H 1223.9 -1.33848 -2.61652 0
M  V30 12340 H 1221.41 -0.827764 -1.39721 0
M  V30 12341 H 1223.41 0.61128 -4.12394 0
M  V30 12342 H 1222.07 1.10166 -3.0544 0
M  V30 12343 H 1223.08 -2.21926 -4.67942 0
M  V30 12344 H 1219.76 0.309316 -4.16353 0
M  V30 12345 H 1221.15 -3.38417 -5.80451 0
M  V30 12346 N 1223.87 1.39211 -0.738786 0
M  V30 12347 C 1224.8 2.33209 -0.11647 0
M  V30 12348 C 1225.78 1.54108 0.720056 0
M  V30 12349 O 1226.96 1.82486 0.664264 0
M  V30 12350 C 1224.09 3.38226 0.78872 0
M  V30 12351 C 1223.05 4.27963 0.0560636 0
M  V30 12352 C 1222.37 5.2371 1.07852 0
M  V30 12353 C 1223.67 5.10508 -1.1036 0
M  V30 12354 H 1225.37 2.85501 -0.901649 0
M  V30 12355 H 1222.91 1.37272 -0.435032 0
M  V30 12356 H 1224.87 4.02938 1.23364 0
M  V30 12357 H 1223.59 2.84382 1.60606 0
M  V30 12358 H 1222.25 3.64735 -0.369274 0
M  V30 12359 H 1221.9 4.66161 1.88953 0
M  V30 12360 H 1221.6 5.846 0.593048 0
M  V30 12361 H 1223.12 5.91299 1.52307 0
M  V30 12362 H 1224.53 5.68544 -0.736943 0
M  V30 12363 H 1222.93 5.80558 -1.51895 0
M  V30 12364 H 1224 4.45117 -1.92352 0
M  V30 12365 N 1225.34 0.486708 1.49896 0
M  V30 12366 C 1226.76 0.0353906 1.86666 0
M  V30 12367 C 1227.11 -1.3743 1.40026 0
M  V30 12368 O 1226.23 -2.02163 0.77194 0
M  V30 12369 C 1226.83 0.0574475 3.38751 0
M  V30 12370 C 1225.39 -0.338464 3.74875 0
M  V30 12371 C 1224.53 0.436196 2.73848 0
M  V30 12372 H 1227.48 0.700215 1.42417 0
M  V30 12373 H 1227.5 -0.741175 3.73212 0
M  V30 12374 H 1227.02 1.08356 3.72667 0
M  V30 12375 H 1225.12 -1.36835 3.46565 0
M  V30 12376 H 1225.23 -0.0289519 4.79091 0
M  V30 12377 H 1223.59 -0.112141 2.54453 0
M  V30 12378 H 1224.38 1.46212 3.10608 0
M  V30 12379 N 1226.82 -1.56058 0.219941 0
M  V30 12380 C 1228.1 -1.90087 -0.46112 0
M  V30 12381 C 1228.48 -1.13705 -1.77861 0
M  V30 12382 O 1227.83 -0.245868 -2.27173 0
M  V30 12383 C 1228.04 -3.42786 -0.655644 0
M  V30 12384 C 1229.39 -4.13517 -0.963803 0
M  V30 12385 O 1230.41 -3.48376 -0.742488 0
M  V30 12386 O 1229.27 -5.28692 -1.38374 0
M  V30 12387 H 1226.36 -0.790311 -0.243595 0
M  V30 12388 H 1228.91 -1.67665 0.262005 0
M  V30 12389 H 1227.68 -3.90341 0.273738 0
M  V30 12390 H 1227.3 -3.70982 -1.43032 0
M  V30 12391 N 1228.3 0.053464 -1.57509 0
M  V30 12392 C 1229.23 1.06151 -2.07977 0
M  V30 12393 C 1230.21 1.3924 -0.977047 0
M  V30 12394 O 1231.4 1.48549 -1.25087 0
M  V30 12395 C 1228.53 2.36969 -2.53895 0
M  V30 12396 C 1227.48 2.18186 -3.6821 0
M  V30 12397 C 1226.81 3.54551 -4.00247 0
M  V30 12398 C 1228.11 1.588 -4.97574 0
M  V30 12399 H 1229.8 0.641483 -2.92447 0
M  V30 12400 H 1227.35 0.307122 -1.40687 0
M  V30 12401 H 1229.3 3.07797 -2.87817 0
M  V30 12402 H 1228.02 2.80986 -1.66476 0
M  V30 12403 H 1226.68 1.49796 -3.34599 0
M  V30 12404 H 1226.33 3.96171 -3.09932 0
M  V30 12405 H 1226.03 3.42816 -4.77232 0
M  V30 12406 H 1227.56 4.2678 -4.36682 0
M  V30 12407 H 1228.97 2.19515 -5.29609 0
M  V30 12408 H 1227.37 1.57711 -5.79006 0
M  V30 12409 H 1228.44 0.551254 -4.81756 0
M  V30 12410 N 1229.78 1.54207 0.325255 0
M  V30 12411 C 1231.01 1.76293 1.08298 0
M  V30 12412 C 1231.42 0.510722 1.81761 0
M  V30 12413 O 1230.78 -0.5185 1.7498 0
M  V30 12414 C 1230.83 2.95498 2.08238 0
M  V30 12415 O 1230.55 4.15877 1.37759 0
M  V30 12416 C 1232.05 3.29781 2.96242 0
M  V30 12417 H 1229.27 0.588576 0.322209 0
M  V30 12418 H 1231.82 2.0109 0.371896 0
M  V30 12419 H 1229.97 2.72979 2.74884 0
M  V30 12420 H 1230.39 4.82918 2.04672 0
M  V30 12421 H 1231.86 4.16495 3.62265 0
M  V30 12422 H 1232.34 2.46874 3.63249 0
M  V30 12423 H 1232.94 3.54372 2.3516 0
M  V30 12424 N 1231.26 -0.58723 1.46251 0
M  V30 12425 C 1232.5 -1.3476 1.51551 0
M  V30 12426 C 1232.84 -1.93499 0.16483 0
M  V30 12427 O 1232.11 -1.7622 -0.823207 0
M  V30 12428 C 1232.39 -2.48033 2.61059 0
M  V30 12429 C 1232.25 -1.94358 4.05642 0
M  V30 12430 C 1233.57 -3.50096 2.66685 0
M  V30 12431 H 1230.69 -0.48863 0.551733 0
M  V30 12432 H 1233.33 -0.660097 1.78165 0
M  V30 12433 H 1231.48 -3.06679 2.38496 0
M  V30 12434 H 1233.15 -1.40204 4.39478 0
M  V30 12435 H 1231.39 -1.25217 4.15335 0
M  V30 12436 H 1232.06 -2.76105 4.77986 0
M  V30 12437 H 1234.54 -3.01324 2.86955 0
M  V30 12438 H 1233.42 -4.26817 3.45135 0
M  V30 12439 H 1233.68 -4.07032 1.7256 0
M  V30 12440 N 1232.74 -1.33881 -0.831482 0
M  V30 12441 C 1233.98 -1.251 -1.58218 0
M  V30 12442 C 1234.3 0.17963 -1.94773 0
M  V30 12443 O 1235.5 0.389516 -2.68691 0
M  V30 12444 C 1233.96 -2.19246 -2.8541 0
M  V30 12445 C 1233.57 -3.6752 -2.5619 0
M  V30 12446 C 1235.31 -2.19355 -3.63433 0
M  V30 12447 C 1233.22 -4.53559 -3.79523 0
M  V30 12448 H 1232.15 -0.46469 -0.593784 0
M  V30 12449 H 1234.8 -1.58992 -0.916169 0
M  V30 12450 H 1233.18 -1.78295 -3.53591 0
M  V30 12451 H 1234.36 -4.16956 -1.96173 0
M  V30 12452 H 1232.67 -3.69774 -1.91458 0
M  V30 12453 H 1235.27 -2.80863 -4.54995 0
M  V30 12454 H 1235.61 -1.19056 -3.98913 0
M  V30 12455 H 1236.14 -2.58706 -3.02185 0
M  V30 12456 H 1232.88 -5.54762 -3.4917 0
M  V30 12457 H 1232.4 -4.08862 -4.38853 0
M  V30 12458 H 1234.08 -4.67736 -4.47025 0
M  V30 12459 N 1234.21 1.05064 -1.1747 0
M  V30 12460 C 1235.44 1.81761 -0.988464 0
M  V30 12461 C 1235.86 1.83028 0.463272 0
M  V30 12462 O 1235.21 1.25846 1.32171 0
M  V30 12463 C 1235.26 3.2782 -1.5237 0
M  V30 12464 O 1234.99 3.26726 -2.91859 0
M  V30 12465 C 1236.49 4.212 -1.38223 0
M  V30 12466 H 1233.71 0.572712 -0.349631 0
M  V30 12467 H 1236.25 1.32477 -1.55789 0
M  V30 12468 H 1234.41 3.7437 -0.996272 0
M  V30 12469 H 1234.82 4.18151 -3.16623 0
M  V30 12470 H 1236.29 5.2166 -1.80485 0
M  V30 12471 H 1236.77 4.37962 -0.329491 0
M  V30 12472 H 1237.38 3.80506 -1.89988 0
M  V30 12473 N 1235.69 0.975146 1.23809 0
M  V30 12474 C 1237.1 0.678873 1.7392 0
M  V30 12475 C 1237.45 -0.805133 1.78919 0
M  V30 12476 O 1236.58 -1.62984 1.42356 0
M  V30 12477 C 1237.17 1.22562 3.15854 0
M  V30 12478 C 1235.73 0.979096 3.63443 0
M  V30 12479 C 1234.88 1.35649 2.41857 0
M  V30 12480 H 1237.83 1.14961 1.09406 0
M  V30 12481 H 1237.85 0.595489 3.75811 0
M  V30 12482 H 1237.36 2.30571 3.12184 0
M  V30 12483 H 1235.46 -0.0851407 3.72503 0
M  V30 12484 H 1235.58 1.62998 4.5052 0
M  V30 12485 H 1233.94 0.774916 2.42626 0
M  V30 12486 H 1234.72 2.44624 2.40861 0
M  V30 12487 N 1237.17 -1.38817 0.746158 0
M  V30 12488 C 1238.42 -2.00577 0.299458 0
M  V30 12489 C 1238.75 -1.59087 -1.11378 0
M  V30 12490 O 1238.02 -0.824932 -1.7614 0
M  V30 12491 C 1238.31 -3.57713 0.413932 0
M  V30 12492 C 1238.16 -4.09189 1.86774 0
M  V30 12493 C 1239.48 -4.39659 -0.197082 0
M  V30 12494 H 1236.6 -0.728702 0.110285 0
M  V30 12495 H 1239.24 -1.64866 0.944408 0
M  V30 12496 H 1237.39 -3.88265 -0.135155 0
M  V30 12497 H 1239.06 -3.89311 2.47456 0
M  V30 12498 H 1237.3 -3.62333 2.38532 0
M  V30 12499 H 1237.98 -5.18305 1.89904 0
M  V30 12500 H 1240.45 -4.15216 0.271121 0
M  V30 12501 H 1239.33 -5.48832 -0.0867011 0
M  V30 12502 H 1239.59 -4.23028 -1.2845 0
M  V30 12503 N 1238.65 -0.49465 -1.49636 0
M  V30 12504 C 1239.89 0.0521172 -2.02433 0
M  V30 12505 C 1240.22 1.37579 -1.37485 0
M  V30 12506 O 1239.48 1.8927 -0.497538 0
M  V30 12507 C 1239.78 0.259743 -3.56455 0
M  V30 12508 C 1239.44 -0.985143 -4.40007 0
M  V30 12509 C 1238.1 -1.3264 -4.62558 0
M  V30 12510 C 1240.46 -1.81291 -4.88654 0
M  V30 12511 C 1237.78 -2.49506 -5.31003 0
M  V30 12512 C 1240.14 -2.97305 -5.58384 0
M  V30 12513 C 1238.8 -3.31818 -5.79183 0
M  V30 12514 H 1238.07 0.0190711 -0.740755 0
M  V30 12515 H 1240.72 -0.653519 -1.80004 0
M  V30 12516 H 1239.02 1.04785 -3.77528 0
M  V30 12517 H 1240.72 0.697146 -3.94893 0
M  V30 12518 H 1237.31 -0.709313 -4.2269 0
M  V30 12519 H 1241.49 -1.56242 -4.71065 0
M  V30 12520 H 1236.75 -2.76491 -5.4531 0
M  V30 12521 H 1240.92 -3.61777 -5.95055 0
M  V30 12522 H 1238.55 -4.22478 -6.31994 0
M  V30 12523 N 1240.13 1.55939 -0.228214 0
M  V30 12524 C 1241.37 1.99518 0.395485 0
M  V30 12525 C 1241.73 1.11339 1.56912 0
M  V30 12526 O 1241.02 0.164788 1.9089 0
M  V30 12527 C 1241.21 3.46581 0.872732 0
M  V30 12528 C 1241.04 4.48987 -0.253122 0
M  V30 12529 C 1239.81 5.0012 -0.721702 0
M  V30 12530 C 1242.01 5.02967 -1.0737 0
M  V30 12531 N 1239.99 5.86242 -1.82192 0
M  V30 12532 C 1241.36 5.86079 -2.02265 0
M  V30 12533 C 1243.42 4.85315 -1.11238 0
M  V30 12534 C 1242.12 6.53424 -3.00716 0
M  V30 12535 C 1244.15 5.53423 -2.0851 0
M  V30 12536 C 1243.51 6.36308 -3.02144 0
M  V30 12537 H 1239.61 0.774053 0.1112 0
M  V30 12538 H 1242.19 1.91681 -0.341512 0
M  V30 12539 H 1240.36 3.54852 1.57907 0
M  V30 12540 H 1242.1 3.77066 1.46981 0
M  V30 12541 H 1238.85 4.7259 -0.309119 0
M  V30 12542 H 1239.27 6.34003 -2.37423 0
M  V30 12543 H 1243.92 4.20881 -0.402389 0
M  V30 12544 H 1241.63 7.17035 -3.72674 0
M  V30 12545 H 1245.22 5.41727 -2.12186 0
M  V30 12546 H 1244.1 6.88081 -3.76183 0
M  V30 12547 N 1241.6 -0.0451101 1.57535 0
M  V30 12548 C 1243.02 -0.59372 1.77008 0
M  V30 12549 C 1243.37 -1.76482 0.857233 0
M  V30 12550 O 1242.49 -2.16347 0.0479703 0
M  V30 12551 C 1243.09 -1.08383 3.20996 0
M  V30 12552 C 1241.65 -1.57808 3.41721 0
M  V30 12553 C 1240.79 -0.509067 2.72587 0
M  V30 12554 H 1243.74 0.181114 1.57663 0
M  V30 12555 H 1243.76 -1.95181 3.26626 0
M  V30 12556 H 1243.28 -0.231276 3.8741 0
M  V30 12557 H 1241.38 -2.45302 2.8046 0
M  V30 12558 H 1241.49 -1.63664 4.50279 0
M  V30 12559 H 1239.85 -0.960389 2.359 0
M  V30 12560 H 1240.64 0.333753 3.41674 0
M  V30 12561 N 1243.08 -1.54377 -0.317073 0
M  V30 12562 C 1244.33 -1.72551 -1.05216 0
M  V30 12563 C 1244.65 -0.5055 -1.88334 0
M  V30 12564 O 1243.92 0.480439 -1.89917 0
M  V30 12565 H 1242.5 -0.636222 -0.391447 0
M  V30 12566 H 1245.16 -1.91696 -0.35194 0
M  V30 12567 H 1244.26 -2.60791 -1.71448 0
M  V30 12568 N 1244.56 0.579466 -1.4656 0
M  V30 12569 C 1245.49 1.70291 -1.53406 0
M  V30 12570 C 1246.51 1.57232 -0.422116 0
M  V30 12571 O 1247.69 1.64598 -0.69064 0
M  V30 12572 C 1244.79 3.08572 -1.40131 0
M  V30 12573 C 1243.97 3.47602 -2.65502 0
M  V30 12574 C 1243.03 4.64955 -2.4638 0
M  V30 12575 O 1242.05 4.70653 -3.20116 0
M  V30 12576 N 1243.25 5.60041 -1.52756 0
M  V30 12577 H 1246.02 1.64873 -2.50274 0
M  V30 12578 H 1243.58 0.765533 -1.42658 0
M  V30 12579 H 1245.57 3.84877 -1.25106 0
M  V30 12580 H 1244.14 3.0834 -0.514322 0
M  V30 12581 H 1243.36 2.60969 -2.95446 0
M  V30 12582 H 1244.65 3.70446 -3.48779 0
M  V30 12583 H 1244.05 5.58176 -0.919587 0
M  V30 12584 H 1242.61 6.35764 -1.43693 0
M  V30 12585 N 1246.04 1.3432 0.824371 0
M  V30 12586 C 1247.27 1.29669 1.61226 0
M  V30 12587 C 1247.68 -0.129532 1.88355 0
M  V30 12588 O 1247.04 -1.07616 1.47394 0
M  V30 12589 C 1247.09 2.08375 2.95402 0
M  V30 12590 O 1246.81 3.45434 2.69456 0
M  V30 12591 C 1248.31 2.11103 3.89808 0
M  V30 12592 H 1245.53 0.446137 0.501201 0
M  V30 12593 H 1248.08 1.76912 1.02579 0
M  V30 12594 H 1246.23 1.64777 3.5061 0
M  V30 12595 H 1246.64 3.86101 3.55001 0
M  V30 12596 H 1248.12 2.706 4.81124 0
M  V30 12597 H 1248.6 1.10505 4.25071 0
M  V30 12598 H 1249.2 2.54784 3.40537 0
M  V30 12599 N 1247.52 -1.0444 1.18026 0
M  V30 12600 C 1248.93 -1.29766 0.929143 0
M  V30 12601 C 1249.13 -1.97338 -0.407436 0
M  V30 12602 O 1248.19 -2.25166 -1.14265 0
M  V30 12603 C 1249.5 -2.16002 2.09197 0
M  V30 12604 C 1251.05 -2.29361 2.12985 0
M  V30 12605 C 1251.52 -3.18962 3.28675 0
M  V30 12606 N 1253.02 -3.26549 3.28512 0
M  V30 12607 C 1253.75 -3.96025 4.14671 0
M  V30 12608 N 1253.25 -4.67863 5.10956 0
M  V30 12609 N 1255.04 -3.92266 4.02597 0
M  V30 12610 H 1247.19 -0.58984 2.04046 0
M  V30 12611 H 1249.45 -0.322752 0.891367 0
M  V30 12612 H 1249.16 -1.73653 3.05839 0
M  V30 12613 H 1249.03 -3.16667 2.04943 0
M  V30 12614 H 1251.42 -2.70948 1.16924 0
M  V30 12615 H 1251.5 -1.28299 2.21298 0
M  V30 12616 H 1251.15 -2.78087 4.25006 0
M  V30 12617 H 1251.08 -4.20047 3.17598 0
M  V30 12618 H 1253.57 -2.75371 2.58804 0
M  V30 12619 H 1253.88 -5.1846 5.73079 0
M  V30 12620 H 1252.22 -4.6678 5.14919 0
M  V30 12621 H 1255.42 -3.35273 3.26665 0
M  V30 12622 H 1255.59 -4.4614 4.69961 0
M  V30 12623 N 1248.99 -0.981699 -1.2329 0
M  V30 12624 C 1250.41 -0.688087 -1.73558 0
M  V30 12625 C 1250.76 0.795633 -1.79344 0
M  V30 12626 O 1249.88 1.62227 -1.43218 0
M  V30 12627 C 1250.48 -1.24235 -3.152 0
M  V30 12628 C 1249.04 -0.998356 -3.62918 0
M  V30 12629 C 1248.18 -1.3693 -2.41134 0
M  V30 12630 H 1251.13 -1.15539 -1.08795 0
M  V30 12631 H 1251.15 -0.61541 -3.7549 0
M  V30 12632 H 1250.67 -2.32223 -3.10957 0
M  V30 12633 H 1248.77 0.0653847 -3.72543 0
M  V30 12634 H 1248.88 -1.65385 -4.49649 0
M  V30 12635 H 1247.24 -0.787773 -2.42211 0
M  V30 12636 H 1248.03 -2.45898 -2.39561 0
M  V30 12637 N 1250.47 1.3842 -0.753509 0
M  V30 12638 C 1251.72 2.00415 -0.310091 0
M  V30 12639 C 1252.05 1.59675 1.10532 0
M  V30 12640 O 1251.33 0.834261 1.757 0
M  V30 12641 C 1251.61 3.57488 -0.432897 0
M  V30 12642 C 1251.46 4.08193 -1.88941 0
M  V30 12643 C 1252.78 4.39757 0.173763 0
M  V30 12644 H 1249.9 0.728107 -0.114147 0
M  V30 12645 H 1252.54 1.64363 -0.953138 0
M  V30 12646 H 1250.69 3.88331 0.114563 0
M  V30 12647 H 1252.36 3.87993 -2.49517 0
M  V30 12648 H 1250.61 3.61063 -2.4045 0
M  V30 12649 H 1251.28 5.17291 -1.9265 0
M  V30 12650 H 1253.75 4.15066 -0.293137 0
M  V30 12651 H 1252.63 5.4887 0.057594 0
M  V30 12652 H 1252.89 4.23704 1.26205 0
M  V30 12653 N 1251.95 0.502579 1.49372 0
M  V30 12654 C 1253.2 -0.041381 2.02458 0
M  V30 12655 C 1253.53 -1.36848 1.38213 0
M  V30 12656 O 1252.78 -1.89003 0.507568 0
M  V30 12657 C 1253.08 -0.240835 3.56588 0
M  V30 12658 C 1252.75 1.00846 4.39478 0
M  V30 12659 C 1251.41 1.35091 4.61848 0
M  V30 12660 C 1253.76 1.8388 4.87686 0
M  V30 12661 C 1251.09 2.52318 5.29672 0
M  V30 12662 C 1253.44 3.00262 5.56799 0
M  V30 12663 C 1252.1 3.34885 5.77415 0
M  V30 12664 H 1251.37 -0.0151424 0.740845 0
M  V30 12665 H 1254.02 0.663056 1.79655 0
M  V30 12666 H 1252.33 -1.02781 3.78078 0
M  V30 12667 H 1254.02 -0.676194 3.95258 0
M  V30 12668 H 1250.61 0.731719 4.22308 0
M  V30 12669 H 1254.8 1.58738 4.7023 0
M  V30 12670 H 1250.05 2.79379 5.43836 0
M  V30 12671 H 1254.23 3.64927 5.93128 0
M  V30 12672 H 1251.85 4.25824 6.29744 0
M  V30 12673 N 1253.43 -1.55816 0.23648 0
M  V30 12674 C 1254.66 -2.02789 -0.39501 0
M  V30 12675 C 1255.07 -1.1153 -1.52832 0
M  V30 12676 O 1254.41 -0.120084 -1.83307 0
M  V30 12677 C 1254.47 -3.46052 -0.974066 0
M  V30 12678 C 1254.14 -4.56993 0.0256825 0
M  V30 12679 C 1255.13 -5.13208 0.831477 0
M  V30 12680 C 1252.82 -5.0208 0.148759 0
M  V30 12681 C 1254.81 -6.12994 1.74691 0
M  V30 12682 C 1252.5 -6.017 1.0677 0
M  V30 12683 C 1253.5 -6.57035 1.86531 0
M  V30 12684 O 1253.18 -7.54714 2.76878 0
M  V30 12685 H 1252.92 -0.668672 -0.0992687 0
M  V30 12686 H 1255.47 -2.02312 0.354826 0
M  V30 12687 H 1253.7 -3.43645 -1.77327 0
M  V30 12688 H 1255.39 -3.76586 -1.51453 0
M  V30 12689 H 1256.16 -4.79214 0.746922 0
M  V30 12690 H 1252.03 -4.58679 -0.461976 0
M  V30 12691 H 1255.58 -6.56111 2.36989 0
M  V30 12692 H 1251.48 -6.35115 1.15322 0
M  V30 12693 H 1252.24 -7.72292 2.71122 0
M  V30 12694 N 1254.91 0.036755 -1.57557 0
M  V30 12695 C 1256.15 0.730186 -1.89199 0
M  V30 12696 C 1256.49 1.75414 -0.833271 0
M  V30 12697 O 1255.76 1.93901 0.152579 0
M  V30 12698 C 1256.04 1.40669 -3.31488 0
M  V30 12699 C 1255.9 0.396764 -4.48047 0
M  V30 12700 C 1257.22 2.34268 -3.72567 0
M  V30 12701 H 1254.33 0.263983 -0.6881 0
M  V30 12702 H 1256.98 -0.0069847 -1.89999 0
M  V30 12703 H 1255.13 2.03502 -3.30937 0
M  V30 12704 H 1256.8 -0.229062 -4.60731 0
M  V30 12705 H 1255.04 -0.284698 -4.32865 0
M  V30 12706 H 1255.71 0.908436 -5.44474 0
M  V30 12707 H 1258.19 1.81485 -3.74436 0
M  V30 12708 H 1257.06 2.78587 -4.72949 0
M  V30 12709 H 1257.33 3.20611 -3.04403 0
M  V30 12710 N 1256.39 1.54543 0.308881 0
M  V30 12711 C 1257.35 1.84214 1.36374 0
M  V30 12712 C 1258.35 0.71463 1.44047 0
M  V30 12713 O 1259.54 0.98293 1.4382 0
M  V30 12714 C 1256.67 2.01535 2.74948 0
M  V30 12715 H 1257.86 2.78477 1.11314 0
M  V30 12716 H 1255.42 1.46485 0.545141 0
M  V30 12717 H 1256.15 1.09533 3.05242 0
M  V30 12718 H 1255.94 2.83595 2.7077 0
M  V30 12719 H 1257.43 2.25888 3.51233 0
M  V30 12720 N 1257.86 -0.571685 1.46866 0
M  V30 12721 C 1259.09 -1.36008 1.56578 0
M  V30 12722 C 1259.51 -1.86909 0.211326 0
M  V30 12723 O 1258.87 -1.62179 -0.810421 0
M  V30 12724 C 1258.92 -2.51598 2.58323 0
M  V30 12725 O 1258.02 -3.53383 2.1259 0
M  V30 12726 H 1257.36 -0.404593 0.526498 0
M  V30 12727 H 1259.89 -0.692357 1.92529 0
M  V30 12728 H 1259.9 -2.98366 2.78283 0
M  V30 12729 H 1258.58 -2.13904 3.56676 0
M  V30 12730 H 1257.16 -3.13019 2.02666 0
M  V30 12731 N 1259.34 -1.34755 -0.817236 0
M  V30 12732 C 1260.76 -1.14561 -1.11121 0
M  V30 12733 C 1260.96 0.0490776 -2.0144 0
M  V30 12734 O 1260.01 0.722897 -2.41931 0
M  V30 12735 C 1261.33 -2.44356 -1.75244 0
M  V30 12736 C 1262.87 -2.50465 -1.87713 0
M  V30 12737 C 1263.35 -3.80276 -2.55253 0
M  V30 12738 N 1264.84 -3.81468 -2.62747 0
M  V30 12739 C 1265.58 -4.78634 -3.15749 0
M  V30 12740 N 1265.07 -5.86184 -3.6927 0
M  V30 12741 N 1266.86 -4.66083 -3.14203 0
M  V30 12742 H 1259.02 -2.11293 -0.2166 0
M  V30 12743 H 1261.28 -0.934629 -0.158661 0
M  V30 12744 H 1260.98 -3.31899 -1.16344 0
M  V30 12745 H 1260.86 -2.58117 -2.75055 0
M  V30 12746 H 1263.25 -1.63358 -2.45761 0
M  V30 12747 H 1263.33 -2.40627 -0.867887 0
M  V30 12748 H 1262.97 -4.67776 -1.97858 0
M  V30 12749 H 1262.9 -3.87399 -3.56693 0
M  V30 12750 H 1265.39 -3.03753 -2.24817 0
M  V30 12751 H 1265.7 -6.56332 -4.0798 0
M  V30 12752 H 1264.05 -5.8989 -3.67498 0
M  V30 12753 H 1267.24 -3.81206 -2.7166 0
M  V30 12754 H 1267.41 -5.41973 -3.55203 0
M  V30 12755 N 1260.82 1.03812 -1.18578 0
M  V30 12756 C 1262.07 1.76706 -0.980776 0
M  V30 12757 C 1262.39 1.88729 0.490562 0
M  V30 12758 O 1261.66 1.41413 1.35569 0
M  V30 12759 H 1260.24 0.654586 -0.359898 0
M  V30 12760 H 1262.9 1.25274 -1.49306 0
M  V30 12761 H 1262 2.77876 -1.42096 0
M  V30 12762 N 1262.3 0.988223 1.22768 0
M  V30 12763 C 1263.25 0.505913 2.22316 0
M  V30 12764 C 1264.23 -0.423346 1.55231 0
M  V30 12765 O 1265.42 -0.250927 1.75212 0
M  V30 12766 C 1262.55 -0.182707 3.42813 0
M  V30 12767 C 1261.64 0.766582 4.17114 0
M  V30 12768 N 1262.03 1.91248 4.6825 0
M  V30 12769 C 1260.33 0.581503 4.42193 0
M  V30 12770 C 1261.03 2.50793 5.2486 0
M  V30 12771 N 1260 1.79106 5.13247 0
M  V30 12772 H 1263.81 1.37994 2.5949 0
M  V30 12773 H 1261.32 0.849888 1.38386 0
M  V30 12774 H 1263.32 -0.545595 4.13315 0
M  V30 12775 H 1261.98 -1.05292 3.07154 0
M  V30 12776 H 1262.99 2.29342 4.64352 0
M  V30 12777 H 1259.67 -0.243039 4.16792 0
M  V30 12778 H 1261.06 3.47609 5.74994 0
M  V30 12779 N 1263.78 -1.38018 0.760839 0
M  V30 12780 C 1264.73 -2.27717 0.113521 0
M  V30 12781 C 1265.71 -1.45562 -0.685613 0
M  V30 12782 O 1266.9 -1.68226 -0.550377 0
M  V30 12783 C 1264.03 -3.34478 -0.77325 0
M  V30 12784 C 1263.12 -4.24087 0.0331238 0
M  V30 12785 N 1263.51 -4.94283 1.07323 0
M  V30 12786 C 1261.81 -4.45584 -0.192565 0
M  V30 12787 C 1262.51 -5.60344 1.56172 0
M  V30 12788 N 1261.48 -5.36499 0.875768 0
M  V30 12789 H 1265.28 -2.79456 0.910021 0
M  V30 12790 H 1262.8 -1.51006 0.597561 0
M  V30 12791 H 1264.8 -3.97635 -1.25268 0
M  V30 12792 H 1263.46 -2.84296 -1.56862 0
M  V30 12793 H 1264.47 -4.97036 1.45517 0
M  V30 12794 H 1261.14 -4.06296 -0.960704 0
M  V30 12795 H 1262.53 -6.26477 2.42851 0
M  V30 12796 N 1265.25 -0.510493 -1.49103 0
M  V30 12797 C 1266.22 0.251915 -2.27811 0
M  V30 12798 C 1267.22 0.885432 -1.34226 0
M  V30 12799 O 1268.41 0.748494 -1.573 0
M  V30 12800 C 1265.54 1.3624 -3.12492 0
M  V30 12801 H 1266.73 -0.438872 -2.96671 0
M  V30 12802 H 1264.28 -0.265767 -1.54024 0
M  V30 12803 H 1265.02 2.08705 -2.48219 0
M  V30 12804 H 1264.8 0.913485 -3.81311 0
M  V30 12805 H 1266.29 1.89919 -3.71915 0
M  V30 12806 N 1266.73 1.55688 -0.24474 0
M  V30 12807 C 1268.01 1.90796 0.430821 0
M  V30 12808 C 1268.39 1.1652 1.76029 0
M  V30 12809 O 1267.74 0.281978 2.26753 0
M  V30 12810 C 1267.95 3.43786 0.601027 0
M  V30 12811 C 1269.29 4.14998 0.897894 0
M  V30 12812 O 1270.32 3.49513 0.68697 0
M  V30 12813 O 1269.18 5.30826 1.29945 0
M  V30 12814 H 1266.27 0.794086 0.230991 0
M  V30 12815 H 1268.82 1.67227 -0.288646 0
M  V30 12816 H 1267.59 3.89856 -0.335804 0
M  V30 12817 H 1267.21 3.73211 1.37112 0
M  V30 12818 N 1268.21 -0.0283989 1.57574 0
M  V30 12819 C 1269.46 -0.718121 1.88483 0
M  V30 12820 C 1269.77 -1.76485 0.843345 0
M  V30 12821 O 1270.98 -2.50721 1.04169 0
M  V30 12822 C 1269.43 -1.32832 3.3449 0
M  V30 12823 C 1269.04 -0.317905 4.46871 0
M  V30 12824 C 1270.79 -1.99788 3.74546 0
M  V30 12825 C 1268.69 -0.936489 5.83938 0
M  V30 12826 H 1267.62 -0.271969 0.703242 0
M  V30 12827 H 1270.27 0.0274862 1.83479 0
M  V30 12828 H 1268.66 -2.12366 3.34241 0
M  V30 12829 H 1269.83 0.450767 4.5859 0
M  V30 12830 H 1268.14 0.249605 4.15651 0
M  V30 12831 H 1270.74 -2.46923 4.74271 0
M  V30 12832 H 1271.08 -2.81633 3.06575 0
M  V30 12833 H 1271.62 -1.27029 3.76973 0
M  V30 12834 H 1268.36 -0.15744 6.55311 0
M  V30 12835 H 1267.88 -1.67499 5.75938 0
M  V30 12836 H 1269.56 -1.44363 6.30689 0
M  V30 12837 N 1269.69 -1.54705 -0.300681 0
M  V30 12838 C 1270.94 -1.73658 -1.0338 0
M  V30 12839 C 1271.26 -0.525447 -1.87787 0
M  V30 12840 O 1270.53 0.460269 -1.90416 0
M  V30 12841 H 1269.11 -0.640338 -0.384677 0
M  V30 12842 H 1271.77 -1.92059 -0.331588 0
M  V30 12843 H 1270.86 -2.62595 -1.68672 0
M  V30 12844 N 1271.17 0.563888 -1.47167 0
M  V30 12845 C 1272.41 1.31875 -1.53145 0
M  V30 12846 C 1272.74 1.94047 -0.192518 0
M  V30 12847 O 1272.01 1.79577 0.782872 0
M  V30 12848 H 1270.59 0.489694 -0.5641 0
M  V30 12849 H 1273.25 0.658976 -1.83422 0
M  V30 12850 H 1272.34 2.11574 -2.2944 0
M  V30 12851 N 1272.64 1.35187 0.810078 0
M  V30 12852 C 1273.89 1.27602 1.56207 0
M  V30 12853 C 1274.21 -0.148621 1.95035 0
M  V30 12854 O 1275.41 -0.346721 2.69277 0
M  V30 12855 C 1273.87 2.23759 2.81886 0
M  V30 12856 C 1273.48 3.71549 2.5031 0
M  V30 12857 C 1275.22 2.25109 3.59898 0
M  V30 12858 C 1273.13 4.5954 3.7226 0
M  V30 12859 H 1272.06 0.474078 0.586316 0
M  V30 12860 H 1274.71 1.6043 0.890759 0
M  V30 12861 H 1273.09 1.83898 3.5071 0
M  V30 12862 H 1274.26 4.20025 1.89515 0
M  V30 12863 H 1272.58 3.72773 1.85551 0
M  V30 12864 H 1275.18 2.88066 4.50469 0
M  V30 12865 H 1275.52 1.25387 3.96968 0
M  V30 12866 H 1276.05 2.63481 2.98031 0
M  V30 12867 H 1272.79 5.60246 3.403 0
M  V30 12868 H 1272.31 4.15792 4.32293 0
M  V30 12869 H 1273.99 4.74789 4.39528 0
M  V30 12870 N 1274.12 -1.03182 1.19127 0
M  V30 12871 C 1275.35 -1.80165 1.01726 0
M  V30 12872 C 1275.77 -1.83742 -0.434095 0
M  V30 12873 O 1275.12 -1.27932 -1.30152 0
M  V30 12874 C 1275.17 -3.25354 1.57566 0
M  V30 12875 O 1274.89 -3.22042 2.9702 0
M  V30 12876 C 1276.4 -4.18948 1.44906 0
M  V30 12877 H 1273.62 -0.567078 0.358698 0
M  V30 12878 H 1276.16 -1.29982 1.57877 0
M  V30 12879 H 1274.31 -3.72738 1.0557 0
M  V30 12880 H 1274.73 -4.13061 3.23235 0
M  V30 12881 H 1276.2 -5.18723 1.88762 0
M  V30 12882 H 1276.68 -4.37383 0.399125 0
M  V30 12883 H 1277.29 -3.77435 1.96018 0
M  V30 12884 N 1275.6 -0.99472 -1.22242 0
M  V30 12885 C 1277.01 -0.706456 -1.72818 0
M  V30 12886 C 1277.36 0.776566 -1.80177 0
M  V30 12887 O 1276.49 1.60698 -1.44931 0
M  V30 12888 C 1277.08 -1.27571 -3.13865 0
M  V30 12889 C 1275.64 -1.03679 -3.61839 0
M  V30 12890 C 1274.79 -1.3948 -2.39668 0
M  V30 12891 H 1277.74 -1.16687 -1.07564 0
M  V30 12892 H 1277.76 -0.655202 -3.74816 0
M  V30 12893 H 1277.27 -2.35508 -3.08476 0
M  V30 12894 H 1275.37 0.0258679 -3.72591 0
M  V30 12895 H 1275.49 -1.70145 -4.4787 0
M  V30 12896 H 1273.85 -0.813418 -2.41362 0
M  V30 12897 H 1274.63 -2.48425 -2.36939 0
M  V30 12898 N 1277.08 1.37613 -0.768148 0
M  V30 12899 C 1278.33 1.99384 -0.330187 0
M  V30 12900 C 1278.65 1.61283 1.09604 0
M  V30 12901 O 1277.92 0.876551 1.75195 0
M  V30 12902 H 1276.5 0.737445 -0.119095 0
M  V30 12903 H 1279.16 1.6815 -0.985476 0
M  V30 12904 H 1278.26 3.09462 -0.40494 0
M  V30 12905 N 1278.56 0.518393 1.4883 0
M  V30 12906 C 1279.78 -0.0183131 2.07392 0
M  V30 12907 C 1280.21 -1.28468 1.37396 0
M  V30 12908 O 1279.56 -1.75975 0.436177 0
M  V30 12909 C 1279.61 -0.237211 3.59819 0
M  V30 12910 O 1278.72 -1.30835 3.91096 0
M  V30 12911 H 1278.06 0.0339621 0.663131 0
M  V30 12912 H 1280.59 0.722993 1.914 0
M  V30 12913 H 1280.6 -0.463424 4.0536 0
M  V30 12914 H 1279.27 0.687925 4.10171 0
M  V30 12915 H 1277.85 -1.06571 3.57347 0
M  V30 12916 N 1280.03 -1.55556 0.252993 0
M  V30 12917 C 1280.97 -2.17683 -0.684776 0
M  V30 12918 C 1281.95 -1.13077 -1.16843 0
M  V30 12919 O 1283.13 -1.41495 -1.24545 0
M  V30 12920 C 1280.26 -2.78239 -1.93134 0
M  V30 12921 C 1279.3 -3.95953 -1.58504 0
M  V30 12922 S 1280.14 -5.31135 -0.682367 0
M  V30 12923 C 1281.29 -5.95147 -1.93779 0
M  V30 12924 H 1281.52 -2.96886 -0.156823 0
M  V30 12925 H 1279.06 -1.54355 0.0374019 0
M  V30 12926 H 1281.02 -3.13763 -2.64694 0
M  V30 12927 H 1279.68 -1.98971 -2.43042 0
M  V30 12928 H 1278.87 -4.36936 -2.51203 0
M  V30 12929 H 1278.47 -3.61738 -0.949815 0
M  V30 12930 H 1280.76 -6.13035 -2.88435 0
M  V30 12931 H 1281.71 -6.90445 -1.57135 0
M  V30 12932 H 1282.11 -5.24279 -2.09266 0
M  V30 12933 N 1281.51 0.0200419 -1.57587 0
M  V30 12934 C 1282.92 0.565484 -1.7793 0
M  V30 12935 C 1283.27 1.75096 -0.885201 0
M  V30 12936 O 1282.4 2.16243 -0.0823831 0
M  V30 12937 C 1282.99 1.03263 -3.2268 0
M  V30 12938 C 1281.55 1.52352 -3.44189 0
M  V30 12939 C 1280.7 0.465637 -2.73363 0
M  V30 12940 H 1283.65 -0.206174 -1.57355 0
M  V30 12941 H 1283.67 1.89959 -3.2969 0
M  V30 12942 H 1283.18 0.169613 -3.87729 0
M  V30 12943 H 1281.29 2.40809 -2.84327 0
M  V30 12944 H 1281.4 1.5648 -4.52825 0
M  V30 12945 H 1279.76 0.922738 -2.37398 0
M  V30 12946 H 1280.55 -0.388068 -3.411 0
M  V30 12947 N 1282.99 1.54862 0.292472 0
M  V30 12948 C 1284.4 1.65459 0.864891 0
M  V30 12949 C 1284.75 0.568808 1.87774 0
M  V30 12950 O 1283.88 -0.293107 2.14406 0
M  V30 12951 C 1284.47 2.99939 1.5755 0
M  V30 12952 C 1283.03 3.12628 2.09621 0
M  V30 12953 C 1282.18 2.61179 0.931713 0
M  V30 12954 H 1285.13 1.58549 0.0692679 0
M  V30 12955 H 1285.15 2.91839 2.44152 0
M  V30 12956 H 1284.66 3.78943 0.838088 0
M  V30 12957 H 1282.76 2.3836 2.86383 0
M  V30 12958 H 1282.88 4.18911 2.32488 0
M  V30 12959 H 1281.24 2.17846 1.31967 0
M  V30 12960 H 1282.02 3.42669 0.208121 0
M  V30 12961 N 1284.47 -0.556076 1.47464 0
M  V30 12962 C 1285.42 -1.6586 1.56444 0
M  V30 12963 C 1286.4 -1.55233 0.423262 0
M  V30 12964 O 1287.59 -1.63696 0.673247 0
M  V30 12965 C 1284.72 -3.04633 1.58283 0
M  V30 12966 C 1283.81 -3.2046 2.77788 0
M  V30 12967 N 1284.2 -3.06347 4.02474 0
M  V30 12968 C 1282.5 -3.51462 2.74573 0
M  V30 12969 C 1283.2 -3.24893 4.82514 0
M  V30 12970 N 1282.18 -3.51278 4.14855 0
M  V30 12971 H 1285.98 -1.53519 2.50618 0
M  V30 12972 H 1283.49 -0.760862 1.43474 0
M  V30 12973 H 1285.49 -3.83797 1.62806 0
M  V30 12974 H 1284.15 -3.18085 0.652052 0
M  V30 12975 H 1285.16 -2.8365 4.33316 0
M  V30 12976 H 1281.84 -3.71434 1.90639 0
M  V30 12977 H 1283.23 -3.1894 5.91377 0
M  V30 12978 N 1285.95 -1.35615 -0.802897 0
M  V30 12979 C 1287.17 -1.32377 -1.59659 0
M  V30 12980 C 1287.6 0.0954235 -1.87858 0
M  V30 12981 O 1286.96 1.06336 -1.46842 0
M  V30 12982 C 1287 -2.13972 -2.90256 0
M  V30 12983 O 1286.11 -1.52296 -3.83249 0
M  V30 12984 H 1285.45 -0.453699 -0.484823 0
M  V30 12985 H 1287.98 -1.78708 -0.996217 0
M  V30 12986 H 1287.99 -2.26061 -3.39647 0
M  V30 12987 H 1286.66 -3.17145 -2.69057 0
M  V30 12988 H 1285.24 -1.49068 -3.41809 0
M  V30 12989 N 1287.43 1.02549 -1.19673 0
M  V30 12990 C 1288.65 1.79623 -1.0268 0
M  V30 12991 C 1289.07 1.83969 0.424345 0
M  V30 12992 O 1288.43 1.28621 1.29472 0
M  V30 12993 C 1288.48 3.24514 -1.59289 0
M  V30 12994 O 1288.2 3.20462 -2.98723 0
M  V30 12995 C 1289.7 4.18173 -1.47126 0
M  V30 12996 H 1286.92 0.565167 -0.3617 0
M  V30 12997 H 1289.46 1.29143 -1.58564 0
M  V30 12998 H 1287.62 3.72173 -1.07546 0
M  V30 12999 H 1288.03 4.11341 -3.25421 0
M  V30 13000 H 1289.51 5.17714 -1.9151 0
M  V30 13001 H 1289.98 4.37165 -0.422315 0
M  V30 13002 H 1290.59 3.7639 -1.98017 0
M  V30 13003 N 1288.9 1.00119 1.21713 0
M  V30 13004 C 1289.84 0.503256 2.22582 0
M  V30 13005 C 1290.81 -0.440971 1.56506 0
M  V30 13006 O 1292 -0.364583 1.84941 0
M  V30 13007 C 1289.13 -0.269453 3.37626 0
M  V30 13008 C 1288.17 0.622002 4.2194 0
M  V30 13009 S 1289 2.08218 4.93361 0
M  V30 13010 C 1290.16 1.3192 6.1184 0
M  V30 13011 H 1290.39 1.35798 2.64474 0
M  V30 13012 H 1287.93 0.808819 1.3152 0
M  V30 13013 H 1289.88 -0.709213 4.04327 0
M  V30 13014 H 1288.55 -1.09955 2.94226 0
M  V30 13015 H 1287.74 0.0270176 5.03993 0
M  V30 13016 H 1287.34 0.998876 3.60414 0
M  V30 13017 H 1289.63 0.591116 6.74916 0
M  V30 13018 H 1290.58 2.1153 6.75767 0
M  V30 13019 H 1290.98 0.828844 5.58382 0
M  V30 13020 N 1290.38 -1.37203 0.775435 0
M  V30 13021 C 1291.31 -2.32819 0.17826 0
M  V30 13022 C 1292.29 -1.55963 -0.678944 0
M  V30 13023 O 1293.48 -1.84183 -0.615648 0
M  V30 13024 C 1290.61 -3.40198 -0.698768 0
M  V30 13025 C 1289.56 -4.27961 0.057423 0
M  V30 13026 C 1288.89 -5.26385 -0.93929 0
M  V30 13027 C 1290.19 -5.07402 1.23856 0
M  V30 13028 H 1291.88 -2.8301 0.977028 0
M  V30 13029 H 1289.43 -1.3607 0.471274 0
M  V30 13030 H 1291.38 -4.06067 -1.12637 0
M  V30 13031 H 1290.1 -2.88541 -1.53009 0
M  V30 13032 H 1288.76 -3.63628 0.465848 0
M  V30 13033 H 1288.41 -4.71007 -1.76527 0
M  V30 13034 H 1288.11 -5.85966 -0.437844 0
M  V30 13035 H 1289.64 -5.9513 -1.36576 0
M  V30 13036 H 1291.05 -5.6639 0.887423 0
M  V30 13037 H 1289.45 -5.76327 1.67234 0
M  V30 13038 H 1290.52 -4.3986 2.04085 0
M  V30 13039 N 1291.86 -0.526279 -1.48553 0
M  V30 13040 C 1292.79 0.275579 -2.27537 0
M  V30 13041 C 1293.8 0.90782 -1.35139 0
M  V30 13042 O 1294.99 0.786887 -1.6022 0
M  V30 13043 C 1292.09 1.40515 -3.08397 0
M  V30 13044 C 1291.27 0.875523 -4.28548 0
M  V30 13045 C 1290.33 1.88577 -4.91249 0
M  V30 13046 O 1289.35 1.44419 -5.50574 0
M  V30 13047 N 1290.55 3.21774 -4.83158 0
M  V30 13048 H 1293.32 -0.401803 -2.96994 0
M  V30 13049 H 1290.88 -0.360378 -1.57838 0
M  V30 13050 H 1292.87 2.07907 -3.47213 0
M  V30 13051 H 1291.44 1.98626 -2.41384 0
M  V30 13052 H 1290.66 0.025728 -3.94192 0
M  V30 13053 H 1291.95 0.500493 -5.06332 0
M  V30 13054 H 1291.35 3.60319 -4.36104 0
M  V30 13055 H 1289.9 3.84808 -5.26085 0
M  V30 13056 N 1293.34 1.5542 -0.261239 0
M  V30 13057 C 1294.27 2.19334 0.665214 0
M  V30 13058 C 1295.28 1.17388 1.128 0
M  V30 13059 O 1296.47 1.44183 1.0523 0
M  V30 13060 C 1293.57 2.79425 1.91768 0
M  V30 13061 C 1292.74 4.06929 1.60399 0
M  V30 13062 C 1291.8 4.51199 2.70751 0
M  V30 13063 O 1290.83 5.17272 2.37526 0
M  V30 13064 N 1292.03 4.20179 4.00537 0
M  V30 13065 H 1294.8 2.99467 0.118262 0
M  V30 13066 H 1292.36 1.61693 -0.0817727 0
M  V30 13067 H 1294.35 3.05992 2.64861 0
M  V30 13068 H 1292.92 2.03366 2.37405 0
M  V30 13069 H 1292.14 3.87798 0.707559 0
M  V30 13070 H 1293.43 4.9003 1.36924 0
M  V30 13071 H 1292.83 3.67164 4.30357 0
M  V30 13072 H 1291.38 4.51549 4.7005 0
M  V30 13073 N 1294.82 -0.0116844 1.57596 0
M  V30 13074 C 1295.73 -1.02342 2.111 0
M  V30 13075 C 1296.74 -1.38478 1.05355 0
M  V30 13076 O 1297.92 -1.47447 1.37191 0
M  V30 13077 C 1294.98 -2.30016 2.5941 0
M  V30 13078 C 1294.04 -2.003 3.79708 0
M  V30 13079 C 1293.28 -3.21888 4.25704 0
M  V30 13080 O 1293.5 -4.33171 3.71106 0
M  V30 13081 O 1292.43 -3.0657 5.17975 0
M  V30 13082 H 1296.26 -0.598637 2.97742 0
M  V30 13083 H 1293.84 -0.229779 1.47622 0
M  V30 13084 H 1295.73 -3.05044 2.90733 0
M  V30 13085 H 1294.4 -2.71755 1.75871 0
M  V30 13086 H 1293.31 -1.22785 3.53376 0
M  V30 13087 H 1294.64 -1.63406 4.64284 0
M  V30 13088 N 1296.29 -1.55015 -0.284256 0
M  V30 13089 C 1297.54 -1.74744 -1.01532 0
M  V30 13090 C 1297.86 -0.545334 -1.87219 0
M  V30 13091 O 1297.13 0.440046 -1.90894 0
M  V30 13092 H 1295.71 -0.644382 -0.377864 0
M  V30 13093 H 1298.37 -1.92399 -0.311199 0
M  V30 13094 H 1297.47 -2.64369 -1.65878 0
M  V30 13095 N 1297.77 0.548248 -1.47757 0
M  V30 13096 C 1298.73 1.63666 -1.60456 0
M  V30 13097 C 1299.73 1.53499 -0.479028 0
M  V30 13098 O 1300.92 1.57497 -0.744342 0
M  V30 13099 C 1298.06 3.03239 -1.55754 0
M  V30 13100 H 1299.25 1.53752 -2.57488 0
M  V30 13101 H 1296.8 0.768881 -1.36081 0
M  V30 13102 H 1297.54 3.18677 -0.601303 0
M  V30 13103 H 1297.32 3.12027 -2.37448 0
M  V30 13104 H 1298.81 3.82406 -1.67797 0
M  V30 13105 N 1299.25 1.36039 0.795694 0
M  V30 13106 C 1300.5 1.30112 1.5556 0
M  V30 13107 C 1300.83 -0.121197 1.93821 0
M  V30 13108 O 1300.1 -1.07313 1.62216 0
M  V30 13109 C 1300.39 2.21792 2.8369 0
M  V30 13110 C 1300.24 3.72691 2.51836 0
M  V30 13111 C 1301.56 2.12365 3.85472 0
M  V30 13112 H 1298.68 0.473971 0.564376 0
M  V30 13113 H 1301.32 1.66536 0.91465 0
M  V30 13114 H 1299.47 1.9086 3.38386 0
M  V30 13115 H 1301.14 4.14115 2.0324 0
M  V30 13116 H 1299.38 3.92436 1.84869 0
M  V30 13117 H 1300.06 4.32242 3.43323 0
M  V30 13118 H 1302.53 2.3958 3.40207 0
M  V30 13119 H 1301.41 2.78695 4.72885 0
M  V30 13120 H 1301.67 1.10898 4.27965 0
M  V30 13121 N 1300.73 -1.01913 1.20215 0
M  V30 13122 C 1301.98 -1.7547 1.01076 0
M  V30 13123 C 1302.3 -1.89045 -0.457404 0
M  V30 13124 O 1301.56 -1.41121 -1.35585 0
M  V30 13125 C 1301.86 -3.17734 1.63646 0
M  V30 13126 C 1301.52 -3.24143 3.13436 0
M  V30 13127 C 1300.19 -3.25599 3.54315 0
M  V30 13128 C 1302.54 -3.22508 4.09436 0
M  V30 13129 C 1299.87 -3.23089 4.89725 0
M  V30 13130 C 1302.22 -3.21539 5.44789 0
M  V30 13131 C 1300.88 -3.21298 5.85085 0
M  V30 13132 H 1300.15 -0.642092 0.369864 0
M  V30 13133 H 1302.8 -1.19547 1.49602 0
M  V30 13134 H 1301.1 -3.76799 1.07375 0
M  V30 13135 H 1302.8 -3.73338 1.46356 0
M  V30 13136 H 1299.39 -3.23743 2.80871 0
M  V30 13137 H 1303.57 -3.20555 3.7889 0
M  V30 13138 H 1298.83 -3.21231 5.20212 0
M  V30 13139 H 1303 -3.19226 6.18924 0
M  V30 13140 H 1300.63 -3.19107 6.89982 0
M  V30 13141 N 1302.21 -1.00763 -1.2118 0
M  V30 13142 C 1303.14 -0.590493 -2.2591 0
M  V30 13143 C 1304.12 0.390002 -1.65569 0
M  V30 13144 O 1305.3 0.277406 -1.92208 0
M  V30 13145 C 1302.43 0.0810388 -3.47205 0
M  V30 13146 C 1301.39 -0.81951 -4.20081 0
M  V30 13147 C 1300.71 -0.014244 -5.34698 0
M  V30 13148 C 1302.01 -2.12336 -4.7719 0
M  V30 13149 H 1303.71 -1.46595 -2.61056 0
M  V30 13150 H 1301.25 -0.706321 -1.25487 0
M  V30 13151 H 1303.21 0.384355 -4.19644 0
M  V30 13152 H 1301.93 0.991145 -3.11197 0
M  V30 13153 H 1300.59 -1.10669 -3.49497 0
M  V30 13154 H 1300.24 0.897233 -4.94933 0
M  V30 13155 H 1299.94 -0.613883 -5.84384 0
M  V30 13156 H 1301.46 0.282827 -6.09945 0
M  V30 13157 H 1302.87 -1.88301 -5.41494 0
M  V30 13158 H 1301.27 -2.67308 -5.37277 0
M  V30 13159 H 1302.34 -2.79238 -3.96427 0
M  V30 13160 N 1303.68 1.3679 -0.7827 0
M  V30 13161 C 1304.91 2.04206 -0.362571 0
M  V30 13162 C 1305.33 1.58637 1.01074 0
M  V30 13163 O 1304.69 0.751692 1.64983 0
M  V30 13164 C 1304.74 3.58062 -0.4271 0
M  V30 13165 O 1303.84 4.08463 0.56845 0
M  V30 13166 H 1303.19 0.645638 -0.155073 0
M  V30 13167 H 1305.72 1.74883 -1.06194 0
M  V30 13168 H 1305.73 4.0698 -0.288298 0
M  V30 13169 H 1304.4 3.90582 -1.42893 0
M  V30 13170 H 1302.98 3.70835 0.391863 0
M  V30 13171 N 1305.16 0.53415 1.48272 0
M  V30 13172 C 1306.41 0.00157259 2.025 0
M  V30 13173 C 1306.74 -1.33886 1.41085 0
M  V30 13174 O 1305.99 -1.87884 0.547544 0
M  V30 13175 C 1306.29 -0.165144 3.57018 0
M  V30 13176 C 1305.96 1.10146 4.3724 0
M  V30 13177 C 1304.62 1.44857 4.58879 0
M  V30 13178 C 1306.97 1.94183 4.83676 0
M  V30 13179 C 1304.3 2.63497 5.24201 0
M  V30 13180 C 1306.65 3.12005 5.50305 0
M  V30 13181 C 1305.32 3.47058 5.70182 0
M  V30 13182 H 1304.59 0.00057545 0.741 0
M  V30 13183 H 1307.23 0.701014 1.78208 0
M  V30 13184 H 1305.54 -0.947384 3.80173 0
M  V30 13185 H 1307.23 -0.592202 3.96603 0
M  V30 13186 H 1303.82 0.821132 4.20661 0
M  V30 13187 H 1308.01 1.68677 4.66757 0
M  V30 13188 H 1303.26 2.90852 5.37787 0
M  V30 13189 H 1307.44 3.77426 5.85254 0
M  V30 13190 H 1305.07 4.39086 6.2057 0
M  V30 13191 N 1306.64 -1.55279 0.269478 0
M  V30 13192 C 1307.59 -2.22304 -0.620435 0
M  V30 13193 C 1308.56 -1.19457 -1.15409 0
M  V30 13194 O 1309.74 -1.4798 -1.20443 0
M  V30 13195 C 1306.88 -2.94356 -1.80134 0
M  V30 13196 C 1306 -4.1191 -1.30207 0
M  V30 13197 C 1305.13 -4.71621 -2.44433 0
M  V30 13198 C 1304.17 -5.81379 -1.91481 0
M  V30 13199 N 1303.31 -6.35176 -2.99158 0
M  V30 13200 H 1308.15 -2.9797 -0.0422165 0
M  V30 13201 H 1305.68 -1.47097 -0.00907173 0
M  V30 13202 H 1307.64 -3.34343 -2.4954 0
M  V30 13203 H 1306.27 -2.21124 -2.35168 0
M  V30 13204 H 1305.32 -3.77082 -0.501301 0
M  V30 13205 H 1306.64 -4.9108 -0.874183 0
M  V30 13206 H 1305.79 -5.14298 -3.21842 0
M  V30 13207 H 1304.53 -3.91715 -2.90535 0
M  V30 13208 H 1303.53 -5.38157 -1.12549 0
M  V30 13209 H 1304.76 -6.63149 -1.46322 0
M  V30 13210 H 1302.7 -5.58167 -3.44652 0
M  V30 13211 H 1302.62 -7.09602 -2.60769 0
M  V30 13212 H 1303.89 -6.82512 -3.7656 0
M  V30 13213 N 1308.12 0.00332656 -1.576 0
M  V30 13214 C 1309.05 0.994803 -2.11248 0
M  V30 13215 C 1310.03 1.36061 -1.02085 0
M  V30 13216 O 1311.21 1.44494 -1.2975 0
M  V30 13217 C 1308.34 2.28772 -2.61306 0
M  V30 13218 C 1307.3 2.06362 -3.74965 0
M  V30 13219 C 1306.62 3.41638 -4.11324 0
M  V30 13220 C 1307.92 1.4289 -5.02374 0
M  V30 13221 H 1309.62 0.548119 -2.9434 0
M  V30 13222 H 1307.16 0.262208 -1.41593 0
M  V30 13223 H 1309.12 2.98485 -2.97464 0
M  V30 13224 H 1307.84 2.75547 -1.75332 0
M  V30 13225 H 1306.5 1.39076 -3.39195 0
M  V30 13226 H 1306.15 3.8611 -3.22379 0
M  V30 13227 H 1305.85 3.2746 -4.87897 0
M  V30 13228 H 1307.37 4.12671 -4.50039 0
M  V30 13229 H 1308.79 2.02555 -5.36325 0
M  V30 13230 H 1307.18 1.3921 -5.8373 0
M  V30 13231 H 1308.25 0.397708 -4.83266 0
M  V30 13232 N 1309.6 1.55164 0.276031 0
M  V30 13233 C 1310.84 1.75887 1.00953 0
M  V30 13234 C 1311.18 0.5567 1.8605 0
M  V30 13235 O 1310.45 -0.445799 1.89322 0
M  V30 13236 C 1310.73 3.06228 1.89463 0
M  V30 13237 C 1310.59 4.36795 1.07379 0
M  V30 13238 C 1311.91 3.32589 2.88223 0
M  V30 13239 H 1309.02 0.639929 0.365596 0
M  V30 13240 H 1311.67 1.87893 0.282156 0
M  V30 13241 H 1309.82 2.96124 2.51481 0
M  V30 13242 H 1311.49 4.58853 0.474549 0
M  V30 13243 H 1309.73 4.32157 0.377165 0
M  V30 13244 H 1310.4 5.24315 1.72621 0
M  V30 13245 H 1312.88 3.42467 2.36338 0
M  V30 13246 H 1311.75 4.2506 3.47297 0
M  V30 13247 H 1312.02 2.52083 3.6319 0
M  V30 13248 N 1311.07 -0.540404 1.48045 0
M  V30 13249 C 1312.01 -1.66164 1.57867 0
M  V30 13250 C 1313.02 -1.56058 0.463655 0
M  V30 13251 O 1314.21 -1.62709 0.734038 0
M  V30 13252 C 1311.31 -3.04748 1.48263 0
M  V30 13253 C 1310.48 -3.40441 2.74625 0
M  V30 13254 C 1309.54 -4.58259 2.58621 0
M  V30 13255 O 1308.57 -4.62 3.32482 0
M  V30 13256 N 1309.77 -5.55794 1.67551 0
M  V30 13257 H 1312.53 -1.58179 2.54557 0
M  V30 13258 H 1310.09 -0.727441 1.44637 0
M  V30 13259 H 1312.09 -3.81425 1.35267 0
M  V30 13260 H 1310.66 -3.06868 0.595892 0
M  V30 13261 H 1309.88 -2.53044 3.02262 0
M  V30 13262 H 1311.16 -3.61069 3.58478 0
M  V30 13263 H 1310.56 -5.55541 1.06725 0
M  V30 13264 H 1309.12 -6.3173 1.60499 0
M  V30 13265 N 1312.55 -1.36459 -0.788468 0
M  V30 13266 C 1313.8 -1.30483 -1.54333 0
M  V30 13267 C 1314.12 0.115266 -1.94659 0
M  V30 13268 O 1313.39 1.05573 -1.65019 0
M  V30 13269 H 1311.97 -0.480004 -0.572368 0
M  V30 13270 H 1314.63 -1.70765 -0.939428 0
M  V30 13271 H 1313.73 -1.93284 -2.45046 0
M  V30 13272 N 1314.03 1.01274 -1.20754 0
M  V30 13273 C 1315.28 1.74586 -1.01804 0
M  V30 13274 C 1315.6 1.89727 0.450419 0
M  V30 13275 O 1314.87 1.44257 1.32539 0
M  V30 13276 H 1313.45 0.646804 -0.373702 0
M  V30 13277 H 1316.11 1.22079 -1.5193 0
M  V30 13278 H 1315.21 2.748 -1.47958 0
M  V30 13279 N 1315.51 1.01404 1.20644 0
M  V30 13280 C 1316.76 0.702949 1.90227 0
M  V30 13281 C 1317.09 -0.765243 1.78487 0
M  V30 13282 O 1316.36 -1.55569 1.16741 0
M  V30 13283 C 1316.65 1.13606 3.4171 0
M  V30 13284 C 1316.5 2.66437 3.62397 0
M  V30 13285 C 1317.82 0.705361 4.34411 0
M  V30 13286 H 1314.94 0.256842 0.690797 0
M  V30 13287 H 1317.58 1.26133 1.42093 0
M  V30 13288 H 1315.73 0.660977 3.82836 0
M  V30 13289 H 1317.4 3.21778 3.3054 0
M  V30 13290 H 1315.64 3.0753 3.05954 0
M  V30 13291 H 1316.32 2.91795 4.68572 0
M  V30 13292 H 1318.79 1.11375 4.00918 0
M  V30 13293 H 1317.67 1.03647 5.39026 0
M  V30 13294 H 1317.93 -0.393094 4.40349 0
M  V30 13295 N 1316.99 -1.36373 0.789944 0
M  V30 13296 C 1318.23 -1.99227 0.362582 0
M  V30 13297 C 1318.56 -1.62694 -1.06587 0
M  V30 13298 O 1317.82 -0.873748 -1.75112 0
M  V30 13299 C 1318.12 -3.54243 0.474025 0
M  V30 13300 C 1317.78 -4.10597 1.86336 0
M  V30 13301 C 1316.44 -4.257 2.24349 0
M  V30 13302 C 1318.8 -4.41306 2.77306 0
M  V30 13303 C 1316.12 -4.68824 3.52734 0
M  V30 13304 C 1318.48 -4.85861 4.05119 0
M  V30 13305 C 1317.14 -4.9917 4.43154 0
M  V30 13306 H 1316.41 -0.729025 0.132678 0
M  V30 13307 H 1319.06 -1.62854 1.00751 0
M  V30 13308 H 1317.36 -3.90973 -0.254399 0
M  V30 13309 H 1319.06 -4.00807 0.124384 0
M  V30 13310 H 1315.65 -3.99281 1.55797 0
M  V30 13311 H 1319.83 -4.29205 2.49191 0
M  V30 13312 H 1315.09 -4.77315 3.82073 0
M  V30 13313 H 1319.26 -5.08587 4.75723 0
M  V30 13314 H 1316.89 -5.32344 5.42692 0
M  V30 13315 N 1318.47 -0.542005 -1.47987 0
M  V30 13316 C 1319.4 0.25143 -2.27817 0
M  V30 13317 C 1320.41 0.893436 -1.36094 0
M  V30 13318 O 1321.6 0.769849 -1.61045 0
M  V30 13319 C 1318.7 1.37236 -3.0987 0
M  V30 13320 C 1317.87 0.830021 -4.29452 0
M  V30 13321 C 1316.93 1.83356 -4.93221 0
M  V30 13322 O 1315.96 1.38571 -5.52075 0
M  V30 13323 N 1317.16 3.16631 -4.86544 0
M  V30 13324 H 1319.92 -0.433281 -2.96551 0
M  V30 13325 H 1317.49 -0.377099 -1.57447 0
M  V30 13326 H 1319.48 2.04212 -3.49399 0
M  V30 13327 H 1318.05 1.96055 -2.43478 0
M  V30 13328 H 1317.27 -0.0160827 -3.94197 0
M  V30 13329 H 1318.56 0.446762 -5.06835 0
M  V30 13330 H 1317.95 3.55673 -4.39901 0
M  V30 13331 H 1316.51 3.79207 -5.30137 0
M  V30 13332 N 1319.94 1.55134 -0.277709 0
M  V30 13333 C 1320.85 2.26296 0.618658 0
M  V30 13334 C 1321.87 1.28978 1.16794 0
M  V30 13335 O 1323.05 1.61918 1.19768 0
M  V30 13336 C 1320.11 2.97214 1.78508 0
M  V30 13337 C 1319.17 4.10016 1.27221 0
M  V30 13338 C 1318.4 4.77543 2.38304 0
M  V30 13339 O 1318.63 4.44293 3.57715 0
M  V30 13340 O 1317.56 5.65437 2.06313 0
M  V30 13341 H 1321.39 3.03671 0.0421031 0
M  V30 13342 H 1318.97 1.49332 -0.0450166 0
M  V30 13343 H 1320.85 3.41773 2.46513 0
M  V30 13344 H 1319.53 2.22753 2.34867 0
M  V30 13345 H 1318.44 3.69907 0.558544 0
M  V30 13346 H 1319.77 4.86385 0.754333 0
M  V30 13347 N 1321.42 0.00503138 1.57599 0
M  V30 13348 C 1322.33 -1.00097 2.12174 0
M  V30 13349 C 1323.35 -1.37353 1.06818 0
M  V30 13350 O 1324.52 -1.45984 1.38747 0
M  V30 13351 C 1321.59 -2.27252 2.61835 0
M  V30 13352 C 1320.65 -1.96262 3.81811 0
M  V30 13353 C 1319.88 -3.17355 4.29094 0
M  V30 13354 O 1320.11 -4.2921 3.75679 0
M  V30 13355 O 1319.04 -3.01059 5.21198 0
M  V30 13356 H 1322.87 -0.567024 2.9836 0
M  V30 13357 H 1320.45 -0.214109 1.47858 0
M  V30 13358 H 1322.33 -3.01944 2.93952 0
M  V30 13359 H 1321.01 -2.69875 1.78744 0
M  V30 13360 H 1319.91 -1.19031 3.54658 0
M  V30 13361 H 1321.25 -1.58473 4.65991 0
M  V30 13362 N 1322.9 -1.55308 -0.267798 0
M  V30 13363 C 1323.86 -1.87765 -1.31442 0
M  V30 13364 C 1324.86 -0.752571 -1.42102 0
M  V30 13365 O 1326.05 -1.02072 -1.41163 0
M  V30 13366 C 1323.18 -2.08754 -2.69508 0
M  V30 13367 H 1324.38 -2.8133 -1.03891 0
M  V30 13368 H 1321.93 -1.47879 -0.506111 0
M  V30 13369 H 1322.67 -1.17588 -3.02231 0
M  V30 13370 H 1322.45 -2.90674 -2.63156 0
M  V30 13371 H 1323.94 -2.3512 -3.4512 0
M  V30 13372 N 1324.38 0.532545 -1.4833 0
M  V30 13373 C 1325.62 1.29042 -1.56448 0
M  V30 13374 C 1325.96 1.92754 -0.236532 0
M  V30 13375 O 1325.23 1.79154 0.757237 0
M  V30 13376 C 1325.51 2.38173 -2.70084 0
M  V30 13377 C 1325.37 1.79169 -4.12576 0
M  V30 13378 C 1326.69 3.39957 -2.79495 0
M  V30 13379 H 1323.81 0.467816 -0.569488 0
M  V30 13380 H 1326.45 0.593517 -1.80492 0
M  V30 13381 H 1324.6 2.97616 -2.49714 0
M  V30 13382 H 1326.27 1.23797 -4.44378 0
M  V30 13383 H 1324.51 1.09716 -4.19696 0
M  V30 13384 H 1325.18 2.58174 -4.87904 0
M  V30 13385 H 1327.66 2.90466 -2.97941 0
M  V30 13386 H 1326.54 4.13714 -3.60739 0
M  V30 13387 H 1326.8 4.00347 -1.87548 0
M  V30 13388 N 1325.86 1.36875 0.78122 0
M  V30 13389 C 1327.08 1.34732 1.57019 0
M  V30 13390 C 1327.5 -0.0695423 1.88672 0
M  V30 13391 O 1326.86 -1.02873 1.50743 0
M  V30 13392 C 1326.91 2.17668 2.88623 0
M  V30 13393 O 1326.63 3.53832 2.5833 0
M  V30 13394 C 1328.13 2.23398 3.82895 0
M  V30 13395 H 1325.35 0.461857 0.486754 0
M  V30 13396 H 1327.89 1.80086 0.968989 0
M  V30 13397 H 1326.05 1.75848 3.4519 0
M  V30 13398 H 1326.46 3.972 3.42538 0
M  V30 13399 H 1327.94 2.85769 4.72271 0
M  V30 13400 H 1328.41 1.23972 4.2134 0
M  V30 13401 H 1329.02 2.65489 3.32258 0
M  V30 13402 N 1327.33 -1.00632 1.21289 0
M  V30 13403 C 1328.24 -2.12829 0.986957 0
M  V30 13404 C 1329.26 -1.73895 -0.0605152 0
M  V30 13405 O 1330.44 -2.00985 0.129238 0
M  V30 13406 C 1327.5 -3.4226 0.553089 0
M  V30 13407 C 1326.56 -3.95376 1.67262 0
M  V30 13408 C 1325.79 -5.18629 1.25936 0
M  V30 13409 O 1326.02 -5.70246 0.132402 0
M  V30 13410 O 1324.95 -5.65157 2.07077 0
M  V30 13411 H 1328.78 -2.34765 1.92663 0
M  V30 13412 H 1326.36 -1.11208 0.997654 0
M  V30 13413 H 1328.24 -4.20177 0.320856 0
M  V30 13414 H 1326.92 -3.21716 -0.357881 0
M  V30 13415 H 1325.83 -3.18692 1.95924 0
M  V30 13416 H 1327.16 -4.20328 2.56097 0
M  V30 13417 N 1328.81 -1.02043 -1.20104 0
M  V30 13418 C 1329.77 -0.598682 -2.21243 0
M  V30 13419 C 1330.77 0.333205 -1.5731 0
M  V30 13420 O 1331.96 0.12137 -1.73777 0
M  V30 13421 C 1329.1 0.125183 -3.4067 0
M  V30 13422 H 1330.29 -1.49345 -2.60069 0
M  V30 13423 H 1327.84 -0.810649 -1.33634 0
M  V30 13424 H 1328.58 1.03469 -3.07351 0
M  V30 13425 H 1328.36 -0.544316 -3.88304 0
M  V30 13426 H 1329.85 0.407469 -4.15607 0
M  V30 13427 N 1330.29 1.35952 -0.797165 0
M  V30 13428 C 1331.22 2.32506 -0.215277 0
M  V30 13429 C 1332.2 1.57023 0.654046 0
M  V30 13430 O 1333.39 1.85139 0.586268 0
M  V30 13431 C 1330.52 3.41266 0.644557 0
M  V30 13432 C 1329.47 4.27816 -0.125501 0
M  V30 13433 C 1328.8 5.27813 0.855428 0
M  V30 13434 C 1330.1 5.05367 -1.31913 0
M  V30 13435 H 1331.79 2.8142 -1.02193 0
M  V30 13436 H 1329.34 1.35303 -0.492862 0
M  V30 13437 H 1331.29 4.07808 1.06163 0
M  V30 13438 H 1330.01 2.90938 1.484 0
M  V30 13439 H 1328.67 3.62841 -0.523639 0
M  V30 13440 H 1328.32 4.73755 1.69011 0
M  V30 13441 H 1328.02 5.86589 0.344566 0
M  V30 13442 H 1329.54 5.97227 1.2709 0
M  V30 13443 H 1330.96 5.64907 -0.977418 0
M  V30 13444 H 1329.36 5.73593 -1.76382 0
M  V30 13445 H 1330.43 4.36558 -2.11057 0
M  V30 13446 N 1331.77 0.549846 1.47697 0
M  V30 13447 C 1333.18 0.209085 1.58225 0
M  V30 13448 C 1333.38 -1.28823 1.54941 0
M  V30 13449 O 1332.44 -2.0679 1.44893 0
M  V30 13450 C 1333.75 0.829219 2.89041 0
M  V30 13451 C 1335.3 0.79977 3.0261 0
M  V30 13452 C 1335.78 1.39884 4.36115 0
M  V30 13453 N 1337.27 1.36169 4.42733 0
M  V30 13454 C 1338 1.79492 5.44583 0
M  V30 13455 N 1337.5 2.30637 6.53283 0
M  V30 13456 N 1339.29 1.70608 5.35583 0
M  V30 13457 H 1331.44 1.52275 1.48074 0
M  V30 13458 H 1333.71 0.634579 0.704283 0
M  V30 13459 H 1333.41 1.88122 2.97158 0
M  V30 13460 H 1333.29 0.317916 3.75858 0
M  V30 13461 H 1335.67 -0.243525 2.94093 0
M  V30 13462 H 1335.75 1.34875 2.17353 0
M  V30 13463 H 1335.4 2.44116 4.45387 0
M  V30 13464 H 1335.33 0.825362 5.20092 0
M  V30 13465 H 1337.82 0.987505 3.64769 0
M  V30 13466 H 1338.13 2.61637 7.27163 0
M  V30 13467 H 1336.48 2.34643 6.54192 0
M  V30 13468 H 1339.67 1.30434 4.4956 0
M  V30 13469 H 1339.84 2.0469 6.14822 0
M  V30 13470 N 1333.25 -1.54984 0.285932 0
M  V30 13471 C 1334.21 -2.2164 -0.583824 0
M  V30 13472 C 1335.21 -1.19764 -1.073 0
M  V30 13473 O 1336.4 -1.44598 -0.971439 0
M  V30 13474 C 1333.53 -2.8909 -1.80665 0
M  V30 13475 H 1334.72 -2.999 -0.00168109 0
M  V30 13476 H 1332.28 -1.56257 0.0366325 0
M  V30 13477 H 1333.01 -2.14869 -2.42903 0
M  V30 13478 H 1332.8 -3.63756 -1.4637 0
M  V30 13479 H 1334.29 -3.39982 -2.42491 0
M  V30 13480 N 1334.72 -0.0133892 -1.57594 0
M  V30 13481 C 1336.14 0.527615 -1.7909 0
M  V30 13482 C 1336.49 1.73179 -0.922142 0
M  V30 13483 O 1335.61 2.1602 -0.128233 0
M  V30 13484 C 1336.21 0.963949 -3.24798 0
M  V30 13485 C 1334.77 1.45017 -3.47343 0
M  V30 13486 C 1333.91 0.407548 -2.74289 0
M  V30 13487 H 1336.86 -0.239505 -1.56882 0
M  V30 13488 H 1336.88 1.82924 -3.33645 0
M  V30 13489 H 1336.4 0.0873315 -3.88002 0
M  V30 13490 H 1334.5 2.34724 -2.89371 0
M  V30 13491 H 1334.61 1.4684 -4.56043 0
M  V30 13492 H 1332.97 0.872174 -2.39301 0
M  V30 13493 H 1333.76 -0.460333 -3.402 0
M  V30 13494 N 1336.2 1.55448 0.259558 0
M  V30 13495 C 1337.45 1.76337 0.987396 0
M  V30 13496 C 1337.77 0.57505 1.86328 0
M  V30 13497 O 1337.04 -0.409621 1.9157 0
M  V30 13498 H 1335.62 0.650312 0.367565 0
M  V30 13499 H 1338.28 1.9287 0.280551 0
M  V30 13500 H 1337.38 2.66975 1.61651 0
M  V30 13501 N 1337.68 -0.524672 1.4861 0
M  V30 13502 C 1338.63 -1.62872 1.63527 0
M  V30 13503 C 1339.6 -1.59097 0.477202 0
M  V30 13504 O 1340.78 -1.77443 0.701341 0
M  V30 13505 C 1337.92 -3.01116 1.68592 0
M  V30 13506 C 1337.04 -3.15085 2.95542 0
M  V30 13507 C 1336.17 -4.4392 2.91734 0
M  V30 13508 C 1335.21 -4.51436 4.13366 0
M  V30 13509 N 1334.35 -5.71667 4.07605 0
M  V30 13510 H 1339.19 -1.49462 2.57808 0
M  V30 13511 H 1336.72 -0.727578 1.27846 0
M  V30 13512 H 1338.68 -3.81212 1.6951 0
M  V30 13513 H 1337.31 -3.13285 0.777975 0
M  V30 13514 H 1336.36 -2.28207 3.04345 0
M  V30 13515 H 1337.68 -3.165 3.85524 0
M  V30 13516 H 1336.83 -5.32312 2.91083 0
M  V30 13517 H 1335.57 -4.45034 1.9949 0
M  V30 13518 H 1334.57 -3.6145 4.14287 0
M  V30 13519 H 1335.8 -4.52057 5.06776 0
M  V30 13520 H 1333.74 -5.73668 3.18184 0
M  V30 13521 H 1333.66 -5.74599 4.91297 0
M  V30 13522 H 1334.93 -6.62331 4.1102 0
M  V30 13523 N 1339.16 -1.37287 -0.77395 0
M  V30 13524 C 1340.4 -1.3257 -1.5347 0
M  V30 13525 C 1340.74 0.090346 -1.9399 0
M  V30 13526 O 1340.01 1.04719 -1.63903 0
M  V30 13527 C 1340.3 -2.26277 -2.80126 0
M  V30 13528 C 1340.15 -3.76651 -2.45874 0
M  V30 13529 C 1341.47 -2.18471 -3.82045 0
M  V30 13530 H 1338.59 -0.48289 -0.556764 0
M  V30 13531 H 1341.23 -1.6797 -0.888039 0
M  V30 13532 H 1339.38 -1.96219 -3.35306 0
M  V30 13533 H 1341.05 -4.17296 -1.96626 0
M  V30 13534 H 1339.29 -3.95327 -1.78602 0
M  V30 13535 H 1339.96 -4.3765 -3.36403 0
M  V30 13536 H 1342.44 -2.44962 -3.36352 0
M  V30 13537 H 1341.32 -2.86183 -4.68392 0
M  V30 13538 H 1341.58 -1.17692 -4.26147 0
M  V30 13539 N 1340.64 0.999871 -1.21821 0
M  V30 13540 C 1342.05 1.5529 -1.03642 0
M  V30 13541 C 1342.4 1.92032 0.402246 0
M  V30 13542 O 1341.52 1.74027 1.28622 0
M  V30 13543 C 1342.12 2.82177 -1.87514 0
M  V30 13544 C 1340.68 3.33949 -1.73653 0
M  V30 13545 C 1339.82 2.07095 -1.84409 0
M  V30 13546 H 1342.78 0.821751 -1.35768 0
M  V30 13547 H 1342.8 3.54264 -1.38842 0
M  V30 13548 H 1342.31 2.55405 -2.92216 0
M  V30 13549 H 1340.41 3.65645 -0.716554 0
M  V30 13550 H 1340.52 4.05022 -2.55918 0
M  V30 13551 H 1338.89 2.20332 -1.27773 0
M  V30 13552 H 1339.67 1.82728 -2.90629 0
M  V30 13553 N 1342.11 1.02678 1.19562 0
M  V30 13554 C 1343.06 0.599259 2.24748 0
M  V30 13555 C 1344.06 -0.367079 1.65375 0
M  V30 13556 O 1345.26 -0.235887 1.78448 0
M  V30 13557 H 1341.64 0.175517 0.73123 0
M  V30 13558 H 1343.61 1.4971 2.58127 0
M  V30 13559 C 1342.36 -0.0362515 3.47681 0
M  V30 13560 H 1341.68 0.698343 3.93654 0
M  V30 13561 H 1343.12 -0.298361 4.22949 0
M  V30 13562 C 1341.58 -1.28218 3.11547 0
M  V30 13563 O 1342.11 -2.37446 3.24009 0
M  V30 13564 N 1340.32 -1.17014 2.66 0
M  V30 13565 H 1339.86 -0.28132 2.56059 0
M  V30 13566 H 1339.82 -2.00473 2.42194 0
M  V30 13567 N 1343.59 -1.35528 0.804364 0
M  V30 13568 C 1344.83 -2.00658 0.389299 0
M  V30 13569 C 1345.2 -1.62431 -1.02373 0
M  V30 13570 O 1346.4 -2.20264 -1.54068 0
M  V30 13571 C 1344.67 -3.52913 0.564569 0
M  V30 13572 S 1346.23 -4.38145 0.239597 0
M  V30 13573 H 1343.05 -0.695435 0.147958 0
M  V30 13574 H 1345.65 -1.65156 1.04613 0
M  V30 13575 H 1344.35 -3.78222 1.59299 0
M  V30 13576 H 1343.88 -3.93253 -0.10766 0
M  V30 13577 H 1345.9 -4.86952 -0.953533 0
M  V30 13578 N 1345.07 -0.557671 -1.47404 0
M  V30 13579 C 1346.3 -0.0366797 -2.07368 0
M  V30 13580 C 1346.72 1.2478 -1.40754 0
M  V30 13581 O 1346.08 1.74757 -0.48268 0
M  V30 13582 C 1346.13 0.141728 -3.60321 0
M  V30 13583 O 1345.23 1.20419 -3.94427 0
M  V30 13584 H 1344.57 -0.0515319 -0.661997 0
M  V30 13585 H 1347.1 -0.773485 -1.89416 0
M  V30 13586 H 1347.11 0.355787 -4.06446 0
M  V30 13587 H 1345.79 -0.796433 -4.08203 0
M  V30 13588 H 1344.36 0.970589 -3.60047 0
M  V30 13589 N 1346.55 1.54831 -0.294147 0
M  V30 13590 C 1347.8 1.99606 0.316509 0
M  V30 13591 C 1348.12 1.18405 1.54936 0
M  V30 13592 O 1347.39 0.278289 1.93913 0
M  V30 13593 H 1345.97 0.737309 0.119938 0
M  V30 13594 H 1348.63 1.90669 -0.403891 0
M  V30 13595 H 1347.73 3.06409 0.593282 0
M  V30 13596 N 1348.03 0.0217466 1.57585 0
M  V30 13597 C 1349.26 -0.668881 1.9579 0
M  V30 13598 C 1349.67 -1.66085 0.897849 0
M  V30 13599 O 1349.03 -1.82098 -0.121099 0
M  V30 13600 C 1349.08 -1.38174 3.34051 0
M  V30 13601 O 1348.8 -0.429527 4.35989 0
M  V30 13602 C 1350.3 -2.16487 3.86844 0
M  V30 13603 H 1347.52 -0.184919 0.645016 0
M  V30 13604 H 1350.06 0.0793241 2.04346 0
M  V30 13605 H 1348.22 -2.0814 3.26736 0
M  V30 13606 H 1348.63 -0.934887 5.16101 0
M  V30 13607 H 1350.11 -2.61829 4.85952 0
M  V30 13608 H 1350.58 -3.00082 3.20698 0
M  V30 13609 H 1351.19 -1.51493 3.97404 0
M  V30 13610 N 1349.51 -1.55583 -0.251311 0
M  V30 13611 C 1350.92 -1.47908 -0.599606 0
M  V30 13612 C 1351.12 -0.711061 -1.88537 0
M  V30 13613 O 1350.18 -0.238639 -2.5137 0
M  V30 13614 C 1351.49 -2.92284 -0.706429 0
M  V30 13615 C 1353.04 -3.02629 -0.799049 0
M  V30 13616 C 1353.51 -4.48303 -0.93747 0
M  V30 13617 N 1355 -4.52222 -1.00245 0
M  V30 13618 C 1355.74 -5.62181 -1.12874 0
M  V30 13619 N 1355.24 -6.81958 -1.22085 0
M  V30 13620 N 1357.03 -5.49968 -1.16155 0
M  V30 13621 H 1349.18 -2.0396 0.592806 0
M  V30 13622 H 1351.44 -0.925797 0.203971 0
M  V30 13623 H 1351.15 -3.51297 0.168243 0
M  V30 13624 H 1351.02 -3.42524 -1.57979 0
M  V30 13625 H 1353.41 -2.43699 -1.66418 0
M  V30 13626 H 1353.49 -2.55607 0.099367 0
M  V30 13627 H 1353.13 -5.07842 -0.0769166 0
M  V30 13628 H 1353.06 -4.93002 -1.85086 0
M  V30 13629 H 1355.56 -3.65951 -0.94279 0
M  V30 13630 H 1355.87 -7.6151 -1.31616 0
M  V30 13631 H 1354.21 -6.84728 -1.1905 0
M  V30 13632 H 1357.4 -4.55327 -1.08604 0
M  V30 13633 H 1357.58 -6.35701 -1.25653 0
M  V30 13634 N 1350.98 0.516783 -1.48886 0
M  V30 13635 C 1351.93 1.64093 -1.64853 0
M  V30 13636 C 1352.93 1.61392 -0.514685 0
M  V30 13637 O 1354.13 1.6609 -0.693831 0
M  V30 13638 H 1350.51 0.543672 -0.519543 0
M  V30 13639 H 1352.48 1.47774 -2.5924 0
M  V30 13640 C 1351.23 3.02308 -1.71771 0
M  V30 13641 H 1350.55 3.05085 -2.58385 0
M  V30 13642 H 1351.99 3.80544 -1.86982 0
M  V30 13643 C 1350.45 3.33757 -0.459136 0
M  V30 13644 O 1350.98 3.99475 0.422177 0
M  V30 13645 N 1349.18 2.88756 -0.326837 0
M  V30 13646 H 1348.73 2.35452 -1.045 0
M  V30 13647 H 1348.69 3.10166 0.514213 0
M  V30 13648 N 1352.46 1.37696 0.766659 0
M  V30 13649 C 1353.39 1.36576 1.89392 0
M  V30 13650 C 1354.37 0.233597 1.68488 0
M  V30 13651 O 1355.56 0.434719 1.89272 0
M  V30 13652 C 1352.69 1.17705 3.26746 0
M  V30 13653 C 1351.64 2.27987 3.62224 0
M  V30 13654 C 1350.97 1.94235 4.98174 0
M  V30 13655 C 1352.27 3.70195 3.68447 0
M  V30 13656 H 1353.96 2.30905 1.90587 0
M  V30 13657 H 1351.51 1.11148 0.915538 0
M  V30 13658 H 1353.46 1.15551 4.05248 0
M  V30 13659 H 1352.18 0.198334 3.25997 0
M  V30 13660 H 1350.84 2.29306 2.86032 0
M  V30 13661 H 1350.49 0.948796 4.93971 0
M  V30 13662 H 1350.19 2.68086 5.2288 0
M  V30 13663 H 1351.72 1.93676 5.7907 0
M  V30 13664 H 1353.13 3.70978 4.37091 0
M  V30 13665 H 1351.53 4.43142 4.04654 0
M  V30 13666 H 1352.6 4.03453 2.68986 0
M  V30 13667 N 1353.94 -0.993397 1.22349 0
M  V30 13668 C 1354.89 -2.06784 0.960445 0
M  V30 13669 C 1355.87 -1.60655 -0.0887385 0
M  V30 13670 O 1357.07 -1.76581 0.121716 0
M  V30 13671 C 1354.19 -3.39034 0.539552 0
M  V30 13672 C 1353.28 -3.91798 1.62344 0
M  V30 13673 N 1353.67 -4.17791 2.85104 0
M  V30 13674 C 1351.97 -4.20197 1.49501 0
M  V30 13675 C 1352.67 -4.6067 3.55187 0
M  V30 13676 N 1351.65 -4.64333 2.82658 0
M  V30 13677 H 1355.45 -2.24821 1.89295 0
M  V30 13678 H 1352.96 -1.17509 1.12095 0
M  V30 13679 H 1354.96 -4.15573 0.332419 0
M  V30 13680 H 1353.62 -3.22397 -0.38606 0
M  V30 13681 H 1354.63 -4.05999 3.21536 0
M  V30 13682 H 1351.31 -4.12634 0.635546 0
M  V30 13683 H 1352.7 -4.89408 4.60358 0
M  V30 13684 N 1355.42 -1.03311 -1.19015 0
M  V30 13685 C 1356.69 -0.646539 -1.84606 0
M  V30 13686 C 1357.07 0.87449 -1.92135 0
M  V30 13687 O 1356.42 1.77291 -1.44154 0
M  V30 13688 C 1356.63 -1.31354 -3.23338 0
M  V30 13689 C 1357.98 -1.43949 -3.99455 0
M  V30 13690 O 1359 -1.27104 -3.32751 0
M  V30 13691 O 1357.86 -1.71328 -5.1895 0
M  V30 13692 H 1354.96 -0.225267 -0.795728 0
M  V30 13693 H 1357.5 -1.13152 -1.2647 0
M  V30 13694 H 1356.28 -2.3521 -3.12717 0
M  V30 13695 H 1355.9 -0.816688 -3.89122 0
M  V30 13696 N 1356.9 1.35099 -0.81154 0
M  V30 13697 C 1357.84 2.31618 -0.213536 0
M  V30 13698 C 1358.84 1.56868 0.63944 0
M  V30 13699 O 1360.04 1.71957 0.532051 0
M  V30 13700 H 1356.42 0.750316 -0.0502963 0
M  V30 13701 H 1358.39 2.79593 -1.04262 0
M  V30 13702 C 1357.14 3.4214 0.619293 0
M  V30 13703 H 1356.46 3.9979 -0.0277192 0
M  V30 13704 H 1357.9 4.11941 1.00401 0
M  V30 13705 C 1356.36 2.85607 1.7869 0
M  V30 13706 O 1356.89 2.7956 2.8846 0
M  V30 13707 N 1355.1 2.42587 1.6 0
M  V30 13708 H 1354.64 2.47705 0.707105 0
M  V30 13709 H 1354.6 2.0511 2.38279 0
M  V30 13710 N 1358.37 0.56548 1.47106 0
M  V30 13711 C 1359.3 -0.16567 2.32912 0
M  V30 13712 C 1360.28 -0.900678 1.44298 0
M  V30 13713 O 1361.47 -0.879523 1.73142 0
M  V30 13714 C 1358.6 -1.19092 3.26243 0
M  V30 13715 C 1357.55 -0.571849 4.24163 0
M  V30 13716 C 1356.88 -1.70233 5.06878 0
M  V30 13717 C 1358.18 0.479785 5.20092 0
M  V30 13718 H 1359.87 0.550705 2.94292 0
M  V30 13719 H 1357.42 0.266284 1.41517 0
M  V30 13720 H 1359.37 -1.71064 3.85117 0
M  V30 13721 H 1358.1 -1.93734 2.62934 0
M  V30 13722 H 1356.76 -0.073353 3.66527 0
M  V30 13723 H 1356.4 -2.438 4.39967 0
M  V30 13724 H 1356.1 -1.29384 5.73178 0
M  V30 13725 H 1357.63 -2.22515 5.68612 0
M  V30 13726 H 1359.04 0.0458042 5.73282 0
M  V30 13727 H 1357.44 0.807615 5.94641 0
M  V30 13728 H 1358.51 1.37259 4.65068 0
M  V30 13729 N 1359.85 -1.54672 0.302354 0
M  V30 13730 C 1361.08 -2.05041 -0.311891 0
M  V30 13731 C 1361.5 -1.17814 -1.46634 0
M  V30 13732 O 1360.86 -0.182517 -1.80379 0
M  V30 13733 C 1360.91 -3.52831 -0.744489 0
M  V30 13734 O 1360.01 -3.68621 -1.84913 0
M  V30 13735 H 1359.35 -0.661255 -0.0603102 0
M  V30 13736 H 1361.88 -1.99711 0.444593 0
M  V30 13737 H 1361.89 -3.94708 -1.03293 0
M  V30 13738 H 1360.57 -4.1578 0.0999976 0
M  V30 13739 H 1359.15 -3.38649 -1.56113 0
M  V30 13740 N 1361.33 -0.0301034 -1.57571 0
M  V30 13741 C 1362.61 0.68703 -1.83137 0
M  V30 13742 C 1362.99 1.90277 -0.914216 0
M  V30 13743 O 1362.34 2.2848 0.0299358 0
M  V30 13744 C 1362.55 1.06431 -3.32375 0
M  V30 13745 C 1363.89 1.45554 -3.98873 0
M  V30 13746 O 1364.92 1.15727 -3.36877 0
M  V30 13747 O 1363.78 2.01133 -5.08142 0
M  V30 13748 H 1360.87 0.337141 -0.755159 0
M  V30 13749 H 1363.42 -0.0578604 -1.69601 0
M  V30 13750 H 1362.19 0.199077 -3.90793 0
M  V30 13751 H 1361.81 1.86734 -3.51022 0
M  V30 13752 N 1362.81 1.55714 0.243056 0
M  V30 13753 C 1363.74 1.93655 1.30461 0
M  V30 13754 C 1364.72 0.801968 1.50008 0
M  V30 13755 O 1365.9 1.06256 1.62552 0
M  V30 13756 C 1363.03 2.23459 2.65863 0
M  V30 13757 C 1361.99 3.39205 2.61006 0
M  V30 13758 C 1361.31 3.5456 4.00239 0
M  V30 13759 C 1362.61 4.74787 2.17656 0
M  V30 13760 H 1364.31 2.82575 0.98954 0
M  V30 13761 H 1361.85 1.35955 0.474572 0
M  V30 13762 H 1363.81 2.48591 3.40266 0
M  V30 13763 H 1362.53 1.31369 2.99014 0
M  V30 13764 H 1361.19 3.14088 1.89061 0
M  V30 13765 H 1360.84 2.59884 4.30661 0
M  V30 13766 H 1360.54 4.32399 3.97876 0
M  V30 13767 H 1362.06 3.82017 4.76335 0
M  V30 13768 H 1363.48 4.99266 2.81792 0
M  V30 13769 H 1361.87 5.55756 2.26397 0
M  V30 13770 H 1362.94 4.7159 1.12831 0
M  V30 13771 N 1364.29 -0.50888 1.49158 0
M  V30 13772 C 1365.7 -0.839353 1.35746 0
M  V30 13773 C 1365.9 -1.97797 0.38453 0
M  V30 13774 O 1364.96 -2.51809 -0.186651 0
M  V30 13775 C 1366.27 -1.18698 2.76281 0
M  V30 13776 C 1367.82 -1.29565 2.84924 0
M  V30 13777 C 1368.29 -1.67661 4.26209 0
M  V30 13778 N 1369.79 -1.74725 4.28982 0
M  V30 13779 C 1370.52 -2.05631 5.3526 0
M  V30 13780 N 1370.02 -2.34814 6.51793 0
M  V30 13781 N 1371.81 -2.06815 5.2267 0
M  V30 13782 H 1363.96 0.242065 2.11016 0
M  V30 13783 H 1366.22 0.0456901 0.946898 0
M  V30 13784 H 1365.93 -0.423769 3.49138 0
M  V30 13785 H 1365.8 -2.13227 3.11149 0
M  V30 13786 H 1368.19 -2.0496 2.1231 0
M  V30 13787 H 1368.27 -0.331059 2.53649 0
M  V30 13788 H 1367.92 -0.928198 4.99346 0
M  V30 13789 H 1367.85 -2.65207 4.54943 0
M  V30 13790 H 1370.34 -1.54364 3.44935 0
M  V30 13791 H 1370.65 -2.57562 7.28616 0
M  V30 13792 H 1368.99 -2.32288 6.55032 0
M  V30 13793 H 1372.19 -1.83487 4.30639 0
M  V30 13794 H 1372.36 -2.30568 6.05593 0
M  V30 13795 N 1365.76 -1.381 -0.759346 0
M  V30 13796 C 1366.73 -1.34674 -1.8546 0
M  V30 13797 C 1367.73 -0.248351 -1.58871 0
M  V30 13798 O 1368.92 -0.504915 -1.66722 0
M  V30 13799 C 1366.05 -1.0952 -3.22828 0
M  V30 13800 H 1367.24 -2.3211 -1.89908 0
M  V30 13801 H 1364.8 -1.2331 -0.960435 0
M  V30 13802 H 1365.53 -0.126664 -3.24053 0
M  V30 13803 H 1365.32 -1.89037 -3.43522 0
M  V30 13804 H 1366.81 -1.09804 -4.02906 0
M  V30 13805 N 1367.24 0.986894 -1.22875 0
M  V30 13806 C 1368.17 2.08035 -0.961971 0
M  V30 13807 C 1369.19 1.62683 0.0616475 0
M  V30 13808 O 1370.38 1.77659 -0.173094 0
M  V30 13809 C 1367.48 3.36208 -0.426302 0
M  V30 13810 C 1366.65 4.10562 -1.50856 0
M  V30 13811 C 1365.71 5.17014 -0.97891 0
M  V30 13812 O 1364.73 5.44259 -1.66645 0
M  V30 13813 N 1365.94 5.80167 0.196613 0
M  V30 13814 H 1368.7 2.315 -1.90336 0
M  V30 13815 H 1366.26 1.1531 -1.13645 0
M  V30 13816 H 1368.25 4.0466 -0.0571577 0
M  V30 13817 H 1366.82 3.09761 0.420345 0
M  V30 13818 H 1366.04 3.36656 -2.05076 0
M  V30 13819 H 1367.33 4.57007 -2.23655 0
M  V30 13820 H 1366.73 5.60409 0.771892 0
M  V30 13821 H 1365.29 6.49825 0.507083 0
M  V30 13822 N 1368.72 1.0394 1.18466 0
M  V30 13823 C 1369.97 0.743141 1.88694 0
M  V30 13824 C 1370.3 -0.727211 1.8007 0
M  V30 13825 O 1369.57 -1.53058 1.20014 0
M  V30 13826 C 1369.86 1.20829 3.39223 0
M  V30 13827 C 1369.71 2.74064 3.56664 0
M  V30 13828 C 1371.03 0.797348 4.32817 0
M  V30 13829 H 1368.15 0.271437 0.685194 0
M  V30 13830 H 1370.79 1.29119 1.39386 0
M  V30 13831 H 1368.94 0.742033 3.81348 0
M  V30 13832 H 1370.61 3.28717 3.2364 0
M  V30 13833 H 1368.86 3.1395 2.99362 0
M  V30 13834 H 1369.53 3.01668 4.62277 0
M  V30 13835 H 1372 1.19854 3.98465 0
M  V30 13836 H 1370.88 1.15057 5.36706 0
M  V30 13837 H 1371.14 -0.299601 4.41084 0
M  V30 13838 N 1370.2 -1.34667 0.818693 0
M  V30 13839 C 1371.16 -2.27908 0.243037 0
M  V30 13840 C 1372.16 -1.50106 -0.576622 0
M  V30 13841 O 1373.35 -1.69701 -0.393342 0
M  V30 13842 C 1370.48 -3.34455 -0.659759 0
M  V30 13843 H 1371.68 -2.80332 1.06555 0
M  V30 13844 H 1369.23 -1.44727 0.590237 0
M  V30 13845 H 1369.96 -2.87238 -1.50549 0
M  V30 13846 H 1369.75 -3.92031 -0.073567 0
M  V30 13847 H 1371.24 -4.04016 -1.05646 0
M  V30 13848 N 1371.68 -0.573274 -1.46804 0
M  V30 13849 C 1372.64 0.155066 -2.28675 0
M  V30 13850 C 1373.64 0.827706 -1.37861 0
M  V30 13851 O 1374.83 0.681105 -1.60333 0
M  V30 13852 C 1371.96 1.22864 -3.1799 0
M  V30 13853 H 1373.15 -0.564305 -2.94543 0
M  V30 13854 H 1370.71 -0.330855 -1.52758 0
M  V30 13855 H 1371.44 1.97989 -2.56848 0
M  V30 13856 H 1371.23 0.750936 -3.84842 0
M  V30 13857 H 1372.72 1.73974 -3.79635 0
M  V30 13858 N 1373.15 1.5451 -0.310553 0
M  V30 13859 C 1374.1 2.25332 0.576928 0
M  V30 13860 C 1375.1 1.26272 1.12924 0
M  V30 13861 O 1376.3 1.44092 1.07878 0
M  V30 13862 H 1372.68 0.723611 0.204674 0
M  V30 13863 H 1374.65 2.98369 -0.0428167 0
M  V30 13864 C 1373.4 3.01455 1.73263 0
M  V30 13865 H 1372.72 3.7749 1.31688 0
M  V30 13866 H 1374.16 3.54276 2.32947 0
M  V30 13867 C 1372.62 2.08984 2.64248 0
M  V30 13868 O 1373.15 1.66414 3.65608 0
M  V30 13869 N 1371.36 1.74742 2.32193 0
M  V30 13870 H 1370.9 2.09558 1.49811 0
M  V30 13871 H 1370.86 1.13148 2.93334 0
M  V30 13872 N 1374.63 0.0384594 1.57553 0
M  V30 13873 C 1375.57 -0.969185 2.077 0
M  V30 13874 C 1376.58 -1.2829 1.00227 0
M  V30 13875 O 1377.77 -1.24592 1.27824 0
M  V30 13876 C 1374.87 -2.29414 2.49444 0
M  V30 13877 C 1374.04 -2.16422 3.80106 0
M  V30 13878 C 1373.1 -3.31931 4.08299 0
M  V30 13879 O 1372.13 -3.08401 4.78412 0
M  V30 13880 N 1373.33 -4.56015 3.59208 0
M  V30 13881 H 1376.09 -0.541252 2.94772 0
M  V30 13882 H 1373.65 -0.148084 1.61221 0
M  V30 13883 H 1375.65 -3.05533 2.6539 0
M  V30 13884 H 1374.22 -2.63817 1.67688 0
M  V30 13885 H 1373.44 -1.24973 3.73866 0
M  V30 13886 H 1374.72 -2.04954 4.65694 0
M  V30 13887 H 1374.12 -4.78025 3.02503 0
M  V30 13888 H 1372.68 -5.29271 3.80415 0
M  V30 13889 N 1376.11 -1.55841 -0.234795 0
M  V30 13890 C 1377.06 -1.91326 -1.29086 0
M  V30 13891 C 1378.03 -0.768868 -1.47233 0
M  V30 13892 O 1379.21 -1.0236 -1.61019 0
M  V30 13893 C 1376.35 -2.22388 -2.6389 0
M  V30 13894 C 1375.47 -3.49693 -2.5365 0
M  V30 13895 C 1374.6 -3.70267 -3.80889 0
M  V30 13896 C 1373.64 -4.91132 -3.65317 0
M  V30 13897 N 1372.78 -5.08163 -4.84474 0
M  V30 13898 H 1377.62 -2.81382 -0.981246 0
M  V30 13899 H 1375.15 -1.3928 -0.47324 0
M  V30 13900 H 1377.11 -2.38404 -3.42373 0
M  V30 13901 H 1375.74 -1.35521 -2.92974 0
M  V30 13902 H 1374.79 -3.41943 -1.66672 0
M  V30 13903 H 1376.11 -4.38326 -2.38059 0
M  V30 13904 H 1375.26 -3.86308 -4.67815 0
M  V30 13905 H 1374 -2.7989 -3.9939 0
M  V30 13906 H 1373 -4.75054 -2.76774 0
M  V30 13907 H 1374.23 -5.8298 -3.48298 0
M  V30 13908 H 1372.18 -4.20726 -5.03314 0
M  V30 13909 H 1372.09 -5.90904 -4.71559 0
M  V30 13910 H 1373.36 -5.28627 -5.72865 0
M  V30 13911 N 1377.59 0.500963 -1.49426 0
M  V30 13912 C 1378.84 1.25261 -1.58601 0
M  V30 13913 C 1379.16 1.93056 -0.274647 0
M  V30 13914 O 1378.43 1.82736 0.706003 0
M  V30 13915 H 1377.01 0.465328 -0.584362 0
M  V30 13916 H 1379.67 0.580588 -1.86052 0
M  V30 13917 H 1378.77 2.01652 -2.38208 0
M  V30 13918 N 1379.07 1.38501 0.752011 0
M  V30 13919 C 1380.32 1.34112 1.50655 0
M  V30 13920 C 1380.63 -0.0657661 1.95489 0
M  V30 13921 O 1381.84 -0.232199 2.70505 0
M  V30 13922 C 1380.29 2.35514 2.72142 0
M  V30 13923 C 1379.9 3.81831 2.34326 0
M  V30 13924 C 1381.64 2.40171 3.50026 0
M  V30 13925 C 1379.55 4.74915 3.52434 0
M  V30 13926 H 1378.48 0.498519 0.565681 0
M  V30 13927 H 1381.13 1.64064 0.821913 0
M  V30 13928 H 1379.51 1.98607 3.42595 0
M  V30 13929 H 1380.69 4.27685 1.7153 0
M  V30 13930 H 1379 3.80308 1.69573 0
M  V30 13931 H 1381.6 3.06913 4.37845 0
M  V30 13932 H 1381.94 1.42111 3.91293 0
M  V30 13933 H 1382.48 2.75884 2.86588 0
M  V30 13934 H 1379.21 5.74176 3.16232 0
M  V30 13935 H 1378.73 4.33753 4.14268 0
M  V30 13936 H 1380.41 4.93003 4.18995 0
M  V30 13937 N 1380.55 -0.980364 1.23396 0
M  V30 13938 C 1381.48 -2.07522 0.972991 0
M  V30 13939 C 1382.49 -1.62714 -0.0530191 0
M  V30 13940 O 1383.68 -1.77564 0.182513 0
M  V30 13941 C 1380.78 -3.35977 0.444126 0
M  V30 13942 C 1379.95 -4.09756 1.53031 0
M  V30 13943 C 1379.01 -5.16488 1.00631 0
M  V30 13944 O 1378.04 -5.43368 1.69529 0
M  V30 13945 N 1379.24 -5.80263 -0.165842 0
M  V30 13946 H 1382 -2.30487 1.91561 0
M  V30 13947 H 1379.57 -1.14706 1.14255 0
M  V30 13948 H 1381.56 -4.04624 0.078617 0
M  V30 13949 H 1380.13 -3.0998 -0.403912 0
M  V30 13950 H 1379.35 -3.35564 2.06858 0
M  V30 13951 H 1380.64 -4.55815 2.26076 0
M  V30 13952 H 1380.03 -5.60811 -0.742162 0
M  V30 13953 H 1378.59 -6.50084 -0.472614 0
M  V30 13954 N 1382.02 -1.04567 -1.17913 0
M  V30 13955 C 1382.95 -0.662066 -2.23917 0
M  V30 13956 C 1383.93 0.33713 -1.66726 0
M  V30 13957 O 1385.12 0.216116 -1.92994 0
M  V30 13958 C 1382.25 -0.029463 -3.47288 0
M  V30 13959 C 1381.2 -0.95274 -4.17261 0
M  V30 13960 C 1380.53 -0.184347 -5.34382 0
M  V30 13961 C 1381.83 -2.2741 -4.70194 0
M  V30 13962 H 1383.52 -1.54826 -2.5626 0
M  V30 13963 H 1381.07 -0.745886 -1.23177 0
M  V30 13964 H 1383.02 0.250654 -4.20654 0
M  V30 13965 H 1381.75 0.891638 -3.14193 0
M  V30 13966 H 1380.41 -1.21732 -3.45799 0
M  V30 13967 H 1380.05 0.73932 -4.97537 0
M  V30 13968 H 1379.75 -0.79949 -5.82136 0
M  V30 13969 H 1381.28 0.0886344 -6.10536 0
M  V30 13970 H 1382.69 -2.05433 -5.35229 0
M  V30 13971 H 1381.09 -2.84265 -5.28501 0
M  V30 13972 H 1382.16 -2.91708 -3.87342 0
M  V30 13973 N 1383.5 1.34231 -0.825823 0
M  V30 13974 C 1384.75 1.9849 -0.415891 0
M  V30 13975 C 1385.08 1.6531 1.01913 0
M  V30 13976 O 1384.36 0.926223 1.7103 0
M  V30 13977 C 1384.64 3.54691 -0.621785 0
M  V30 13978 C 1384.49 3.97603 -2.10313 0
M  V30 13979 C 1385.81 4.4006 -0.0595871 0
M  V30 13980 H 1382.93 0.721032 -0.152582 0
M  V30 13981 H 1385.57 1.5908 -1.03892 0
M  V30 13982 H 1383.72 3.88392 -0.0914439 0
M  V30 13983 H 1385.39 3.74221 -2.69733 0
M  V30 13984 H 1383.64 3.47809 -2.59251 0
M  V30 13985 H 1384.31 5.06352 -2.19799 0
M  V30 13986 H 1386.78 4.12929 -0.512743 0
M  V30 13987 H 1385.66 5.48403 -0.233431 0
M  V30 13988 H 1385.92 4.29798 1.03568 0
M  V30 13989 N 1384.98 0.581051 1.46498 0
M  V30 13990 C 1386.23 0.0658652 2.01993 0
M  V30 13991 C 1386.55 -1.29807 1.45516 0
M  V30 13992 O 1385.82 -1.85177 0.639233 0
M  V30 13993 H 1384.4 0.0213584 0.746695 0
M  V30 13994 H 1387.06 0.756456 1.79621 0
M  V30 13995 H 1386.16 -0.00438128 3.121 0
M  V30 13996 N 1386.46 -1.54343 0.318742 0
M  V30 13997 C 1387.37 -2.27856 -0.558442 0
M  V30 13998 C 1388.38 -1.32029 -1.13333 0
M  V30 13999 O 1389.56 -1.65037 -1.15433 0
M  V30 14000 C 1386.62 -3.01842 -1.70565 0
M  V30 14001 C 1385.69 -4.13245 -1.16305 0
M  V30 14002 C 1384.92 -4.83693 -2.25559 0
M  V30 14003 O 1385.14 -4.53621 -3.4581 0
M  V30 14004 O 1384.08 -5.70708 -1.91249 0
M  V30 14005 H 1387.9 -3.03676 0.0384247 0
M  V30 14006 H 1385.49 -1.4916 0.0845936 0
M  V30 14007 H 1387.37 -3.48189 -2.37365 0
M  V30 14008 H 1386.04 -2.28902 -2.28879 0
M  V30 14009 H 1384.95 -3.71258 -0.460274 0
M  V30 14010 H 1386.28 -4.88214 -0.625111 0
M  V30 14011 N 1387.94 -0.0468143 -1.5753 0
M  V30 14012 C 1388.87 0.927092 -2.14306 0
M  V30 14013 C 1389.85 1.32745 -1.06362 0
M  V30 14014 O 1391.03 1.40293 -1.34281 0
M  V30 14015 C 1388.16 2.20343 -2.68452 0
M  V30 14016 C 1387.12 1.94328 -3.81341 0
M  V30 14017 C 1386.44 3.28379 -4.21985 0
M  V30 14018 C 1387.74 1.26835 -5.06666 0
M  V30 14019 H 1389.44 0.454199 -2.95935 0
M  V30 14020 H 1386.98 0.217029 -1.42355 0
M  V30 14021 H 1388.93 2.8887 -3.0681 0
M  V30 14022 H 1387.66 2.6983 -1.84009 0
M  V30 14023 H 1386.32 1.28214 -3.43448 0
M  V30 14024 H 1385.97 3.75658 -3.34499 0
M  V30 14025 H 1385.67 3.11772 -4.98068 0
M  V30 14026 H 1387.19 3.98145 -4.6294 0
M  V30 14027 H 1388.6 1.85389 -5.42498 0
M  V30 14028 H 1387 1.20569 -5.87863 0
M  V30 14029 H 1388.07 0.243759 -4.84287 0
M  V30 14030 N 1389.41 1.55964 0.226527 0
M  V30 14031 C 1390.66 1.77944 0.94967 0
M  V30 14032 C 1390.98 0.614478 1.85697 0
M  V30 14033 O 1392.18 0.717793 2.6184 0
M  V30 14034 C 1390.64 3.15108 1.73881 0
M  V30 14035 C 1390.25 4.39314 0.877894 0
M  V30 14036 C 1391.99 3.46418 2.45347 0
M  V30 14037 C 1389.9 5.67505 1.6641 0
M  V30 14038 H 1388.83 0.663412 0.35833 0
M  V30 14039 H 1391.48 1.82366 0.203695 0
M  V30 14040 H 1389.86 3.04849 2.52751 0
M  V30 14041 H 1391.03 4.60616 0.130089 0
M  V30 14042 H 1389.35 4.15487 0.2756 0
M  V30 14043 H 1391.95 4.39416 3.0466 0
M  V30 14044 H 1392.29 2.68685 3.17985 0
M  V30 14045 H 1392.82 3.57984 1.73471 0
M  V30 14046 H 1389.56 6.48116 0.981089 0
M  V30 14047 H 1389.08 5.50272 2.38665 0
M  V30 14048 H 1390.76 6.075 2.22605 0
M  V30 14049 N 1390.89 -0.493031 1.4969 0
M  V30 14050 C 1392.14 -1.24418 1.59263 0
M  V30 14051 C 1392.46 -1.92908 0.284882 0
M  V30 14052 O 1391.73 -1.83108 -0.696302 0
M  V30 14053 H 1390.31 -0.462223 0.586821 0
M  V30 14054 H 1392.97 -0.570713 1.86357 0
M  V30 14055 H 1392.07 -2.00386 2.39274 0
M  V30 14056 N 1392.37 -1.38898 -0.744656 0
M  V30 14057 C 1393.3 -1.32739 -1.8685 0
M  V30 14058 C 1394.32 -0.23793 -1.61052 0
M  V30 14059 O 1395.5 -0.496166 -1.71466 0
M  V30 14060 C 1392.6 -1.03602 -3.22676 0
M  V30 14061 C 1391.78 -2.23634 -3.75908 0
M  V30 14062 C 1390.84 -1.91103 -4.90271 0
M  V30 14063 O 1389.86 -2.6369 -5.04437 0
M  V30 14064 N 1391.06 -0.871358 -5.73923 0
M  V30 14065 H 1393.83 -2.29585 -1.92641 0
M  V30 14066 H 1391.39 -1.32875 -0.924979 0
M  V30 14067 H 1393.38 -0.798755 -3.96739 0
M  V30 14068 H 1391.95 -0.155218 -3.12214 0
M  V30 14069 H 1391.17 -2.63371 -2.93307 0
M  V30 14070 H 1392.46 -3.0372 -4.08205 0
M  V30 14071 H 1391.86 -0.269591 -5.65057 0
M  V30 14072 H 1390.42 -0.693984 -6.48095 0
M  V30 14073 N 1393.85 0.973806 -1.23914 0
M  V30 14074 C 1395.08 1.74853 -1.10046 0
M  V30 14075 C 1395.49 1.85927 0.350388 0
M  V30 14076 O 1394.83 1.34252 1.25388 0
M  V30 14077 C 1394.89 3.18919 -1.65924 0
M  V30 14078 C 1394.56 3.31335 -3.14748 0
M  V30 14079 C 1395.55 3.17141 -4.11968 0
M  V30 14080 C 1393.24 3.55772 -3.54587 0
M  V30 14081 C 1395.23 3.27199 -5.47009 0
M  V30 14082 C 1392.92 3.65468 -4.89771 0
M  V30 14083 C 1393.92 3.51193 -5.85792 0
M  V30 14084 O 1393.6 3.60534 -7.18519 0
M  V30 14085 H 1393.34 0.555345 -0.385445 0
M  V30 14086 H 1395.89 1.23168 -1.64374 0
M  V30 14087 H 1394.12 3.71882 -1.06023 0
M  V30 14088 H 1395.81 3.78177 -1.47434 0
M  V30 14089 H 1396.58 2.98153 -3.82531 0
M  V30 14090 H 1392.45 3.65951 -2.80358 0
M  V30 14091 H 1396 3.15974 -6.21937 0
M  V30 14092 H 1391.9 3.83969 -5.18882 0
M  V30 14093 H 1392.66 3.77288 -7.26358 0
M  V30 14094 N 1395.33 1.05191 1.17357 0
M  V30 14095 C 1396.57 0.760479 1.87246 0
M  V30 14096 C 1396.9 -0.714618 1.81434 0
M  V30 14097 O 1396.17 -1.51636 1.24029 0
M  V30 14098 H 1394.75 0.278317 0.693216 0
M  V30 14099 H 1397.41 1.33106 1.42369 0
M  V30 14100 H 1396.5 1.07542 2.92987 0
M  V30 14101 N 1396.8 -1.33791 0.83293 0
M  V30 14102 C 1397.73 -2.31853 0.276846 0
M  V30 14103 C 1398.72 -1.58702 -0.612184 0
M  V30 14104 O 1399.9 -1.86629 -0.536975 0
M  V30 14105 C 1397.03 -3.42855 -0.55385 0
M  V30 14106 C 1395.98 -4.27333 0.238884 0
M  V30 14107 C 1395.31 -5.29895 -0.715187 0
M  V30 14108 C 1396.61 -5.01692 1.45265 0
M  V30 14109 H 1398.3 -2.78611 1.09618 0
M  V30 14110 H 1395.85 -1.33949 0.528562 0
M  V30 14111 H 1397.8 -4.10479 -0.953133 0
M  V30 14112 H 1396.53 -2.94771 -1.40634 0
M  V30 14113 H 1395.19 -3.61325 0.619656 0
M  V30 14114 H 1394.83 -4.7807 -1.56391 0
M  V30 14115 H 1394.53 -5.87296 -0.188921 0
M  V30 14116 H 1396.06 -6.00387 -1.11211 0
M  V30 14117 H 1397.47 -5.62117 1.12685 0
M  V30 14118 H 1395.87 -5.68715 1.91528 0
M  V30 14119 H 1396.94 -4.30809 2.22558 0
M  V30 14120 N 1398.28 -0.588812 -1.46187 0
M  V30 14121 C 1399.56 -0.00958331 -1.95598 0
M  V30 14122 C 1399.94 1.45294 -1.53144 0
M  V30 14123 O 1399.29 2.14592 -0.785015 0
M  V30 14124 C 1399.5 -0.188018 -3.48493 0
M  V30 14125 C 1400.85 -0.0590152 -4.24559 0
M  V30 14126 O 1401.87 -0.117167 -3.56007 0
M  V30 14127 O 1400.73 0.0715924 -5.46453 0
M  V30 14128 H 1397.82 0.0463708 -0.825699 0
M  V30 14129 H 1400.37 -0.657558 -1.56443 0
M  V30 14130 H 1399.14 -1.20449 -3.723 0
M  V30 14131 H 1398.76 0.496103 -3.94493 0
M  V30 14132 N 1399.76 1.54172 -0.326923 0
M  V30 14133 C 1401.01 2.00926 0.275047 0
M  V30 14134 C 1401.34 1.21469 1.51522 0
M  V30 14135 O 1400.61 0.297871 1.92206 0
M  V30 14136 C 1400.9 3.54967 0.605833 0
M  V30 14137 C 1400.75 4.45147 -0.645279 0
M  V30 14138 C 1402.07 4.16489 1.42213 0
M  V30 14139 H 1399.19 0.730389 0.098495 0
M  V30 14140 H 1401.83 1.84735 -0.444168 0
M  V30 14141 H 1399.98 3.68895 1.21857 0
M  V30 14142 H 1401.65 4.43085 -1.2835 0
M  V30 14143 H 1399.9 4.14686 -1.27349 0
M  V30 14144 H 1400.57 5.50763 -0.36932 0
M  V30 14145 H 1403.04 4.06158 0.904172 0
M  V30 14146 H 1401.92 5.24377 1.62234 0
M  V30 14147 H 1402.18 3.70032 2.41928 0
M  V30 14148 N 1401.24 0.0551678 1.57503 0
M  V30 14149 C 1402.48 -0.618636 1.93134 0
M  V30 14150 C 1402.82 -1.70258 0.934125 0
M  V30 14151 O 1402.09 -1.9446 -0.0392699 0
M  V30 14152 C 1402.38 -1.21103 3.39126 0
M  V30 14153 C 1402.23 -0.134865 4.49598 0
M  V30 14154 C 1403.55 -2.12148 3.85592 0
M  V30 14155 H 1400.67 -0.223416 0.702321 0
M  V30 14156 H 1403.31 0.117748 1.89635 0
M  V30 14157 H 1401.46 -1.83862 3.42238 0
M  V30 14158 H 1403.13 0.497292 4.58612 0
M  V30 14159 H 1401.37 0.536587 4.30469 0
M  V30 14160 H 1402.04 -0.589447 5.48844 0
M  V30 14161 H 1404.52 -1.59346 3.8438 0
M  V30 14162 H 1403.4 -2.50539 4.88387 0
M  V30 14163 H 1403.66 -3.02318 3.22578 0
M  V30 14164 N 1402.72 -1.56081 -0.218252 0
M  V30 14165 C 1403.65 -1.89176 -1.29403 0
M  V30 14166 C 1404.66 -0.780312 -1.42881 0
M  V30 14167 O 1405.85 -1.05863 -1.4372 0
M  V30 14168 C 1402.95 -2.08818 -2.66923 0
M  V30 14169 C 1402.12 -3.39854 -2.75351 0
M  V30 14170 C 1401.18 -3.48889 -3.93908 0
M  V30 14171 O 1400.21 -4.21894 -3.82091 0
M  V30 14172 N 1401.41 -2.80273 -5.08357 0
M  V30 14173 H 1404.18 -2.82047 -1.01338 0
M  V30 14174 H 1401.74 -1.56667 -0.408278 0
M  V30 14175 H 1403.73 -2.12175 -3.44622 0
M  V30 14176 H 1402.3 -1.22557 -2.87574 0
M  V30 14177 H 1401.52 -3.48568 -1.84104 0
M  V30 14178 H 1402.81 -4.26168 -2.77954 0
M  V30 14179 H 1402.2 -2.20744 -5.20854 0
M  V30 14180 H 1400.76 -2.89286 -5.84086 0
M  V30 14181 N 1404.2 0.485086 -1.49949 0
M  V30 14182 C 1405.16 1.56713 -1.67253 0
M  V30 14183 C 1406.16 1.51329 -0.543701 0
M  V30 14184 O 1407.35 1.54198 -0.810472 0
M  V30 14185 C 1404.48 2.9636 -1.68475 0
M  V30 14186 H 1405.67 1.42693 -2.63778 0
M  V30 14187 H 1403.23 0.710473 -1.39219 0
M  V30 14188 H 1403.96 3.1584 -0.735924 0
M  V30 14189 H 1403.75 3.01675 -2.50469 0
M  V30 14190 H 1405.24 3.74945 -1.83865 0
M  V30 14191 N 1405.67 1.39291 0.737279 0
M  V30 14192 C 1406.9 1.39457 1.52431 0
M  V30 14193 C 1407.31 -0.0132866 1.89195 0
M  V30 14194 O 1406.65 -0.99443 1.54456 0
M  V30 14195 C 1406.72 2.20125 2.84227 0
M  V30 14196 C 1406.38 3.68778 2.6991 0
M  V30 14197 C 1407.38 4.6191 2.38611 0
M  V30 14198 C 1405.06 4.12336 2.86853 0
M  V30 14199 C 1407.06 5.96581 2.24432 0
M  V30 14200 C 1404.74 5.47083 2.72292 0
M  V30 14201 C 1405.74 6.3902 2.41127 0
M  V30 14202 O 1405.43 7.71287 2.26654 0
M  V30 14203 H 1405.16 0.478281 0.477727 0
M  V30 14204 H 1407.72 1.837 0.918891 0
M  V30 14205 H 1405.95 1.70627 3.47021 0
M  V30 14206 H 1407.63 2.12497 3.45832 0
M  V30 14207 H 1408.4 4.29559 2.25175 0
M  V30 14208 H 1404.28 3.41111 3.10103 0
M  V30 14209 H 1407.82 6.68307 2.00028 0
M  V30 14210 H 1403.72 5.79026 2.85306 0
M  V30 14211 H 1404.49 7.81987 2.41742 0
M  V30 14212 N 1407.15 -0.967221 1.24429 0
M  V30 14213 C 1408.08 -2.06071 0.980314 0
M  V30 14214 C 1409.06 -1.62372 -0.0860829 0
M  V30 14215 O 1410.25 -1.88431 0.0509524 0
M  V30 14216 C 1407.37 -3.35289 0.479452 0
M  V30 14217 C 1406.42 -3.9794 1.53447 0
M  V30 14218 S 1407.25 -4.3551 3.11595 0
M  V30 14219 C 1408.41 -5.67865 2.63212 0
M  V30 14220 H 1408.64 -2.28145 1.90623 0
M  V30 14221 H 1406.17 -1.10519 1.07819 0
M  V30 14222 H 1408.13 -4.10027 0.197103 0
M  V30 14223 H 1406.79 -3.11201 -0.425755 0
M  V30 14224 H 1405.99 -4.91067 1.13445 0
M  V30 14225 H 1405.59 -3.29634 1.76685 0
M  V30 14226 H 1407.88 -6.45405 2.06054 0
M  V30 14227 H 1408.82 -6.12724 3.5493 0
M  V30 14228 H 1409.23 -5.26496 2.03623 0
M  V30 14229 N 1408.63 -1.05812 -1.16797 0
M  V30 14230 C 1409.88 -0.770398 -1.8684 0
M  V30 14231 C 1410.2 0.704986 -1.8181 0
M  V30 14232 O 1409.47 1.50977 -1.24832 0
M  V30 14233 H 1408.05 -0.281989 -0.691731 0
M  V30 14234 H 1410.71 -1.33859 -1.41661 0
M  V30 14235 H 1409.81 -1.09094 -2.92412 0
M  V30 14236 N 1410.11 1.33347 -0.840014 0
M  V30 14237 C 1411.06 2.26668 -0.246093 0
M  V30 14238 C 1412.04 1.49311 0.59958 0
M  V30 14239 O 1413.23 1.71148 0.45136 0
M  V30 14240 C 1410.36 3.38418 0.576924 0
M  V30 14241 C 1409.45 4.23173 -0.280322 0
M  V30 14242 N 1409.84 4.87185 -1.35959 0
M  V30 14243 C 1408.14 4.45949 -0.0675504 0
M  V30 14244 C 1408.84 5.50285 -1.88576 0
M  V30 14245 N 1407.81 5.3048 -1.18707 0
M  V30 14246 H 1411.62 2.73675 -1.0714 0
M  V30 14247 H 1409.13 1.47266 -0.684586 0
M  V30 14248 H 1411.13 4.04262 1.01871 0
M  V30 14249 H 1409.79 2.92958 1.4002 0
M  V30 14250 H 1410.8 4.87707 -1.74248 0
M  V30 14251 H 1407.48 4.11206 0.722188 0
M  V30 14252 H 1408.87 6.11252 -2.78963 0
M  V30 14253 N 1411.59 0.596556 1.45873 0
M  V30 14254 C 1412.83 0.0850976 2.0152 0
M  V30 14255 C 1413.15 -1.28799 1.47208 0
M  V30 14256 O 1414.35 -1.89156 1.94762 0
M  V30 14257 C 1412.81 0.101488 3.59757 0
M  V30 14258 C 1412.42 1.47374 4.23066 0
M  V30 14259 C 1414.16 -0.355303 4.2301 0
M  V30 14260 C 1412.07 1.44711 5.73422 0
M  V30 14261 H 1411 0.0280444 0.753478 0
M  V30 14262 H 1413.65 0.750255 1.67462 0
M  V30 14263 H 1412.03 -0.630108 3.90955 0
M  V30 14264 H 1413.21 2.22617 4.03458 0
M  V30 14265 H 1411.52 1.87171 3.71962 0
M  V30 14266 H 1414.12 -0.394236 5.33245 0
M  V30 14267 H 1414.46 -1.37573 3.92911 0
M  V30 14268 H 1414.99 0.32267 3.96489 0
M  V30 14269 H 1411.73 2.44479 6.08203 0
M  V30 14270 H 1411.25 0.737102 5.95254 0
M  V30 14271 H 1412.93 1.16598 6.36407 0
M  V30 14272 N 1413.06 -1.53996 0.335095 0
M  V30 14273 C 1414 -2.22258 -0.559809 0
M  V30 14274 C 1415.01 -1.22636 -1.07071 0
M  V30 14275 O 1416.2 -1.4904 -0.982312 0
M  V30 14276 C 1413.3 -2.88256 -1.78218 0
M  V30 14277 C 1412.47 -4.14118 -1.40801 0
M  V30 14278 C 1411.53 -4.63603 -2.48915 0
M  V30 14279 O 1410.56 -5.28015 -2.12576 0
M  V30 14280 N 1411.76 -4.3881 -3.80034 0
M  V30 14281 H 1414.52 -2.9969 0.0247521 0
M  V30 14282 H 1412.08 -1.61119 0.158826 0
M  V30 14283 H 1414.08 -3.1828 -2.4996 0
M  V30 14284 H 1412.65 -2.14461 -2.27431 0
M  V30 14285 H 1411.87 -3.90732 -0.521729 0
M  V30 14286 H 1413.15 -4.96005 -1.13388 0
M  V30 14287 H 1412.55 -3.87278 -4.12349 0
M  V30 14288 H 1411.11 -4.73461 -4.47971 0
M  V30 14289 N 1414.54 -0.0635198 -1.57472 0
M  V30 14290 C 1415.5 0.891881 -2.11135 0
M  V30 14291 C 1416.5 1.23182 -1.03358 0
M  V30 14292 O 1417.69 1.16646 -1.2938 0
M  V30 14293 C 1414.83 2.19792 -2.60584 0
M  V30 14294 H 1416.02 0.426461 -2.96852 0
M  V30 14295 H 1413.57 0.185069 -1.552 0
M  V30 14296 H 1414.31 2.70889 -1.78297 0
M  V30 14297 H 1414.09 1.96419 -3.39355 0
M  V30 14298 H 1415.58 2.88203 -3.02206 0
M  V30 14299 N 1416.02 1.56195 0.209972 0
M  V30 14300 C 1416.97 1.94226 1.27981 0
M  V30 14301 C 1417.96 0.825742 1.47912 0
M  V30 14302 O 1419.17 1.01066 1.48949 0
M  V30 14303 H 1415.54 0.617395 0.429333 0
M  V30 14304 H 1417.51 2.83474 0.931946 0
M  V30 14305 C 1416.26 2.28527 2.62051 0
M  V30 14306 H 1415.59 3.1396 2.47526 0
M  V30 14307 H 1417.03 2.59012 3.35692 0
M  V30 14308 C 1415.48 1.11452 3.17931 0
M  V30 14309 O 1416.01 0.381713 3.99882 0
M  V30 14310 N 1414.22 0.895263 2.76466 0
M  V30 14311 H 1413.77 1.4929 2.09929 0
M  V30 14312 H 1413.73 0.113688 3.14194 0
M  V30 14313 N 1417.5 -0.477127 1.50204 0
M  V30 14314 C 1418.46 -1.55824 1.68082 0
M  V30 14315 C 1419.46 -1.51039 0.551719 0
M  V30 14316 O 1420.65 -1.53766 0.818638 0
M  V30 14317 C 1417.78 -2.95462 1.70044 0
M  V30 14318 H 1418.98 -1.41292 2.64531 0
M  V30 14319 H 1416.53 -0.70308 1.39594 0
M  V30 14320 H 1417.26 -3.15445 0.752663 0
M  V30 14321 H 1417.05 -3.00343 2.52065 0
M  V30 14322 H 1418.54 -3.73964 1.85851 0
M  V30 14323 N 1418.98 -1.3968 -0.729882 0
M  V30 14324 C 1419.89 -1.41094 -1.87429 0
M  V30 14325 C 1420.9 -0.305142 -1.71303 0
M  V30 14326 O 1422.08 -0.54744 -1.93817 0
M  V30 14327 C 1419.14 -1.25786 -3.23077 0
M  V30 14328 C 1418.2 -2.46382 -3.5156 0
M  V30 14329 C 1417.44 -2.31795 -4.80735 0
M  V30 14330 O 1417.66 -1.32415 -5.54818 0
M  V30 14331 O 1416.59 -3.20883 -5.09232 0
M  V30 14332 H 1420.42 -2.37571 -1.89192 0
M  V30 14333 H 1418.01 -1.2085 -0.878389 0
M  V30 14334 H 1419.89 -1.19402 -4.0413 0
M  V30 14335 H 1418.56 -0.324065 -3.22074 0
M  V30 14336 H 1417.47 -2.58343 -2.70573 0
M  V30 14337 H 1418.8 -3.38473 -3.57347 0
M  V30 14338 N 1420.45 0.960609 -1.2494 0
M  V30 14339 C 1421.38 2.074 -1.07274 0
M  V30 14340 C 1422.37 1.70092 0.0164365 0
M  V30 14341 O 1423.55 1.93604 -0.151975 0
M  V30 14342 C 1420.68 3.40491 -0.684317 0
M  V30 14343 C 1419.63 3.91784 -1.72306 0
M  V30 14344 C 1418.96 5.21301 -1.18949 0
M  V30 14345 C 1420.26 4.18829 -3.12056 0
M  V30 14346 H 1421.95 2.22438 -2.00404 0
M  V30 14347 H 1419.5 1.06888 -0.964937 0
M  V30 14348 H 1421.45 4.17826 -0.547686 0
M  V30 14349 H 1420.18 3.25374 0.282687 0
M  V30 14350 H 1418.84 3.16613 -1.84802 0
M  V30 14351 H 1418.48 5.02549 -0.212892 0
M  V30 14352 H 1418.18 5.56588 -1.8837 0
M  V30 14353 H 1419.71 6.01238 -1.06513 0
M  V30 14354 H 1421.12 4.86844 -3.02748 0
M  V30 14355 H 1419.52 4.6536 -3.78894 0
M  V30 14356 H 1420.59 3.25333 -3.59564 0
M  V30 14357 N 1421.93 1.0643 1.16234 0
M  V30 14358 C 1422.9 0.680383 2.18869 0
M  V30 14359 C 1423.9 -0.274591 1.58438 0
M  V30 14360 O 1425.09 -0.0567907 1.74107 0
M  V30 14361 C 1422.22 0.00134091 3.409 0
M  V30 14362 H 1423.41 1.58894 2.54347 0
M  V30 14363 H 1420.96 0.859688 1.30534 0
M  V30 14364 H 1421.7 -0.919903 3.1098 0
M  V30 14365 H 1421.48 0.688057 3.86016 0
M  V30 14366 H 1422.97 -0.252938 4.16833 0
M  V30 14367 N 1423.41 -1.329 0.847073 0
M  V30 14368 C 1424.66 -1.97803 0.447417 0
M  V30 14369 C 1424.99 -1.6691 -0.9927 0
M  V30 14370 O 1424.26 -0.953315 -1.69535 0
M  V30 14371 C 1424.55 -3.53657 0.678135 0
M  V30 14372 C 1424.4 -3.94207 2.16612 0
M  V30 14373 C 1425.72 -4.39909 0.129589 0
M  V30 14374 H 1422.84 -0.718514 0.164034 0
M  V30 14375 H 1425.48 -1.57407 1.0641 0
M  V30 14376 H 1423.63 -3.88198 0.153222 0
M  V30 14377 H 1425.3 -3.69883 2.75653 0
M  V30 14378 H 1423.55 -3.43641 2.64752 0
M  V30 14379 H 1424.22 -5.02791 2.27827 0
M  V30 14380 H 1426.69 -4.12061 0.578371 0
M  V30 14381 H 1425.57 -5.47963 0.320648 0
M  V30 14382 H 1425.83 -4.31391 -0.967167 0
M  V30 14383 N 1424.89 -0.604284 -1.45555 0
M  V30 14384 C 1426.3 -0.267665 -1.57339 0
M  V30 14385 C 1426.5 1.22984 -1.59616 0
M  V30 14386 O 1425.56 2.0127 -1.52468 0
M  V30 14387 C 1426.87 -0.935923 -2.85764 0
M  V30 14388 C 1428.42 -0.911531 -2.99433 0
M  V30 14389 C 1428.9 -1.55974 -4.30623 0
M  V30 14390 N 1430.39 -1.52507 -4.37374 0
M  V30 14391 C 1431.12 -1.9958 -5.37546 0
M  V30 14392 N 1430.62 -2.54724 -6.44273 0
M  V30 14393 N 1432.41 -1.90368 -5.28882 0
M  V30 14394 H 1424.56 -1.57666 -1.42321 0
M  V30 14395 H 1426.83 -0.66028 -0.680245 0
M  V30 14396 H 1426.53 -1.99022 -2.89971 0
M  V30 14397 H 1426.41 -0.457194 -3.74419 0
M  V30 14398 H 1428.79 0.134206 -2.94795 0
M  V30 14399 H 1428.87 -1.42849 -2.12197 0
M  V30 14400 H 1428.52 -2.60479 -4.3602 0
M  V30 14401 H 1428.45 -1.01782 -5.1667 0
M  V30 14402 H 1430.94 -1.12221 -3.60853 0
M  V30 14403 H 1431.25 -2.88445 -7.16951 0
M  V30 14404 H 1429.6 -2.58761 -6.45033 0
M  V30 14405 H 1432.79 -1.47029 -4.4441 0
M  V30 14406 H 1432.96 -2.27367 -6.06802 0
M  V30 14407 N 1426.37 1.53816 -0.343257 0
M  V30 14408 C 1427.64 1.9315 0.308609 0
M  V30 14409 C 1428.02 1.27479 1.68263 0
M  V30 14410 O 1427.37 0.425614 2.24501 0
M  V30 14411 C 1427.58 3.46912 0.381176 0
M  V30 14412 C 1428.93 4.19868 0.632153 0
M  V30 14413 O 1429.95 3.53174 0.463303 0
M  V30 14414 O 1428.81 5.38016 0.959237 0
M  V30 14415 H 1425.91 0.807169 0.180022 0
M  V30 14416 H 1428.45 1.65053 -0.394412 0
M  V30 14417 H 1427.22 3.86932 -0.583058 0
M  V30 14418 H 1426.85 3.81175 1.13099 0
M  V30 14419 N 1427.84 0.0718701 1.57436 0
M  V30 14420 C 1428.78 -0.931304 2.08331 0
M  V30 14421 C 1429.76 -1.29106 0.988448 0
M  V30 14422 O 1430.94 -1.40035 1.26184 0
M  V30 14423 C 1428.07 -2.23939 2.54104 0
M  V30 14424 C 1427.11 -2.03119 3.75026 0
M  V30 14425 S 1427.95 -1.29048 5.19718 0
M  V30 14426 C 1429.1 -2.61136 5.68822 0
M  V30 14427 H 1429.33 -0.498236 2.93095 0
M  V30 14428 H 1426.87 -0.140897 1.53756 0
M  V30 14429 H 1428.83 -2.9912 2.81136 0
M  V30 14430 H 1427.49 -2.64371 1.69608 0
M  V30 14431 H 1426.68 -2.99927 4.05043 0
M  V30 14432 H 1426.28 -1.36074 3.48367 0
M  V30 14433 H 1428.57 -3.57224 5.75671 0
M  V30 14434 H 1429.52 -2.35729 6.67711 0
M  V30 14435 H 1429.92 -2.68345 4.9664 0
M  V30 14436 N 1429.32 -1.56304 -0.201686 0
M  V30 14437 C 1430.25 -1.97046 -1.25281 0
M  V30 14438 C 1431.23 -0.841458 -1.47829 0
M  V30 14439 O 1432.42 -1.10529 -1.59678 0
M  V30 14440 C 1429.55 -2.30429 -2.59845 0
M  V30 14441 C 1428.5 -3.46006 -2.5192 0
M  V30 14442 C 1427.83 -3.65047 -3.90697 0
M  V30 14443 C 1429.13 -4.80391 -2.04992 0
M  V30 14444 H 1430.82 -2.85099 -0.914272 0
M  V30 14445 H 1428.37 -1.37166 -0.438359 0
M  V30 14446 H 1430.32 -2.57525 -3.33555 0
M  V30 14447 H 1429.05 -1.39251 -2.95426 0
M  V30 14448 H 1427.7 -3.18991 -1.80667 0
M  V30 14449 H 1427.35 -2.71211 -4.2362 0
M  V30 14450 H 1427.05 -4.42796 -3.86271 0
M  V30 14451 H 1428.58 -3.94512 -4.66039 0
M  V30 14452 H 1429.99 -5.06561 -2.68456 0
M  V30 14453 H 1428.39 -5.61563 -2.11582 0
M  V30 14454 H 1429.46 -4.74416 -1.00288 0
M  V30 14455 N 1430.8 0.469154 -1.50455 0
M  V30 14456 C 1432.22 0.803067 -1.37924 0
M  V30 14457 C 1432.42 1.96708 -0.436837 0
M  V30 14458 O 1431.47 2.52216 0.119823 0
M  V30 14459 C 1432.79 1.11332 -2.79331 0
M  V30 14460 C 1434.33 1.21965 -2.88259 0
M  V30 14461 C 1434.81 1.56302 -4.30504 0
M  V30 14462 N 1436.3 1.6329 -4.33464 0
M  V30 14463 C 1437.03 1.91367 -5.40524 0
M  V30 14464 N 1436.53 2.17451 -6.57789 0
M  V30 14465 N 1438.32 1.92885 -5.2797 0
M  V30 14466 H 1430.47 -0.297928 -2.103 0
M  V30 14467 H 1432.74 -0.0707794 -0.945354 0
M  V30 14468 H 1432.44 0.331052 -3.50138 0
M  V30 14469 H 1432.32 2.04903 -3.16693 0
M  V30 14470 H 1434.7 1.99259 -2.17669 0
M  V30 14471 H 1434.79 0.263692 -2.54437 0
M  V30 14472 H 1434.43 0.795479 -5.01632 0
M  V30 14473 H 1434.36 2.53052 -4.61814 0
M  V30 14474 H 1436.85 1.45164 -3.48907 0
M  V30 14475 H 1437.16 2.38154 -7.35189 0
M  V30 14476 H 1435.51 2.14839 -6.60961 0
M  V30 14477 H 1438.7 1.72005 -4.35353 0
M  V30 14478 H 1438.87 2.1443 -6.11493 0
M  V30 14479 N 1432.28 1.40065 0.722464 0
M  V30 14480 C 1433.24 1.39544 1.81825 0
M  V30 14481 C 1434.24 0.290385 1.58156 0
M  V30 14482 O 1435.43 0.54894 1.65325 0
M  V30 14483 C 1432.56 1.18041 3.19811 0
M  V30 14484 H 1433.76 2.37063 1.83687 0
M  V30 14485 H 1431.31 1.25813 0.927404 0
M  V30 14486 H 1432.04 0.212536 3.23603 0
M  V30 14487 H 1431.83 1.98079 3.38389 0
M  V30 14488 H 1433.32 1.20447 3.99853 0
M  V30 14489 N 1433.76 -0.95397 1.25448 0
M  V30 14490 C 1435 -1.69866 1.10235 0
M  V30 14491 C 1435.33 -1.91204 -0.356552 0
M  V30 14492 O 1434.59 -1.4811 -1.27914 0
M  V30 14493 C 1434.89 -3.08613 1.80258 0
M  V30 14494 C 1434.55 -3.07072 3.30178 0
M  V30 14495 C 1433.21 -3.0636 3.71076 0
M  V30 14496 C 1435.57 -3.00351 4.25956 0
M  V30 14497 C 1432.89 -2.96675 5.06163 0
M  V30 14498 C 1435.25 -2.92209 5.61067 0
M  V30 14499 C 1433.91 -2.89832 6.01293 0
M  V30 14500 H 1433.18 -0.621583 0.40338 0
M  V30 14501 H 1435.83 -1.11448 1.55729 0
M  V30 14502 H 1434.13 -3.70578 1.27197 0
M  V30 14503 H 1435.83 -3.65055 1.6594 0
M  V30 14504 H 1432.42 -3.084 2.97637 0
M  V30 14505 H 1436.6 -3.0002 3.9535 0
M  V30 14506 H 1431.86 -2.93204 5.36508 0
M  V30 14507 H 1436.03 -2.8597 6.34976 0
M  V30 14508 H 1433.66 -2.82084 7.05927 0
M  V30 14509 N 1435.24 -1.07045 -1.15668 0
M  V30 14510 C 1436.48 -0.790172 -1.86013 0
M  V30 14511 C 1436.8 0.685663 -1.82548 0
M  V30 14512 O 1436.07 1.49644 -1.26426 0
M  V30 14513 H 1434.65 -0.28931 -0.688701 0
M  V30 14514 H 1437.32 -1.35354 -1.40233 0
M  V30 14515 H 1436.41 -1.1219 -2.91239 0
M  V30 14516 N 1436.71 1.32449 -0.85411 0
M  V30 14517 C 1437.94 2.01463 -0.471188 0
M  V30 14518 C 1438.36 1.64195 0.931954 0
M  V30 14519 O 1437.71 0.862994 1.60806 0
M  V30 14520 C 1437.76 3.56486 -0.600022 0
M  V30 14521 O 1437.49 3.92414 -1.94789 0
M  V30 14522 C 1438.99 4.42773 -0.216036 0
M  V30 14523 H 1436.21 0.644914 -0.185275 0
M  V30 14524 H 1438.75 1.6904 -1.1509 0
M  V30 14525 H 1436.91 3.87387 0.0319488 0
M  V30 14526 H 1437.32 4.87133 -1.94427 0
M  V30 14527 H 1438.79 5.50843 -0.357186 0
M  V30 14528 H 1439.27 4.31025 0.843468 0
M  V30 14529 H 1439.88 4.1726 -0.823058 0
M  V30 14530 N 1438.19 0.611994 1.45232 0
M  V30 14531 C 1439.42 0.113618 2.07089 0
M  V30 14532 C 1439.84 -1.1947 1.45288 0
M  V30 14533 O 1439.2 -1.72845 0.547207 0
M  V30 14534 C 1439.25 -0.00789978 3.60599 0
M  V30 14535 O 1438.35 -1.05697 3.98625 0
M  V30 14536 H 1437.69 0.076066 0.659629 0
M  V30 14537 H 1440.22 0.843253 1.86415 0
M  V30 14538 H 1440.23 -0.204692 4.07486 0
M  V30 14539 H 1438.91 0.947386 4.04966 0
M  V30 14540 H 1437.48 -0.836291 3.63401 0
M  V30 14541 N 1439.67 -1.53632 0.351409 0
M  V30 14542 C 1441.09 -1.596 -0.000214515 0
M  V30 14543 C 1441.29 -1.36709 -1.4803 0
M  V30 14544 O 1440.34 -1.16524 -2.24006 0
M  V30 14545 C 1441.65 -2.97419 0.443013 0
M  V30 14546 C 1443.2 -3.10485 0.396025 0
M  V30 14547 C 1443.68 -4.50693 0.814843 0
M  V30 14548 N 1445.17 -4.56766 0.76934 0
M  V30 14549 C 1445.9 -5.63418 1.06526 0
M  V30 14550 N 1445.4 -6.77887 1.42974 0
M  V30 14551 N 1447.19 -5.53331 0.988986 0
M  V30 14552 H 1439.34 -1.66765 1.31542 0
M  V30 14553 H 1441.61 -0.781418 0.53674 0
M  V30 14554 H 1441.31 -3.19262 1.47529 0
M  V30 14555 H 1441.19 -3.76781 -0.177725 0
M  V30 14556 H 1443.57 -2.8836 -0.627092 0
M  V30 14557 H 1443.65 -2.33163 1.05207 0
M  V30 14558 H 1443.3 -4.73554 1.83601 0
M  V30 14559 H 1443.23 -5.26424 0.136193 0
M  V30 14560 H 1445.72 -3.74569 0.500623 0
M  V30 14561 H 1446.03 -7.55194 1.64018 0
M  V30 14562 H 1444.38 -6.79314 1.46827 0
M  V30 14563 H 1447.57 -4.62783 0.703526 0
M  V30 14564 H 1447.74 -6.36355 1.22295 0
M  V30 14565 N 1441.15 -0.0802183 -1.57396 0
M  V30 14566 C 1442.08 0.913777 -2.10197 0
M  V30 14567 C 1443.09 1.25588 -1.03593 0
M  V30 14568 O 1444.28 1.21159 -1.31083 0
M  V30 14569 C 1441.38 2.2272 -2.55439 0
M  V30 14570 C 1440.55 2.06268 -3.8571 0
M  V30 14571 C 1439.61 3.20989 -4.16956 0
M  V30 14572 O 1438.64 2.95608 -4.8642 0
M  V30 14573 N 1439.84 4.46331 -3.71172 0
M  V30 14574 H 1442.61 0.462908 -2.96103 0
M  V30 14575 H 1440.17 0.105287 -1.61557 0
M  V30 14576 H 1442.16 2.98389 -2.73397 0
M  V30 14577 H 1440.73 2.59278 -1.74624 0
M  V30 14578 H 1439.95 1.15016 -3.77048 0
M  V30 14579 H 1441.24 1.92535 -4.70965 0
M  V30 14580 H 1440.64 4.69837 -3.15071 0
M  V30 14581 H 1439.19 5.18999 -3.94314 0
M  V30 14582 N 1442.63 1.56409 0.193394 0
M  V30 14583 C 1443.59 1.93822 1.22334 0
M  V30 14584 C 1444.59 0.819513 1.3835 0
M  V30 14585 O 1445.78 1.0869 1.36132 0
M  V30 14586 C 1442.91 2.21375 2.59241 0
M  V30 14587 H 1444.1 2.85967 0.903502 0
M  V30 14588 H 1441.66 1.50125 0.43498 0
M  V30 14589 H 1442.39 1.31874 2.96277 0
M  V30 14590 H 1442.18 3.02899 2.48988 0
M  V30 14591 H 1443.67 2.51319 3.33509 0
M  V30 14592 N 1444.1 -0.461169 1.50702 0
M  V30 14593 C 1445.52 -0.795741 1.38348 0
M  V30 14594 C 1445.72 -1.96473 0.447263 0
M  V30 14595 O 1444.78 -2.52276 -0.106445 0
M  V30 14596 C 1446.09 -1.09849 2.79917 0
M  V30 14597 C 1447.64 -1.20435 2.88902 0
M  V30 14598 C 1448.11 -1.54017 4.31327 0
M  V30 14599 N 1449.6 -1.60989 4.34323 0
M  V30 14600 C 1450.34 -1.88498 5.41531 0
M  V30 14601 N 1449.83 -2.13959 6.58933 0
M  V30 14602 N 1451.63 -1.90082 5.28985 0
M  V30 14603 H 1443.78 0.309076 2.10139 0
M  V30 14604 H 1446.04 0.0757918 0.944965 0
M  V30 14605 H 1445.75 -0.312479 3.50309 0
M  V30 14606 H 1445.62 -2.03221 3.17775 0
M  V30 14607 H 1448.01 -1.98102 2.18723 0
M  V30 14608 H 1448.09 -0.250195 2.54573 0
M  V30 14609 H 1447.73 -0.768865 5.02047 0
M  V30 14610 H 1447.66 -2.50599 4.6315 0
M  V30 14611 H 1450.15 -1.43312 3.49672 0
M  V30 14612 H 1450.47 -2.34251 7.36442 0
M  V30 14613 H 1448.81 -2.11331 6.62091 0
M  V30 14614 H 1452 -1.69693 4.36259 0
M  V30 14615 H 1452.18 -2.11184 6.12622 0
M  V30 14616 N 1445.58 -1.40446 -0.715026 0
M  V30 14617 C 1446.83 -1.3848 -1.47199 0
M  V30 14618 C 1447.15 0.0119198 -1.94996 0
M  V30 14619 O 1446.42 0.966772 -1.70383 0
M  V30 14620 H 1445 -0.509669 -0.54612 0
M  V30 14621 H 1447.66 -1.75505 -0.847588 0
M  V30 14622 H 1446.76 -2.06002 -2.34456 0
M  V30 14623 N 1447.06 0.947303 -1.25952 0
M  V30 14624 C 1447.99 2.0625 -1.09467 0
M  V30 14625 C 1448.97 1.701 -0.00160498 0
M  V30 14626 O 1450.16 1.93432 -0.172501 0
M  V30 14627 C 1447.29 3.39746 -0.720392 0
M  V30 14628 C 1446.24 3.89935 -1.76451 0
M  V30 14629 C 1445.57 5.2001 -1.24472 0
M  V30 14630 C 1446.87 4.15496 -3.16481 0
M  V30 14631 H 1448.56 2.203 -2.02752 0
M  V30 14632 H 1446.11 1.05858 -0.97622 0
M  V30 14633 H 1448.06 4.17221 -0.591972 0
M  V30 14634 H 1446.78 3.25656 0.248161 0
M  V30 14635 H 1445.44 3.14635 -1.8815 0
M  V30 14636 H 1445.09 5.02295 -0.266182 0
M  V30 14637 H 1444.79 5.54559 -1.94263 0
M  V30 14638 H 1446.31 6.00075 -1.12884 0
M  V30 14639 H 1447.73 4.83605 -3.07894 0
M  V30 14640 H 1446.12 4.61315 -3.83808 0
M  V30 14641 H 1447.19 3.21501 -3.62995 0
M  V30 14642 N 1448.54 1.07657 1.15099 0
M  V30 14643 C 1449.95 0.823828 1.67541 0
M  V30 14644 C 1450.3 -0.650601 1.85099 0
M  V30 14645 O 1449.43 -1.50333 1.55657 0
M  V30 14646 C 1450.02 1.4889 3.04331 0
M  V30 14647 C 1448.58 1.28359 3.53837 0
M  V30 14648 C 1447.73 1.55659 2.2949 0
M  V30 14649 H 1450.68 1.23819 0.992699 0
M  V30 14650 H 1450.7 0.911848 3.69412 0
M  V30 14651 H 1450.21 2.56199 2.9152 0
M  V30 14652 H 1448.31 0.230864 3.71884 0
M  V30 14653 H 1448.42 2.00593 4.35085 0
M  V30 14654 H 1446.79 0.977755 2.35185 0
M  V30 14655 H 1447.57 2.64157 2.19263 0
M  V30 14656 N 1450.02 -1.31994 0.861122 0
M  V30 14657 C 1450.95 -2.31214 0.325963 0
M  V30 14658 C 1451.93 -1.59965 -0.578383 0
M  V30 14659 O 1453.11 -1.87726 -0.497268 0
M  V30 14660 C 1450.24 -3.43953 -0.481001 0
M  V30 14661 C 1449.2 -4.2673 0.329474 0
M  V30 14662 C 1448.52 -5.31293 -0.602627 0
M  V30 14663 C 1449.82 -4.98498 1.55874 0
M  V30 14664 H 1451.52 -2.76223 1.15503 0
M  V30 14665 H 1449.06 -1.32797 0.556856 0
M  V30 14666 H 1451.02 -4.12409 -0.86585 0
M  V30 14667 H 1449.74 -2.97687 -1.3435 0
M  V30 14668 H 1448.4 -3.59929 0.696159 0
M  V30 14669 H 1448.05 -4.8128 -1.46215 0
M  V30 14670 H 1447.75 -5.87565 -0.0643044 0
M  V30 14671 H 1449.27 -6.02611 -0.984512 0
M  V30 14672 H 1450.68 -5.596 1.24583 0
M  V30 14673 H 1449.08 -5.64525 2.03548 0
M  V30 14674 H 1450.15 -4.25991 2.31646 0
M  V30 14675 N 1451.49 -0.619688 -1.44906 0
M  V30 14676 C 1452.4 0.0935512 -2.34413 0
M  V30 14677 C 1453.42 0.847738 -1.51952 0
M  V30 14678 O 1454.6 0.802591 -1.84717 0
M  V30 14679 C 1451.66 1.07047 -3.2976 0
M  V30 14680 C 1450.72 0.31691 -4.28129 0
M  V30 14681 C 1449.96 1.24729 -5.1892 0
M  V30 14682 O 1450.18 2.4856 -5.13395 0
M  V30 14683 O 1449.11 0.737799 -5.97361 0
M  V30 14684 H 1452.94 -0.642335 -2.96829 0
M  V30 14685 H 1450.52 -0.379908 -1.44489 0
M  V30 14686 H 1452.41 1.63281 -3.88481 0
M  V30 14687 H 1451.08 1.78717 -2.69893 0
M  V30 14688 H 1449.99 -0.288192 -3.72988 0
M  V30 14689 H 1451.32 -0.359539 -4.90885 0
M  V30 14690 N 1452.97 1.53444 -0.359552 0
M  V30 14691 C 1454.22 2.01464 0.232366 0
M  V30 14692 C 1454.55 1.24656 1.48911 0
M  V30 14693 O 1453.83 0.338574 1.9153 0
M  V30 14694 C 1454.11 3.56172 0.530403 0
M  V30 14695 C 1453.96 4.43678 -0.739556 0
M  V30 14696 C 1455.28 4.19412 1.33347 0
M  V30 14697 H 1452.4 0.732314 0.0829802 0
M  V30 14698 H 1455.04 1.83752 -0.483253 0
M  V30 14699 H 1453.19 3.71396 1.14004 0
M  V30 14700 H 1454.86 4.40263 -1.37719 0
M  V30 14701 H 1453.11 4.11892 -1.36117 0
M  V30 14702 H 1453.78 5.49856 -0.486062 0
M  V30 14703 H 1456.25 4.07984 0.817816 0
M  V30 14704 H 1455.13 5.277 1.51075 0
M  V30 14705 H 1455.39 3.7508 2.34024 0
M  V30 14706 N 1454.45 0.0885642 1.57351 0
M  V30 14707 C 1455.68 -0.588641 1.98871 0
M  V30 14708 C 1456.1 -1.61333 0.967125 0
M  V30 14709 O 1455.46 -1.81183 -0.0652149 0
M  V30 14710 C 1455.51 -1.21877 3.39379 0
M  V30 14711 O 1454.61 -2.33462 3.39955 0
M  V30 14712 H 1453.95 -0.149938 0.64685 0
M  V30 14713 H 1456.48 0.168043 2.03909 0
M  V30 14714 H 1456.49 -1.56163 3.76931 0
M  V30 14715 H 1455.17 -0.468037 4.13258 0
M  V30 14716 H 1453.74 -2.00844 3.14191 0
M  V30 14717 N 1455.93 -1.56509 -0.185096 0
M  V30 14718 C 1457.15 -1.85683 -0.923941 0
M  V30 14719 C 1457.58 -0.673315 -1.75636 0
M  V30 14720 O 1456.94 0.3778 -1.7732 0
M  V30 14721 C 1456.98 -3.13165 -1.78774 0
M  V30 14722 O 1456.09 -2.9442 -2.88775 0
M  V30 14723 H 1455.43 -0.611139 -0.259624 0
M  V30 14724 H 1457.96 -2.0374 -0.187393 0
M  V30 14725 H 1457.97 -3.44216 -2.19042 0
M  V30 14726 H 1456.64 -3.98922 -1.17619 0
M  V30 14727 H 1455.22 -2.7469 -2.5219 0
M  V30 14728 N 1457.41 0.45317 -1.50944 0
M  V30 14729 C 1458.32 1.57435 -1.73929 0
M  V30 14730 C 1459.33 1.62467 -0.622935 0
M  V30 14731 O 1460.51 1.80004 -0.903365 0
M  V30 14732 C 1457.57 2.93534 -1.84495 0
M  V30 14733 C 1456.63 2.98747 -3.083 0
M  V30 14734 C 1455.87 4.28354 -3.18352 0
M  V30 14735 O 1456.09 5.1986 -2.34738 0
M  V30 14736 O 1455.02 4.39527 -4.11217 0
M  V30 14737 H 1458.85 1.40959 -2.69006 0
M  V30 14738 H 1456.44 0.634545 -1.35255 0
M  V30 14739 H 1458.32 3.74336 -1.93522 0
M  V30 14740 H 1456.99 3.10171 -0.926044 0
M  V30 14741 H 1455.9 2.16958 -3.04762 0
M  V30 14742 H 1457.23 2.87051 -3.99828 0
M  V30 14743 N 1458.88 1.40823 0.707568 0
M  V30 14744 C 1460.16 1.3003 1.46122 0
M  V30 14745 C 1460.54 -0.0776873 2.10957 0
M  V30 14746 O 1459.89 -1.09109 2.00767 0
M  V30 14747 C 1460.1 2.44498 2.49042 0
M  V30 14748 C 1461.45 2.85106 3.14642 0
M  V30 14749 O 1462.47 2.44149 2.59364 0
M  V30 14750 O 1461.33 3.55892 4.14733 0
M  V30 14751 H 1458.42 0.511082 0.650172 0
M  V30 14752 H 1460.97 1.52761 0.739062 0
M  V30 14753 H 1459.74 3.36502 1.99705 0
M  V30 14754 H 1459.37 2.23579 3.28783 0
M  V30 14755 N 1460.36 -0.94061 1.26453 0
M  V30 14756 C 1461.31 -2.02524 1.04728 0
M  V30 14757 C 1462.3 -1.60887 -0.0205193 0
M  V30 14758 O 1463.49 -1.75906 0.196501 0
M  V30 14759 C 1460.62 -3.3644 0.682862 0
M  V30 14760 C 1459.7 -3.84559 1.78815 0
M  V30 14761 N 1460.09 -4.05323 3.02567 0
M  V30 14762 C 1458.39 -4.13478 1.67188 0
M  V30 14763 C 1459.09 -4.45191 3.74406 0
M  V30 14764 N 1458.07 -4.51927 3.02098 0
M  V30 14765 H 1461.87 -2.1659 1.9866 0
M  V30 14766 H 1459.39 -1.12649 1.16978 0
M  V30 14767 H 1461.38 -4.13789 0.508379 0
M  V30 14768 H 1460.04 -3.23744 -0.248973 0
M  V30 14769 H 1461.05 -3.91996 3.38466 0
M  V30 14770 H 1457.73 -4.09567 0.809986 0
M  V30 14771 H 1459.12 -4.69442 4.80701 0
M  V30 14772 N 1461.84 -1.08266 -1.14527 0
M  V30 14773 C 1462.77 -0.655392 -2.18586 0
M  V30 14774 C 1463.75 0.332109 -1.59172 0
M  V30 14775 O 1464.94 0.236315 -1.87013 0
M  V30 14776 C 1462.06 0.0362295 -3.38681 0
M  V30 14777 C 1461.11 -0.91119 -4.16653 0
M  V30 14778 S 1461.94 -2.4171 -4.77846 0
M  V30 14779 C 1463.1 -1.73755 -6.01299 0
M  V30 14780 H 1463.33 -1.53694 -2.54491 0
M  V30 14781 H 1460.86 -0.897499 -1.25636 0
M  V30 14782 H 1462.82 0.428996 -4.08252 0
M  V30 14783 H 1461.48 0.894253 -3.01101 0
M  V30 14784 H 1460.68 -0.374143 -5.02609 0
M  V30 14785 H 1460.28 -1.24478 -3.52677 0
M  V30 14786 H 1462.57 -1.05465 -6.69241 0
M  V30 14787 H 1463.51 -2.5758 -6.59589 0
M  V30 14788 H 1463.92 -1.21153 -5.51346 0
M  V30 14789 N 1463.32 1.31536 -0.86811 0
M  V30 14790 C 1464.6 1.9149 -0.398866 0
M  V30 14791 C 1464.98 1.79008 1.1189 0
M  V30 14792 O 1464.32 1.19659 1.94664 0
M  V30 14793 C 1464.53 3.37771 -0.878173 0
M  V30 14794 C 1465.88 4.14882 -0.903216 0
M  V30 14795 O 1466.91 3.46545 -0.823703 0
M  V30 14796 O 1465.77 5.36936 -1.01794 0
M  V30 14797 H 1462.86 0.818398 -0.118971 0
M  V30 14798 H 1465.41 1.40216 -0.955899 0
M  V30 14799 H 1464.18 3.40861 -1.9217 0
M  V30 14800 H 1463.8 3.96472 -0.299346 0
M  V30 14801 N 1464.8 0.627364 1.44575 0
M  V30 14802 C 1466.07 0.0614392 1.95503 0
M  V30 14803 C 1466.45 -1.41182 1.56942 0
M  V30 14804 O 1465.8 -2.12435 0.841634 0
M  V30 14805 C 1466.01 0.280349 3.47872 0
M  V30 14806 C 1467.36 0.171559 4.24253 0
M  V30 14807 O 1468.38 0.211515 3.55571 0
M  V30 14808 O 1467.24 0.0733152 5.46451 0
M  V30 14809 H 1464.34 -0.0244626 0.826638 0
M  V30 14810 H 1466.88 0.698805 1.54644 0
M  V30 14811 H 1465.66 1.30278 3.68976 0
M  V30 14812 H 1465.28 -0.391336 3.95669 0
M  V30 14813 N 1466.28 -1.53251 0.367684 0
M  V30 14814 C 1467.52 -2.00889 -0.220914 0
M  V30 14815 C 1467.84 -1.25662 -1.4911 0
M  V30 14816 O 1467.11 -0.370491 -1.92365 0
M  V30 14817 H 1465.69 -0.742191 -0.0846233 0
M  V30 14818 H 1468.36 -1.88525 0.494402 0
M  V30 14819 H 1467.45 -3.08891 -0.446414 0
M  V30 14820 N 1467.75 -0.0969077 -1.57302 0
M  V30 14821 C 1468.98 0.578086 -1.99181 0
M  V30 14822 C 1469.4 1.60818 -0.975667 0
M  V30 14823 O 1468.76 1.81215 0.0556054 0
M  V30 14824 C 1468.81 1.20076 -3.40021 0
M  V30 14825 O 1467.91 2.31656 -3.41188 0
M  V30 14826 H 1467.25 0.146506 -0.647636 0
M  V30 14827 H 1469.78 -0.178855 -2.03817 0
M  V30 14828 H 1469.79 1.54162 -3.77754 0
M  V30 14829 H 1468.47 0.446114 -4.135 0
M  V30 14830 H 1467.05 1.99175 -3.15252 0
M  V30 14831 N 1469.23 1.56605 0.176793 0
M  V30 14832 C 1470.64 1.71418 0.739775 0
M  V30 14833 C 1470.99 0.706527 1.83037 0
M  V30 14834 O 1470.12 -0.133259 2.15989 0
M  V30 14835 C 1470.71 3.10799 1.34867 0
M  V30 14836 C 1469.27 3.27315 1.85854 0
M  V30 14837 C 1468.42 2.67371 0.73541 0
M  V30 14838 H 1471.37 1.58626 -0.0485305 0
M  V30 14839 H 1471.39 3.09146 2.21831 0
M  V30 14840 H 1470.9 3.84116 0.554688 0
M  V30 14841 H 1469 2.58947 2.67913 0
M  V30 14842 H 1469.12 4.35002 2.00774 0
M  V30 14843 H 1467.48 2.27035 1.15444 0
M  V30 14844 H 1468.26 3.43268 -0.0466351 0
M  V30 14845 N 1470.71 -0.445159 1.51182 0
M  V30 14846 C 1471.96 -1.19215 1.62698 0
M  V30 14847 C 1472.27 -1.92529 0.345249 0
M  V30 14848 O 1473.48 -2.69367 0.33967 0
M  V30 14849 C 1471.93 -2.16762 2.87302 0
M  V30 14850 C 1471.54 -1.49131 4.2245 0
M  V30 14851 C 1473.29 -2.91942 3.08172 0
M  V30 14852 C 1471.19 -2.45117 5.38212 0
M  V30 14853 H 1470.12 -0.448687 0.605967 0
M  V30 14854 H 1472.77 -0.459956 1.77642 0
M  V30 14855 H 1471.16 -2.93383 2.65975 0
M  V30 14856 H 1472.33 -0.781222 4.54129 0
M  V30 14857 H 1470.64 -0.861342 4.07394 0
M  V30 14858 H 1473.24 -3.6383 3.91832 0
M  V30 14859 H 1473.58 -3.52837 2.20934 0
M  V30 14860 H 1474.12 -2.22429 3.29803 0
M  V30 14861 H 1470.86 -1.88923 6.27685 0
M  V30 14862 H 1470.38 -3.14202 5.10918 0
M  V30 14863 H 1472.06 -3.06411 5.69843 0
M  V30 14864 N 1472.19 -1.41197 -0.700089 0
M  V30 14865 C 1473.6 -1.23567 -1.01012 0
M  V30 14866 C 1473.8 -0.121821 -2.01131 0
M  V30 14867 O 1472.86 0.515258 -2.47187 0
M  V30 14868 C 1474.17 -2.58329 -1.53904 0
M  V30 14869 C 1475.72 -2.65473 -1.65811 0
M  V30 14870 C 1476.2 -4.00541 -2.22106 0
M  V30 14871 N 1477.69 -4.02364 -2.29472 0
M  V30 14872 C 1478.42 -5.03672 -2.74048 0
M  V30 14873 N 1477.92 -6.15371 -3.18262 0
M  V30 14874 N 1479.71 -4.91035 -2.73571 0
M  V30 14875 H 1471.86 -2.12368 -0.0367488 0
M  V30 14876 H 1474.12 -0.944713 -0.0788795 0
M  V30 14877 H 1473.83 -3.40565 -0.877964 0
M  V30 14878 H 1473.7 -2.805 -2.5219 0
M  V30 14879 H 1476.09 -1.83598 -2.31032 0
M  V30 14880 H 1476.17 -2.47117 -0.660831 0
M  V30 14881 H 1475.82 -4.82862 -1.57502 0
M  V30 14882 H 1475.75 -4.16235 -3.22577 0
M  V30 14883 H 1478.24 -3.21713 -1.98265 0
M  V30 14884 H 1478.55 -6.88548 -3.50888 0
M  V30 14885 H 1476.9 -6.18914 -3.16182 0
M  V30 14886 H 1480.09 -4.02858 -2.38376 0
M  V30 14887 H 1480.26 -5.70127 -3.07993 0
M  V30 14888 N 1473.67 0.933891 -1.2695 0
M  V30 14889 C 1474.6 2.05078 -1.11649 0
M  V30 14890 C 1475.58 1.70089 -0.0196463 0
M  V30 14891 O 1476.76 1.93239 -0.193007 0
M  V30 14892 C 1473.89 3.38963 -0.756387 0
M  V30 14893 C 1472.85 3.88041 -1.80577 0
M  V30 14894 C 1472.17 5.18661 -1.2998 0
M  V30 14895 C 1473.47 4.12116 -3.2087 0
M  V30 14896 H 1475.17 2.18137 -2.05077 0
M  V30 14897 H 1472.71 1.04817 -0.987392 0
M  V30 14898 H 1474.66 4.1657 -0.63619 0
M  V30 14899 H 1473.39 3.25901 0.213607 0
M  V30 14900 H 1472.05 3.12622 -1.91477 0
M  V30 14901 H 1471.7 5.01985 -0.319442 0
M  V30 14902 H 1471.4 5.52467 -2.00134 0
M  V30 14903 H 1472.92 5.98844 -1.19242 0
M  V30 14904 H 1474.33 4.80312 -3.13006 0
M  V30 14905 H 1472.73 4.57218 -3.88679 0
M  V30 14906 H 1473.8 3.17633 -3.66384 0
M  V30 14907 N 1475.14 1.08871 1.13951 0
M  V30 14908 C 1476.56 0.817282 1.37086 0
M  V30 14909 C 1476.76 -0.571159 1.93236 0
M  V30 14910 O 1475.82 -1.32708 2.14813 0
M  V30 14911 C 1477.13 1.90386 2.32752 0
M  V30 14912 C 1478.68 1.93043 2.46381 0
M  V30 14913 C 1479.15 3.00828 3.4535 0
M  V30 14914 N 1480.64 3.0003 3.52897 0
M  V30 14915 C 1481.38 3.80073 4.29339 0
M  V30 14916 N 1480.87 4.70008 5.08984 0
M  V30 14917 N 1482.67 3.68355 4.24583 0
M  V30 14918 H 1474.82 1.98393 0.758537 0
M  V30 14919 H 1477.08 0.861229 0.396219 0
M  V30 14920 H 1476.79 2.90233 1.9864 0
M  V30 14921 H 1476.66 1.77722 3.32708 0
M  V30 14922 H 1479.05 0.938382 2.79783 0
M  V30 14923 H 1479.13 2.09785 1.4637 0
M  V30 14924 H 1478.77 4.00242 3.1268 0
M  V30 14925 H 1478.7 2.8133 4.45153 0
M  V30 14926 H 1481.19 2.3485 2.96064 0
M  V30 14927 H 1481.51 5.27678 5.64602 0
M  V30 14928 H 1479.85 4.74047 5.08236 0
M  V30 14929 H 1483.04 2.9746 3.61435 0
M  V30 14930 H 1483.22 4.30974 4.83906 0
M  V30 14931 N 1476.62 -1.31073 0.875073 0
M  V30 14932 C 1477.87 -1.96809 0.489273 0
M  V30 14933 C 1478.2 -1.68979 -0.957073 0
M  V30 14934 O 1477.48 -0.989061 -1.67475 0
M  V30 14935 C 1477.76 -3.52139 0.752998 0
M  V30 14936 C 1477.61 -3.89524 2.24925 0
M  V30 14937 C 1478.93 -4.39535 0.222871 0
M  V30 14938 H 1476.05 -0.714873 0.179238 0
M  V30 14939 H 1478.69 -1.55114 1.09725 0
M  V30 14940 H 1476.84 -3.87785 0.23553 0
M  V30 14941 H 1478.51 -3.63953 2.83436 0
M  V30 14942 H 1476.76 -3.37948 2.71981 0
M  V30 14943 H 1477.43 -4.97845 2.38441 0
M  V30 14944 H 1479.9 -4.10741 0.665645 0
M  V30 14945 H 1478.78 -5.47159 0.436806 0
M  V30 14946 H 1479.04 -4.33346 -0.875445 0
M  V30 14947 N 1478.1 -0.635022 -1.4424 0
M  V30 14948 C 1479.03 0.106038 -2.28955 0
M  V30 14949 C 1480.05 0.805076 -1.415 0
M  V30 14950 O 1481.23 0.665872 -1.65615 0
M  V30 14951 C 1478.33 1.17252 -3.1797 0
M  V30 14952 C 1477.51 0.555225 -4.33862 0
M  V30 14953 C 1476.57 1.51618 -5.03883 0
M  V30 14954 O 1475.59 1.03181 -5.5977 0
M  V30 14955 N 1476.79 2.85048 -5.05696 0
M  V30 14956 H 1479.56 -0.620999 -2.93196 0
M  V30 14957 H 1477.12 -0.476466 -1.5473 0
M  V30 14958 H 1479.11 1.81578 -3.61679 0
M  V30 14959 H 1477.68 1.80174 -2.55453 0
M  V30 14960 H 1476.9 -0.266745 -3.93296 0
M  V30 14961 H 1478.19 0.123529 -5.0865 0
M  V30 14962 H 1477.59 3.26977 -4.6163 0
M  V30 14963 H 1476.15 3.44724 -5.5318 0
M  V30 14964 N 1479.58 1.53054 -0.375806 0
M  V30 14965 C 1480.83 2.00584 0.211847 0
M  V30 14966 C 1481.14 1.26692 1.49025 0
M  V30 14967 O 1482.35 1.64863 2.15713 0
M  V30 14968 C 1480.8 3.57345 0.428074 0
M  V30 14969 C 1480.41 4.40125 -0.836299 0
M  V30 14970 C 1482.15 4.13203 0.972825 0
M  V30 14971 C 1480.06 5.88459 -0.589093 0
M  V30 14972 H 1478.99 0.749424 0.0829412 0
M  V30 14973 H 1481.64 1.76666 -0.496126 0
M  V30 14974 H 1480.02 3.77458 1.19756 0
M  V30 14975 H 1481.2 4.31782 -1.60936 0
M  V30 14976 H 1479.51 3.95422 -1.30501 0
M  V30 14977 H 1482.11 5.21669 1.17326 0
M  V30 14978 H 1482.45 3.68441 1.93797 0
M  V30 14979 H 1482.99 3.96928 0.263249 0
M  V30 14980 H 1479.73 6.37517 -1.52485 0
M  V30 14981 H 1479.25 5.99624 0.145285 0
M  V30 14982 H 1480.92 6.46631 -0.218485 0
M  V30 14983 N 1481.06 0.105248 1.57248 0
M  V30 14984 C 1482.28 -0.567515 1.99484 0
M  V30 14985 C 1482.71 -1.60298 0.984182 0
M  V30 14986 O 1482.06 -1.81242 -0.0459944 0
M  V30 14987 C 1482.11 -1.18271 3.40653 0
M  V30 14988 O 1481.22 -2.29843 3.42412 0
M  V30 14989 H 1480.56 -0.143069 0.648404 0
M  V30 14990 H 1483.09 0.189661 2.03719 0
M  V30 14991 H 1483.1 -1.52157 3.78566 0
M  V30 14992 H 1481.77 -0.424179 4.13731 0
M  V30 14993 H 1480.35 -1.975 3.16304 0
M  V30 14994 N 1482.53 -1.56697 -0.168486 0
M  V30 14995 C 1483.46 -1.99659 -1.21073 0
M  V30 14996 C 1484.45 -0.872625 -1.46011 0
M  V30 14997 O 1485.63 -1.13891 -1.57297 0
M  V30 14998 C 1482.76 -2.35889 -2.54899 0
M  V30 14999 C 1481.71 -3.51272 -2.44524 0
M  V30 15000 C 1481.04 -3.73253 -3.82866 0
M  V30 15001 C 1482.34 -4.84631 -1.94756 0
M  V30 15002 H 1484.03 -2.86974 -0.853593 0
M  V30 15003 H 1481.58 -1.38065 -0.409165 0
M  V30 15004 H 1483.53 -2.64542 -3.28017 0
M  V30 15005 H 1482.26 -1.45486 -2.92406 0
M  V30 15006 H 1480.92 -3.22751 -1.7386 0
M  V30 15007 H 1480.56 -2.80136 -4.17772 0
M  V30 15008 H 1480.26 -4.5089 -3.76792 0
M  V30 15009 H 1481.79 -4.04309 -4.57566 0
M  V30 15010 H 1483.2 -5.12142 -2.5765 0
M  V30 15011 H 1481.6 -5.65925 -1.99623 0
M  V30 15012 H 1482.67 -4.76436 -0.902021 0
M  V30 15013 N 1484.01 0.437135 -1.51416 0
M  V30 15014 C 1485.24 1.21359 -1.68187 0
M  V30 15015 C 1485.66 1.84247 -0.378748 0
M  V30 15016 O 1485.02 1.68816 0.661115 0
M  V30 15017 C 1485.07 2.27319 -2.79926 0
M  V30 15018 O 1484.17 3.32807 -2.43543 0
M  V30 15019 H 1483.51 0.355547 -0.560787 0
M  V30 15020 H 1486.04 0.516204 -1.97981 0
M  V30 15021 H 1486.05 2.721 -3.04016 0
M  V30 15022 H 1484.73 1.80923 -3.74486 0
M  V30 15023 H 1483.31 2.93501 -2.30025 0
M  V30 15024 N 1485.49 1.41566 0.692592 0
M  V30 15025 C 1486.42 1.39582 1.81795 0
M  V30 15026 C 1487.44 0.29754 1.60058 0
M  V30 15027 O 1488.62 0.559463 1.69506 0
M  V30 15028 C 1485.72 1.15506 3.18609 0
M  V30 15029 C 1484.9 2.37432 3.67349 0
M  V30 15030 C 1483.96 2.09168 4.82841 0
M  V30 15031 O 1482.98 2.8223 4.94303 0
M  V30 15032 N 1484.18 1.08377 5.70294 0
M  V30 15033 H 1486.95 2.36577 1.83988 0
M  V30 15034 H 1484.51 1.36216 0.875026 0
M  V30 15035 H 1486.5 0.945452 3.93501 0
M  V30 15036 H 1485.07 0.270987 3.11423 0
M  V30 15037 H 1484.29 2.74076 2.8333 0
M  V30 15038 H 1485.58 3.18661 3.96652 0
M  V30 15039 H 1484.98 0.479122 5.63667 0
M  V30 15040 H 1483.54 0.934042 6.45073 0
M  V30 15041 N 1486.97 -0.927146 1.27443 0
M  V30 15042 C 1488.22 -1.67159 1.13589 0
M  V30 15043 C 1488.54 -1.92379 -0.31865 0
M  V30 15044 O 1487.81 -1.53045 -1.22287 0
M  V30 15045 H 1486.39 -0.619524 0.417371 0
M  V30 15046 H 1489.05 -1.11323 1.59979 0
M  V30 15047 H 1488.15 -2.63954 1.66537 0
M  V30 15048 N 1488.45 -1.09474 -1.13372 0
M  V30 15049 C 1489.67 -0.853093 -1.89043 0
M  V30 15050 C 1490.1 0.590075 -1.78605 0
M  V30 15051 O 1489.45 1.41462 -1.13394 0
M  V30 15052 C 1489.5 -1.29359 -3.36599 0
M  V30 15053 O 1488.61 -0.452355 -4.09912 0
M  V30 15054 H 1487.95 -0.308922 -0.587761 0
M  V30 15055 H 1490.48 -1.459 -1.43437 0
M  V30 15056 H 1490.49 -1.27921 -3.87428 0
M  V30 15057 H 1489.16 -2.3446 -3.43513 0
M  V30 15058 H 1487.74 -0.531098 -3.69099 0
M  V30 15059 N 1489.92 1.30607 -0.882012 0
M  V30 15060 C 1490.89 2.26489 -0.351498 0
M  V30 15061 C 1491.89 1.52686 0.504348 0
M  V30 15062 O 1493.08 1.71385 0.311928 0
M  V30 15063 C 1490.21 3.37222 0.499435 0
M  V30 15064 H 1491.4 2.74929 -1.19809 0
M  V30 15065 H 1488.96 1.41746 -0.658616 0
M  V30 15066 H 1489.69 2.94093 1.36673 0
M  V30 15067 H 1489.48 3.91936 -0.11356 0
M  V30 15068 H 1490.97 4.08596 0.862497 0
M  V30 15069 N 1491.4 0.642663 1.43901 0
M  V30 15070 C 1492.65 0.152003 2.0223 0
M  V30 15071 C 1492.98 -1.22711 1.50518 0
M  V30 15072 O 1492.26 -1.817 0.693937 0
M  V30 15073 C 1492.54 0.151278 3.59782 0
M  V30 15074 C 1492.39 1.56356 4.2175 0
M  V30 15075 C 1493.71 -0.518016 4.37041 0
M  V30 15076 H 1490.83 0.0567094 0.734815 0
M  V30 15077 H 1493.47 0.821337 1.7133 0
M  V30 15078 H 1491.62 -0.418679 3.86237 0
M  V30 15079 H 1493.29 2.18329 4.06362 0
M  V30 15080 H 1491.54 2.11401 3.78803 0
M  V30 15081 H 1492.21 1.51499 5.30803 0
M  V30 15082 H 1494.68 -0.0331947 4.16087 0
M  V30 15083 H 1493.56 -0.487754 5.46729 0
M  V30 15084 H 1493.82 -1.59036 4.12504 0
M  V30 15085 N 1492.88 -1.52852 0.383918 0
M  V30 15086 C 1494.13 -2.0151 -0.199989 0
M  V30 15087 C 1494.46 -1.27058 -1.47263 0
M  V30 15088 O 1493.71 -0.357819 -1.92401 0
M  V30 15089 C 1494.01 -3.53602 -0.519674 0
M  V30 15090 C 1493.68 -4.46032 0.660789 0
M  V30 15091 C 1492.34 -4.71018 0.984646 0
M  V30 15092 C 1494.69 -5.00602 1.45077 0
M  V30 15093 C 1492.02 -5.47824 2.10013 0
M  V30 15094 C 1494.37 -5.78627 2.55682 0
M  V30 15095 C 1493.03 -6.01894 2.88582 0
M  V30 15096 H 1492.3 -0.737377 -0.0731812 0
M  V30 15097 H 1494.95 -1.843 0.520157 0
M  V30 15098 H 1493.26 -3.68856 -1.32108 0
M  V30 15099 H 1494.95 -3.88739 -0.984011 0
M  V30 15100 H 1491.54 -4.26745 0.398359 0
M  V30 15101 H 1495.73 -4.81228 1.21381 0
M  V30 15102 H 1490.98 -5.64066 2.3588 0
M  V30 15103 H 1495.16 -6.19914 3.173 0
M  V30 15104 H 1492.78 -6.61192 3.75138 0
M  V30 15105 N 1494.36 -0.113586 -1.5719 0
M  V30 15106 C 1495.64 0.588987 -1.86522 0
M  V30 15107 C 1496.02 1.85163 -1.01379 0
M  V30 15108 O 1495.36 2.28318 -0.0912188 0
M  V30 15109 C 1495.57 0.886633 -3.3755 0
M  V30 15110 C 1496.92 1.24206 -4.06027 0
M  V30 15111 O 1497.95 0.977068 -3.42537 0
M  V30 15112 O 1496.81 1.73914 -5.18089 0
M  V30 15113 H 1493.9 0.296637 -0.771968 0
M  V30 15114 H 1496.45 -0.147681 -1.69056 0
M  V30 15115 H 1495.22 -0.00835421 -3.91299 0
M  V30 15116 H 1494.84 1.67865 -3.60426 0
M  V30 15117 N 1495.84 1.56784 0.160173 0
M  V30 15118 C 1497.08 1.82621 0.874982 0
M  V30 15119 C 1497.41 0.692427 1.81757 0
M  V30 15120 O 1496.67 -0.319535 1.93074 0
M  V30 15121 C 1496.97 3.14703 1.69402 0
M  V30 15122 C 1496.63 4.41839 0.899373 0
M  V30 15123 C 1495.29 4.7637 0.680099 0
M  V30 15124 C 1497.65 5.20072 0.342747 0
M  V30 15125 C 1494.97 5.86603 -0.106723 0
M  V30 15126 C 1497.33 6.3113 -0.431044 0
M  V30 15127 C 1495.99 6.64219 -0.661017 0
M  V30 15128 H 1495.26 0.668256 0.320178 0
M  V30 15129 H 1497.91 1.90993 0.139305 0
M  V30 15130 H 1496.21 3.01723 2.49941 0
M  V30 15131 H 1497.91 3.31906 2.25032 0
M  V30 15132 H 1494.5 4.14761 1.08033 0
M  V30 15133 H 1498.68 4.9378 0.499467 0
M  V30 15134 H 1493.94 6.1069 -0.294528 0
M  V30 15135 H 1498.11 6.9095 -0.869557 0
M  V30 15136 H 1495.74 7.49473 -1.27257 0
M  V30 15137 N 1497.32 -0.429099 1.51646 0
M  V30 15138 C 1498.54 -1.20465 1.68828 0
M  V30 15139 C 1498.97 -1.84044 0.388514 0
M  V30 15140 O 1498.32 -1.69165 -0.652152 0
M  V30 15141 C 1498.37 -2.25831 2.81128 0
M  V30 15142 O 1497.48 -3.31511 2.45305 0
M  V30 15143 H 1496.82 -0.352568 0.562665 0
M  V30 15144 H 1499.35 -0.505698 1.98252 0
M  V30 15145 H 1499.36 -2.70484 3.05455 0
M  V30 15146 H 1498.03 -1.78934 3.7544 0
M  V30 15147 H 1496.61 -2.92277 2.31579 0
M  V30 15148 N 1498.79 -1.41931 -0.685074 0
M  V30 15149 C 1500.04 -1.41571 -1.44229 0
M  V30 15150 C 1500.36 -0.0294445 -1.94978 0
M  V30 15151 O 1499.63 0.930414 -1.72395 0
M  V30 15152 H 1498.21 -0.521138 -0.535186 0
M  V30 15153 H 1500.87 -1.77263 -0.81017 0
M  V30 15154 H 1499.97 -2.10929 -2.30034 0
M  V30 15155 N 1500.27 0.920374 -1.27933 0
M  V30 15156 C 1501.5 1.70275 -1.17533 0
M  V30 15157 C 1501.91 1.86904 0.266903 0
M  V30 15158 O 1501.27 1.39131 1.18105 0
M  V30 15159 C 1501.32 3.09847 -1.86219 0
M  V30 15160 O 1501.04 2.93992 -3.24808 0
M  V30 15161 C 1502.54 4.042 -1.82037 0
M  V30 15162 H 1499.76 0.53248 -0.408297 0
M  V30 15163 H 1502.31 1.1524 -1.68938 0
M  V30 15164 H 1500.46 3.61719 -1.38701 0
M  V30 15165 H 1500.88 3.82281 -3.59112 0
M  V30 15166 H 1502.35 4.99621 -2.34697 0
M  V30 15167 H 1502.83 4.32013 -0.791295 0
M  V30 15168 H 1503.43 3.58254 -2.29203 0
M  V30 15169 N 1501.75 1.10074 1.1279 0
M  V30 15170 C 1503 0.839212 1.83852 0
M  V30 15171 C 1503.32 -0.637023 1.84301 0
M  V30 15172 O 1502.59 -1.46239 1.30349 0
M  V30 15173 H 1501.17 0.307468 0.680788 0
M  V30 15174 H 1503.83 1.39025 1.36595 0
M  V30 15175 H 1502.93 1.19872 2.88162 0
M  V30 15176 N 1503.23 -1.30138 0.888926 0
M  V30 15177 C 1504.64 -1.78124 0.559346 0
M  V30 15178 C 1504.99 -1.73046 -0.924633 0
M  V30 15179 O 1504.11 -1.30974 -1.72264 0
M  V30 15180 C 1504.71 -3.2344 1.00856 0
M  V30 15181 C 1503.27 -3.69247 0.730332 0
M  V30 15182 C 1502.42 -2.505 1.18933 0
M  V30 15183 H 1505.37 -1.16952 1.07275 0
M  V30 15184 H 1505.39 -3.78985 0.339219 0
M  V30 15185 H 1504.9 -3.27104 2.08865 0
M  V30 15186 H 1503 -3.71067 -0.337599 0
M  V30 15187 H 1503.11 -4.60538 1.32066 0
M  V30 15188 H 1501.48 -2.47323 0.608568 0
M  V30 15189 H 1502.26 -2.56899 2.27724 0
M  V30 15190 N 1504.71 -0.650285 -1.43559 0
M  V30 15191 C 1505.62 0.0438076 -2.34559 0
M  V30 15192 C 1506.63 0.815316 -1.53716 0
M  V30 15193 O 1507.81 0.76323 -1.86378 0
M  V30 15194 C 1504.87 1.00028 -3.31957 0
M  V30 15195 C 1503.93 0.226027 -4.28705 0
M  V30 15196 C 1503.17 1.13694 -5.21449 0
M  V30 15197 O 1503.39 2.37614 -5.18551 0
M  V30 15198 O 1502.32 0.610924 -5.98792 0
M  V30 15199 H 1506.15 -0.705152 -2.954 0
M  V30 15200 H 1503.73 -0.410471 -1.43651 0
M  V30 15201 H 1505.62 1.55004 -3.91857 0
M  V30 15202 H 1504.29 1.72952 -2.73623 0
M  V30 15203 H 1503.2 -0.367244 -3.72293 0
M  V30 15204 H 1504.53 -0.463582 -4.90012 0
M  V30 15205 N 1506.18 1.52647 -0.392018 0
M  V30 15206 C 1507.43 2.01912 0.18958 0
M  V30 15207 C 1507.76 1.27786 1.46234 0
M  V30 15208 O 1507.04 0.379124 1.90769 0
M  V30 15209 C 1507.32 3.57217 0.454734 0
M  V30 15210 C 1507.17 4.4201 -0.833501 0
M  V30 15211 C 1508.49 4.22146 1.24421 0
M  V30 15212 H 1505.61 0.733909 0.0674281 0
M  V30 15213 H 1508.25 1.82685 -0.52212 0
M  V30 15214 H 1506.4 3.73731 1.06101 0
M  V30 15215 H 1508.08 4.37242 -1.47027 0
M  V30 15216 H 1506.32 4.08912 -1.44823 0
M  V30 15217 H 1506.99 5.48701 -0.602585 0
M  V30 15218 H 1509.47 4.09627 0.731093 0
M  V30 15219 H 1508.34 5.30786 1.39848 0
M  V30 15220 H 1508.6 3.7996 2.26016 0
M  V30 15221 N 1507.66 0.121921 1.57128 0
M  V30 15222 C 1508.91 -0.535371 1.95295 0
M  V30 15223 C 1509.24 -1.665 1.00539 0
M  V30 15224 O 1508.49 -1.95677 0.0298129 0
M  V30 15225 C 1508.79 -1.10579 3.39863 0
M  V30 15226 C 1508.46 -0.0972144 4.50795 0
M  V30 15227 C 1507.12 0.180111 4.80863 0
M  V30 15228 C 1509.47 0.589973 5.1785 0
M  V30 15229 C 1506.8 1.15086 5.75302 0
M  V30 15230 C 1509.15 1.54937 6.13333 0
M  V30 15231 C 1507.82 1.83465 6.41792 0
M  V30 15232 H 1507.09 -0.195906 0.714634 0
M  V30 15233 H 1509.73 0.203445 1.90416 0
M  V30 15234 H 1508.04 -1.92143 3.4145 0
M  V30 15235 H 1509.73 -1.62252 3.66709 0
M  V30 15236 H 1506.32 -0.32355 4.27377 0
M  V30 15237 H 1510.51 0.38889 4.94774 0
M  V30 15238 H 1505.76 1.3786 5.95655 0
M  V30 15239 H 1509.94 2.08751 6.64376 0
M  V30 15240 H 1507.57 2.58841 7.14777 0
M  V30 15241 N 1509.14 -1.56867 -0.151857 0
M  V30 15242 C 1510.39 -1.82721 -0.863575 0
M  V30 15243 C 1510.71 -0.702042 -1.81924 0
M  V30 15244 O 1509.98 0.27668 -1.93936 0
M  V30 15245 H 1508.56 -0.674088 -0.321893 0
M  V30 15246 H 1511.22 -1.94345 -0.14702 0
M  V30 15247 H 1510.32 -2.77476 -1.42876 0
M  V30 15248 N 1510.62 0.421051 -1.51871 0
M  V30 15249 C 1511.57 1.53277 -1.74954 0
M  V30 15250 C 1512.56 1.57792 -0.616282 0
M  V30 15251 O 1513.77 1.61342 -0.798054 0
M  V30 15252 H 1510.14 0.50953 -0.553067 0
M  V30 15253 H 1512.11 1.30988 -2.68113 0
M  V30 15254 C 1510.86 2.90772 -1.90649 0
M  V30 15255 H 1510.18 2.88035 -2.77265 0
M  V30 15256 H 1511.62 3.67882 -2.10805 0
M  V30 15257 C 1510.08 3.30161 -0.670463 0
M  V30 15258 O 1510.61 4.01352 0.167271 0
M  V30 15259 N 1508.82 2.86093 -0.509813 0
M  V30 15260 H 1508.37 2.28329 -1.19262 0
M  V30 15261 H 1508.32 3.12809 0.315918 0
M  V30 15262 N 1512.1 1.42293 0.677538 0
M  V30 15263 C 1513.03 1.48344 1.80323 0
M  V30 15264 C 1514.01 0.340276 1.66662 0
M  V30 15265 O 1515.19 0.554209 1.86124 0
M  V30 15266 C 1512.32 1.38247 3.18599 0
M  V30 15267 C 1511.28 2.50562 3.46991 0
M  V30 15268 C 1510.6 2.25524 4.84812 0
M  V30 15269 C 1511.9 3.92877 3.44158 0
M  V30 15270 H 1513.6 2.42558 1.75516 0
M  V30 15271 H 1511.14 1.16746 0.842999 0
M  V30 15272 H 1513.1 1.41089 3.97079 0
M  V30 15273 H 1511.82 0.405255 3.24076 0
M  V30 15274 H 1510.48 2.47032 2.7087 0
M  V30 15275 H 1510.13 1.26102 4.86937 0
M  V30 15276 H 1509.83 3.00797 5.04772 0
M  V30 15277 H 1511.35 2.3011 5.65581 0
M  V30 15278 H 1512.76 3.98024 4.12613 0
M  V30 15279 H 1511.16 4.6798 3.75653 0
M  V30 15280 H 1512.23 4.19743 2.42783 0
M  V30 15281 N 1513.57 -0.913576 1.28419 0
M  V30 15282 C 1514.52 -2.03739 1.1222 0
M  V30 15283 C 1515.52 -1.69349 0.0414309 0
M  V30 15284 O 1516.72 -1.78883 0.200213 0
M  V30 15285 H 1513.1 -0.667554 0.34623 0
M  V30 15286 H 1515.07 -2.14544 2.07397 0
M  V30 15287 C 1513.82 -3.38348 0.801003 0
M  V30 15288 H 1513.14 -3.65304 1.6246 0
M  V30 15289 H 1514.58 -4.1771 0.727611 0
M  V30 15290 C 1513.04 -3.3324 -0.495261 0
M  V30 15291 O 1513.57 -3.71606 -1.52551 0
M  V30 15292 N 1511.78 -2.86335 -0.496054 0
M  V30 15293 H 1511.32 -2.55309 0.342773 0
M  V30 15294 H 1511.28 -2.833 -1.3634 0
M  V30 15295 N 1515.05 -1.1067 -1.12204 0
M  V30 15296 C 1516.02 -0.761145 -2.16193 0
M  V30 15297 C 1517.02 0.215599 -1.59348 0
M  V30 15298 O 1518.21 -0.00786723 -1.74198 0
M  V30 15299 C 1515.34 -0.127863 -3.4066 0
M  V30 15300 H 1516.53 -1.68225 -2.48275 0
M  V30 15301 H 1514.08 -0.907542 -1.27253 0
M  V30 15302 H 1514.82 0.803851 -3.14179 0
M  V30 15303 H 1514.6 -0.83085 -3.83196 0
M  V30 15304 H 1516.09 0.0980593 -4.17485 0
M  V30 15305 N 1516.53 1.29665 -0.895815 0
M  V30 15306 C 1517.94 1.77825 -0.568784 0
M  V30 15307 C 1518.29 1.73534 0.915443 0
M  V30 15308 O 1517.42 1.31885 1.71567 0
M  V30 15309 C 1518.01 3.22901 -1.0257 0
M  V30 15310 C 1516.57 3.68854 -0.749903 0
M  V30 15311 C 1515.72 2.49866 -1.20259 0
M  V30 15312 H 1518.67 1.16381 -1.07894 0
M  V30 15313 H 1518.69 3.788 -0.359312 0
M  V30 15314 H 1518.2 3.25991 -2.10597 0
M  V30 15315 H 1516.3 3.71241 0.317916 0
M  V30 15316 H 1516.42 4.59831 -1.34506 0
M  V30 15317 H 1514.78 2.46997 -0.621676 0
M  V30 15318 H 1515.56 2.55687 -2.29083 0
M  V30 15319 N 1518.01 0.657889 1.43212 0
M  V30 15320 C 1519.42 0.325876 1.56238 0
M  V30 15321 C 1519.62 -1.16975 1.6407 0
M  V30 15322 O 1518.68 -1.95473 1.59833 0
M  V30 15323 C 1519.99 1.04134 2.82093 0
M  V30 15324 C 1521.54 1.02204 2.95844 0
M  V30 15325 C 1522.02 1.71849 4.24537 0
M  V30 15326 N 1523.51 1.68635 4.31412 0
M  V30 15327 C 1524.24 2.19393 5.29768 0
M  V30 15328 N 1523.74 2.7846 6.34375 0
M  V30 15329 N 1525.53 2.09866 5.21452 0
M  V30 15330 H 1517.68 1.62839 1.36371 0
M  V30 15331 H 1519.95 0.685072 0.655271 0
M  V30 15332 H 1519.65 2.09647 2.82385 0
M  V30 15333 H 1519.53 0.595842 3.72464 0
M  V30 15334 H 1521.91 -0.0247029 2.9509 0
M  V30 15335 H 1521.99 1.50627 2.06749 0
M  V30 15336 H 1521.64 2.76482 4.26052 0
M  V30 15337 H 1521.57 1.20888 5.12536 0
M  V30 15338 H 1524.06 1.25536 3.56439 0
M  V30 15339 H 1524.37 3.14855 7.05752 0
M  V30 15340 H 1522.72 2.82523 6.34985 0
M  V30 15341 H 1525.91 1.63422 4.38647 0
M  V30 15342 H 1526.08 2.49732 5.97945 0
M  V30 15343 N 1519.49 -1.52437 0.400108 0
M  V30 15344 C 1520.45 -2.2536 -0.417808 0
M  V30 15345 C 1521.45 -1.27393 -0.981204 0
M  V30 15346 O 1522.64 -1.51406 -0.861503 0
M  V30 15347 C 1519.77 -3.01695 -1.58724 0
M  V30 15348 H 1520.96 -2.99086 0.220782 0
M  V30 15349 H 1518.52 -1.55555 0.152439 0
M  V30 15350 H 1519.25 -2.32295 -2.26295 0
M  V30 15351 H 1519.04 -3.73611 -1.18984 0
M  V30 15352 H 1520.53 -3.57033 -2.16604 0
M  V30 15353 N 1520.96 -0.130252 -1.57061 0
M  V30 15354 C 1522.21 0.525784 -1.95866 0
M  V30 15355 C 1522.54 1.65607 -1.01429 0
M  V30 15356 O 1521.82 1.94426 -0.0535544 0
M  V30 15357 C 1522.1 1.04784 -3.44517 0
M  V30 15358 C 1521.95 -0.0797972 -4.49729 0
M  V30 15359 C 1523.27 1.9351 -3.95275 0
M  V30 15360 H 1520.39 0.189652 -0.71218 0
M  V30 15361 H 1523.03 -0.208091 -1.88857 0
M  V30 15362 H 1521.18 1.67324 -3.50621 0
M  V30 15363 H 1522.86 -0.715535 -4.55717 0
M  V30 15364 H 1521.1 -0.741358 -4.27418 0
M  V30 15365 H 1521.77 0.326915 -5.51031 0
M  V30 15366 H 1524.25 1.40825 -3.91545 0
M  V30 15367 H 1523.12 2.26952 -4.99784 0
M  V30 15368 H 1523.38 2.86583 -3.36634 0
M  V30 15369 N 1522.44 1.56945 0.143535 0
M  V30 15370 C 1523.67 1.87701 0.870401 0
M  V30 15371 C 1524.09 0.718833 1.7458 0
M  V30 15372 O 1523.44 -0.311286 1.79826 0
M  V30 15373 C 1523.49 3.1773 1.72424 0
M  V30 15374 O 1523.22 4.29086 0.884115 0
M  V30 15375 C 1524.72 3.62024 2.55839 0
M  V30 15376 H 1521.94 0.622083 0.251504 0
M  V30 15377 H 1524.48 2.04052 0.135285 0
M  V30 15378 H 1522.64 3.03122 2.41238 0
M  V30 15379 H 1523.05 5.0346 1.47065 0
M  V30 15380 H 1524.52 4.55834 3.11319 0
M  V30 15381 H 1525 2.87481 3.32041 0
M  V30 15382 H 1525.61 3.79338 1.9231 0
M  V30 15383 N 1523.92 -0.412991 1.52093 0
M  V30 15384 C 1524.85 -1.50986 1.78117 0
M  V30 15385 C 1525.83 -1.57925 0.631963 0
M  V30 15386 O 1527.02 -1.73261 0.877168 0
M  V30 15387 C 1524.15 -2.88846 1.92835 0
M  V30 15388 C 1523.1 -2.96759 3.08412 0
M  V30 15389 C 1522.43 -4.36837 3.08347 0
M  V30 15390 C 1523.73 -2.68599 4.47942 0
M  V30 15391 H 1525.42 -1.29459 2.69964 0
M  V30 15392 H 1522.97 -0.621348 1.29905 0
M  V30 15393 H 1524.92 -3.65563 2.09623 0
M  V30 15394 H 1523.64 -3.11658 0.976553 0
M  V30 15395 H 1522.3 -2.22487 2.91368 0
M  V30 15396 H 1521.95 -4.56652 2.10897 0
M  V30 15397 H 1521.65 -4.43056 3.85973 0
M  V30 15398 H 1523.18 -5.15493 3.2726 0
M  V30 15399 H 1524.59 -3.35039 4.65212 0
M  V30 15400 H 1522.99 -2.86199 5.27456 0
M  V30 15401 H 1524.06 -1.64058 4.56304 0
M  V30 15402 N 1525.4 -1.4265 -0.669982 0
M  V30 15403 C 1526.62 -1.46992 -1.46315 0
M  V30 15404 C 1527.05 -0.0840655 -1.87912 0
M  V30 15405 O 1526.41 0.918554 -1.56308 0
M  V30 15406 C 1526.46 -2.40663 -2.6854 0
M  V30 15407 O 1525.56 -1.88132 -3.66988 0
M  V30 15408 H 1524.9 -0.497844 -0.439372 0
M  V30 15409 H 1527.43 -1.8739 -0.821348 0
M  V30 15410 H 1527.44 -2.57405 -3.16554 0
M  V30 15411 H 1526.12 -3.41346 -2.37604 0
M  V30 15412 H 1524.69 -1.80969 -3.26044 0
M  V30 15413 N 1526.88 0.906753 -1.28902 0
M  V30 15414 C 1527.84 1.99158 -1.1344 0
M  V30 15415 C 1528.84 1.60639 -0.0719551 0
M  V30 15416 O 1530.03 1.71267 -0.318317 0
M  V30 15417 C 1527.16 3.32923 -0.733172 0
M  V30 15418 H 1528.36 2.14305 -2.09794 0
M  V30 15419 H 1525.91 1.09034 -1.11988 0
M  V30 15420 H 1526.64 3.23477 0.230826 0
M  V30 15421 H 1526.43 3.62244 -1.50073 0
M  V30 15422 H 1527.92 4.12544 -0.64784 0
M  V30 15423 N 1528.36 1.11264 1.11616 0
M  V30 15424 C 1529.29 0.79149 2.19676 0
M  V30 15425 C 1530.27 -0.239351 1.68408 0
M  V30 15426 O 1531.45 -0.103228 1.93925 0
M  V30 15427 C 1528.58 0.231891 3.46525 0
M  V30 15428 C 1527.54 1.19439 4.10997 0
M  V30 15429 C 1526.86 0.495593 5.32398 0
M  V30 15430 C 1528.16 2.54437 4.56135 0
M  V30 15431 H 1529.86 1.69503 2.46797 0
M  V30 15432 H 1527.4 0.816433 1.18619 0
M  V30 15433 H 1529.35 -0.00497468 4.214 0
M  V30 15434 H 1528.08 -0.706938 3.18857 0
M  V30 15435 H 1526.74 1.41686 3.38113 0
M  V30 15436 H 1526.39 -0.447984 5.01001 0
M  V30 15437 H 1526.09 1.13753 5.76484 0
M  V30 15438 H 1527.61 0.267476 6.10014 0
M  V30 15439 H 1529.02 2.36289 5.22341 0
M  V30 15440 H 1527.42 3.14595 5.11028 0
M  V30 15441 H 1528.49 3.13795 3.69676 0
M  V30 15442 N 1529.83 -1.29188 0.902679 0
M  V30 15443 C 1531.08 -1.94718 0.526082 0
M  V30 15444 C 1531.4 -1.71924 -0.932816 0
M  V30 15445 O 1532.6 -2.31585 -1.41707 0
M  V30 15446 C 1531.06 -3.48723 0.889974 0
M  V30 15447 C 1530.67 -3.80312 2.36784 0
M  V30 15448 C 1532.41 -4.20472 0.58343 0
M  V30 15449 C 1530.32 -5.27574 2.67244 0
M  V30 15450 H 1529.25 -0.728875 0.193019 0
M  V30 15451 H 1531.9 -1.46869 1.10008 0
M  V30 15452 H 1530.28 -3.95242 0.244872 0
M  V30 15453 H 1531.45 -3.44641 3.05875 0
M  V30 15454 H 1529.77 -3.21709 2.64371 0
M  V30 15455 H 1532.37 -5.28864 0.787813 0
M  V30 15456 H 1532.71 -4.13544 -0.478204 0
M  V30 15457 H 1533.24 -3.79693 1.1865 0
M  V30 15458 H 1529.98 -5.39569 3.72217 0
M  V30 15459 H 1529.5 -5.64482 2.0278 0
M  V30 15460 H 1531.18 -5.95199 2.53666 0
M  V30 15461 N 1531.31 -0.665475 -1.42861 0
M  V30 15462 C 1532.54 -0.191722 -2.05709 0
M  V30 15463 C 1532.95 1.15263 -1.50037 0
M  V30 15464 O 1532.29 1.72517 -0.63116 0
M  V30 15465 C 1532.35 -0.0393003 -3.59479 0
M  V30 15466 C 1532.02 -1.31088 -4.37795 0
M  V30 15467 C 1533.02 -2.24232 -4.69058 0
M  V30 15468 C 1530.7 -1.55588 -4.77596 0
M  V30 15469 C 1532.69 -3.4016 -5.39045 0
M  V30 15470 C 1530.38 -2.71807 -5.47325 0
M  V30 15471 C 1531.38 -3.63918 -5.77973 0
M  V30 15472 O 1531.07 -4.78105 -6.46275 0
M  V30 15473 H 1530.8 -0.0929467 -0.66958 0
M  V30 15474 H 1533.35 -0.909904 -1.84146 0
M  V30 15475 H 1531.58 0.734372 -3.79663 0
M  V30 15476 H 1533.27 0.39338 -4.03989 0
M  V30 15477 H 1534.04 -2.06551 -4.38819 0
M  V30 15478 H 1529.92 -0.847686 -4.53139 0
M  V30 15479 H 1533.46 -4.12076 -5.62885 0
M  V30 15480 H 1529.36 -2.89418 -5.76981 0
M  V30 15481 H 1530.13 -4.77529 -6.64762 0
M  V30 15482 N 1532.79 1.52222 -0.408187 0
M  V30 15483 C 1534.03 2.03713 0.167444 0
M  V30 15484 C 1534.39 1.28722 1.42459 0
M  V30 15485 O 1535.59 1.70434 2.0786 0
M  V30 15486 C 1533.87 3.55039 0.410146 0
M  V30 15487 S 1535.42 4.28318 0.953358 0
M  V30 15488 H 1532.24 0.709544 0.0454811 0
M  V30 15489 H 1534.84 1.87281 -0.560888 0
M  V30 15490 H 1533.55 4.07199 -0.511618 0
M  V30 15491 H 1533.08 3.75712 1.16638 0
M  V30 15492 H 1535.09 4.43066 2.23399 0
M  V30 15493 N 1534.27 0.138579 1.5699 0
M  V30 15494 C 1535.2 -0.800568 2.19347 0
M  V30 15495 C 1536.18 -1.26318 1.13921 0
M  V30 15496 O 1537.36 -1.32226 1.42232 0
M  V30 15497 C 1534.49 -2.04317 2.80842 0
M  V30 15498 C 1533.45 -1.71764 3.92022 0
M  V30 15499 C 1532.77 -3.03217 4.40413 0
M  V30 15500 C 1534.07 -0.970789 5.13199 0
M  V30 15501 H 1535.77 -0.280888 2.98079 0
M  V30 15502 H 1533.31 -0.133663 1.43378 0
M  V30 15503 H 1535.27 -2.70491 3.2313 0
M  V30 15504 H 1533.99 -2.58643 1.99428 0
M  V30 15505 H 1532.65 -1.07972 3.50339 0
M  V30 15506 H 1532.3 -3.55517 3.55832 0
M  V30 15507 H 1532 -2.82203 5.15398 0
M  V30 15508 H 1533.52 -3.70477 4.85365 0
M  V30 15509 H 1534.94 -1.53445 5.52384 0
M  V30 15510 H 1533.33 -0.860895 5.93893 0
M  V30 15511 H 1534.4 0.0390088 4.84884 0
M  V30 15512 N 1535.75 -1.57019 -0.13521 0
M  V30 15513 C 1537.16 -1.51949 -0.48824 0
M  V30 15514 C 1537.36 -0.848955 -1.82743 0
M  V30 15515 O 1536.42 -0.424441 -2.48907 0
M  V30 15516 C 1537.73 -2.96719 -0.487673 0
M  V30 15517 C 1539.28 -3.07722 -0.572365 0
M  V30 15518 C 1539.75 -4.54022 -0.602347 0
M  V30 15519 N 1541.24 -4.58413 -0.664242 0
M  V30 15520 C 1541.98 -5.69005 -0.70862 0
M  V30 15521 N 1541.48 -6.89135 -0.711626 0
M  V30 15522 N 1543.27 -5.57069 -0.750399 0
M  V30 15523 H 1535.42 -1.99001 0.742465 0
M  V30 15524 H 1537.68 -0.908116 0.272083 0
M  V30 15525 H 1537.39 -3.49082 0.428363 0
M  V30 15526 H 1537.26 -3.53299 -1.32136 0
M  V30 15527 H 1539.65 -2.55372 -1.47882 0
M  V30 15528 H 1539.73 -2.54166 0.288696 0
M  V30 15529 H 1539.37 -5.07013 0.3 0
M  V30 15530 H 1539.3 -5.05373 -1.48006 0
M  V30 15531 H 1541.8 -3.71936 -0.668739 0
M  V30 15532 H 1542.11 -7.69175 -0.747663 0
M  V30 15533 H 1540.45 -6.91672 -0.679311 0
M  V30 15534 H 1543.64 -4.62129 -0.745301 0
M  V30 15535 H 1543.82 -6.4327 -0.781518 0
M  V30 15536 N 1537.22 0.404919 -1.52309 0
M  V30 15537 C 1538.46 1.1606 -1.68254 0
M  V30 15538 C 1538.83 1.87663 -0.405788 0
M  V30 15539 O 1540.03 2.65151 -0.441388 0
M  V30 15540 C 1538.3 2.12531 -2.87342 0
M  V30 15541 S 1539.86 2.9615 -3.23791 0
M  V30 15542 H 1536.68 0.393113 -0.592438 0
M  V30 15543 H 1539.28 0.4473 -1.90314 0
M  V30 15544 H 1537.98 1.58623 -3.78506 0
M  V30 15545 H 1537.51 2.88395 -2.67567 0
M  V30 15546 H 1539.53 4.14521 -2.7274 0
M  V30 15547 N 1538.7 1.43003 0.662408 0
M  V30 15548 C 1539.63 1.50248 1.78739 0
M  V30 15549 C 1540.61 0.357934 1.66291 0
M  V30 15550 O 1541.8 0.573919 1.85526 0
M  V30 15551 C 1538.93 1.41618 3.17114 0
M  V30 15552 C 1537.88 2.54228 3.44314 0
M  V30 15553 C 1537.21 2.30653 4.82393 0
M  V30 15554 C 1538.51 3.96505 3.39972 0
M  V30 15555 H 1540.2 2.44406 1.72934 0
M  V30 15556 H 1537.75 1.17633 0.830569 0
M  V30 15557 H 1539.7 1.45293 3.9556 0
M  V30 15558 H 1538.43 0.439605 3.23628 0
M  V30 15559 H 1537.08 2.49891 2.68235 0
M  V30 15560 H 1536.73 1.3126 4.85572 0
M  V30 15561 H 1536.43 3.06134 5.01554 0
M  V30 15562 H 1537.96 2.36096 5.63108 0
M  V30 15563 H 1539.37 4.02378 4.08368 0
M  V30 15564 H 1537.77 4.71937 3.70668 0
M  V30 15565 H 1538.84 4.22295 2.38318 0
M  V30 15566 N 1540.18 -0.899904 1.29381 0
M  V30 15567 C 1541.43 -1.65282 1.17515 0
M  V30 15568 C 1541.76 -1.92275 -0.272788 0
M  V30 15569 O 1541.03 -1.53303 -1.19701 0
M  V30 15570 C 1541.32 -3.00207 1.98867 0
M  V30 15571 C 1541.17 -2.80281 3.51799 0
M  V30 15572 C 1542.49 -4.00936 1.81489 0
M  V30 15573 H 1539.61 -0.5998 0.428263 0
M  V30 15574 H 1542.25 -1.04241 1.58852 0
M  V30 15575 H 1540.4 -3.52308 1.63741 0
M  V30 15576 H 1542.07 -2.35082 3.96905 0
M  V30 15577 H 1540.32 -2.15068 3.76733 0
M  V30 15578 H 1540.99 -3.76155 4.03994 0
M  V30 15579 H 1543.46 -3.57944 2.12169 0
M  V30 15580 H 1542.34 -4.9328 2.4076 0
M  V30 15581 H 1542.6 -4.35342 0.770021 0
M  V30 15582 N 1541.66 -1.11854 -1.11024 0
M  V30 15583 C 1542.91 -0.868355 -1.82494 0
M  V30 15584 C 1543.23 0.607622 -1.85292 0
M  V30 15585 O 1542.5 1.44147 -1.32659 0
M  V30 15586 H 1541.08 -0.31826 -0.67581 0
M  V30 15587 H 1543.74 -1.4118 -1.34366 0
M  V30 15588 H 1542.84 -1.24441 -2.86218 0
M  V30 15589 N 1543.14 1.28707 -0.909517 0
M  V30 15590 C 1544.55 1.47605 -0.607045 0
M  V30 15591 C 1544.75 1.8275 0.848815 0
M  V30 15592 O 1543.81 1.92989 1.62823 0
M  V30 15593 C 1545.12 2.58194 -1.54131 0
M  V30 15594 C 1546.67 2.72065 -1.54757 0
M  V30 15595 C 1547.14 3.85793 -2.46835 0
M  V30 15596 N 1548.64 3.93141 -2.44937 0
M  V30 15597 C 1549.37 4.80512 -3.12883 0
M  V30 15598 N 1548.87 5.72504 -3.90142 0
M  V30 15599 N 1550.66 4.74086 -3.01991 0
M  V30 15600 H 1542.81 1.04174 -1.85099 0
M  V30 15601 H 1545.07 0.51843 -0.793684 0
M  V30 15602 H 1544.78 2.39119 -2.57905 0
M  V30 15603 H 1544.65 3.55205 -1.26921 0
M  V30 15604 H 1547.04 2.90532 -0.517219 0
M  V30 15605 H 1547.12 1.75598 -1.86008 0
M  V30 15606 H 1546.77 3.68082 -3.49969 0
M  V30 15607 H 1546.7 4.8165 -2.12888 0
M  V30 15608 H 1549.19 3.2735 -1.88813 0
M  V30 15609 H 1549.5 6.3599 -4.39017 0
M  V30 15610 H 1547.84 5.72358 -3.94248 0
M  V30 15611 H 1551.04 4.01209 -2.4114 0
M  V30 15612 H 1551.21 5.41964 -3.55217 0
M  V30 15613 N 1544.61 0.673042 1.42506 0
M  V30 15614 C 1545.89 0.123606 1.95209 0
M  V30 15615 C 1546.27 -1.36118 1.61354 0
M  V30 15616 O 1545.62 -2.0965 0.908793 0
M  V30 15617 C 1545.83 0.39088 3.46804 0
M  V30 15618 C 1547.18 0.306445 4.23493 0
M  V30 15619 O 1548.2 0.32453 3.54719 0
M  V30 15620 O 1547.06 0.247127 5.45941 0
M  V30 15621 H 1544.15 0.00184868 0.826998 0
M  V30 15622 H 1546.7 0.74765 1.52343 0
M  V30 15623 H 1545.47 1.41951 3.64645 0
M  V30 15624 H 1545.1 -0.265259 3.96714 0
M  V30 15625 N 1546.09 -1.52004 0.416254 0
M  V30 15626 C 1547.34 -2.01076 -0.158591 0
M  V30 15627 C 1547.65 -1.30598 -1.45614 0
M  V30 15628 O 1548.86 -1.70525 -2.11267 0
M  V30 15629 C 1547.32 -3.58354 -0.333179 0
M  V30 15630 C 1546.92 -4.37753 0.952696 0
M  V30 15631 C 1548.67 -4.15637 -0.86293 0
M  V30 15632 C 1546.58 -5.8669 0.744905 0
M  V30 15633 H 1545.51 -0.75136 -0.0630423 0
M  V30 15634 H 1548.16 -1.75288 0.542791 0
M  V30 15635 H 1546.54 -3.805 -1.09706 0
M  V30 15636 H 1547.71 -4.27364 1.72328 0
M  V30 15637 H 1546.03 -3.91823 1.40939 0
M  V30 15638 H 1548.62 -5.24596 -1.03454 0
M  V30 15639 H 1548.97 -3.73449 -1.8396 0
M  V30 15640 H 1549.5 -3.97486 -0.157918 0
M  V30 15641 H 1546.24 -6.3325 1.69334 0
M  V30 15642 H 1545.76 -5.99798 0.0137458 0
M  V30 15643 H 1547.44 -6.45824 0.389851 0
M  V30 15644 N 1547.57 -0.146903 -1.56914 0
M  V30 15645 C 1548.98 0.373938 -1.82917 0
M  V30 15646 C 1549.33 1.64741 -1.06559 0
M  V30 15647 O 1548.46 2.14156 -0.310849 0
M  V30 15648 C 1549.05 0.685213 -3.31799 0
M  V30 15649 C 1547.61 1.15058 -3.58383 0
M  V30 15650 C 1546.76 0.17362 -2.76756 0
M  V30 15651 H 1549.71 -0.371602 -1.54288 0
M  V30 15652 H 1549.73 1.53989 -3.47948 0
M  V30 15653 H 1549.24 -0.241816 -3.87346 0
M  V30 15654 H 1547.34 2.09355 -3.08223 0
M  V30 15655 H 1547.46 1.07662 -4.66847 0
M  V30 15656 H 1545.82 0.666227 -2.45832 0
M  V30 15657 H 1546.6 -0.746998 -3.35074 0
M  V30 15658 N 1549.05 1.57088 0.126881 0
M  V30 15659 C 1549.98 2.02799 1.15737 0
M  V30 15660 C 1550.96 0.911031 1.43646 0
M  V30 15661 O 1552.14 1.18021 1.54223 0
M  V30 15662 C 1549.27 2.42565 2.48555 0
M  V30 15663 C 1548.23 3.57631 2.35125 0
M  V30 15664 C 1547.55 3.83272 3.72836 0
M  V30 15665 C 1548.85 4.89625 1.81838 0
M  V30 15666 H 1550.55 2.89136 0.777207 0
M  V30 15667 H 1548.09 1.39101 0.372416 0
M  V30 15668 H 1550.05 2.73146 3.20888 0
M  V30 15669 H 1548.77 1.53188 2.88446 0
M  V30 15670 H 1547.43 3.27247 1.65242 0
M  V30 15671 H 1547.08 2.91114 4.10197 0
M  V30 15672 H 1546.78 4.60721 3.64705 0
M  V30 15673 H 1548.3 4.16298 4.46686 0
M  V30 15674 H 1549.72 5.18793 2.43981 0
M  V30 15675 H 1548.11 5.71018 1.84548 0
M  V30 15676 H 1549.18 4.7866 0.775385 0
M  V30 15677 N 1550.53 -0.396836 1.52522 0
M  V30 15678 C 1551.47 -1.50474 1.77371 0
M  V30 15679 C 1552.47 -1.56792 0.641307 0
M  V30 15680 O 1553.67 -1.60052 0.823621 0
M  V30 15681 H 1550.05 -0.500667 0.561103 0
M  V30 15682 H 1552.02 -1.26706 2.70163 0
M  V30 15683 C 1550.77 -2.87702 1.95251 0
M  V30 15684 H 1550.09 -2.83588 2.81812 0
M  V30 15685 H 1551.53 -3.64482 2.16631 0
M  V30 15686 C 1549.99 -3.29053 0.722904 0
M  V30 15687 O 1550.52 -4.01567 -0.103398 0
M  V30 15688 N 1548.73 -2.85246 0.555263 0
M  V30 15689 H 1548.27 -2.26403 1.22879 0
M  V30 15690 H 1548.23 -3.13272 -0.266113 0
M  V30 15691 N 1552.01 -1.43353 -0.654814 0
M  V30 15692 C 1552.94 -1.44353 -1.7803 0
M  V30 15693 C 1553.95 -0.339872 -1.59213 0
M  V30 15694 O 1555.14 -0.604207 -1.67963 0
M  V30 15695 C 1552.24 -1.23913 -3.15434 0
M  V30 15696 C 1551.41 -2.47088 -3.60924 0
M  V30 15697 C 1550.47 -2.21896 -4.77126 0
M  V30 15698 O 1549.5 -2.95236 -4.86646 0
M  V30 15699 N 1550.7 -1.23459 -5.6722 0
M  V30 15700 H 1553.46 -2.41372 -1.77651 0
M  V30 15701 H 1551.03 -1.38488 -0.838603 0
M  V30 15702 H 1553.02 -1.04945 -3.90856 0
M  V30 15703 H 1551.59 -0.35346 -3.10595 0
M  V30 15704 H 1550.81 -2.81492 -2.75964 0
M  V30 15705 H 1552.1 -3.29066 -3.88064 0
M  V30 15706 H 1551.49 -0.6284 -5.62199 0
M  V30 15707 H 1550.05 -1.10474 -6.4237 0
M  V30 15708 N 1553.48 0.89303 -1.29857 0
M  V30 15709 C 1554.73 1.64088 -1.17981 0
M  V30 15710 C 1555.05 1.93156 0.267533 0
M  V30 15711 O 1554.32 1.56233 1.18186 0
M  V30 15712 H 1552.9 0.608241 -0.43365 0
M  V30 15713 H 1555.56 1.07042 -1.62874 0
M  V30 15714 H 1554.66 2.59446 -1.73477 0
M  V30 15715 N 1554.96 1.12442 1.10429 0
M  V30 15716 C 1556.2 0.889854 1.84013 0
M  V30 15717 C 1556.57 -0.573951 1.83221 0
M  V30 15718 O 1557.77 -0.925683 2.52358 0
M  V30 15719 C 1556.04 1.44893 3.26712 0
M  V30 15720 S 1557.6 1.35291 4.17423 0
M  V30 15721 H 1554.41 0.321004 0.634411 0
M  V30 15722 H 1557.02 1.43395 1.32884 0
M  V30 15723 H 1555.72 2.50788 3.24859 0
M  V30 15724 H 1555.25 0.902325 3.82912 0
M  V30 15725 H 1557.27 0.324412 4.95138 0
M  V30 15726 N 1556.44 -1.28223 0.91633 0
M  V30 15727 C 1557.37 -2.29623 0.423735 0
M  V30 15728 C 1558.35 -1.62274 -0.510016 0
M  V30 15729 O 1559.54 -1.89666 -0.4172 0
M  V30 15730 C 1556.67 -3.45684 -0.334686 0
M  V30 15731 C 1555.62 -4.24949 0.510169 0
M  V30 15732 C 1554.95 -5.33371 -0.376745 0
M  V30 15733 C 1556.25 -4.91438 1.76877 0
M  V30 15734 H 1557.94 -2.71076 1.27115 0
M  V30 15735 H 1555.49 -1.30316 0.612678 0
M  V30 15736 H 1557.44 -4.1571 -0.690154 0
M  V30 15737 H 1556.16 -3.03118 -1.21603 0
M  V30 15738 H 1554.82 -3.56653 0.848191 0
M  V30 15739 H 1554.47 -4.87048 -1.25671 0
M  V30 15740 H 1554.17 -5.87309 0.18496 0
M  V30 15741 H 1555.69 -6.06244 -0.728039 0
M  V30 15742 H 1557.11 -5.53812 1.48205 0
M  V30 15743 H 1555.5 -5.55384 2.27308 0
M  V30 15744 H 1556.57 -4.15783 2.49505 0
M  V30 15745 N 1557.92 -0.68059 -1.42147 0
M  V30 15746 C 1558.88 -0.0149865 -2.29195 0
M  V30 15747 C 1559.88 0.723163 -1.43621 0
M  V30 15748 O 1561.07 0.560297 -1.64943 0
M  V30 15749 C 1558.2 0.989375 -3.26227 0
M  V30 15750 H 1559.4 -0.781236 -2.89546 0
M  V30 15751 H 1556.95 -0.443256 -1.49883 0
M  V30 15752 H 1557.68 1.78391 -2.70827 0
M  V30 15753 H 1557.47 0.463401 -3.89352 0
M  V30 15754 H 1558.96 1.45334 -3.91494 0
M  V30 15755 N 1559.4 1.51781 -0.424309 0
M  V30 15756 C 1560.81 1.86653 0.0418266 0
M  V30 15757 C 1561.16 1.34224 1.43103 0
M  V30 15758 O 1560.28 0.687684 2.05183 0
M  V30 15759 C 1560.88 3.38699 0.0826759 0
M  V30 15760 C 1559.44 3.73155 0.493186 0
M  V30 15761 C 1558.58 2.75417 -0.322586 0
M  V30 15762 H 1561.53 1.45191 -0.640726 0
M  V30 15763 H 1561.56 3.69828 0.894864 0
M  V30 15764 H 1561.07 3.76829 -0.928536 0
M  V30 15765 H 1559.17 3.4061 1.51048 0
M  V30 15766 H 1559.28 4.78562 0.227032 0
M  V30 15767 H 1557.65 2.53772 0.217262 0
M  V30 15768 H 1558.43 3.16388 -1.33243 0
M  V30 15769 N 1560.87 0.155222 1.56834 0
M  V30 15770 C 1562.12 -0.494557 1.96677 0
M  V30 15771 C 1562.45 -1.63973 1.04051 0
M  V30 15772 O 1561.73 -1.94316 0.0844791 0
M  V30 15773 C 1562.01 -0.992902 3.46141 0
M  V30 15774 C 1561.86 0.151335 4.49545 0
M  V30 15775 C 1563.18 -1.87197 3.98303 0
M  V30 15776 H 1560.3 -0.178298 0.715107 0
M  V30 15777 H 1562.94 0.23811 1.88502 0
M  V30 15778 H 1561.09 -1.61724 3.53239 0
M  V30 15779 H 1562.77 0.787945 4.54521 0
M  V30 15780 H 1561.01 0.809262 4.26185 0
M  V30 15781 H 1561.68 -0.23921 5.51481 0
M  V30 15782 H 1564.16 -1.34578 3.93736 0
M  V30 15783 H 1563.03 -2.18972 5.03331 0
M  V30 15784 H 1563.29 -2.81191 3.41151 0
M  V30 15785 N 1562.35 -1.57153 -0.118549 0
M  V30 15786 C 1563.77 -1.52458 -0.472096 0
M  V30 15787 C 1563.97 -0.868289 -1.81832 0
M  V30 15788 O 1563.02 -0.450817 -2.48443 0
M  V30 15789 C 1564.34 -2.9722 -0.456175 0
M  V30 15790 C 1565.88 -3.08312 -0.539694 0
M  V30 15791 C 1566.36 -4.54635 -0.554158 0
M  V30 15792 N 1567.85 -4.59091 -0.615584 0
M  V30 15793 C 1568.59 -5.69724 -0.64823 0
M  V30 15794 N 1568.08 -6.89852 -0.638494 0
M  V30 15795 N 1569.87 -5.57833 -0.691272 0
M  V30 15796 H 1562.03 -1.98202 0.76353 0
M  V30 15797 H 1564.29 -0.905179 0.281699 0
M  V30 15798 H 1563.99 -3.48608 0.465364 0
M  V30 15799 H 1563.87 -3.5468 -1.28381 0
M  V30 15800 H 1566.26 -2.56926 -1.45165 0
M  V30 15801 H 1566.34 -2.53845 0.315638 0
M  V30 15802 H 1565.98 -5.06667 0.353759 0
M  V30 15803 H 1565.91 -5.06914 -1.42638 0
M  V30 15804 H 1568.4 -3.72624 -0.629253 0
M  V30 15805 H 1568.71 -7.69925 -0.66604 0
M  V30 15806 H 1567.06 -6.92354 -0.605912 0
M  V30 15807 H 1570.25 -4.62893 -0.696244 0
M  V30 15808 H 1570.42 -6.44063 -0.713246 0
M  V30 15809 N 1563.83 0.388742 -1.5273 0
M  V30 15810 C 1565.08 1.13543 -1.68035 0
M  V30 15811 C 1565.41 1.89622 -0.419177 0
M  V30 15812 O 1564.68 1.85556 0.583031 0
M  V30 15813 C 1564.97 2.11346 -2.91556 0
M  V30 15814 C 1564.82 1.39029 -4.27775 0
M  V30 15815 C 1566.14 3.11769 -3.10625 0
M  V30 15816 H 1563.26 0.411406 -0.611485 0
M  V30 15817 H 1565.9 0.418781 -1.85327 0
M  V30 15818 H 1564.05 2.7246 -2.76944 0
M  V30 15819 H 1565.72 0.808775 -4.54155 0
M  V30 15820 H 1563.96 0.692133 -4.28243 0
M  V30 15821 H 1564.64 2.10495 -5.1029 0
M  V30 15822 H 1567.11 2.60745 -3.2427 0
M  V30 15823 H 1565.99 3.77447 -3.98529 0
M  V30 15824 H 1566.25 3.80649 -2.24853 0
M  V30 15825 N 1565.31 1.43698 0.647203 0
M  V30 15826 C 1566.55 1.45849 1.40911 0
M  V30 15827 C 1566.89 0.0846767 1.94015 0
M  V30 15828 O 1566.16 -0.89537 1.72665 0
M  V30 15829 C 1566.44 2.50579 2.58616 0
M  V30 15830 C 1566.3 3.97258 2.10965 0
M  V30 15831 C 1567.62 2.51981 3.60824 0
M  V30 15832 H 1564.74 0.531056 0.511027 0
M  V30 15833 H 1567.38 1.75283 0.733204 0
M  V30 15834 H 1565.53 2.25611 3.16278 0
M  V30 15835 H 1567.2 4.33304 1.58257 0
M  V30 15836 H 1565.44 4.09802 1.42284 0
M  V30 15837 H 1566.11 4.6616 2.95633 0
M  V30 15838 H 1568.59 2.7425 3.12932 0
M  V30 15839 H 1567.47 3.27191 4.40723 0
M  V30 15840 H 1567.73 1.55582 4.1382 0
M  V30 15841 N 1566.79 -0.886131 1.30328 0
M  V30 15842 C 1568.04 -1.63255 1.18451 0
M  V30 15843 C 1568.35 -1.93864 -0.260016 0
M  V30 15844 O 1569.55 -2.66851 -0.500288 0
M  V30 15845 C 1568.01 -2.94232 2.07257 0
M  V30 15846 C 1567.62 -2.71168 3.56612 0
M  V30 15847 C 1569.36 -3.72193 2.04139 0
M  V30 15848 C 1567.27 -3.97954 4.37478 0
M  V30 15849 H 1566.2 -0.612491 0.439739 0
M  V30 15850 H 1568.85 -0.981129 1.55068 0
M  V30 15851 H 1567.23 -3.60661 1.63522 0
M  V30 15852 H 1568.41 -2.13247 4.08488 0
M  V30 15853 H 1566.72 -2.06584 3.61541 0
M  V30 15854 H 1569.32 -4.66219 2.61809 0
M  V30 15855 H 1569.66 -4.03495 1.02459 0
M  V30 15856 H 1570.19 -3.12624 2.45989 0
M  V30 15857 H 1566.93 -3.71811 5.39849 0
M  V30 15858 H 1566.45 -4.55384 3.90366 0
M  V30 15859 H 1568.13 -4.65984 4.48852 0
M  V30 15860 N 1568.26 -1.13026 -1.09832 0
M  V30 15861 C 1569.68 -0.902826 -1.6342 0
M  V30 15862 C 1570.03 0.561547 -1.87992 0
M  V30 15863 O 1569.15 1.42735 -1.62652 0
M  V30 15864 C 1569.75 -1.6324 -2.96881 0
M  V30 15865 C 1568.31 -1.45095 -3.4731 0
M  V30 15866 C 1567.45 -1.66431 -2.21802 0
M  V30 15867 H 1570.4 -1.28414 -0.932492 0
M  V30 15868 H 1570.42 -1.08706 -3.64641 0
M  V30 15869 H 1569.94 -2.69816 -2.78964 0
M  V30 15870 H 1568.04 -0.408031 -3.70359 0
M  V30 15871 H 1568.15 -2.21123 -4.25019 0
M  V30 15872 H 1566.51 -1.08885 -2.30252 0
M  V30 15873 H 1567.3 -2.74317 -2.0641 0
M  V30 15874 N 1569.74 1.27735 -0.923117 0
M  V30 15875 C 1571.16 1.46952 -0.622666 0
M  V30 15876 C 1571.36 1.8364 0.829384 0
M  V30 15877 O 1570.41 1.94705 1.60767 0
M  V30 15878 C 1571.73 2.56545 -1.56861 0
M  V30 15879 C 1573.28 2.70408 -1.57634 0
M  V30 15880 C 1573.75 3.83154 -2.50913 0
M  V30 15881 N 1575.24 3.90521 -2.49093 0
M  V30 15882 C 1575.98 4.77167 -3.17962 0
M  V30 15883 N 1575.47 5.68334 -3.96193 0
M  V30 15884 N 1577.27 4.70857 -3.07002 0
M  V30 15885 H 1569.42 1.02205 -1.86193 0
M  V30 15886 H 1571.68 0.509982 -0.799138 0
M  V30 15887 H 1571.39 2.3637 -2.60427 0
M  V30 15888 H 1571.26 3.53839 -1.30681 0
M  V30 15889 H 1573.65 2.89967 -0.548005 0
M  V30 15890 H 1573.73 1.73615 -1.8786 0
M  V30 15891 H 1573.37 3.64349 -3.53853 0
M  V30 15892 H 1573.3 4.79365 -2.17984 0
M  V30 15893 H 1575.79 3.25329 -1.92274 0
M  V30 15894 H 1576.11 6.31298 -4.45738 0
M  V30 15895 H 1574.45 5.68144 -4.00297 0
M  V30 15896 H 1577.64 3.98629 -2.45382 0
M  V30 15897 H 1577.81 5.38166 -3.60945 0
M  V30 15898 N 1571.22 0.688118 1.41784 0
M  V30 15899 C 1572.47 0.215517 2.00948 0
M  V30 15900 C 1572.79 -1.18656 1.54744 0
M  V30 15901 O 1572.06 -1.79925 0.774831 0
M  V30 15902 H 1570.64 0.0766876 0.743053 0
M  V30 15903 H 1573.3 0.88761 1.73515 0
M  V30 15904 H 1572.4 0.227139 3.11272 0
M  V30 15905 N 1572.7 -1.51554 0.432352 0
M  V30 15906 C 1573.92 -2.06947 -0.136995 0
M  V30 15907 C 1574.35 -1.29817 -1.36122 0
M  V30 15908 O 1573.71 -0.334733 -1.78183 0
M  V30 15909 C 1573.75 -3.57871 -0.442785 0
M  V30 15910 O 1572.86 -3.82966 -1.53007 0
M  V30 15911 H 1572.2 -0.663988 -0.00405152 0
M  V30 15912 H 1574.73 -1.95225 0.612249 0
M  V30 15913 H 1574.74 -4.02042 -0.694694 0
M  V30 15914 H 1573.41 -4.13436 0.452013 0
M  V30 15915 H 1571.99 -3.50661 -1.26851 0
M  V30 15916 N 1574.18 -0.163538 -1.56749 0
M  V30 15917 C 1575.43 0.483453 -1.9582 0
M  V30 15918 C 1575.74 1.64913 -1.05181 0
M  V30 15919 O 1576.94 2.36184 -1.33901 0
M  V30 15920 C 1575.4 0.911471 -3.48167 0
M  V30 15921 C 1575.01 -0.228178 -4.47419 0
M  V30 15922 C 1576.75 1.52732 -3.96072 0
M  V30 15923 C 1574.66 0.219036 -5.90994 0
M  V30 15924 H 1573.59 0.184383 -0.731108 0
M  V30 15925 H 1576.24 -0.250527 -1.81782 0
M  V30 15926 H 1574.62 1.7012 -3.57596 0
M  V30 15927 H 1575.8 -1.0054 -4.49698 0
M  V30 15928 H 1574.11 -0.753485 -4.09526 0
M  V30 15929 H 1576.71 1.87383 -5.00791 0
M  V30 15930 H 1577.05 2.42239 -3.38565 0
M  V30 15931 H 1577.58 0.802176 -3.89628 0
M  V30 15932 H 1574.32 -0.641066 -6.52358 0
M  V30 15933 H 1573.84 0.96178 -5.92039 0
M  V30 15934 H 1575.52 0.665524 -6.43568 0
M  V30 15935 N 1575.65 1.57214 0.110213 0
M  V30 15936 C 1576.58 2.04015 1.13579 0
M  V30 15937 C 1577.57 0.926215 1.42672 0
M  V30 15938 O 1578.75 1.19651 1.52962 0
M  V30 15939 C 1575.88 2.45187 2.45969 0
M  V30 15940 C 1574.83 3.60105 2.31319 0
M  V30 15941 C 1574.16 3.87205 3.68749 0
M  V30 15942 C 1575.46 4.91526 1.76635 0
M  V30 15943 H 1577.15 2.89944 0.746496 0
M  V30 15944 H 1574.7 1.39488 0.357642 0
M  V30 15945 H 1576.65 2.76534 3.17973 0
M  V30 15946 H 1575.38 1.56238 2.86805 0
M  V30 15947 H 1574.04 3.28981 1.61762 0
M  V30 15948 H 1573.68 2.95448 4.07087 0
M  V30 15949 H 1573.38 4.64563 3.59798 0
M  V30 15950 H 1574.91 4.21013 4.42245 0
M  V30 15951 H 1576.32 5.21351 2.38465 0
M  V30 15952 H 1574.72 5.72944 1.78482 0
M  V30 15953 H 1575.79 4.79456 0.724573 0
M  V30 15954 N 1577.13 -0.380637 1.52934 0
M  V30 15955 C 1578.41 -1.13958 1.58975 0
M  V30 15956 C 1578.79 -2.07503 0.388028 0
M  V30 15957 O 1578.14 -2.19844 -0.622984 0
M  V30 15958 C 1578.35 -1.89192 2.9327 0
M  V30 15959 C 1579.7 -2.44259 3.47308 0
M  V30 15960 O 1580.72 -1.99338 2.95199 0
M  V30 15961 O 1579.58 -3.26338 4.38367 0
M  V30 15962 H 1576.67 -0.521896 0.641525 0
M  V30 15963 H 1579.22 -0.385114 1.65272 0
M  V30 15964 H 1577.99 -1.20834 3.72176 0
M  V30 15965 H 1577.61 -2.71581 2.90395 0
M  V30 15966 N 1578.61 -1.44039 -0.639573 0
M  V30 15967 C 1580.02 -1.41236 -1.22104 0
M  V30 15968 C 1580.37 -0.123367 -1.95812 0
M  V30 15969 O 1579.5 0.776641 -2.01983 0
M  V30 15970 C 1580.09 -2.55853 -2.22092 0
M  V30 15971 C 1578.65 -2.56271 -2.75685 0
M  V30 15972 C 1577.8 -2.32877 -1.50544 0
M  V30 15973 H 1580.75 -1.52742 -0.430756 0
M  V30 15974 H 1580.77 -2.28123 -3.04533 0
M  V30 15975 H 1580.28 -3.49653 -1.68417 0
M  V30 15976 H 1578.38 -1.66389 -3.33385 0
M  V30 15977 H 1578.5 -3.54486 -3.22299 0
M  V30 15978 H 1576.86 -1.81807 -1.78377 0
M  V30 15979 H 1577.64 -3.2878 -0.987845 0
M  V30 15980 N 1580.09 0.879207 -1.30796 0
M  V30 15981 C 1581.31 1.66975 -1.23021 0
M  V30 15982 C 1581.74 1.87004 0.202798 0
M  V30 15983 O 1581.1 1.40514 1.14566 0
M  V30 15984 C 1581.14 3.02028 -1.97007 0
M  V30 15985 O 1580.25 3.91338 -1.30109 0
M  V30 15986 H 1579.59 0.509998 -0.425204 0
M  V30 15987 H 1582.12 1.09688 -1.72713 0
M  V30 15988 H 1582.13 3.5203 -2.06249 0
M  V30 15989 H 1580.8 2.8677 -3.01224 0
M  V30 15990 H 1579.38 3.49781 -1.29258 0
M  V30 15991 N 1581.57 1.13606 1.09231 0
M  V30 15992 C 1582.98 0.91148 1.62938 0
M  V30 15993 C 1583.33 -0.55157 1.88287 0
M  V30 15994 O 1582.45 -1.4187 1.63407 0
M  V30 15995 C 1583.05 1.64812 2.96011 0
M  V30 15996 C 1581.61 1.46935 3.46536 0
M  V30 15997 C 1580.76 1.67605 2.20916 0
M  V30 15998 H 1583.71 1.28907 0.925669 0
M  V30 15999 H 1583.73 1.10638 3.6406 0
M  V30 16000 H 1583.24 2.71291 2.77529 0
M  V30 16001 H 1581.34 0.427667 3.70138 0
M  V30 16002 H 1581.45 2.23374 4.2384 0
M  V30 16003 H 1579.82 1.10105 2.29672 0
M  V30 16004 H 1580.6 2.75408 2.04952 0
M  V30 16005 N 1583.05 -1.27244 0.929878 0
M  V30 16006 C 1583.96 -2.30506 0.436355 0
M  V30 16007 C 1584.97 -1.67131 -0.484054 0
M  V30 16008 O 1586.15 -1.9804 -0.366332 0
M  V30 16009 C 1583.21 -3.45391 -0.300942 0
M  V30 16010 C 1582.27 -4.24279 0.654647 0
M  V30 16011 C 1581.51 -5.33679 -0.047558 0
M  V30 16012 O 1581.73 -5.56161 -1.26654 0
M  V30 16013 O 1580.66 -5.98642 0.62538 0
M  V30 16014 H 1584.49 -2.74762 1.29382 0
M  V30 16015 H 1582.07 -1.32234 0.695311 0
M  V30 16016 H 1583.96 -4.1526 -0.716718 0
M  V30 16017 H 1582.63 -3.03187 -1.13398 0
M  V30 16018 H 1581.54 -3.56936 1.12015 0
M  V30 16019 H 1582.87 -4.70204 1.45497 0
M  V30 16020 N 1584.52 -0.695628 -1.41417 0
M  V30 16021 C 1585.49 -0.0392949 -2.29166 0
M  V30 16022 C 1586.49 0.70789 -1.4438 0
M  V30 16023 O 1587.68 0.542771 -1.65528 0
M  V30 16024 C 1584.81 0.954719 -3.27258 0
M  V30 16025 H 1586 -0.811902 -2.88701 0
M  V30 16026 H 1583.55 -0.459128 -1.49405 0
M  V30 16027 H 1584.29 1.75509 -2.72703 0
M  V30 16028 H 1584.07 0.422079 -3.89822 0
M  V30 16029 H 1585.56 1.41174 -3.93014 0
M  V30 16030 N 1586 1.51322 -0.440383 0
M  V30 16031 C 1586.96 2.26388 0.357911 0
M  V30 16032 C 1587.96 1.2995 0.947083 0
M  V30 16033 O 1589.15 1.53637 0.821057 0
M  V30 16034 C 1586.29 3.05797 1.50669 0
M  V30 16035 H 1587.48 2.98396 -0.300002 0
M  V30 16036 H 1585.03 1.55096 -0.193628 0
M  V30 16037 H 1585.77 2.38213 2.20057 0
M  V30 16038 H 1585.55 3.76634 1.09037 0
M  V30 16039 H 1587.04 3.6265 2.07062 0
M  V30 16040 N 1587.48 0.171848 1.5666 0
M  V30 16041 C 1588.73 -0.473669 1.97191 0
M  V30 16042 C 1589.06 -1.6286 1.05784 0
M  V30 16043 O 1588.33 -1.94216 0.105084 0
M  V30 16044 C 1588.62 -0.956134 3.47174 0
M  V30 16045 C 1588.47 0.199007 4.4936 0
M  V30 16046 C 1589.79 -1.82962 4.00266 0
M  V30 16047 H 1586.91 -0.170704 0.716958 0
M  V30 16048 H 1589.55 0.25809 1.88239 0
M  V30 16049 H 1587.7 -1.57969 3.54934 0
M  V30 16050 H 1589.37 0.836109 4.53659 0
M  V30 16051 H 1587.61 0.85442 4.25302 0
M  V30 16052 H 1588.29 -0.180704 5.51704 0
M  V30 16053 H 1590.76 -1.30394 3.95141 0
M  V30 16054 H 1589.64 -2.13621 5.05625 0
M  V30 16055 H 1589.9 -2.77557 3.44114 0
M  V30 16056 N 1588.96 -1.5727 -0.101874 0
M  V30 16057 C 1590.2 -1.86017 -0.807795 0
M  V30 16058 C 1590.54 -0.760024 -1.7871 0
M  V30 16059 O 1589.81 0.232627 -1.93104 0
M  V30 16060 C 1590.09 -3.25388 -1.54255 0
M  V30 16061 C 1589.95 -4.46023 -0.581693 0
M  V30 16062 C 1591.27 -3.62561 -2.49474 0
M  V30 16063 H 1588.39 -0.676596 -0.29221 0
M  V30 16064 H 1591.03 -1.89865 -0.0715861 0
M  V30 16065 H 1589.18 -3.22239 -2.17013 0
M  V30 16066 H 1590.85 -4.61284 0.0383529 0
M  V30 16067 H 1589.09 -4.33672 0.105465 0
M  V30 16068 H 1589.76 -5.40251 -1.1328 0
M  V30 16069 H 1592.24 -3.66611 -1.96813 0
M  V30 16070 H 1591.12 -4.61025 -2.97905 0
M  V30 16071 H 1591.38 -2.90885 -3.32924 0
M  V30 16072 N 1590.44 0.372521 -1.53134 0
M  V30 16073 C 1591.68 1.11368 -1.68646 0
M  V30 16074 C 1592 1.90034 -0.437275 0
M  V30 16075 O 1591.27 1.88062 0.548593 0
M  V30 16076 H 1589.85 0.414129 -0.621696 0
M  V30 16077 H 1592.52 0.42082 -1.90303 0
M  V30 16078 H 1591.61 1.80738 -2.54441 0
M  V30 16079 N 1591.91 1.44376 0.631925 0
M  V30 16080 C 1593.16 1.46827 1.38875 0
M  V30 16081 C 1593.48 0.101789 1.94734 0
M  V30 16082 O 1592.75 -0.86579 1.7573 0
M  V30 16083 H 1591.33 0.540642 0.515475 0
M  V30 16084 H 1593.99 1.80148 0.743822 0
M  V30 16085 H 1593.09 2.19321 2.22047 0
M  V30 16086 N 1593.39 -0.872258 1.31261 0
M  V30 16087 C 1594.34 -2.00065 1.18645 0
M  V30 16088 C 1595.33 -1.69132 0.0952872 0
M  V30 16089 O 1596.54 -1.78156 0.257022 0
M  V30 16090 H 1592.91 -0.656201 0.367293 0
M  V30 16091 H 1594.89 -2.07837 2.14117 0
M  V30 16092 C 1593.63 -3.35628 0.908241 0
M  V30 16093 H 1592.96 -3.5995 1.74 0
M  V30 16094 H 1594.4 -4.15184 0.860134 0
M  V30 16095 C 1592.86 -3.34647 -0.388993 0
M  V30 16096 O 1593.39 -3.76271 -1.40651 0
M  V30 16097 N 1591.59 -2.87768 -0.404708 0
M  V30 16098 H 1591.14 -2.5409 0.423824 0
M  V30 16099 H 1591.1 -2.87494 -1.27258 0
M  V30 16100 N 1594.87 -1.14184 -1.08627 0
M  V30 16101 C 1596.12 -0.91001 -1.81236 0
M  V30 16102 C 1596.45 0.562134 -1.85886 0
M  V30 16103 O 1595.72 1.41631 -1.33307 0
M  V30 16104 C 1596.01 -1.50879 -3.26967 0
M  V30 16105 C 1595.86 -3.05063 -3.3054 0
M  V30 16106 C 1597.18 -1.18379 -4.2388 0
M  V30 16107 H 1594.3 -0.332025 -0.657973 0
M  V30 16108 H 1596.94 -1.41144 -1.27194 0
M  V30 16109 H 1595.09 -1.08236 -3.73118 0
M  V30 16110 H 1596.76 -3.5652 -2.9273 0
M  V30 16111 H 1595 -3.39628 -2.6988 0
M  V30 16112 H 1595.68 -3.42064 -4.33239 0
M  V30 16113 H 1598.15 -1.55242 -3.86056 0
M  V30 16114 H 1597.03 -1.62911 -5.24167 0
M  V30 16115 H 1597.29 -0.0987385 -4.4199 0
M  V30 16116 N 1596.35 1.26749 -0.936613 0
M  V30 16117 C 1597.28 2.2892 -0.460213 0
M  V30 16118 C 1598.26 1.63065 0.484135 0
M  V30 16119 O 1599.44 1.90305 0.386973 0
M  V30 16120 C 1596.57 3.46172 0.279648 0
M  V30 16121 C 1595.53 4.24083 -0.57771 0
M  V30 16122 C 1594.85 5.33903 0.291843 0
M  V30 16123 C 1596.15 4.88562 -1.84673 0
M  V30 16124 H 1597.85 2.69019 -1.31412 0
M  V30 16125 H 1595.39 1.29325 -0.633333 0
M  V30 16126 H 1597.35 4.16755 0.623931 0
M  V30 16127 H 1596.07 3.05014 1.16765 0
M  V30 16128 H 1594.73 3.55258 -0.904824 0
M  V30 16129 H 1594.38 4.88986 1.17906 0
M  V30 16130 H 1594.08 5.8694 -0.278372 0
M  V30 16131 H 1595.6 6.07326 0.631498 0
M  V30 16132 H 1597.02 5.51384 -1.56997 0
M  V30 16133 H 1595.41 5.51697 -2.36115 0
M  V30 16134 H 1596.48 4.11761 -2.56088 0
M  V30 16135 N 1597.83 0.703118 1.41046 0
M  V30 16136 C 1599.05 0.246552 2.05426 0
M  V30 16137 C 1599.47 -1.10704 1.52938 0
M  V30 16138 O 1598.83 -1.69329 0.680733 0
M  V30 16139 C 1598.88 0.203953 3.60924 0
M  V30 16140 O 1598.6 1.50408 4.11472 0
M  V30 16141 C 1600.1 -0.272686 4.42461 0
M  V30 16142 H 1597.32 0.113157 0.66139 0
M  V30 16143 H 1599.86 0.957823 1.80682 0
M  V30 16144 H 1598.02 -0.458194 3.84681 0
M  V30 16145 H 1598.43 1.39622 5.05575 0
M  V30 16146 H 1599.91 -0.251357 5.51427 0
M  V30 16147 H 1600.38 -1.31282 4.1912 0
M  V30 16148 H 1600.99 0.358733 4.23784 0
M  V30 16149 N 1599.3 -1.51086 0.448402 0
M  V30 16150 C 1600.53 -2.07081 -0.115038 0
M  V30 16151 C 1600.95 -1.31253 -1.34737 0
M  V30 16152 O 1600.31 -0.353613 -1.77818 0
M  V30 16153 C 1600.36 -3.58321 -0.404803 0
M  V30 16154 O 1599.46 -3.84567 -1.48936 0
M  V30 16155 H 1598.81 -0.663993 0.00299118 0
M  V30 16156 H 1601.34 -1.94564 0.632921 0
M  V30 16157 H 1601.35 -4.02756 -0.652013 0
M  V30 16158 H 1600.02 -4.12934 0.495838 0
M  V30 16159 H 1598.6 -3.51987 -1.23124 0
M  V30 16160 N 1600.78 -0.180154 -1.56567 0
M  V30 16161 C 1601.71 0.77825 -2.15583 0
M  V30 16162 C 1602.73 1.18746 -1.1137 0
M  V30 16163 O 1603.92 1.12578 -1.38523 0
M  V30 16164 C 1601.02 2.06024 -2.69086 0
M  V30 16165 C 1600.19 1.8132 -3.98047 0
M  V30 16166 C 1599.25 2.93823 -4.36526 0
M  V30 16167 O 1598.27 2.64075 -5.04235 0
M  V30 16168 N 1599.48 4.21823 -3.98806 0
M  V30 16169 H 1602.24 0.273661 -2.98448 0
M  V30 16170 H 1599.8 0.00232952 -1.619 0
M  V30 16171 H 1601.79 2.80398 -2.9182 0
M  V30 16172 H 1600.36 2.47648 -1.9076 0
M  V30 16173 H 1599.58 0.908046 -3.83599 0
M  V30 16174 H 1600.87 1.62194 -4.82256 0
M  V30 16175 H 1600.27 4.48849 -3.44313 0
M  V30 16176 H 1598.83 4.92871 -4.26522 0
M  V30 16177 N 1602.26 1.57322 0.0935319 0
M  V30 16178 C 1603.68 1.5319 0.447781 0
M  V30 16179 C 1603.88 0.897107 1.80428 0
M  V30 16180 O 1602.93 0.490285 2.47694 0
M  V30 16181 C 1604.25 2.97908 0.408832 0
M  V30 16182 C 1605.79 3.09132 0.490576 0
M  V30 16183 C 1606.27 4.55459 0.481759 0
M  V30 16184 N 1607.76 4.60013 0.542468 0
M  V30 16185 C 1608.49 5.70683 0.557509 0
M  V30 16186 N 1607.99 6.9078 0.528664 0
M  V30 16187 N 1609.78 5.58862 0.602438 0
M  V30 16188 H 1601.93 1.96962 -0.794965 0
M  V30 16189 H 1604.2 0.900583 -0.296064 0
M  V30 16190 H 1603.9 3.47823 -0.520766 0
M  V30 16191 H 1603.78 3.56678 1.22722 0
M  V30 16192 H 1606.16 2.59203 1.41059 0
M  V30 16193 H 1606.25 2.53311 -0.355982 0
M  V30 16194 H 1605.89 5.0604 -0.43432 0
M  V30 16195 H 1605.82 5.09119 1.34555 0
M  V30 16196 H 1608.31 3.73578 0.569892 0
M  V30 16197 H 1608.62 7.70887 0.543467 0
M  V30 16198 H 1606.97 6.9323 0.495687 0
M  V30 16199 H 1610.16 4.63942 0.622514 0
M  V30 16200 H 1610.33 6.45116 0.610691 0
M  V30 16201 N 1603.74 -0.364395 1.53329 0
M  V30 16202 C 1604.98 -1.10855 1.6982 0
M  V30 16203 C 1605.32 -1.88931 0.449291 0
M  V30 16204 O 1604.59 -1.8646 -0.553437 0
M  V30 16205 C 1604.88 -2.06681 2.94881 0
M  V30 16206 C 1604.73 -1.32206 4.29932 0
M  V30 16207 C 1606.05 -3.06788 3.15546 0
M  V30 16208 H 1603.17 -0.401626 0.617953 0
M  V30 16209 H 1605.81 -0.389244 1.8597 0
M  V30 16210 H 1603.96 -2.68019 2.81244 0
M  V30 16211 H 1605.63 -0.73642 4.55384 0
M  V30 16212 H 1603.87 -0.623916 4.2929 0
M  V30 16213 H 1604.54 -2.0235 5.13574 0
M  V30 16214 H 1607.02 -2.55554 3.28377 0
M  V30 16215 H 1605.9 -3.71059 4.04483 0
M  V30 16216 H 1606.16 -3.77023 2.3088 0
M  V30 16217 N 1605.22 -1.44709 -0.62426 0
M  V30 16218 C 1606.46 -1.48072 -1.38573 0
M  V30 16219 C 1606.8 -0.115532 -1.93856 0
M  V30 16220 O 1606.07 0.867787 -1.74068 0
M  V30 16221 C 1606.35 -2.54662 -2.54596 0
M  V30 16222 C 1606.21 -4.00564 -2.04618 0
M  V30 16223 C 1607.53 -2.57689 -3.56769 0
M  V30 16224 H 1604.64 -0.539119 -0.502513 0
M  V30 16225 H 1607.29 -1.76427 -0.705225 0
M  V30 16226 H 1605.44 -2.30614 -3.12649 0
M  V30 16227 H 1607.11 -4.35767 -1.51343 0
M  V30 16228 H 1605.35 -4.12014 -1.35746 0
M  V30 16229 H 1606.02 -4.70804 -2.8818 0
M  V30 16230 H 1608.5 -2.79194 -3.08529 0
M  V30 16231 H 1607.37 -3.34161 -4.35462 0
M  V30 16232 H 1607.64 -1.62146 -4.11292 0
M  V30 16233 N 1606.69 0.865285 -1.31722 0
M  V30 16234 C 1607.97 1.60146 -1.12306 0
M  V30 16235 C 1608.35 2.08653 0.320508 0
M  V30 16236 O 1607.7 1.86841 1.31539 0
M  V30 16237 C 1607.91 2.75583 -2.14138 0
M  V30 16238 C 1609.26 3.45429 -2.46909 0
M  V30 16239 O 1610.28 2.85795 -2.12602 0
M  V30 16240 O 1609.14 4.53017 -3.05676 0
M  V30 16241 H 1606.23 0.704786 -0.432673 0
M  V30 16242 H 1608.78 0.910339 -1.43216 0
M  V30 16243 H 1607.55 2.37187 -3.1122 0
M  V30 16244 H 1607.18 3.52378 -1.84161 0
M  V30 16245 N 1608.17 1.14759 1.0802 0
M  V30 16246 C 1609.42 0.919609 1.80751 0
M  V30 16247 C 1609.75 -0.552268 1.86182 0
M  V30 16248 O 1609.03 -1.40922 1.34057 0
M  V30 16249 C 1609.31 1.52611 3.26162 0
M  V30 16250 C 1609.16 3.06811 3.28918 0
M  V30 16251 C 1610.48 1.20625 4.23246 0
M  V30 16252 H 1607.6 0.33551 0.656203 0
M  V30 16253 H 1610.24 1.41816 1.26444 0
M  V30 16254 H 1608.39 1.10213 3.72539 0
M  V30 16255 H 1610.06 3.58068 2.90835 0
M  V30 16256 H 1608.31 3.41055 2.68075 0
M  V30 16257 H 1608.98 3.44357 4.31419 0
M  V30 16258 H 1611.45 1.57287 3.85227 0
M  V30 16259 H 1610.33 1.65689 5.23296 0
M  V30 16260 H 1610.59 0.122177 4.41931 0
M  V30 16261 N 1609.65 -1.26251 0.943322 0
M  V30 16262 C 1610.9 -1.92946 0.587764 0
M  V30 16263 C 1611.21 -1.74805 -0.877647 0
M  V30 16264 O 1612.42 -2.35976 -1.34267 0
M  V30 16265 C 1610.87 -3.45715 1.00047 0
M  V30 16266 C 1610.48 -3.72586 2.48764 0
M  V30 16267 C 1612.23 -4.18403 0.716905 0
M  V30 16268 C 1610.13 -5.18805 2.83893 0
M  V30 16269 H 1609.06 -0.722366 0.21611 0
M  V30 16270 H 1611.71 -1.43295 1.14625 0
M  V30 16271 H 1610.1 -3.94263 0.370491 0
M  V30 16272 H 1611.27 -3.34735 3.16684 0
M  V30 16273 H 1609.59 -3.13136 2.74472 0
M  V30 16274 H 1612.18 -5.2609 0.955669 0
M  V30 16275 H 1612.53 -4.14856 -0.346396 0
M  V30 16276 H 1613.06 -3.75726 1.3067 0
M  V30 16277 H 1609.8 -5.27454 3.89195 0
M  V30 16278 H 1609.32 -5.57745 2.20636 0
M  V30 16279 H 1611 -5.86828 2.72474 0
M  V30 16280 N 1611.13 -0.710588 -1.40671 0
M  V30 16281 C 1612.06 -0.0694601 -2.33397 0
M  V30 16282 C 1613.04 0.750959 -1.52626 0
M  V30 16283 O 1614.23 0.700896 -1.81111 0
M  V30 16284 C 1611.36 0.856704 -3.36568 0
M  V30 16285 C 1610.31 0.142276 -4.27763 0
M  V30 16286 C 1609.64 1.18382 -5.21431 0
M  V30 16287 C 1610.94 -1.00052 -5.12627 0
M  V30 16288 H 1612.63 -0.843945 -2.87259 0
M  V30 16289 H 1610.18 -0.407287 -1.3812 0
M  V30 16290 H 1612.13 1.31457 -4.00371 0
M  V30 16291 H 1610.85 1.66303 -2.81089 0
M  V30 16292 H 1609.51 -0.295714 -3.65405 0
M  V30 16293 H 1609.16 1.98306 -4.62259 0
M  V30 16294 H 1608.86 0.71071 -5.83286 0
M  V30 16295 H 1610.38 1.64189 -5.88111 0
M  V30 16296 H 1611.8 -0.622246 -5.69913 0
M  V30 16297 H 1610.19 -1.40168 -5.83501 0
M  V30 16298 H 1611.26 -1.83345 -4.48902 0
M  V30 16299 N 1612.61 1.50847 -0.456408 0
M  V30 16300 C 1613.86 2.01835 0.103414 0
M  V30 16301 C 1614.18 1.34142 1.4153 0
M  V30 16302 O 1613.45 0.482015 1.89877 0
M  V30 16303 H 1612.03 0.745863 0.0412074 0
M  V30 16304 H 1614.69 1.85322 -0.603477 0
M  V30 16305 H 1613.78 3.10968 0.265562 0
M  V30 16306 N 1614.09 0.188454 1.56469 0
M  V30 16307 C 1615.05 -0.721282 2.17555 0
M  V30 16308 C 1616.05 -1.14579 1.1282 0
M  V30 16309 O 1617.24 -1.05996 1.38241 0
M  V30 16310 C 1614.37 -1.9839 2.77226 0
M  V30 16311 H 1615.56 -0.189218 2.99302 0
M  V30 16312 H 1613.12 -0.0611533 1.5618 0
M  V30 16313 H 1613.85 -2.55864 1.99259 0
M  V30 16314 H 1613.64 -1.68831 3.53891 0
M  V30 16315 H 1615.13 -2.63277 3.24153 0
M  V30 16316 N 1615.56 -1.5737 -0.0851874 0
M  V30 16317 C 1616.81 -1.86587 -0.786855 0
M  V30 16318 C 1617.14 -0.778357 -1.78247 0
M  V30 16319 O 1616.39 0.227053 -1.94378 0
M  V30 16320 C 1616.69 -3.22427 -1.54194 0
M  V30 16321 C 1616.36 -4.45627 -0.687542 0
M  V30 16322 C 1615.02 -4.79072 -0.452042 0
M  V30 16323 C 1617.37 -5.21115 -0.094224 0
M  V30 16324 C 1614.7 -5.85426 0.386477 0
M  V30 16325 C 1617.05 -6.28354 0.731673 0
M  V30 16326 C 1615.72 -6.60309 0.977172 0
M  V30 16327 H 1614.99 -0.682772 -0.28793 0
M  V30 16328 H 1617.63 -1.9144 -0.0480218 0
M  V30 16329 H 1615.94 -3.13304 -2.35261 0
M  V30 16330 H 1617.64 -3.42264 -2.08941 0
M  V30 16331 H 1614.23 -4.19443 -0.881212 0
M  V30 16332 H 1618.41 -4.95601 -0.263309 0
M  V30 16333 H 1613.67 -6.08589 0.58556 0
M  V30 16334 H 1617.84 -6.86014 1.19823 0
M  V30 16335 H 1615.47 -7.42548 1.6287 0
M  V30 16336 N 1617.04 0.356258 -1.53521 0
M  V30 16337 C 1618.29 1.09573 -1.69818 0
M  V30 16338 C 1618.61 1.89559 -0.457406 0
M  V30 16339 O 1617.88 1.88633 0.528616 0
M  V30 16340 H 1616.46 0.407512 -0.626054 0
M  V30 16341 H 1619.12 0.400612 -1.90738 0
M  V30 16342 H 1618.22 1.7803 -2.56343 0
M  V30 16343 N 1618.52 1.45038 0.616577 0
M  V30 16344 C 1619.48 1.52647 1.70973 0
M  V30 16345 C 1620.48 0.406902 1.55567 0
M  V30 16346 O 1621.67 0.670062 1.60797 0
M  V30 16347 C 1618.8 1.41438 3.10174 0
M  V30 16348 H 1620 2.50036 1.65596 0
M  V30 16349 H 1617.55 1.32346 0.831524 0
M  V30 16350 H 1618.29 0.451991 3.21135 0
M  V30 16351 H 1618.07 2.22634 3.22764 0
M  V30 16352 H 1619.56 1.49776 3.89817 0
M  V30 16353 N 1620 -0.858287 1.32179 0
M  V30 16354 C 1621.24 -1.6261 1.23844 0
M  V30 16355 C 1621.6 -1.9098 -0.197628 0
M  V30 16356 O 1622.8 -2.65737 -0.40465 0
M  V30 16357 C 1621.07 -2.91319 2.07047 0
M  V30 16358 S 1622.63 -3.82125 2.15699 0
M  V30 16359 H 1619.45 -0.557789 0.4409 0
M  V30 16360 H 1622.05 -1.0167 1.66983 0
M  V30 16361 H 1620.76 -2.68417 3.10452 0
M  V30 16362 H 1620.29 -3.57277 1.64671 0
M  V30 16363 H 1622.3 -4.78764 1.30384 0
M  V30 16364 N 1621.48 -1.1533 -1.07409 0
M  V30 16365 C 1622.44 -0.852155 -2.1277 0
M  V30 16366 C 1623.44 0.14782 -1.60119 0
M  V30 16367 O 1624.63 -0.0817436 -1.74008 0
M  V30 16368 C 1621.76 -0.272233 -3.39811 0
M  V30 16369 H 1622.95 -1.78604 -2.40917 0
M  V30 16370 H 1620.51 -0.960698 -1.23289 0
M  V30 16371 H 1621.24 0.669873 -3.17306 0
M  V30 16372 H 1621.03 -0.992629 -3.79327 0
M  V30 16373 H 1622.52 -0.0790986 -4.17525 0
M  V30 16374 N 1622.95 1.25748 -0.950004 0
M  V30 16375 C 1623.92 2.24307 -0.47106 0
M  V30 16376 C 1624.92 1.55145 0.422704 0
M  V30 16377 O 1626.11 1.72797 0.220642 0
M  V30 16378 C 1623.24 3.39395 0.319979 0
M  V30 16379 H 1624.43 2.68192 -1.34214 0
M  V30 16380 H 1621.98 1.38056 -0.732827 0
M  V30 16381 H 1622.72 3.00925 1.20892 0
M  V30 16382 H 1622.5 3.90783 -0.321157 0
M  V30 16383 H 1623.99 4.12594 0.644697 0
M  V30 16384 N 1624.43 0.718038 1.40292 0
M  V30 16385 C 1625.66 0.266918 2.05675 0
M  V30 16386 C 1626.08 -1.08364 1.53749 0
M  V30 16387 O 1625.44 -1.6831 0.673912 0
M  V30 16388 C 1625.49 0.259606 3.59664 0
M  V30 16389 O 1624.59 -0.758372 4.05367 0
M  V30 16390 H 1623.93 0.124786 0.652169 0
M  V30 16391 H 1626.46 0.979207 1.79646 0
M  V30 16392 H 1626.47 0.098135 4.07882 0
M  V30 16393 H 1625.15 1.24517 3.96823 0
M  V30 16394 H 1623.72 -0.564425 3.68604 0
M  V30 16395 N 1625.91 -1.50602 0.464402 0
M  V30 16396 C 1626.84 -2.26203 -0.36943 0
M  V30 16397 C 1627.86 -1.31269 -0.962924 0
M  V30 16398 O 1629.04 -1.56829 -0.852465 0
M  V30 16399 C 1626.14 -3.02323 -1.53147 0
M  V30 16400 C 1625.32 -4.24561 -1.05198 0
M  V30 16401 C 1624.38 -4.83031 -2.08729 0
M  V30 16402 O 1623.4 -5.44131 -1.67062 0
M  V30 16403 N 1624.6 -4.6944 -3.41477 0
M  V30 16404 H 1627.37 -2.98402 0.278652 0
M  V30 16405 H 1624.93 -1.59193 0.294803 0
M  V30 16406 H 1626.92 -3.38319 -2.22086 0
M  V30 16407 H 1625.49 -2.32965 -2.08438 0
M  V30 16408 H 1624.71 -3.93748 -0.188705 0
M  V30 16409 H 1626 -5.0383 -0.709434 0
M  V30 16410 H 1625.4 -4.20832 -3.78044 0
M  V30 16411 H 1623.96 -5.09724 -4.06233 0
M  V30 16412 N 1627.39 -0.19675 -1.56367 0
M  V30 16413 C 1628.64 0.440711 -1.97236 0
M  V30 16414 C 1628.96 1.62037 -1.08485 0
M  V30 16415 O 1628.23 1.95274 -0.156483 0
M  V30 16416 H 1626.81 0.16581 -0.728365 0
M  V30 16417 H 1629.47 -0.283867 -1.92822 0
M  V30 16418 H 1628.57 0.783731 -3.02099 0
M  V30 16419 N 1628.87 1.57413 0.0768405 0
M  V30 16420 C 1630.11 1.88835 0.78235 0
M  V30 16421 C 1630.47 0.789942 1.74997 0
M  V30 16422 O 1631.67 0.987092 2.5002 0
M  V30 16423 C 1629.94 3.25491 1.47616 0
M  V30 16424 S 1631.5 3.78649 2.21743 0
M  V30 16425 H 1628.32 0.661649 0.260272 0
M  V30 16426 H 1630.92 1.95462 0.0386596 0
M  V30 16427 H 1629.63 4.03338 0.758047 0
M  V30 16428 H 1629.16 3.22049 2.25938 0
M  V30 16429 H 1631.17 3.53531 3.48182 0
M  V30 16430 N 1630.34 -0.348112 1.53707 0
M  V30 16431 C 1631.28 -1.45032 1.76184 0
M  V30 16432 C 1632.26 -1.50693 0.610775 0
M  V30 16433 O 1633.44 -1.68479 0.845406 0
M  V30 16434 C 1630.57 -2.83296 1.85637 0
M  V30 16435 C 1629.61 -2.95281 3.07752 0
M  V30 16436 S 1630.45 -2.62222 4.66904 0
M  V30 16437 C 1631.6 -4.02603 4.79231 0
M  V30 16438 H 1631.83 -1.25749 2.69397 0
M  V30 16439 H 1629.37 -0.543506 1.44518 0
M  V30 16440 H 1631.33 -3.62953 1.91769 0
M  V30 16441 H 1629.99 -2.99878 0.934458 0
M  V30 16442 H 1629.18 -3.96582 3.11028 0
M  V30 16443 H 1628.78 -2.23567 2.99823 0
M  V30 16444 H 1631.07 -4.97067 4.60359 0
M  V30 16445 H 1632.02 -4.04323 5.81316 0
M  V30 16446 H 1632.42 -3.90415 4.07721 0
M  V30 16447 N 1631.82 -1.45363 -0.608876 0
M  V30 16448 C 1632.77 -1.54268 -1.7408 0
M  V30 16449 C 1633.76 -0.412752 -1.64295 0
M  V30 16450 O 1634.97 -0.58861 -1.70104 0
M  V30 16451 H 1631.35 -0.484528 -0.575097 0
M  V30 16452 H 1633.32 -2.49492 -1.63696 0
M  V30 16453 C 1632.07 -1.5253 -3.12458 0
M  V30 16454 H 1631.39 -2.38801 -3.20646 0
M  V30 16455 H 1632.83 -1.62819 -3.91492 0
M  V30 16456 C 1631.29 -0.249525 -3.35975 0
M  V30 16457 O 1631.82 0.671159 -3.96053 0
M  V30 16458 N 1630.02 -0.145625 -2.90235 0
M  V30 16459 H 1629.57 -0.895714 -2.41526 0
M  V30 16460 H 1629.53 0.707167 -3.06344 0
M  V30 16461 N 1633.3 0.851265 -1.32632 0
M  V30 16462 C 1634.25 1.98152 -1.21813 0
M  V30 16463 C 1635.24 1.68959 -0.122182 0
M  V30 16464 O 1636.45 1.77724 -0.285332 0
M  V30 16465 H 1632.82 0.650275 -0.377686 0
M  V30 16466 H 1634.79 2.04405 -2.17397 0
M  V30 16467 C 1633.54 3.34141 -0.961521 0
M  V30 16468 H 1632.87 3.57136 -1.79704 0
M  V30 16469 H 1634.31 4.13763 -0.926077 0
M  V30 16470 C 1632.77 3.35223 0.335704 0
M  V30 16471 O 1633.3 3.78461 1.34647 0
M  V30 16472 N 1631.5 2.88376 0.358875 0
M  V30 16473 H 1631.05 2.53383 -0.464194 0
M  V30 16474 H 1631.01 2.89482 1.22668 0
M  V30 16475 N 1634.78 1.15898 1.06796 0
M  V30 16476 C 1636.02 0.938728 1.79766 0
M  V30 16477 C 1636.36 -0.53249 1.86757 0
M  V30 16478 O 1635.63 -1.39492 1.35544 0
M  V30 16479 C 1635.92 1.56062 3.24525 0
M  V30 16480 C 1635.77 3.10283 3.25645 0
M  V30 16481 C 1637.09 1.25108 4.21943 0
M  V30 16482 H 1634.21 0.342451 0.652607 0
M  V30 16483 H 1636.85 1.4315 1.24933 0
M  V30 16484 H 1635 1.14158 3.71349 0
M  V30 16485 H 1636.67 3.61132 2.87021 0
M  V30 16486 H 1634.91 3.43879 2.64443 0
M  V30 16487 H 1635.58 3.48913 4.27743 0
M  V30 16488 H 1638.06 1.61364 3.83537 0
M  V30 16489 H 1636.94 1.7123 5.21509 0
M  V30 16490 H 1637.2 0.169043 4.41777 0
M  V30 16491 N 1636.26 -1.25243 0.956659 0
M  V30 16492 C 1637.48 -1.97082 0.629791 0
M  V30 16493 C 1637.9 -1.71082 -0.798529 0
M  V30 16494 O 1637.26 -0.98805 -1.5344 0
M  V30 16495 C 1637.31 -3.5059 0.881406 0
M  V30 16496 O 1637.03 -3.75694 2.25356 0
M  V30 16497 C 1638.53 -4.39656 0.567203 0
M  V30 16498 H 1635.75 -0.628152 0.235938 0
M  V30 16499 H 1638.29 -1.5936 1.28159 0
M  V30 16500 H 1636.45 -3.86416 0.27599 0
M  V30 16501 H 1636.86 -4.70142 2.32523 0
M  V30 16502 H 1638.34 -5.46263 0.793785 0
M  V30 16503 H 1638.81 -4.36364 -0.498287 0
M  V30 16504 H 1639.42 -4.094 1.15203 0
M  V30 16505 N 1637.73 -0.725468 -1.3991 0
M  V30 16506 C 1638.66 -0.094211 -2.3331 0
M  V30 16507 C 1639.65 0.734728 -1.53414 0
M  V30 16508 O 1640.83 0.681647 -1.81844 0
M  V30 16509 C 1637.96 0.820958 -3.37457 0
M  V30 16510 C 1636.91 0.0968983 -4.2789 0
M  V30 16511 C 1636.24 1.12845 -5.22657 0
M  V30 16512 C 1637.54 -1.05483 -5.11537 0
M  V30 16513 H 1639.23 -0.874365 -2.86348 0
M  V30 16514 H 1636.78 -0.421913 -1.3768 0
M  V30 16515 H 1638.73 1.27203 -4.01743 0
M  V30 16516 H 1637.46 1.63312 -2.82837 0
M  V30 16517 H 1636.12 -0.334454 -3.65071 0
M  V30 16518 H 1635.76 1.93392 -4.64337 0
M  V30 16519 H 1635.46 0.648805 -5.84007 0
M  V30 16520 H 1636.99 1.57942 -5.89819 0
M  V30 16521 H 1638.4 -0.682657 -5.69221 0
M  V30 16522 H 1636.8 -1.46349 -5.81981 0
M  V30 16523 H 1637.87 -1.88095 -4.46932 0
M  V30 16524 N 1639.21 1.50354 -0.472382 0
M  V30 16525 C 1640.46 2.01934 0.0820006 0
M  V30 16526 C 1640.78 1.35636 1.401 0
M  V30 16527 O 1640.05 0.502127 1.89355 0
M  V30 16528 H 1638.63 0.746258 0.0332943 0
M  V30 16529 H 1641.29 1.84671 -0.623099 0
M  V30 16530 H 1640.39 3.11232 0.232565 0
M  V30 16531 N 1640.69 0.205039 1.56261 0
M  V30 16532 C 1641.64 -0.728433 2.209 0
M  V30 16533 C 1642.63 -1.21228 1.18322 0
M  V30 16534 O 1643.84 -1.17402 1.36443 0
M  V30 16535 H 1640.21 -0.253283 0.708062 0
M  V30 16536 H 1642.19 -0.159654 2.97973 0
M  V30 16537 C 1640.93 -1.93311 2.89009 0
M  V30 16538 H 1640.26 -1.56988 3.67688 0
M  V30 16539 H 1641.7 -2.5644 3.3766 0
M  V30 16540 C 1640.16 -2.77814 1.9058 0
M  V30 16541 O 1640.69 -3.76053 1.41233 0
M  V30 16542 N 1638.89 -2.4351 1.58591 0
M  V30 16543 H 1638.44 -1.6368 1.98914 0
M  V30 16544 H 1638.4 -3.00333 0.929918 0
M  V30 16545 N 1642.17 -1.57451 -0.0684915 0
M  V30 16546 C 1643.13 -2.0293 -1.06545 0
M  V30 16547 C 1644.13 -0.926861 -1.314 0
M  V30 16548 O 1645.32 -1.19164 -1.27065 0
M  V30 16549 C 1642.45 -2.41276 -2.4083 0
M  V30 16550 H 1643.65 -2.92242 -0.673401 0
M  V30 16551 H 1641.2 -1.53107 -0.314307 0
M  V30 16552 H 1641.94 -1.55 -2.8486 0
M  V30 16553 H 1641.72 -3.21727 -2.2413 0
M  V30 16554 H 1643.21 -2.77026 -3.12484 0
M  V30 16555 N 1643.65 0.339955 -1.5389 0
M  V30 16556 C 1644.6 1.41838 -1.78511 0
M  V30 16557 C 1645.58 1.47604 -0.640447 0
M  V30 16558 O 1646.77 1.52414 -0.899951 0
M  V30 16559 C 1643.9 2.78929 -2.00134 0
M  V30 16560 C 1642.99 2.7754 -3.20675 0
M  V30 16561 N 1643.38 2.45779 -4.42071 0
M  V30 16562 C 1641.68 3.08684 -3.21917 0
M  V30 16563 C 1642.38 2.52714 -5.23938 0
M  V30 16564 N 1641.35 2.88484 -4.60736 0
M  V30 16565 H 1645.16 1.16185 -2.6996 0
M  V30 16566 H 1642.67 0.548339 -1.52863 0
M  V30 16567 H 1644.67 3.56637 -2.15907 0
M  V30 16568 H 1643.33 3.05525 -1.09929 0
M  V30 16569 H 1644.34 2.18913 -4.69358 0
M  V30 16570 H 1641.02 3.40429 -2.41691 0
M  V30 16571 H 1642.41 2.31287 -6.30838 0
M  V30 16572 N 1645.13 1.45684 0.601159 0
M  V30 16573 C 1646.06 1.49342 1.72546 0
M  V30 16574 C 1647.04 0.349184 1.58806 0
M  V30 16575 O 1648.22 0.550634 1.80278 0
M  V30 16576 C 1645.35 1.35455 3.10435 0
M  V30 16577 C 1644.39 2.53826 3.42746 0
M  V30 16578 S 1645.23 4.16269 3.36869 0
M  V30 16579 C 1646.38 4.04858 4.77326 0
M  V30 16580 H 1646.62 2.44469 1.69181 0
M  V30 16581 H 1644.15 1.33345 0.778358 0
M  V30 16582 H 1646.11 1.2813 3.89991 0
M  V30 16583 H 1644.77 0.417881 3.11308 0
M  V30 16584 H 1643.96 2.40053 4.4316 0
M  V30 16585 H 1643.56 2.58046 2.70718 0
M  V30 16586 H 1645.85 3.704 5.67283 0
M  V30 16587 H 1646.8 5.05207 4.96157 0
M  V30 16588 H 1647.21 3.36408 4.5331 0
M  V30 16589 N 1646.6 -0.84422 1.33082 0
M  V30 16590 C 1647.85 -1.59596 1.2399 0
M  V30 16591 C 1648.17 -1.94016 -0.19566 0
M  V30 16592 O 1647.44 -1.60512 -1.12306 0
M  V30 16593 H 1646.02 -0.591727 0.455926 0
M  V30 16594 H 1648.68 -1.00924 1.66735 0
M  V30 16595 H 1647.78 -2.52829 1.82986 0
M  V30 16596 N 1648.08 -1.16463 -1.0618 0
M  V30 16597 C 1649.31 -0.969667 -1.82431 0
M  V30 16598 C 1649.72 0.485393 -1.82868 0
M  V30 16599 O 1649.06 1.34868 -1.24725 0
M  V30 16600 C 1649.12 -1.42161 -3.30198 0
M  V30 16601 C 1648.79 -2.89679 -3.53461 0
M  V30 16602 C 1649.79 -3.87677 -3.46414 0
M  V30 16603 C 1647.47 -3.27625 -3.80745 0
M  V30 16604 C 1649.46 -5.21622 -3.66319 0
M  V30 16605 C 1647.15 -4.61739 -4.003 0
M  V30 16606 C 1648.15 -5.58546 -3.93084 0
M  V30 16607 O 1647.84 -6.90235 -4.12105 0
M  V30 16608 H 1647.57 -0.343808 -0.582041 0
M  V30 16609 H 1650.12 -1.54928 -1.34857 0
M  V30 16610 H 1648.35 -0.785486 -3.78638 0
M  V30 16611 H 1650.04 -1.19389 -3.87945 0
M  V30 16612 H 1650.81 -3.59707 -3.25324 0
M  V30 16613 H 1646.69 -2.52851 -3.85471 0
M  V30 16614 H 1650.23 -5.9717 -3.60602 0
M  V30 16615 H 1646.13 -4.89418 -4.2088 0
M  V30 16616 H 1646.9 -6.96828 -4.29387 0
M  V30 16617 N 1649.56 1.24734 -0.963288 0
M  V30 16618 C 1650.79 1.9646 -0.639305 0
M  V30 16619 C 1651.2 1.71708 0.794553 0
M  V30 16620 O 1650.54 0.995015 1.54419 0
M  V30 16621 C 1650.6 3.49818 -0.828696 0
M  V30 16622 C 1650.27 3.98262 -2.24135 0
M  V30 16623 C 1651.26 4.08281 -3.21874 0
M  V30 16624 C 1648.95 4.31701 -2.56786 0
M  V30 16625 C 1650.94 4.51067 -4.50352 0
M  V30 16626 C 1648.63 4.74172 -3.85492 0
M  V30 16627 C 1649.63 4.83819 -4.82087 0
M  V30 16628 O 1649.32 5.25344 -6.08497 0
M  V30 16629 H 1649.05 0.63276 -0.237888 0
M  V30 16630 H 1651.6 1.59635 -1.29251 0
M  V30 16631 H 1649.83 3.86519 -0.118332 0
M  V30 16632 H 1651.52 4.02753 -0.504465 0
M  V30 16633 H 1652.29 3.82668 -2.97976 0
M  V30 16634 H 1648.17 4.23414 -1.82323 0
M  V30 16635 H 1651.71 4.58512 -5.2575 0
M  V30 16636 H 1647.61 4.99231 -4.09192 0
M  V30 16637 H 1648.37 5.43506 -6.12 0
M  V30 16638 N 1651.04 0.732878 1.39523 0
M  V30 16639 C 1651.95 0.0930216 2.34416 0
M  V30 16640 C 1652.96 -0.724309 1.58208 0
M  V30 16641 O 1654.14 -0.653267 1.90511 0
M  V30 16642 C 1651.2 -0.805036 3.37224 0
M  V30 16643 C 1650.27 0.0243049 4.29293 0
M  V30 16644 C 1649.5 -0.830984 5.27191 0
M  V30 16645 O 1649.72 -2.06977 5.31523 0
M  V30 16646 O 1648.66 -0.260772 6.01335 0
M  V30 16647 H 1652.48 0.876179 2.90786 0
M  V30 16648 H 1650.07 0.493525 1.41013 0
M  V30 16649 H 1651.95 -1.31894 4.00228 0
M  V30 16650 H 1650.62 -1.56704 2.83241 0
M  V30 16651 H 1649.53 0.583677 3.69519 0
M  V30 16652 H 1650.86 0.748485 4.86476 0
M  V30 16653 N 1652.52 -1.50101 0.480349 0
M  V30 16654 C 1653.74 -2.06785 -0.068848 0
M  V30 16655 C 1654.16 -1.34316 -1.32683 0
M  V30 16656 O 1653.52 -0.415196 -1.77714 0
M  V30 16657 C 1653.57 -3.59826 -0.347522 0
M  V30 16658 O 1653.29 -4.29565 0.860569 0
M  V30 16659 C 1654.79 -4.33161 -0.94266 0
M  V30 16660 H 1652.01 -0.670906 0.0112172 0
M  V30 16661 H 1654.55 -1.93151 0.671788 0
M  V30 16662 H 1652.71 -3.73232 -1.0381 0
M  V30 16663 H 1653.12 -5.20931 0.610796 0
M  V30 16664 H 1654.6 -5.41184 -1.08736 0
M  V30 16665 H 1655.07 -3.94268 -1.93518 0
M  V30 16666 H 1655.68 -4.24309 -0.290178 0
M  V30 16667 N 1653.99 -0.213323 -1.5615 0
M  V30 16668 C 1655.24 0.421221 -1.98377 0
M  V30 16669 C 1655.57 1.59998 -1.10065 0
M  V30 16670 O 1654.85 1.93869 -0.15654 0
M  V30 16671 C 1655.13 0.86375 -3.49587 0
M  V30 16672 C 1654.98 -0.318077 -4.48674 0
M  V30 16673 C 1656.3 1.72285 -4.04976 0
M  V30 16674 H 1653.42 0.151635 -0.721232 0
M  V30 16675 H 1656.06 -0.307907 -1.87488 0
M  V30 16676 H 1654.21 1.48503 -3.58998 0
M  V30 16677 H 1655.89 -0.956094 -4.51283 0
M  V30 16678 H 1654.13 -0.966881 -4.22888 0
M  V30 16679 H 1654.8 0.0343662 -5.51989 0
M  V30 16680 H 1657.28 1.19872 -3.98459 0
M  V30 16681 H 1656.15 2.0014 -5.11112 0
M  V30 16682 H 1656.41 2.68336 -3.51352 0
M  V30 16683 N 1655.47 1.57485 0.0601405 0
M  V30 16684 C 1656.44 2.03493 1.05467 0
M  V30 16685 C 1657.44 0.933816 1.30907 0
M  V30 16686 O 1658.63 1.19837 1.26431 0
M  V30 16687 C 1655.76 2.42549 2.39547 0
M  V30 16688 H 1656.95 2.92595 0.657893 0
M  V30 16689 H 1654.5 1.53272 0.306183 0
M  V30 16690 H 1655.24 1.56509 2.84034 0
M  V30 16691 H 1655.02 3.22911 2.22421 0
M  V30 16692 H 1656.51 2.7868 3.1101 0
M  V30 16693 N 1656.95 -0.331789 1.54068 0
M  V30 16694 C 1658.2 -1.06858 1.71539 0
M  V30 16695 C 1658.52 -1.88808 0.487506 0
M  V30 16696 O 1657.79 -1.8945 -0.498539 0
M  V30 16697 H 1656.37 -0.3975 0.632457 0
M  V30 16698 H 1659.03 -0.370216 1.91352 0
M  V30 16699 H 1658.13 -1.73929 2.59143 0
M  V30 16700 N 1658.43 -1.46001 -0.593424 0
M  V30 16701 C 1659.68 -1.50457 -1.34933 0
M  V30 16702 C 1660 -0.153383 -1.94396 0
M  V30 16703 O 1659.27 0.818894 -1.77963 0
M  V30 16704 H 1657.85 -0.554119 -0.50096 0
M  V30 16705 H 1660.51 -1.82057 -0.695798 0
M  V30 16706 H 1659.61 -2.25131 -2.16154 0
M  V30 16707 N 1659.91 0.83715 -1.33527 0
M  V30 16708 C 1660.87 1.92865 -1.23837 0
M  V30 16709 C 1661.87 1.60032 -0.157005 0
M  V30 16710 O 1663.06 1.69339 -0.408654 0
M  V30 16711 C 1660.19 3.28568 -0.908617 0
M  V30 16712 H 1661.38 2.02883 -2.20859 0
M  V30 16713 H 1658.94 1.02944 -1.1761 0
M  V30 16714 H 1659.67 3.24246 0.0590328 0
M  V30 16715 H 1659.46 3.53779 -1.69064 0
M  V30 16716 H 1660.95 4.0853 -0.86561 0
M  V30 16717 N 1661.38 1.17024 1.05561 0
M  V30 16718 C 1662.63 0.954436 1.78143 0
M  V30 16719 C 1662.95 -0.518525 1.8798 0
M  V30 16720 O 1662.22 -1.37654 1.39385 0
M  V30 16721 H 1660.8 0.350141 0.659856 0
M  V30 16722 H 1663.47 1.4743 1.27477 0
M  V30 16723 H 1662.56 1.37955 2.79955 0
M  V30 16724 N 1662.86 -1.24221 0.969889 0
M  V30 16725 C 1663.83 -2.23529 0.506686 0
M  V30 16726 C 1664.83 -1.55797 -0.397968 0
M  V30 16727 O 1666.02 -1.73126 -0.193124 0
M  V30 16728 C 1663.15 -3.39861 -0.265943 0
M  V30 16729 H 1664.34 -2.66022 1.38463 0
M  V30 16730 H 1661.89 -1.36872 0.754698 0
M  V30 16731 H 1662.63 -3.0281 -1.16089 0
M  V30 16732 H 1662.41 -3.90222 0.383286 0
M  V30 16733 H 1663.9 -4.13567 -0.578975 0
M  V30 16734 N 1664.34 -0.740267 -1.39132 0
M  V30 16735 C 1665.59 -0.289949 -2.00009 0
M  V30 16736 C 1665.91 1.12831 -1.59042 0
M  V30 16737 O 1665.18 1.76926 -0.841076 0
M  V30 16738 H 1663.76 -0.104213 -0.739695 0
M  V30 16739 H 1666.42 -0.951398 -1.70101 0
M  V30 16740 H 1665.52 -0.342509 -3.10215 0
M  V30 16741 N 1665.82 1.49844 -0.488302 0
M  V30 16742 C 1667.23 1.86663 -0.037377 0
M  V30 16743 C 1667.58 1.40172 1.37281 0
M  V30 16744 O 1666.71 0.77409 2.02081 0
M  V30 16745 C 1667.3 3.38745 -0.0610523 0
M  V30 16746 C 1665.86 3.74911 0.334475 0
M  V30 16747 C 1665.01 2.73801 -0.439109 0
M  V30 16748 H 1667.96 1.42343 -0.70173 0
M  V30 16749 H 1667.98 3.7329 0.737203 0
M  V30 16750 H 1667.49 3.72551 -1.08753 0
M  V30 16751 H 1665.59 3.4671 1.36466 0
M  V30 16752 H 1665.7 4.79094 0.0238536 0
M  V30 16753 H 1664.07 2.54465 0.109433 0
M  V30 16754 H 1664.85 3.10452 -1.46542 0
M  V30 16755 N 1667.3 0.221601 1.56034 0
M  V30 16756 C 1668.52 -0.417979 2.03145 0
M  V30 16757 C 1668.95 -1.52556 1.10038 0
M  V30 16758 O 1668.3 -1.81084 0.0885729 0
M  V30 16759 C 1668.35 -0.926762 3.48487 0
M  V30 16760 O 1667.46 -2.03811 3.58518 0
M  V30 16761 H 1666.8 -0.0945778 0.65723 0
M  V30 16762 H 1669.33 0.340252 2.01751 0
M  V30 16763 H 1669.34 -1.23656 3.8881 0
M  V30 16764 H 1668.01 -0.116115 4.15738 0
M  V30 16765 H 1666.59 -1.73494 3.30082 0
M  V30 16766 N 1668.77 -1.57515 -0.0517878 0
M  V30 16767 C 1670.02 -1.8935 -0.742852 0
M  V30 16768 C 1670.38 -0.817645 -1.74162 0
M  V30 16769 O 1669.67 0.176157 -1.90788 0
M  V30 16770 C 1669.86 -3.25625 -1.4732 0
M  V30 16771 C 1669.69 -4.46365 -0.546677 0
M  V30 16772 C 1668.46 -5.04993 -0.176143 0
M  V30 16773 C 1670.66 -5.14034 0.165236 0
M  V30 16774 N 1668.64 -6.09252 0.75401 0
M  V30 16775 C 1670.01 -6.1265 0.95185 0
M  V30 16776 C 1672.07 -4.97347 0.234592 0
M  V30 16777 C 1670.77 -6.96378 1.80141 0
M  V30 16778 C 1672.8 -5.81618 1.07119 0
M  V30 16779 C 1672.16 -6.79786 1.8458 0
M  V30 16780 H 1668.26 -0.742089 -0.246634 0
M  V30 16781 H 1670.84 -1.947 -0.00363349 0
M  V30 16782 H 1669.01 -3.21246 -2.18301 0
M  V30 16783 H 1670.74 -3.45045 -2.11485 0
M  V30 16784 H 1667.5 -4.70587 -0.5334 0
M  V30 16785 H 1667.92 -6.66046 1.21292 0
M  V30 16786 H 1672.57 -4.21349 -0.349957 0
M  V30 16787 H 1670.28 -7.71736 2.39685 0
M  V30 16788 H 1673.87 -5.70758 1.1281 0
M  V30 16789 H 1672.75 -7.43862 2.48271 0
M  V30 16790 N 1670.25 0.323614 -1.54242 0
M  V30 16791 C 1671.2 1.39936 -1.80005 0
M  V30 16792 C 1672.19 1.46917 -0.656067 0
M  V30 16793 O 1673.38 1.5145 -0.916065 0
M  V30 16794 C 1670.51 2.76791 -2.03081 0
M  V30 16795 C 1669.59 2.74123 -3.23601 0
M  V30 16796 N 1669.99 2.41076 -4.44653 0
M  V30 16797 C 1668.28 3.05252 -3.25173 0
M  V30 16798 C 1668.98 2.47142 -5.26589 0
M  V30 16799 N 1667.96 2.83581 -4.6377 0
M  V30 16800 H 1671.76 1.13315 -2.71177 0
M  V30 16801 H 1669.28 0.532095 -1.53436 0
M  V30 16802 H 1671.27 3.54326 -2.19678 0
M  V30 16803 H 1669.93 3.04342 -1.13163 0
M  V30 16804 H 1670.94 2.13923 -4.71654 0
M  V30 16805 H 1667.62 3.37846 -2.45288 0
M  V30 16806 H 1669.01 2.24583 -6.33255 0
M  V30 16807 N 1671.73 1.46313 0.585673 0
M  V30 16808 C 1672.98 1.51171 1.34134 0
M  V30 16809 C 1673.3 0.163691 1.94312 0
M  V30 16810 O 1672.57 -0.809444 1.78395 0
M  V30 16811 H 1671.15 0.556768 0.498014 0
M  V30 16812 H 1673.81 1.82423 0.686133 0
M  V30 16813 H 1672.91 2.26274 2.14957 0
M  V30 16814 N 1673.21 -0.830057 1.33969 0
M  V30 16815 C 1674.63 -1.12209 1.13496 0
M  V30 16816 C 1674.83 -2.01384 -0.0682972 0
M  V30 16817 O 1673.88 -2.4123 -0.745949 0
M  V30 16818 C 1675.19 -1.77568 2.42673 0
M  V30 16819 C 1676.74 -1.90095 2.48662 0
M  V30 16820 C 1677.22 -2.5887 3.77823 0
M  V30 16821 N 1678.71 -2.66375 3.78944 0
M  V30 16822 C 1679.44 -3.20301 4.75599 0
M  V30 16823 N 1678.94 -3.74846 5.82634 0
M  V30 16824 N 1680.73 -3.18636 4.63063 0
M  V30 16825 H 1672.88 -0.236752 2.11076 0
M  V30 16826 H 1675.15 -0.167572 0.933072 0
M  V30 16827 H 1674.85 -1.19505 3.30774 0
M  V30 16828 H 1674.73 -2.77505 2.55481 0
M  V30 16829 H 1677.11 -2.47308 1.61005 0
M  V30 16830 H 1677.19 -0.890808 2.39788 0
M  V30 16831 H 1676.84 -2.02313 4.65867 0
M  V30 16832 H 1676.77 -3.60373 3.83978 0
M  V30 16833 H 1679.26 -2.27705 3.01594 0
M  V30 16834 H 1679.57 -4.14224 6.52409 0
M  V30 16835 H 1677.92 -3.7311 5.86357 0
M  V30 16836 H 1681.11 -2.75286 3.78597 0
M  V30 16837 H 1681.28 -3.60359 5.38559 0
M  V30 16838 N 1674.69 -1.17582 -1.04939 0
M  V30 16839 C 1675.91 -0.99097 -1.82194 0
M  V30 16840 C 1676.34 0.455965 -1.8249 0
M  V30 16841 O 1675.7 1.32661 -1.23575 0
M  V30 16842 C 1675.74 -1.53971 -3.26076 0
M  V30 16843 O 1674.85 -0.755172 -4.05427 0
M  V30 16844 H 1674.19 -0.351669 -0.563227 0
M  V30 16845 H 1676.72 -1.56138 -1.3222 0
M  V30 16846 H 1676.73 -1.56307 -3.76872 0
M  V30 16847 H 1675.4 -2.59295 -3.25175 0
M  V30 16848 H 1673.98 -0.803423 -3.64142 0
M  V30 16849 N 1676.17 1.23705 -0.976463 0
M  V30 16850 C 1677.41 1.91635 -0.641897 0
M  V30 16851 C 1677.73 1.7661 0.826678 0
M  V30 16852 O 1677 1.14304 1.59096 0
M  V30 16853 H 1675.58 0.709264 -0.234422 0
M  V30 16854 H 1678.25 1.50414 -1.23943 0
M  V30 16855 H 1677.34 2.99138 -0.890099 0
M  V30 16856 N 1677.64 0.747635 1.38738 0
M  V30 16857 C 1678.89 0.301593 2.00545 0
M  V30 16858 C 1679.22 -1.11208 1.59205 0
M  V30 16859 O 1678.5 -1.76052 0.826806 0
M  V30 16860 C 1678.78 0.417739 3.57669 0
M  V30 16861 C 1678.63 1.87209 4.0899 0
M  V30 16862 C 1679.95 -0.192403 4.39679 0
M  V30 16863 H 1677.07 0.11106 0.728584 0
M  V30 16864 H 1679.71 0.946162 1.64766 0
M  V30 16865 H 1677.86 -0.131024 3.88279 0
M  V30 16866 H 1679.54 2.4787 3.89048 0
M  V30 16867 H 1677.78 2.38917 3.62079 0
M  V30 16868 H 1678.45 1.90455 5.18103 0
M  V30 16869 H 1680.93 0.27554 4.15187 0
M  V30 16870 H 1679.8 -0.0808605 5.4884 0
M  V30 16871 H 1680.06 -1.28 4.23165 0
M  V30 16872 N 1679.12 -1.49583 0.496242 0
M  V30 16873 C 1680.07 -2.25966 -0.303873 0
M  V30 16874 C 1681.06 -1.30609 -0.939693 0
M  V30 16875 O 1682.25 -1.5536 -0.848079 0
M  V30 16876 C 1679.38 -3.14755 -1.37055 0
M  V30 16877 C 1678.46 -4.17573 -0.741214 0
M  V30 16878 N 1678.85 -5.05567 0.153357 0
M  V30 16879 C 1677.15 -4.34591 -1.00234 0
M  V30 16880 C 1677.85 -5.79432 0.513115 0
M  V30 16881 N 1676.83 -5.43472 -0.117819 0
M  V30 16882 H 1680.63 -2.91369 0.384854 0
M  V30 16883 H 1678.14 -1.59375 0.312007 0
M  V30 16884 H 1680.14 -3.68104 -1.95717 0
M  V30 16885 H 1678.8 -2.50903 -2.06101 0
M  V30 16886 H 1679.81 -5.15244 0.523862 0
M  V30 16887 H 1676.49 -3.81947 -1.6859 0
M  V30 16888 H 1677.88 -6.60271 1.24468 0
M  V30 16889 N 1680.6 -0.229873 -1.55915 0
M  V30 16890 C 1681.82 0.4072 -2.03363 0
M  V30 16891 C 1682.25 1.5197 -1.10845 0
M  V30 16892 O 1681.61 1.81034 -0.098175 0
M  V30 16893 C 1681.66 0.908268 -3.48974 0
M  V30 16894 O 1680.76 2.01907 -3.59593 0
M  V30 16895 H 1680.1 0.091091 -0.657722 0
M  V30 16896 H 1682.63 -0.350947 -2.01568 0
M  V30 16897 H 1682.64 1.21593 -3.8946 0
M  V30 16898 H 1681.32 0.0940655 -4.15794 0
M  V30 16899 H 1679.89 1.71741 -3.30998 0
M  V30 16900 N 1682.08 1.5754 0.0434337 0
M  V30 16901 C 1683.03 2.0207 1.05602 0
M  V30 16902 C 1684.01 0.907491 1.32866 0
M  V30 16903 O 1685.2 1.17141 1.32692 0
M  V30 16904 C 1682.33 2.49176 2.36149 0
M  V30 16905 C 1681.42 3.67289 2.12037 0
M  V30 16906 N 1681.81 4.8051 1.57937 0
M  V30 16907 C 1680.11 3.74386 2.42387 0
M  V30 16908 C 1680.81 5.62214 1.49298 0
M  V30 16909 N 1679.78 5.06899 1.96353 0
M  V30 16910 H 1683.59 2.87035 0.631515 0
M  V30 16911 H 1681.1 1.60464 0.250012 0
M  V30 16912 H 1683.1 2.79331 3.09483 0
M  V30 16913 H 1681.76 1.65611 2.79291 0
M  V30 16914 H 1682.77 5.02237 1.26405 0
M  V30 16915 H 1679.45 3.01592 2.88701 0
M  V30 16916 H 1680.84 6.6315 1.08082 0
M  V30 16917 N 1683.56 -0.31543 1.54411 0
M  V30 16918 C 1684.49 -1.41263 1.79221 0
M  V30 16919 C 1685.47 -1.49363 0.642601 0
M  V30 16920 O 1686.65 -1.66648 0.880953 0
M  V30 16921 C 1683.78 -2.79294 1.91605 0
M  V30 16922 C 1682.82 -2.88686 3.13946 0
M  V30 16923 S 1683.66 -2.52259 4.72362 0
M  V30 16924 C 1684.81 -3.92347 4.87663 0
M  V30 16925 H 1685.05 -1.20006 2.72003 0
M  V30 16926 H 1682.58 -0.51273 1.45638 0
M  V30 16927 H 1684.54 -3.58803 1.99425 0
M  V30 16928 H 1683.2 -2.97828 0.997857 0
M  V30 16929 H 1682.39 -3.89896 3.1937 0
M  V30 16930 H 1681.99 -2.17157 3.04498 0
M  V30 16931 H 1684.28 -4.8719 4.70799 0
M  V30 16932 H 1685.23 -3.91901 5.89762 0
M  V30 16933 H 1685.64 -3.81679 4.1591 0
M  V30 16934 N 1685.03 -1.46622 -0.577906 0
M  V30 16935 C 1686.26 -1.5576 -1.36185 0
M  V30 16936 C 1686.68 -0.200403 -1.87733 0
M  V30 16937 O 1686.03 0.803091 -1.6388 0
M  V30 16938 C 1686.09 -2.56626 -2.54608 0
M  V30 16939 O 1685.81 -3.87074 -2.05195 0
M  V30 16940 C 1687.31 -2.75751 -3.47097 0
M  V30 16941 H 1684.53 -0.526589 -0.415866 0
M  V30 16942 H 1687.07 -1.9207 -0.702091 0
M  V30 16943 H 1685.23 -2.23307 -3.16564 0
M  V30 16944 H 1685.64 -4.42015 -2.82352 0
M  V30 16945 H 1687.11 -3.50237 -4.26659 0
M  V30 16946 H 1687.59 -1.82829 -3.99337 0
M  V30 16947 H 1688.2 -3.10185 -2.90973 0
M  V30 16948 N 1686.51 0.822941 -1.34408 0
M  V30 16949 C 1687.46 1.95524 -1.25988 0
M  V30 16950 C 1688.45 1.68662 -0.157994 0
M  V30 16951 O 1689.66 1.77079 -0.322966 0
M  V30 16952 H 1686.04 0.642117 -0.391394 0
M  V30 16953 H 1688.01 1.99747 -2.21683 0
M  V30 16954 C 1686.76 3.32026 -1.03218 0
M  V30 16955 H 1686.08 3.53244 -1.87239 0
M  V30 16956 H 1687.52 4.11706 -1.01363 0
M  V30 16957 C 1685.98 3.3586 0.264523 0
M  V30 16958 O 1686.51 3.81232 1.26589 0
M  V30 16959 N 1684.71 2.89072 0.297626 0
M  V30 16960 H 1684.26 2.52341 -0.517836 0
M  V30 16961 H 1684.22 2.92019 1.165 0
M  V30 16962 N 1687.99 1.18137 1.04314 0
M  V30 16963 C 1689.22 1.00002 1.81128 0
M  V30 16964 C 1689.63 -0.451609 1.83319 0
M  V30 16965 O 1688.99 -1.31367 1.26685 0
M  V30 16966 C 1689.04 1.54454 3.26843 0
M  V30 16967 O 1688.76 2.93933 3.24861 0
M  V30 16968 C 1690.26 1.40902 4.20311 0
M  V30 16969 H 1687.48 0.35327 0.570475 0
M  V30 16970 H 1690.03 1.56629 1.31482 0
M  V30 16971 H 1688.18 1.02009 3.73728 0
M  V30 16972 H 1688.6 3.19279 4.16127 0
M  V30 16973 H 1690.07 1.83803 5.205 0
M  V30 16974 H 1690.55 0.357371 4.37744 0
M  V30 16975 H 1691.15 1.92407 3.79288 0
M  V30 16976 N 1689.47 -1.23186 0.98301 0
M  V30 16977 C 1690.88 -1.43814 0.69207 0
M  V30 16978 C 1691.08 -1.87387 -0.740823 0
M  V30 16979 O 1690.14 -2.02154 -1.51295 0
M  V30 16980 C 1691.45 -2.48769 1.68922 0
M  V30 16981 C 1693 -2.62579 1.70356 0
M  V30 16982 C 1693.48 -3.70746 2.68908 0
M  V30 16983 N 1694.97 -3.78192 2.67442 0
M  V30 16984 C 1695.7 -4.61453 3.40366 0
M  V30 16985 N 1695.2 -5.48784 4.22857 0
M  V30 16986 N 1696.99 -4.55673 3.29118 0
M  V30 16987 H 1689.14 -0.932046 1.90858 0
M  V30 16988 H 1691.41 -0.471274 0.82256 0
M  V30 16989 H 1691.11 -2.23675 2.71408 0
M  V30 16990 H 1690.99 -3.47201 1.47415 0
M  V30 16991 H 1693.37 -2.87022 0.685728 0
M  V30 16992 H 1693.45 -1.64454 1.9593 0
M  V30 16993 H 1693.1 -3.47051 3.70834 0
M  V30 16994 H 1693.03 -4.68418 2.40607 0
M  V30 16995 H 1695.52 -3.15785 2.07577 0
M  V30 16996 H 1695.83 -6.09312 4.75351 0
M  V30 16997 H 1694.18 -5.48398 4.26948 0
M  V30 16998 H 1697.37 -3.86468 2.64122 0
M  V30 16999 H 1697.54 -5.20332 3.8621 0
M  V30 17000 N 1690.95 -0.754982 -1.38339 0
M  V30 17001 C 1692.2 -0.308537 -1.99326 0
M  V30 17002 C 1692.51 1.1164 -1.60611 0
M  V30 17003 O 1693.71 1.66339 -2.14578 0
M  V30 17004 C 1692.17 -0.500688 -3.564 0
M  V30 17005 C 1691.78 -1.9348 -4.04066 0
M  V30 17006 C 1693.52 -0.117026 -4.24339 0
M  V30 17007 C 1691.43 -2.07544 -5.53786 0
M  V30 17008 H 1690.36 -0.111611 -0.745694 0
M  V30 17009 H 1693.01 -0.931722 -1.58086 0
M  V30 17010 H 1691.39 0.191702 -3.95536 0
M  V30 17011 H 1692.57 -2.66077 -3.76217 0
M  V30 17012 H 1690.88 -2.27351 -3.48856 0
M  V30 17013 H 1693.48 -0.200847 -5.34323 0
M  V30 17014 H 1693.82 0.930531 -4.05767 0
M  V30 17015 H 1694.35 -0.761323 -3.90447 0
M  V30 17016 H 1691.09 -3.10559 -5.77264 0
M  V30 17017 H 1690.61 -1.39409 -5.83374 0
M  V30 17018 H 1692.29 -1.86605 -6.19506 0
M  V30 17019 N 1692.42 1.49318 -0.504168 0
M  V30 17020 C 1693.65 2.06869 0.0359415 0
M  V30 17021 C 1694.07 1.3641 1.30529 0
M  V30 17022 O 1693.42 0.443416 1.77031 0
M  V30 17023 C 1693.48 3.60333 0.290233 0
M  V30 17024 O 1693.2 4.28141 -0.928801 0
M  V30 17025 C 1694.7 4.34606 0.873628 0
M  V30 17026 H 1691.92 0.670643 -0.0218893 0
M  V30 17027 H 1694.46 1.92058 -0.702432 0
M  V30 17028 H 1692.62 3.74836 0.978594 0
M  V30 17029 H 1693.03 5.19894 -0.693595 0
M  V30 17030 H 1694.5 5.42846 1.00112 0
M  V30 17031 H 1694.98 3.97297 1.87221 0
M  V30 17032 H 1695.59 4.24717 0.222638 0
M  V30 17033 N 1693.9 0.238138 1.5579 0
M  V30 17034 C 1695.18 -0.438905 1.90612 0
M  V30 17035 C 1695.56 -1.76522 1.15773 0
M  V30 17036 O 1694.91 -2.26871 0.272363 0
M  V30 17037 C 1695.12 -0.615595 3.43528 0
M  V30 17038 C 1696.47 -0.915478 4.14613 0
M  V30 17039 O 1697.49 -0.70178 3.49218 0
M  V30 17040 O 1696.35 -1.32194 5.30271 0
M  V30 17041 H 1693.44 -0.234355 0.7931 0
M  V30 17042 H 1695.99 0.281555 1.67348 0
M  V30 17043 H 1694.76 0.319274 3.89995 0
M  V30 17044 H 1694.38 -1.38692 3.72626 0
M  V30 17045 N 1695.38 -1.57561 -0.0350783 0
M  V30 17046 C 1696.79 -1.77383 -0.582437 0
M  V30 17047 C 1697.14 -0.868453 -1.75933 0
M  V30 17048 O 1696.27 -0.061745 -2.16312 0
M  V30 17049 C 1696.86 -3.2168 -1.06337 0
M  V30 17050 C 1695.42 -3.42719 -1.55629 0
M  V30 17051 C 1694.57 -2.72906 -0.4917 0
M  V30 17052 H 1697.52 -1.57545 0.19115 0
M  V30 17053 H 1697.54 -3.27863 -1.93097 0
M  V30 17054 H 1697.05 -3.8755 -0.206603 0
M  V30 17055 H 1695.15 -2.82016 -2.43511 0
M  V30 17056 H 1695.27 -4.51312 -1.60794 0
M  V30 17057 H 1693.63 -2.36506 -0.945349 0
M  V30 17058 H 1694.41 -3.41454 0.355502 0
M  V30 17059 N 1696.86 0.307236 -1.54576 0
M  V30 17060 C 1697.77 1.4014 -1.88143 0
M  V30 17061 C 1698.78 1.5579 -0.774952 0
M  V30 17062 O 1699.96 1.70574 -1.07082 0
M  V30 17063 C 1697.03 2.74613 -2.11633 0
M  V30 17064 C 1696.09 2.68001 -3.35371 0
M  V30 17065 C 1695.32 3.96061 -3.57731 0
M  V30 17066 O 1695.54 4.95119 -2.83219 0
M  V30 17067 O 1694.48 3.98331 -4.51238 0
M  V30 17068 H 1698.3 1.14677 -2.81217 0
M  V30 17069 H 1695.89 0.502739 -1.40687 0
M  V30 17070 H 1697.77 3.54186 -2.2832 0
M  V30 17071 H 1696.44 2.99933 -1.21746 0
M  V30 17072 H 1695.35 1.86922 -3.24054 0
M  V30 17073 H 1696.68 2.47635 -4.25368 0
M  V30 17074 N 1698.34 1.46926 0.570122 0
M  V30 17075 C 1699.59 1.52151 1.32413 0
M  V30 17076 C 1699.9 0.18291 1.94743 0
M  V30 17077 O 1701.1 0.113045 2.71265 0
M  V30 17078 C 1699.56 2.68153 2.40046 0
M  V30 17079 C 1699.17 4.08487 1.83963 0
M  V30 17080 C 1700.91 2.82659 3.16709 0
M  V30 17081 C 1698.82 5.1581 2.893 0
M  V30 17082 H 1697.75 0.566291 0.497826 0
M  V30 17083 H 1700.4 1.73169 0.607011 0
M  V30 17084 H 1698.78 2.40488 3.14613 0
M  V30 17085 H 1699.96 4.45998 1.15854 0
M  V30 17086 H 1698.27 3.98756 1.19927 0
M  V30 17087 H 1700.87 3.60008 3.95346 0
M  V30 17088 H 1701.21 1.9063 3.70089 0
M  V30 17089 H 1701.74 3.10031 2.4925 0
M  V30 17090 H 1698.48 6.09672 2.40791 0
M  V30 17091 H 1698 4.8283 3.55859 0
M  V30 17092 H 1699.68 5.42201 3.53026 0
M  V30 17093 N 1699.82 -0.815801 1.34842 0
M  V30 17094 C 1700.75 -1.94193 1.29659 0
M  V30 17095 C 1701.73 -1.69221 0.172703 0
M  V30 17096 O 1702.91 -1.90716 0.366203 0
M  V30 17097 C 1700.04 -3.30777 1.0585 0
M  V30 17098 C 1699 -3.70207 2.1478 0
M  V30 17099 C 1698.32 -5.04852 1.76149 0
M  V30 17100 C 1699.62 -3.81553 3.56671 0
M  V30 17101 H 1701.32 -1.98787 2.23884 0
M  V30 17102 H 1698.86 -0.955013 1.07775 0
M  V30 17103 H 1700.81 -4.0915 1.00866 0
M  V30 17104 H 1699.54 -3.265 0.0806804 0
M  V30 17105 H 1698.2 -2.94113 2.18845 0
M  V30 17106 H 1697.85 -4.9707 0.770099 0
M  V30 17107 H 1697.55 -5.32205 2.49062 0
M  V30 17108 H 1699.07 -5.85676 1.72674 0
M  V30 17109 H 1700.48 -4.50181 3.54979 0
M  V30 17110 H 1698.88 -4.20367 4.28266 0
M  V30 17111 H 1699.95 -2.83356 3.93494 0
M  V30 17112 N 1701.29 -1.18689 -1.03686 0
M  V30 17113 C 1702.2 -0.932473 -2.15272 0
M  V30 17114 C 1703.22 0.104751 -1.73684 0
M  V30 17115 O 1704.4 -0.0780471 -2.01249 0
M  V30 17116 C 1701.46 -0.465807 -3.43557 0
M  V30 17117 C 1700.52 -1.57146 -3.99504 0
M  V30 17118 C 1699.75 -1.12696 -5.21666 0
M  V30 17119 O 1699.98 0.0127657 -5.70399 0
M  V30 17120 O 1698.91 -1.92627 -5.70244 0
M  V30 17121 H 1702.74 -1.86626 -2.39592 0
M  V30 17122 H 1700.32 -0.969029 -1.13711 0
M  V30 17123 H 1702.2 -0.213819 -4.20857 0
M  V30 17124 H 1700.88 0.43964 -3.20701 0
M  V30 17125 H 1699.79 -1.8775 -3.23575 0
M  V30 17126 H 1701.12 -2.45317 -4.26709 0
M  V30 17127 N 1702.77 1.22662 -0.989529 0
M  V30 17128 C 1704 1.95883 -0.681511 0
M  V30 17129 C 1704.42 1.72646 0.746646 0
M  V30 17130 O 1703.78 1.00358 1.5099 0
M  V30 17131 C 1703.83 3.46773 -0.988975 0
M  V30 17132 O 1702.93 4.12311 -0.0858485 0
M  V30 17133 H 1702.27 0.612916 -0.255401 0
M  V30 17134 H 1704.8 1.5585 -1.32559 0
M  V30 17135 H 1704.81 3.97273 -0.929426 0
M  V30 17136 H 1703.49 3.63011 -2.02967 0
M  V30 17137 H 1702.06 3.7236 -0.200592 0
M  V30 17138 N 1704.25 0.762308 1.37937 0
M  V30 17139 C 1705.67 0.440871 1.5339 0
M  V30 17140 C 1705.87 -1.04483 1.72295 0
M  V30 17141 O 1704.92 -1.83078 1.73892 0
M  V30 17142 C 1706.23 1.24772 2.73592 0
M  V30 17143 C 1707.78 1.23867 2.87447 0
M  V30 17144 C 1708.26 2.02866 4.10621 0
M  V30 17145 N 1709.75 2.00171 4.17715 0
M  V30 17146 C 1710.48 2.58086 5.12034 0
M  V30 17147 N 1709.98 3.2475 6.11972 0
M  V30 17148 N 1711.77 2.47968 5.04449 0
M  V30 17149 H 1703.92 1.72506 1.23916 0
M  V30 17150 H 1706.19 0.731791 0.602649 0
M  V30 17151 H 1705.89 2.30016 2.66056 0
M  V30 17152 H 1705.77 0.870485 3.67018 0
M  V30 17153 H 1708.15 0.194255 2.9446 0
M  V30 17154 H 1708.23 1.65548 1.95007 0
M  V30 17155 H 1707.88 3.07323 4.04369 0
M  V30 17156 H 1707.81 1.58574 5.02157 0
M  V30 17157 H 1710.3 1.5163 3.46146 0
M  V30 17158 H 1710.61 3.66339 6.80453 0
M  V30 17159 H 1708.96 3.28846 6.12279 0
M  V30 17160 H 1712.15 1.95509 4.25316 0
M  V30 17161 H 1712.32 2.93398 5.77773 0
M  V30 17162 N 1705.73 -1.49049 0.51208 0
M  V30 17163 C 1706.96 -2.06585 -0.024934 0
M  V30 17164 C 1707.37 -1.3713 -1.30353 0
M  V30 17165 O 1706.71 -0.446872 -1.78182 0
M  V30 17166 C 1706.77 -3.57911 -0.33768 0
M  V30 17167 C 1706.43 -4.49123 0.844817 0
M  V30 17168 C 1707.43 -4.89977 1.73836 0
M  V30 17169 C 1705.12 -4.91272 1.04675 0
M  V30 17170 C 1707.11 -5.71728 2.8179 0
M  V30 17171 C 1704.8 -5.72798 2.12946 0
M  V30 17172 C 1705.8 -6.12932 3.01337 0
M  V30 17173 O 1705.48 -6.92825 4.07737 0
M  V30 17174 H 1705.22 -0.675633 0.0222573 0
M  V30 17175 H 1707.77 -1.92669 0.711891 0
M  V30 17176 H 1706 -3.69875 -1.12825 0
M  V30 17177 H 1707.69 -3.97641 -0.814628 0
M  V30 17178 H 1708.45 -4.5805 1.59421 0
M  V30 17179 H 1704.33 -4.59528 0.368089 0
M  V30 17180 H 1707.88 -6.02974 3.50811 0
M  V30 17181 H 1703.77 -6.04137 2.27351 0
M  V30 17182 H 1704.54 -7.1115 4.05226 0
M  V30 17183 N 1707.21 -0.246397 -1.55662 0
M  V30 17184 C 1708.62 0.256853 -1.84925 0
M  V30 17185 C 1708.97 1.5763 -1.16821 0
M  V30 17186 O 1708.09 2.11745 -0.446415 0
M  V30 17187 C 1708.69 0.472815 -3.35485 0
M  V30 17188 C 1707.25 0.92033 -3.64975 0
M  V30 17189 C 1706.39 -0.00273772 -2.773 0
M  V30 17190 H 1709.34 -0.468971 -1.51612 0
M  V30 17191 H 1709.37 1.31549 -3.57037 0
M  V30 17192 H 1708.88 -0.487664 -3.85024 0
M  V30 17193 H 1706.98 1.89329 -3.20913 0
M  V30 17194 H 1707.09 0.77754 -4.72748 0
M  V30 17195 H 1705.46 0.508539 -2.49572 0
M  V30 17196 H 1706.24 -0.958581 -3.29645 0
M  V30 17197 N 1708.68 1.57577 0.026722 0
M  V30 17198 C 1709.93 1.8966 0.718124 0
M  V30 17199 C 1710.26 0.844423 1.7488 0
M  V30 17200 O 1709.54 -0.14023 1.93994 0
M  V30 17201 C 1709.82 3.32377 1.38555 0
M  V30 17202 C 1709.67 4.4829 0.368227 0
M  V30 17203 C 1710.99 3.74051 2.31891 0
M  V30 17204 H 1708.11 0.689767 0.259596 0
M  V30 17205 H 1710.75 1.8999 -0.0190825 0
M  V30 17206 H 1708.9 3.32226 2.01391 0
M  V30 17207 H 1710.58 4.60576 -0.258394 0
M  V30 17208 H 1708.82 4.32675 -0.312255 0
M  V30 17209 H 1709.49 5.45041 0.873749 0
M  V30 17210 H 1711.97 3.75584 1.79097 0
M  V30 17211 H 1710.84 4.74713 2.7557 0
M  V30 17212 H 1711.1 3.06438 3.18666 0
M  V30 17213 N 1710.16 -0.299034 1.54737 0
M  V30 17214 C 1711.41 -1.03164 1.7332 0
M  V30 17215 C 1711.72 -1.88362 0.527184 0
M  V30 17216 O 1712.93 -2.64903 0.594868 0
M  V30 17217 C 1711.39 -1.88391 3.06654 0
M  V30 17218 C 1710.99 -1.08187 4.34741 0
M  V30 17219 C 1712.74 -2.6124 3.34595 0
M  V30 17220 C 1710.64 -1.92702 5.59124 0
M  V30 17221 H 1709.57 -0.388887 0.645975 0
M  V30 17222 H 1712.23 -0.288544 1.81217 0
M  V30 17223 H 1710.61 -2.66696 2.92727 0
M  V30 17224 H 1711.78 -0.344817 4.59508 0
M  V30 17225 H 1710.1 -0.469118 4.13749 0
M  V30 17226 H 1712.69 -3.24826 4.24726 0
M  V30 17227 H 1713.04 -3.30172 2.53559 0
M  V30 17228 H 1713.57 -1.89982 3.49502 0
M  V30 17229 H 1710.31 -1.28236 6.42834 0
M  V30 17230 H 1709.83 -2.64074 5.38539 0
M  V30 17231 H 1711.51 -2.50702 5.96454 0
M  V30 17232 N 1711.64 -1.47227 -0.562322 0
M  V30 17233 C 1712.57 -1.62204 -1.67965 0
M  V30 17234 C 1713.55 -0.471638 -1.63431 0
M  V30 17235 O 1714.74 -0.70036 -1.81131 0
M  V30 17236 C 1711.87 -1.63127 -3.06605 0
M  V30 17237 C 1710.82 -2.77343 -3.25983 0
M  V30 17238 C 1710.15 -2.63336 -4.65358 0
M  V30 17239 C 1711.45 -4.18983 -3.1185 0
M  V30 17240 H 1713.14 -2.55739 -1.55686 0
M  V30 17241 H 1710.69 -1.23075 -0.747561 0
M  V30 17242 H 1712.64 -1.72197 -3.84612 0
M  V30 17243 H 1711.36 -0.661501 -3.19831 0
M  V30 17244 H 1710.02 -2.67776 -2.50383 0
M  V30 17245 H 1709.67 -1.64398 -4.75376 0
M  V30 17246 H 1709.37 -3.39957 -4.79273 0
M  V30 17247 H 1710.89 -2.74327 -5.45506 0
M  V30 17248 H 1712.31 -4.29554 -3.79679 0
M  V30 17249 H 1710.7 -4.96351 -3.37277 0
M  V30 17250 H 1711.77 -4.37709 -2.08661 0
M  V30 17251 N 1713.12 0.808639 -1.35273 0
M  V30 17252 C 1714.53 1.10389 -1.15267 0
M  V30 17253 C 1714.73 2.01467 0.0362501 0
M  V30 17254 O 1713.79 2.42386 0.707477 0
M  V30 17255 C 1715.1 1.73685 -2.45467 0
M  V30 17256 C 1716.65 1.86115 -2.51655 0
M  V30 17257 C 1717.13 2.52826 -3.81894 0
M  V30 17258 N 1718.62 2.60313 -3.83134 0
M  V30 17259 C 1719.35 3.12694 -4.80635 0
M  V30 17260 N 1718.85 3.6553 -5.88523 0
M  V30 17261 N 1720.64 3.11228 -4.68074 0
M  V30 17262 H 1712.79 0.203141 -2.11426 0
M  V30 17263 H 1715.05 0.152706 -0.93562 0
M  V30 17264 H 1714.76 1.14228 -3.32633 0
M  V30 17265 H 1714.63 2.73406 -2.59864 0
M  V30 17266 H 1717.02 2.44715 -1.64919 0
M  V30 17267 H 1717.1 0.852547 -2.41175 0
M  V30 17268 H 1716.75 1.94875 -4.69027 0
M  V30 17269 H 1716.68 3.54219 -3.89662 0
M  V30 17270 H 1719.17 2.22878 -3.05178 0
M  V30 17271 H 1719.48 4.03793 -6.58917 0
M  V30 17272 H 1717.83 3.63734 -5.92218 0
M  V30 17273 H 1721.02 2.69228 -3.82928 0
M  V30 17274 H 1721.19 3.51745 -5.44224 0
M  V30 17275 N 1714.6 1.19237 1.03055 0
M  V30 17276 C 1716.01 0.944224 1.28672 0
M  V30 17277 C 1716.21 -0.384378 1.978 0
M  V30 17278 O 1715.27 -1.11629 2.26484 0
M  V30 17279 C 1716.58 2.11704 2.13546 0
M  V30 17280 C 1718.13 2.15647 2.2686 0
M  V30 17281 C 1718.6 3.32375 3.15105 0
M  V30 17282 N 1720.1 3.323 3.22693 0
M  V30 17283 C 1720.83 4.19265 3.91158 0
M  V30 17284 N 1720.33 5.16381 4.61868 0
M  V30 17285 N 1722.12 4.07147 3.87541 0
M  V30 17286 H 1714.27 2.0472 0.565987 0
M  V30 17287 H 1716.53 0.895073 0.312328 0
M  V30 17288 H 1716.24 3.07845 1.70072 0
M  V30 17289 H 1716.11 2.08624 3.14254 0
M  V30 17290 H 1718.5 1.20078 2.69565 0
M  V30 17291 H 1718.58 2.22781 1.25708 0
M  V30 17292 H 1718.23 4.28222 2.73108 0
M  V30 17293 H 1718.16 3.22478 4.16312 0
M  V30 17294 H 1720.65 2.62 2.72331 0
M  V30 17295 H 1720.96 5.7909 5.11737 0
M  V30 17296 H 1719.3 5.20331 4.60739 0
M  V30 17297 H 1722.5 3.30555 3.31438 0
M  V30 17298 H 1722.67 4.75135 4.40625 0
M  V30 17299 N 1716.07 -1.22136 0.99602 0
M  V30 17300 C 1717.32 -1.90967 0.673634 0
M  V30 17301 C 1717.65 -1.77526 -0.794654 0
M  V30 17302 O 1716.9 -1.14014 -1.59058 0
M  V30 17303 C 1717.2 -3.42259 1.02926 0
M  V30 17304 C 1716.87 -3.75891 2.49032 0
M  V30 17305 C 1715.53 -3.84781 2.88959 0
M  V30 17306 C 1717.88 -3.91799 3.43719 0
M  V30 17307 C 1715.21 -4.0702 4.22554 0
M  V30 17308 C 1717.56 -4.15543 4.76977 0
M  V30 17309 C 1716.23 -4.22658 5.1664 0
M  V30 17310 H 1715.5 -0.698798 0.2465 0
M  V30 17311 H 1718.14 -1.44836 1.25279 0
M  V30 17312 H 1716.45 -3.90066 0.368224 0
M  V30 17313 H 1718.15 -3.93774 0.757803 0
M  V30 17314 H 1714.74 -3.69556 2.17086 0
M  V30 17315 H 1718.92 -3.84306 3.14042 0
M  V30 17316 H 1714.18 -4.10756 4.52868 0
M  V30 17317 H 1718.35 -4.26796 5.50289 0
M  V30 17318 H 1715.98 -4.39643 6.20176 0
M  V30 17319 N 1717.55 -0.769612 -1.37531 0
M  V30 17320 C 1718.46 -0.15514 -2.34086 0
M  V30 17321 C 1719.48 0.682108 -1.60073 0
M  V30 17322 O 1720.65 0.602527 -1.92176 0
M  V30 17323 C 1717.72 0.715344 -3.3924 0
M  V30 17324 C 1716.78 -0.138116 -4.29078 0
M  V30 17325 C 1716.01 0.690916 -5.29209 0
M  V30 17326 O 1716.24 1.92812 -5.36824 0
M  V30 17327 O 1715.17 0.101247 -6.01815 0
M  V30 17328 H 1719 -0.952968 -2.88361 0
M  V30 17329 H 1716.58 -0.530738 -1.39655 0
M  V30 17330 H 1718.46 1.21236 -4.03584 0
M  V30 17331 H 1717.14 1.4914 -2.87296 0
M  V30 17332 H 1716.05 -0.681443 -3.67841 0
M  V30 17333 H 1717.38 -0.877202 -4.8432 0
M  V30 17334 N 1719.03 1.48775 -0.519977 0
M  V30 17335 C 1719.96 2.32292 0.237213 0
M  V30 17336 C 1720.94 1.4146 0.944625 0
M  V30 17337 O 1722.13 1.70355 0.932349 0
M  V30 17338 C 1719.26 3.22426 1.29068 0
M  V30 17339 C 1718.21 4.22204 0.702011 0
M  V30 17340 C 1717.54 5.01403 1.85739 0
M  V30 17341 C 1718.84 5.21321 -0.319626 0
M  V30 17342 H 1720.53 2.95846 -0.459949 0
M  V30 17343 H 1718.08 1.42268 -0.222641 0
M  V30 17344 H 1720.03 3.79674 1.82826 0
M  V30 17345 H 1718.75 2.56853 2.01728 0
M  V30 17346 H 1717.41 3.66128 0.186027 0
M  V30 17347 H 1717.06 4.32262 2.57214 0
M  V30 17348 H 1716.76 5.68929 1.46949 0
M  V30 17349 H 1718.28 5.615 2.39895 0
M  V30 17350 H 1719.7 5.73151 0.130505 0
M  V30 17351 H 1718.1 5.96843 -0.624377 0
M  V30 17352 H 1719.17 4.69069 -1.22893 0
M  V30 17353 N 1720.51 0.254649 1.55529 0
M  V30 17354 C 1721.92 -0.100019 1.59286 0
M  V30 17355 C 1722.12 -1.56289 1.27185 0
M  V30 17356 O 1721.18 -2.30854 1.02287 0
M  V30 17357 C 1722.49 0.256158 2.99607 0
M  V30 17358 C 1724.04 0.201091 3.12353 0
M  V30 17359 C 1724.52 0.531411 4.54907 0
M  V30 17360 N 1726.01 0.482199 4.60683 0
M  V30 17361 C 1726.74 0.710848 5.68977 0
M  V30 17362 N 1726.24 1.00304 6.85501 0
M  V30 17363 N 1728.03 0.641029 5.58433 0
M  V30 17364 H 1720.18 1.20856 1.74664 0
M  V30 17365 H 1722.45 0.486824 0.813453 0
M  V30 17366 H 1722.15 1.27275 3.27863 0
M  V30 17367 H 1722.03 -0.412994 3.74932 0
M  V30 17368 H 1724.41 -0.806189 2.83874 0
M  V30 17369 H 1724.49 0.904206 2.39286 0
M  V30 17370 H 1724.14 1.53628 4.84108 0
M  V30 17371 H 1724.07 -0.193269 5.26245 0
M  V30 17372 H 1726.56 0.265409 3.76967 0
M  V30 17373 H 1726.87 1.16472 7.63973 0
M  V30 17374 H 1725.22 1.04059 6.87166 0
M  V30 17375 H 1728.41 0.412751 4.66277 0
M  V30 17376 H 1728.58 0.822617 6.42757 0
M  V30 17377 N 1721.99 -1.57589 -0.0183649 0
M  V30 17378 C 1723.4 -1.55152 -0.374183 0
M  V30 17379 C 1723.6 -0.98217 -1.75942 0
M  V30 17380 O 1722.66 -0.607905 -2.45073 0
M  V30 17381 C 1723.97 -2.99519 -0.266231 0
M  V30 17382 C 1725.52 -3.1112 -0.342527 0
M  V30 17383 C 1725.99 -4.57239 -0.263905 0
M  V30 17384 N 1727.49 -4.62077 -0.322372 0
M  V30 17385 C 1728.22 -5.72693 -0.284594 0
M  V30 17386 N 1727.72 -6.92516 -0.198482 0
M  V30 17387 N 1729.51 -5.611 -0.335111 0
M  V30 17388 H 1721.66 -1.92945 0.888033 0
M  V30 17389 H 1723.92 -0.885432 0.338695 0
M  V30 17390 H 1723.63 -3.44942 0.686123 0
M  V30 17391 H 1723.5 -3.62127 -1.05565 0
M  V30 17392 H 1725.89 -2.65638 -1.28532 0
M  V30 17393 H 1725.97 -2.51324 0.476435 0
M  V30 17394 H 1725.62 -5.03391 0.675263 0
M  V30 17395 H 1725.55 -5.14959 -1.10111 0
M  V30 17396 H 1728.04 -3.75872 -0.391004 0
M  V30 17397 H 1728.35 -7.72602 -0.175048 0
M  V30 17398 H 1726.69 -6.94806 -0.164374 0
M  V30 17399 H 1729.89 -4.66384 -0.400452 0
M  V30 17400 H 1730.06 -6.47295 -0.302203 0
M  V30 17401 N 1723.46 0.290824 -1.54893 0
M  V30 17402 C 1724.71 1.02272 -1.74312 0
M  V30 17403 C 1725.03 1.87449 -0.537393 0
M  V30 17404 O 1724.3 1.90705 0.448135 0
M  V30 17405 H 1722.88 0.380592 -0.642774 0
M  V30 17406 H 1725.55 0.319353 -1.92266 0
M  V30 17407 H 1724.64 1.66997 -2.63663 0
M  V30 17408 N 1724.94 1.47523 0.554506 0
M  V30 17409 C 1726.17 1.58154 1.34172 0
M  V30 17410 C 1726.59 0.233124 1.8665 0
M  V30 17411 O 1725.95 -0.791439 1.63113 0
M  V30 17412 C 1726 2.61242 2.48566 0
M  V30 17413 O 1725.1 2.167 3.50877 0
M  V30 17414 H 1724.44 0.531184 0.398421 0
M  V30 17415 H 1726.97 1.93324 0.669841 0
M  V30 17416 H 1726.98 2.81746 2.95098 0
M  V30 17417 H 1725.66 3.59148 2.09727 0
M  V30 17418 H 1724.24 2.06305 3.10632 0
M  V30 17419 N 1726.42 -0.801453 1.357 0
M  V30 17420 C 1727.67 -1.55571 1.29004 0
M  V30 17421 C 1727.99 -1.9454 -0.133836 0
M  V30 17422 O 1727.26 -1.64004 -1.07143 0
M  V30 17423 H 1725.84 -0.576922 0.47452 0
M  V30 17424 H 1728.5 -0.95568 1.69861 0
M  V30 17425 H 1727.6 -2.46879 1.90937 0
M  V30 17426 N 1727.9 -1.19782 -1.02421 0
M  V30 17427 C 1729.15 -1.00133 -1.7555 0
M  V30 17428 C 1729.47 0.468503 -1.89288 0
M  V30 17429 O 1728.74 1.3391 -1.42986 0
M  V30 17430 H 1727.32 -0.367513 -0.650341 0
M  V30 17431 H 1729.98 -1.50758 -1.23523 0
M  V30 17432 H 1729.08 -1.45329 -2.76199 0
M  V30 17433 N 1729.38 1.21606 -1.00248 0
M  V30 17434 C 1730.79 1.42695 -0.714862 0
M  V30 17435 C 1730.99 1.88542 0.710917 0
M  V30 17436 O 1730.05 2.04535 1.48059 0
M  V30 17437 C 1731.36 2.4605 -1.72858 0
M  V30 17438 C 1732.91 2.59836 -1.74511 0
M  V30 17439 C 1733.39 3.66421 -2.74772 0
M  V30 17440 N 1734.88 3.73889 -2.73425 0
M  V30 17441 C 1735.61 4.5598 -3.47664 0
M  V30 17442 N 1735.11 5.41987 -4.31535 0
M  V30 17443 N 1736.9 4.50379 -3.36326 0
M  V30 17444 H 1729.05 0.901565 -1.92316 0
M  V30 17445 H 1731.31 0.458128 -0.829954 0
M  V30 17446 H 1731.02 2.19329 -2.74932 0
M  V30 17447 H 1730.89 3.44812 -1.5292 0
M  V30 17448 H 1733.28 2.85895 -0.731304 0
M  V30 17449 H 1733.36 1.61317 -1.98521 0
M  V30 17450 H 1733.01 3.41108 -3.76308 0
M  V30 17451 H 1732.94 4.64531 -2.48029 0
M  V30 17452 H 1735.43 3.12443 -2.12575 0
M  V30 17453 H 1735.74 6.01673 -4.84984 0
M  V30 17454 H 1734.09 5.41537 -4.35618 0
M  V30 17455 H 1737.28 3.82217 -2.70237 0
M  V30 17456 H 1737.45 5.14122 -3.9444 0
M  V30 17457 N 1730.86 0.776895 1.37121 0
M  V30 17458 C 1732.1 0.342876 1.9917 0
M  V30 17459 C 1732.42 -1.08574 1.61977 0
M  V30 17460 O 1731.69 -1.74634 0.887689 0
M  V30 17461 H 1730.27 0.123788 0.736672 0
M  V30 17462 H 1732.94 0.996163 1.67519 0
M  V30 17463 H 1732.03 0.424637 3.09198 0
M  V30 17464 N 1732.33 -1.48497 0.527859 0
M  V30 17465 C 1733.75 -1.58517 0.185573 0
M  V30 17466 C 1733.95 -1.53012 -1.31109 0
M  V30 17467 O 1733.01 -1.41807 -2.08919 0
M  V30 17468 C 1734.32 -2.9024 0.786219 0
M  V30 17469 C 1735.87 -3.03764 0.75476 0
M  V30 17470 C 1736.34 -4.38144 1.33394 0
M  V30 17471 N 1737.83 -4.44705 1.29582 0
M  V30 17472 C 1738.57 -5.47187 1.71388 0
M  V30 17473 N 1738.06 -6.56635 2.20913 0
M  V30 17474 N 1739.86 -5.38057 1.62638 0
M  V30 17475 H 1732.01 -1.50319 1.5006 0
M  V30 17476 H 1734.27 -0.713625 0.624054 0
M  V30 17477 H 1733.98 -2.99918 1.8369 0
M  V30 17478 H 1733.85 -3.76288 0.262084 0
M  V30 17479 H 1736.24 -2.937 -0.287157 0
M  V30 17480 H 1736.32 -2.19331 1.31634 0
M  V30 17481 H 1735.96 -4.48962 2.37478 0
M  V30 17482 H 1735.89 -5.2126 0.748063 0
M  V30 17483 H 1738.38 -3.66195 0.933246 0
M  V30 17484 H 1738.7 -7.30967 2.50813 0
M  V30 17485 H 1737.04 -6.57604 2.24906 0
M  V30 17486 H 1740.23 -4.51447 1.23746 0
M  V30 17487 H 1740.41 -6.17793 1.9554 0
M  V30 17488 N 1733.81 -0.262893 -1.55392 0
M  V30 17489 C 1735.06 0.357366 -1.99322 0
M  V30 17490 C 1735.39 1.56772 -1.15121 0
M  V30 17491 O 1734.64 1.94614 -0.205867 0
M  V30 17492 C 1734.94 0.795313 -3.48439 0
M  V30 17493 C 1734.61 -0.309047 -4.4984 0
M  V30 17494 C 1733.27 -0.612317 -4.77288 0
M  V30 17495 C 1735.62 -1.05382 -5.10435 0
M  V30 17496 C 1732.95 -1.66415 -5.62604 0
M  V30 17497 C 1735.3 -2.09528 -5.96892 0
M  V30 17498 C 1733.96 -2.40503 -6.22667 0
M  V30 17499 H 1733.23 0.13077 -0.72937 0
M  V30 17500 H 1735.88 -0.374057 -1.87811 0
M  V30 17501 H 1734.19 1.60621 -3.57363 0
M  V30 17502 H 1735.88 1.28577 -3.79828 0
M  V30 17503 H 1732.47 -0.0625469 -4.28554 0
M  V30 17504 H 1736.66 -0.832773 -4.89263 0
M  V30 17505 H 1731.91 -1.90929 -5.80824 0
M  V30 17506 H 1736.09 -2.67719 -6.42884 0
M  V30 17507 H 1733.71 -3.22143 -6.88569 0
M  V30 17508 N 1735.29 1.57597 0.0100073 0
M  V30 17509 C 1736.71 1.55348 0.365949 0
M  V30 17510 C 1736.91 0.991487 1.75419 0
M  V30 17511 O 1735.96 0.620894 2.44747 0
M  V30 17512 C 1737.27 2.99656 0.250343 0
M  V30 17513 C 1738.82 3.11297 0.326023 0
M  V30 17514 C 1739.3 4.57373 0.239653 0
M  V30 17515 N 1740.79 4.62241 0.297863 0
M  V30 17516 C 1741.52 5.72836 0.254219 0
M  V30 17517 N 1741.02 6.92611 0.161753 0
M  V30 17518 N 1742.81 5.6127 0.30535 0
M  V30 17519 H 1734.96 1.92471 -0.898253 0
M  V30 17520 H 1737.23 0.883623 -0.343386 0
M  V30 17521 H 1736.93 3.44574 -0.704407 0
M  V30 17522 H 1736.81 3.62682 1.03643 0
M  V30 17523 H 1739.19 2.66316 1.27121 0
M  V30 17524 H 1739.27 2.51068 -0.489756 0
M  V30 17525 H 1738.92 5.03026 -0.70195 0
M  V30 17526 H 1738.85 5.15536 1.07379 0
M  V30 17527 H 1741.34 3.76074 0.371065 0
M  V30 17528 H 1741.65 7.72684 0.134073 0
M  V30 17529 H 1740 6.94883 0.127524 0
M  V30 17530 H 1743.19 4.6659 0.375713 0
M  V30 17531 H 1743.36 6.47446 0.267871 0
M  V30 17532 N 1736.77 -0.282606 1.55045 0
M  V30 17533 C 1738.02 -1.01346 1.74852 0
M  V30 17534 C 1738.34 -1.87161 0.547327 0
M  V30 17535 O 1737.61 -1.9094 -0.438015 0
M  V30 17536 H 1736.19 -0.377178 0.644784 0
M  V30 17537 H 1738.85 -0.309152 1.92432 0
M  V30 17538 H 1737.94 -1.65596 2.64545 0
M  V30 17539 N 1738.25 -1.47815 -0.546675 0
M  V30 17540 C 1739.49 -1.54674 -1.30078 0
M  V30 17541 C 1739.81 -0.215151 -1.93809 0
M  V30 17542 O 1739.08 0.761862 -1.80478 0
M  V30 17543 H 1737.66 -0.569776 -0.483078 0
M  V30 17544 H 1740.33 -1.84178 -0.637525 0
M  V30 17545 H 1739.42 -2.31894 -2.08882 0
M  V30 17546 N 1739.72 0.794246 -1.36123 0
M  V30 17547 C 1741 1.53967 -1.20638 0
M  V30 17548 C 1741.38 2.10058 0.209456 0
M  V30 17549 O 1740.73 1.93551 1.2145 0
M  V30 17550 C 1740.94 2.63844 -2.28445 0
M  V30 17551 C 1742.29 3.31855 -2.64872 0
M  V30 17552 O 1743.31 2.74124 -2.27452 0
M  V30 17553 O 1742.17 4.36177 -3.2926 0
M  V30 17554 H 1739.26 0.68086 -0.469424 0
M  V30 17555 H 1741.81 0.833144 -1.4784 0
M  V30 17556 H 1740.58 2.20357 -3.23355 0
M  V30 17557 H 1740.2 3.42121 -2.02581 0
M  V30 17558 N 1741.2 1.20323 1.01785 0
M  V30 17559 C 1742.45 1.01063 1.75016 0
M  V30 17560 C 1742.77 -0.458458 1.89534 0
M  V30 17561 O 1742.04 -1.3315 1.43694 0
M  V30 17562 H 1740.62 0.370957 0.648383 0
M  V30 17563 H 1743.28 1.51411 1.22722 0
M  V30 17564 H 1742.38 1.46792 2.75424 0
M  V30 17565 N 1742.68 -1.21073 1.00892 0
M  V30 17566 C 1743.93 -1.90524 0.694879 0
M  V30 17567 C 1744.26 -1.78161 -0.772802 0
M  V30 17568 O 1743.53 -1.1608 -1.56063 0
M  V30 17569 C 1743.82 -3.42188 1.12156 0
M  V30 17570 C 1743.67 -3.63523 2.64898 0
M  V30 17571 C 1744.99 -4.34706 0.68694 0
M  V30 17572 H 1742.11 -0.69188 0.253912 0
M  V30 17573 H 1744.75 -1.42626 1.2553 0
M  V30 17574 H 1742.9 -3.83113 0.644742 0
M  V30 17575 H 1744.57 -3.31901 3.20374 0
M  V30 17576 H 1742.81 -3.07255 3.0623 0
M  V30 17577 H 1743.49 -4.69805 2.89806 0
M  V30 17578 H 1745.96 -4.01386 1.09674 0
M  V30 17579 H 1744.84 -5.3946 1.01361 0
M  V30 17580 H 1745.1 -4.40178 -0.411757 0
M  V30 17581 N 1744.16 -0.784156 -1.36707 0
M  V30 17582 C 1745.39 -0.365901 -2.03639 0
M  V30 17583 C 1745.8 1.01599 -1.59132 0
M  V30 17584 O 1745.16 1.65072 -0.778298 0
M  V30 17585 C 1745.21 -0.414035 -3.59121 0
M  V30 17586 O 1744.93 -1.74142 -4.02003 0
M  V30 17587 C 1746.43 0.0142546 -4.43298 0
M  V30 17588 H 1743.65 -0.151525 -0.653667 0
M  V30 17589 H 1746.2 -1.06154 -1.7479 0
M  V30 17590 H 1744.35 0.233134 -3.86698 0
M  V30 17591 H 1744.76 -1.68861 -4.96575 0
M  V30 17592 H 1746.24 -0.0705681 -5.51955 0
M  V30 17593 H 1746.72 1.06623 -4.26061 0
M  V30 17594 H 1747.32 -0.605201 -4.20972 0
M  V30 17595 N 1745.64 1.48215 -0.535727 0
M  V30 17596 C 1747.05 1.58417 -0.193977 0
M  V30 17597 C 1747.25 1.53705 1.30296 0
M  V30 17598 O 1746.31 1.42913 2.08164 0
M  V30 17599 C 1747.62 2.89819 -0.8016 0
M  V30 17600 C 1749.17 3.03359 -0.770858 0
M  V30 17601 C 1749.64 4.3743 -1.35716 0
M  V30 17602 N 1751.14 4.44012 -1.31938 0
M  V30 17603 C 1751.87 5.4627 -1.74287 0
M  V30 17604 N 1751.37 6.55454 -2.24393 0
M  V30 17605 N 1753.16 5.37187 -1.65489 0
M  V30 17606 H 1745.31 1.49521 -1.50855 0
M  V30 17607 H 1747.57 0.710306 -0.627829 0
M  V30 17608 H 1747.28 2.98939 -1.85278 0
M  V30 17609 H 1747.15 3.76144 -0.282036 0
M  V30 17610 H 1749.54 2.93848 0.271577 0
M  V30 17611 H 1749.62 2.1863 -1.32795 0
M  V30 17612 H 1749.27 4.47696 -2.39855 0
M  V30 17613 H 1749.2 5.20856 -0.775696 0
M  V30 17614 H 1751.69 3.65695 -0.952653 0
M  V30 17615 H 1752 7.29626 -2.54686 0
M  V30 17616 H 1750.34 6.56402 -2.2839 0
M  V30 17617 H 1753.54 4.50785 -1.26138 0
M  V30 17618 H 1753.71 6.16747 -1.98814 0
M  V30 17619 N 1747.11 0.27113 1.5525 0
M  V30 17620 C 1748.02 -0.628245 2.26031 0
M  V30 17621 C 1749.04 -1.17339 1.28481 0
M  V30 17622 O 1750.22 -1.20453 1.61409 0
M  V30 17623 C 1747.28 -1.79766 2.96454 0
M  V30 17624 C 1746.34 -1.28958 4.09473 0
M  V30 17625 C 1745.58 -2.40326 4.76528 0
M  V30 17626 O 1745.8 -3.59595 4.42772 0
M  V30 17627 O 1744.73 -2.08708 5.64557 0
M  V30 17628 H 1748.56 -0.0549756 3.0365 0
M  V30 17629 H 1746.14 0.0386859 1.4935 0
M  V30 17630 H 1748.03 -2.4796 3.40725 0
M  V30 17631 H 1746.7 -2.35809 2.21756 0
M  V30 17632 H 1745.61 -0.57422 3.69667 0
M  V30 17633 H 1746.94 -0.774945 4.86061 0
M  V30 17634 N 1748.59 -1.576 -0.00164943 0
M  V30 17635 C 1749.52 -2.11354 -0.992554 0
M  V30 17636 C 1750.5 -1.0223 -1.35952 0
M  V30 17637 O 1751.69 -1.29904 -1.44356 0
M  V30 17638 C 1748.82 -2.61549 -2.28494 0
M  V30 17639 C 1747.77 -3.75185 -2.05962 0
M  V30 17640 C 1747.1 -4.11688 -3.412 0
M  V30 17641 C 1748.4 -5.02526 -1.42355 0
M  V30 17642 H 1750.09 -2.94398 -0.544986 0
M  V30 17643 H 1747.64 -1.4162 -0.260702 0
M  V30 17644 H 1749.59 -2.97782 -2.98168 0
M  V30 17645 H 1748.32 -1.75625 -2.75361 0
M  V30 17646 H 1746.97 -3.39343 -1.38714 0
M  V30 17647 H 1746.62 -3.22789 -3.85767 0
M  V30 17648 H 1746.32 -4.88246 -3.2694 0
M  V30 17649 H 1747.85 -4.50478 -4.12192 0
M  V30 17650 H 1749.26 -5.3654 -2.01984 0
M  V30 17651 H 1747.66 -5.83878 -1.38589 0
M  V30 17652 H 1748.73 -4.83308 -0.392565 0
M  V30 17653 N 1750.07 0.274379 -1.55193 0
M  V30 17654 C 1751 1.34336 -1.90987 0
M  V30 17655 C 1751.98 1.51594 -0.771582 0
M  V30 17656 O 1753.17 1.6466 -1.0296 0
M  V30 17657 C 1750.3 2.70312 -2.18057 0
M  V30 17658 C 1749.25 2.67787 -3.33878 0
M  V30 17659 C 1748.58 4.07301 -3.46425 0
M  V30 17660 C 1749.88 2.27178 -4.70306 0
M  V30 17661 H 1751.57 1.04627 -2.80524 0
M  V30 17662 H 1749.12 0.501867 -1.34971 0
M  V30 17663 H 1751.07 3.45205 -2.41685 0
M  V30 17664 H 1749.79 3.01601 -1.25318 0
M  V30 17665 H 1748.45 1.95351 -3.10216 0
M  V30 17666 H 1748.1 4.3581 -2.51155 0
M  V30 17667 H 1747.8 4.06507 -4.24295 0
M  V30 17668 H 1749.32 4.83935 -3.72343 0
M  V30 17669 H 1750.74 2.91794 -4.93487 0
M  V30 17670 H 1749.14 2.37548 -5.51082 0
M  V30 17671 H 1750.21 1.22309 -4.69221 0
M  V30 17672 N 1751.55 1.48103 0.538828 0
M  V30 17673 C 1752.8 1.55669 1.29512 0
M  V30 17674 C 1753.12 0.22678 1.93173 0
M  V30 17675 O 1752.38 -0.78212 1.79392 0
M  V30 17676 C 1752.68 2.63703 2.41237 0
M  V30 17677 C 1752.34 4.06416 1.95287 0
M  V30 17678 C 1751.01 4.45261 1.82472 0
M  V30 17679 C 1753.36 4.95888 1.60452 0
M  V30 17680 C 1750.69 5.71392 1.33145 0
M  V30 17681 C 1753.04 6.225 1.12591 0
M  V30 17682 C 1751.7 6.60209 0.983861 0
M  V30 17683 H 1750.97 0.569633 0.473919 0
M  V30 17684 H 1753.62 1.81783 0.602275 0
M  V30 17685 H 1751.92 2.31416 3.16155 0
M  V30 17686 H 1753.62 2.66775 2.99386 0
M  V30 17687 H 1750.21 3.75734 2.06209 0
M  V30 17688 H 1754.39 4.66561 1.69217 0
M  V30 17689 H 1749.65 5.99342 1.20828 0
M  V30 17690 H 1753.82 6.91229 0.847045 0
M  V30 17691 H 1751.45 7.57833 0.599433 0
M  V30 17692 N 1753.03 -0.787016 1.36542 0
M  V30 17693 C 1754.44 -1.08541 1.17008 0
M  V30 17694 C 1754.64 -2.015 -0.00419378 0
M  V30 17695 O 1753.7 -2.43481 -0.668826 0
M  V30 17696 C 1755.01 -1.69758 2.48199 0
M  V30 17697 C 1756.56 -1.82088 2.54584 0
M  V30 17698 C 1757.03 -2.46719 3.85868 0
M  V30 17699 N 1758.53 -2.54185 3.87227 0
M  V30 17700 C 1759.26 -3.05008 4.85549 0
M  V30 17701 N 1758.76 -3.56121 5.94264 0
M  V30 17702 N 1760.55 -3.03742 4.72966 0
M  V30 17703 H 1752.7 -0.16948 2.11723 0
M  V30 17704 H 1754.96 -0.137802 0.937931 0
M  V30 17705 H 1754.67 -1.08922 3.34408 0
M  V30 17706 H 1754.54 -2.69237 2.6418 0
M  V30 17707 H 1756.93 -2.42061 1.68792 0
M  V30 17708 H 1757.01 -0.814071 2.42501 0
M  V30 17709 H 1756.66 -1.87389 4.72068 0
M  V30 17710 H 1756.59 -3.47975 3.95248 0
M  V30 17711 H 1759.08 -2.17995 3.08685 0
M  V30 17712 H 1759.39 -3.93259 6.65257 0
M  V30 17713 H 1757.73 -3.54266 5.9793 0
M  V30 17714 H 1760.93 -2.63102 3.87163 0
M  V30 17715 H 1761.1 -3.43043 5.49751 0
M  V30 17716 N 1754.5 -1.20861 -1.01145 0
M  V30 17717 C 1755.41 -0.977926 -2.13246 0
M  V30 17718 C 1756.43 0.0678862 -1.73868 0
M  V30 17719 O 1757.61 -0.120717 -2.01038 0
M  V30 17720 C 1754.67 -0.538575 -3.42491 0
M  V30 17721 C 1753.73 -1.65584 -3.96081 0
M  V30 17722 C 1752.97 -1.23736 -5.19158 0
M  V30 17723 O 1753.19 -0.108227 -5.70297 0
M  V30 17724 O 1752.12 -2.04679 -5.6603 0
M  V30 17725 H 1755.95 -1.91666 -2.3558 0
M  V30 17726 H 1753.53 -0.992931 -1.1163 0
M  V30 17727 H 1755.42 -0.303041 -4.20309 0
M  V30 17728 H 1754.09 0.371515 -3.21561 0
M  V30 17729 H 1753 -1.94572 -3.19519 0
M  V30 17730 H 1754.33 -2.54313 -4.21409 0
M  V30 17731 N 1755.98 1.20536 -1.01532 0
M  V30 17732 C 1756.89 2.26953 -0.594109 0
M  V30 17733 C 1757.91 1.70069 0.367771 0
M  V30 17734 O 1759.08 2.00093 0.229036 0
M  V30 17735 C 1756.15 3.46644 0.0622939 0
M  V30 17736 C 1755.21 4.18762 -0.945368 0
M  V30 17737 C 1754.44 5.32739 -0.320195 0
M  V30 17738 O 1754.67 5.63565 0.880407 0
M  V30 17739 O 1753.6 5.92912 -1.03629 0
M  V30 17740 H 1757.43 2.65196 -1.48003 0
M  V30 17741 H 1755.01 1.2713 -0.784752 0
M  V30 17742 H 1756.89 4.19211 0.428952 0
M  V30 17743 H 1755.57 3.10279 0.922428 0
M  V30 17744 H 1754.48 3.48372 -1.36337 0
M  V30 17745 H 1755.81 4.59064 -1.77543 0
M  V30 17746 N 1757.46 0.791395 1.36289 0
M  V30 17747 C 1758.42 0.197069 2.28351 0
M  V30 17748 C 1759.42 -0.606748 1.48913 0
M  V30 17749 O 1760.61 -0.427453 1.68874 0
M  V30 17750 C 1757.75 -0.727009 3.33058 0
M  V30 17751 H 1758.94 1.00885 2.82422 0
M  V30 17752 H 1756.49 0.560959 1.45887 0
M  V30 17753 H 1757.23 -1.56306 2.84146 0
M  V30 17754 H 1757.01 -0.152537 3.91803 0
M  V30 17755 H 1758.5 -1.13765 4.01805 0
M  V30 17756 N 1758.94 -1.47929 0.54358 0
M  V30 17757 C 1759.87 -2.3264 -0.200228 0
M  V30 17758 C 1760.85 -1.42945 -0.922 0
M  V30 17759 O 1762.04 -1.71817 -0.905129 0
M  V30 17760 C 1759.17 -3.24439 -1.23922 0
M  V30 17761 C 1758.12 -4.23267 -0.634753 0
M  V30 17762 C 1757.45 -5.04295 -1.77739 0
M  V30 17763 C 1758.75 -5.20747 0.402524 0
M  V30 17764 H 1760.44 -2.95077 0.506957 0
M  V30 17765 H 1757.99 -1.41896 0.245246 0
M  V30 17766 H 1759.94 -3.82535 -1.76763 0
M  V30 17767 H 1758.66 -2.60029 -1.97616 0
M  V30 17768 H 1757.32 -3.66377 -0.127756 0
M  V30 17769 H 1756.97 -4.36299 -2.50304 0
M  V30 17770 H 1756.67 -5.71195 -1.37879 0
M  V30 17771 H 1758.19 -5.65246 -2.30932 0
M  V30 17772 H 1759.61 -5.73287 -0.039305 0
M  V30 17773 H 1758 -5.95774 0.719251 0
M  V30 17774 H 1759.07 -4.67054 1.3034 0
M  V30 17775 N 1760.42 -0.27936 -1.55104 0
M  V30 17776 C 1761.35 0.599831 -2.25664 0
M  V30 17777 C 1762.33 1.15548 -1.24831 0
M  V30 17778 O 1763.51 1.18883 -1.53559 0
M  V30 17779 C 1760.64 1.78202 -2.98096 0
M  V30 17780 C 1759.6 1.35771 -4.05894 0
M  V30 17781 C 1758.92 2.62334 -4.65924 0
M  V30 17782 C 1760.22 0.504795 -5.19855 0
M  V30 17783 H 1761.92 0.0113761 -2.99398 0
M  V30 17784 H 1759.46 0.00403149 -1.43999 0
M  V30 17785 H 1761.42 2.403 -3.4617 0
M  V30 17786 H 1760.14 2.39637 -2.21905 0
M  V30 17787 H 1758.8 0.75991 -3.58638 0
M  V30 17788 H 1758.45 3.22036 -3.86396 0
M  V30 17789 H 1758.15 2.34654 -5.38713 0
M  V30 17790 H 1759.67 3.25273 -5.16749 0
M  V30 17791 H 1761.09 1.03089 -5.63955 0
M  V30 17792 H 1759.48 0.322696 -5.99232 0
M  V30 17793 H 1760.55 -0.475409 -4.82564 0
M  V30 17794 N 1761.9 1.57599 -0.0067085 0
M  V30 17795 C 1763.12 1.95545 0.69115 0
M  V30 17796 C 1763.55 0.882014 1.66139 0
M  V30 17797 O 1762.9 -0.159242 1.80599 0
M  V30 17798 C 1762.95 3.3259 1.39342 0
M  V30 17799 O 1762.06 3.27368 2.50806 0
M  V30 17800 H 1761.4 0.638188 0.183336 0
M  V30 17801 H 1763.93 2.04506 -0.0618957 0
M  V30 17802 H 1763.94 3.6831 1.75532 0
M  V30 17803 H 1762.61 4.10269 0.682072 0
M  V30 17804 H 1761.19 3.03334 2.16894 0
M  V30 17805 N 1763.37 -0.266145 1.55336 0
M  V30 17806 C 1764.62 -0.998308 1.76527 0
M  V30 17807 C 1764.95 -1.85691 0.568535 0
M  V30 17808 O 1764.23 -1.89602 -0.433735 0
M  V30 17809 C 1764.51 -1.87509 3.07429 0
M  V30 17810 C 1764.36 -1.04596 4.3747 0
M  V30 17811 C 1765.68 -2.86099 3.34418 0
M  V30 17812 H 1762.8 -0.361514 0.642244 0
M  V30 17813 H 1765.44 -0.270186 1.88069 0
M  V30 17814 H 1763.59 -2.49591 2.97719 0
M  V30 17815 H 1765.27 -0.445323 4.59145 0
M  V30 17816 H 1763.51 -0.349641 4.32389 0
M  V30 17817 H 1764.18 -1.69279 5.25403 0
M  V30 17818 H 1766.66 -2.34153 3.43965 0
M  V30 17819 H 1765.53 -3.44584 4.27262 0
M  V30 17820 H 1765.79 -3.61577 2.5439 0
M  V30 17821 N 1764.85 -1.48386 -0.530967 0
M  V30 17822 C 1765.78 -1.6573 -1.64486 0
M  V30 17823 C 1766.76 -0.506198 -1.62393 0
M  V30 17824 O 1767.95 -0.738623 -1.79605 0
M  V30 17825 C 1765.08 -1.69594 -3.03076 0
M  V30 17826 C 1764.03 -2.84195 -3.20027 0
M  V30 17827 C 1763.36 -2.73148 -4.59668 0
M  V30 17828 C 1764.66 -4.25504 -3.02892 0
M  V30 17829 H 1766.35 -2.58983 -1.50227 0
M  V30 17830 H 1763.9 -1.24633 -0.721286 0
M  V30 17831 H 1765.85 -1.80316 -3.80873 0
M  V30 17832 H 1764.57 -0.729193 -3.18356 0
M  V30 17833 H 1763.23 -2.73027 -2.44647 0
M  V30 17834 H 1762.88 -1.74444 -4.71782 0
M  V30 17835 H 1762.58 -3.50047 -4.71954 0
M  V30 17836 H 1764.11 -2.85836 -5.39565 0
M  V30 17837 H 1765.52 -4.37511 -3.70482 0
M  V30 17838 H 1763.92 -5.03393 -3.26673 0
M  V30 17839 H 1764.99 -4.42036 -1.99329 0
M  V30 17840 N 1766.33 0.779763 -1.36958 0
M  V30 17841 C 1767.56 1.56875 -1.34899 0
M  V30 17842 C 1767.97 1.88679 0.0675345 0
M  V30 17843 O 1767.33 1.50852 1.02712 0
M  V30 17844 C 1767.38 2.88391 -2.17975 0
M  V30 17845 O 1767.1 2.57954 -3.54107 0
M  V30 17846 C 1768.6 3.82657 -2.23805 0
M  V30 17847 H 1765.82 0.486262 -0.462374 0
M  V30 17848 H 1768.37 0.967072 -1.80189 0
M  V30 17849 H 1766.52 3.45003 -1.76215 0
M  V30 17850 H 1766.94 3.42115 -3.97564 0
M  V30 17851 H 1768.41 4.71967 -2.86272 0
M  V30 17852 H 1768.89 4.21208 -1.24421 0
M  V30 17853 H 1769.49 3.31976 -2.65843 0
M  V30 17854 N 1767.81 1.21396 1.00503 0
M  V30 17855 C 1768.72 0.989221 2.12724 0
M  V30 17856 C 1769.73 -0.0586646 1.73901 0
M  V30 17857 O 1770.91 0.131377 2.00971 0
M  V30 17858 C 1767.97 0.556731 3.42201 0
M  V30 17859 C 1767.04 1.67683 3.95197 0
M  V30 17860 C 1766.27 1.26488 5.18494 0
M  V30 17861 O 1766.49 0.13847 5.70232 0
M  V30 17862 O 1765.43 2.07678 5.64937 0
M  V30 17863 H 1769.25 1.92913 2.3456 0
M  V30 17864 H 1766.84 0.998837 1.11102 0
M  V30 17865 H 1768.72 0.325327 4.20142 0
M  V30 17866 H 1767.39 -0.354457 3.21753 0
M  V30 17867 H 1766.3 1.96263 3.18483 0
M  V30 17868 H 1767.63 2.56544 4.20055 0
M  V30 17869 N 1769.29 -1.19996 1.0217 0
M  V30 17870 C 1770.7 -1.4154 0.737473 0
M  V30 17871 C 1770.9 -1.89649 -0.680832 0
M  V30 17872 O 1769.96 -2.06865 -1.44787 0
M  V30 17873 C 1771.27 -2.43269 1.76751 0
M  V30 17874 C 1772.82 -2.57027 1.78623 0
M  V30 17875 C 1773.29 -3.62003 2.80567 0
M  V30 17876 N 1774.78 -3.69492 2.79339 0
M  V30 17877 C 1775.52 -4.50391 3.54874 0
M  V30 17878 N 1775.02 -5.35053 4.40103 0
M  V30 17879 N 1776.81 -4.44972 3.43448 0
M  V30 17880 H 1768.96 -0.870855 1.93726 0
M  V30 17881 H 1771.22 -0.444866 0.837137 0
M  V30 17882 H 1770.93 -2.14927 2.78387 0
M  V30 17883 H 1770.8 -3.42336 1.58386 0
M  V30 17884 H 1773.19 -2.84695 0.776695 0
M  V30 17885 H 1773.27 -1.58138 2.01062 0
M  V30 17886 H 1772.91 -3.35078 3.81687 0
M  V30 17887 H 1772.84 -4.60526 2.55388 0
M  V30 17888 H 1775.34 -3.09021 2.17518 0
M  V30 17889 H 1775.65 -5.93881 4.94495 0
M  V30 17890 H 1773.99 -5.34538 4.44178 0
M  V30 17891 H 1777.18 -3.77869 2.76283 0
M  V30 17892 H 1777.36 -5.07782 4.02569 0
M  V30 17893 N 1770.76 -0.798611 -1.35867 0
M  V30 17894 C 1772.18 -0.481385 -1.52167 0
M  V30 17895 C 1772.38 0.99878 -1.75005 0
M  V30 17896 O 1771.44 1.78404 -1.78685 0
M  V30 17897 C 1772.75 -1.31982 -2.70188 0
M  V30 17898 C 1774.3 -1.31445 -2.84062 0
M  V30 17899 C 1774.77 -2.13682 -4.05098 0
M  V30 17900 N 1776.26 -2.11176 -4.12261 0
M  V30 17901 C 1777 -2.71571 -5.05012 0
M  V30 17902 N 1776.49 -3.40861 -6.03147 0
M  V30 17903 N 1778.29 -2.61255 -4.97697 0
M  V30 17904 H 1770.44 -1.75731 -1.19299 0
M  V30 17905 H 1772.7 -0.747512 -0.583034 0
M  V30 17906 H 1772.41 -2.36989 -2.59864 0
M  V30 17907 H 1772.28 -0.967488 -3.64581 0
M  V30 17908 H 1774.67 -0.272258 -2.93841 0
M  V30 17909 H 1774.75 -1.7066 -1.90549 0
M  V30 17910 H 1774.39 -3.17937 -3.96079 0
M  V30 17911 H 1774.32 -1.71832 -4.97776 0
M  V30 17912 H 1776.81 -1.60754 -3.42004 0
M  V30 17913 H 1777.13 -3.84251 -6.705 0
M  V30 17914 H 1775.47 -3.44964 -6.03345 0
M  V30 17915 H 1778.66 -2.06717 -4.19983 0
M  V30 17916 H 1778.84 -3.08613 -5.69791 0
M  V30 17917 N 1772.24 1.47639 -0.551417 0
M  V30 17918 C 1773.2 2.28419 0.188996 0
M  V30 17919 C 1774.2 1.36617 0.84808 0
M  V30 17920 O 1775.39 1.59304 0.704831 0
M  V30 17921 C 1772.53 3.16131 1.27571 0
M  V30 17922 H 1773.72 2.95348 -0.520518 0
M  V30 17923 H 1771.27 1.53232 -0.308141 0
M  V30 17924 H 1772.01 2.5388 2.0178 0
M  V30 17925 H 1771.79 3.83685 0.807984 0
M  V30 17926 H 1773.28 3.77011 1.79591 0
M  V30 17927 N 1773.72 0.287581 1.54954 0
M  V30 17928 C 1774.97 -0.32561 1.99865 0
M  V30 17929 C 1775.3 -1.54921 1.176 0
M  V30 17930 O 1774.55 -1.94262 0.236802 0
M  V30 17931 C 1774.85 -0.739779 3.4966 0
M  V30 17932 C 1774.52 0.380573 4.49291 0
M  V30 17933 C 1773.18 0.688172 4.76254 0
M  V30 17934 C 1775.53 1.13489 5.08694 0
M  V30 17935 C 1772.86 1.75344 5.59885 0
M  V30 17936 C 1775.21 2.18998 5.93484 0
M  V30 17937 C 1773.87 2.50379 6.18762 0
M  V30 17938 H 1773.14 -0.119149 0.731358 0
M  V30 17939 H 1775.79 0.403889 1.87192 0
M  V30 17940 H 1774.1 -1.54915 3.59873 0
M  V30 17941 H 1775.79 -1.22518 3.81825 0
M  V30 17942 H 1772.38 0.130718 4.28401 0
M  V30 17943 H 1776.57 0.910505 4.87877 0
M  V30 17944 H 1771.82 2.00145 5.77713 0
M  V30 17945 H 1776 2.77913 6.38543 0
M  V30 17946 H 1773.62 3.33057 6.83357 0
M  V30 17947 N 1775.2 -1.57593 0.0150662 0
M  V30 17948 C 1776.61 -1.5591 -0.341189 0
M  V30 17949 C 1776.81 -1.01927 -1.73819 0
M  V30 17950 O 1775.87 -0.659752 -2.43728 0
M  V30 17951 C 1777.18 -3.00016 -0.202639 0
M  V30 17952 C 1778.73 -3.11777 -0.276457 0
M  V30 17953 C 1779.21 -4.57696 -0.166859 0
M  V30 17954 N 1780.7 -4.62657 -0.224287 0
M  V30 17955 C 1781.43 -5.73168 -0.163053 0
M  V30 17956 N 1780.93 -6.92781 -0.0515442 0
M  V30 17957 N 1782.72 -5.61685 -0.216018 0
M  V30 17958 H 1774.87 -1.91018 0.92876 0
M  V30 17959 H 1777.14 -0.878048 0.3574 0
M  V30 17960 H 1776.84 -3.43409 0.759136 0
M  V30 17961 H 1776.72 -3.64285 -0.978599 0
M  V30 17962 H 1779.1 -2.68305 -1.22868 0
M  V30 17963 H 1779.18 -2.50257 0.529637 0
M  V30 17964 H 1778.83 -5.01846 0.781888 0
M  V30 17965 H 1778.76 -5.17179 -0.991635 0
M  V30 17966 H 1781.25 -3.76617 -0.311188 0
M  V30 17967 H 1781.56 -7.72799 -0.0111287 0
M  V30 17968 H 1779.91 -6.94998 -0.0169584 0
M  V30 17969 H 1783.1 -4.67128 -0.301435 0
M  V30 17970 H 1783.27 -6.4779 -0.164834 0
M  V30 17971 N 1776.68 0.257904 -1.55475 0
M  V30 17972 C 1778.09 0.82782 -1.67344 0
M  V30 17973 C 1778.44 1.8646 -0.610494 0
M  V30 17974 O 1777.56 2.15005 0.245275 0
M  V30 17975 C 1778.16 1.5083 -3.03374 0
M  V30 17976 C 1776.72 2.02605 -3.17219 0
M  V30 17977 C 1775.86 0.873303 -2.63189 0
M  V30 17978 H 1778.82 0.0339334 -1.58664 0
M  V30 17979 H 1778.84 2.3759 -2.97205 0
M  V30 17980 H 1778.35 0.753469 -3.80716 0
M  V30 17981 H 1776.45 2.81002 -2.4468 0
M  V30 17982 H 1776.56 2.23099 -4.23985 0
M  V30 17983 H 1774.93 1.27082 -2.20731 0
M  V30 17984 H 1775.71 0.131739 -3.43047 0
M  V30 17985 N 1778.15 1.48666 0.52309 0
M  V30 17986 C 1779.38 1.60474 1.30122 0
M  V30 17987 C 1779.79 0.266767 1.8731 0
M  V30 17988 O 1779.14 -0.754974 1.67469 0
M  V30 17989 C 1779.2 2.59753 2.48533 0
M  V30 17990 C 1778.86 4.04652 2.12381 0
M  V30 17991 C 1779.86 4.92129 1.67647 0
M  V30 17992 C 1777.54 4.50237 2.22692 0
M  V30 17993 C 1779.54 6.2322 1.337 0
M  V30 17994 C 1777.22 5.81348 1.88357 0
M  V30 17995 C 1778.22 6.67662 1.43932 0
M  V30 17996 O 1777.91 7.96332 1.10051 0
M  V30 17997 H 1777.64 0.543696 0.40171 0
M  V30 17998 H 1780.2 1.95273 0.637002 0
M  V30 17999 H 1778.43 2.20089 3.17958 0
M  V30 18000 H 1780.12 2.61323 3.10588 0
M  V30 18001 H 1780.88 4.58146 1.59145 0
M  V30 18002 H 1776.76 3.83236 2.56225 0
M  V30 18003 H 1780.3 6.90546 0.989527 0
M  V30 18004 H 1776.2 6.14864 1.96502 0
M  V30 18005 H 1776.97 8.09146 1.23389 0
M  V30 18006 N 1779.63 -0.772489 1.37369 0
M  V30 18007 C 1780.88 -1.528 1.32275 0
M  V30 18008 C 1781.2 -1.9478 -0.092541 0
M  V30 18009 O 1780.47 -1.6624 -1.0364 0
M  V30 18010 H 1779.05 -0.566727 0.486651 0
M  V30 18011 H 1781.71 -0.919435 1.7185 0
M  V30 18012 H 1780.81 -2.42774 1.96131 0
M  V30 18013 N 1781.11 -1.21927 -0.998575 0
M  V30 18014 C 1782.04 -1.00845 -2.106 0
M  V30 18015 C 1783.02 0.068733 -1.69961 0
M  V30 18016 O 1784.21 -0.0923686 -1.9398 0
M  V30 18017 C 1781.34 -0.57929 -3.42435 0
M  V30 18018 C 1780.29 -1.60177 -3.96897 0
M  V30 18019 C 1779.62 -1.02863 -5.24713 0
M  V30 18020 C 1780.92 -2.9903 -4.28227 0
M  V30 18021 H 1782.61 -1.93469 -2.28495 0
M  V30 18022 H 1780.16 -0.931612 -1.09804 0
M  V30 18023 H 1782.11 -0.418944 -4.19312 0
M  V30 18024 H 1780.83 0.382608 -3.24351 0
M  V30 18025 H 1779.49 -1.74979 -3.22146 0
M  V30 18026 H 1779.14 -0.058254 -5.02966 0
M  V30 18027 H 1778.84 -1.71166 -5.62117 0
M  V30 18028 H 1780.36 -0.879743 -6.04229 0
M  V30 18029 H 1781.78 -2.87634 -4.95923 0
M  V30 18030 H 1780.18 -3.64404 -4.76791 0
M  V30 18031 H 1781.25 -3.4939 -3.36236 0
M  V30 18032 N 1782.59 1.19452 -1.02805 0
M  V30 18033 C 1783.54 2.20533 -0.578732 0
M  V30 18034 C 1784.52 1.56539 0.372081 0
M  V30 18035 O 1785.71 1.75943 0.193185 0
M  V30 18036 C 1782.84 3.43229 0.0698982 0
M  V30 18037 C 1781.93 4.14368 -0.903306 0
M  V30 18038 N 1782.32 4.61709 -2.0654 0
M  V30 18039 C 1780.62 4.40042 -0.726572 0
M  V30 18040 C 1781.32 5.1633 -2.67914 0
M  V30 18041 N 1780.3 5.0708 -1.95884 0
M  V30 18042 H 1784.1 2.54813 -1.46451 0
M  V30 18043 H 1781.61 1.35517 -0.894927 0
M  V30 18044 H 1783.61 4.14885 0.409411 0
M  V30 18045 H 1782.27 3.1045 0.951368 0
M  V30 18046 H 1783.28 4.5656 -2.44485 0
M  V30 18047 H 1779.96 4.17366 0.105875 0
M  V30 18048 H 1781.35 5.63254 -3.66326 0
M  V30 18049 N 1784.07 0.805805 1.35442 0
M  V30 18050 C 1785.31 0.385046 1.98398 0
M  V30 18051 C 1785.64 -1.05114 1.64244 0
M  V30 18052 O 1784.91 -1.72711 0.924532 0
M  V30 18053 H 1783.49 0.139386 0.733881 0
M  V30 18054 H 1786.15 1.03147 1.65368 0
M  V30 18055 H 1785.24 0.490126 3.08227 0
M  V30 18056 N 1785.54 -1.47344 0.559239 0
M  V30 18057 C 1786.79 -2.02068 0.035872 0
M  V30 18058 C 1787.11 -1.43573 -1.31953 0
M  V30 18059 O 1786.38 -0.611672 -1.86106 0
M  V30 18060 H 1784.96 -0.746929 0.0102713 0
M  V30 18061 H 1787.63 -1.80724 0.729707 0
M  V30 18062 H 1786.72 -3.12059 -0.0507123 0
M  V30 18063 N 1787.02 -0.295795 -1.54799 0
M  V30 18064 C 1787.93 0.592206 -2.27002 0
M  V30 18065 C 1788.95 1.1528 -1.30332 0
M  V30 18066 O 1790.12 1.1787 -1.63305 0
M  V30 18067 C 1787.19 1.75027 -2.99277 0
M  V30 18068 C 1786.25 1.22427 -4.11473 0
M  V30 18069 C 1785.48 2.32714 -4.80291 0
M  V30 18070 O 1785.71 3.52506 -4.48437 0
M  V30 18071 O 1784.64 1.997 -5.67806 0
M  V30 18072 H 1788.47 0.00666048 -3.03699 0
M  V30 18073 H 1786.05 -0.0624413 -1.49269 0
M  V30 18074 H 1787.93 2.42508 -3.44627 0
M  V30 18075 H 1786.61 2.32252 -2.25479 0
M  V30 18076 H 1785.52 0.515337 -3.70534 0
M  V30 18077 H 1786.85 0.697518 -4.87233 0
M  V30 18078 N 1788.5 1.57583 -0.0234236 0
M  V30 18079 C 1789.91 1.79422 0.516201 0
M  V30 18080 C 1790.26 0.933151 1.72588 0
M  V30 18081 O 1789.39 0.141985 2.15934 0
M  V30 18082 C 1789.98 3.25405 0.943248 0
M  V30 18083 C 1788.54 3.48259 1.42802 0
M  V30 18084 C 1787.69 2.74543 0.390074 0
M  V30 18085 H 1790.64 1.56727 -0.24949 0
M  V30 18086 H 1790.66 3.34803 1.80795 0
M  V30 18087 H 1790.17 3.88049 0.0626242 0
M  V30 18088 H 1788.27 2.9086 2.32877 0
M  V30 18089 H 1788.39 4.56968 1.43933 0
M  V30 18090 H 1786.75 2.39852 0.856919 0
M  V30 18091 H 1787.53 3.399 -0.481986 0
M  V30 18092 N 1789.98 -0.249655 1.5561 0
M  V30 18093 C 1791.23 -0.976148 1.76963 0
M  V30 18094 C 1791.55 -1.85958 0.586903 0
M  V30 18095 O 1790.82 -1.91827 -0.397415 0
M  V30 18096 H 1789.4 -0.363416 0.652639 0
M  V30 18097 H 1792.06 -0.268264 1.93045 0
M  V30 18098 H 1791.16 -1.59948 2.67998 0
M  V30 18099 N 1791.46 -1.48941 -0.515198 0
M  V30 18100 C 1792.42 -1.64062 -1.60051 0
M  V30 18101 C 1793.42 -0.513101 -1.52394 0
M  V30 18102 O 1794.61 -0.77924 -1.558 0
M  V30 18103 C 1791.74 -1.6247 -2.99694 0
M  V30 18104 H 1792.94 -2.60849 -1.47978 0
M  V30 18105 H 1790.49 -1.37759 -0.738378 0
M  V30 18106 H 1791.22 -0.672141 -3.17258 0
M  V30 18107 H 1791.01 -2.4434 -3.0666 0
M  V30 18108 H 1792.5 -1.76273 -3.78573 0
M  V30 18109 N 1792.94 0.765193 -1.37777 0
M  V30 18110 C 1794.35 1.06666 -1.1872 0
M  V30 18111 C 1794.55 2.01481 -0.0278636 0
M  V30 18112 O 1793.61 2.44514 0.630006 0
M  V30 18113 C 1794.92 1.65787 -2.50868 0
M  V30 18114 C 1796.47 1.78014 -2.57449 0
M  V30 18115 C 1796.94 2.40548 -3.89744 0
M  V30 18116 N 1798.43 2.47992 -3.91221 0
M  V30 18117 C 1799.17 2.97245 -4.9034 0
M  V30 18118 N 1798.67 3.46621 -5.99855 0
M  V30 18119 N 1800.46 2.96179 -4.77739 0
M  V30 18120 H 1792.61 0.135775 -2.11966 0
M  V30 18121 H 1794.87 0.122863 -0.940005 0
M  V30 18122 H 1794.58 1.03588 -3.36099 0
M  V30 18123 H 1794.45 2.65 -2.6843 0
M  V30 18124 H 1796.84 2.39345 -1.72621 0
M  V30 18125 H 1796.92 0.775388 -2.43765 0
M  V30 18126 H 1796.56 1.79855 -4.74989 0
M  V30 18127 H 1796.49 3.41643 -4.00734 0
M  V30 18128 H 1798.99 2.13056 -3.12114 0
M  V30 18129 H 1799.3 3.82625 -6.7143 0
M  V30 18130 H 1797.64 3.44709 -6.0349 0
M  V30 18131 H 1800.83 2.56909 -3.913 0
M  V30 18132 H 1801.01 3.34253 -5.55139 0
M  V30 18133 N 1794.41 1.22455 0.992094 0
M  V30 18134 C 1795.66 1.04752 1.72833 0
M  V30 18135 C 1795.98 -0.418152 1.90464 0
M  V30 18136 O 1795.25 -1.30072 1.46486 0
M  V30 18137 H 1793.83 0.384626 0.640368 0
M  V30 18138 H 1796.49 1.5398 1.19483 0
M  V30 18139 H 1795.59 1.52601 2.72249 0
M  V30 18140 N 1795.89 -1.18905 1.03437 0
M  V30 18141 C 1796.82 -2.24539 0.640669 0
M  V30 18142 C 1797.8 -1.66396 -0.353024 0
M  V30 18143 O 1798.99 -1.92779 -0.234522 0
M  V30 18144 C 1796.12 -3.473 -0.00367731 0
M  V30 18145 C 1795.07 -4.18151 0.912881 0
M  V30 18146 C 1794.4 -5.34534 0.133347 0
M  V30 18147 C 1795.7 -4.72342 2.22913 0
M  V30 18148 H 1797.39 -2.57726 1.52374 0
M  V30 18149 H 1794.94 -1.23883 0.734098 0
M  V30 18150 H 1796.89 -4.20396 -0.290783 0
M  V30 18151 H 1795.61 -3.13328 -0.921578 0
M  V30 18152 H 1794.27 -3.46945 1.18427 0
M  V30 18153 H 1793.92 -4.96809 -0.786762 0
M  V30 18154 H 1793.62 -5.82872 0.743905 0
M  V30 18155 H 1795.15 -6.10423 -0.146889 0
M  V30 18156 H 1796.56 -5.37165 2.00317 0
M  V30 18157 H 1794.96 -5.31189 2.79209 0
M  V30 18158 H 1796.03 -3.90108 2.87999 0
M  V30 18159 N 1797.37 -0.812977 -1.35013 0
M  V30 18160 C 1798.32 -0.216001 -2.31595 0
M  V30 18161 C 1799.31 0.637771 -1.56936 0
M  V30 18162 O 1800.52 0.530221 -1.72014 0
M  V30 18163 H 1796.89 -0.0510947 -0.750262 0
M  V30 18164 H 1798.86 -1.04559 -2.79482 0
M  V30 18165 C 1797.61 0.615651 -3.42206 0
M  V30 18166 H 1796.94 -0.0319737 -3.99787 0
M  V30 18167 H 1798.38 0.99963 -4.12048 0
M  V30 18168 C 1796.83 1.78386 -2.85797 0
M  V30 18169 O 1797.36 2.88163 -2.79866 0
M  V30 18170 N 1795.57 1.59742 -2.42757 0
M  V30 18171 H 1795.12 0.704468 -2.4778 0
M  V30 18172 H 1795.08 2.38061 -2.05364 0
M  V30 18173 N 1798.85 1.47045 -0.567045 0
M  V30 18174 C 1799.78 2.32929 0.163191 0
M  V30 18175 C 1800.76 1.44393 0.899142 0
M  V30 18176 O 1801.94 1.73235 0.87768 0
M  V30 18177 C 1799.07 3.26369 1.18745 0
M  V30 18178 C 1798.03 4.24223 0.567335 0
M  V30 18179 C 1797.35 5.07058 1.69693 0
M  V30 18180 C 1798.65 5.2004 -0.485319 0
M  V30 18181 H 1800.35 2.94233 -0.553837 0
M  V30 18182 H 1797.89 1.41488 -0.267789 0
M  V30 18183 H 1799.85 3.85299 1.70654 0
M  V30 18184 H 1798.57 2.6314 1.93455 0
M  V30 18185 H 1797.23 3.66534 0.0694525 0
M  V30 18186 H 1796.88 4.40226 2.43331 0
M  V30 18187 H 1796.58 5.73316 1.28774 0
M  V30 18188 H 1798.1 5.68848 2.2191 0
M  V30 18189 H 1799.52 5.73277 -0.0519049 0
M  V30 18190 H 1797.91 5.94554 -0.813942 0
M  V30 18191 H 1798.98 4.64921 -1.37754 0
M  V30 18192 N 1800.33 0.304 1.5464 0
M  V30 18193 C 1801.26 -0.563854 2.2659 0
M  V30 18194 C 1802.24 -1.13547 1.26653 0
M  V30 18195 O 1803.42 -1.16425 1.55431 0
M  V30 18196 C 1800.55 -1.73437 3.00894 0
M  V30 18197 C 1799.51 -1.29297 4.08003 0
M  V30 18198 C 1798.83 -2.54888 4.70038 0
M  V30 18199 C 1800.13 -0.422027 5.20592 0
M  V30 18200 H 1801.83 0.0362569 2.99378 0
M  V30 18201 H 1799.37 0.0188781 1.43988 0
M  V30 18202 H 1801.32 -2.34762 3.4995 0
M  V30 18203 H 1800.05 -2.36076 2.25689 0
M  V30 18204 H 1798.71 -0.702757 3.59801 0
M  V30 18205 H 1798.36 -3.15848 3.9147 0
M  V30 18206 H 1798.06 -2.26054 5.42378 0
M  V30 18207 H 1799.58 -3.17011 5.21859 0
M  V30 18208 H 1800.99 -0.941036 5.65524 0
M  V30 18209 H 1799.39 -0.227323 5.99669 0
M  V30 18210 H 1800.46 0.55212 4.81746 0
M  V30 18211 N 1801.8 -1.57568 0.0317802 0
M  V30 18212 C 1803.05 -1.91087 -0.645639 0
M  V30 18213 C 1803.37 -0.910108 -1.73137 0
M  V30 18214 O 1804.57 -1.13665 -2.46562 0
M  V30 18215 C 1803.03 -3.39317 -1.19966 0
M  V30 18216 C 1802.64 -4.47759 -0.147068 0
M  V30 18217 C 1804.38 -3.81901 -1.85343 0
M  V30 18218 C 1802.29 -5.87088 -0.712872 0
M  V30 18219 H 1801.22 -0.713112 -0.244923 0
M  V30 18220 H 1803.87 -1.83241 0.0975145 0
M  V30 18221 H 1802.25 -3.42105 -1.99451 0
M  V30 18222 H 1803.42 -4.56535 0.625518 0
M  V30 18223 H 1801.74 -4.14395 0.408109 0
M  V30 18224 H 1804.34 -4.83352 -2.28636 0
M  V30 18225 H 1804.68 -3.17104 -2.69724 0
M  V30 18226 H 1805.21 -3.81548 -1.12544 0
M  V30 18227 H 1801.95 -6.55434 0.0928582 0
M  V30 18228 H 1801.47 -5.81913 -1.45388 0
M  V30 18229 H 1803.15 -6.3574 -1.20179 0
M  V30 18230 N 1803.28 0.241399 -1.5574 0
M  V30 18231 C 1804.7 0.590176 -1.48287 0
M  V30 18232 C 1804.9 1.8808 -0.723052 0
M  V30 18233 O 1803.95 2.51213 -0.25464 0
M  V30 18234 C 1805.27 0.687804 -2.92728 0
M  V30 18235 C 1806.82 0.779763 -3.03131 0
M  V30 18236 C 1807.29 0.908905 -4.48891 0
M  V30 18237 N 1808.78 0.973636 -4.52852 0
M  V30 18238 C 1809.52 1.09292 -5.62888 0
M  V30 18239 N 1809.01 1.1774 -6.82722 0
M  V30 18240 N 1810.81 1.12651 -5.50696 0
M  V30 18241 H 1802.96 -0.605781 -2.03578 0
M  V30 18242 H 1805.22 -0.209862 -0.924479 0
M  V30 18243 H 1804.93 -0.190608 -3.51183 0
M  V30 18244 H 1804.8 1.55794 -3.43523 0
M  V30 18245 H 1807.19 1.64863 -2.44754 0
M  V30 18246 H 1807.27 -0.115641 -2.55538 0
M  V30 18247 H 1806.91 0.0445788 -5.0788 0
M  V30 18248 H 1806.84 1.81943 -4.9417 0
M  V30 18249 H 1809.33 0.919469 -3.66544 0
M  V30 18250 H 1809.65 1.26764 -7.62332 0
M  V30 18251 H 1807.99 1.14688 -6.85472 0
M  V30 18252 H 1811.18 1.05703 -4.56009 0
M  V30 18253 H 1811.35 1.21602 -6.36488 0
M  V30 18254 N 1804.76 1.49212 0.507292 0
M  V30 18255 C 1805.71 1.65417 1.60953 0
M  V30 18256 C 1806.68 0.495737 1.5853 0
M  V30 18257 O 1807.86 0.722002 1.76612 0
M  V30 18258 C 1805 1.72095 2.99128 0
M  V30 18259 C 1804.12 2.99199 3.11615 0
M  V30 18260 C 1803.25 2.96895 4.40485 0
M  V30 18261 C 1802.29 4.18607 4.46581 0
M  V30 18262 N 1801.43 4.14248 5.66871 0
M  V30 18263 H 1806.27 2.59535 1.46444 0
M  V30 18264 H 1803.8 1.28687 0.712609 0
M  V30 18265 H 1805.76 1.73947 3.79207 0
M  V30 18266 H 1804.39 0.814484 3.12356 0
M  V30 18267 H 1803.44 3.06988 2.24639 0
M  V30 18268 H 1804.76 3.89192 3.11979 0
M  V30 18269 H 1803.91 2.97275 5.28878 0
M  V30 18270 H 1802.65 2.0467 4.42675 0
M  V30 18271 H 1801.65 4.18477 3.56591 0
M  V30 18272 H 1802.88 5.12017 4.46112 0
M  V30 18273 H 1800.82 3.24857 5.69916 0
M  V30 18274 H 1800.74 4.97969 5.68826 0
M  V30 18275 H 1802.01 4.18722 6.57489 0
M  V30 18276 N 1806.24 -0.757876 1.38181 0
M  V30 18277 C 1807.19 -1.8929 1.35174 0
M  V30 18278 C 1808.18 -1.67716 0.238284 0
M  V30 18279 O 1809.39 -1.75336 0.407085 0
M  V30 18280 H 1805.76 -0.622712 0.421585 0
M  V30 18281 H 1807.73 -1.88943 2.30961 0
M  V30 18282 C 1806.48 -3.26723 1.18942 0
M  V30 18283 H 1805.8 -3.43909 2.0388 0
M  V30 18284 H 1807.24 -4.06401 1.20891 0
M  V30 18285 C 1805.7 -3.3674 -0.103978 0
M  V30 18286 O 1806.23 -3.86838 -1.08256 0
M  V30 18287 N 1804.44 -2.90163 -0.159367 0
M  V30 18288 H 1803.99 -2.49583 0.637642 0
M  V30 18289 H 1803.94 -2.97245 -1.02435 0
M  V30 18290 N 1807.72 -1.22979 -0.985586 0
M  V30 18291 C 1808.96 -1.05667 -1.72275 0
M  V30 18292 C 1809.29 0.408045 -1.90683 0
M  V30 18293 O 1808.56 1.29293 -1.47174 0
M  V30 18294 H 1807.14 -0.388017 -0.63832 0
M  V30 18295 H 1809.8 -1.54612 -1.18665 0
M  V30 18296 H 1808.89 -1.54043 -2.71436 0
M  V30 18297 N 1809.19 1.18355 -1.04066 0
M  V30 18298 C 1810.61 1.40349 -0.759898 0
M  V30 18299 C 1810.81 1.90709 0.650574 0
M  V30 18300 O 1809.87 2.09142 1.41477 0
M  V30 18301 C 1811.18 2.40426 -1.80599 0
M  V30 18302 C 1812.73 2.54153 -1.8269 0
M  V30 18303 C 1813.2 3.57494 -2.8629 0
M  V30 18304 N 1814.69 3.65001 -2.85181 0
M  V30 18305 C 1815.43 4.44688 -3.61995 0
M  V30 18306 N 1814.92 5.27984 -4.48559 0
M  V30 18307 N 1816.72 4.39451 -3.50484 0
M  V30 18308 H 1808.87 0.839924 -1.95087 0
M  V30 18309 H 1811.13 0.431492 -0.844108 0
M  V30 18310 H 1810.84 2.10471 -2.81771 0
M  V30 18311 H 1810.71 3.39773 -1.63812 0
M  V30 18312 H 1813.1 2.83424 -0.821889 0
M  V30 18313 H 1813.18 1.54919 -2.03553 0
M  V30 18314 H 1812.82 3.28963 -3.8697 0
M  V30 18315 H 1812.75 4.56405 -2.62682 0
M  V30 18316 H 1815.24 3.05522 -2.22407 0
M  V30 18317 H 1815.56 5.85939 -5.0388 0
M  V30 18318 H 1813.9 5.27404 -4.52626 0
M  V30 18319 H 1817.09 3.73426 -2.8226 0
M  V30 18320 H 1817.27 5.01313 -4.10596 0
M  V30 18321 N 1810.67 0.820125 1.3458 0
M  V30 18322 C 1811.9 0.419764 2.02597 0
M  V30 18323 C 1812.32 -0.973439 1.6177 0
M  V30 18324 O 1811.67 -1.6295 0.821791 0
M  V30 18325 C 1811.72 0.509104 3.57897 0
M  V30 18326 O 1811.44 1.84739 3.97244 0
M  V30 18327 C 1812.95 0.103283 4.4318 0
M  V30 18328 H 1810.17 0.168803 0.64942 0
M  V30 18329 H 1812.71 1.10751 1.71914 0
M  V30 18330 H 1810.86 -0.130526 3.8718 0
M  V30 18331 H 1811.28 1.81967 4.91923 0
M  V30 18332 H 1812.75 0.216884 5.51574 0
M  V30 18333 H 1813.23 -0.952888 4.28738 0
M  V30 18334 H 1813.84 0.716601 4.19219 0
M  V30 18335 N 1812.15 -1.46743 0.574835 0
M  V30 18336 C 1813.4 -2.02718 0.0575005 0
M  V30 18337 C 1813.73 -1.4463 -1.29599 0
M  V30 18338 O 1813 -0.608422 -1.84739 0
M  V30 18339 C 1813.29 -3.60096 -0.016719 0
M  V30 18340 C 1813.14 -4.28584 1.36511 0
M  V30 18341 C 1814.46 -4.34149 -0.721324 0
M  V30 18342 H 1811.58 -0.73666 0.0223697 0
M  V30 18343 H 1814.22 -1.74975 0.74052 0
M  V30 18344 H 1812.37 -3.83864 -0.598396 0
M  V30 18345 H 1814.04 -4.16104 1.99135 0
M  V30 18346 H 1812.29 -3.88253 1.935 0
M  V30 18347 H 1812.96 -5.37293 1.26573 0
M  V30 18348 H 1815.43 -4.15479 -0.227256 0
M  V30 18349 H 1814.31 -5.43858 -0.742263 0
M  V30 18350 H 1814.57 -4.04637 -1.78106 0
M  V30 18351 N 1813.63 -0.312197 -1.54477 0
M  V30 18352 C 1814.58 0.57453 -2.25393 0
M  V30 18353 C 1815.57 1.12789 -1.26392 0
M  V30 18354 O 1816.78 1.07724 -1.44207 0
M  V30 18355 H 1813.15 0.203904 -0.723828 0
M  V30 18356 H 1815.12 -0.0459918 -2.98365 0
M  V30 18357 C 1813.87 1.72942 -3.01639 0
M  V30 18358 H 1813.19 1.31286 -3.7763 0
M  V30 18359 H 1814.63 2.3257 -3.54524 0
M  V30 18360 C 1813.09 2.64026 -2.09266 0
M  V30 18361 O 1813.62 3.65431 -1.66803 0
M  V30 18362 N 1811.83 2.32007 -1.74989 0
M  V30 18363 H 1811.38 1.49588 -2.09717 0
M  V30 18364 H 1811.33 2.93213 -1.1346 0
M  V30 18365 N 1815.11 1.57549 -0.040136 0
M  V30 18366 C 1816.04 2.13912 0.936168 0
M  V30 18367 C 1817.02 1.05798 1.33194 0
M  V30 18368 O 1818.2 1.33685 1.40861 0
M  V30 18369 C 1815.33 2.67515 2.21479 0
M  V30 18370 C 1814.29 3.80513 1.95943 0
M  V30 18371 C 1813.61 4.20589 3.30165 0
M  V30 18372 C 1814.91 5.06124 1.28981 0
M  V30 18373 H 1816.61 2.9574 0.46674 0
M  V30 18374 H 1814.15 1.42262 0.223062 0
M  V30 18375 H 1816.11 3.05582 2.90168 0
M  V30 18376 H 1814.83 1.82864 2.70608 0
M  V30 18377 H 1813.49 3.42902 1.29669 0
M  V30 18378 H 1813.14 3.32904 3.77073 0
M  V30 18379 H 1812.84 4.96742 3.13881 0
M  V30 18380 H 1814.36 4.61248 4.00103 0
M  V30 18381 H 1815.77 5.41707 1.87687 0
M  V30 18382 H 1814.17 5.87347 1.2306 0
M  V30 18383 H 1815.24 4.84179 0.264286 0
M  V30 18384 N 1816.58 -0.233136 1.55866 0
M  V30 18385 C 1817.83 -0.957324 1.77988 0
M  V30 18386 C 1818.15 -1.85325 0.606593 0
M  V30 18387 O 1817.42 -1.92237 -0.377047 0
M  V30 18388 H 1816 -0.356474 0.656457 0
M  V30 18389 H 1818.67 -0.247774 1.93319 0
M  V30 18390 H 1817.76 -1.57096 2.6968 0
M  V30 18391 N 1818.06 -1.49479 -0.499372 0
M  V30 18392 C 1819.31 -1.58734 -1.25092 0
M  V30 18393 C 1819.63 -0.276701 -1.93027 0
M  V30 18394 O 1818.9 0.704058 -1.82811 0
M  V30 18395 H 1817.48 -0.584857 -0.464706 0
M  V30 18396 H 1820.14 -1.86113 -0.578608 0
M  V30 18397 H 1819.24 -2.38422 -2.01399 0
M  V30 18398 N 1819.54 0.750537 -1.38581 0
M  V30 18399 C 1820.49 1.86434 -1.36056 0
M  V30 18400 C 1821.46 1.64601 -0.222625 0
M  V30 18401 O 1822.64 1.86225 -0.41533 0
M  V30 18402 C 1819.78 3.23769 -1.19447 0
M  V30 18403 C 1818.9 3.57412 -2.42653 0
M  V30 18404 C 1818.03 4.84067 -2.18751 0
M  V30 18405 C 1817.07 5.10506 -3.37713 0
M  V30 18406 N 1816.21 6.28358 -3.13227 0
M  V30 18407 H 1821.05 1.87927 -2.31274 0
M  V30 18408 H 1818.58 0.91849 -1.14901 0
M  V30 18409 H 1820.54 4.03024 -1.07832 0
M  V30 18410 H 1819.17 3.21595 -0.278665 0
M  V30 18411 H 1818.22 2.72978 -2.64929 0
M  V30 18412 H 1819.54 3.72876 -3.31307 0
M  V30 18413 H 1818.69 5.71271 -2.0429 0
M  V30 18414 H 1817.43 4.70748 -1.27467 0
M  V30 18415 H 1816.43 4.2177 -3.5269 0
M  V30 18416 H 1817.66 5.25721 -4.29877 0
M  V30 18417 H 1815.61 6.16355 -2.24593 0
M  V30 18418 H 1815.52 6.44337 -3.95432 0
M  V30 18419 H 1816.79 7.18441 -3.02428 0
M  V30 18420 N 1821.02 1.235 0.979051 0
M  V30 18421 C 1822.25 1.09462 1.75572 0
M  V30 18422 C 1822.66 -0.3538 1.85455 0
M  V30 18423 O 1822.02 -1.24467 1.3347 0
M  V30 18424 C 1822.07 1.71562 3.18196 0
M  V30 18425 O 1821.79 3.1074 3.08824 0
M  V30 18426 C 1823.29 1.62984 4.12251 0
M  V30 18427 H 1820.51 0.383013 0.550946 0
M  V30 18428 H 1823.06 1.63378 1.22995 0
M  V30 18429 H 1821.21 1.21676 3.67796 0
M  V30 18430 H 1821.63 3.40888 3.98617 0
M  V30 18431 H 1823.1 2.11135 5.10025 0
M  V30 18432 H 1823.58 0.588907 4.35234 0
M  V30 18433 H 1824.18 2.12242 3.68556 0
M  V30 18434 N 1822.5 -1.17802 1.04693 0
M  V30 18435 C 1823.72 -1.92408 0.774194 0
M  V30 18436 C 1824.15 -1.76012 -0.663424 0
M  V30 18437 O 1823.51 -1.07447 -1.4603 0
M  V30 18438 C 1823.55 -3.4166 1.1533 0
M  V30 18439 O 1822.66 -4.11431 0.282469 0
M  V30 18440 H 1822 -0.600033 0.284353 0
M  V30 18441 H 1824.53 -1.49348 1.39844 0
M  V30 18442 H 1824.54 -3.92386 1.11791 0
M  V30 18443 H 1823.21 -3.52914 2.20056 0
M  V30 18444 H 1821.79 -3.70979 0.378021 0
M  V30 18445 N 1823.98 -0.827251 -1.34143 0
M  V30 18446 C 1825.22 -0.418003 -1.98445 0
M  V30 18447 C 1825.55 1.01737 -1.65418 0
M  V30 18448 O 1824.83 1.70932 -0.928042 0
M  V30 18449 C 1825.11 -0.625559 -3.54625 0
M  V30 18450 C 1824.97 -2.10736 -3.97379 0
M  V30 18451 C 1826.28 -0.0642701 -4.40053 0
M  V30 18452 H 1823.4 -0.15335 -0.72087 0
M  V30 18453 H 1826.05 -1.04062 -1.58969 0
M  V30 18454 H 1824.2 -0.095577 -3.88382 0
M  V30 18455 H 1825.87 -2.70131 -3.73934 0
M  V30 18456 H 1824.11 -2.59621 -3.47533 0
M  V30 18457 H 1824.78 -2.20338 -5.06118 0
M  V30 18458 H 1827.26 -0.517137 -4.12874 0
M  V30 18459 H 1826.13 -0.239267 -5.48378 0
M  V30 18460 H 1826.39 1.0311 -4.29908 0
M  V30 18461 N 1825.45 1.46436 -0.582609 0
M  V30 18462 C 1826.68 2.06768 -0.0737657 0
M  V30 18463 C 1827.1 1.43137 1.23115 0
M  V30 18464 O 1826.45 0.536633 1.74432 0
M  V30 18465 C 1826.5 3.61365 0.0988205 0
M  V30 18466 O 1826.23 4.22616 -1.15444 0
M  V30 18467 C 1827.73 4.38626 0.642025 0
M  V30 18468 H 1824.95 0.66854 -0.0574078 0
M  V30 18469 H 1827.49 1.88064 -0.80325 0
M  V30 18470 H 1825.65 3.79497 0.778526 0
M  V30 18471 H 1826.06 5.15486 -0.968204 0
M  V30 18472 H 1827.53 5.47389 0.711966 0
M  V30 18473 H 1828.01 4.06663 1.65897 0
M  V30 18474 H 1828.62 4.253 -0.00280852 0
M  V30 18475 N 1826.93 0.320385 1.54309 0
M  V30 18476 C 1828.18 -0.283562 2.00808 0
M  V30 18477 C 1828.51 -1.52036 1.20826 0
M  V30 18478 O 1827.79 -1.9233 0.289721 0
M  V30 18479 C 1828.07 -0.620875 3.54707 0
M  V30 18480 C 1827.92 0.626403 4.45417 0
M  V30 18481 C 1829.24 -1.43978 4.15883 0
M  V30 18482 H 1826.36 -0.10159 0.729965 0
M  V30 18483 H 1829 0.436332 1.84922 0
M  V30 18484 H 1827.15 -1.23419 3.68375 0
M  V30 18485 H 1828.82 1.2647 4.43625 0
M  V30 18486 H 1827.07 1.2559 4.15222 0
M  V30 18487 H 1827.74 0.345969 5.50915 0
M  V30 18488 H 1830.21 -0.921381 4.05771 0
M  V30 18489 H 1829.09 -1.64456 5.23685 0
M  V30 18490 H 1829.35 -2.43494 3.69003 0
M  V30 18491 N 1828.41 -1.57525 0.0484906 0
M  V30 18492 C 1829.64 -1.96611 -0.634631 0
M  V30 18493 C 1830.05 -0.924571 -1.65071 0
M  V30 18494 O 1829.39 0.0999398 -1.83428 0
M  V30 18495 C 1829.45 -3.31924 -1.38082 0
M  V30 18496 C 1829.12 -4.54022 -0.520883 0
M  V30 18497 C 1830.11 -5.19468 0.21192 0
M  V30 18498 C 1827.8 -5.00257 -0.452595 0
M  V30 18499 C 1829.79 -6.29483 1.00148 0
M  V30 18500 C 1827.48 -6.1015 0.340652 0
M  V30 18501 C 1828.48 -6.74624 1.06638 0
M  V30 18502 O 1828.17 -7.82404 1.84659 0
M  V30 18503 H 1827.9 -0.652007 -0.178503 0
M  V30 18504 H 1830.45 -2.05103 0.110397 0
M  V30 18505 H 1828.68 -3.19979 -2.17142 0
M  V30 18506 H 1830.37 -3.55777 -1.95392 0
M  V30 18507 H 1831.14 -4.84707 0.168615 0
M  V30 18508 H 1827.02 -4.49866 -1.00706 0
M  V30 18509 H 1830.56 -6.79739 1.56844 0
M  V30 18510 H 1826.46 -6.44347 0.385605 0
M  V30 18511 H 1827.22 -7.99168 1.76842 0
M  V30 18512 N 1829.89 0.224867 -1.55988 0
M  V30 18513 C 1831.3 0.792138 -1.69062 0
M  V30 18514 C 1831.65 1.85123 -0.649908 0
M  V30 18515 O 1830.77 2.15477 0.199614 0
M  V30 18516 C 1831.37 1.44361 -3.06505 0
M  V30 18517 C 1829.93 1.95831 -3.21446 0
M  V30 18518 C 1829.08 0.81728 -2.64983 0
M  V30 18519 H 1832.03 0.000270833 -1.587 0
M  V30 18520 H 1832.05 2.31233 -3.02178 0
M  V30 18521 H 1831.56 0.672544 -3.82228 0
M  V30 18522 H 1829.66 2.75749 -2.50586 0
M  V30 18523 H 1829.77 2.14056 -4.28622 0
M  V30 18524 H 1828.14 1.22371 -2.23377 0
M  V30 18525 H 1828.92 0.058944 -3.43249 0
M  V30 18526 N 1831.37 1.49742 0.491438 0
M  V30 18527 C 1832.61 1.59395 1.24248 0
M  V30 18528 C 1832.93 0.286934 1.92877 0
M  V30 18529 O 1832.2 -0.694353 1.83182 0
M  V30 18530 H 1830.78 0.587313 0.461598 0
M  V30 18531 H 1833.45 1.86417 0.56873 0
M  V30 18532 H 1832.54 2.39487 2.00131 0
M  V30 18533 N 1832.84 -0.743177 1.38977 0
M  V30 18534 C 1834.12 -1.49384 1.26269 0
M  V30 18535 C 1834.5 -2.10691 -0.131349 0
M  V30 18536 O 1833.85 -1.97925 -1.14183 0
M  V30 18537 C 1834.06 -2.55184 2.3808 0
M  V30 18538 C 1835.41 -3.21796 2.77006 0
M  V30 18539 O 1836.43 -2.65493 2.37469 0
M  V30 18540 O 1835.29 -4.23656 3.45222 0
M  V30 18541 H 1832.38 -0.662968 0.49437 0
M  V30 18542 H 1834.93 -0.7777 1.50831 0
M  V30 18543 H 1833.7 -2.08204 3.31311 0
M  V30 18544 H 1833.33 -3.34366 2.15139 0
M  V30 18545 N 1834.32 -1.24018 -0.972487 0
M  V30 18546 C 1835.57 -1.07861 -1.71738 0
M  V30 18547 C 1835.9 0.382399 -1.90398 0
M  V30 18548 O 1835.18 1.2828 -1.462 0
M  V30 18549 C 1835.46 -1.81357 -3.11098 0
M  V30 18550 C 1835.31 -3.35179 -2.99959 0
M  V30 18551 C 1836.63 -1.58242 -4.10667 0
M  V30 18552 H 1833.75 -0.393228 -0.623331 0
M  V30 18553 H 1836.39 -1.52625 -1.13162 0
M  V30 18554 H 1834.54 -1.43307 -3.61103 0
M  V30 18555 H 1836.21 -3.82798 -2.57416 0
M  V30 18556 H 1834.46 -3.63805 -2.3628 0
M  V30 18557 H 1835.13 -3.818 -3.98664 0
M  V30 18558 H 1837.6 -1.91332 -3.69501 0
M  V30 18559 H 1836.48 -2.1213 -5.06253 0
M  V30 18560 H 1836.74 -0.519567 -4.39036 0
M  V30 18561 N 1835.8 1.17245 -1.05316 0
M  V30 18562 C 1837.05 1.87536 -0.76398 0
M  V30 18563 C 1837.38 1.81115 0.709049 0
M  V30 18564 O 1836.63 1.21473 1.53437 0
M  V30 18565 C 1836.93 3.36958 -1.19138 0
M  V30 18566 C 1836.6 3.63581 -2.66683 0
M  V30 18567 C 1835.26 3.70556 -3.06988 0
M  V30 18568 C 1837.61 3.74954 -3.62021 0
M  V30 18569 C 1834.94 3.86396 -4.41492 0
M  V30 18570 C 1837.29 3.92313 -4.9626 0
M  V30 18571 C 1835.95 3.97527 -5.36217 0
M  V30 18572 H 1835.22 0.686241 -0.27956 0
M  V30 18573 H 1837.87 1.38694 -1.32047 0
M  V30 18574 H 1836.18 3.87865 -0.55391 0
M  V30 18575 H 1837.87 3.8971 -0.944815 0
M  V30 18576 H 1834.46 3.58778 -2.34471 0
M  V30 18577 H 1838.65 3.68885 -3.3202 0
M  V30 18578 H 1833.9 3.88681 -4.7195 0
M  V30 18579 H 1838.08 4.00055 -5.70026 0
M  V30 18580 H 1835.7 4.09553 -6.40445 0
M  V30 18581 N 1837.28 0.834353 1.33702 0
M  V30 18582 C 1838.52 0.4339 1.99742 0
M  V30 18583 C 1838.88 -0.987294 1.64671 0
M  V30 18584 O 1840.08 -1.49124 2.23642 0
M  V30 18585 C 1838.35 0.643042 3.51568 0
M  V30 18586 S 1839.91 0.337137 4.37503 0
M  V30 18587 H 1836.73 0.163412 0.691966 0
M  V30 18588 H 1839.33 1.08266 1.62785 0
M  V30 18589 H 1838.04 1.67685 3.7458 0
M  V30 18590 H 1837.57 -0.0200346 3.93395 0
M  V30 18591 H 1839.58 -0.844826 4.88955 0
M  V30 18592 N 1838.76 -1.46125 0.590367 0
M  V30 18593 C 1839.69 -2.33159 -0.126114 0
M  V30 18594 C 1840.67 -1.45806 -0.876057 0
M  V30 18595 O 1841.85 -1.7461 -0.850009 0
M  V30 18596 C 1838.98 -3.28217 -1.13537 0
M  V30 18597 C 1837.94 -4.25072 -0.499773 0
M  V30 18598 C 1837.26 -5.09694 -1.61605 0
M  V30 18599 C 1838.56 -5.19202 0.567992 0
M  V30 18600 H 1840.26 -2.93315 0.600577 0
M  V30 18601 H 1837.8 -1.41044 0.290265 0
M  V30 18602 H 1839.76 -3.87965 -1.64503 0
M  V30 18603 H 1838.48 -2.66185 -1.89244 0
M  V30 18604 H 1837.14 -3.66598 -0.0111313 0
M  V30 18605 H 1836.79 -4.44041 -2.36297 0
M  V30 18606 H 1836.49 -5.75292 -1.19637 0
M  V30 18607 H 1838.01 -5.72307 -2.12832 0
M  V30 18608 H 1839.42 -5.73121 0.143102 0
M  V30 18609 H 1837.82 -5.93184 0.908428 0
M  V30 18610 H 1838.89 -4.62671 1.45133 0
M  V30 18611 N 1840.23 -0.328564 -1.54137 0
M  V30 18612 C 1841.18 0.550772 -2.21248 0
M  V30 18613 C 1842.17 1.07776 -1.19471 0
M  V30 18614 O 1843.36 1.01395 -1.4508 0
M  V30 18615 C 1840.49 1.70871 -2.97755 0
M  V30 18616 C 1839.58 1.19638 -4.06875 0
M  V30 18617 N 1839.97 0.404108 -5.04183 0
M  V30 18618 C 1838.26 1.47465 -4.20916 0
M  V30 18619 C 1838.97 0.127848 -5.81559 0
M  V30 18620 N 1837.94 0.715362 -5.38872 0
M  V30 18621 H 1841.74 -0.0617731 -2.93835 0
M  V30 18622 H 1839.26 -0.13467 -1.61841 0
M  V30 18623 H 1841.25 2.35048 -3.44322 0
M  V30 18624 H 1839.91 2.32468 -2.26691 0
M  V30 18625 H 1840.93 0.046507 -5.17879 0
M  V30 18626 H 1837.6 2.0961 -3.61067 0
M  V30 18627 H 1838.99 -0.510286 -6.69959 0
M  V30 18628 N 1841.71 1.57497 -0.0568439 0
M  V30 18629 C 1842.94 1.97231 0.625102 0
M  V30 18630 C 1843.36 0.934622 1.64043 0
M  V30 18631 O 1842.71 -0.0805064 1.82322 0
M  V30 18632 C 1842.76 3.37046 1.30698 0
M  V30 18633 O 1842.48 4.36838 0.332302 0
M  V30 18634 C 1843.99 3.9157 2.07816 0
M  V30 18635 H 1841.21 0.648975 0.170505 0
M  V30 18636 H 1843.75 2.04119 -0.124823 0
M  V30 18637 H 1841.9 3.31292 2.0081 0
M  V30 18638 H 1842.32 5.18055 0.819691 0
M  V30 18639 H 1843.79 4.91664 2.5094 0
M  V30 18640 H 1844.27 3.27303 2.92864 0
M  V30 18641 H 1844.88 4.0068 1.42603 0
M  V30 18642 N 1843.19 -0.216591 1.56105 0
M  V30 18643 C 1844.6 -0.783161 1.6948 0
M  V30 18644 C 1844.95 -1.84776 0.659716 0
M  V30 18645 O 1844.08 -2.1558 -0.188184 0
M  V30 18646 C 1844.67 -1.42733 3.07267 0
M  V30 18647 C 1843.23 -1.94123 3.2248 0
M  V30 18648 C 1842.38 -0.803216 2.65412 0
M  V30 18649 H 1845.33 0.00814542 1.58698 0
M  V30 18650 H 1845.35 -2.29627 3.034 0
M  V30 18651 H 1844.86 -0.652264 3.8258 0
M  V30 18652 H 1842.96 -2.74416 2.52045 0
M  V30 18653 H 1843.08 -2.1178 4.29751 0
M  V30 18654 H 1841.44 -1.21185 2.24023 0
M  V30 18655 H 1842.22 -0.0407398 3.43276 0
M  V30 18656 N 1844.67 -1.5 -0.48349 0
M  V30 18657 C 1845.92 -1.60052 -1.23401 0
M  V30 18658 C 1846.24 -0.297159 -1.92723 0
M  V30 18659 O 1845.51 0.684629 -1.83547 0
M  V30 18660 H 1844.09 -0.589753 -0.458477 0
M  V30 18661 H 1846.75 -1.86716 -0.558835 0
M  V30 18662 H 1845.85 -2.40545 -1.98858 0
M  V30 18663 N 1846.15 0.735796 -1.39369 0
M  V30 18664 C 1847.39 1.49239 -1.3628 0
M  V30 18665 C 1847.72 1.94957 0.0408659 0
M  V30 18666 O 1846.99 1.68929 0.991959 0
M  V30 18667 H 1845.57 0.553626 -0.501506 0
M  V30 18668 H 1848.23 0.873549 -1.74227 0
M  V30 18669 H 1847.32 2.37488 -2.02499 0
M  V30 18670 N 1847.63 1.24532 0.965897 0
M  V30 18671 C 1848.87 1.08395 1.70572 0
M  V30 18672 C 1849.19 -0.377657 1.91308 0
M  V30 18673 O 1848.46 -1.26935 1.49212 0
M  V30 18674 H 1847.04 0.398123 0.632066 0
M  V30 18675 H 1849.71 1.5648 1.1619 0
M  V30 18676 H 1848.8 1.58342 2.6895 0
M  V30 18677 N 1849.1 -1.16685 1.05936 0
M  V30 18678 C 1850.35 -1.86758 0.772386 0
M  V30 18679 C 1850.67 -1.81885 -0.703051 0
M  V30 18680 O 1849.94 -1.24992 -1.50844 0
M  V30 18681 H 1848.52 -0.69143 0.282725 0
M  V30 18682 H 1851.18 -1.41518 1.3401 0
M  V30 18683 H 1850.28 -2.92296 1.09405 0
M  V30 18684 N 1850.58 -0.841432 -1.33258 0
M  V30 18685 C 1851.81 -0.451287 -2.01611 0
M  V30 18686 C 1852.22 0.952858 -1.63454 0
M  V30 18687 O 1851.56 1.6311 -0.845039 0
M  V30 18688 C 1851.62 -0.495287 -3.56072 0
M  V30 18689 C 1851.29 -1.856 -4.17614 0
M  V30 18690 C 1852.29 -2.81959 -4.36801 0
M  V30 18691 C 1849.97 -2.14953 -4.53983 0
M  V30 18692 C 1851.96 -4.05832 -4.91507 0
M  V30 18693 C 1849.65 -3.39083 -5.08395 0
M  V30 18694 C 1850.65 -4.34339 -5.27104 0
M  V30 18695 O 1850.34 -5.56273 -5.80359 0
M  V30 18696 H 1850.07 -0.177188 -0.652365 0
M  V30 18697 H 1852.62 -1.13629 -1.71107 0
M  V30 18698 H 1850.85 0.246506 -3.85914 0
M  V30 18699 H 1852.54 -0.122606 -4.05715 0
M  V30 18700 H 1853.31 -2.60582 -4.0905 0
M  V30 18701 H 1849.19 -1.41602 -4.38714 0
M  V30 18702 H 1852.73 -4.80192 -5.06025 0
M  V30 18703 H 1848.63 -3.60316 -5.35577 0
M  V30 18704 H 1849.4 -5.58047 -5.9877 0
M  V30 18705 N 1852.06 1.4581 -0.598108 0
M  V30 18706 C 1853.31 2.01902 -0.0894342 0
M  V30 18707 C 1853.63 1.47021 1.281 0
M  V30 18708 O 1852.9 0.6608 1.84419 0
M  V30 18709 H 1851.48 0.746394 -0.0300712 0
M  V30 18710 H 1854.14 1.78726 -0.777367 0
M  V30 18711 H 1853.24 3.12084 -0.0320424 0
M  V30 18712 N 1853.54 0.336733 1.53961 0
M  V30 18713 C 1854.81 -0.316794 1.93018 0
M  V30 18714 C 1855.19 -1.68802 1.26764 0
M  V30 18715 O 1854.54 -2.2468 0.416094 0
M  V30 18716 C 1854.75 -0.395878 3.46747 0
M  V30 18717 C 1856.1 -0.649946 4.19596 0
M  V30 18718 O 1857.12 -0.47827 3.52975 0
M  V30 18719 O 1855.98 -0.982035 5.37604 0
M  V30 18720 H 1853.08 -0.183442 0.806398 0
M  V30 18721 H 1855.62 0.387412 1.65219 0
M  V30 18722 H 1854.4 0.56665 3.87175 0
M  V30 18723 H 1854.02 -1.14714 3.80692 0
M  V30 18724 N 1855.02 -1.57465 0.0651956 0
M  V30 18725 C 1856.43 -1.80728 -0.468449 0
M  V30 18726 C 1856.78 -0.978581 -1.70054 0
M  V30 18727 O 1855.9 -0.199186 -2.15481 0
M  V30 18728 C 1856.5 -3.27791 -0.856641 0
M  V30 18729 C 1855.06 -3.51923 -1.33519 0
M  V30 18730 C 1854.2 -2.7548 -0.317147 0
M  V30 18731 H 1857.15 -1.5601 0.290955 0
M  V30 18732 H 1857.18 -3.39479 -1.71855 0
M  V30 18733 H 1856.69 -3.88079 0.0402823 0
M  V30 18734 H 1854.79 -2.96932 -2.25083 0
M  V30 18735 H 1854.9 -4.60624 -1.31767 0
M  V30 18736 H 1853.27 -2.4204 -0.793026 0
M  V30 18737 H 1854.05 -3.38502 0.571935 0
M  V30 18738 N 1856.49 0.20831 -1.56217 0
M  V30 18739 C 1857.4 1.27891 -1.96675 0
M  V30 18740 C 1858.42 1.50546 -0.87246 0
M  V30 18741 O 1859.6 1.63418 -1.17713 0
M  V30 18742 C 1856.66 2.60598 -2.28669 0
M  V30 18743 C 1855.72 2.4613 -3.51736 0
M  V30 18744 C 1854.95 3.72509 -3.82195 0
M  V30 18745 O 1855.18 4.76105 -3.14133 0
M  V30 18746 O 1854.11 3.68828 -4.75657 0
M  V30 18747 H 1857.94 0.965607 -2.8794 0
M  V30 18748 H 1855.52 0.412249 -1.436 0
M  V30 18749 H 1857.4 3.38949 -2.50383 0
M  V30 18750 H 1856.08 2.91583 -1.40575 0
M  V30 18751 H 1854.99 1.65935 -3.35286 0
M  V30 18752 H 1856.32 2.20082 -4.40255 0
M  V30 18753 N 1857.97 1.50255 0.475528 0
M  V30 18754 C 1859.25 1.51537 1.23676 0
M  V30 18755 C 1859.63 0.257508 2.09524 0
M  V30 18756 O 1858.98 -0.759242 2.15517 0
M  V30 18757 C 1859.19 2.80865 2.07162 0
M  V30 18758 C 1860.53 3.31353 2.655 0
M  V30 18759 O 1861.56 2.82156 2.17408 0
M  V30 18760 O 1860.42 4.17102 3.53112 0
M  V30 18761 H 1857.51 0.607633 0.560991 0
M  V30 18762 H 1860.06 1.62541 0.487712 0
M  V30 18763 H 1858.83 3.63891 1.43871 0
M  V30 18764 H 1858.45 2.72844 2.89209 0
M  V30 18765 N 1859.45 -0.728395 1.39758 0
M  V30 18766 C 1860.86 -1.30697 1.33323 0
M  V30 18767 C 1861.21 -1.962 0.000676614 0
M  V30 18768 O 1860.34 -1.96731 -0.90143 0
M  V30 18769 C 1860.93 -2.37656 2.41464 0
M  V30 18770 C 1859.49 -2.91171 2.3853 0
M  V30 18771 C 1858.64 -1.64812 2.23007 0
M  V30 18772 H 1861.59 -0.525429 1.4975 0
M  V30 18773 H 1861.61 -3.18202 2.08633 0
M  V30 18774 H 1861.12 -1.89953 3.38437 0
M  V30 18775 H 1859.22 -3.43137 1.45216 0
M  V30 18776 H 1859.34 -3.43836 3.33637 0
M  V30 18777 H 1857.7 -1.89397 1.70296 0
M  V30 18778 H 1858.48 -1.19151 3.21959 0
M  V30 18779 N 1860.93 -1.25042 -0.959279 0
M  V30 18780 C 1861.89 -1.05107 -2.03679 0
M  V30 18781 C 1862.89 -0.0054691 -1.60799 0
M  V30 18782 O 1864.08 -0.247225 -1.72437 0
M  V30 18783 C 1861.21 -0.594881 -3.35669 0
M  V30 18784 H 1862.41 -2.00753 -2.22796 0
M  V30 18785 H 1859.96 -1.07384 -1.13571 0
M  V30 18786 H 1860.69 0.364387 -3.22246 0
M  V30 18787 H 1860.48 -1.34966 -3.68139 0
M  V30 18788 H 1861.97 -0.476698 -4.1487 0
M  V30 18789 N 1862.41 1.16121 -1.06553 0
M  V30 18790 C 1863.82 1.68319 -0.807804 0
M  V30 18791 C 1864.17 1.8447 0.668234 0
M  V30 18792 O 1863.29 1.54215 1.51811 0
M  V30 18793 C 1863.89 3.05738 -1.45979 0
M  V30 18794 C 1862.45 3.55046 -1.24977 0
M  V30 18795 C 1861.59 2.30965 -1.53462 0
M  V30 18796 H 1864.55 1.00447 -1.22866 0
M  V30 18797 H 1864.57 3.70266 -0.876556 0
M  V30 18798 H 1864.08 2.93951 -2.53405 0
M  V30 18799 H 1862.18 3.72087 -0.195367 0
M  V30 18800 H 1862.29 4.36979 -1.96433 0
M  V30 18801 H 1860.66 2.36107 -0.955268 0
M  V30 18802 H 1861.44 2.21773 -2.62052 0
M  V30 18803 N 1863.88 0.848487 1.3281 0
M  V30 18804 C 1865.3 0.504307 1.7976 0
M  V30 18805 C 1865.65 -0.977408 1.70121 0
M  V30 18806 O 1864.77 -1.7621 1.25614 0
M  V30 18807 C 1865.37 0.908628 3.26388 0
M  V30 18808 C 1863.93 0.616441 3.71318 0
M  V30 18809 C 1863.07 1.11173 2.54039 0
M  V30 18810 H 1866.02 1.03628 1.20195 0
M  V30 18811 H 1866.04 0.222518 3.79849 0
M  V30 18812 H 1865.56 1.98708 3.33372 0
M  V30 18813 H 1863.66 -0.451545 3.69854 0
M  V30 18814 H 1863.77 1.17841 4.64382 0
M  V30 18815 H 1862.13 0.532227 2.49077 0
M  V30 18816 H 1862.92 2.19716 2.6378 0
M  V30 18817 N 1865.36 -1.4549 0.605832 0
M  V30 18818 C 1866.77 -1.85775 0.18559 0
M  V30 18819 C 1867.12 -1.50638 -1.25708 0
M  V30 18820 O 1866.25 -0.932227 -1.95291 0
M  V30 18821 C 1866.84 -3.37189 0.330043 0
M  V30 18822 C 1865.4 -3.76383 -0.0354934 0
M  V30 18823 C 1864.55 -2.69446 0.655297 0
M  V30 18824 H 1867.5 -1.36316 0.812624 0
M  V30 18825 H 1867.52 -3.77968 -0.438236 0
M  V30 18826 H 1867.03 -3.62731 1.38014 0
M  V30 18827 H 1865.14 -3.56458 -1.08483 0
M  V30 18828 H 1865.25 -4.77769 0.356935 0
M  V30 18829 H 1863.61 -2.5453 0.0931235 0
M  V30 18830 H 1864.4 -2.97825 1.70749 0
M  V30 18831 N 1866.84 -0.344893 -1.5378 0
M  V30 18832 C 1868.09 0.250711 -2.00539 0
M  V30 18833 C 1868.41 1.5096 -1.23435 0
M  V30 18834 O 1867.68 1.92893 -0.341893 0
M  V30 18835 H 1866.26 0.0956318 -0.740853 0
M  V30 18836 H 1868.92 -0.466361 -1.89238 0
M  V30 18837 H 1868.02 0.49222 -3.08194 0
M  V30 18838 N 1868.32 1.57428 -0.0735454 0
M  V30 18839 C 1869.54 1.98301 0.607591 0
M  V30 18840 C 1869.97 0.951686 1.62248 0
M  V30 18841 O 1869.33 -0.0825008 1.81112 0
M  V30 18842 C 1869.37 3.38201 1.2511 0
M  V30 18843 O 1868.48 3.37711 2.36696 0
M  V30 18844 H 1867.82 0.64539 0.156104 0
M  V30 18845 H 1870.35 2.0406 -0.148578 0
M  V30 18846 H 1870.36 3.75424 1.59753 0
M  V30 18847 H 1869.03 4.12793 0.50745 0
M  V30 18848 H 1867.61 3.1226 2.03833 0
M  V30 18849 N 1869.8 -0.200022 1.56326 0
M  V30 18850 C 1871.21 -0.765141 1.70301 0
M  V30 18851 C 1871.56 -1.84066 0.679277 0
M  V30 18852 O 1870.68 -2.15768 -0.165308 0
M  V30 18853 C 1871.28 -1.39466 3.08763 0
M  V30 18854 C 1869.84 -1.90692 3.2452 0
M  V30 18855 C 1868.98 -0.77502 2.66249 0
M  V30 18856 H 1871.94 0.024977 1.5868 0
M  V30 18857 H 1871.96 -2.26396 3.05819 0
M  V30 18858 H 1871.47 -0.61165 3.8325 0
M  V30 18859 H 1869.57 -2.71728 2.54941 0
M  V30 18860 H 1869.68 -2.0721 4.31973 0
M  V30 18861 H 1868.05 -1.18802 2.25296 0
M  V30 18862 H 1868.83 -0.00432851 3.433 0
M  V30 18863 N 1871.27 -1.50505 -0.467553 0
M  V30 18864 C 1872.69 -1.54489 -1.04833 0
M  V30 18865 C 1873.04 -0.350468 -1.93044 0
M  V30 18866 O 1872.16 0.536238 -2.09651 0
M  V30 18867 C 1872.76 -2.79967 -1.90799 0
M  V30 18868 C 1871.32 -2.86621 -2.43979 0
M  V30 18869 C 1870.46 -2.48819 -1.22412 0
M  V30 18870 H 1873.41 -1.56718 -0.250025 0
M  V30 18871 H 1873.43 -2.62022 -2.75907 0
M  V30 18872 H 1872.95 -3.66881 -1.2657 0
M  V30 18873 H 1871.05 -2.04066 -3.11749 0
M  V30 18874 H 1871.16 -3.89594 -2.78843 0
M  V30 18875 H 1869.52 -2.01335 -1.56001 0
M  V30 18876 H 1870.31 -3.38044 -0.598405 0
M  V30 18877 N 1872.75 0.720973 -1.40142 0
M  V30 18878 C 1873.68 1.8457 -1.35891 0
M  V30 18879 C 1874.7 1.60625 -0.265232 0
M  V30 18880 O 1875.89 1.70599 -0.525198 0
M  V30 18881 C 1872.99 3.20871 -1.09064 0
M  V30 18882 C 1872.16 3.72058 -2.29982 0
M  V30 18883 C 1871.22 4.86957 -1.99397 0
M  V30 18884 O 1870.24 4.99888 -2.72213 0
M  V30 18885 N 1871.45 5.72361 -0.968645 0
M  V30 18886 H 1874.21 1.88717 -2.32822 0
M  V30 18887 H 1871.77 0.902293 -1.34426 0
M  V30 18888 H 1873.76 3.95326 -0.865979 0
M  V30 18889 H 1872.33 3.11906 -0.208188 0
M  V30 18890 H 1871.55 2.88795 -2.68312 0
M  V30 18891 H 1872.84 4.02991 -3.10605 0
M  V30 18892 H 1872.24 5.64518 -0.36546 0
M  V30 18893 H 1870.8 6.46824 -0.803886 0
M  V30 18894 N 1874.23 1.25549 0.952634 0
M  V30 18895 C 1875.19 1.06186 2.03119 0
M  V30 18896 C 1876.19 0.0139966 1.60794 0
M  V30 18897 O 1877.38 0.256367 1.72303 0
M  V30 18898 C 1874.52 0.612674 3.35349 0
M  V30 18899 H 1875.71 2.01932 2.21729 0
M  V30 18900 H 1873.26 1.07984 1.13 0
M  V30 18901 H 1874 -0.347292 3.22435 0
M  V30 18902 H 1873.78 1.36917 3.67418 0
M  V30 18903 H 1875.27 0.498693 4.14612 0
M  V30 18904 N 1875.71 -1.15554 1.07168 0
M  V30 18905 C 1876.64 -2.22387 0.71178 0
M  V30 18906 C 1877.62 -1.67435 -0.299908 0
M  V30 18907 O 1878.8 -1.93427 -0.173073 0
M  V30 18908 C 1875.93 -3.47136 0.106815 0
M  V30 18909 C 1874.89 -4.15035 1.04545 0
M  V30 18910 C 1874.21 -5.33839 0.303337 0
M  V30 18911 C 1875.51 -4.65011 2.37827 0
M  V30 18912 H 1877.21 -2.52748 1.60496 0
M  V30 18913 H 1874.75 -1.21485 0.773139 0
M  V30 18914 H 1876.71 -4.21108 -0.15689 0
M  V30 18915 H 1875.43 -3.16101 -0.821429 0
M  V30 18916 H 1874.09 -3.43001 1.29405 0
M  V30 18917 H 1873.74 -4.9906 -0.628308 0
M  V30 18918 H 1873.44 -5.8021 0.928964 0
M  V30 18919 H 1874.96 -6.10582 0.0473869 0
M  V30 18920 H 1876.38 -5.3052 2.17305 0
M  V30 18921 H 1874.77 -5.22038 2.95967 0
M  V30 18922 H 1875.84 -3.80748 3.00264 0
M  V30 18923 N 1877.19 -0.855519 -1.32358 0
M  V30 18924 C 1878.15 -0.305794 -2.27151 0
M  V30 18925 C 1879.15 0.535008 -1.51639 0
M  V30 18926 O 1880.34 0.346394 -1.70721 0
M  V30 18927 C 1877.47 0.567275 -3.36147 0
M  V30 18928 H 1878.67 -1.14245 -2.77287 0
M  V30 18929 H 1876.22 -0.629924 -1.43044 0
M  V30 18930 H 1876.95 1.42571 -2.9128 0
M  V30 18931 H 1876.74 -0.0345714 -3.92085 0
M  V30 18932 H 1878.23 0.944644 -4.06775 0
M  V30 18933 N 1878.67 1.45167 -0.61354 0
M  V30 18934 C 1879.91 2.02195 -0.111063 0
M  V30 18935 C 1880.24 1.48117 1.26061 0
M  V30 18936 O 1879.5 0.648333 1.84649 0
M  V30 18937 C 1879.79 3.57389 -0.0281394 0
M  V30 18938 C 1879.46 4.30645 -1.33626 0
M  V30 18939 C 1878.12 4.50375 -1.69457 0
M  V30 18940 C 1880.47 4.72469 -2.20052 0
M  V30 18941 C 1877.8 5.09186 -2.91455 0
M  V30 18942 C 1880.15 5.3263 -3.41304 0
M  V30 18943 C 1878.82 5.50582 -3.7738 0
M  V30 18944 H 1878.09 0.739885 -0.0406408 0
M  V30 18945 H 1880.74 1.74157 -0.796346 0
M  V30 18946 H 1879.04 3.8474 0.740436 0
M  V30 18947 H 1880.74 3.99225 0.37689 0
M  V30 18948 H 1877.33 4.15605 -1.04738 0
M  V30 18949 H 1881.51 4.56954 -1.93668 0
M  V30 18950 H 1876.77 5.21274 -3.19505 0
M  V30 18951 H 1880.94 5.6399 -4.08519 0
M  V30 18952 H 1878.57 5.95921 -4.71998 0
M  V30 18953 N 1880.14 0.353044 1.53595 0
M  V30 18954 C 1881.55 -0.128852 1.86255 0
M  V30 18955 C 1881.91 -1.49209 1.27402 0
M  V30 18956 O 1881.03 -2.08167 0.591222 0
M  V30 18957 C 1881.63 -0.240583 3.37945 0
M  V30 18958 C 1880.18 -0.66672 3.70448 0
M  V30 18959 C 1879.33 0.193757 2.76622 0
M  V30 18960 H 1882.28 0.5723 1.48022 0
M  V30 18961 H 1882.3 -1.06641 3.65251 0
M  V30 18962 H 1881.82 0.75174 3.8075 0
M  V30 18963 H 1879.92 -1.66773 3.33193 0
M  V30 18964 H 1880.03 -0.450026 4.76982 0
M  V30 18965 H 1878.39 -0.335406 2.52482 0
M  V30 18966 H 1879.18 1.18339 3.22259 0
M  V30 18967 N 1881.62 -1.57387 0.0818932 0
M  V30 18968 C 1882.53 -2.16804 -0.89629 0
M  V30 18969 C 1883.55 -1.1339 -1.3198 0
M  V30 18970 O 1884.72 -1.45702 -1.39042 0
M  V30 18971 C 1881.79 -2.72607 -2.14211 0
M  V30 18972 C 1880.85 -3.90929 -1.77406 0
M  V30 18973 C 1880.08 -4.44062 -2.96049 0
M  V30 18974 O 1880.31 -3.96166 -4.10376 0
M  V30 18975 O 1879.24 -5.35261 -2.75279 0
M  V30 18976 H 1883.07 -3.0077 -0.420827 0
M  V30 18977 H 1880.65 -1.48726 -0.141737 0
M  V30 18978 H 1882.53 -3.0833 -2.87247 0
M  V30 18979 H 1881.21 -1.91694 -2.60835 0
M  V30 18980 H 1880.11 -3.60042 -1.01591 0
M  V30 18981 H 1881.45 -4.73165 -1.35556 0
M  V30 18982 N 1883.1 0.191729 -1.56429 0
M  V30 18983 C 1884.05 1.24177 -1.91217 0
M  V30 18984 C 1885.03 1.40828 -0.778219 0
M  V30 18985 O 1886.23 1.43142 -1.04112 0
M  V30 18986 C 1883.35 2.58584 -2.25808 0
M  V30 18987 C 1882.44 2.45712 -3.45668 0
M  V30 18988 N 1882.83 2.02524 -4.63484 0
M  V30 18989 C 1881.13 2.76595 -3.49873 0
M  V30 18990 C 1881.83 2.01625 -5.45639 0
M  V30 18991 N 1880.81 2.43256 -4.86135 0
M  V30 18992 H 1884.61 0.899247 -2.79805 0
M  V30 18993 H 1882.12 0.400144 -1.57393 0
M  V30 18994 H 1884.12 3.34434 -2.48917 0
M  V30 18995 H 1882.78 2.93657 -1.38549 0
M  V30 18996 H 1883.79 1.7318 -4.88087 0
M  V30 18997 H 1880.47 3.15842 -2.73038 0
M  V30 18998 H 1881.86 1.70106 -6.5001 0
M  V30 18999 N 1884.58 1.50751 0.459565 0
M  V30 19000 C 1885.83 1.61995 1.20839 0
M  V30 19001 C 1886.15 0.327782 1.92225 0
M  V30 19002 O 1885.42 -0.655341 1.84613 0
M  V30 19003 H 1884 0.596972 0.449036 0
M  V30 19004 H 1886.66 1.87582 0.52906 0
M  V30 19005 H 1885.75 2.43678 1.95006 0
M  V30 19006 N 1886.06 -0.713531 1.40522 0
M  V30 19007 C 1887.28 -1.50766 1.42423 0
M  V30 19008 C 1887.71 -1.88082 0.0262417 0
M  V30 19009 O 1887.06 -1.5341 -0.966185 0
M  V30 19010 C 1887.11 -2.75813 2.32291 0
M  V30 19011 O 1886.22 -3.726 1.76758 0
M  V30 19012 H 1885.56 -0.454473 0.484098 0
M  V30 19013 H 1888.09 -0.878583 1.84776 0
M  V30 19014 H 1888.1 -3.2432 2.47549 0
M  V30 19015 H 1886.77 -2.47988 3.33878 0
M  V30 19016 H 1885.35 -3.31455 1.70857 0
M  V30 19017 N 1887.53 -1.26053 -0.945962 0
M  V30 19018 C 1888.78 -1.1148 -1.69411 0
M  V30 19019 C 1889.11 0.341927 -1.91166 0
M  V30 19020 O 1888.39 1.2515 -1.48888 0
M  V30 19021 C 1888.67 -1.87915 -3.07181 0
M  V30 19022 C 1888.52 -3.41466 -2.92781 0
M  V30 19023 C 1889.84 -1.66917 -4.07218 0
M  V30 19024 H 1886.96 -0.406361 -0.614849 0
M  V30 19025 H 1889.6 -1.54991 -1.099 0
M  V30 19026 H 1887.75 -1.50934 -3.57982 0
M  V30 19027 H 1889.43 -3.88172 -2.49238 0
M  V30 19028 H 1887.67 -3.68735 -2.2851 0
M  V30 19029 H 1888.34 -3.90171 -3.90475 0
M  V30 19030 H 1890.82 -1.99127 -3.6536 0
M  V30 19031 H 1889.69 -2.22821 -5.01639 0
M  V30 19032 H 1889.95 -0.612576 -4.37835 0
M  V30 19033 N 1889.01 1.14984 -1.07779 0
M  V30 19034 C 1890.24 1.89472 -0.823648 0
M  V30 19035 C 1890.65 1.78499 0.627275 0
M  V30 19036 O 1889.99 1.13767 1.44232 0
M  V30 19037 C 1890.05 3.40327 -1.15835 0
M  V30 19038 C 1889.72 3.75085 -2.61075 0
M  V30 19039 C 1890.72 3.75743 -3.59323 0
M  V30 19040 C 1888.4 4.05261 -2.96765 0
M  V30 19041 C 1890.39 4.06089 -4.91295 0
M  V30 19042 C 1888.08 4.3527 -4.28932 0
M  V30 19043 C 1889.08 4.35667 -5.26007 0
M  V30 19044 O 1888.77 4.64954 -6.558 0
M  V30 19045 H 1888.5 0.607205 -0.297115 0
M  V30 19046 H 1891.05 1.46589 -1.43878 0
M  V30 19047 H 1889.28 3.83631 -0.486199 0
M  V30 19048 H 1890.97 3.96111 -0.886048 0
M  V30 19049 H 1891.74 3.52525 -3.33093 0
M  V30 19050 H 1887.62 4.04109 -2.2185 0
M  V30 19051 H 1891.16 4.06313 -5.67059 0
M  V30 19052 H 1887.06 4.57957 -4.54913 0
M  V30 19053 H 1887.83 4.82699 -6.61017 0
M  V30 19054 N 1890.49 0.862526 1.31902 0
M  V30 19055 C 1891.4 0.316029 2.32462 0
M  V30 19056 C 1892.42 -0.570217 1.64391 0
M  V30 19057 O 1893.59 -0.46871 1.9587 0
M  V30 19058 C 1890.66 -0.479949 3.43362 0
M  V30 19059 C 1889.72 0.43337 4.27107 0
M  V30 19060 C 1888.95 -0.324714 5.32711 0
M  V30 19061 O 1889.17 -1.55373 5.48831 0
M  V30 19062 O 1888.11 0.313571 6.01083 0
M  V30 19063 H 1891.93 1.14935 2.81111 0
M  V30 19064 H 1889.52 0.625683 1.35667 0
M  V30 19065 H 1891.4 -0.931458 4.10977 0
M  V30 19066 H 1890.08 -1.28994 2.96888 0
M  V30 19067 H 1888.98 0.933222 3.62273 0
M  V30 19068 H 1890.32 1.20876 4.77127 0
M  V30 19069 N 1891.97 -1.4484 0.62123 0
M  V30 19070 C 1893.2 -2.06201 0.128374 0
M  V30 19071 C 1893.61 -1.46421 -1.19822 0
M  V30 19072 O 1892.95 -0.577812 -1.74376 0
M  V30 19073 C 1893.01 -3.59429 -0.0712601 0
M  V30 19074 C 1892.68 -4.41619 1.17564 0
M  V30 19075 C 1893.67 -4.75732 2.09703 0
M  V30 19076 C 1891.36 -4.82154 1.40828 0
M  V30 19077 C 1893.35 -5.49251 3.23423 0
M  V30 19078 C 1891.04 -5.55424 2.54848 0
M  V30 19079 C 1892.04 -5.88891 3.45972 0
M  V30 19080 O 1891.72 -6.60671 4.58006 0
M  V30 19081 H 1891.46 -0.672121 0.0723128 0
M  V30 19082 H 1894.01 -1.86857 0.852847 0
M  V30 19083 H 1892.24 -3.77225 -0.850773 0
M  V30 19084 H 1893.93 -4.02589 -0.517423 0
M  V30 19085 H 1894.7 -4.44963 1.92959 0
M  V30 19086 H 1890.57 -4.55532 0.707942 0
M  V30 19087 H 1894.12 -5.7529 3.94572 0
M  V30 19088 H 1890.02 -5.85608 2.71538 0
M  V30 19089 H 1890.78 -6.79132 4.56861 0
M  V30 19090 N 1893.45 -0.361184 -1.53405 0
M  V30 19091 C 1894.86 -0.00994785 -1.59597 0
M  V30 19092 C 1895.06 1.47156 -1.37649 0
M  V30 19093 O 1894.12 2.23259 -1.17947 0
M  V30 19094 C 1895.43 -0.461942 -2.97131 0
M  V30 19095 C 1896.98 -0.415787 -3.10226 0
M  V30 19096 C 1897.45 -0.843524 -4.50165 0
M  V30 19097 N 1898.95 -0.798408 -4.56267 0
M  V30 19098 C 1899.68 -1.10112 -5.62728 0
M  V30 19099 N 1899.18 -1.47288 -6.76962 0
M  V30 19100 N 1900.97 -1.0242 -5.5269 0
M  V30 19101 H 1893.12 -1.32601 -1.65924 0
M  V30 19102 H 1895.38 -0.541705 -0.777985 0
M  V30 19103 H 1895.09 -1.49559 -3.18316 0
M  V30 19104 H 1894.96 0.15373 -3.76887 0
M  V30 19105 H 1897.35 0.608719 -2.88754 0
M  V30 19106 H 1897.43 -1.0669 -2.32489 0
M  V30 19107 H 1897.08 -1.86612 -4.72375 0
M  V30 19108 H 1897.01 -0.16971 -5.26326 0
M  V30 19109 H 1899.5 -0.524463 -3.74243 0
M  V30 19110 H 1899.81 -1.68824 -7.54134 0
M  V30 19111 H 1898.15 -1.51149 -6.78365 0
M  V30 19112 H 1901.35 -0.732979 -4.62326 0
M  V30 19113 H 1901.52 -1.26344 -6.35564 0
M  V30 19114 N 1894.92 1.57341 -0.0902386 0
M  V30 19115 C 1896.34 1.57361 0.266413 0
M  V30 19116 C 1896.54 1.10104 1.68758 0
M  V30 19117 O 1895.6 0.775287 2.40303 0
M  V30 19118 C 1896.91 3.00642 0.0592661 0
M  V30 19119 C 1898.46 3.12741 0.127389 0
M  V30 19120 C 1898.93 4.57971 -0.0517042 0
M  V30 19121 N 1900.42 4.632 0.0032917 0
M  V30 19122 C 1901.16 5.73293 -0.110598 0
M  V30 19123 N 1900.65 6.92238 -0.279049 0
M  V30 19124 N 1902.45 5.62076 -0.0522147 0
M  V30 19125 H 1894.6 1.86369 -1.01884 0
M  V30 19126 H 1896.86 0.859996 -0.398886 0
M  V30 19127 H 1896.57 3.39396 -0.922117 0
M  V30 19128 H 1896.44 3.68539 0.80368 0
M  V30 19129 H 1898.83 2.73861 1.09927 0
M  V30 19130 H 1898.91 2.47445 -0.648435 0
M  V30 19131 H 1898.55 4.97544 -1.02043 0
M  V30 19132 H 1898.48 5.21321 0.743753 0
M  V30 19133 H 1900.97 3.77672 0.131145 0
M  V30 19134 H 1901.29 7.71972 -0.357596 0
M  V30 19135 H 1899.63 6.94287 -0.314653 0
M  V30 19136 H 1902.82 4.68035 0.0782189 0
M  V30 19137 H 1903 6.47839 -0.144423 0
M  V30 19138 N 1896.4 -0.183431 1.56529 0
M  V30 19139 C 1897.37 -1.21097 1.94597 0
M  V30 19140 C 1898.37 -1.37825 0.828305 0
M  V30 19141 O 1899.56 -1.35438 1.09555 0
M  V30 19142 C 1896.69 -2.57826 2.23021 0
M  V30 19143 H 1897.88 -0.885275 2.86536 0
M  V30 19144 H 1895.43 -0.425412 1.50399 0
M  V30 19145 H 1896.17 -2.95431 1.33758 0
M  V30 19146 H 1895.95 -2.47054 3.04478 0
M  V30 19147 H 1897.44 -3.31902 2.53437 0
M  V30 19148 N 1897.88 -1.50992 -0.451564 0
M  V30 19149 C 1898.81 -1.67453 -1.56499 0
M  V30 19150 C 1899.83 -0.555481 -1.5303 0
M  V30 19151 O 1901.01 -0.829335 -1.58064 0
M  V30 19152 C 1898.11 -1.66093 -2.95409 0
M  V30 19153 C 1897.29 -2.94351 -3.23537 0
M  V30 19154 C 1896.35 -2.8537 -4.42098 0
M  V30 19155 O 1895.37 -3.59323 -4.41447 0
M  V30 19156 N 1896.57 -2.0025 -5.44867 0
M  V30 19157 H 1899.34 -2.63499 -1.42788 0
M  V30 19158 H 1896.9 -1.48701 -0.640293 0
M  V30 19159 H 1898.89 -1.57672 -3.72722 0
M  V30 19160 H 1897.46 -0.777014 -3.02789 0
M  V30 19161 H 1896.68 -3.16751 -2.34654 0
M  V30 19162 H 1897.97 -3.79281 -3.39151 0
M  V30 19163 H 1897.37 -1.39517 -5.48226 0
M  V30 19164 H 1895.93 -1.97719 -6.21088 0
M  V30 19165 N 1899.36 0.706069 -1.40899 0
M  V30 19166 C 1900.27 1.85007 -1.44255 0
M  V30 19167 C 1901.28 1.70761 -0.334174 0
M  V30 19168 O 1902.46 1.9286 -0.580258 0
M  V30 19169 C 1899.53 3.20896 -1.31251 0
M  V30 19170 C 1898.59 3.47327 -2.52314 0
M  V30 19171 C 1897.82 4.76732 -2.39922 0
M  V30 19172 O 1898.04 5.5249 -1.41813 0
M  V30 19173 O 1896.98 5.03713 -3.2948 0
M  V30 19174 H 1900.8 1.85132 -2.40748 0
M  V30 19175 H 1898.39 0.857751 -1.22323 0
M  V30 19176 H 1900.27 4.02045 -1.26244 0
M  V30 19177 H 1898.94 3.21477 -0.378684 0
M  V30 19178 H 1897.85 2.66149 -2.62899 0
M  V30 19179 H 1899.18 3.5155 -3.4449 0
M  V30 19180 N 1900.84 1.26553 0.939264 0
M  V30 19181 C 1901.8 1.08335 2.01981 0
M  V30 19182 C 1902.8 0.0310501 1.6077 0
M  V30 19183 O 1903.99 0.274627 1.72022 0
M  V30 19184 C 1901.12 0.648208 3.34681 0
M  V30 19185 H 1902.31 2.04272 2.19574 0
M  V30 19186 H 1899.87 1.09177 1.11849 0
M  V30 19187 H 1900.6 -0.313074 3.22785 0
M  V30 19188 H 1900.39 1.40806 3.65946 0
M  V30 19189 H 1901.88 0.54264 4.14059 0
M  V30 19190 N 1902.31 -1.14411 1.08387 0
M  V30 19191 C 1903.56 -1.85719 0.814638 0
M  V30 19192 C 1903.89 -1.82715 -0.657934 0
M  V30 19193 O 1903.17 -1.2577 -1.48365 0
M  V30 19194 C 1903.45 -3.34363 1.33691 0
M  V30 19195 C 1903.3 -3.4594 2.87481 0
M  V30 19196 C 1904.62 -4.29457 0.962006 0
M  V30 19197 H 1901.74 -0.674332 0.297399 0
M  V30 19198 H 1904.38 -1.34354 1.34346 0
M  V30 19199 H 1902.53 -3.78237 0.887082 0
M  V30 19200 H 1904.21 -3.10854 3.40833 0
M  V30 19201 H 1902.45 -2.87158 3.25151 0
M  V30 19202 H 1903.12 -4.50423 3.19097 0
M  V30 19203 H 1905.6 -3.93599 1.34979 0
M  V30 19204 H 1904.47 -5.31922 1.35464 0
M  V30 19205 H 1904.73 -4.41906 -0.130987 0
M  V30 19206 O 1903.83 -1.0031 -1.26571 0
M  V30 19207 H 1904.52 -0.657208 -1.8221 0
M  V30 END ATOM
M  V30 BEGIN BOND
M  V30 END BOND
M  V30 END CTAB
M  END
$$$$
