drugbank_target|O14818 Proteasome subunit alpha type-7 (DB07558; DB08515)
 OpenBabel12092120433D

  0  0  0     0  0            999 V3000
M  V30 BEGIN CTAB
M  V30 COUNTS 3961 3987 0 0 0
M  V30 BEGIN ATOM
M  V30 1 H -0.908 1.98254 -0.117106 0
M  V30 2 N 0 1.576 0 0
M  V30 3 C 0.933 2.03868 1.02534 0
M  V30 4 C 1.911 0.928543 1.3348 0
M  V30 5 O 3.095 1.19667 1.45644 0
M  V30 6 C 0.222 2.43627 2.35294 0
M  V30 7 C -0.732 3.65373 2.2001 0
M  V30 8 S 0.101 5.13292 1.52614 0
M  V30 9 C 1.257 5.56322 2.86805 0
M  V30 10 H 1.49 2.90518 0.631377 0
M  V30 11 H -0.977 1.52953 0.210867 0
M  V30 12 H 0.981 2.67203 3.11629 0
M  V30 13 H -0.358 1.57376 2.7183 0
M  V30 14 H -1.165 3.90944 3.18086 0
M  V30 15 H -1.563 3.418 1.51819 0
M  V30 16 H 0.729 5.58782 3.83104 0
M  V30 17 H 1.672 6.56266 2.65933 0
M  V30 18 H 2.08 4.83886 2.90714 0
M  V30 19 N 1.4781 -0.272755 1.55222 0
M  V30 20 C 2.7031 -1.02683 1.80197 0
M  V30 21 C 3.1281 -1.79142 0.573551 0
M  V30 22 O 2.4861 -1.74917 -0.476849 0
M  V30 23 C 2.5341 -1.9609 3.02624 0
M  V30 24 O 1.6381 -3.04863 2.77727 0
M  V30 25 H 0.9791 -0.293557 0.595584 0
M  V30 26 H 3.5091 -0.30159 2.02365 0
M  V30 27 H 3.5191 -2.38039 3.31363 0
M  V30 28 H 2.1941 -1.39851 3.91682 0
M  V30 29 H 0.7711 -2.67228 2.60084 0
M  V30 30 N 2.9562 -1.48159 -0.537278 0
M  V30 31 C 4.1862 -1.59223 -1.3165 0
M  V30 32 C 4.5942 -0.248849 -1.87556 0
M  V30 33 O 3.9372 0.770949 -1.6674 0
M  V30 34 C 3.9992 -2.57365 -2.51005 0
M  V30 35 C 3.6632 -4.02603 -2.16239 0
M  V30 36 C 4.6602 -4.90503 -1.72344 0
M  V30 37 C 2.3452 -4.48088 -2.26986 0
M  V30 38 C 4.3392 -6.21913 -1.39651 0
M  V30 39 C 2.0262 -5.7952 -1.93906 0
M  V30 40 C 3.0242 -6.66255 -1.50309 0
M  V30 41 O 2.7122 -7.95243 -1.17659 0
M  V30 42 H 2.4442 -0.539831 -0.406889 0
M  V30 43 H 4.9982 -1.94655 -0.655641 0
M  V30 44 H 3.2282 -2.1704 -3.20048 0
M  V30 45 H 4.9172 -2.58342 -3.13072 0
M  V30 46 H 5.6832 -4.56604 -1.63517 0
M  V30 47 H 1.5622 -3.80769 -2.59877 0
M  V30 48 H 5.1062 -6.89569 -1.0555 0
M  V30 49 H 1.0032 -6.12957 -2.02371 0
M  V30 50 H 1.7712 -8.0793 -1.31119 0
M  V30 51 N 4.4343 0.785586 -1.36625 0
M  V30 52 C 5.7113 1.53198 -1.21613 0
M  V30 53 C 6.0913 2.10187 0.196113 0
M  V30 54 O 5.4393 1.94318 1.20219 0
M  V30 55 C 5.6493 2.62388 -2.30116 0
M  V30 56 C 6.9973 3.30167 -2.66974 0
M  V30 57 O 8.0213 2.72674 -2.29188 0
M  V30 58 O 6.8803 4.34077 -3.32023 0
M  V30 59 H 3.9743 0.677865 -0.473738 0
M  V30 60 H 6.5203 0.823739 -1.48367 0
M  V30 61 H 5.2923 2.18299 -3.24748 0
M  V30 62 H 4.9153 3.40827 -2.0475 0
M  V30 63 N 5.9124 1.20967 1.01018 0
M  V30 64 C 7.3284 0.965905 1.27053 0
M  V30 65 C 7.5284 -0.350785 1.98423 0
M  V30 66 O 6.5844 -1.07773 2.28344 0
M  V30 67 C 7.8974 2.15294 2.09926 0
M  V30 68 C 9.4454 2.19463 2.23171 0
M  V30 69 C 9.9204 3.3767 3.09424 0
M  V30 70 N 11.4114 3.37724 3.17012 0
M  V30 71 C 12.1464 4.25837 3.83993 0
M  V30 72 N 11.6424 5.24138 4.53047 0
M  V30 73 N 13.4354 4.1366 3.80581 0
M  V30 74 H 5.5864 2.0565 0.531194 0
M  V30 75 H 7.8494 0.90024 0.297106 0
M  V30 76 H 7.5554 3.10684 1.64828 0
M  V30 77 H 7.4294 2.13923 3.10672 0
M  V30 78 H 9.8164 1.24632 2.6749 0
M  V30 79 H 9.8974 2.2488 1.21912 0
M  V30 80 H 9.5414 4.32791 2.65808 0
M  V30 81 H 9.4714 3.29491 4.10784 0
M  V30 82 H 11.9624 2.6658 2.6785 0
M  V30 83 H 12.2754 5.87684 5.01844 0
M  V30 84 H 10.6204 5.28068 4.5185 0
M  V30 85 H 13.8114 3.36127 3.25785 0
M  V30 86 H 13.9844 4.82538 4.32505 0
M  V30 87 N 7.3905 -1.2043 1.01659 0
M  V30 88 C 8.3535 -2.21433 0.591616 0
M  V30 89 C 9.3535 -1.57203 -0.338226 0
M  V30 90 O 10.5435 -1.73737 -0.126918 0
M  V30 91 C 7.6755 -3.40628 -0.136058 0
M  V30 92 H 8.8685 -2.60545 1.48514 0
M  V30 93 H 6.4215 -1.33893 0.806379 0
M  V30 94 H 7.1565 -3.07019 -1.04449 0
M  V30 95 H 6.9415 -3.88475 0.531917 0
M  V30 96 H 8.4315 -4.15475 -0.420735 0
M  V30 97 N 8.8686 -0.792821 -1.36206 0
M  V30 98 C 10.1176 -0.363353 -1.984 0
M  V30 99 C 10.4306 1.07172 -1.63626 0
M  V30 100 O 11.6366 1.60362 -2.19081 0
M  V30 101 C 10.0926 -0.59872 -3.54885 0
M  V30 102 C 9.7006 -2.04543 -3.9858 0
M  V30 103 C 11.4446 -0.233926 -4.23855 0
M  V30 104 C 9.3516 -2.22727 -5.47856 0
M  V30 105 H 8.2816 -0.13212 -0.742334 0
M  V30 106 H 10.9326 -0.974935 -1.55458 0
M  V30 107 H 9.3146 0.0826222 -3.95914 0
M  V30 108 H 10.4886 -2.76345 -3.68741 0
M  V30 109 H 8.8036 -2.36879 -3.42458 0
M  V30 110 H 11.4006 -0.348027 -5.33566 0
M  V30 111 H 11.7436 0.818351 -4.08177 0
M  V30 112 H 12.2766 -0.868639 -3.882 0
M  V30 113 H 9.0156 -3.2635 -5.68486 0
M  V30 114 H 8.5356 -1.55434 -5.7931 0
M  V30 115 H 10.2146 -2.03607 -6.14128 0
M  V30 116 N 10.3467 1.47872 -0.545128 0
M  V30 117 C 11.5747 2.06889 -0.021084 0
M  V30 118 C 11.9897 1.39955 1.2672 0
M  V30 119 O 11.3467 0.492036 1.75742 0
M  V30 120 C 11.3977 3.60996 0.190817 0
M  V30 121 O 11.1187 4.25419 -1.04644 0
M  V30 122 C 12.6197 4.36849 0.753521 0
M  V30 123 H 9.8397 0.669785 -0.0403635 0
M  V30 124 H 12.3837 1.90049 -0.755095 0
M  V30 125 H 10.5387 3.77391 0.87492 0
M  V30 126 H 10.9527 5.17785 -0.836611 0
M  V30 127 H 12.4267 5.45399 0.851139 0
M  V30 128 H 12.9037 4.02306 1.762 0
M  V30 129 H 13.5097 4.25169 0.105503 0
M  V30 130 N 11.8248 0.280983 1.55075 0
M  V30 131 C 13.0708 -0.33461 2.00021 0
M  V30 132 C 13.4038 -1.55063 1.16915 0
M  V30 133 O 12.6788 -1.93006 0.240646 0
M  V30 134 C 12.9618 -0.711007 3.53011 0
M  V30 135 C 12.8148 0.512766 4.46868 0
M  V30 136 C 14.1338 -1.54522 4.12081 0
M  V30 137 H 11.2528 -0.120147 0.727141 0
M  V30 138 H 13.8948 0.389097 1.85973 0
M  V30 139 H 12.0448 -1.32761 3.65112 0
M  V30 140 H 13.7168 1.15131 4.46702 0
M  V30 141 H 11.9598 1.14975 4.18286 0
M  V30 142 H 12.6308 0.205556 5.51617 0
M  V30 143 H 15.1068 -1.02442 4.03293 0
M  V30 144 H 13.9828 -1.77739 5.19327 0
M  V30 145 H 14.2438 -2.52813 3.62682 0
M  V30 146 N 13.3029 -1.57598 0.00835791 0
M  V30 147 C 14.5499 -1.90928 -0.674732 0
M  V30 148 C 14.8779 -0.88277 -1.73313 0
M  V30 149 O 14.1329 0.111294 -1.95383 0
M  V30 150 C 14.4319 -3.3101 -1.34787 0
M  V30 151 C 14.0979 -4.48922 -0.421861 0
M  V30 152 C 12.7599 -4.8091 -0.166927 0
M  V30 153 C 15.1119 -5.20755 0.215211 0
M  V30 154 C 12.4399 -5.821 0.733232 0
M  V30 155 C 14.7919 -6.22905 1.1033 0
M  V30 156 C 13.4559 -6.53346 1.36733 0
M  V30 157 H 12.7259 -0.698656 -0.246902 0
M  V30 158 H 15.3729 -1.91387 0.0656779 0
M  V30 159 H 13.6779 -3.26714 -2.16253 0
M  V30 160 H 15.3749 -3.54061 -1.8826 0
M  V30 161 H 11.9649 -4.23934 -0.630729 0
M  V30 162 H 16.1489 -4.9629 0.0312829 0
M  V30 163 H 11.4049 -6.04042 0.945712 0
M  V30 164 H 15.5789 -6.77694 1.60325 0
M  V30 165 H 13.2059 -7.31573 2.06652 0
M  V30 166 N 14.781 0.264519 -1.55364 0
M  V30 167 C 16.006 1.01726 -1.80739 0
M  V30 168 C 16.431 1.78836 -0.583044 0
M  V30 169 O 15.789 1.75167 0.467566 0
M  V30 170 C 15.837 1.94482 -3.03659 0
M  V30 171 O 14.941 3.03386 -2.7934 0
M  V30 172 H 14.282 0.290395 -0.597132 0
M  V30 173 H 16.812 0.290854 -2.02522 0
M  V30 174 H 16.822 2.36278 -3.32621 0
M  V30 175 H 15.497 1.37772 -3.92418 0
M  V30 176 H 14.074 2.65844 -2.61498 0
M  V30 177 N 16.2591 1.48442 0.529413 0
M  V30 178 C 17.6701 1.5002 1.11134 0
M  V30 179 C 18.0211 0.27031 1.94329 0
M  V30 180 O 17.1461 -0.622507 2.07253 0
M  V30 181 C 17.7411 2.71834 2.02217 0
M  V30 182 C 16.3001 2.76283 2.55627 0
M  V30 183 C 15.4471 2.43542 1.326 0
M  V30 184 H 18.3981 1.5555 0.314641 0
M  V30 185 H 18.4191 2.50384 2.8651 0
M  V30 186 H 17.9311 3.61331 1.41639 0
M  V30 187 H 16.0321 1.90995 3.19924 0
M  V30 188 H 16.1451 3.77725 2.94721 0
M  V30 189 H 14.5091 1.94709 1.64196 0
M  V30 190 H 15.2921 3.3528 0.737734 0
M  V30 191 N 17.7372 -0.778329 1.37039 0
M  V30 192 C 19.0142 -1.52551 1.22424 0
M  V30 193 C 19.3942 -2.10288 -0.184964 0
M  V30 194 O 18.7422 -1.94953 -1.19187 0
M  V30 195 C 18.9522 -2.61164 2.31504 0
M  V30 196 C 20.3002 -3.28746 2.68721 0
M  V30 197 O 21.3242 -2.71455 2.30631 0
M  V30 198 O 20.1832 -4.3231 3.3432 0
M  V30 199 H 17.2772 -0.675343 0.477326 0
M  V30 200 H 19.8232 -0.815859 1.48801 0
M  V30 201 H 18.5952 -2.16574 3.25901 0
M  V30 202 H 18.2182 -3.39737 2.06554 0
M  V30 203 N 19.2153 -1.21501 -1.00376 0
M  V30 204 C 20.4633 -1.03095 -1.73827 0
M  V30 205 C 20.7843 0.436341 -1.90055 0
M  V30 206 O 20.0543 1.31466 -1.45236 0
M  V30 207 H 18.6343 -0.378487 -0.644016 0
M  V30 208 H 21.2963 -1.52831 -1.20949 0
M  V30 209 H 20.3923 -1.49991 -2.73695 0
M  V30 210 N 20.6934 1.19889 -1.02296 0
M  V30 211 C 21.6434 2.20777 -0.56934 0
M  V30 212 C 22.6274 1.56379 0.378741 0
M  V30 213 O 23.8194 1.75859 0.200673 0
M  V30 214 C 20.9484 3.43196 0.0845077 0
M  V30 215 C 20.0344 4.14749 -0.88566 0
M  V30 216 N 20.4254 4.62584 -2.04573 0
M  V30 217 C 18.7234 4.40347 -0.707835 0
M  V30 218 C 19.4244 5.17466 -2.65714 0
M  V30 219 N 18.4004 5.0791 -1.93723 0
M  V30 220 H 22.2024 2.55434 -1.45365 0
M  V30 221 H 19.7164 1.35897 -0.88915 0
M  V30 222 H 21.7134 4.14707 0.427067 0
M  V30 223 H 20.3734 3.10042 0.964574 0
M  V30 224 H 21.3844 4.57597 -2.4254 0
M  V30 225 H 18.0614 4.17317 0.12364 0
M  V30 226 H 19.4514 5.64808 -3.63925 0
M  V30 227 N 22.1715 0.800033 1.35784 0
M  V30 228 C 23.1015 0.220184 2.3246 0
M  V30 229 C 24.0825 -0.65073 1.57161 0
M  V30 230 O 25.2675 -0.582359 1.85263 0
M  V30 231 C 22.3975 -0.637353 3.41402 0
M  V30 232 C 21.3515 0.134531 4.27789 0
M  V30 233 C 20.6775 -0.844285 5.27992 0
M  V30 234 C 21.9775 1.32979 5.05088 0
M  V30 235 H 23.6715 1.02787 2.81203 0
M  V30 236 H 21.2175 0.495717 1.35199 0
M  V30 237 H 23.1705 -1.05302 4.08031 0
M  V30 238 H 21.8945 -1.47785 2.91251 0
M  V30 239 H 20.5535 0.531296 3.6273 0
M  V30 240 H 20.2015 -1.68011 4.74111 0
M  V30 241 H 19.9015 -0.332184 5.8666 0
M  V30 242 H 21.4255 -1.2583 5.97494 0
M  V30 243 H 22.8395 0.98934 5.64699 0
M  V30 244 H 21.2365 1.77593 5.7322 0
M  V30 245 H 22.3065 2.11978 4.36111 0
M  V30 246 N 23.6496 -1.47581 0.552962 0
M  V30 247 C 24.8966 -2.02482 0.0273243 0
M  V30 248 C 25.2246 -1.42776 -1.32081 0
M  V30 249 O 24.4796 -0.571393 -1.87173 0
M  V30 250 C 24.7786 -3.57199 -0.119728 0
M  V30 251 C 24.4446 -4.35804 1.15697 0
M  V30 252 C 23.1066 -4.57 1.50681 0
M  V30 253 C 25.4586 -4.81167 2.00319 0
M  V30 254 C 22.7866 -5.20807 2.70142 0
M  V30 255 C 25.1386 -5.46293 3.18978 0
M  V30 256 C 23.8026 -5.65722 3.54281 0
M  V30 257 H 23.0726 -0.740933 0.00999866 0
M  V30 258 H 25.7196 -1.77302 0.72362 0
M  V30 259 H 24.0246 -3.81348 -0.89896 0
M  V30 260 H 25.7216 -3.97324 -0.541718 0
M  V30 261 H 22.3116 -4.19582 0.874561 0
M  V30 262 H 26.4956 -4.64574 1.74599 0
M  V30 263 H 21.7516 -5.34045 2.97668 0
M  V30 264 H 25.9256 -5.80407 3.84838 0
M  V30 265 H 23.5526 -6.14936 4.46942 0
M  V30 266 N 25.1277 -0.289203 -1.54924 0
M  V30 267 C 26.0597 0.625583 -2.20497 0
M  V30 268 C 27.0727 1.10667 -1.19402 0
M  V30 269 O 28.2617 1.02615 -1.46056 0
M  V30 270 C 25.3617 1.86702 -2.82835 0
M  V30 271 C 24.5347 1.5304 -4.09753 0
M  V30 272 C 23.5937 2.62576 -4.56005 0
M  V30 273 O 22.6197 2.28167 -5.21468 0
M  V30 274 N 23.8217 3.92901 -4.27328 0
M  V30 275 H 26.5867 0.0642801 -2.99631 0
M  V30 276 H 24.1477 -0.110896 -1.6152 0
M  V30 277 H 26.1397 2.59304 -3.10715 0
M  V30 278 H 24.7097 2.33702 -2.07611 0
M  V30 279 H 23.9297 0.637564 -3.8901 0
M  V30 280 H 25.2177 1.28072 -4.92418 0
M  V30 281 H 24.6157 4.23671 -3.74859 0
M  V30 282 H 23.1727 4.61837 -4.59946 0
M  V30 283 N 26.6058 1.57591 -0.0167156 0
M  V30 284 C 27.8518 1.91567 0.665582 0
M  V30 285 C 28.1848 0.892298 1.72487 0
M  V30 286 O 27.4598 -0.0867127 1.94307 0
M  V30 287 C 27.7428 3.36069 1.29342 0
M  V30 288 C 27.5958 4.49135 0.244541 0
M  V30 289 C 28.9148 3.803 2.21495 0
M  V30 290 H 26.0338 0.69666 0.240488 0
M  V30 291 H 28.6758 1.89866 -0.0714356 0
M  V30 292 H 26.8258 3.3765 1.92158 0
M  V30 293 H 28.4978 4.59689 -0.385228 0
M  V30 294 H 26.7408 4.3165 -0.431379 0
M  V30 295 H 27.4118 5.47242 0.723207 0
M  V30 296 H 29.8878 3.80377 1.68678 0
M  V30 297 H 28.7638 4.82127 2.62382 0
M  V30 298 H 29.0248 3.15104 3.101 0
M  V30 299 N 28.0839 -0.256276 1.55502 0
M  V30 300 C 28.9939 -1.33882 1.92647 0
M  V30 301 C 30.0099 -1.53159 0.825727 0
M  V30 302 O 31.1859 -1.66963 1.12629 0
M  V30 303 C 28.2509 -2.6751 2.20543 0
M  V30 304 C 27.3119 -2.56836 3.43997 0
M  V30 305 C 26.5449 -3.84092 3.70553 0
M  V30 306 O 26.7679 -4.85545 2.99336 0
M  V30 307 O 25.7019 -3.83288 4.64084 0
M  V30 308 H 29.5279 -1.05374 2.84833 0
M  V30 309 H 27.1129 -0.456237 1.42263 0
M  V30 310 H 28.9949 -3.46492 2.39835 0
M  V30 311 H 27.6699 -2.9577 1.31536 0
M  V30 312 H 26.5769 -1.76172 3.30021 0
M  V30 313 H 27.9099 -2.33523 4.33275 0
M  V30 314 N 29.562 -1.4872 -0.521534 0
M  V30 315 C 30.792 -1.6061 -1.29954 0
M  V30 316 C 31.2 -0.268728 -1.87282 0
M  V30 317 O 30.543 0.753221 -1.67548 0
M  V30 318 C 30.605 -2.60013 -2.48261 0
M  V30 319 C 30.269 -4.04874 -2.11957 0
M  V30 320 C 31.266 -4.92304 -1.67132 0
M  V30 321 C 28.951 -4.5047 -2.22221 0
M  V30 322 C 30.945 -6.2336 -1.33047 0
M  V30 323 C 28.632 -5.81544 -1.87748 0
M  V30 324 C 29.63 -6.67812 -1.43234 0
M  V30 325 O 29.318 -7.96446 -1.09217 0
M  V30 326 H 29.05 -0.544116 -0.401141 0
M  V30 327 H 31.604 -1.95339 -0.634958 0
M  V30 328 H 29.834 -2.20422 -3.17728 0
M  V30 329 H 31.523 -2.61648 -3.10315 0
M  V30 330 H 32.289 -4.58312 -1.58665 0
M  V30 331 H 28.168 -3.83504 -2.55823 0
M  V30 332 H 31.712 -6.90649 -0.982299 0
M  V30 333 H 27.609 -6.15069 -1.95858 0
M  V30 334 H 28.377 -8.09275 -1.22542 0
M  V30 335 N 31.0401 0.771051 -1.3745 0
M  V30 336 C 32.0031 1.86598 -1.33093 0
M  V30 337 C 33.0031 1.59076 -0.234845 0
M  V30 338 O 34.1931 1.67145 -0.490732 0
M  V30 339 C 31.3251 3.23747 -1.06773 0
M  V30 340 H 32.5181 1.91873 -2.30488 0
M  V30 341 H 30.0711 0.970876 -1.2249 0
M  V30 342 H 30.8061 3.24148 -0.099129 0
M  V30 343 H 30.5911 3.45115 -1.86112 0
M  V30 344 H 32.0811 4.03824 -1.06377 0
M  V30 345 N 32.5182 1.22032 0.997298 0
M  V30 346 C 33.4502 0.944263 2.08845 0
M  V30 347 C 34.4632 -0.0754663 1.62625 0
M  V30 348 O 35.6522 0.157994 1.77799 0
M  V30 349 C 32.7522 0.397723 3.36558 0
M  V30 350 C 31.9252 1.47362 4.11829 0
M  V30 351 C 30.9842 0.934951 5.17827 0
M  V30 352 O 30.0102 1.62016 5.45655 0
M  V30 353 N 31.2122 -0.245895 5.79979 0
M  V30 354 H 33.9772 1.88363 2.33109 0
M  V30 355 H 31.5382 1.12661 1.16272 0
M  V30 356 H 33.5302 0.0227771 4.04694 0
M  V30 357 H 32.1002 -0.446646 3.09393 0
M  V30 358 H 31.3202 2.02208 3.38386 0
M  V30 359 H 32.6082 2.19764 4.58891 0
M  V30 360 H 32.0062 -0.819475 5.59733 0
M  V30 361 H 30.5632 -0.562272 6.4937 0
M  V30 362 N 33.9963 -1.19345 1.0293 0
M  V30 363 C 34.9063 -2.26245 0.620515 0
M  V30 364 C 35.9223 -1.70486 -0.347928 0
M  V30 365 O 37.0983 -2.00347 -0.205704 0
M  V30 366 C 34.1633 -3.46693 -0.0218957 0
M  V30 367 C 33.2243 -4.17632 0.994102 0
M  V30 368 C 32.4573 -5.32329 0.382253 0
M  V30 369 O 32.6803 -5.64552 -0.814676 0
M  V30 370 O 31.6143 -5.91664 1.10531 0
M  V30 371 H 35.4403 -2.63453 1.51083 0
M  V30 372 H 33.0253 -1.26207 0.799513 0
M  V30 373 H 34.9073 -4.19683 -0.380072 0
M  V30 374 H 33.5823 -3.11333 -0.886209 0
M  V30 375 H 32.4893 -3.4676 1.40387 0
M  V30 376 H 33.8223 -4.56964 1.8288 0
M  V30 377 N 35.4744 -0.807222 -1.35358 0
M  V30 378 C 36.4374 -0.223665 -2.28106 0
M  V30 379 C 37.4374 0.589354 -1.4961 0
M  V30 380 O 38.6274 0.407745 -1.69361 0
M  V30 381 C 35.7594 0.688149 -3.33882 0
M  V30 382 H 36.9524 -1.04169 -2.81227 0
M  V30 383 H 34.5054 -0.577921 -1.45223 0
M  V30 384 H 35.2404 1.52984 -2.85948 0
M  V30 385 H 35.0254 0.10687 -3.91954 0
M  V30 386 H 36.5154 1.09075 -4.03104 0
M  V30 387 N 36.9525 1.47285 -0.560781 0
M  V30 388 C 38.1985 2.02764 -0.0381184 0
M  V30 389 C 38.5315 1.43384 1.30976 0
M  V30 390 O 37.8065 0.590733 1.85312 0
M  V30 391 C 38.0895 3.60064 0.0511427 0
M  V30 392 C 37.9425 4.2987 -1.32408 0
M  V30 393 C 39.2615 4.33439 0.762795 0
M  V30 394 H 36.3805 0.736841 -0.0153264 0
M  V30 395 H 39.0225 1.75675 -0.723759 0
M  V30 396 H 37.1725 3.83274 0.635065 0
M  V30 397 H 38.8445 4.17989 -1.95148 0
M  V30 398 H 37.0875 3.90085 -1.8978 0
M  V30 399 H 37.7585 5.38478 -1.21431 0
M  V30 400 H 40.2345 4.15243 0.266965 0
M  V30 401 H 39.1105 5.43124 0.794221 0
M  V30 402 H 39.3715 4.02915 1.81966 0
M  V30 403 N 38.4306 0.297415 1.54768 0
M  V30 404 C 39.3776 -0.580276 2.23386 0
M  V30 405 C 40.3476 -1.13238 1.21517 0
M  V30 406 O 41.5326 -1.17757 1.50126 0
M  V30 407 C 38.6726 -1.74801 2.97555 0
M  V30 408 C 37.7856 -1.22764 4.1419 0
M  V30 409 C 36.9206 -2.35895 4.75949 0
M  V30 410 C 35.9596 -1.80974 5.84735 0
M  V30 411 N 35.0966 -2.87664 6.40464 0
M  V30 412 H 39.9366 0.0114833 2.97998 0
M  V30 413 H 37.4736 0.0174361 1.4709 0
M  V30 414 H 39.4316 -2.43475 3.38786 0
M  V30 415 H 38.0616 -2.31145 2.25326 0
M  V30 416 H 37.1136 -0.433271 3.77924 0
M  V30 417 H 38.4256 -0.785551 4.92575 0
M  V30 418 H 37.5796 -3.12523 5.20014 0
M  V30 419 H 36.3186 -2.83429 3.96887 0
M  V30 420 H 35.3236 -1.02834 5.40097 0
M  V30 421 H 36.5486 -1.34348 6.65678 0
M  V30 422 H 34.4946 -3.34538 5.64287 0
M  V30 423 H 34.4116 -2.4794 7.14186 0
M  V30 424 H 35.6796 -3.642 6.89187 0
M  V30 425 N 39.9087 -1.5758 0.0250728 0
M  V30 426 C 40.8557 -2.09973 -0.958129 0
M  V30 427 C 41.8257 -1.00085 -1.3256 0
M  V30 428 O 43.0107 -1.27481 -1.41962 0
M  V30 429 C 40.1507 -2.62812 -2.2366 0
M  V30 430 C 39.2637 -3.86693 -1.92594 0
M  V30 431 C 38.3987 -4.27941 -3.14707 0
M  V30 432 C 37.4377 -5.44591 -2.79442 0
M  V30 433 N 36.5747 -5.81014 -3.94167 0
M  V30 434 H 41.4147 -2.937 -0.504428 0
M  V30 435 H 38.9517 -1.45172 -0.237392 0
M  V30 436 H 40.9097 -2.91536 -2.98434 0
M  V30 437 H 39.5397 -1.81922 -2.66654 0
M  V30 438 H 38.5917 -3.64723 -1.0808 0
M  V30 439 H 39.9037 -4.71547 -1.62619 0
M  V30 440 H 39.0577 -4.58079 -3.97804 0
M  V30 441 H 37.7967 -3.41845 -3.4784 0
M  V30 442 H 36.8017 -5.1415 -1.94755 0
M  V30 443 H 38.0267 -6.32382 -2.47528 0
M  V30 444 H 35.9727 -4.97874 -4.2715 0
M  V30 445 H 35.8897 -6.60498 -3.67801 0
M  V30 446 H 37.1577 -6.15756 -4.7798 0
M  V30 447 N 41.3868 0.248026 -1.55636 0
M  V30 448 C 42.6348 0.974295 -1.77065 0
M  V30 449 C 42.9558 1.85897 -0.588849 0
M  V30 450 O 42.2258 1.91868 0.395407 0
M  V30 451 H 40.8058 0.362733 -0.653019 0
M  V30 452 H 43.4678 0.266244 -1.93073 0
M  V30 453 H 42.5638 1.59667 -2.68166 0
M  V30 454 N 42.8649 1.48995 0.513639 0
M  V30 455 C 44.0899 1.61792 1.29762 0
M  V30 456 C 44.5149 0.284475 1.85936 0
M  V30 457 O 43.8729 -0.746185 1.65232 0
M  V30 458 C 43.9209 2.67993 2.41272 0
M  V30 459 O 43.0249 2.26287 3.44772 0
M  V30 460 H 42.3659 0.541963 0.38363 0
M  V30 461 H 44.8959 1.95097 0.616307 0
M  V30 462 H 44.9059 2.89772 2.87221 0
M  V30 463 H 43.5809 3.64791 1.9975 0
M  V30 464 H 42.1579 2.14788 3.04829 0
M  V30 465 N 44.343 -0.763751 1.37857 0
M  V30 466 C 45.571 -1.55293 1.36718 0
M  V30 467 C 45.986 -1.88745 -0.0455434 0
M  V30 468 O 45.343 -1.52039 -1.00947 0
M  V30 469 C 45.394 -2.85831 2.2132 0
M  V30 470 O 45.115 -2.5381 3.57089 0
M  V30 471 C 46.616 -3.80023 2.28249 0
M  V30 472 H 43.836 -0.480841 0.468009 0
M  V30 473 H 46.38 -0.946009 1.81303 0
M  V30 474 H 44.535 -3.42926 1.80223 0
M  V30 475 H 44.949 -3.37459 4.01524 0
M  V30 476 H 46.423 -4.68599 2.91752 0
M  V30 477 H 46.9 -4.1973 1.2932 0
M  V30 478 H 47.506 -3.28855 2.69693 0
M  V30 479 N 45.8211 -1.22559 -0.990812 0
M  V30 480 C 46.7841 -0.998863 -2.0629 0
M  V30 481 C 47.7841 0.0354834 -1.60761 0
M  V30 482 O 48.9741 -0.203231 -1.7301 0
M  V30 483 C 46.1061 -0.509203 -3.37076 0
M  V30 484 H 47.2991 -1.95014 -2.27837 0
M  V30 485 H 44.8521 -1.04456 -1.16269 0
M  V30 486 H 45.5871 0.446335 -3.21214 0
M  V30 487 H 45.3721 -1.25547 -3.71457 0
M  V30 488 H 46.8621 -0.370888 -4.1595 0
M  V30 489 N 47.2992 1.18797 -1.03562 0
M  V30 490 C 48.5452 1.8893 -0.737113 0
M  V30 491 C 48.8782 1.79837 0.732956 0
M  V30 492 O 48.1532 1.19525 1.5344 0
M  V30 493 C 48.4362 3.39607 -1.19745 0
M  V30 494 C 48.2892 3.57537 -2.72924 0
M  V30 495 C 49.6082 4.33069 -0.783526 0
M  V30 496 H 46.7272 0.686057 -0.269249 0
M  V30 497 H 49.3692 1.39797 -1.28673 0
M  V30 498 H 47.5192 3.81583 -0.729855 0
M  V30 499 H 49.1912 3.24688 -3.27682 0
M  V30 500 H 47.4342 3.00363 -3.12993 0
M  V30 501 H 48.1052 4.63238 -3.00191 0
M  V30 502 H 50.5812 3.98846 -1.18581 0
M  V30 503 H 49.4572 5.3707 -1.13343 0
M  V30 504 H 49.7182 4.40986 0.313681 0
M  V30 505 N 48.7773 0.814389 1.34928 0
M  V30 506 C 50.0253 0.397636 1.9815 0
M  V30 507 C 50.3463 -1.04069 1.64908 0
M  V30 508 O 49.6163 -1.72121 0.93548 0
M  V30 509 H 48.1963 0.144043 0.732981 0
M  V30 510 H 50.8583 1.04195 1.6471 0
M  V30 511 H 49.9543 0.509688 3.0791 0
M  V30 512 N 50.2554 -1.46986 0.568584 0
M  V30 513 C 51.5014 -2.02741 0.0488709 0
M  V30 514 C 51.8344 -1.44077 -1.30214 0
M  V30 515 O 51.1094 -0.600552 -1.84996 0
M  V30 516 C 51.3924 -3.60086 -0.032047 0
M  V30 517 C 51.2454 -4.29162 1.34686 0
M  V30 518 C 52.5644 -4.33838 -0.739798 0
M  V30 519 H 49.6834 -0.736749 0.0192338 0
M  V30 520 H 52.3254 -1.75289 0.733065 0
M  V30 521 H 50.4754 -3.83606 -0.61473 0
M  V30 522 H 52.1474 -4.16948 1.97362 0
M  V30 523 H 50.3904 -3.89073 1.91846 0
M  V30 524 H 51.0614 -5.37826 1.24285 0
M  V30 525 H 53.5374 -4.15378 -0.244939 0
M  V30 526 H 52.4134 -5.43537 -0.765406 0
M  V30 527 H 52.6744 -4.03875 -1.79827 0
M  V30 528 N 51.7335 -0.305618 -1.54608 0
M  V30 529 C 53.1495 0.0476228 -1.59529 0
M  V30 530 C 53.3495 1.52025 -1.32252 0
M  V30 531 O 52.4055 2.27368 -1.09818 0
M  V30 532 C 53.7185 -0.354471 -2.98603 0
M  V30 533 C 55.2665 -0.303622 -3.11524 0
M  V30 534 C 55.7415 -0.680608 -4.52915 0
M  V30 535 N 57.2325 -0.63332 -4.5885 0
M  V30 536 C 57.9675 -0.897432 -5.66334 0
M  V30 537 N 57.4635 -1.22775 -6.81834 0
M  V30 538 N 59.2565 -0.824186 -5.56025 0
M  V30 539 H 51.4075 -1.2653 -1.70599 0
M  V30 540 H 53.6705 -0.513291 -0.797017 0
M  V30 541 H 53.3765 -1.3798 -3.23503 0
M  V30 542 H 53.2505 0.289568 -3.76087 0
M  V30 543 H 55.6375 0.712472 -2.8637 0
M  V30 544 H 55.7185 -0.982348 -2.36185 0
M  V30 545 H 55.3625 -1.69453 -4.78799 0
M  V30 546 H 55.2925 0.0202385 -5.26596 0
M  V30 547 H 57.7835 -0.389138 -3.75891 0
M  V30 548 H 58.0965 -1.41513 -7.59733 0
M  V30 549 H 56.4415 -1.26583 -6.83375 0
M  V30 550 H 59.6325 -0.565748 -4.64669 0
M  V30 551 H 59.8055 -1.03338 -6.39707 0
M  V30 552 N 53.2116 1.57565 -0.0334293 0
M  V30 553 C 54.4596 1.91598 0.642999 0
M  V30 554 C 54.7806 0.910847 1.7242 0
M  V30 555 O 54.0506 -0.0469931 1.95844 0
M  V30 556 H 52.6306 0.707228 0.240496 0
M  V30 557 H 55.2926 1.94726 -0.0822488 0
M  V30 558 H 54.3886 2.92336 1.09298 0
M  V30 559 N 54.6897 -0.239769 1.55765 0
M  V30 560 C 56.1057 -0.588624 1.48349 0
M  V30 561 C 56.3057 -1.88005 0.72502 0
M  V30 562 O 55.3617 -2.51186 0.257269 0
M  V30 563 C 56.6747 -0.68474 2.928 0
M  V30 564 C 58.2227 -0.77659 3.03213 0
M  V30 565 C 58.6977 -0.904207 4.48986 0
M  V30 566 N 60.1887 -0.968896 4.52953 0
M  V30 567 C 60.9237 -1.08703 5.63002 0
M  V30 568 N 60.4197 -1.17026 6.82845 0
M  V30 569 N 62.2127 -1.12074 5.50814 0
M  V30 570 H 54.3637 0.607911 2.03515 0
M  V30 571 H 56.6267 0.21083 0.924259 0
M  V30 572 H 56.3327 0.194284 3.51163 0
M  V30 573 H 56.2067 -1.55435 3.43686 0
M  V30 574 H 58.5937 -1.64606 2.44926 0
M  V30 575 H 58.6747 0.118315 2.55526 0
M  V30 576 H 58.3187 -0.0392633 5.07885 0
M  V30 577 H 58.2487 -1.81426 4.9436 0
M  V30 578 H 60.7397 -0.915633 3.6664 0
M  V30 579 H 61.0527 -1.25966 7.62465 0
M  V30 580 H 59.3977 -1.13971 6.85591 0
M  V30 581 H 62.5887 -1.05226 4.5612 0
M  V30 582 H 62.7617 -1.20936 6.36615 0
M  V30 583 N 56.1678 -1.49265 -0.50573 0
M  V30 584 C 57.4448 -1.49012 -1.26707 0
M  V30 585 C 57.8248 -0.215205 -2.1 0
M  V30 586 O 57.1728 0.802547 -2.13943 0
M  V30 587 C 57.3828 -2.7663 -2.12783 0
M  V30 588 C 58.7308 -3.25932 -2.72127 0
M  V30 589 O 59.7548 -2.77715 -2.23054 0
M  V30 590 O 58.6138 -4.09897 -3.61451 0
M  V30 591 H 55.7078 -0.596197 -0.57313 0
M  V30 592 H 58.2538 -1.61524 -0.52039 0
M  V30 593 H 57.0258 -3.60916 -1.5118 0
M  V30 594 H 56.6488 -2.66956 -2.94653 0
M  V30 595 N 57.6459 0.756429 -1.3826 0
M  V30 596 C 58.8949 1.51082 -1.3363 0
M  V30 597 C 59.2079 1.95467 0.0720068 0
M  V30 598 O 60.4139 2.7043 0.240834 0
M  V30 599 C 58.8699 2.72893 -2.34644 0
M  V30 600 C 58.4779 2.35544 -3.81081 0
M  V30 601 C 60.2219 3.50791 -2.39052 0
M  V30 602 C 58.1289 3.53948 -4.73787 0
M  V30 603 H 57.0589 0.56727 -0.49671 0
M  V30 604 H 59.7099 0.827147 -1.638 0
M  V30 605 H 58.0919 3.43227 -1.97513 0
M  V30 606 H 59.2659 1.72894 -4.27135 0
M  V30 607 H 57.5809 1.70786 -3.79764 0
M  V30 608 H 60.1779 4.38823 -3.05513 0
M  V30 609 H 60.5209 3.91745 -1.40861 0
M  V30 610 H 61.0539 2.87467 -2.74968 0
M  V30 611 H 57.7929 3.18064 -5.73163 0
M  V30 612 H 57.3129 4.15651 -4.32428 0
M  V30 613 H 58.9919 4.20566 -4.91663 0
M  V30 614 N 59.124 1.23083 0.984299 0
M  V30 615 C 60.37 1.06214 1.72761 0
M  V30 616 C 60.703 -0.400584 1.90024 0
M  V30 617 O 59.978 -1.29672 1.44967 0
M  V30 618 C 60.261 1.78375 3.12817 0
M  V30 619 C 60.114 3.32296 3.03149 0
M  V30 620 C 61.433 1.54309 4.12161 0
M  V30 621 H 58.552 0.387251 0.627061 0
M  V30 622 H 61.194 1.51536 1.14616 0
M  V30 623 H 59.344 1.39848 3.62457 0
M  V30 624 H 61.016 3.8032 2.61064 0
M  V30 625 H 59.259 3.6153 2.39747 0
M  V30 626 H 59.93 3.77972 4.02295 0
M  V30 627 H 62.406 1.87791 3.71314 0
M  V30 628 H 61.282 2.07281 5.08258 0
M  V30 629 H 61.543 0.477572 4.39513 0
M  V30 630 N 60.6021 -1.18246 1.0419 0
M  V30 631 C 61.8481 -1.88536 0.747122 0
M  V30 632 C 62.1811 -1.80223 -0.723409 0
M  V30 633 O 61.4561 -1.20337 -1.52804 0
M  V30 634 C 61.7391 -3.38968 1.21544 0
M  V30 635 C 61.5921 -3.56084 2.74816 0
M  V30 636 C 62.9111 -4.32648 0.806482 0
M  V30 637 H 60.0301 -0.684619 0.272883 0
M  V30 638 H 62.6721 -1.39113 1.29413 0
M  V30 639 H 60.8221 -3.8119 0.750081 0
M  V30 640 H 62.4941 -3.22946 3.29399 0
M  V30 641 H 60.7371 -2.98699 3.14582 0
M  V30 642 H 61.4081 -4.61639 3.02644 0
M  V30 643 H 63.8841 -3.98211 1.20695 0
M  V30 644 H 62.7601 -5.36462 1.1619 0
M  V30 645 H 63.0211 -4.41146 -0.29029 0
M  V30 646 N 62.0802 -0.821533 -1.34494 0
M  V30 647 C 63.0102 -0.257138 -2.3208 0
M  V30 648 C 63.9912 0.625645 -1.58176 0
M  V30 649 O 65.1762 0.552811 -1.86166 0
M  V30 650 C 62.3062 0.582958 -3.42372 0
M  V30 651 C 61.2602 -0.202571 -4.2752 0
M  V30 652 C 60.5862 0.760179 -5.29269 0
M  V30 653 C 61.8862 -1.40998 -5.02908 0
M  V30 654 H 63.5802 -1.07247 -2.79532 0
M  V30 655 H 61.1262 -0.517163 -1.34393 0
M  V30 656 H 63.0792 0.987972 -4.09655 0
M  V30 657 H 61.8032 1.43133 -2.93565 0
M  V30 658 H 60.4622 -0.588936 -3.61838 0
M  V30 659 H 60.1102 1.60447 -4.76724 0
M  V30 660 H 59.8102 0.238809 -5.87115 0
M  V30 661 H 61.3342 1.16308 -5.9942 0
M  V30 662 H 62.7482 -1.07905 -5.63054 0
M  V30 663 H 61.1452 -1.86689 -5.70322 0
M  V30 664 H 62.2152 -2.1889 -4.32684 0
M  V30 665 N 63.5583 1.46682 -0.576371 0
M  V30 666 C 64.8063 2.02013 -0.0594163 0
M  V30 667 C 65.1273 1.45101 1.30271 0
M  V30 668 O 64.3973 0.633317 1.8538 0
M  V30 669 H 62.9773 0.746759 -0.0189745 0
M  V30 670 H 65.6393 1.79862 -0.750717 0
M  V30 671 H 64.7353 3.12097 0.014345 0
M  V30 672 N 65.0364 0.313813 1.54444 0
M  V30 673 C 66.2824 -0.292108 2.00685 0
M  V30 674 C 66.6154 -1.52548 1.20177 0
M  V30 675 O 65.8904 -1.92452 0.281531 0
M  V30 676 C 66.1734 -0.635968 3.5444 0
M  V30 677 C 66.0264 0.607437 4.4568 0
M  V30 678 C 67.3454 -1.45747 4.15266 0
M  V30 679 H 64.4644 -0.104697 0.729526 0
M  V30 680 H 67.1064 0.428457 1.85106 0
M  V30 681 H 65.2564 -1.24986 3.67846 0
M  V30 682 H 66.9284 1.24581 4.44159 0
M  V30 683 H 65.1714 1.23822 4.15753 0
M  V30 684 H 65.8424 0.322515 5.51057 0
M  V30 685 H 68.3184 -0.938645 4.05375 0
M  V30 686 H 67.1944 -1.66683 5.2298 0
M  V30 687 H 67.4554 -2.45063 3.67963 0
M  V30 688 N 66.5145 -1.57545 0.0417849 0
M  V30 689 C 67.4245 -2.14451 -0.951213 0
M  V30 690 C 68.4405 -1.09992 -1.34825 0
M  V30 691 O 69.6165 -1.42114 -1.42708 0
M  V30 692 C 66.6815 -2.67063 -2.21084 0
M  V30 693 C 65.7425 -3.86284 -1.87304 0
M  V30 694 C 64.9755 -4.36378 -3.07261 0
M  V30 695 O 65.1985 -3.85587 -4.20332 0
M  V30 696 O 64.1325 -5.28077 -2.88822 0
M  V30 697 H 67.9585 -2.99601 -0.497287 0
M  V30 698 H 65.5435 -1.48317 -0.179567 0
M  V30 699 H 67.4255 -3.00914 -2.95006 0
M  V30 700 H 66.1005 -1.84989 -2.65633 0
M  V30 701 H 65.0075 -3.57338 -1.10727 0
M  V30 702 H 66.3405 -4.6956 -1.47562 0
M  V30 703 N 67.9926 0.231505 -1.5589 0
M  V30 704 C 68.9396 1.28682 -1.91598 0
M  V30 705 C 69.9096 1.47071 -0.771974 0
M  V30 706 O 71.0946 1.60802 -1.027 0
M  V30 707 C 68.2346 2.6342 -2.22944 0
M  V30 708 C 67.3476 2.52912 -3.50228 0
M  V30 709 C 66.4826 3.80106 -3.7107 0
M  V30 710 C 65.5216 3.64279 -4.91902 0
M  V30 711 N 64.6586 4.834 -5.09184 0
M  V30 712 H 69.4986 0.975305 -2.81588 0
M  V30 713 H 67.0356 0.470299 -1.39379 0
M  V30 714 H 68.9936 3.41869 -2.39126 0
M  V30 715 H 67.6236 2.92687 -1.36139 0
M  V30 716 H 66.6756 1.6595 -3.42294 0
M  V30 717 H 67.9876 2.37133 -4.38827 0
M  V30 718 H 67.1416 4.66999 -3.87295 0
M  V30 719 H 65.8806 3.98799 -2.80733 0
M  V30 720 H 64.8856 2.7577 -4.75637 0
M  V30 721 H 66.1106 3.47067 -5.83714 0
M  V30 722 H 64.0566 5.02425 -4.21788 0
M  V30 723 H 63.9736 4.70311 -5.91898 0
M  V30 724 H 65.2416 5.71747 -5.29835 0
M  V30 725 N 69.4707 1.49531 0.497807 0
M  V30 726 C 70.4177 1.66436 1.59899 0
M  V30 727 C 71.3877 0.505793 1.58212 0
M  V30 728 O 72.5727 0.733202 1.7615 0
M  V30 729 C 69.7127 1.7399 2.98029 0
M  V30 730 C 68.8257 3.01172 3.09708 0
M  V30 731 C 67.9607 2.99686 4.38591 0
M  V30 732 C 66.9997 4.21434 4.43914 0
M  V30 733 N 66.1367 4.1784 5.64229 0
M  V30 734 H 70.9767 2.60459 1.44793 0
M  V30 735 H 68.5137 1.29137 0.704423 0
M  V30 736 H 70.4717 1.76352 3.78095 0
M  V30 737 H 69.1017 0.834301 3.11832 0
M  V30 738 H 68.1537 3.08408 2.22685 0
M  V30 739 H 69.4657 3.91165 3.09502 0
M  V30 740 H 68.6197 3.00628 5.2698 0
M  V30 741 H 67.3587 2.07477 4.41367 0
M  V30 742 H 66.3637 4.20733 3.53926 0
M  V30 743 H 67.5887 5.14839 4.42851 0
M  V30 744 H 65.5347 3.28469 5.67841 0
M  V30 745 H 65.4517 5.01571 5.65652 0
M  V30 746 H 66.7197 4.22889 6.54817 0
M  V30 747 N 70.9488 -0.749086 1.3866 0
M  V30 748 C 72.1738 -1.54344 1.38538 0
M  V30 749 C 72.5988 -1.88088 -0.0216655 0
M  V30 750 O 71.9568 -1.50899 -1.00494 0
M  V30 751 C 72.0048 -2.8164 2.25192 0
M  V30 752 O 71.1088 -3.7698 1.67212 0
M  V30 753 H 70.4498 -0.466654 0.472367 0
M  V30 754 H 72.9798 -0.925355 1.82478 0
M  V30 755 H 72.9898 -3.30519 2.3921 0
M  V30 756 H 71.6648 -2.56411 3.27454 0
M  V30 757 H 70.2418 -3.35699 1.6236 0
M  V30 758 N 72.4269 -1.23603 -0.977757 0
M  V30 759 C 73.6729 -1.07129 -1.72195 0
M  V30 760 C 74.0059 0.390501 -1.90233 0
M  V30 761 O 73.2809 1.28902 -1.45653 0
M  V30 762 C 73.5639 -1.80031 -3.11867 0
M  V30 763 C 73.4169 -3.33899 -3.01383 0
M  V30 764 C 74.7359 -1.56492 -4.11337 0
M  V30 765 H 71.8549 -0.390571 -0.624999 0
M  V30 766 H 74.4969 -1.52142 -1.13811 0
M  V30 767 H 72.6469 -1.41768 -3.6171 0
M  V30 768 H 74.3189 -3.81699 -2.59043 0
M  V30 769 H 72.5619 -3.62796 -2.37827 0
M  V30 770 H 73.2329 -3.801 -4.00285 0
M  V30 771 H 75.7089 -1.89757 -3.70313 0
M  V30 772 H 74.5849 -2.09973 -5.07151 0
M  V30 773 H 74.8459 -0.500874 -4.39254 0
M  V30 774 N 73.905 1.17692 -1.04816 0
M  V30 775 C 74.868 2.19787 -0.650117 0
M  V30 776 C 75.868 1.58044 0.296427 0
M  V30 777 O 77.058 1.74012 0.0808097 0
M  V30 778 C 74.19 3.40869 0.0456987 0
M  V30 779 H 75.383 2.56516 -1.5537 0
M  V30 780 H 72.936 1.31708 -0.841594 0
M  V30 781 H 73.671 3.09681 0.962726 0
M  V30 782 H 73.456 3.86928 -0.634727 0
M  V30 783 H 74.946 4.16445 0.310432 0
M  V30 784 N 75.3831 0.828654 1.34056 0
M  V30 785 C 76.3301 0.252567 2.29414 0
M  V30 786 C 77.3001 -0.62588 1.53857 0
M  V30 787 O 78.4851 -0.566312 1.82202 0
M  V30 788 C 75.6251 -0.574831 3.40279 0
M  V30 789 C 74.7381 0.326499 4.30764 0
M  V30 790 C 73.8731 -0.511016 5.28736 0
M  V30 791 C 72.9121 0.389342 6.1086 0
M  V30 792 N 72.0491 -0.409439 7.00905 0
M  V30 793 H 76.8891 1.07108 2.78086 0
M  V30 794 H 74.4261 0.539677 1.36843 0
M  V30 795 H 76.3841 -1.06992 4.03248 0
M  V30 796 H 75.0141 -1.35841 2.92826 0
M  V30 797 H 74.0661 0.939837 3.68607 0
M  V30 798 H 75.3781 1.01857 4.88289 0
M  V30 799 H 74.5321 -1.07035 5.97184 0
M  V30 800 H 73.2711 -1.23657 4.71763 0
M  V30 801 H 72.2761 0.960769 5.4134 0
M  V30 802 H 73.5011 1.1131 6.69916 0
M  V30 803 H 71.4471 -1.11856 6.46393 0
M  V30 804 H 71.3641 0.224126 7.55668 0
M  V30 805 H 72.6321 -0.951336 7.73673 0
M  V30 806 N 76.8612 -1.46375 0.584142 0
M  V30 807 C 77.7912 -2.33103 -0.136037 0
M  V30 808 C 78.7722 -1.45431 -0.882255 0
M  V30 809 O 79.9572 -1.74246 -0.857434 0
M  V30 810 C 77.0872 -3.27731 -1.14933 0
M  V30 811 C 76.0412 -4.24855 -0.517862 0
M  V30 812 C 75.3672 -5.09001 -1.63773 0
M  V30 813 C 76.6672 -5.19439 0.545886 0
M  V30 814 H 78.3612 -2.93568 0.588086 0
M  V30 815 H 75.9072 -1.41166 0.284259 0
M  V30 816 H 77.8602 -3.87261 -1.66153 0
M  V30 817 H 76.5842 -2.65377 -1.90375 0
M  V30 818 H 75.2432 -3.6659 -0.0267361 0
M  V30 819 H 74.8912 -4.43031 -2.38185 0
M  V30 820 H 74.5912 -5.74777 -1.22085 0
M  V30 821 H 76.1152 -5.71396 -2.15266 0
M  V30 822 H 77.5292 -5.73177 0.118704 0
M  V30 823 H 75.9262 -5.93566 0.88317 0
M  V30 824 H 76.9962 -4.63285 1.43162 0
M  V30 825 N 78.3393 -0.321999 -1.54275 0
M  V30 826 C 79.2713 0.578671 -2.21775 0
M  V30 827 C 80.2843 1.08109 -1.21722 0
M  V30 828 O 81.4733 0.994938 -1.482 0
M  V30 829 C 78.5733 1.80661 -2.86731 0
M  V30 830 C 77.7463 1.44314 -4.12907 0
M  V30 831 C 76.8053 2.52845 -4.61472 0
M  V30 832 O 75.8313 2.17054 -5.2619 0
M  V30 833 N 77.0333 3.83748 -4.35566 0
M  V30 834 H 79.7983 0.000709447 -2.997 0
M  V30 835 H 77.3593 -0.145132 -1.61248 0
M  V30 836 H 79.3513 2.52655 -3.16145 0
M  V30 837 H 77.9213 2.29245 -2.12521 0
M  V30 838 H 77.1413 0.554906 -3.90275 0
M  V30 839 H 78.4293 1.17598 -4.95023 0
M  V30 840 H 77.8273 4.15625 -3.83761 0
M  V30 841 H 76.3843 4.51977 -4.69638 0
M  V30 842 N 79.8174 1.5752 -0.0501392 0
M  V30 843 C 81.0944 1.83996 0.663685 0
M  V30 844 C 81.4744 0.938339 1.89099 0
M  V30 845 O 80.8224 -0.00087759 2.285 0
M  V30 846 C 81.0324 3.33702 1.02196 0
M  V30 847 C 82.3804 4.00691 1.40469 0
M  V30 848 O 83.4044 3.38321 1.11433 0
M  V30 849 O 82.2634 5.10658 1.94654 0
M  V30 850 H 79.3574 0.759385 0.32751 0
M  V30 851 H 81.9034 1.69514 -0.0794238 0
M  V30 852 H 80.6754 3.91015 0.149364 0
M  V30 853 H 80.2984 3.53368 1.82255 0
M  V30 854 N 81.2955 -0.223234 1.56011 0
M  V30 855 C 82.2055 -1.29766 1.95443 0
M  V30 856 C 83.2215 -1.51373 0.858028 0
M  V30 857 O 84.3975 -1.64536 1.16146 0
M  V30 858 C 81.4625 -2.62772 2.26167 0
M  V30 859 C 80.5235 -2.49482 3.49367 0
M  V30 860 C 79.7565 -3.76145 3.78616 0
M  V30 861 O 79.9795 -4.79087 3.09568 0
M  V30 862 O 78.9135 -3.73358 4.72109 0
M  V30 863 H 82.7395 -0.99309 2.87004 0
M  V30 864 H 80.3245 -0.425958 1.43199 0
M  V30 865 H 82.2065 -3.41327 2.47131 0
M  V30 866 H 80.8815 -2.92913 1.37781 0
M  V30 867 H 79.7885 -1.69133 3.33684 0
M  V30 868 H 81.1215 -2.2428 4.38131 0
M  V30 869 N 82.7736 -1.49793 -0.48987 0
M  V30 870 C 84.1896 -1.36803 -0.822022 0
M  V30 871 C 84.3896 -0.409652 -1.97292 0
M  V30 872 O 83.4456 0.154614 -2.52026 0
M  V30 873 C 84.7586 -2.77768 -1.15175 0
M  V30 874 C 86.3066 -2.86549 -1.25931 0
M  V30 875 C 86.7816 -4.28306 -1.62228 0
M  V30 876 N 88.2726 -4.31169 -1.69256 0
M  V30 877 C 89.0076 -5.37832 -1.98807 0
M  V30 878 N 88.5036 -6.54726 -2.26507 0
M  V30 879 N 90.2966 -5.25258 -2.00152 0
M  V30 880 H 82.4476 -2.10691 0.268881 0
M  V30 881 H 84.7106 -0.946241 0.057728 0
M  V30 882 H 84.4166 -3.49648 -0.379335 0
M  V30 883 H 84.2906 -3.13836 -2.09253 0
M  V30 884 H 86.6776 -2.14899 -2.02243 0
M  V30 885 H 86.7586 -2.54049 -0.298776 0
M  V30 886 H 86.4026 -5.00486 -0.864622 0
M  V30 887 H 86.3326 -4.58279 -2.594 0
M  V30 888 H 88.8236 -3.4687 -1.49965 0
M  V30 889 H 89.1366 -7.31833 -2.48276 0
M  V30 890 H 87.4816 -6.57933 -2.23939 0
M  V30 891 H 90.6726 -4.32938 -1.77996 0
M  V30 892 H 90.8456 -6.08476 -2.22848 0
M  V30 893 N 84.2517 0.741722 -1.39055 0
M  V30 894 C 85.4797 1.53098 -1.39171 0
M  V30 895 C 85.8947 1.88794 0.0155099 0
M  V30 896 O 85.2517 1.53626 0.985159 0
M  V30 897 C 85.3027 2.82274 -2.2584 0
M  V30 898 O 85.0237 2.48097 -3.61081 0
M  V30 899 C 86.5247 3.76343 -2.34266 0
M  V30 900 H 83.7447 0.473335 -0.4756 0
M  V30 901 H 86.2887 0.917045 -1.82785 0
M  V30 902 H 84.4437 3.40015 -1.85656 0
M  V30 903 H 84.8577 3.31029 -4.06842 0
M  V30 904 H 86.3317 4.63898 -2.9917 0
M  V30 905 H 86.8087 4.17619 -1.35982 0
M  V30 906 H 87.4147 3.24523 -2.74891 0
M  V30 907 N 85.7298 1.2412 0.971189 0
M  V30 908 C 86.9758 1.08041 1.71625 0
M  V30 909 C 87.3088 -0.380407 1.90438 0
M  V30 910 O 86.5838 -1.28127 1.46334 0
M  V30 911 C 86.8668 1.81682 3.10908 0
M  V30 912 C 86.7198 3.35493 2.99608 0
M  V30 913 C 88.0388 1.58671 4.10501 0
M  V30 914 H 85.1578 0.39388 0.622919 0
M  V30 915 H 87.7998 1.52743 1.13003 0
M  V30 916 H 85.9498 1.43684 3.60953 0
M  V30 917 H 87.6218 3.83068 2.57015 0
M  V30 918 H 85.8648 3.64052 2.35899 0
M  V30 919 H 86.5358 3.82217 3.98264 0
M  V30 920 H 89.0118 1.91719 3.69301 0
M  V30 921 H 87.8878 2.1266 5.06031 0
M  V30 922 H 88.1488 0.524161 4.38982 0
M  V30 923 N 87.2079 -1.17134 1.05439 0
M  V30 924 C 88.6239 -1.39454 0.776201 0
M  V30 925 C 88.8239 -1.91454 -0.628307 0
M  V30 926 O 87.8799 -2.10777 -1.39031 0
M  V30 927 C 89.1929 -2.38305 1.83388 0
M  V30 928 C 90.7409 -2.52006 1.85639 0
M  V30 929 C 91.2159 -3.54133 2.90437 0
M  V30 930 N 92.7069 -3.61653 2.89415 0
M  V30 931 C 93.4419 -4.4044 3.67152 0
M  V30 932 N 92.9379 -5.22721 4.54681 0
M  V30 933 N 94.7309 -4.35337 3.55581 0
M  V30 934 H 86.8819 -0.817134 1.96053 0
M  V30 935 H 89.1449 -0.421626 0.849079 0
M  V30 936 H 88.8509 -2.07173 2.84204 0
M  V30 937 H 88.7249 -3.37841 1.67761 0
M  V30 938 H 91.1119 -2.82447 0.85486 0
M  V30 939 H 91.1929 -1.52537 2.05344 0
M  V30 940 H 90.8369 -3.24431 3.90777 0
M  V30 941 H 90.7669 -4.53313 2.67983 0
M  V30 942 H 93.2579 -3.02909 2.25952 0
M  V30 943 H 93.5709 -5.80027 5.10674 0
M  V30 944 H 91.9159 -5.22093 4.58741 0
M  V30 945 H 95.1069 -3.70112 2.86592 0
M  V30 946 H 95.2799 -4.96494 4.1641 0
M  V30 947 N 88.686 -0.835752 -1.33615 0
M  V30 948 C 89.633 -0.26473 -2.29277 0
M  V30 949 C 90.603 0.617712 -1.54187 0
M  V30 950 O 91.788 0.556641 -1.825 0
M  V30 951 C 88.928 0.556777 -3.40579 0
M  V30 952 C 88.041 -0.349339 -4.30585 0
M  V30 953 C 87.176 0.482969 -5.29 0
M  V30 954 C 86.215 -0.421732 -6.10645 0
M  V30 955 N 85.352 0.372262 -7.01112 0
M  V30 956 H 90.192 -1.08582 -2.77514 0
M  V30 957 H 87.729 -0.546927 -1.36554 0
M  V30 958 H 89.687 1.04852 -4.03809 0
M  V30 959 H 88.317 1.34286 -2.93542 0
M  V30 960 H 87.369 -0.959372 -3.68104 0
M  V30 961 H 88.681 -1.04445 -4.87742 0
M  V30 962 H 87.835 1.03866 -5.97743 0
M  V30 963 H 86.574 1.21153 -4.72412 0
M  V30 964 H 85.579 -0.989464 -5.40823 0
M  V30 965 H 86.804 -1.14861 -6.69316 0
M  V30 966 H 84.75 1.08426 -6.46977 0
M  V30 967 H 84.667 -0.264198 -7.55538 0
M  V30 968 H 85.935 0.910293 -7.74167 0
M  V30 969 N 90.1641 1.46063 -0.591896 0
M  V30 970 C 91.4131 2.01547 -0.0786637 0
M  V30 971 C 91.7261 1.46796 1.29268 0
M  V30 972 O 92.9321 1.94157 1.89777 0
M  V30 973 C 91.3881 3.59787 -0.0900024 0
M  V30 974 C 90.9961 4.23534 -1.46023 0
M  V30 975 C 92.7401 4.22895 0.368806 0
M  V30 976 C 90.6471 5.73881 -1.4288 0
M  V30 977 H 89.5771 0.753564 -0.0256388 0
M  V30 978 H 92.2281 1.677 -0.744905 0
M  V30 979 H 90.6101 3.90752 0.642586 0
M  V30 980 H 91.7841 4.04167 -2.21328 0
M  V30 981 H 90.0991 3.72558 -1.85982 0
M  V30 982 H 92.6961 5.33116 0.411258 0
M  V30 983 H 93.0391 3.9247 1.38827 0
M  V30 984 H 93.5721 3.9659 -0.31001 0
M  V30 985 H 90.3111 6.0898 -2.42536 0
M  V30 986 H 89.8311 5.95486 -0.718095 0
M  V30 987 H 91.5101 6.36776 -1.14565 0
M  V30 988 N 91.6422 0.330177 1.54103 0
M  V30 989 C 92.8822 -0.270916 2.02597 0
M  V30 990 C 93.2462 -1.48826 1.21304 0
M  V30 991 O 94.4472 -2.16266 1.59633 0
M  V30 992 C 92.7182 -0.590328 3.52491 0
M  V30 993 S 94.2772 -1.17014 4.2291 0
M  V30 994 H 91.0952 -0.0815379 0.706309 0
M  V30 995 H 93.6972 0.464835 1.89893 0
M  V30 996 H 92.4012 0.303691 4.09275 0
M  V30 997 H 91.9322 -1.3561 3.69288 0
M  V30 998 H 93.9472 -2.45662 4.3112 0
M  V30 999 N 93.1203 -1.57491 0.0584922 0
M  V30 1000 C 94.0833 -2.1085 -0.898617 0
M  V30 1001 C 95.0833 -1.02964 -1.23511 0
M  V30 1002 O 96.2733 -1.29007 -1.17059 0
M  V30 1003 C 93.4053 -2.59881 -2.20623 0
M  V30 1004 H 94.5983 -2.96715 -0.435936 0
M  V30 1005 H 92.1513 -1.55141 -0.190023 0
M  V30 1006 H 92.8863 -1.77431 -2.71457 0
M  V30 1007 H 92.6713 -3.38727 -1.97501 0
M  V30 1008 H 94.1613 -3.01285 -2.89166 0
M  V30 1009 N 94.5984 0.214957 -1.56127 0
M  V30 1010 C 95.5284 1.2695 -1.95974 0
M  V30 1011 C 96.5094 1.48539 -0.828868 0
M  V30 1012 O 97.6944 1.60611 -1.09168 0
M  V30 1013 C 94.8244 2.61794 -2.28214 0
M  V30 1014 C 93.7784 2.54851 -3.43853 0
M  V30 1015 C 93.1044 3.93785 -3.61715 0
M  V30 1016 C 94.4044 2.09065 -4.78632 0
M  V30 1017 H 96.0984 0.93846 -2.84312 0
M  V30 1018 H 93.6444 0.449996 -1.36788 0
M  V30 1019 H 95.5974 3.35731 -2.54682 0
M  V30 1020 H 94.3214 2.96599 -1.36736 0
M  V30 1021 H 92.9804 1.8337 -3.17444 0
M  V30 1022 H 92.6284 4.25908 -2.67602 0
M  V30 1023 H 92.3284 3.90019 -4.39498 0
M  V30 1024 H 93.8524 4.69374 -3.90539 0
M  V30 1025 H 95.2664 2.7275 -5.04262 0
M  V30 1026 H 93.6634 2.16346 -5.59745 0
M  V30 1027 H 94.7334 1.04315 -4.73547 0
M  V30 1028 N 96.0765 1.50051 0.48192 0
M  V30 1029 C 97.3535 1.51009 1.2432 0
M  V30 1030 C 97.7335 0.248587 2.09631 0
M  V30 1031 O 97.0815 -0.768409 2.15192 0
M  V30 1032 C 97.2915 2.79981 2.08355 0
M  V30 1033 C 98.6395 3.3022 2.66908 0
M  V30 1034 O 99.6635 2.81228 2.18607 0
M  V30 1035 O 98.5225 4.15595 3.54884 0
M  V30 1036 H 95.6165 0.605239 0.563573 0
M  V30 1037 H 98.1625 1.62332 0.494627 0
M  V30 1038 H 96.9345 3.63275 1.45419 0
M  V30 1039 H 96.5575 2.7161 2.90368 0
M  V30 1040 N 97.5546 -0.734337 1.39446 0
M  V30 1041 C 98.8316 -1.48579 1.27215 0
M  V30 1042 C 99.2116 -2.1077 -0.117968 0
M  V30 1043 O 98.5596 -1.98646 -1.12924 0
M  V30 1044 C 98.7696 -2.53667 2.39696 0
M  V30 1045 C 100.118 -3.20031 2.79044 0
M  V30 1046 O 101.142 -2.6398 2.39151 0
M  V30 1047 O 100.001 -4.21455 3.47905 0
M  V30 1048 H 97.0946 -0.659816 0.49857 0
M  V30 1049 H 99.6406 -0.768106 1.51322 0
M  V30 1050 H 98.4126 -2.06096 3.32626 0
M  V30 1051 H 98.0356 -3.32994 2.17258 0
M  V30 1052 N 99.0327 -1.24633 -0.964593 0
M  V30 1053 C 99.9807 -1.03917 -2.08096 0
M  V30 1054 C 100.975 0.0268581 -1.69379 0
M  V30 1055 O 102.181 -0.127952 -1.79545 0
M  V30 1056 H 98.5557 -0.319044 -0.680966 0
M  V30 1057 H 100.527 -1.98581 -2.22729 0
M  V30 1058 C 99.2757 -0.663983 -3.41301 0
M  V30 1059 H 98.5987 -1.47605 -3.71555 0
M  V30 1060 H 100.039 -0.558663 -4.20303 0
M  V30 1061 C 98.4977 0.629169 -3.30973 0
M  V30 1062 O 99.0277 1.67404 -3.65156 0
M  V30 1063 N 97.2337 0.611057 -2.84103 0
M  V30 1064 H 96.7807 -0.239593 -2.56483 0
M  V30 1065 H 96.7387 1.47647 -2.77575 0
M  V30 1066 N 100.511 1.16574 -1.06058 0
M  V30 1067 C 101.757 1.87324 -0.777022 0
M  V30 1068 C 102.09 1.81351 0.694645 0
M  V30 1069 O 101.365 1.22753 1.50871 0
M  V30 1070 C 101.648 3.36991 -1.26922 0
M  V30 1071 C 101.501 3.51667 -2.80447 0
M  V30 1072 C 102.82 4.3131 -0.87521 0
M  V30 1073 H 99.9388 0.680191 -0.28374 0
M  V30 1074 H 102.581 1.37036 -1.3161 0
M  V30 1075 H 100.731 3.79949 -0.81063 0
M  V30 1076 H 102.403 3.17664 -3.34495 0
M  V30 1077 H 100.646 2.93656 -3.19294 0
M  V30 1078 H 101.317 4.56766 -3.0995 0
M  V30 1079 H 103.793 3.9624 -1.27014 0
M  V30 1080 H 102.669 5.34545 -1.2471 0
M  V30 1081 H 102.93 4.41552 0.220071 0
M  V30 1082 N 101.989 0.842826 1.3317 0
M  V30 1083 C 103.229 0.446574 1.99462 0
M  V30 1084 C 103.593 -0.976818 1.65295 0
M  V30 1085 O 104.794 -1.477 2.24584 0
M  V30 1086 C 103.065 0.665353 3.51152 0
M  V30 1087 S 104.624 0.364911 4.3728 0
M  V30 1088 H 101.442 0.167803 0.690915 0
M  V30 1089 H 104.044 1.09297 1.62094 0
M  V30 1090 H 102.748 1.7006 3.73507 0
M  V30 1091 H 102.279 0.00494568 3.934 0
M  V30 1092 H 104.294 -0.813761 4.89482 0
M  V30 1093 N 103.467 -1.45747 0.599634 0
M  V30 1094 C 104.4 -2.27547 -0.172552 0
M  V30 1095 C 105.378 -1.36657 -0.881116 0
M  V30 1096 O 106.562 -1.66081 -0.891595 0
M  V30 1097 C 103.689 -3.14829 -1.24903 0
M  V30 1098 C 102.735 -4.21603 -0.644465 0
M  V30 1099 S 103.568 -5.32754 0.541606 0
M  V30 1100 C 104.724 -6.23604 -0.535656 0
M  V30 1101 H 104.957 -2.92691 0.521468 0
M  V30 1102 H 102.49 -1.49473 0.386947 0
M  V30 1103 H 104.448 -3.65675 -1.86527 0
M  V30 1104 H 103.109 -2.48965 -1.91508 0
M  V30 1105 H 102.302 -4.82566 -1.45417 0
M  V30 1106 H 101.904 -3.73857 -0.103534 0
M  V30 1107 H 104.196 -6.62519 -1.41686 0
M  V30 1108 H 105.139 -7.0809 0.0376246 0
M  V30 1109 H 105.547 -5.58103 -0.84741 0
M  V30 1110 N 104.945 -0.338344 -1.53925 0
M  V30 1111 C 105.908 0.508299 -2.23493 0
M  V30 1112 C 106.908 1.03175 -1.23335 0
M  V30 1113 O 108.098 0.921826 -1.47811 0
M  V30 1114 C 105.23 1.70754 -2.95052 0
M  V30 1115 H 106.423 -0.100058 -2.99733 0
M  V30 1116 H 103.976 -0.0896198 -1.56043 0
M  V30 1117 H 104.711 2.35474 -2.22986 0
M  V30 1118 H 104.496 1.33946 -3.68512 0
M  V30 1119 H 105.986 2.30818 -3.48013 0
M  V30 1120 N 106.423 1.57458 -0.0668435 0
M  V30 1121 C 107.67 1.93301 0.603406 0
M  V30 1122 C 107.998 0.946486 1.69917 0
M  V30 1123 O 107.253 -0.0387021 1.95662 0
M  V30 1124 C 107.552 3.35784 1.22409 0
M  V30 1125 C 107.218 4.50179 0.254955 0
M  V30 1126 C 105.88 4.81199 -0.0116746 0
M  V30 1127 C 108.232 5.19598 -0.408338 0
M  V30 1128 C 105.56 5.78978 -0.94877 0
M  V30 1129 C 107.912 6.18381 -1.33372 0
M  V30 1130 C 106.576 6.47821 -1.60887 0
M  V30 1131 H 105.846 0.707338 0.220802 0
M  V30 1132 H 108.493 1.91012 -0.136665 0
M  V30 1133 H 106.798 3.34515 2.03978 0
M  V30 1134 H 108.495 3.60804 1.74989 0
M  V30 1135 H 105.085 4.25983 0.472954 0
M  V30 1136 H 109.269 4.95832 -0.215456 0
M  V30 1137 H 104.525 6.00115 -1.16925 0
M  V30 1138 H 108.699 6.71277 -1.85367 0
M  V30 1139 H 106.326 7.23399 -2.33661 0
M  V30 1140 N 107.901 -0.206675 1.56239 0
M  V30 1141 C 108.864 -1.23976 1.92776 0
M  V30 1142 C 109.864 -1.39041 0.807729 0
M  V30 1143 O 111.054 -1.37051 1.0753 0
M  V30 1144 C 108.186 -2.61112 2.19165 0
M  V30 1145 H 109.379 -0.927764 2.85189 0
M  V30 1146 H 106.932 -0.447718 1.4975 0
M  V30 1147 H 107.667 -2.97386 1.29352 0
M  V30 1148 H 107.452 -2.51552 3.00772 0
M  V30 1149 H 108.942 -3.35633 2.48476 0
M  V30 1150 N 109.379 -1.50304 -0.473955 0
M  V30 1151 C 110.627 -1.60832 -1.22382 0
M  V30 1152 C 110.948 -0.30939 -1.9253 0
M  V30 1153 O 110.218 0.67296 -1.83978 0
M  V30 1154 H 108.798 -0.592652 -0.454723 0
M  V30 1155 H 111.46 -1.87068 -0.546968 0
M  V30 1156 H 110.556 -2.41803 -1.97327 0
M  V30 1157 N 110.857 0.726932 -1.39834 0
M  V30 1158 C 111.787 1.85405 -1.41941 0
M  V30 1159 C 112.768 1.67751 -0.281728 0
M  V30 1160 O 113.953 1.8795 -0.488717 0
M  V30 1161 C 111.083 3.23243 -1.2701 0
M  V30 1162 C 110.037 3.55549 -2.38262 0
M  V30 1163 C 109.363 4.9241 -2.08415 0
M  V30 1164 C 110.663 3.577 -3.80589 0
M  V30 1165 H 112.357 1.83899 -2.36266 0
M  V30 1166 H 109.903 0.883349 -1.13723 0
M  V30 1167 H 111.856 4.01775 -1.27103 0
M  V30 1168 H 110.58 3.25296 -0.291564 0
M  V30 1169 H 109.239 2.79351 -2.37399 0
M  V30 1170 H 108.887 4.91052 -1.0898 0
M  V30 1171 H 108.587 5.14992 -2.82943 0
M  V30 1172 H 110.111 5.73289 -2.10171 0
M  V30 1173 H 111.525 4.26293 -3.83337 0
M  V30 1174 H 109.922 3.91804 -4.54543 0
M  V30 1175 H 110.992 2.57328 -4.10987 0
M  V30 1176 N 112.336 1.25143 0.95797 0
M  V30 1177 C 113.564 1.12424 1.73691 0
M  V30 1178 C 113.979 -0.322304 1.86029 0
M  V30 1179 O 113.336 -1.22186 1.35561 0
M  V30 1180 C 113.387 1.76933 3.15241 0
M  V30 1181 O 113.108 3.15932 3.03511 0
M  V30 1182 C 114.609 1.6995 4.09429 0
M  V30 1183 H 111.829 0.3923 0.544373 0
M  V30 1184 H 114.373 1.6544 1.20207 0
M  V30 1185 H 112.528 1.27895 3.6568 0
M  V30 1186 H 112.942 3.47598 3.9278 0
M  V30 1187 H 114.416 2.19753 5.06372 0
M  V30 1188 H 114.893 0.662619 4.34173 0
M  V30 1189 H 115.499 2.18461 3.64904 0
M  V30 1190 N 113.814 -1.1601 1.06675 0
M  V30 1191 C 114.777 -2.18724 0.685001 0
M  V30 1192 C 115.777 -1.58496 -0.271246 0
M  V30 1193 O 116.967 -1.74119 -0.0531156 0
M  V30 1194 C 114.099 -3.40899 0.00853648 0
M  V30 1195 H 115.292 -2.54011 1.59431 0
M  V30 1196 H 112.845 -1.30352 0.862441 0
M  V30 1197 H 113.58 -3.11173 -0.913337 0
M  V30 1198 H 113.365 -3.8587 0.696204 0
M  V30 1199 H 114.855 -4.16886 -0.24414 0
M  V30 1200 N 115.292 -0.849877 -1.32721 0
M  V30 1201 C 116.569 -0.372405 -1.92022 0
M  V30 1202 C 116.949 1.1435 -1.77447 0
M  V30 1203 O 116.297 1.96296 -1.16962 0
M  V30 1204 C 116.507 -0.831482 -3.3895 0
M  V30 1205 C 117.855 -0.845882 -4.16089 0
M  V30 1206 O 118.879 -0.775806 -3.47649 0
M  V30 1207 O 117.738 -0.943753 -5.38289 0
M  V30 1208 H 114.832 -0.107667 -0.819961 0
M  V30 1209 H 117.378 -0.93646 -1.41522 0
M  V30 1210 H 116.15 -1.87448 -3.4348 0
M  V30 1211 H 115.773 -0.24461 -3.96847 0
M  V30 1212 N 116.77 1.45427 -0.607355 0
M  V30 1213 C 117.733 2.28974 0.101693 0
M  V30 1214 C 118.733 1.39754 0.795329 0
M  V30 1215 O 119.923 1.61878 0.643527 0
M  V30 1216 C 117.055 3.20768 1.15414 0
M  V30 1217 H 118.248 2.93147 -0.632844 0
M  V30 1218 H 115.801 1.51945 -0.366391 0
M  V30 1219 H 116.536 2.61395 1.91945 0
M  V30 1220 H 116.321 3.86489 0.66098 0
M  V30 1221 H 117.811 3.83589 1.65073 0
M  V30 1222 N 118.248 0.346503 1.53744 0
M  V30 1223 C 119.664 -0.00530975 1.59599 0
M  V30 1224 C 119.864 -1.48465 1.36236 0
M  V30 1225 O 118.92 -2.24376 1.15808 0
M  V30 1226 C 120.233 0.433516 2.97559 0
M  V30 1227 C 121.781 0.386111 3.10609 0
M  V30 1228 C 122.256 0.800451 4.50951 0
M  V30 1229 N 123.747 0.754753 4.5701 0
M  V30 1230 C 124.482 1.04727 5.63755 0
M  V30 1231 N 123.978 1.4081 6.7834 0
M  V30 1232 N 125.771 0.971316 5.53644 0
M  V30 1233 H 117.922 1.31009 1.67184 0
M  V30 1234 H 120.185 0.534242 0.783128 0
M  V30 1235 H 119.891 1.46509 3.19731 0
M  V30 1236 H 119.765 -0.189753 3.76722 0
M  V30 1237 H 122.152 -0.636295 2.88158 0
M  V30 1238 H 122.233 1.04462 2.33498 0
M  V30 1239 H 121.877 1.82088 4.74137 0
M  V30 1240 H 121.807 0.119386 5.26465 0
M  V30 1241 H 124.298 0.488662 3.74727 0
M  V30 1242 H 124.611 1.61607 7.55714 0
M  V30 1243 H 122.956 1.44657 6.79779 0
M  V30 1244 H 126.147 0.688748 4.63005 0
M  V30 1245 H 126.32 1.20263 6.36742 0
M  V30 1246 N 119.726 -1.57421 0.075193 0
M  V30 1247 C 120.975 -1.92794 -0.592731 0
M  V30 1248 C 121.288 -0.957478 -1.70563 0
M  V30 1249 O 122.494 -1.20417 -2.43335 0
M  V30 1250 C 120.95 -3.42495 -1.10569 0
M  V30 1251 C 120.558 -4.47994 -0.0236121 0
M  V30 1252 C 122.302 -3.86864 -1.74748 0
M  V30 1253 C 120.209 -5.88829 -0.550803 0
M  V30 1254 H 119.139 -0.719591 -0.225177 0
M  V30 1255 H 121.79 -1.82902 0.147978 0
M  V30 1256 H 120.172 -3.47471 -1.89947 0
M  V30 1257 H 121.346 -4.54637 0.751099 0
M  V30 1258 H 119.661 -4.13113 0.522159 0
M  V30 1259 H 122.258 -4.8947 -2.15229 0
M  V30 1260 H 122.601 -3.24417 -2.60882 0
M  V30 1261 H 123.134 -3.84504 -1.01986 0
M  V30 1262 H 119.873 -6.54929 0.273457 0
M  V30 1263 H 119.393 -5.85698 -1.29296 0
M  V30 1264 H 121.072 -6.38811 -1.02613 0
M  V30 1265 N 121.204 0.198386 -1.56346 0
M  V30 1266 C 122.45 0.920648 -1.80698 0
M  V30 1267 C 122.783 1.83045 -0.648697 0
M  V30 1268 O 122.058 1.91308 0.350925 0
M  V30 1269 C 122.341 1.73971 -3.15287 0
M  V30 1270 C 122.194 0.85485 -4.41602 0
M  V30 1271 C 123.513 2.71296 -3.46535 0
M  V30 1272 H 120.632 0.333261 -0.657348 0
M  V30 1273 H 123.274 0.188198 -1.89066 0
M  V30 1274 H 121.424 2.36416 -3.08285 0
M  V30 1275 H 123.096 0.245362 -4.60647 0
M  V30 1276 H 121.339 0.161398 -4.335 0
M  V30 1277 H 122.01 1.46286 -5.32264 0
M  V30 1278 H 124.486 2.18983 -3.53816 0
M  V30 1279 H 123.362 3.2569 -4.41834 0
M  V30 1280 H 123.623 3.5018 -2.69864 0
M  V30 1281 N 122.682 1.50554 0.465978 0
M  V30 1282 C 123.931 1.61038 1.21448 0
M  V30 1283 C 124.244 0.31865 1.92987 0
M  V30 1284 O 125.45 0.302469 2.6981 0
M  V30 1285 C 123.906 2.84283 2.20706 0
M  V30 1286 C 123.514 4.20352 1.54946 0
M  V30 1287 C 125.258 3.04115 2.96166 0
M  V30 1288 C 123.165 5.34778 2.5252 0
M  V30 1289 H 122.095 0.599718 0.457005 0
M  V30 1290 H 124.746 1.7699 0.484424 0
M  V30 1291 H 123.128 2.61901 2.97025 0
M  V30 1292 H 124.302 4.53008 0.843811 0
M  V30 1293 H 122.617 4.06167 0.917475 0
M  V30 1294 H 125.214 3.86774 3.69202 0
M  V30 1295 H 125.557 2.16045 3.55852 0
M  V30 1296 H 126.09 3.26702 2.26959 0
M  V30 1297 H 122.829 6.25018 1.97566 0
M  V30 1298 H 122.349 5.06534 3.21222 0
M  V30 1299 H 124.028 5.65561 3.14245 0
M  V30 1300 N 124.16 -0.719506 1.40217 0
M  V30 1301 C 125.108 -1.85493 1.40339 0
M  V30 1302 C 126.102 -1.66995 0.284415 0
M  V30 1303 O 127.308 -1.74148 0.455252 0
M  V30 1304 H 123.683 -0.610857 0.438586 0
M  V30 1305 H 125.654 -1.82506 2.36081 0
M  V30 1306 C 124.403 -3.23321 1.27901 0
M  V30 1307 H 123.726 -3.38159 2.1328 0
M  V30 1308 H 125.166 -4.02914 1.32045 0
M  V30 1309 C 123.625 -3.36898 -0.0111355 0
M  V30 1310 O 124.155 -3.89674 -0.975538 0
M  V30 1311 N 122.361 -2.90492 -0.0793393 0
M  V30 1312 H 121.908 -2.47731 0.706183 0
M  V30 1313 H 121.866 -2.99955 -0.942038 0
M  V30 1314 N 125.638 -1.25649 -0.95132 0
M  V30 1315 C 127.054 -1.02542 -1.223 0
M  V30 1316 C 127.254 0.255715 -1.99871 0
M  V30 1317 O 126.31 0.967558 -2.33226 0
M  V30 1318 C 127.623 -2.25065 -1.99415 0
M  V30 1319 C 129.171 -2.29861 -2.12446 0
M  V30 1320 C 129.646 -3.52048 -2.92961 0
M  V30 1321 N 131.137 -3.52465 -3.00538 0
M  V30 1322 C 131.872 -4.43672 -3.63239 0
M  V30 1323 N 131.368 -5.45157 -4.27523 0
M  V30 1324 N 133.161 -4.31346 -3.60412 0
M  V30 1325 H 125.312 -2.07951 -0.432471 0
M  V30 1326 H 127.575 -0.91339 -0.253816 0
M  V30 1327 H 127.281 -3.18194 -1.49817 0
M  V30 1328 H 127.155 -2.28502 -3.00111 0
M  V30 1329 H 129.542 -1.37252 -2.61239 0
M  V30 1330 H 129.623 -2.3044 -1.11044 0
M  V30 1331 H 129.267 -4.44981 -2.44856 0
M  V30 1332 H 129.197 -3.48715 -3.94596 0
M  V30 1333 H 131.688 -2.79056 -2.54826 0
M  V30 1334 H 132.001 -6.10958 -4.73234 0
M  V30 1335 H 130.346 -5.49025 -4.26141 0
M  V30 1336 H 133.537 -3.51288 -3.09377 0
M  V30 1337 H 133.71 -5.02624 -4.0899 0
M  V30 1338 N 127.117 1.15442 -1.07289 0
M  V30 1339 C 128.08 2.18358 -0.696591 0
M  V30 1340 C 129.08 1.58637 0.262837 0
M  V30 1341 O 130.27 1.74145 0.0438809 0
M  V30 1342 C 127.402 3.4089 -0.0266151 0
M  V30 1343 H 128.595 2.53162 -1.60776 0
M  V30 1344 H 126.148 1.29893 -0.869342 0
M  V30 1345 H 126.883 3.11653 0.896822 0
M  V30 1346 H 126.668 3.85495 -0.716657 0
M  V30 1347 H 128.158 4.17009 0.222028 0
M  V30 1348 N 128.595 0.856903 1.32268 0
M  V30 1349 C 130.011 0.547061 1.49931 0
M  V30 1350 C 130.211 -0.921781 1.7918 0
M  V30 1351 O 129.267 -1.70469 1.8627 0
M  V30 1352 C 130.58 1.43599 2.64196 0
M  V30 1353 C 132.128 1.43665 2.78081 0
M  V30 1354 C 132.603 2.31085 3.95428 0
M  V30 1355 N 134.094 2.28893 4.02694 0
M  V30 1356 C 134.829 2.93262 4.92732 0
M  V30 1357 N 134.325 3.66751 5.87763 0
M  V30 1358 N 136.118 2.82638 4.85873 0
M  V30 1359 H 128.269 1.8075 1.11549 0
M  V30 1360 H 130.532 0.772144 0.549997 0
M  V30 1361 H 130.238 2.48058 2.49319 0
M  V30 1362 H 130.112 1.12502 3.60032 0
M  V30 1363 H 132.499 0.399701 2.92381 0
M  V30 1364 H 132.58 1.7878 1.82952 0
M  V30 1365 H 132.224 3.34849 3.81888 0
M  V30 1366 H 132.154 1.93302 4.89839 0
M  V30 1367 H 134.645 1.75466 3.34694 0
M  V30 1368 H 134.958 4.13027 6.53168 0
M  V30 1369 H 133.303 3.70859 5.87783 0
M  V30 1370 H 136.494 2.24774 4.10602 0
M  V30 1371 H 136.667 3.33084 5.55841 0
M  V30 1372 N 130.073 -1.45103 0.615059 0
M  V30 1373 C 131.319 -2.02483 0.113347 0
M  V30 1374 C 131.652 -1.48146 -1.25564 0
M  V30 1375 O 130.927 -0.659104 -1.82992 0
M  V30 1376 C 131.21 -3.60005 0.0825278 0
M  V30 1377 C 131.063 -4.2466 1.48271 0
M  V30 1378 C 132.382 -4.35972 -0.601401 0
M  V30 1379 H 129.501 -0.735764 0.0426632 0
M  V30 1380 H 132.143 -1.72868 0.788461 0
M  V30 1381 H 130.293 -3.85367 -0.492378 0
M  V30 1382 H 131.965 -4.10458 2.10527 0
M  V30 1383 H 130.208 -3.82772 2.04127 0
M  V30 1384 H 130.879 -5.336 1.41332 0
M  V30 1385 H 133.355 -4.15947 -0.112666 0
M  V30 1386 H 132.231 -5.45697 -0.592097 0
M  V30 1387 H 132.492 -4.09391 -1.66887 0
M  V30 1388 N 131.551 -0.354651 -1.53558 0
M  V30 1389 C 132.461 0.50515 -2.29097 0
M  V30 1390 C 133.477 1.10223 -1.34636 0
M  V30 1391 O 134.653 1.11553 -1.67684 0
M  V30 1392 C 131.718 1.63479 -3.05738 0
M  V30 1393 C 130.779 1.06636 -4.15845 0
M  V30 1394 C 130.012 2.14217 -4.88822 0
M  V30 1395 O 130.235 3.35137 -4.61562 0
M  V30 1396 O 129.169 1.77887 -5.75013 0
M  V30 1397 H 132.995 -0.109237 -3.03503 0
M  V30 1398 H 130.58 -0.119357 -1.48922 0
M  V30 1399 H 132.462 2.2918 -3.5363 0
M  V30 1400 H 131.137 2.23478 -2.34178 0
M  V30 1401 H 130.044 0.373565 -3.7223 0
M  V30 1402 H 131.377 0.511081 -4.89539 0
M  V30 1403 N 133.029 1.57378 -0.0835403 0
M  V30 1404 C 134.269 1.95808 0.586381 0
M  V30 1405 C 134.633 0.963706 1.66062 0
M  V30 1406 O 135.834 1.23608 2.38693 0
M  V30 1407 C 134.105 3.38808 1.13771 0
M  V30 1408 S 135.664 3.99225 1.82112 0
M  V30 1409 H 132.482 0.684675 0.191679 0
M  V30 1410 H 135.084 1.94843 -0.160194 0
M  V30 1411 H 133.788 4.08954 0.344197 0
M  V30 1412 H 133.319 3.43344 1.92038 0
M  V30 1413 H 135.334 3.87087 3.10449 0
M  V30 1414 N 134.507 -0.190092 1.56449 0
M  V30 1415 C 135.439 -1.25973 1.91477 0
M  V30 1416 C 136.452 -1.41452 0.805931 0
M  V30 1417 O 137.641 -1.41789 1.08435 0
M  V30 1418 C 134.741 -2.63117 2.13594 0
M  V30 1419 C 133.914 -2.69182 3.4476 0
M  V30 1420 C 132.973 -3.87557 3.5593 0
M  V30 1421 O 131.999 -3.74427 4.28711 0
M  V30 1422 N 133.201 -5.03224 2.89388 0
M  V30 1423 H 135.966 -0.962394 2.83828 0
M  V30 1424 H 133.527 -0.379981 1.57378 0
M  V30 1425 H 135.519 -3.40742 2.1835 0
M  V30 1426 H 134.089 -2.85319 1.27719 0
M  V30 1427 H 133.309 -1.77793 3.51828 0
M  V30 1428 H 134.597 -2.70229 4.31107 0
M  V30 1429 H 133.995 -5.16791 2.30094 0
M  V30 1430 H 132.552 -5.78778 2.99764 0
M  V30 1431 N 135.985 -1.50799 -0.457987 0
M  V30 1432 C 137.21 -1.66496 -1.23668 0
M  V30 1433 C 137.635 -0.353288 -1.84752 0
M  V30 1434 O 136.993 0.684346 -1.67888 0
M  V30 1435 C 137.041 -2.76763 -2.3116 0
M  V30 1436 O 136.145 -2.38928 -3.36136 0
M  V30 1437 H 135.486 -0.555828 -0.363252 0
M  V30 1438 H 138.016 -1.9725 -0.543474 0
M  V30 1439 H 138.026 -3.00232 -2.76269 0
M  V30 1440 H 136.701 -3.71954 -1.86073 0
M  V30 1441 H 135.278 -2.25953 -2.96647 0
M  V30 1442 N 137.463 0.71206 -1.40597 0
M  V30 1443 C 138.413 1.81783 -1.37619 0
M  V30 1444 C 139.397 1.58896 -0.253162 0
M  V30 1445 O 140.589 1.70009 -0.492547 0
M  V30 1446 C 137.718 3.19944 -1.24462 0
M  V30 1447 C 136.804 3.48582 -2.4156 0
M  V30 1448 N 137.195 3.48016 -3.67041 0
M  V30 1449 C 135.493 3.79056 -2.35016 0
M  V30 1450 C 136.194 3.75096 -4.44609 0
M  V30 1451 N 135.17 3.94022 -3.74497 0
M  V30 1452 H 138.972 1.79683 -2.32575 0
M  V30 1453 H 136.486 0.91134 -1.34419 0
M  V30 1454 H 138.483 3.99133 -1.20411 0
M  V30 1455 H 137.143 3.23267 -0.304762 0
M  V30 1456 H 138.154 3.28782 -4.00153 0
M  V30 1457 H 134.831 3.89848 -1.49415 0
M  V30 1458 H 136.221 3.80934 -5.53479 0
M  V30 1459 N 138.941 1.26152 0.944643 0
M  V30 1460 C 140.357 1.03189 1.21754 0
M  V30 1461 C 140.557 -0.245112 2.00004 0
M  V30 1462 O 139.613 -0.955176 2.33736 0
M  V30 1463 C 140.926 2.26119 1.98219 0
M  V30 1464 C 142.474 2.30984 2.11224 0
M  V30 1465 C 142.949 3.53597 2.91089 0
M  V30 1466 N 144.44 3.54053 2.98664 0
M  V30 1467 C 145.175 4.45593 3.60881 0
M  V30 1468 N 144.671 5.47416 4.24626 0
M  V30 1469 N 146.464 4.33252 3.58119 0
M  V30 1470 H 138.615 2.08177 0.421437 0
M  V30 1471 H 140.878 0.914723 0.248969 0
M  V30 1472 H 140.584 3.18984 1.48128 0
M  V30 1473 H 140.458 2.3009 2.98895 0
M  V30 1474 H 142.845 1.38635 2.60508 0
M  V30 1475 H 142.926 2.31026 1.09821 0
M  V30 1476 H 142.57 4.46273 2.42493 0
M  V30 1477 H 142.5 3.50802 3.92741 0
M  V30 1478 H 144.991 2.80403 2.53343 0
M  V30 1479 H 145.304 6.13459 4.69987 0
M  V30 1480 H 143.649 5.51278 4.23223 0
M  V30 1481 H 146.84 3.52924 3.0751 0
M  V30 1482 H 147.013 5.04786 4.06319 0
M  V30 1483 N 140.419 -1.14872 1.07899 0
M  V30 1484 C 141.349 -2.2193 0.725887 0
M  V30 1485 C 142.33 -1.67622 -0.28927 0
M  V30 1486 O 143.515 -1.93533 -0.160787 0
M  V30 1487 C 140.645 -3.47061 0.128856 0
M  V30 1488 C 139.599 -4.14363 1.07178 0
M  V30 1489 C 138.925 -5.33636 0.337229 0
M  V30 1490 C 140.225 -4.63492 2.40775 0
M  V30 1491 H 141.919 -2.51724 1.62097 0
M  V30 1492 H 139.465 -1.20991 0.780838 0
M  V30 1493 H 141.418 -4.21199 -0.130147 0
M  V30 1494 H 140.142 -3.16617 -0.80134 0
M  V30 1495 H 138.801 -3.42173 1.3158 0
M  V30 1496 H 138.449 -4.99449 -0.596606 0
M  V30 1497 H 138.149 -5.79609 0.965788 0
M  V30 1498 H 139.673 -6.10539 0.0861567 0
M  V30 1499 H 141.087 -5.2913 2.20669 0
M  V30 1500 H 139.484 -5.20148 2.99276 0
M  V30 1501 H 140.554 -3.78834 3.02676 0
M  V30 1502 N 141.898 -0.863906 -1.31812 0
M  V30 1503 C 143.126 -0.486111 -2.01108 0
M  V30 1504 C 143.541 0.919755 -1.64882 0
M  V30 1505 O 142.898 1.60162 -0.874893 0
M  V30 1506 C 142.949 -0.626435 -3.56031 0
M  V30 1507 O 142.67 -1.97693 -3.90959 0
M  V30 1508 C 144.171 -0.248857 -4.42601 0
M  V30 1509 H 141.391 -0.190052 -0.643523 0
M  V30 1510 H 143.935 -1.1634 -1.68182 0
M  V30 1511 H 142.09 0.00322717 -3.874 0
M  V30 1512 H 142.504 -1.98034 -4.85678 0
M  V30 1513 H 143.978 -0.398016 -5.50563 0
M  V30 1514 H 144.455 0.811489 -4.31638 0
M  V30 1515 H 145.061 -0.853971 -4.16638 0
M  V30 1516 N 143.376 1.44774 -0.622745 0
M  V30 1517 C 144.622 2.0242 -0.124083 0
M  V30 1518 C 144.955 1.4881 1.24777 0
M  V30 1519 O 144.23 0.668799 1.8264 0
M  V30 1520 C 144.513 3.59957 -0.101619 0
M  V30 1521 C 144.366 4.23867 -1.50521 0
M  V30 1522 C 145.685 4.36284 0.578272 0
M  V30 1523 H 142.804 0.735528 -0.0465645 0
M  V30 1524 H 145.446 1.72447 -0.797617 0
M  V30 1525 H 143.596 3.85623 0.471934 0
M  V30 1526 H 145.268 4.09336 -2.12701 0
M  V30 1527 H 143.511 3.81684 -2.06154 0
M  V30 1528 H 144.182 5.32843 -1.4416 0
M  V30 1529 H 146.658 4.16001 0.0906057 0
M  V30 1530 H 145.534 5.46004 0.563149 0
M  V30 1531 H 145.795 4.10271 1.64713 0
M  V30 1532 N 144.854 0.36279 1.53368 0
M  V30 1533 C 145.764 -0.492994 2.29362 0
M  V30 1534 C 146.78 -1.09507 1.35219 0
M  V30 1535 O 147.956 -1.10662 1.68273 0
M  V30 1536 C 145.021 -1.61855 3.066 0
M  V30 1537 C 144.082 -1.04429 4.16405 0
M  V30 1538 C 143.315 -2.11621 4.89951 0
M  V30 1539 O 143.538 -3.32684 4.63333 0
M  V30 1540 O 142.472 -1.74835 5.75948 0
M  V30 1541 H 146.298 0.125331 3.03441 0
M  V30 1542 H 143.883 0.127253 1.48857 0
M  V30 1543 H 145.765 -2.27302 3.54841 0
M  V30 1544 H 144.44 -2.22233 2.3536 0
M  V30 1545 H 143.347 -0.353819 3.72423 0
M  V30 1546 H 144.68 -0.485113 4.89804 0
M  V30 1547 N 146.332 -1.57332 0.0918853 0
M  V30 1548 C 147.609 -1.85691 -0.614668 0
M  V30 1549 C 147.989 -0.988146 -1.86545 0
M  V30 1550 O 147.337 -0.0597055 -2.28422 0
M  V30 1551 C 147.547 -3.36294 -0.933126 0
M  V30 1552 C 148.895 -4.04275 -1.29796 0
M  V30 1553 O 149.919 -3.41157 -1.02424 0
M  V30 1554 O 148.778 -5.1564 -1.81047 0
M  V30 1555 H 145.872 -0.767802 -0.307261 0
M  V30 1556 H 148.418 -1.69244 0.12434 0
M  V30 1557 H 147.19 -3.91273 -0.0456404 0
M  V30 1558 H 146.813 -3.58076 -1.72822 0
M  V30 1559 N 147.81 0.181792 -1.56548 0
M  V30 1560 C 149.221 0.745244 -1.71181 0
M  V30 1561 C 149.572 1.83262 -0.70068 0
M  V30 1562 O 148.697 2.15946 0.140154 0
M  V30 1563 C 149.292 1.35859 -3.10367 0
M  V30 1564 C 147.851 1.86898 -3.2672 0
M  V30 1565 C 146.998 0.743942 -2.67134 0
M  V30 1566 H 149.949 -0.0434661 -1.5864 0
M  V30 1567 H 149.97 2.22817 -3.08436 0
M  V30 1568 H 149.482 0.566948 -3.83937 0
M  V30 1569 H 147.583 2.68738 -2.5809 0
M  V30 1570 H 147.696 2.02162 -4.34359 0
M  V30 1571 H 146.06 1.16169 -2.26665 0
M  V30 1572 H 146.843 -0.035676 -3.43281 0
M  V30 1573 N 149.288 1.51039 0.449983 0
M  V30 1574 C 150.534 1.63322 1.20223 0
M  V30 1575 C 150.867 0.34241 1.91158 0
M  V30 1576 O 150.142 -0.657344 1.83055 0
M  V30 1577 C 150.425 2.82801 2.22925 0
M  V30 1578 C 150.278 4.21823 1.56157 0
M  V30 1579 C 151.597 2.97807 3.24035 0
M  V30 1580 H 148.716 0.594407 0.435718 0
M  V30 1581 H 151.358 1.83489 0.493136 0
M  V30 1582 H 149.508 2.65738 2.834 0
M  V30 1583 H 151.18 4.50526 0.991162 0
M  V30 1584 H 149.423 4.25105 0.864172 0
M  V30 1585 H 150.094 5.01391 2.30891 0
M  V30 1586 H 152.57 3.13497 2.73603 0
M  V30 1587 H 151.446 3.82992 3.93202 0
M  V30 1588 H 151.707 2.09328 3.89402 0
M  V30 1589 N 150.766 -0.704594 1.40972 0
M  V30 1590 C 151.994 -1.49354 1.43182 0
M  V30 1591 C 152.409 -1.88768 0.0345508 0
M  V30 1592 O 151.766 -1.56184 -0.944081 0
M  V30 1593 C 151.817 -2.76187 2.33244 0
M  V30 1594 O 151.538 -2.38436 3.67532 0
M  V30 1595 C 153.039 -3.7 2.44162 0
M  V30 1596 H 150.259 -0.460559 0.487982 0
M  V30 1597 H 152.803 -0.868261 1.85153 0
M  V30 1598 H 150.958 -3.34974 1.94606 0
M  V30 1599 H 151.372 -3.20126 4.15475 0
M  V30 1600 H 152.846 -4.55803 3.11364 0
M  V30 1601 H 153.323 -4.13867 1.47006 0
M  V30 1602 H 153.929 -3.17121 2.83398 0
M  V30 1603 N 152.244 -1.26651 -0.937939 0
M  V30 1604 C 153.49 -1.12553 -1.687 0
M  V30 1605 C 153.823 0.329782 -1.91379 0
M  V30 1606 O 153.098 1.24202 -1.4968 0
M  V30 1607 C 153.381 -1.89862 -3.05981 0
M  V30 1608 C 153.234 -3.43318 -2.90607 0
M  V30 1609 C 154.553 -1.69499 -4.0615 0
M  V30 1610 H 151.672 -0.410257 -0.612257 0
M  V30 1611 H 154.314 -1.55685 -1.08913 0
M  V30 1612 H 152.464 -1.53204 -3.57017 0
M  V30 1613 H 154.136 -3.89747 -2.46769 0
M  V30 1614 H 152.379 -3.70179 -2.26164 0
M  V30 1615 H 153.05 -3.92642 -3.8799 0
M  V30 1616 H 155.526 -2.01442 -3.64088 0
M  V30 1617 H 154.402 -2.26002 -5.00214 0
M  V30 1618 H 154.663 -0.640365 -4.37438 0
M  V30 1619 N 153.722 1.14298 -1.08507 0
M  V30 1620 C 154.632 2.23027 -0.727753 0
M  V30 1621 C 155.648 1.71952 0.26619 0
M  V30 1622 O 156.824 2.011 0.109882 0
M  V30 1623 C 153.889 3.46403 -0.143541 0
M  V30 1624 C 152.95 4.12413 -1.19223 0
M  V30 1625 C 152.183 5.29899 -0.635798 0
M  V30 1626 O 152.406 5.67796 0.544393 0
M  V30 1627 O 151.34 5.85717 -1.38634 0
M  V30 1628 H 155.166 2.55945 -1.63481 0
M  V30 1629 H 152.751 1.22248 -0.858817 0
M  V30 1630 H 154.633 4.21018 0.179404 0
M  V30 1631 H 153.308 3.15206 0.736659 0
M  V30 1632 H 152.215 3.39667 -1.56772 0
M  V30 1633 H 153.548 4.47718 -2.04474 0
M  V30 1634 N 155.201 0.870884 1.31352 0
M  V30 1635 C 156.431 0.496049 2.00557 0
M  V30 1636 C 156.839 -0.916241 1.65534 0
M  V30 1637 O 156.182 -1.61188 0.881134 0
M  V30 1638 C 156.244 0.574418 3.54881 0
M  V30 1639 C 155.908 1.94849 4.1338 0
M  V30 1640 C 156.905 2.91611 4.30417 0
M  V30 1641 C 154.59 2.25005 4.49086 0
M  V30 1642 C 156.584 4.16672 4.82352 0
M  V30 1643 C 154.271 3.50315 5.00722 0
M  V30 1644 C 155.269 4.45964 5.17306 0
M  V30 1645 O 154.957 5.69052 5.67833 0
M  V30 1646 H 154.689 0.191664 0.64826 0
M  V30 1647 H 157.243 1.17409 1.68536 0
M  V30 1648 H 155.473 -0.160549 3.86367 0
M  V30 1649 H 157.162 0.212879 4.05341 0
M  V30 1650 H 157.928 2.69622 4.03149 0
M  V30 1651 H 153.807 1.51332 4.35453 0
M  V30 1652 H 157.351 4.91336 4.95211 0
M  V30 1653 H 153.248 3.72147 5.27424 0
M  V30 1654 H 154.016 5.71236 5.86201 0
M  V30 1655 N 156.679 -1.44442 0.630414 0
M  V30 1656 C 157.928 -2.01267 0.132073 0
M  V30 1657 C 158.241 -1.50172 -1.25331 0
M  V30 1658 O 159.447 -1.9912 -1.84562 0
M  V30 1659 C 157.903 -3.59422 0.185362 0
M  V30 1660 C 157.511 -4.19514 1.57201 0
M  V30 1661 C 159.255 -4.23724 -0.256553 0
M  V30 1662 C 157.162 -5.69891 1.58045 0
M  V30 1663 H 156.092 -0.752619 0.0456092 0
M  V30 1664 H 158.743 -1.65666 0.789106 0
M  V30 1665 H 157.125 -3.92318 -0.538759 0
M  V30 1666 H 158.299 -3.98156 2.31966 0
M  V30 1667 H 156.614 -3.67496 1.95795 0
M  V30 1668 H 159.211 -5.34019 -0.269767 0
M  V30 1669 H 159.554 -3.96013 -1.28372 0
M  V30 1670 H 160.087 -3.95629 0.41505 0
M  V30 1671 H 156.826 -6.02336 2.58597 0
M  V30 1672 H 156.346 -5.93373 0.875725 0
M  V30 1673 H 158.025 -6.33515 1.31408 0
M  V30 1674 N 158.157 -0.370918 -1.53173 0
M  V30 1675 C 159.385 0.217704 -2.05751 0
M  V30 1676 C 159.8 1.42018 -1.24404 0
M  V30 1677 O 159.157 1.80245 -0.286033 0
M  V30 1678 C 159.208 0.605954 -3.56385 0
M  V30 1679 O 158.929 -0.548734 -4.3465 0
M  V30 1680 C 160.43 1.2524 -4.25241 0
M  V30 1681 H 157.65 0.0371659 -0.66997 0
M  V30 1682 H 160.194 -0.530832 -1.9749 0
M  V30 1683 H 158.349 1.3044 -3.6478 0
M  V30 1684 H 158.763 -0.23376 -5.23979 0
M  V30 1685 H 160.237 1.47458 -5.3194 0
M  V30 1686 H 160.714 2.2143 -3.79296 0
M  V30 1687 H 161.32 0.595233 -4.21114 0
M  V30 1688 N 159.635 1.57281 -0.100228 0
M  V30 1689 C 161.051 1.57527 0.256416 0
M  V30 1690 C 161.251 1.11173 1.68056 0
M  V30 1691 O 160.307 0.79053 2.39806 0
M  V30 1692 C 161.62 3.00673 0.0401747 0
M  V30 1693 C 163.168 3.12815 0.107528 0
M  V30 1694 C 163.643 4.57929 -0.0807834 0
M  V30 1695 N 165.134 4.63193 -0.0261207 0
M  V30 1696 C 165.869 5.73212 -0.146999 0
M  V30 1697 N 165.365 6.92047 -0.322999 0
M  V30 1698 N 167.158 5.62031 -0.0879044 0
M  V30 1699 H 159.309 1.85718 -1.03065 0
M  V30 1700 H 161.572 0.857446 -0.404339 0
M  V30 1701 H 161.278 3.38804 -0.943649 0
M  V30 1702 H 161.152 3.69042 0.780262 0
M  V30 1703 H 163.539 2.74554 1.08186 0
M  V30 1704 H 163.62 2.47028 -0.664134 0
M  V30 1705 H 163.264 4.96886 -1.05201 0
M  V30 1706 H 163.194 5.21783 0.710635 0
M  V30 1707 H 165.685 3.77748 0.107161 0
M  V30 1708 H 165.998 7.7173 -0.406608 0
M  V30 1709 H 164.343 6.94074 -0.358733 0
M  V30 1710 H 167.534 4.68075 0.048498 0
M  V30 1711 H 167.707 6.47734 -0.185557 0
M  V30 1712 N 161.113 -0.173488 1.56642 0
M  V30 1713 C 162.343 -0.904781 1.85734 0
M  V30 1714 C 162.751 -1.76431 0.68328 0
M  V30 1715 O 162.094 -1.802 -0.356865 0
M  V30 1716 C 162.156 -1.83382 3.09211 0
M  V30 1717 C 161.82 -1.15411 4.42187 0
M  V30 1718 C 162.817 -0.520609 5.17287 0
M  V30 1719 C 160.502 -1.15151 4.88923 0
M  V30 1720 C 162.496 0.106412 6.37311 0
M  V30 1721 C 160.183 -0.520664 6.08878 0
M  V30 1722 C 161.181 0.107196 6.82916 0
M  V30 1723 O 160.869 0.728102 8.00596 0
M  V30 1724 H 160.601 -0.268408 0.62043 0
M  V30 1725 H 163.155 -0.179096 2.04618 0
M  V30 1726 H 161.385 -2.59976 2.86268 0
M  V30 1727 H 163.074 -2.43476 3.24768 0
M  V30 1728 H 163.84 -0.514606 4.82262 0
M  V30 1729 H 159.719 -1.62961 4.31236 0
M  V30 1730 H 163.263 0.597081 6.9504 0
M  V30 1731 H 159.16 -0.524242 6.43368 0
M  V30 1732 H 159.928 0.627138 8.16094 0
M  V30 1733 N 162.591 -1.51276 -0.441967 0
M  V30 1734 C 163.84 -1.6295 -1.18871 0
M  V30 1735 C 164.153 -0.349312 -1.92456 0
M  V30 1736 O 165.359 -0.345355 -2.69295 0
M  V30 1737 C 163.815 -2.87759 -2.16155 0
M  V30 1738 C 163.423 -4.22764 -1.48239 0
M  V30 1739 C 165.167 -3.08788 -2.91291 0
M  V30 1740 C 163.074 -5.38728 -2.4398 0
M  V30 1741 H 162.004 -0.606913 -0.447406 0
M  V30 1742 H 164.655 -1.77739 -0.456205 0
M  V30 1743 H 163.037 -2.66593 -2.92821 0
M  V30 1744 H 164.211 -4.54293 -0.771635 0
M  V30 1745 H 162.526 -4.07575 -0.852741 0
M  V30 1746 H 165.123 -3.92599 -3.63002 0
M  V30 1747 H 165.466 -2.21679 -3.5237 0
M  V30 1748 H 165.999 -3.30272 -2.21733 0
M  V30 1749 H 162.738 -6.28082 -1.87598 0
M  V30 1750 H 162.258 -5.1158 -3.13123 0
M  V30 1751 H 163.937 -5.70489 -3.05207 0
M  V30 1752 N 164.069 0.697108 -1.41344 0
M  V30 1753 C 165.032 1.79281 -1.42797 0
M  V30 1754 C 166.032 1.57607 -0.318837 0
M  V30 1755 O 167.222 1.64309 -0.578642 0
M  V30 1756 C 164.354 3.17632 -1.23785 0
M  V30 1757 H 165.547 1.79385 -2.40335 0
M  V30 1758 H 163.1 0.904582 -1.27464 0
M  V30 1759 H 163.835 3.23167 -0.270814 0
M  V30 1760 H 163.62 3.34765 -2.04144 0
M  V30 1761 H 165.11 3.97617 -1.27633 0
M  V30 1762 N 165.547 1.27147 0.931209 0
M  V30 1763 C 166.772 1.16191 1.71797 0
M  V30 1764 C 167.197 -0.278004 1.86034 0
M  V30 1765 O 166.555 -1.20137 1.35782 0
M  V30 1766 C 166.603 1.84673 3.09723 0
M  V30 1767 O 165.707 1.14231 3.96264 0
M  V30 1768 H 165.048 0.404303 0.526721 0
M  V30 1769 H 167.578 1.68152 1.1656 0
M  V30 1770 H 167.588 1.91893 3.60057 0
M  V30 1771 H 166.263 2.89421 2.98677 0
M  V30 1772 H 164.84 1.15056 3.54706 0
M  V30 1773 N 167.025 -1.13721 1.09112 0
M  V30 1774 C 167.955 -2.21148 0.749385 0
M  V30 1775 C 168.936 -1.6792 -0.271475 0
M  V30 1776 O 170.121 -1.93693 -0.140251 0
M  V30 1777 C 167.251 -3.46905 0.165659 0
M  V30 1778 C 166.205 -4.13203 1.11567 0
M  V30 1779 C 165.531 -5.33248 0.393809 0
M  V30 1780 C 166.831 -4.60912 2.45678 0
M  V30 1781 H 168.525 -2.4999 1.64758 0
M  V30 1782 H 166.071 -1.20156 0.793626 0
M  V30 1783 H 168.024 -4.21313 -0.085466 0
M  V30 1784 H 166.748 -3.17449 -0.767714 0
M  V30 1785 H 165.407 -3.40758 1.35202 0
M  V30 1786 H 165.055 -5.00054 -0.543599 0
M  V30 1787 H 164.755 -5.78552 1.02721 0
M  V30 1788 H 166.279 -6.10413 0.150908 0
M  V30 1789 H 167.693 -5.26759 2.26269 0
M  V30 1790 H 166.09 -5.16944 3.04776 0
M  V30 1791 H 167.16 -3.75603 3.06677 0
M  V30 1792 N 168.503 -0.877838 -1.30888 0
M  V30 1793 C 169.45 -0.337538 -2.28318 0
M  V30 1794 C 170.42 0.568346 -1.56074 0
M  V30 1795 O 171.605 0.498298 -1.84178 0
M  V30 1796 C 168.745 0.448142 -3.42178 0
M  V30 1797 C 167.858 -0.48615 -4.29256 0
M  V30 1798 C 166.993 0.314427 -5.30269 0
M  V30 1799 C 166.032 -0.615791 -6.08995 0
M  V30 1800 N 165.169 0.14902 -7.01942 0
M  V30 1801 H 170.009 -1.17356 -2.73919 0
M  V30 1802 H 167.546 -0.590094 -1.34745 0
M  V30 1803 H 169.504 0.919517 -4.06941 0
M  V30 1804 H 168.134 1.24879 -2.97666 0
M  V30 1805 H 167.186 -1.076 -3.64865 0
M  V30 1806 H 168.498 -1.19909 -4.84173 0
M  V30 1807 H 167.652 0.847969 -6.00745 0
M  V30 1808 H 166.391 1.06062 -4.76027 0
M  V30 1809 H 165.396 -1.16102 -5.37401 0
M  V30 1810 H 166.621 -1.36097 -6.65323 0
M  V30 1811 H 164.567 0.877884 -6.50099 0
M  V30 1812 H 164.484 -0.504433 -7.54315 0
M  V30 1813 H 165.752 0.663537 -7.76671 0
M  V30 1814 N 169.982 1.44106 -0.638065 0
M  V30 1815 C 170.914 2.28976 0.101205 0
M  V30 1816 C 171.927 1.4167 0.802088 0
M  V30 1817 O 173.116 1.65755 0.662375 0
M  V30 1818 C 170.216 3.18217 1.16581 0
M  V30 1819 C 169.389 4.33978 0.546066 0
M  V30 1820 C 168.448 5.04202 1.50554 0
M  V30 1821 O 167.474 5.59986 1.01999 0
M  V30 1822 N 168.676 5.06296 2.8398 0
M  V30 1823 H 171.441 2.93064 -0.627186 0
M  V30 1824 H 169.002 1.54629 -0.479731 0
M  V30 1825 H 170.994 3.62061 1.80815 0
M  V30 1826 H 169.564 2.55833 1.79634 0
M  V30 1827 H 168.784 3.93239 -0.275046 0
M  V30 1828 H 170.072 5.08675 0.112793 0
M  V30 1829 H 169.47 4.62319 3.26002 0
M  V30 1830 H 168.027 5.53907 3.43556 0
M  V30 1831 N 171.46 0.379036 1.52974 0
M  V30 1832 C 172.876 0.0285448 1.59574 0
M  V30 1833 C 173.076 -1.45542 1.39355 0
M  V30 1834 O 172.132 -2.2187 1.20541 0
M  V30 1835 C 173.445 0.496535 2.96572 0
M  V30 1836 C 174.993 0.451909 3.0972 0
M  V30 1837 C 175.468 0.895924 4.49152 0
M  V30 1838 N 176.959 0.851522 4.55306 0
M  V30 1839 C 177.694 1.16661 5.61407 0
M  V30 1840 N 177.19 1.55166 6.752 0
M  V30 1841 N 178.983 1.08853 5.51459 0
M  V30 1842 H 171.134 1.34525 1.64367 0
M  V30 1843 H 173.397 0.550733 0.771619 0
M  V30 1844 H 173.103 1.53258 3.16552 0
M  V30 1845 H 172.977 -0.109802 3.7704 0
M  V30 1846 H 175.364 -0.575029 2.89443 0
M  V30 1847 H 175.445 1.09392 2.3123 0
M  V30 1848 H 175.089 1.92104 4.70168 0
M  V30 1849 H 175.019 0.23103 5.26093 0
M  V30 1850 H 177.51 0.568038 3.73606 0
M  V30 1851 H 177.823 1.776 7.52116 0
M  V30 1852 H 176.168 1.59044 6.76557 0
M  V30 1853 H 179.359 0.786803 4.6144 0
M  V30 1854 H 179.532 1.33742 6.34048 0
M  V30 1855 N 172.938 -1.57226 0.108567 0
M  V30 1856 C 174.168 -1.9889 -0.559142 0
M  V30 1857 C 174.576 -0.986889 -1.61422 0
M  V30 1858 O 173.919 0.0298705 -1.83676 0
M  V30 1859 C 173.981 -3.36952 -1.25315 0
M  V30 1860 C 173.645 -4.55679 -0.347248 0
M  V30 1861 C 174.642 -5.18281 0.409996 0
M  V30 1862 C 172.327 -5.0162 -0.261367 0
M  V30 1863 C 174.321 -6.25203 1.24096 0
M  V30 1864 C 172.008 -6.08405 0.573238 0
M  V30 1865 C 173.006 -6.70063 1.32304 0
M  V30 1866 O 172.694 -7.74788 2.14381 0
M  V30 1867 H 172.426 -0.658343 -0.153492 0
M  V30 1868 H 174.98 -2.04532 0.188584 0
M  V30 1869 H 173.21 -3.28032 -2.04773 0
M  V30 1870 H 174.899 -3.62974 -1.81673 0
M  V30 1871 H 175.665 -4.8371 0.353457 0
M  V30 1872 H 171.544 -4.53381 -0.834656 0
M  V30 1873 H 175.088 -6.73259 1.82669 0
M  V30 1874 H 170.985 -6.42406 0.631208 0
M  V30 1875 H 171.753 -7.91837 2.07209 0
M  V30 1876 N 174.416 0.165178 -1.56732 0
M  V30 1877 C 175.644 0.896218 -1.86482 0
M  V30 1878 C 176.059 1.75555 -0.694675 0
M  V30 1879 O 175.416 1.79379 0.33607 0
M  V30 1880 C 175.467 1.76792 -3.1532 0
M  V30 1881 O 175.188 0.943239 -4.27825 0
M  V30 1882 C 176.689 2.6081 -3.58459 0
M  V30 1883 H 173.909 0.260064 -0.618553 0
M  V30 1884 H 176.453 0.163428 -2.03846 0
M  V30 1885 H 174.608 2.45398 -2.99764 0
M  V30 1886 H 175.022 1.53998 -5.01383 0
M  V30 1887 H 176.496 3.17579 -4.51495 0
M  V30 1888 H 176.973 3.35977 -2.82872 0
M  V30 1889 H 177.579 1.97526 -3.76648 0
M  V30 1890 N 175.894 1.51508 0.433938 0
M  V30 1891 C 176.826 1.69266 1.54537 0
M  V30 1892 C 177.839 0.573276 1.52373 0
M  V30 1893 O 179.028 0.847698 1.57087 0
M  V30 1894 C 176.128 1.69524 2.93453 0
M  V30 1895 C 175.301 2.98101 3.20085 0
M  V30 1896 C 174.36 2.90502 4.38742 0
M  V30 1897 O 173.386 3.64442 4.3723 0
M  V30 1898 N 174.588 2.06586 5.42496 0
M  V30 1899 H 177.353 2.65145 1.39708 0
M  V30 1900 H 174.914 1.49437 0.622922 0
M  V30 1901 H 176.906 1.62004 3.70859 0
M  V30 1902 H 175.476 0.812245 3.01863 0
M  V30 1903 H 174.696 3.19464 2.30947 0
M  V30 1904 H 175.984 3.83207 3.34708 0
M  V30 1905 H 175.382 1.45896 5.46563 0
M  V30 1906 H 173.939 2.04943 6.18742 0
M  V30 1907 N 177.372 -0.689602 1.41712 0
M  V30 1908 C 178.597 -1.48329 1.44959 0
M  V30 1909 C 179.022 -1.8801 0.0581283 0
M  V30 1910 O 178.38 -1.55026 -0.940035 0
M  V30 1911 C 178.428 -2.71835 2.36935 0
M  V30 1912 O 177.532 -3.69549 1.8305 0
M  V30 1913 H 176.873 -0.446199 0.491734 0
M  V30 1914 H 179.403 -0.847127 1.86239 0
M  V30 1915 H 179.413 -3.20076 2.53013 0
M  V30 1916 H 178.088 -2.42291 3.38035 0
M  V30 1917 H 176.665 -3.2851 1.76452 0
M  V30 1918 N 178.85 -1.27639 -0.924453 0
M  V30 1919 C 179.798 -1.10485 -2.04685 0
M  V30 1920 C 180.792 -0.0270421 -1.69378 0
M  V30 1921 O 181.998 -0.185008 -1.79047 0
M  V30 1922 H 178.373 -0.340546 -0.670472 0
M  V30 1923 H 180.344 -2.05566 -2.16298 0
M  V30 1924 C 179.093 -0.772229 -3.39016 0
M  V30 1925 H 178.416 -1.59351 -3.66671 0
M  V30 1926 H 179.856 -0.692097 -4.18313 0
M  V30 1927 C 178.315 0.523554 -3.32807 0
M  V30 1928 O 178.845 1.55702 -3.70297 0
M  V30 1929 N 177.051 0.520363 -2.85903 0
M  V30 1930 H 176.598 -0.32107 -2.55591 0
M  V30 1931 H 176.556 1.38742 -2.82131 0
M  V30 1932 N 180.328 1.1314 -1.09713 0
M  V30 1933 C 181.576 1.84119 -0.833338 0
M  V30 1934 C 181.897 1.84097 0.642904 0
M  V30 1935 O 181.167 1.29881 1.46655 0
M  V30 1936 H 179.747 0.681766 -0.305293 0
M  V30 1937 H 182.409 1.37038 -1.38588 0
M  V30 1938 H 181.505 2.88543 -1.18951 0
M  V30 1939 N 181.806 0.884767 1.30421 0
M  V30 1940 C 183.222 0.57874 1.48737 0
M  V30 1941 C 183.422 -0.883567 1.81095 0
M  V30 1942 O 182.478 -1.6648 1.89844 0
M  V30 1943 C 183.791 1.49171 2.61091 0
M  V30 1944 C 185.339 1.49532 2.74971 0
M  V30 1945 C 185.814 2.39421 3.90438 0
M  V30 1946 N 187.305 2.37383 3.97748 0
M  V30 1947 C 188.04 3.03647 4.86401 0
M  V30 1948 N 187.536 3.79136 5.79852 0
M  V30 1949 N 189.329 2.9288 4.79768 0
M  V30 1950 H 181.48 1.83075 1.0769 0
M  V30 1951 H 183.743 0.783637 0.533495 0
M  V30 1952 H 183.449 2.53291 2.44001 0
M  V30 1953 H 183.323 1.20113 3.57565 0
M  V30 1954 H 185.71 0.46163 2.91467 0
M  V30 1955 H 185.791 1.8262 1.79119 0
M  V30 1956 H 185.435 3.42874 3.74699 0
M  V30 1957 H 185.365 2.03649 4.85628 0
M  V30 1958 H 187.856 1.82525 3.30897 0
M  V30 1959 H 188.169 4.26789 6.4426 0
M  V30 1960 H 186.514 3.83243 5.79784 0
M  V30 1961 H 189.705 2.33433 4.05742 0
M  V30 1962 H 189.878 3.448 5.4865 0
M  V30 1963 N 183.284 -1.43765 0.645699 0
M  V30 1964 C 184.7 -1.56509 0.312591 0
M  V30 1965 C 184.9 -1.6307 -1.18365 0
M  V30 1966 O 183.956 -1.58167 -1.96824 0
M  V30 1967 C 185.269 -2.82968 1.01733 0
M  V30 1968 C 186.817 -2.96701 0.996865 0
M  V30 1969 C 187.292 -4.25982 1.68236 0
M  V30 1970 N 188.783 -4.32829 1.64964 0
M  V30 1971 C 189.518 -5.31613 2.14885 0
M  V30 1972 N 189.014 -6.36718 2.73061 0
M  V30 1973 N 190.807 -5.23217 2.05428 0
M  V30 1974 H 182.958 -1.3775 1.61675 0
M  V30 1975 H 185.221 -0.661067 0.679481 0
M  V30 1976 H 184.927 -2.84156 2.0724 0
M  V30 1977 H 184.801 -3.72957 0.564177 0
M  V30 1978 H 187.188 -2.95058 -0.0497719 0
M  V30 1979 H 187.269 -2.08022 1.48865 0
M  V30 1980 H 186.913 -4.28386 2.72852 0
M  V30 1981 H 186.843 -5.13545 1.16529 0
M  V30 1982 H 189.334 -3.57493 1.22503 0
M  V30 1983 H 189.647 -7.08401 3.08848 0
M  V30 1984 H 187.992 -6.37362 2.77118 0
M  V30 1985 H 191.183 -4.40019 1.59689 0
M  V30 1986 H 191.356 -6.00045 2.44643 0
M  V30 1987 N 184.763 -0.387143 -1.52771 0
M  V30 1988 C 186.174 0.0873634 -1.86495 0
M  V30 1989 C 186.525 1.46336 -1.30691 0
M  V30 1990 O 185.65 2.068 -0.637409 0
M  V30 1991 C 186.245 0.165305 -3.38396 0
M  V30 1992 C 184.804 0.584101 -3.7184 0
M  V30 1993 C 183.951 -0.255279 -2.76122 0
M  V30 1994 H 186.902 -0.605104 -1.46711 0
M  V30 1995 H 186.923 0.984848 -3.67534 0
M  V30 1996 H 186.435 -0.836301 -3.78982 0
M  V30 1997 H 184.536 1.59315 -3.36823 0
M  V30 1998 H 184.649 0.343749 -4.77865 0
M  V30 1999 H 183.013 0.279126 -2.53166 0
M  V30 2000 H 183.796 -1.25482 -3.19545 0
M  V30 2001 N 186.241 1.57166 -0.116904 0
M  V30 2002 C 187.488 1.95123 0.541603 0
M  V30 2003 C 187.816 1.00006 1.6682 0
M  V30 2004 O 187.071 0.0235658 1.95686 0
M  V30 2005 C 187.37 3.39508 1.11664 0
M  V30 2006 C 187.036 4.50762 0.111606 0
M  V30 2007 C 185.698 4.80918 -0.164758 0
M  V30 2008 C 188.05 5.18036 -0.573438 0
M  V30 2009 C 185.378 5.75666 -1.13249 0
M  V30 2010 C 187.73 6.13824 -1.52978 0
M  V30 2011 C 186.394 6.42374 -1.81415 0
M  V30 2012 H 185.664 0.714005 0.198187 0
M  V30 2013 H 188.311 1.9048 -0.197365 0
M  V30 2014 H 186.616 3.40835 1.93232 0
M  V30 2015 H 188.313 3.66189 1.63422 0
M  V30 2016 H 184.903 4.27272 0.337192 0
M  V30 2017 H 189.087 4.94896 -0.373092 0
M  V30 2018 H 184.343 5.96092 -1.35958 0
M  V30 2019 H 188.517 6.65039 -2.06629 0
M  V30 2020 H 186.144 7.15599 -2.56557 0
M  V30 2021 N 187.719 -0.156864 1.56817 0
M  V30 2022 C 188.967 -0.869404 1.82444 0
M  V30 2023 C 189.288 -1.82147 0.69623 0
M  V30 2024 O 188.558 -1.93847 -0.28287 0
M  V30 2025 H 187.138 -0.324043 0.673056 0
M  V30 2026 H 189.8 -0.153224 1.94297 0
M  V30 2027 H 188.896 -1.43761 2.77019 0
M  V30 2028 N 189.197 -1.51736 -0.425897 0
M  V30 2029 C 190.446 -1.64201 -1.17136 0
M  V30 2030 C 190.759 -0.369705 -1.92074 0
M  V30 2031 O 191.965 -0.373898 -2.68913 0
M  V30 2032 C 190.421 -2.90035 -2.13091 0
M  V30 2033 C 190.029 -4.24312 -1.43747 0
M  V30 2034 C 191.773 -3.1186 -2.87999 0
M  V30 2035 C 189.68 -5.41285 -2.38253 0
M  V30 2036 H 188.61 -0.611624 -0.440944 0
M  V30 2037 H 191.261 -1.78212 -0.437328 0
M  V30 2038 H 189.643 -2.69684 -2.89977 0
M  V30 2039 H 190.817 -4.55086 -0.723408 0
M  V30 2040 H 189.132 -4.08456 -0.809465 0
M  V30 2041 H 191.729 -3.96427 -3.58817 0
M  V30 2042 H 192.072 -2.25403 -3.49999 0
M  V30 2043 H 192.605 -3.32605 -2.18217 0
M  V30 2044 H 189.344 -6.30037 -1.80925 0
M  V30 2045 H 188.864 -5.14872 -3.0768 0
M  V30 2046 H 190.543 -5.73694 -2.99139 0
M  V30 2047 N 190.675 0.682077 -1.42076 0
M  V30 2048 C 191.9 1.47558 -1.45744 0
M  V30 2049 C 192.325 1.87977 -0.0680981 0
M  V30 2050 O 191.683 1.55522 0.9318 0
M  V30 2051 C 191.731 2.70575 -2.38373 0
M  V30 2052 O 190.835 3.68573 -1.85007 0
M  V30 2053 H 190.176 0.443585 -0.494093 0
M  V30 2054 H 192.706 0.837238 -1.86686 0
M  V30 2055 H 192.716 3.18729 -2.54707 0
M  V30 2056 H 191.391 2.40495 -3.39315 0
M  V30 2057 H 189.968 3.2757 -1.78192 0
M  V30 2058 N 192.153 1.28127 0.917671 0
M  V30 2059 C 193.116 1.11744 2.00115 0
M  V30 2060 C 194.116 0.0583052 1.60694 0
M  V30 2061 O 195.306 0.303755 1.71531 0
M  V30 2062 C 192.438 0.704862 3.33533 0
M  V30 2063 H 193.631 2.07966 2.16079 0
M  V30 2064 H 191.184 1.11058 1.09981 0
M  V30 2065 H 191.919 -0.258299 3.2327 0
M  V30 2066 H 191.704 1.4699 3.63505 0
M  V30 2067 H 193.194 0.612768 4.1308 0
M  V30 2068 N 193.631 -1.12557 1.10312 0
M  V30 2069 C 194.561 -2.20341 0.772798 0
M  V30 2070 C 195.542 -1.68198 -0.25365 0
M  V30 2071 O 196.727 -1.93831 -0.119699 0
M  V30 2072 C 193.857 -3.46709 0.202443 0
M  V30 2073 C 192.811 -4.11996 1.15943 0
M  V30 2074 C 192.137 -5.328 0.450345 0
M  V30 2075 C 193.437 -4.5828 2.50552 0
M  V30 2076 H 195.131 -2.48229 1.674 0
M  V30 2077 H 192.677 -1.19308 0.806326 0
M  V30 2078 H 194.63 -4.2138 -0.0407752 0
M  V30 2079 H 193.354 -3.18245 -0.734001 0
M  V30 2080 H 192.013 -3.39305 1.38808 0
M  V30 2081 H 191.661 -5.00602 -0.490531 0
M  V30 2082 H 191.361 -5.7743 1.08851 0
M  V30 2083 H 192.885 -6.10219 0.215642 0
M  V30 2084 H 194.299 -5.2433 2.31843 0
M  V30 2085 H 192.696 -5.13683 3.10242 0
M  V30 2086 H 193.766 -3.72329 3.10643 0
M  V30 2087 N 195.109 -0.891671 -1.2995 0
M  V30 2088 C 196.358 -0.509521 -1.95158 0
M  V30 2089 C 196.671 0.947388 -1.71125 0
M  V30 2090 O 197.877 1.43669 -2.30372 0
M  V30 2091 C 196.333 -0.860315 -3.49466 0
M  V30 2092 C 195.941 -2.33545 -3.8231 0
M  V30 2093 C 197.685 -0.547687 -4.20952 0
M  V30 2094 C 195.592 -2.62752 -5.29826 0
M  V30 2095 H 194.522 -0.18682 -0.730489 0
M  V30 2096 H 197.173 -1.08756 -1.47798 0
M  V30 2097 H 195.555 -0.211285 -3.95436 0
M  V30 2098 H 196.729 -3.02936 -3.47227 0
M  V30 2099 H 195.044 -2.61629 -3.23944 0
M  V30 2100 H 197.641 -0.742854 -5.29515 0
M  V30 2101 H 197.984 0.51332 -4.13123 0
M  V30 2102 H 198.517 -1.1542 -3.80688 0
M  V30 2103 H 195.256 -3.6762 -5.42712 0
M  V30 2104 H 194.776 -1.97977 -5.66185 0
M  V30 2105 H 196.455 -2.48601 -5.97333 0
M  V30 2106 N 196.587 1.43421 -0.653314 0
M  V30 2107 C 197.833 2.02111 -0.166992 0
M  V30 2108 C 198.166 1.51423 1.21592 0
M  V30 2109 O 197.441 0.707389 1.8118 0
M  V30 2110 C 197.724 3.5966 -0.177948 0
M  V30 2111 C 197.577 4.20579 -1.59478 0
M  V30 2112 C 198.896 4.37413 0.4856 0
M  V30 2113 H 196.015 0.734374 -0.0621557 0
M  V30 2114 H 198.657 1.70717 -0.834016 0
M  V30 2115 H 196.807 3.86537 0.390032 0
M  V30 2116 H 198.479 4.04732 -2.21336 0
M  V30 2117 H 196.722 3.77226 -2.14204 0
M  V30 2118 H 197.393 5.29665 -1.5543 0
M  V30 2119 H 199.869 4.161 0.00234528 0
M  V30 2120 H 198.745 5.47075 0.447207 0
M  V30 2121 H 199.006 4.13672 1.55974 0
M  V30 2122 N 198.065 0.39524 1.52563 0
M  V30 2123 C 199.313 -0.184678 2.01254 0
M  V30 2124 C 199.634 -1.46822 1.28329 0
M  V30 2125 O 198.904 -1.91666 0.405094 0
M  V30 2126 H 197.484 -0.0712355 0.743596 0
M  V30 2127 H 200.146 0.528293 1.87603 0
M  V30 2128 H 199.242 -0.390681 3.09645 0
M  V30 2129 N 199.544 -1.57102 0.125237 0
M  V30 2130 C 200.791 -1.95407 -0.531248 0
M  V30 2131 C 201.119 -1.0089 -1.66287 0
M  V30 2132 O 200.374 -0.0339431 -1.95671 0
M  V30 2133 C 200.673 -3.40096 -1.09862 0
M  V30 2134 C 200.339 -4.50815 -0.0876989 0
M  V30 2135 C 199.001 -4.80824 0.19026 0
M  V30 2136 C 201.353 -5.17724 0.600902 0
M  V30 2137 C 198.681 -5.75058 1.163 0
M  V30 2138 C 201.033 -6.13005 1.56231 0
M  V30 2139 C 199.697 -6.41403 1.8482 0
M  V30 2140 H 198.967 -0.715046 -0.194397 0
M  V30 2141 H 201.614 -1.90373 0.207463 0
M  V30 2142 H 199.919 -3.41855 -1.91422 0
M  V30 2143 H 201.616 -3.6705 -1.61478 0
M  V30 2144 H 198.206 -4.27444 -0.314528 0
M  V30 2145 H 202.39 -4.94691 0.399333 0
M  V30 2146 H 197.646 -5.95362 1.39117 0
M  V30 2147 H 201.82 -6.63934 2.10153 0
M  V30 2148 H 199.447 -7.14229 2.60349 0
M  V30 2149 N 201.022 0.148545 -1.56898 0
M  V30 2150 C 202.299 0.890019 -1.74178 0
M  V30 2151 C 202.679 1.99407 -0.692839 0
M  V30 2152 O 202.027 2.26671 0.288505 0
M  V30 2153 C 202.237 1.43389 -3.18183 0
M  V30 2154 C 203.585 1.89791 -3.79822 0
M  V30 2155 O 204.609 1.53134 -3.21603 0
M  V30 2156 O 203.468 2.57387 -4.82093 0
M  V30 2157 H 200.562 0.420496 -0.712118 0
M  V30 2158 H 203.108 0.134591 -1.69165 0
M  V30 2159 H 201.88 0.640383 -3.86024 0
M  V30 2160 H 201.503 2.25287 -3.27615 0
M  V30 2161 N 202.5 1.5196 0.417844 0
M  V30 2162 C 203.747 1.65591 1.16559 0
M  V30 2163 C 204.075 0.381565 1.90721 0
M  V30 2164 O 203.33 -0.635156 1.85106 0
M  V30 2165 C 203.629 2.82269 2.19223 0
M  V30 2166 C 203.295 4.20819 1.61933 0
M  V30 2167 C 201.957 4.58506 1.46033 0
M  V30 2168 C 204.309 5.07196 1.20008 0
M  V30 2169 C 201.637 5.80257 0.867113 0
M  V30 2170 C 203.989 6.29544 0.621086 0
M  V30 2171 C 202.653 6.65987 0.449144 0
M  V30 2172 H 201.923 0.605939 0.42652 0
M  V30 2173 H 204.57 1.86041 0.45397 0
M  V30 2174 H 202.875 2.56118 2.96498 0
M  V30 2175 H 204.572 2.90012 2.76936 0
M  V30 2176 H 201.162 3.91116 1.7529 0
M  V30 2177 H 205.346 4.7867 1.31105 0
M  V30 2178 H 200.602 6.07124 0.721833 0
M  V30 2179 H 204.776 6.95805 0.287798 0
M  V30 2180 H 202.403 7.60199 -0.012632 0
M  V30 2181 N 203.978 -0.674533 1.42435 0
M  V30 2182 C 205.255 -1.4305 1.33402 0
M  V30 2183 C 205.635 -2.11081 -0.0284674 0
M  V30 2184 O 204.983 -2.03257 -1.04397 0
M  V30 2185 C 205.193 -2.43272 2.50239 0
M  V30 2186 C 206.541 -3.07907 2.92367 0
M  V30 2187 O 207.565 -2.53599 2.50132 0
M  V30 2188 O 206.424 -4.0632 3.65467 0
M  V30 2189 H 203.518 -0.638076 0.526106 0
M  V30 2190 H 206.064 -0.703235 1.54443 0
M  V30 2191 H 204.836 -1.91803 3.41068 0
M  V30 2192 H 204.459 -3.23479 2.31186 0
M  V30 2193 N 205.456 -1.28612 -0.910864 0
M  V30 2194 C 206.704 -1.15705 -1.65701 0
M  V30 2195 C 207.025 0.29416 -1.92769 0
M  V30 2196 O 206.295 1.20331 -1.54588 0
M  V30 2197 H 204.875 -0.425216 -0.614167 0
M  V30 2198 H 207.537 -1.61381 -1.0928 0
M  V30 2199 H 206.633 -1.6988 -2.61815 0
M  V30 2200 N 206.934 1.1197 -1.10907 0
M  V30 2201 C 208.162 1.87402 -0.876824 0
M  V30 2202 C 208.577 1.79894 0.573025 0
M  V30 2203 O 207.934 1.17629 1.39534 0
M  V30 2204 C 207.985 3.36428 -1.32282 0
M  V30 2205 O 207.706 3.43765 -2.71582 0
M  V30 2206 C 209.207 4.28783 -1.12518 0
M  V30 2207 H 206.427 0.592793 -0.314384 0
M  V30 2208 H 208.971 1.41649 -1.47499 0
M  V30 2209 H 207.126 3.79706 -0.768229 0
M  V30 2210 H 207.54 4.3652 -2.90776 0
M  V30 2211 H 209.014 5.31613 -1.48633 0
M  V30 2212 H 209.491 4.39153 -0.0642394 0
M  V30 2213 H 210.097 3.91291 -1.66648 0
M  V30 2214 N 208.412 0.89855 1.29475 0
M  V30 2215 C 209.823 0.572537 1.77705 0
M  V30 2216 C 210.174 -0.911778 1.73727 0
M  V30 2217 O 209.299 -1.71288 1.32247 0
M  V30 2218 C 209.894 1.03252 3.22683 0
M  V30 2219 C 208.453 0.757687 3.68695 0
M  V30 2220 C 207.6 1.20787 2.49612 0
M  V30 2221 H 210.551 1.08139 1.16153 0
M  V30 2222 H 210.572 0.367307 3.78723 0
M  V30 2223 H 210.084 2.11285 3.25546 0
M  V30 2224 H 208.185 -0.310079 3.71308 0
M  V30 2225 H 208.298 1.35476 4.59547 0
M  V30 2226 H 206.662 0.626888 2.46865 0
M  V30 2227 H 207.445 2.29622 2.55203 0
M  V30 2228 N 209.89 -1.43072 0.660911 0
M  V30 2229 C 211.306 -1.56169 0.329173 0
M  V30 2230 C 211.506 -1.64317 -1.16629 0
M  V30 2231 O 210.562 -1.60245 -1.95135 0
M  V30 2232 C 211.875 -2.81873 1.04729 0
M  V30 2233 C 213.423 -2.95627 1.02828 0
M  V30 2234 C 213.898 -4.24174 1.72744 0
M  V30 2235 N 215.389 -4.31055 1.69545 0
M  V30 2236 C 216.124 -5.29304 2.20511 0
M  V30 2237 N 215.62 -6.33786 2.79799 0
M  V30 2238 N 217.413 -5.21008 2.10966 0
M  V30 2239 H 209.564 -1.36027 1.63127 0
M  V30 2240 H 211.827 -0.653823 0.686454 0
M  V30 2241 H 211.533 -2.81942 2.10242 0
M  V30 2242 H 211.407 -3.72338 0.603702 0
M  V30 2243 H 213.794 -2.95094 -0.0184742 0
M  V30 2244 H 213.875 -2.06431 1.51063 0
M  V30 2245 H 213.519 -4.25467 2.7738 0
M  V30 2246 H 213.449 -5.1228 1.2197 0
M  V30 2247 H 215.94 -3.56174 1.26288 0
M  V30 2248 H 216.253 -7.05086 3.16344 0
M  V30 2249 H 214.598 -6.34387 2.83863 0
M  V30 2250 H 217.789 -4.38301 1.64347 0
M  V30 2251 H 217.962 -5.97416 2.50993 0
M  V30 2252 N 211.368 -0.403325 -1.52352 0
M  V30 2253 C 212.298 0.416205 -2.29761 0
M  V30 2254 C 213.279 1.05123 -1.33728 0
M  V30 2255 O 214.464 1.06134 -1.62632 0
M  V30 2256 C 211.594 1.53624 -3.11475 0
M  V30 2257 C 210.548 1.02653 -4.15507 0
M  V30 2258 C 209.874 2.23971 -4.85532 0
M  V30 2259 C 211.174 0.08463 -5.22231 0
M  V30 2260 H 212.868 -0.229701 -2.98518 0
M  V30 2261 H 210.414 -0.111913 -1.43564 0
M  V30 2262 H 212.367 2.1165 -3.64393 0
M  V30 2263 H 211.091 2.20994 -2.40477 0
M  V30 2264 H 209.75 0.46871 -3.63591 0
M  V30 2265 H 209.398 2.89883 -4.11068 0
M  V30 2266 H 209.098 1.90521 -5.55856 0
M  V30 2267 H 210.622 2.82614 -5.41259 0
M  V30 2268 H 212.036 0.573509 -5.70424 0
M  V30 2269 H 210.433 -0.160783 -5.99885 0
M  V30 2270 H 211.503 -0.86237 -4.7717 0
M  V30 2271 N 212.846 1.57033 -0.133567 0
M  V30 2272 C 214.076 1.99754 0.527429 0
M  V30 2273 C 214.484 1.01245 1.59832 0
M  V30 2274 O 213.827 -0.000645496 1.837 0
M  V30 2275 C 213.889 3.38903 1.19939 0
M  V30 2276 C 213.553 4.56174 0.274709 0
M  V30 2277 C 214.55 5.17563 -0.492398 0
M  V30 2278 C 212.235 5.01972 0.18153 0
M  V30 2279 C 214.229 6.2315 -1.34027 0
M  V30 2280 C 211.916 6.07416 -0.669958 0
M  V30 2281 C 212.914 6.67874 -1.42947 0
M  V30 2282 O 212.602 7.71279 -2.2668 0
M  V30 2283 H 212.334 0.660702 0.142999 0
M  V30 2284 H 214.888 2.04207 -0.221099 0
M  V30 2285 H 213.118 3.31248 1.99528 0
M  V30 2286 H 214.807 3.65818 1.75875 0
M  V30 2287 H 215.573 4.83087 -0.430367 0
M  V30 2288 H 211.452 4.54652 0.762422 0
M  V30 2289 H 214.996 6.70268 -1.93357 0
M  V30 2290 H 210.893 6.41321 -0.73333 0
M  V30 2291 H 211.661 7.88441 -2.1978 0
M  V30 2292 N 214.325 -0.140222 1.56975 0
M  V30 2293 C 215.257 -1.19818 1.95388 0
M  V30 2294 C 216.27 -1.38816 0.850525 0
M  V30 2295 O 217.459 -1.38267 1.12891 0
M  V30 2296 C 214.559 -2.56189 2.21857 0
M  V30 2297 C 213.732 -2.58077 3.5315 0
M  V30 2298 C 212.791 -3.76037 3.6808 0
M  V30 2299 O 211.817 -3.60598 4.40406 0
M  V30 2300 N 213.019 -4.93763 3.05251 0
M  V30 2301 H 215.784 -0.871609 2.86746 0
M  V30 2302 H 213.345 -0.32972 1.58507 0
M  V30 2303 H 215.337 -3.33623 2.2908 0
M  V30 2304 H 213.907 -2.81111 1.36731 0
M  V30 2305 H 213.127 -1.6651 3.57307 0
M  V30 2306 H 214.415 -2.56377 4.39486 0
M  V30 2307 H 213.813 -5.09209 2.46419 0
M  V30 2308 H 212.37 -5.68949 3.18026 0
M  V30 2309 N 215.803 -1.52179 -0.40978 0
M  V30 2310 C 217.031 -1.70054 -1.17853 0
M  V30 2311 C 217.446 -0.409735 -1.843 0
M  V30 2312 O 216.803 0.614183 -1.71855 0
M  V30 2313 C 216.854 -2.83568 -2.24213 0
M  V30 2314 O 216.575 -4.0765 -1.60478 0
M  V30 2315 C 218.076 -3.12947 -3.13973 0
M  V30 2316 H 215.296 -0.569917 -0.354169 0
M  V30 2317 H 217.84 -1.98734 -0.482198 0
M  V30 2318 H 215.995 -2.57409 -2.89516 0
M  V30 2319 H 216.409 -4.70899 -2.30986 0
M  V30 2320 H 217.883 -3.95889 -3.84677 0
M  V30 2321 H 218.36 -2.26472 -3.76307 0
M  V30 2322 H 218.966 -3.40868 -2.5434 0
M  V30 2323 N 217.281 0.66697 -1.42791 0
M  V30 2324 C 218.558 1.4234 -1.34159 0
M  V30 2325 C 218.938 2.11093 0.0172729 0
M  V30 2326 O 218.286 2.03808 1.03318 0
M  V30 2327 C 218.496 2.41942 -2.51526 0
M  V30 2328 C 219.844 3.06353 -2.93995 0
M  V30 2329 O 220.868 2.52269 -2.51473 0
M  V30 2330 O 219.727 4.04376 -3.67617 0
M  V30 2331 H 216.821 0.635277 -0.529483 0
M  V30 2332 H 219.367 0.695034 -1.54814 0
M  V30 2333 H 218.139 1.89991 -3.42081 0
M  V30 2334 H 217.762 3.22249 -2.32898 0
M  V30 2335 N 218.759 1.29093 0.90403 0
M  V30 2336 C 220.17 1.15186 1.46932 0
M  V30 2337 C 220.521 -0.254587 1.94541 0
M  V30 2338 O 219.646 -1.14972 1.83332 0
M  V30 2339 C 220.241 2.08492 2.67051 0
M  V30 2340 C 218.8 1.98621 3.19729 0
M  V30 2341 C 217.947 1.9967 1.92425 0
M  V30 2342 H 220.898 1.41641 0.715789 0
M  V30 2343 H 220.919 1.65461 3.42641 0
M  V30 2344 H 220.431 3.10847 2.3237 0
M  V30 2345 H 218.532 0.993389 3.59114 0
M  V30 2346 H 218.645 2.86068 3.8432 0
M  V30 2347 H 217.009 1.44208 2.09943 0
M  V30 2348 H 217.792 3.03721 1.60026 0
M  V30 2349 N 220.237 -1.11381 1.11499 0
M  V30 2350 C 221.462 -1.87475 0.887019 0
M  V30 2351 C 221.887 -1.79639 -0.557796 0
M  V30 2352 O 221.245 -1.15924 -1.39396 0
M  V30 2353 C 221.293 -3.34213 1.35403 0
M  V30 2354 O 220.397 -4.0903 0.526146 0
M  V30 2355 H 219.738 -0.582099 0.319463 0
M  V30 2356 H 222.268 -1.40785 1.48461 0
M  V30 2357 H 222.278 -3.8506 1.34881 0
M  V30 2358 H 220.953 -3.39232 2.40612 0
M  V30 2359 H 219.53 -3.68082 0.597522 0
M  V30 2360 N 221.715 -0.905404 -1.28997 0
M  V30 2361 C 222.963 -0.533192 -1.9494 0
M  V30 2362 C 223.284 0.924618 -1.71685 0
M  V30 2363 O 222.554 1.65268 -1.05183 0
M  V30 2364 H 221.134 -0.194194 -0.721317 0
M  V30 2365 H 223.796 -1.15294 -1.57141 0
M  V30 2366 H 222.892 -0.72059 -3.03667 0
M  V30 2367 N 223.193 1.4272 -0.668489 0
M  V30 2368 C 224.421 2.05966 -0.196348 0
M  V30 2369 C 224.836 1.50191 1.14403 0
M  V30 2370 O 224.193 0.639208 1.7094 0
M  V30 2371 C 224.244 3.61314 -0.115815 0
M  V30 2372 O 223.965 4.1502 -1.40322 0
M  V30 2373 C 225.466 4.41663 0.380579 0
M  V30 2374 H 222.686 0.663954 -0.0969829 0
M  V30 2375 H 225.23 1.82966 -0.913446 0
M  V30 2376 H 223.385 3.83448 0.551931 0
M  V30 2377 H 223.799 5.08832 -1.27243 0
M  V30 2378 H 225.273 5.5065 0.385848 0
M  V30 2379 H 225.75 4.15792 1.41471 0
M  V30 2380 H 226.356 4.24534 -0.255209 0
M  V30 2381 N 224.671 0.411399 1.52136 0
M  V30 2382 C 225.901 -0.16284 2.05957 0
M  V30 2383 C 226.309 -1.3922 1.28119 0
M  V30 2384 O 225.652 -1.80768 0.326881 0
M  V30 2385 C 225.714 -0.575946 3.54856 0
M  V30 2386 C 225.378 0.542998 4.53763 0
M  V30 2387 C 226.375 1.40726 5.00492 0
M  V30 2388 C 224.06 0.716337 4.97166 0
M  V30 2389 C 226.054 2.4298 5.8927 0
M  V30 2390 C 223.741 1.74218 5.8574 0
M  V30 2391 C 224.739 2.59731 6.31687 0
M  V30 2392 O 224.427 3.60558 7.18507 0
M  V30 2393 H 224.159 -0.0229125 0.675612 0
M  V30 2394 H 226.713 0.581634 1.96993 0
M  V30 2395 H 224.943 -1.37274 3.61515 0
M  V30 2396 H 226.632 -1.07836 3.91313 0
M  V30 2397 H 227.398 1.28476 4.67674 0
M  V30 2398 H 223.277 0.0603857 4.6096 0
M  V30 2399 H 226.821 3.0976 6.25055 0
M  V30 2400 H 222.718 1.86498 6.17971 0
M  V30 2401 H 223.486 3.56829 7.36624 0
M  V30 2402 N 226.149 -1.5696 0.141893 0
M  V30 2403 C 227.099 -2.13074 -0.811383 0
M  V30 2404 C 228.083 -1.05726 -1.21288 0
M  V30 2405 O 229.275 -1.31914 -1.18015 0
M  V30 2406 C 226.404 -2.75186 -2.0525 0
M  V30 2407 C 225.49 -3.8965 -1.67432 0
M  V30 2408 N 225.881 -4.95733 -1.0041 0
M  V30 2409 C 224.179 -4.00262 -1.96739 0
M  V30 2410 C 224.88 -5.75858 -0.822345 0
M  V30 2411 N 223.856 -5.26452 -1.3546 0
M  V30 2412 H 227.658 -2.92465 -0.290031 0
M  V30 2413 H 225.172 -1.6229 -0.0598218 0
M  V30 2414 H 227.169 -3.13745 -2.74535 0
M  V30 2415 H 225.829 -1.97266 -2.57907 0
M  V30 2416 H 226.84 -5.13607 -0.665441 0
M  V30 2417 H 223.517 -3.33412 -2.51282 0
M  V30 2418 H 224.907 -6.71254 -0.294496 0
M  V30 2419 N 227.627 0.131896 -1.57047 0
M  V30 2420 C 228.59 1.14638 -1.98471 0
M  V30 2421 C 229.59 1.35029 -0.873148 0
M  V30 2422 O 230.78 1.31764 -1.13946 0
M  V30 2423 C 227.912 2.50358 -2.31373 0
M  V30 2424 H 229.105 0.79064 -2.8929 0
M  V30 2425 H 226.658 0.375761 -1.51716 0
M  V30 2426 H 227.393 2.90876 -1.43393 0
M  V30 2427 H 227.178 2.36915 -3.12432 0
M  V30 2428 H 228.668 3.23395 -2.64207 0
M  V30 2429 N 229.106 1.52395 0.401703 0
M  V30 2430 C 230.352 1.68019 1.14635 0
M  V30 2431 C 230.707 0.408722 1.88009 0
M  V30 2432 O 230 -0.597133 1.82057 0
M  V30 2433 C 230.194 2.84578 2.16217 0
M  V30 2434 C 230.023 4.22938 1.5282 0
M  V30 2435 C 228.793 4.88352 1.29772 0
M  V30 2436 C 230.991 5.04778 0.985094 0
M  V30 2437 N 228.973 6.10726 0.623455 0
M  V30 2438 C 230.344 6.1845 0.438172 0
M  V30 2439 C 232.399 4.90057 0.880275 0
M  V30 2440 C 231.102 7.19013 -0.203306 0
M  V30 2441 C 233.128 5.9086 0.252639 0
M  V30 2442 C 232.49 7.03829 -0.283573 0
M  V30 2443 H 228.589 0.668413 0.405892 0
M  V30 2444 H 231.173 1.89717 0.437674 0
M  V30 2445 H 229.344 2.64483 2.84435 0
M  V30 2446 H 231.076 2.89202 2.83098 0
M  V30 2447 H 227.831 4.46846 1.56926 0
M  V30 2448 H 228.255 6.76323 0.302733 0
M  V30 2449 H 232.897 4.02938 1.28065 0
M  V30 2450 H 230.615 8.05751 -0.615726 0
M  V30 2451 H 234.201 5.81543 0.172954 0
M  V30 2452 H 233.081 7.80493 -0.761575 0
M  V30 2453 N 230.584 -0.659388 1.43143 0
M  V30 2454 C 231.531 -1.77249 1.47822 0
M  V30 2455 C 232.501 -1.62818 0.328558 0
M  V30 2456 O 233.686 -1.83151 0.534838 0
M  V30 2457 C 230.826 -3.15371 1.40126 0
M  V30 2458 C 229.939 -3.4098 2.65249 0
M  V30 2459 C 229.074 -4.68915 2.49584 0
M  V30 2460 C 228.113 -4.87608 3.70006 0
M  V30 2461 N 227.25 -6.06796 3.53189 0
M  V30 2462 H 232.09 -1.72584 2.42938 0
M  V30 2463 H 229.627 -0.842297 1.20598 0
M  V30 2464 H 231.585 -3.9521 1.33659 0
M  V30 2465 H 230.215 -3.19121 0.485964 0
M  V30 2466 H 229.267 -2.55282 2.8202 0
M  V30 2467 H 230.579 -3.50681 3.54717 0
M  V30 2468 H 229.733 -5.56871 2.4079 0
M  V30 2469 H 228.472 -4.61524 1.5763 0
M  V30 2470 H 227.477 -3.9809 3.79215 0
M  V30 2471 H 228.702 -4.96834 4.62961 0
M  V30 2472 H 226.648 -6.00549 2.63965 0
M  V30 2473 H 226.565 -6.17428 4.36255 0
M  V30 2474 H 227.833 -6.9739 3.48236 0
M  V30 2475 N 232.062 -1.29571 -0.897171 0
M  V30 2476 C 233.025 -1.14913 -1.98312 0
M  V30 2477 C 234.025 -0.0838629 -1.60581 0
M  V30 2478 O 235.215 -0.331006 -1.71026 0
M  V30 2479 C 232.347 -0.757835 -3.3237 0
M  V30 2480 H 233.54 -2.11377 -2.12743 0
M  V30 2481 H 231.093 -1.12793 -1.08201 0
M  V30 2482 H 231.828 0.206837 -3.2364 0
M  V30 2483 H 231.613 -1.52755 -3.61121 0
M  V30 2484 H 233.103 -0.678408 -4.12053 0
M  V30 2485 N 233.54 1.10788 -1.12088 0
M  V30 2486 C 234.488 2.19111 -0.780587 0
M  V30 2487 C 235.482 1.67818 0.230961 0
M  V30 2488 O 236.688 1.79777 0.0895427 0
M  V30 2489 H 233.063 0.714477 -0.234578 0
M  V30 2490 H 235.034 2.45055 -1.70266 0
M  V30 2491 C 233.783 3.46818 -0.24747 0
M  V30 2492 H 233.106 3.86646 -1.01712 0
M  V30 2493 H 234.546 4.23973 -0.0476291 0
M  V30 2494 C 233.005 3.20968 1.02378 0
M  V30 2495 O 233.535 3.42298 2.10226 0
M  V30 2496 N 231.741 2.74658 0.949271 0
M  V30 2497 H 231.288 2.57501 0.0715173 0
M  V30 2498 H 231.246 2.57739 1.80049 0
M  V30 2499 N 235.018 0.912232 1.28515 0
M  V30 2500 C 235.981 0.404223 2.25607 0
M  V30 2501 C 236.981 -0.468602 1.53821 0
M  V30 2502 O 238.171 -0.271873 1.72065 0
M  V30 2503 C 235.303 -0.420653 3.38295 0
M  V30 2504 H 236.496 1.26188 2.7206 0
M  V30 2505 H 234.049 0.691495 1.40171 0
M  V30 2506 H 234.784 -1.29777 2.97201 0
M  V30 2507 H 234.569 0.204935 3.91564 0
M  V30 2508 H 236.059 -0.766971 4.10496 0
M  V30 2509 N 236.496 -1.42363 0.676048 0
M  V30 2510 C 237.745 -2.00745 0.196037 0
M  V30 2511 C 238.058 -1.54083 -1.20489 0
M  V30 2512 O 239.264 -2.04891 -1.78134 0
M  V30 2513 C 237.72 -3.58651 0.299616 0
M  V30 2514 C 237.328 -4.143 1.70468 0
M  V30 2515 C 239.072 -4.24326 -0.121619 0
M  V30 2516 C 236.979 -5.64574 1.76096 0
M  V30 2517 H 235.909 -0.750787 0.0695301 0
M  V30 2518 H 238.56 -1.63072 0.841412 0
M  V30 2519 H 236.942 -3.93833 -0.413673 0
M  V30 2520 H 238.116 -3.90575 2.44515 0
M  V30 2521 H 236.431 -3.61081 2.07387 0
M  V30 2522 H 239.028 -5.34607 -0.0997362 0
M  V30 2523 H 239.371 -3.99897 -1.15708 0
M  V30 2524 H 239.904 -3.94108 0.540706 0
M  V30 2525 H 236.643 -5.93804 2.77628 0
M  V30 2526 H 236.163 -5.90286 1.06406 0
M  V30 2527 H 237.842 -6.29013 1.51496 0
M  V30 2528 N 237.974 -0.419461 -1.51915 0
M  V30 2529 C 239.222 0.152637 -2.01523 0
M  V30 2530 C 239.543 1.44762 -1.30649 0
M  V30 2531 O 238.813 1.90997 -0.435535 0
M  V30 2532 H 237.393 0.0593966 -0.744635 0
M  V30 2533 H 240.055 -0.558073 -1.86739 0
M  V30 2534 H 239.151 0.341369 -3.10227 0
M  V30 2535 N 239.452 1.56882 -0.150215 0
M  V30 2536 C 240.868 1.58263 0.20617 0
M  V30 2537 C 241.068 1.16464 1.64434 0
M  V30 2538 O 240.124 0.866422 2.3717 0
M  V30 2539 C 241.437 3.00649 -0.0555025 0
M  V30 2540 C 242.985 3.12999 0.00795388 0
M  V30 2541 C 243.46 4.5744 -0.226429 0
M  V30 2542 N 244.951 4.62875 -0.173469 0
M  V30 2543 C 245.686 5.72454 -0.329288 0
M  V30 2544 N 245.182 6.90669 -0.543005 0
M  V30 2545 N 246.975 5.61467 -0.266666 0
M  V30 2546 H 239.126 1.82345 -1.08922 0
M  V30 2547 H 241.389 0.844149 -0.431413 0
M  V30 2548 H 241.095 3.3563 -1.05096 0
M  V30 2549 H 240.969 3.71337 0.66246 0
M  V30 2550 H 243.356 2.77857 0.993966 0
M  V30 2551 H 243.437 2.4479 -0.742388 0
M  V30 2552 H 243.081 4.93287 -1.20956 0
M  V30 2553 H 243.011 5.2378 0.544274 0
M  V30 2554 H 245.502 3.77898 -0.0130709 0
M  V30 2555 H 245.815 7.70045 -0.651922 0
M  V30 2556 H 244.16 6.92581 -0.579366 0
M  V30 2557 H 247.351 4.67992 -0.100441 0
M  V30 2558 H 247.524 6.46816 -0.391535 0
M  V30 2559 N 240.93 -0.123565 1.57115 0
M  V30 2560 C 242.178 -0.83051 1.84247 0
M  V30 2561 C 242.499 -1.80629 0.73471 0
M  V30 2562 O 241.769 -1.94403 -0.241688 0
M  V30 2563 H 240.349 -0.309694 0.679778 0
M  V30 2564 H 243.011 -0.111976 1.94578 0
M  V30 2565 H 242.107 -1.37852 2.80006 0
M  V30 2566 N 242.408 -1.52605 -0.393616 0
M  V30 2567 C 243.371 -1.76415 -1.46323 0
M  V30 2568 C 244.371 -0.634126 -1.47768 0
M  V30 2569 O 245.561 -0.902142 -1.4902 0
M  V30 2570 C 242.693 -1.8607 -2.85641 0
M  V30 2571 H 243.886 -2.71916 -1.26498 0
M  V30 2572 H 241.439 -1.43257 -0.625073 0
M  V30 2573 H 242.174 -0.925378 -3.10817 0
M  V30 2574 H 241.959 -2.68235 -2.85993 0
M  V30 2575 H 243.449 -2.06179 -3.63153 0
M  V30 2576 N 243.887 0.651787 -1.4349 0
M  V30 2577 C 244.834 1.76462 -1.4876 0
M  V30 2578 C 245.804 1.62641 -0.337189 0
M  V30 2579 O 246.989 1.82864 -0.544544 0
M  V30 2580 C 244.129 3.14623 -1.41796 0
M  V30 2581 C 243.242 3.39568 -2.67053 0
M  V30 2582 C 242.377 4.67585 -2.52068 0
M  V30 2583 C 241.416 4.85639 -3.72587 0
M  V30 2584 N 240.553 6.04915 -3.56402 0
M  V30 2585 H 245.393 1.71293 -2.43849 0
M  V30 2586 H 242.93 0.835889 -1.21043 0
M  V30 2587 H 244.888 3.94496 -1.35753 0
M  V30 2588 H 243.518 3.18859 -0.50288 0
M  V30 2589 H 242.57 2.53783 -2.8337 0
M  V30 2590 H 243.882 3.48795 -3.56572 0
M  V30 2591 H 243.036 5.55586 -2.4374 0
M  V30 2592 H 241.775 4.60681 -1.60075 0
M  V30 2593 H 240.78 3.96073 -3.81321 0
M  V30 2594 H 242.005 4.94372 -4.65589 0
M  V30 2595 H 239.951 5.9914 -2.67146 0
M  V30 2596 H 239.868 6.15106 -4.39524 0
M  V30 2597 H 241.136 6.95533 -3.51929 0
M  V30 2598 N 245.365 1.30045 0.890287 0
M  V30 2599 C 246.59 1.21598 1.68014 0
M  V30 2600 C 247.015 -0.218678 1.86825 0
M  V30 2601 O 246.373 -1.15756 1.39536 0
M  V30 2602 C 246.421 1.94434 3.03691 0
M  V30 2603 O 245.525 1.2678 3.92429 0
M  V30 2604 H 244.866 0.420856 0.513592 0
M  V30 2605 H 247.396 1.71775 1.11151 0
M  V30 2606 H 247.406 2.03251 3.5377 0
M  V30 2607 H 246.081 2.98777 2.89318 0
M  V30 2608 H 244.658 1.26282 3.50866 0
M  V30 2609 N 246.843 -1.10192 1.12674 0
M  V30 2610 C 248.089 -1.82475 0.884915 0
M  V30 2611 C 248.422 -1.85093 -0.58773 0
M  V30 2612 O 247.697 -1.3134 -1.43457 0
M  V30 2613 C 247.98 -3.29018 1.46353 0
M  V30 2614 C 247.833 -3.34718 3.00473 0
M  V30 2615 C 249.152 -4.25473 1.12519 0
M  V30 2616 H 246.271 -0.662492 0.322915 0
M  V30 2617 H 248.913 -1.2913 1.39375 0
M  V30 2618 H 247.063 -3.74576 1.03077 0
M  V30 2619 H 248.735 -2.97622 3.52447 0
M  V30 2620 H 246.978 -2.74541 3.35872 0
M  V30 2621 H 247.649 -4.37918 3.36053 0
M  V30 2622 H 250.125 -3.88161 1.499 0
M  V30 2623 H 249.001 -5.26365 1.55663 0
M  V30 2624 H 249.262 -4.42084 0.0377407 0
M  V30 2625 N 248.321 -0.919034 -1.28029 0
M  V30 2626 C 249.737 -0.617972 -1.4715 0
M  V30 2627 C 249.937 0.835242 -1.83374 0
M  V30 2628 O 248.993 1.61388 -1.94191 0
M  V30 2629 C 250.306 -1.56041 -2.57044 0
M  V30 2630 C 251.854 -1.56769 -2.7091 0
M  V30 2631 C 252.329 -2.49688 -3.83953 0
M  V30 2632 N 253.82 -2.47845 -3.91314 0
M  V30 2633 C 254.555 -3.16437 -4.78179 0
M  V30 2634 N 254.051 -3.94376 -5.69596 0
M  V30 2635 N 255.844 -3.05498 -4.71834 0
M  V30 2636 H 247.995 -1.85866 -1.02798 0
M  V30 2637 H 250.258 -0.797506 -0.512531 0
M  V30 2638 H 249.964 -2.59671 -2.372 0
M  V30 2639 H 249.838 -1.29551 -3.54255 0
M  V30 2640 H 252.225 -0.538745 -2.90141 0
M  V30 2641 H 252.306 -1.87305 -1.74214 0
M  V30 2642 H 251.95 -3.52688 -3.65477 0
M  V30 2643 H 251.88 -2.16453 -4.80058 0
M  V30 2644 H 254.371 -1.91234 -3.25941 0
M  V30 2645 H 254.684 -4.43721 -6.32718 0
M  V30 2646 H 253.029 -3.98481 -5.69419 0
M  V30 2647 H 256.22 -2.44108 -3.99411 0
M  V30 2648 H 256.393 -3.59225 -5.39316 0
M  V30 2649 N 249.799 1.42003 -0.683588 0
M  V30 2650 C 250.709 2.34597 -0.0109075 0
M  V30 2651 C 251.725 1.55576 0.779245 0
M  V30 2652 O 252.901 1.88107 0.719555 0
M  V30 2653 C 249.966 3.34199 0.922588 0
M  V30 2654 C 249.027 4.29115 0.125984 0
M  V30 2655 C 248.26 5.23959 1.01502 0
M  V30 2656 O 248.483 5.23952 2.25456 0
M  V30 2657 O 247.417 6.00053 0.47111 0
M  V30 2658 H 251.243 2.93675 -0.773853 0
M  V30 2659 H 248.828 1.42654 -0.443861 0
M  V30 2660 H 250.71 3.95365 1.45823 0
M  V30 2661 H 249.385 2.77582 1.66523 0
M  V30 2662 H 248.292 3.71335 -0.453969 0
M  V30 2663 H 249.625 4.88798 -0.577736 0
M  V30 2664 N 251.277 0.427512 1.51691 0
M  V30 2665 C 252.524 -0.142229 2.02 0
M  V30 2666 C 252.852 -1.43566 1.31221 0
M  V30 2667 O 252.107 -1.91298 0.412744 0
M  V30 2668 C 252.406 -0.418249 3.54944 0
M  V30 2669 C 252.072 0.788187 4.43958 0
M  V30 2670 C 250.734 1.11906 4.68007 0
M  V30 2671 C 253.086 1.59347 4.96244 0
M  V30 2672 C 250.414 2.25608 5.41588 0
M  V30 2673 C 252.766 2.7214 5.71072 0
M  V30 2674 C 251.43 3.05692 5.93387 0
M  V30 2675 H 250.7 -0.0520451 0.73917 0
M  V30 2676 H 253.347 0.572697 1.82736 0
M  V30 2677 H 251.652 -1.21496 3.72486 0
M  V30 2678 H 253.349 -0.872339 3.91397 0
M  V30 2679 H 249.939 0.520344 4.2543 0
M  V30 2680 H 254.123 1.35106 4.77556 0
M  V30 2681 H 249.379 2.51929 5.57083 0
M  V30 2682 H 253.553 3.34914 6.10578 0
M  V30 2683 H 251.18 3.9391 6.50184 0
M  V30 2684 N 252.755 -1.56801 0.158532 0
M  V30 2685 C 253.685 -2.20347 -0.772609 0
M  V30 2686 C 254.666 -1.15518 -1.24859 0
M  V30 2687 O 255.851 -1.43902 -1.30406 0
M  V30 2688 C 252.981 -2.83417 -2.00729 0
M  V30 2689 C 251.935 -3.94174 -1.66765 0
M  V30 2690 C 251.261 -4.44233 -2.97592 0
M  V30 2691 C 252.561 -5.14392 -0.905447 0
M  V30 2692 H 254.255 -2.98413 -0.242959 0
M  V30 2693 H 251.801 -1.43537 -0.115419 0
M  V30 2694 H 253.754 -3.26543 -2.6636 0
M  V30 2695 H 252.478 -2.02701 -2.56086 0
M  V30 2696 H 251.137 -3.51684 -1.03508 0
M  V30 2697 H 250.785 -3.60325 -3.50963 0
M  V30 2698 H 250.485 -5.18945 -2.75626 0
M  V30 2699 H 252.009 -4.90037 -3.64274 0
M  V30 2700 H 253.423 -5.5429 -1.46408 0
M  V30 2701 H 251.82 -5.9494 -0.7853 0
M  V30 2702 H 252.89 -4.84795 0.100668 0
M  V30 2703 N 254.233 0.115231 -1.57178 0
M  V30 2704 C 255.143 1.15994 -2.03918 0
M  V30 2705 C 256.159 1.45103 -0.960268 0
M  V30 2706 O 257.335 1.56144 -1.27204 0
M  V30 2707 C 254.4 2.46568 -2.43732 0
M  V30 2708 C 253.461 2.24822 -3.65723 0
M  V30 2709 C 252.694 3.4917 -4.03629 0
M  V30 2710 O 252.917 4.56623 -3.41835 0
M  V30 2711 O 251.851 3.39949 -4.96708 0
M  V30 2712 H 255.677 0.793019 -2.93164 0
M  V30 2713 H 253.262 0.3263 -1.45793 0
M  V30 2714 H 255.144 3.23492 -2.70057 0
M  V30 2715 H 253.819 2.82726 -1.57631 0
M  V30 2716 H 252.726 1.45744 -3.44542 0
M  V30 2717 H 254.059 1.93566 -4.52541 0
M  V30 2718 N 255.711 1.52812 0.385517 0
M  V30 2719 C 256.658 1.77838 1.47113 0
M  V30 2720 C 257.628 0.621757 1.54024 0
M  V30 2721 O 258.813 0.861846 1.70226 0
M  V30 2722 C 255.953 1.95618 2.84302 0
M  V30 2723 C 255.066 3.23316 2.86515 0
M  V30 2724 C 254.201 3.31394 4.15152 0
M  V30 2725 C 253.24 4.53201 4.1143 0
M  V30 2726 N 252.377 4.58542 5.3168 0
M  V30 2727 H 257.217 2.70482 1.25073 0
M  V30 2728 H 254.754 1.34006 0.606692 0
M  V30 2729 H 256.712 2.03912 3.63972 0
M  V30 2730 H 255.342 1.06331 3.04784 0
M  V30 2731 H 254.394 3.24076 1.99195 0
M  V30 2732 H 255.706 4.13045 2.79634 0
M  V30 2733 H 254.86 3.3889 5.03228 0
M  V30 2734 H 253.599 2.39645 4.24761 0
M  V30 2735 H 252.604 4.45827 3.21742 0
M  V30 2736 H 253.829 5.46271 4.03442 0
M  V30 2737 H 251.775 3.69686 5.41912 0
M  V30 2738 H 251.692 5.42148 5.26889 0
M  V30 2739 H 252.96 4.70296 6.21644 0
M  V30 2740 N 257.189 -0.644168 1.43834 0
M  V30 2741 C 258.137 -1.77793 1.49974 0
M  V30 2742 C 259.131 -1.65253 0.372536 0
M  V30 2743 O 260.337 -1.7149 0.546924 0
M  V30 2744 H 256.712 -0.58675 0.47035 0
M  V30 2745 H 258.683 -1.69736 2.45423 0
M  V30 2746 C 257.432 -3.16087 1.4486 0
M  V30 2747 H 256.755 -3.26378 2.30905 0
M  V30 2748 H 258.195 -3.95349 1.53217 0
M  V30 2749 C 256.654 -3.36484 0.167463 0
M  V30 2750 O 257.184 -3.94298 -0.767609 0
M  V30 2751 N 255.39 -2.90504 0.0747556 0
M  V30 2752 H 254.937 -2.4364 0.836507 0
M  V30 2753 H 254.895 -3.04527 -0.781714 0
M  V30 2754 N 258.668 -1.30515 -0.883378 0
M  V30 2755 C 259.898 -1.22182 -1.66599 0
M  V30 2756 C 260.306 0.217507 -1.87946 0
M  V30 2757 O 259.649 1.1554 -1.42815 0
M  V30 2758 C 259.711 -1.88146 -3.06335 0
M  V30 2759 C 259.375 -3.37476 -3.08154 0
M  V30 2760 C 260.372 -4.33443 -2.87094 0
M  V30 2761 C 258.057 -3.7895 -3.29701 0
M  V30 2762 C 260.051 -5.68858 -2.8754 0
M  V30 2763 C 257.738 -5.14482 -3.29776 0
M  V30 2764 C 258.736 -6.09246 -3.0872 0
M  V30 2765 O 258.424 -7.42302 -3.08615 0
M  V30 2766 H 258.156 -0.423898 -0.52658 0
M  V30 2767 H 260.71 -1.72703 -1.11188 0
M  V30 2768 H 258.94 -1.32157 -3.63416 0
M  V30 2769 H 260.629 -1.7391 -3.66756 0
M  V30 2770 H 261.395 -4.02733 -2.70243 0
M  V30 2771 H 257.274 -3.05631 -3.45124 0
M  V30 2772 H 260.818 -6.428 -2.71024 0
M  V30 2773 H 256.715 -5.44832 -3.46163 0
M  V30 2774 H 257.483 -7.5131 -3.24769 0
M  V30 2775 N 260.146 1.09593 -1.13257 0
M  V30 2776 C 261.374 1.855 -0.916378 0
M  V30 2777 C 261.789 1.81069 0.534738 0
M  V30 2778 O 261.146 1.20562 1.37007 0
M  V30 2779 C 261.197 3.33546 -1.39388 0
M  V30 2780 O 260.918 3.37927 -2.78813 0
M  V30 2781 C 262.419 4.26299 -1.21588 0
M  V30 2782 H 259.639 0.585991 -0.326887 0
M  V30 2783 H 262.183 1.38488 -1.5047 0
M  V30 2784 H 260.338 3.77992 -0.848597 0
M  V30 2785 H 260.752 4.30254 -2.9997 0
M  V30 2786 H 262.226 5.28341 -1.59876 0
M  V30 2787 H 262.703 4.38918 -0.157376 0
M  V30 2788 H 263.309 3.87668 -1.7491 0
M  V30 2789 N 261.624 0.925811 1.2754 0
M  V30 2790 C 262.901 0.483726 1.89524 0
M  V30 2791 C 263.281 -1.03809 1.83812 0
M  V30 2792 O 262.629 -1.89143 1.28207 0
M  V30 2793 C 262.839 1.02769 3.33526 0
M  V30 2794 C 264.187 1.08703 4.10449 0
M  V30 2795 O 265.211 0.977175 3.42534 0
M  V30 2796 O 264.07 1.25599 5.31871 0
M  V30 2797 H 261.164 0.15529 0.812289 0
M  V30 2798 H 263.71 1.01738 1.35822 0
M  V30 2799 H 262.482 2.07155 3.31967 0
M  V30 2800 H 262.105 0.475567 3.94746 0
M  V30 2801 N 263.102 -1.41638 0.69111 0
M  V30 2802 C 264.012 -2.34588 0.0233487 0
M  V30 2803 C 265.028 -1.55987 -0.770984 0
M  V30 2804 O 266.204 -1.88486 -0.709569 0
M  V30 2805 C 263.269 -3.34684 -0.904851 0
M  V30 2806 C 262.33 -4.29176 -0.103225 0
M  V30 2807 C 261.563 -5.2449 -0.987216 0
M  V30 2808 O 261.786 -5.2514 -2.22674 0
M  V30 2809 O 260.72 -6.00295 -0.439281 0
M  V30 2810 H 264.546 -2.93261 0.789416 0
M  V30 2811 H 262.131 -1.42417 0.45142 0
M  V30 2812 H 264.013 -3.96133 -1.43724 0
M  V30 2813 H 262.688 -2.78461 -1.65049 0
M  V30 2814 H 261.595 -3.71089 0.473655 0
M  V30 2815 H 262.928 -4.88484 0.60365 0
M  V30 2816 N 264.58 -0.43555 -1.51462 0
M  V30 2817 C 265.543 0.365137 -2.26273 0
M  V30 2818 C 266.543 0.951227 -1.29647 0
M  V30 2819 O 267.733 0.825958 -1.53374 0
M  V30 2820 C 264.865 1.51645 -3.05314 0
M  V30 2821 H 266.058 -0.290474 -2.9849 0
M  V30 2822 H 263.611 -0.188676 -1.55157 0
M  V30 2823 H 264.346 2.20816 -2.3751 0
M  V30 2824 H 264.131 1.10238 -3.76284 0
M  V30 2825 H 265.621 2.08218 -3.61987 0
M  V30 2826 N 266.058 1.56714 -0.166846 0
M  V30 2827 C 267.307 1.95922 0.479318 0
M  V30 2828 C 267.62 1.05529 1.6469 0
M  V30 2829 O 268.826 1.34399 2.35901 0
M  V30 2830 C 267.282 3.48359 0.90412 0
M  V30 2831 C 266.89 4.47369 -0.237621 0
M  V30 2832 C 268.634 3.96394 1.51896 0
M  V30 2833 C 266.541 5.91039 0.206561 0
M  V30 2834 H 265.471 0.731495 0.18284 0
M  V30 2835 H 268.122 1.81728 -0.254363 0
M  V30 2836 H 266.504 3.57955 1.69365 0
M  V30 2837 H 267.678 4.49485 -1.01489 0
M  V30 2838 H 265.993 4.09366 -0.762128 0
M  V30 2839 H 268.59 5.01186 1.86325 0
M  V30 2840 H 268.933 3.39075 2.41524 0
M  V30 2841 H 269.466 3.89796 0.79395 0
M  V30 2842 H 266.205 6.52221 -0.654834 0
M  V30 2843 H 265.725 5.9224 0.949282 0
M  V30 2844 H 267.404 6.43707 0.651939 0
M  V30 2845 N 267.536 -0.106894 1.57237 0
M  V30 2846 C 268.446 -1.14911 2.0453 0
M  V30 2847 C 269.462 -1.44592 0.96795 0
M  V30 2848 O 270.638 -1.55468 1.2803 0
M  V30 2849 C 267.703 -2.45272 2.45036 0
M  V30 2850 C 266.764 -2.22879 3.66911 0
M  V30 2851 C 265.997 -3.47024 4.05475 0
M  V30 2852 O 266.22 -4.54804 3.44252 0
M  V30 2853 O 265.154 -3.3731 4.98504 0
M  V30 2854 H 268.98 -0.777461 2.9358 0
M  V30 2855 H 266.565 -0.318563 1.45964 0
M  V30 2856 H 268.447 -3.22055 2.71769 0
M  V30 2857 H 267.122 -2.81886 1.59129 0
M  V30 2858 H 266.029 -1.43915 3.45311 0
M  V30 2859 H 267.362 -1.91163 4.53561 0
M  V30 2860 N 269.014 -1.53014 -0.377408 0
M  V30 2861 C 270.242 -1.72515 -1.14219 0
M  V30 2862 C 270.657 -0.448735 -1.8339 0
M  V30 2863 O 270.014 0.577592 -1.73119 0
M  V30 2864 C 270.065 -2.8826 -2.18148 0
M  V30 2865 O 269.786 -4.10962 -1.51795 0
M  V30 2866 C 271.287 -3.19536 -3.07264 0
M  V30 2867 H 268.507 -0.577301 -0.342001 0
M  V30 2868 H 271.051 -1.99712 -0.439935 0
M  V30 2869 H 269.206 -2.63492 -2.83991 0
M  V30 2870 H 269.62 -4.75693 -2.20945 0
M  V30 2871 H 271.094 -4.03959 -3.76193 0
M  V30 2872 H 271.571 -2.34403 -3.71419 0
M  V30 2873 H 272.177 -3.46186 -2.47053 0
M  V30 2874 N 270.492 0.636531 -1.44174 0
M  V30 2875 C 271.769 1.39463 -1.37148 0
M  V30 2876 C 272.149 2.11082 -0.027507 0
M  V30 2877 O 271.497 2.05954 0.989716 0
M  V30 2878 C 271.707 2.36552 -2.56601 0
M  V30 2879 C 273.055 3.00048 -3.00427 0
M  V30 2880 O 274.079 2.46878 -2.56767 0
M  V30 2881 O 272.938 3.96488 -3.76111 0
M  V30 2882 H 270.032 0.623903 -0.542839 0
M  V30 2883 H 272.578 0.662039 -1.56253 0
M  V30 2884 H 271.35 1.82692 -3.46034 0
M  V30 2885 H 270.973 3.17236 -2.39681 0
M  V30 2886 N 271.97 1.30982 0.876444 0
M  V30 2887 C 273.247 1.10942 1.61094 0
M  V30 2888 C 273.627 -0.338223 2.08373 0
M  V30 2889 O 272.975 -1.33122 1.85717 0
M  V30 2890 C 273.185 2.11789 2.77392 0
M  V30 2891 C 274.533 2.43965 3.47514 0
M  V30 2892 O 275.557 2.10166 2.87591 0
M  V30 2893 O 274.416 3.01817 4.55597 0
M  V30 2894 H 271.51 0.42667 0.708436 0
M  V30 2895 H 274.056 1.42438 0.922474 0
M  V30 2896 H 272.828 3.09194 2.39823 0
M  V30 2897 H 272.451 1.81161 3.5393 0
M  V30 2898 N 273.449 -1.08991 1.13837 0
M  V30 2899 C 274.379 -2.17771 0.842507 0
M  V30 2900 C 275.36 -1.6892 -0.20001 0
M  V30 2901 O 276.545 -1.94113 -0.0579731 0
M  V30 2902 C 273.675 -3.4589 0.312644 0
M  V30 2903 C 272.629 -4.08099 1.28992 0
M  V30 2904 C 271.955 -5.31098 0.619623 0
M  V30 2905 C 273.255 -4.50077 2.65005 0
M  V30 2906 H 274.949 -2.42777 1.75213 0
M  V30 2907 H 272.495 -1.16682 0.843875 0
M  V30 2908 H 274.448 -4.21297 0.0933043 0
M  V30 2909 H 273.172 -3.20419 -0.632382 0
M  V30 2910 H 271.831 -3.34717 1.49533 0
M  V30 2911 H 271.479 -5.0191 -0.33102 0
M  V30 2912 H 271.179 -5.73674 1.27167 0
M  V30 2913 H 272.703 -6.09224 0.409669 0
M  V30 2914 H 274.117 -5.16688 2.48407 0
M  V30 2915 H 272.514 -5.03553 3.26427 0
M  V30 2916 H 273.584 -3.62257 3.22332 0
M  V30 2917 N 274.927 -0.932562 -1.27047 0
M  V30 2918 C 276.155 -0.592031 -1.98249 0
M  V30 2919 C 276.57 0.831062 -1.69525 0
M  V30 2920 O 275.927 1.55299 -0.958561 0
M  V30 2921 C 275.978 -0.814279 -3.5221 0
M  V30 2922 O 275.699 -2.18139 -3.7993 0
M  V30 2923 C 277.2 -0.483121 -4.4066 0
M  V30 2924 H 274.42 -0.223896 -0.632544 0
M  V30 2925 H 276.964 -1.25091 -1.61779 0
M  V30 2926 H 275.119 -0.20213 -3.86872 0
M  V30 2927 H 275.533 -2.235 -4.74498 0
M  V30 2928 H 277.007 -0.689298 -5.47679 0
M  V30 2929 H 277.484 0.581546 -4.35333 0
M  V30 2930 H 278.09 -1.07362 -4.11526 0
M  V30 2931 N 276.405 1.4127 -0.698611 0
M  V30 2932 C 277.654 2.00408 -0.227949 0
M  V30 2933 C 277.967 1.55981 1.18023 0
M  V30 2934 O 279.173 2.07699 1.74852 0
M  V30 2935 C 277.629 3.58129 -0.356636 0
M  V30 2936 C 277.237 4.11536 -1.77037 0
M  V30 2937 C 278.981 4.24466 0.0540969 0
M  V30 2938 C 276.888 5.61701 -1.85055 0
M  V30 2939 H 275.818 0.749586 -0.0814657 0
M  V30 2940 H 278.469 1.61713 -0.867249 0
M  V30 2941 H 276.851 3.94442 0.350965 0
M  V30 2942 H 278.025 3.86636 -2.50698 0
M  V30 2943 H 276.34 3.57736 -2.13105 0
M  V30 2944 H 278.937 5.34698 0.0146723 0
M  V30 2945 H 279.28 4.01687 1.09332 0
M  V30 2946 H 279.813 3.93198 -0.603337 0
M  V30 2947 H 276.552 5.89312 -2.8704 0
M  V30 2948 H 276.072 5.88519 -1.15783 0
M  V30 2949 H 277.751 6.26524 -1.61484 0
M  V30 2950 N 277.883 0.443576 1.51229 0
M  V30 2951 C 278.83 -0.364716 2.279 0
M  V30 2952 C 279.8 -1.0114 1.31757 0
M  V30 2953 O 280.985 -1.02912 1.60667 0
M  V30 2954 C 278.125 -1.45644 3.12861 0
M  V30 2955 C 277.238 -0.827269 4.24005 0
M  V30 2956 C 276.373 -1.89456 4.96266 0
M  V30 2957 C 275.412 -1.24416 5.99322 0
M  V30 2958 N 274.549 -2.25309 6.64966 0
M  V30 2959 H 279.389 0.295464 2.96532 0
M  V30 2960 H 276.926 0.157554 1.46254 0
M  V30 2961 H 278.884 -2.10076 3.6045 0
M  V30 2962 H 277.514 -2.08616 2.46331 0
M  V30 2963 H 276.566 -0.0710839 3.80334 0
M  V30 2964 H 277.878 -0.312481 4.9782 0
M  V30 2965 H 277.032 -2.61535 5.47434 0
M  V30 2966 H 275.771 -2.4431 4.22095 0
M  V30 2967 H 274.776 -0.508868 5.4744 0
M  V30 2968 H 276.001 -0.702882 6.75453 0
M  V30 2969 H 273.947 -2.79231 5.93604 0
M  V30 2970 H 273.864 -1.78739 7.34567 0
M  V30 2971 H 275.132 -2.96853 7.20763 0
M  V30 2972 N 279.361 -1.56624 0.175154 0
M  V30 2973 C 280.291 -2.21155 -0.749195 0
M  V30 2974 C 281.272 -1.16836 -1.23626 0
M  V30 2975 O 282.457 -1.45277 -1.28873 0
M  V30 2976 C 279.587 -2.8553 -1.97711 0
M  V30 2977 C 278.541 -3.95921 -1.62575 0
M  V30 2978 C 277.867 -4.47365 -2.92864 0
M  V30 2979 C 279.167 -5.15323 -0.850838 0
M  V30 2980 H 280.861 -2.98653 -0.211295 0
M  V30 2981 H 278.407 -1.43651 -0.100188 0
M  V30 2982 H 280.36 -3.2935 -2.62881 0
M  V30 2983 H 279.084 -2.05406 -2.53921 0
M  V30 2984 H 277.743 -3.52762 -0.997719 0
M  V30 2985 H 277.391 -3.64027 -3.47122 0
M  V30 2986 H 277.091 -5.21839 -2.70106 0
M  V30 2987 H 278.615 -4.93873 -3.59056 0
M  V30 2988 H 280.029 -5.55812 -1.40521 0
M  V30 2989 H 278.426 -5.95739 -0.722154 0
M  V30 2990 H 279.496 -4.84661 0.152082 0
M  V30 2991 N 280.839 0.0985539 -1.57292 0
M  V30 2992 C 282.085 0.803867 -1.86188 0
M  V30 2993 C 282.418 1.78549 -0.763794 0
M  V30 2994 O 281.693 1.93153 0.22855 0
M  V30 2995 C 281.976 1.53568 -3.25713 0
M  V30 2996 C 281.829 0.572277 -4.46145 0
M  V30 2997 C 283.148 2.48708 -3.63087 0
M  V30 2998 H 280.267 0.290781 -0.677211 0
M  V30 2999 H 282.909 0.0675783 -1.8988 0
M  V30 3000 H 281.059 2.16332 -3.22696 0
M  V30 3001 H 282.731 -0.0480894 -4.61275 0
M  V30 3002 H 280.974 -0.114618 -4.33649 0
M  V30 3003 H 281.645 1.12139 -5.40489 0
M  V30 3004 H 284.121 1.96039 -3.67026 0
M  V30 3005 H 282.997 2.96932 -4.61652 0
M  V30 3006 H 283.258 3.32309 -2.91588 0
M  V30 3007 N 282.317 1.53212 0.369288 0
M  V30 3008 C 283.566 1.68436 1.10961 0
M  V30 3009 C 283.879 0.440738 1.9057 0
M  V30 3010 O 285.085 0.473446 2.6734 0
M  V30 3011 C 283.541 2.97744 2.0218 0
M  V30 3012 C 283.149 4.29355 1.279 0
M  V30 3013 C 284.893 3.22334 2.76226 0
M  V30 3014 C 282.8 5.49755 2.17999 0
M  V30 3015 H 281.73 0.627568 0.41794 0
M  V30 3016 H 284.381 1.79713 0.370884 0
M  V30 3017 H 282.763 2.8026 2.79768 0
M  V30 3018 H 283.937 4.57458 0.554007 0
M  V30 3019 H 282.252 4.11179 0.657311 0
M  V30 3020 H 284.849 4.09471 3.43857 0
M  V30 3021 H 285.192 2.38238 3.41392 0
M  V30 3022 H 285.725 3.40475 2.05723 0
M  V30 3023 H 282.464 6.36318 1.57417 0
M  V30 3024 H 281.984 5.25937 2.88359 0
M  V30 3025 H 283.663 5.84401 2.77641 0
M  V30 3026 N 283.795 -0.628877 1.44509 0
M  V30 3027 C 284.742 -1.74074 1.51549 0
M  V30 3028 C 285.712 -1.62084 0.363021 0
M  V30 3029 O 286.897 -1.81975 0.573567 0
M  V30 3030 C 284.037 -3.12328 1.46784 0
M  V30 3031 C 283.15 -3.35277 2.72422 0
M  V30 3032 C 282.285 -4.63515 2.59475 0
M  V30 3033 C 281.324 -4.7965 3.80266 0
M  V30 3034 N 280.461 -5.99168 3.65981 0
M  V30 3035 H 285.301 -1.67392 2.46544 0
M  V30 3036 H 282.838 -0.816527 1.22357 0
M  V30 3037 H 284.796 -3.92286 1.42012 0
M  V30 3038 H 283.426 -3.18018 0.553544 0
M  V30 3039 H 282.478 -2.49242 2.87372 0
M  V30 3040 H 283.79 -3.43078 3.62076 0
M  V30 3041 H 282.944 -5.51638 2.52548 0
M  V30 3042 H 281.683 -4.58076 1.67384 0
M  V30 3043 H 280.688 -3.89957 3.87574 0
M  V30 3044 H 281.913 -4.86902 4.73395 0
M  V30 3045 H 279.859 -5.94814 2.76644 0
M  V30 3046 H 279.776 -6.08035 4.49254 0
M  V30 3047 H 281.044 -6.89846 3.6295 0
M  V30 3048 N 285.273 -1.31445 -0.869486 0
M  V30 3049 C 286.236 -1.19094 -1.9583 0
M  V30 3050 C 287.236 -0.117906 -1.60367 0
M  V30 3051 O 288.426 -0.367208 -1.70286 0
M  V30 3052 C 285.558 -0.828165 -3.30688 0
M  V30 3053 H 286.751 -2.15842 -2.08212 0
M  V30 3054 H 284.304 -1.15063 -1.05784 0
M  V30 3055 H 285.039 0.138142 -3.24006 0
M  V30 3056 H 284.824 -1.6038 -3.578 0
M  V30 3057 H 286.314 -0.765658 -4.10521 0
M  V30 3058 N 286.751 1.08385 -1.14413 0
M  V30 3059 C 287.681 2.17321 -0.854044 0
M  V30 3060 C 288.662 1.69024 0.191049 0
M  V30 3061 O 289.847 1.94141 0.0476779 0
M  V30 3062 C 286.977 3.45719 -0.330983 0
M  V30 3063 C 285.931 4.07409 -1.31155 0
M  V30 3064 C 285.257 5.30762 -0.64778 0
M  V30 3065 C 286.557 4.48665 -2.67388 0
M  V30 3066 H 288.251 2.41845 -1.76498 0
M  V30 3067 H 285.797 1.16233 -0.850051 0
M  V30 3068 H 287.75 4.21241 -0.115645 0
M  V30 3069 H 286.474 3.2075 0.615381 0
M  V30 3070 H 285.133 3.33919 -1.51306 0
M  V30 3071 H 284.781 5.02078 0.304398 0
M  V30 3072 H 284.481 5.72992 -1.30207 0
M  V30 3073 H 286.005 6.08998 -0.441972 0
M  V30 3074 H 287.419 5.15364 -2.51143 0
M  V30 3075 H 285.816 5.01814 -3.29093 0
M  V30 3076 H 286.886 3.60543 -3.24248 0
M  V30 3077 N 288.23 0.939286 1.26551 0
M  V30 3078 C 289.16 0.465044 2.28822 0
M  V30 3079 C 290.141 -0.480692 1.63167 0
M  V30 3080 O 291.326 -0.382955 1.90387 0
M  V30 3081 C 288.456 -0.27234 3.46231 0
M  V30 3082 C 287.41 0.58666 4.2396 0
M  V30 3083 C 286.736 -0.280573 5.33963 0
M  V30 3084 C 288.036 1.85704 4.88171 0
M  V30 3085 H 289.73 1.31979 2.68741 0
M  V30 3086 H 287.276 0.636061 1.29191 0
M  V30 3087 H 289.229 -0.615133 4.16886 0
M  V30 3088 H 287.953 -1.16121 3.0526 0
M  V30 3089 H 286.612 0.91232 3.55067 0
M  V30 3090 H 286.26 -1.16874 4.89234 0
M  V30 3091 H 285.96 0.29076 5.8688 0
M  V30 3092 H 287.484 -0.618678 6.07458 0
M  V30 3093 H 288.898 1.58161 5.51052 0
M  V30 3094 H 287.295 2.37279 5.51197 0
M  V30 3095 H 288.365 2.56957 4.11219 0
M  V30 3096 N 289.708 -1.40897 0.706093 0
M  V30 3097 C 290.618 -2.3455 0.0482286 0
M  V30 3098 C 291.634 -1.56796 -0.754396 0
M  V30 3099 O 292.81 -1.89228 -0.689538 0
M  V30 3100 C 289.875 -3.35625 -0.869303 0
M  V30 3101 C 288.936 -4.29261 -0.0576994 0
M  V30 3102 C 288.169 -5.25508 -0.931531 0
M  V30 3103 O 288.392 -5.27472 -2.17092 0
M  V30 3104 O 287.326 -6.00727 -0.375587 0
M  V30 3105 H 291.152 -2.92407 0.820476 0
M  V30 3106 H 288.737 -1.4193 0.4665 0
M  V30 3107 H 290.619 -3.97635 -1.39514 0
M  V30 3108 H 289.294 -2.80196 -1.62086 0
M  V30 3109 H 288.201 -3.70566 0.512988 0
M  V30 3110 H 289.534 -4.87817 0.655426 0
M  V30 3111 N 291.186 -0.45159 -1.50991 0
M  V30 3112 C 292.432 0.110237 -2.025 0
M  V30 3113 C 292.765 1.41109 -1.33424 0
M  V30 3114 O 292.04 1.89135 -0.453659 0
M  V30 3115 C 292.323 0.314271 -3.58726 0
M  V30 3116 C 292.176 -1.00623 -4.38401 0
M  V30 3117 C 293.495 1.07767 -4.26702 0
M  V30 3118 H 290.614 0.0385897 -0.735989 0
M  V30 3119 H 293.256 -0.593374 -1.80497 0
M  V30 3120 H 291.406 0.913601 -3.77605 0
M  V30 3121 H 293.078 -1.64064 -4.31139 0
M  V30 3122 H 291.321 -1.6075 -4.02917 0
M  V30 3123 H 291.992 -0.817341 -5.45915 0
M  V30 3124 H 294.468 0.56986 -4.12179 0
M  V30 3125 H 293.344 1.18921 -5.35863 0
M  V30 3126 H 293.605 2.10939 -3.88532 0
M  V30 3127 N 292.664 1.56529 -0.183458 0
M  V30 3128 C 293.91 1.97537 0.459036 0
M  V30 3129 C 294.243 1.06989 1.62071 0
M  V30 3130 O 293.518 0.11948 1.94133 0
M  V30 3131 C 293.801 3.47874 0.930368 0
M  V30 3132 C 293.654 4.492 -0.232317 0
M  V30 3133 C 294.973 4.01612 1.79989 0
M  V30 3134 H 292.092 0.718204 0.165383 0
M  V30 3135 H 294.734 1.88042 -0.272038 0
M  V30 3136 H 292.884 3.56095 1.55333 0
M  V30 3137 H 294.556 4.53027 -0.86972 0
M  V30 3138 H 292.799 4.24657 -0.885928 0
M  V30 3139 H 293.47 5.51823 0.139796 0
M  V30 3140 H 295.946 3.96097 1.27461 0
M  V30 3141 H 294.822 5.07195 2.09867 0
M  V30 3142 H 295.083 3.46163 2.74998 0
M  V30 3143 N 294.142 -0.090211 1.57342 0
M  V30 3144 C 295.074 -1.13541 1.99101 0
M  V30 3145 C 296.087 -1.3604 0.894258 0
M  V30 3146 O 297.276 -1.34606 1.17233 0
M  V30 3147 C 294.376 -2.49001 2.29895 0
M  V30 3148 C 293.549 -2.46712 3.61182 0
M  V30 3149 C 292.608 -3.64136 3.79857 0
M  V30 3150 O 291.634 -3.46405 4.51655 0
M  V30 3151 N 292.836 -4.83802 3.20806 0
M  V30 3152 H 295.601 -0.779942 2.89373 0
M  V30 3153 H 293.162 -0.279125 1.59476 0
M  V30 3154 H 295.154 -3.26166 2.39578 0
M  V30 3155 H 293.724 -2.76619 1.45605 0
M  V30 3156 H 292.944 -1.55058 3.62423 0
M  V30 3157 H 294.232 -2.42265 4.4742 0
M  V30 3158 H 293.63 -5.01112 2.62494 0
M  V30 3159 H 292.187 -5.58543 3.35966 0
M  V30 3160 N 295.62 -1.53406 -0.361157 0
M  V30 3161 C 296.845 -1.74024 -1.12829 0
M  V30 3162 C 297.27 -0.470069 -1.82132 0
M  V30 3163 O 296.628 0.57619 -1.719 0
M  V30 3164 C 296.676 -2.90903 -2.13091 0
M  V30 3165 O 295.78 -2.59821 -3.20261 0
M  V30 3166 H 295.121 -0.577804 -0.327168 0
M  V30 3167 H 297.651 -2.00307 -0.41693 0
M  V30 3168 H 297.661 -3.17194 -2.56616 0
M  V30 3169 H 296.336 -3.83034 -1.62042 0
M  V30 3170 H 294.913 -2.44362 -2.81677 0
M  V30 3171 N 297.098 0.621204 -1.44841 0
M  V30 3172 C 298.346 1.37783 -1.47852 0
M  V30 3173 C 298.667 1.94653 -0.116224 0
M  V30 3174 O 297.937 1.76367 0.852737 0
M  V30 3175 H 296.517 0.511453 -0.544449 0
M  V30 3176 H 299.179 0.730446 -1.80694 0
M  V30 3177 H 298.275 2.20414 -2.20961 0
M  V30 3178 N 298.576 1.31904 0.862503 0
M  V30 3179 C 299.824 1.21776 1.61292 0
M  V30 3180 C 300.145 -0.222413 1.93727 0
M  V30 3181 O 299.415 -1.1451 1.58947 0
M  V30 3182 H 297.995 0.447717 0.597962 0
M  V30 3183 H 300.657 1.65326 1.03215 0
M  V30 3184 H 299.753 1.7948 2.5533 0
M  V30 3185 N 300.054 -1.07777 1.14986 0
M  V30 3186 C 301.001 -2.14867 0.842672 0
M  V30 3187 C 301.971 -1.6486 -0.202552 0
M  V30 3188 O 303.156 -1.90668 -0.0710568 0
M  V30 3189 C 300.296 -3.43486 0.333363 0
M  V30 3190 C 299.409 -4.07306 1.43965 0
M  V30 3191 C 298.544 -5.23744 0.886914 0
M  V30 3192 C 297.583 -5.79517 1.97043 0
M  V30 3193 N 296.72 -6.87291 1.4344 0
M  V30 3194 H 301.56 -2.40485 1.75986 0
M  V30 3195 H 299.097 -1.1801 0.878179 0
M  V30 3196 H 301.055 -4.17195 0.0198163 0
M  V30 3197 H 299.685 -3.18133 -0.546916 0
M  V30 3198 H 298.737 -3.31293 1.86946 0
M  V30 3199 H 300.049 -4.44771 2.25788 0
M  V30 3200 H 299.203 -6.04419 0.525651 0
M  V30 3201 H 297.942 -4.87685 0.0377957 0
M  V30 3202 H 296.947 -4.97491 2.34057 0
M  V30 3203 H 298.172 -6.17632 2.82325 0
M  V30 3204 H 296.118 -6.5318 0.607567 0
M  V30 3205 H 296.035 -7.23617 2.18895 0
M  V30 3206 H 297.303 -7.71682 1.10124 0
M  V30 3207 N 301.532 -0.945985 -1.26051 0
M  V30 3208 C 302.48 -0.450259 -2.282 0
M  V30 3209 C 303.474 0.47497 -1.62605 0
M  V30 3210 O 304.68 0.352653 -1.76512 0
M  V30 3211 H 301.055 -0.127081 -0.741184 0
M  V30 3212 H 303.026 -1.32422 -2.67408 0
M  V30 3213 C 301.775 0.26467 -3.46691 0
M  V30 3214 H 301.098 -0.438123 -3.97392 0
M  V30 3215 H 302.538 0.575678 -4.20074 0
M  V30 3216 C 300.997 1.48416 -3.02447 0
M  V30 3217 O 301.527 2.58227 -3.07704 0
M  V30 3218 N 299.733 1.34243 -2.57735 0
M  V30 3219 H 299.28 0.448994 -2.53657 0
M  V30 3220 H 299.238 2.15957 -2.28495 0
M  V30 3221 N 303.011 1.40521 -0.713556 0
M  V30 3222 C 304.26 2.00155 -0.249192 0
M  V30 3223 C 304.573 1.57224 1.16362 0
M  V30 3224 O 305.779 2.09542 1.72639 0
M  V30 3225 C 304.235 3.5773 -0.3946 0
M  V30 3226 C 303.843 4.09635 -1.81392 0
M  V30 3227 C 305.587 4.24499 0.00907364 0
M  V30 3228 C 303.494 5.59707 -1.91003 0
M  V30 3229 H 302.424 0.74868 -0.0894114 0
M  V30 3230 H 305.075 1.60784 -0.884352 0
M  V30 3231 H 303.457 3.94792 0.30911 0
M  V30 3232 H 304.631 3.83955 -2.54785 0
M  V30 3233 H 302.946 3.55456 -2.16888 0
M  V30 3234 H 305.543 5.34683 -0.0420404 0
M  V30 3235 H 305.886 4.02824 1.05065 0
M  V30 3236 H 306.419 3.92536 -0.645007 0
M  V30 3237 H 303.158 5.86234 -2.93275 0
M  V30 3238 H 302.678 5.87258 -1.22019 0
M  V30 3239 H 304.357 6.24776 -1.6812 0
M  V30 3240 N 304.489 0.459591 1.5075 0
M  V30 3241 C 305.399 -0.34613 2.32033 0
M  V30 3242 C 306.415 -1.00686 1.41909 0
M  V30 3243 O 307.591 -0.997361 1.7497 0
M  V30 3244 C 304.656 -1.42029 3.16273 0
M  V30 3245 C 303.717 -0.777362 4.22203 0
M  V30 3246 C 302.95 -1.80034 5.02418 0
M  V30 3247 O 303.173 -3.02544 4.83553 0
M  V30 3248 O 302.107 -1.37853 5.85901 0
M  V30 3249 H 305.933 0.318054 3.0203 0
M  V30 3250 H 303.518 0.221663 1.47746 0
M  V30 3251 H 305.4 -2.04275 3.68578 0
M  V30 3252 H 304.075 -2.06815 2.49016 0
M  V30 3253 H 302.982 -0.116256 3.73919 0
M  V30 3254 H 304.315 -0.172634 4.91897 0
M  V30 3255 N 305.967 -1.56429 0.191757 0
M  V30 3256 C 306.897 -2.21937 -0.725696 0
M  V30 3257 C 307.878 -1.1814 -1.2238 0
M  V30 3258 O 309.063 -1.46636 -1.27325 0
M  V30 3259 C 306.193 -2.87611 -1.94672 0
M  V30 3260 C 305.147 -3.97623 -1.58366 0
M  V30 3261 C 304.473 -4.50446 -2.88102 0
M  V30 3262 C 305.773 -5.16197 -0.796133 0
M  V30 3263 H 307.467 -2.98861 -0.179606 0
M  V30 3264 H 305.013 -1.43749 -0.0849464 0
M  V30 3265 H 306.966 -3.3212 -2.59373 0
M  V30 3266 H 305.69 -2.08087 -2.51728 0
M  V30 3267 H 304.349 -3.53801 -0.960247 0
M  V30 3268 H 303.997 -3.67688 -3.43241 0
M  V30 3269 H 303.697 -5.24675 -2.64556 0
M  V30 3270 H 305.221 -4.97654 -3.53798 0
M  V30 3271 H 306.635 -5.57271 -1.34618 0
M  V30 3272 H 305.032 -5.96471 -0.658928 0
M  V30 3273 H 306.102 -4.84473 0.203478 0
M  V30 3274 N 307.445 0.0818655 -1.57387 0
M  V30 3275 C 308.408 1.08265 -2.02018 0
M  V30 3276 C 309.408 1.32183 -0.915664 0
M  V30 3277 O 310.598 1.28073 -1.18081 0
M  V30 3278 C 307.73 2.42871 -2.39221 0
M  V30 3279 H 308.923 0.698204 -2.91659 0
M  V30 3280 H 306.476 0.327303 -1.52835 0
M  V30 3281 H 307.211 2.86167 -1.52575 0
M  V30 3282 H 306.996 2.26855 -3.19811 0
M  V30 3283 H 308.486 3.14826 -2.74362 0
M  V30 3284 N 308.923 1.53595 0.353017 0
M  V30 3285 C 310.169 1.70638 1.09593 0
M  V30 3286 C 310.502 0.463286 1.88593 0
M  V30 3287 O 309.777 -0.539597 1.86865 0
M  V30 3288 C 310.06 2.96406 2.04489 0
M  V30 3289 C 309.913 4.30901 1.29014 0
M  V30 3290 C 311.232 3.17812 3.0444 0
M  V30 3291 H 308.351 0.620913 0.397034 0
M  V30 3292 H 310.993 1.86254 0.375446 0
M  V30 3293 H 309.143 2.83223 2.65927 0
M  V30 3294 H 310.815 4.55917 0.702638 0
M  V30 3295 H 309.058 4.29741 0.592071 0
M  V30 3296 H 309.729 5.1506 1.98537 0
M  V30 3297 H 312.205 3.30263 2.53112 0
M  V30 3298 H 311.081 4.07223 3.6805 0
M  V30 3299 H 311.342 2.33669 3.75301 0
M  V30 3300 N 310.401 -0.613514 1.45168 0
M  V30 3301 C 311.334 -1.73809 1.47871 0
M  V30 3302 C 312.312 -1.59097 0.33568 0
M  V30 3303 O 313.496 -1.8074 0.535299 0
M  V30 3304 C 310.623 -3.11574 1.32813 0
M  V30 3305 C 309.669 -3.4489 2.50905 0
M  V30 3306 S 310.502 -3.40393 4.13392 0
M  V30 3307 C 311.658 -4.80749 4.00789 0
M  V30 3308 H 311.891 -1.71252 2.43023 0
M  V30 3309 H 309.424 -0.789658 1.32679 0
M  V30 3310 H 311.382 -3.91065 1.24812 0
M  V30 3311 H 310.043 -3.11652 0.391418 0
M  V30 3312 H 309.236 -4.45183 2.36279 0
M  V30 3313 H 308.838 -2.72901 2.55736 0
M  V30 3314 H 311.13 -5.7041 3.65567 0
M  V30 3315 H 312.073 -5.00431 5.00974 0
M  V30 3316 H 312.481 -4.56151 3.32545 0
M  V30 3317 N 311.879 -1.3236 -0.855495 0
M  V30 3318 C 313.295 -1.11332 -1.14356 0
M  V30 3319 C 313.495 0.106751 -2.01217 0
M  V30 3320 O 312.551 0.791891 -2.39761 0
M  V30 3321 C 313.864 -2.39237 -1.82171 0
M  V30 3322 C 315.412 -2.44986 -1.9481 0
M  V30 3323 C 315.887 -3.7281 -2.66039 0
M  V30 3324 N 317.378 -3.73787 -2.73565 0
M  V30 3325 C 318.113 -4.69394 -3.29327 0
M  V30 3326 N 317.609 -5.75367 -3.85907 0
M  V30 3327 N 319.402 -4.56893 -3.27423 0
M  V30 3328 H 311.553 -2.10586 -0.277027 0
M  V30 3329 H 313.816 -0.929701 -0.185364 0
M  V30 3330 H 313.522 -3.28431 -1.25802 0
M  V30 3331 H 313.396 -2.50134 -2.82335 0
M  V30 3332 H 315.783 -1.56252 -2.50338 0
M  V30 3333 H 315.864 -2.38043 -0.936448 0
M  V30 3334 H 315.508 -4.61918 -2.11174 0
M  V30 3335 H 315.438 -3.77024 -3.67642 0
M  V30 3336 H 317.929 -2.97189 -2.33424 0
M  V30 3337 H 318.242 -6.44378 -4.26611 0
M  V30 3338 H 316.587 -5.79123 -3.84242 0
M  V30 3339 H 319.778 -3.73269 -2.82467 0
M  V30 3340 H 319.951 -5.31577 -3.7058 0
M  V30 3341 N 313.357 1.07166 -1.15556 0
M  V30 3342 C 314.773 1.31899 -0.898603 0
M  V30 3343 C 314.973 1.96333 0.453383 0
M  V30 3344 O 314.029 2.22438 1.19489 0
M  V30 3345 C 315.342 2.20826 -2.04099 0
M  V30 3346 C 316.89 2.34269 -2.07574 0
M  V30 3347 C 317.365 3.26546 -3.21141 0
M  V30 3348 N 318.856 3.34127 -3.20801 0
M  V30 3349 C 319.591 4.05595 -4.05315 0
M  V30 3350 N 319.087 4.79661 -4.99897 0
M  V30 3351 N 320.88 4.01555 -3.93332 0
M  V30 3352 H 313.031 0.637302 -2.02613 0
M  V30 3353 H 315.294 0.343468 -0.883591 0
M  V30 3354 H 315 1.80744 -3.01703 0
M  V30 3355 H 314.874 3.21364 -1.97496 0
M  V30 3356 H 317.261 2.73603 -1.10568 0
M  V30 3357 H 317.342 1.33429 -2.18244 0
M  V30 3358 H 316.986 2.87931 -4.184 0
M  V30 3359 H 316.916 4.27345 -3.07708 0
M  V30 3360 H 319.407 2.81336 -2.52306 0
M  V30 3361 H 319.72 5.31694 -5.60822 0
M  V30 3362 H 318.065 4.78671 -5.03884 0
M  V30 3363 H 321.256 3.42806 -3.18751 0
M  V30 3364 H 321.429 4.56987 -4.5942 0
M  V30 3365 N 314.835 0.952656 1.25548 0
M  V30 3366 C 316.112 0.523818 1.88456 0
M  V30 3367 C 316.492 -0.998871 1.85973 0
M  V30 3368 O 315.84 -1.86381 1.3219 0
M  V30 3369 C 316.05 1.0982 3.31271 0
M  V30 3370 C 317.398 1.17385 4.08051 0
M  V30 3371 O 318.422 1.04961 3.40384 0
M  V30 3372 O 317.281 1.36852 5.29088 0
M  V30 3373 H 314.375 0.172485 0.808813 0
M  V30 3374 H 316.921 1.04596 1.33633 0
M  V30 3375 H 315.693 2.1415 3.27499 0
M  V30 3376 H 315.316 0.559191 3.93648 0
M  V30 3377 N 316.313 -1.40141 0.720998 0
M  V30 3378 C 317.245 -2.29177 0.0324669 0
M  V30 3379 C 318.258 -1.46105 -0.718126 0
M  V30 3380 O 319.447 -1.69335 -0.564608 0
M  V30 3381 C 316.547 -3.24473 -0.978292 0
M  V30 3382 C 315.72 -4.36423 -0.292115 0
M  V30 3383 C 314.779 -5.12122 -1.20901 0
M  V30 3384 O 313.805 -5.64981 -0.691766 0
M  V30 3385 N 315.007 -5.21992 -2.53978 0
M  V30 3386 H 317.772 -2.88909 0.796984 0
M  V30 3387 H 315.333 -1.51569 0.569068 0
M  V30 3388 H 317.325 -3.71987 -1.59398 0
M  V30 3389 H 315.895 -2.65871 -1.64413 0
M  V30 3390 H 315.115 -3.90967 0.503847 0
M  V30 3391 H 316.403 -5.08467 0.183971 0
M  V30 3392 H 315.801 -4.8054 -2.98493 0
M  V30 3393 H 314.358 -5.72995 -3.10677 0
M  V30 3394 N 317.792 -0.46758 -1.50504 0
M  V30 3395 C 319.017 0.0886943 -2.0721 0
M  V30 3396 C 319.442 1.33057 -1.32956 0
M  V30 3397 O 318.8 1.77354 -0.376197 0
M  V30 3398 C 318.848 0.359202 -3.58806 0
M  V30 3399 O 317.952 1.44034 -3.8643 0
M  V30 3400 H 317.293 -0.0114349 -0.663902 0
M  V30 3401 H 319.823 -0.657613 -1.93744 0
M  V30 3402 H 319.833 0.600742 -4.03553 0
M  V30 3403 H 318.508 -0.548311 -4.1227 0
M  V30 3404 H 317.085 1.18638 -3.53524 0
M  V30 3405 N 319.27 1.56325 -0.20005 0
M  V30 3406 C 320.2 2.22318 0.713916 0
M  V30 3407 C 321.181 1.18788 1.21752 0
M  V30 3408 O 322.366 1.47309 1.26545 0
M  V30 3409 C 319.496 2.88639 1.93144 0
M  V30 3410 C 318.45 3.98457 1.56255 0
M  V30 3411 C 317.776 4.51967 2.85709 0
M  V30 3412 C 319.076 5.16612 0.768747 0
M  V30 3413 H 320.77 2.98952 0.163755 0
M  V30 3414 H 318.316 1.43792 0.0773219 0
M  V30 3415 H 320.269 3.33491 2.57608 0
M  V30 3416 H 318.993 2.09419 2.50621 0
M  V30 3417 H 317.652 3.54305 0.941471 0
M  V30 3418 H 317.3 3.69503 3.41287 0
M  V30 3419 H 317 5.26071 2.6177 0
M  V30 3420 H 318.524 4.99523 3.51154 0
M  V30 3421 H 319.938 5.57977 1.3166 0
M  V30 3422 H 318.335 5.96812 0.627286 0
M  V30 3423 H 319.405 4.84358 -0.229168 0
M  V30 3424 N 320.748 -0.0735177 1.57428 0
M  V30 3425 C 321.695 -1.08756 2.0357 0
M  V30 3426 C 322.665 -1.38559 0.916 0
M  V30 3427 O 323.85 -1.49656 1.18354 0
M  V30 3428 C 320.99 -2.39657 2.48311 0
M  V30 3429 C 320.103 -2.16399 3.73892 0
M  V30 3430 C 319.238 -3.40852 4.07423 0
M  V30 3431 C 318.277 -3.1295 5.2605 0
M  V30 3432 N 317.414 -4.29729 5.55228 0
M  V30 3433 H 322.254 -0.687104 2.8997 0
M  V30 3434 H 319.791 -0.327709 1.43403 0
M  V30 3435 H 321.749 -3.16081 2.72303 0
M  V30 3436 H 320.379 -2.77508 1.64891 0
M  V30 3437 H 319.431 -1.30676 3.57251 0
M  V30 3438 H 320.743 -1.91788 4.60455 0
M  V30 3439 H 319.897 -4.25671 4.32306 0
M  V30 3440 H 318.636 -3.68537 3.19425 0
M  V30 3441 H 317.641 -2.26526 5.00965 0
M  V30 3442 H 318.866 -2.86589 6.15665 0
M  V30 3443 H 316.812 -4.57448 4.70188 0
M  V30 3444 H 316.729 -4.08385 6.36206 0
M  V30 3445 H 317.997 -5.1555 5.84661 0
M  V30 3446 N 322.226 -1.5378 -0.344866 0
M  V30 3447 C 323.475 -1.7018 -1.08267 0
M  V30 3448 C 323.788 -0.471 -1.89845 0
M  V30 3449 O 324.994 -0.515917 -2.66553 0
M  V30 3450 C 323.45 -3.00923 -1.97417 0
M  V30 3451 C 323.058 -4.31335 -1.21053 0
M  V30 3452 C 324.802 -3.26688 -2.71063 0
M  V30 3453 C 322.709 -5.53153 -2.09225 0
M  V30 3454 H 321.639 -0.634138 -0.407903 0
M  V30 3455 H 324.29 -1.8028 -0.342246 0
M  V30 3456 H 322.672 -2.84676 -2.75274 0
M  V30 3457 H 323.846 -4.58281 -0.481159 0
M  V30 3458 H 322.161 -4.12173 -0.591813 0
M  V30 3459 H 324.758 -4.1489 -3.37299 0
M  V30 3460 H 325.101 -2.43639 -3.37558 0
M  V30 3461 H 325.634 -3.43705 -2.0028 0
M  V30 3462 H 322.373 -6.38741 -1.47274 0
M  V30 3463 H 321.893 -5.30458 -2.79955 0
M  V30 3464 H 323.572 -5.88744 -2.68308 0
M  V30 3465 N 323.704 0.605807 -1.45491 0
M  V30 3466 C 324.634 1.72709 -1.57143 0
M  V30 3467 C 325.615 1.6476 -0.422884 0
M  V30 3468 O 326.8 1.83132 -0.646247 0
M  V30 3469 C 323.93 3.11316 -1.53948 0
M  V30 3470 C 322.884 3.34077 -2.67537 0
M  V30 3471 C 322.21 4.72975 -2.49397 0
M  V30 3472 C 323.51 3.24158 -4.09535 0
M  V30 3473 H 325.204 1.63214 -2.51001 0
M  V30 3474 H 322.75 0.78379 -1.208 0
M  V30 3475 H 324.703 3.89557 -1.60696 0
M  V30 3476 H 323.427 3.21655 -0.566205 0
M  V30 3477 H 322.086 2.58227 -2.6022 0
M  V30 3478 H 321.734 4.8005 -1.50205 0
M  V30 3479 H 321.434 4.8916 -3.25571 0
M  V30 3480 H 322.958 5.53414 -2.58002 0
M  V30 3481 H 324.372 3.92271 -4.18086 0
M  V30 3482 H 322.769 3.51872 -4.86113 0
M  V30 3483 H 323.839 2.2157 -4.31317 0
M  V30 3484 N 325.182 1.32811 0.848464 0
M  V30 3485 C 326.13 1.22231 1.97895 0
M  V30 3486 C 327.124 0.125749 1.68933 0
M  V30 3487 O 328.33 0.289083 1.77663 0
M  V30 3488 H 324.705 0.379058 0.649476 0
M  V30 3489 H 326.676 2.17828 2.03945 0
M  V30 3490 C 325.425 0.968572 3.33937 0
M  V30 3491 H 324.748 1.80458 3.56756 0
M  V30 3492 H 326.188 0.934808 4.13567 0
M  V30 3493 C 324.647 -0.328628 3.35293 0
M  V30 3494 O 325.177 -1.33848 3.78745 0
M  V30 3495 N 323.383 -0.352788 2.88451 0
M  V30 3496 H 322.93 0.469541 2.53285 0
M  V30 3497 H 322.888 -1.22057 2.89741 0
M  V30 3498 N 326.66 -1.06551 1.16123 0
M  V30 3499 C 328.071 -1.60768 0.949232 0
M  V30 3500 C 328.422 -1.89523 -0.507508 0
M  V30 3501 O 327.547 -1.66671 -1.38021 0
M  V30 3502 C 328.142 -2.92086 1.71671 0
M  V30 3503 C 326.701 -3.43015 1.54977 0
M  V30 3504 C 325.848 -2.16947 1.72711 0
M  V30 3505 H 328.799 -0.895354 1.31031 0
M  V30 3506 H 328.82 -3.6138 1.19099 0
M  V30 3507 H 328.332 -2.71127 2.7769 0
M  V30 3508 H 326.433 -3.69039 0.513873 0
M  V30 3509 H 326.546 -4.18516 2.33198 0
M  V30 3510 H 324.91 -2.27041 1.15431 0
M  V30 3511 H 325.693 -1.98473 2.80113 0
M  V30 3512 N 328.138 -0.959301 -1.25041 0
M  V30 3513 C 329.048 -0.489994 -2.29426 0
M  V30 3514 C 330.064 0.444944 -1.68215 0
M  V30 3515 O 331.24 0.320046 -1.98841 0
M  V30 3516 C 328.305 0.220309 -3.45999 0
M  V30 3517 C 327.366 -0.753418 -4.22637 0
M  V30 3518 C 326.599 -0.076918 -5.33645 0
M  V30 3519 O 326.822 1.13649 -5.58963 0
M  V30 3520 O 325.756 -0.764824 -5.97021 0
M  V30 3521 H 329.582 -1.35755 -2.71669 0
M  V30 3522 H 327.167 -0.725961 -1.30576 0
M  V30 3523 H 329.049 0.619677 -4.16819 0
M  V30 3524 H 327.724 1.06296 -3.0575 0
M  V30 3525 H 326.631 -1.20308 -3.54227 0
M  V30 3526 H 327.964 -1.56423 -4.66683 0
M  V30 3527 N 329.616 1.39756 -0.72842 0
M  V30 3528 C 330.526 2.34444 -0.0855374 0
M  V30 3529 C 331.542 1.57976 0.729356 0
M  V30 3530 O 332.718 1.90301 0.659346 0
M  V30 3531 C 329.783 3.36965 0.815798 0
M  V30 3532 C 328.844 4.29299 -0.0105996 0
M  V30 3533 C 328.077 5.26923 0.84781 0
M  V30 3534 O 328.3 5.30859 2.08673 0
M  V30 3535 O 327.234 6.01249 0.279969 0
M  V30 3536 H 331.06 2.91065 -0.866892 0
M  V30 3537 H 328.645 1.4117 -0.48902 0
M  V30 3538 H 330.527 3.99804 1.33171 0
M  V30 3539 H 329.202 2.82739 1.57608 0
M  V30 3540 H 328.109 3.69703 -0.571877 0
M  V30 3541 H 329.442 4.86712 -0.73295 0
M  V30 3542 N 331.094 0.475555 1.50254 0
M  V30 3543 C 332.343 -0.0795996 2.01543 0
M  V30 3544 C 332.656 -1.4038 1.36209 0
M  V30 3545 O 333.862 -2.04415 1.7868 0
M  V30 3546 C 332.318 -0.192363 3.59386 0
M  V30 3547 C 331.926 1.12367 4.33679 0
M  V30 3548 C 333.67 -0.699238 4.18701 0
M  V30 3549 C 331.577 0.974453 5.83317 0
M  V30 3550 H 330.507 -0.0335228 0.753254 0
M  V30 3551 H 333.158 0.611128 1.73025 0
M  V30 3552 H 331.54 -0.946974 3.84511 0
M  V30 3553 H 332.714 1.88958 4.20276 0
M  V30 3554 H 331.029 1.562 3.85993 0
M  V30 3555 H 333.626 -0.827978 5.28251 0
M  V30 3556 H 333.969 -1.69171 3.80377 0
M  V30 3557 H 334.502 -0.00188807 3.978 0
M  V30 3558 H 331.241 1.94042 6.26121 0
M  V30 3559 H 330.761 0.248998 5.99283 0
M  V30 3560 H 332.44 0.642867 6.43798 0
M  V30 3561 N 332.573 -1.56217 0.208337 0
M  V30 3562 C 333.483 -2.23316 -0.718836 0
M  V30 3563 C 334.499 -1.23648 -1.22422 0
M  V30 3564 O 335.675 -1.56423 -1.26861 0
M  V30 3565 C 332.74 -2.88968 -1.91568 0
M  V30 3566 C 331.801 -4.03943 -1.45357 0
M  V30 3567 C 331.034 -4.66455 -2.59337 0
M  V30 3568 O 331.257 -4.27919 -3.77149 0
M  V30 3569 O 330.191 -5.55686 -2.31293 0
M  V30 3570 H 334.017 -3.03182 -0.177315 0
M  V30 3571 H 331.602 -1.49384 -0.0215402 0
M  V30 3572 H 333.484 -3.30455 -2.61491 0
M  V30 3573 H 332.159 -2.12071 -2.44556 0
M  V30 3574 H 331.066 -3.67052 -0.722746 0
M  V30 3575 H 332.399 -4.82543 -0.970219 0
M  V30 3576 N 334.051 0.0651679 -1.57465 0
M  V30 3577 C 334.998 1.07675 -2.04144 0
M  V30 3578 C 335.968 1.38071 -0.923335 0
M  V30 3579 O 337.153 1.49026 -1.19146 0
M  V30 3580 C 334.293 2.38337 -2.49579 0
M  V30 3581 C 333.406 2.14413 -3.75035 0
M  V30 3582 C 332.541 3.38686 -4.09225 0
M  V30 3583 C 331.58 3.10156 -5.27702 0
M  V30 3584 N 330.717 4.26778 -5.57499 0
M  V30 3585 H 335.557 0.671716 -2.90331 0
M  V30 3586 H 333.094 0.3201 -1.43575 0
M  V30 3587 H 335.052 3.14632 -2.73975 0
M  V30 3588 H 333.682 2.7663 -1.6636 0
M  V30 3589 H 332.734 1.2878 -3.57939 0
M  V30 3590 H 334.046 1.89344 -4.61466 0
M  V30 3591 H 333.2 4.23373 -4.34558 0
M  V30 3592 H 331.939 3.66837 -3.21374 0
M  V30 3593 H 330.944 2.23866 -5.02159 0
M  V30 3594 H 332.169 2.8332 -6.17176 0
M  V30 3595 H 330.115 4.54948 -4.72608 0
M  V30 3596 H 330.032 4.05005 -6.38362 0
M  V30 3597 H 331.3 5.12443 -5.87386 0
M  V30 3598 N 335.529 1.53961 0.336706 0
M  V30 3599 C 336.759 1.75229 1.09446 0
M  V30 3600 C 337.167 0.494602 1.82621 0
M  V30 3601 O 336.51 -0.543764 1.75468 0
M  V30 3602 C 336.572 2.88288 2.1478 0
M  V30 3603 C 336.236 4.27656 1.6112 0
M  V30 3604 C 337.233 5.08981 1.0599 0
M  V30 3605 C 334.918 4.74161 1.6576 0
M  V30 3606 C 336.912 6.34916 0.562129 0
M  V30 3607 C 334.599 6.00067 1.15595 0
M  V30 3608 C 335.597 6.80278 0.609147 0
M  V30 3609 O 335.285 8.03818 0.114999 0
M  V30 3610 H 335.017 0.588881 0.331956 0
M  V30 3611 H 337.571 2.01614 0.392566 0
M  V30 3612 H 335.801 2.57443 2.88548 0
M  V30 3613 H 337.49 2.97461 2.76174 0
M  V30 3614 H 338.256 4.74213 1.01722 0
M  V30 3615 H 334.135 4.11781 2.07261 0
M  V30 3616 H 337.679 6.9747 0.134668 0
M  V30 3617 H 333.576 6.3433 1.19566 0
M  V30 3618 H 334.344 8.18172 0.231651 0
M  V30 3619 N 337.007 -0.598083 1.45811 0
M  V30 3620 C 338.253 -1.35882 1.50545 0
M  V30 3621 C 338.586 -1.93616 0.150445 0
M  V30 3622 O 337.861 -1.75604 -0.83628 0
M  V30 3623 C 338.144 -2.49966 2.59208 0
M  V30 3624 C 337.997 -1.97367 4.04186 0
M  V30 3625 C 339.316 -3.52068 2.64076 0
M  V30 3626 H 336.435 -0.492717 0.548087 0
M  V30 3627 H 339.077 -0.673319 1.77669 0
M  V30 3628 H 337.227 -3.08443 2.3621 0
M  V30 3629 H 338.899 -1.43466 4.38423 0
M  V30 3630 H 337.142 -1.283 4.14393 0
M  V30 3631 H 337.813 -2.79649 4.75921 0
M  V30 3632 H 340.289 -3.03448 2.84708 0
M  V30 3633 H 339.165 -4.2937 3.41954 0
M  V30 3634 H 339.426 -4.08304 1.69531 0
M  V30 3635 N 338.485 -1.33259 -0.841409 0
M  V30 3636 C 339.448 -1.23221 -1.9326 0
M  V30 3637 C 340.448 -0.151895 -1.60081 0
M  V30 3638 O 341.638 -0.403246 -1.69468 0
M  V30 3639 C 338.77 -0.898123 -3.28856 0
M  V30 3640 H 339.963 -2.2021 -2.03587 0
M  V30 3641 H 337.516 -1.17281 -1.03319 0
M  V30 3642 H 338.251 0.0693841 -3.24226 0
M  V30 3643 H 338.036 -1.67934 -3.54317 0
M  V30 3644 H 339.526 -0.852563 -4.08805 0
M  V30 3645 N 339.963 1.05934 -1.16686 0
M  V30 3646 C 340.873 2.17014 -0.891183 0
M  V30 3647 C 341.889 1.73453 0.137907 0
M  V30 3648 O 343.065 2.01361 -0.039592 0
M  V30 3649 C 340.13 3.44384 -0.400099 0
M  V30 3650 C 339.191 4.02433 -1.49486 0
M  V30 3651 C 338.424 5.23723 -1.02711 0
M  V30 3652 O 338.647 5.7027 0.121716 0
M  V30 3653 O 337.581 5.7382 -1.81699 0
M  V30 3654 H 341.407 2.43113 -1.82015 0
M  V30 3655 H 338.992 1.15541 -0.947132 0
M  V30 3656 H 340.874 4.21189 -0.133392 0
M  V30 3657 H 339.549 3.19802 0.500817 0
M  V30 3658 H 338.456 3.27102 -1.81535 0
M  V30 3659 H 339.789 4.31317 -2.37121 0
M  V30 3660 N 341.441 0.965919 1.2453 0
M  V30 3661 C 342.69 0.622437 1.91856 0
M  V30 3662 C 343.003 -0.846006 1.76358 0
M  V30 3663 O 344.209 -1.29993 2.38357 0
M  V30 3664 C 342.665 1.0626 3.43856 0
M  V30 3665 C 342.273 2.55437 3.68043 0
M  V30 3666 C 344.017 0.792183 4.17043 0
M  V30 3667 C 341.924 2.93196 5.13605 0
M  V30 3668 H 340.854 0.229092 0.718354 0
M  V30 3669 H 343.505 1.17189 1.41206 0
M  V30 3670 H 341.887 0.441476 3.93531 0
M  V30 3671 H 343.061 3.22665 3.28974 0
M  V30 3672 H 341.376 2.8007 3.08139 0
M  V30 3673 H 343.973 1.05031 5.24283 0
M  V30 3674 H 344.316 -0.271584 4.15413 0
M  V30 3675 H 344.849 1.37419 3.73311 0
M  V30 3676 H 341.588 3.98636 5.20355 0
M  V30 3677 H 341.108 2.30651 5.53679 0
M  V30 3678 H 342.787 2.83004 5.81823 0
M  V30 3679 N 342.919 -1.39368 0.735821 0
M  V30 3680 C 343.829 -2.34395 0.0979693 0
M  V30 3681 C 344.845 -1.58361 -0.720968 0
M  V30 3682 O 346.021 -1.90648 -0.649245 0
M  V30 3683 C 343.086 -3.37393 -0.797916 0
M  V30 3684 C 342.147 -4.29287 0.0333662 0
M  V30 3685 C 341.38 -5.27365 -0.819854 0
M  V30 3686 O 341.603 -5.31959 -2.05855 0
M  V30 3687 O 340.537 -6.01389 -0.248079 0
M  V30 3688 H 344.363 -2.90601 0.882315 0
M  V30 3689 H 341.948 -1.40909 0.4965 0
M  V30 3690 H 343.83 -4.00505 -1.31048 0
M  V30 3691 H 342.505 -2.83571 -1.56106 0
M  V30 3692 H 341.412 -3.69395 0.591475 0
M  V30 3693 H 342.745 -4.86317 0.758752 0
M  V30 3694 N 344.397 -0.483516 -1.5 0
M  V30 3695 C 345.344 0.304164 -2.28787 0
M  V30 3696 C 346.314 0.976114 -1.34392 0
M  V30 3697 O 347.499 0.986156 -1.63339 0
M  V30 3698 C 344.639 1.37298 -3.16612 0
M  V30 3699 C 343.752 0.714561 -4.26049 0
M  V30 3700 C 342.887 1.76232 -5.01114 0
M  V30 3701 C 341.926 1.08483 -6.0241 0
M  V30 3702 N 341.063 2.076 -6.70706 0
M  V30 3703 H 345.903 -0.373981 -2.95644 0
M  V30 3704 H 343.44 -0.196275 -1.45785 0
M  V30 3705 H 345.398 2.00445 -3.65893 0
M  V30 3706 H 344.028 2.02012 -2.51776 0
M  V30 3707 H 343.08 -0.0297798 -3.80388 0
M  V30 3708 H 344.392 0.180383 -4.98474 0
M  V30 3709 H 343.546 2.46929 -5.54176 0
M  V30 3710 H 342.285 2.33033 -4.28424 0
M  V30 3711 H 341.29 0.363545 -5.48597 0
M  V30 3712 H 342.515 0.523551 -6.77079 0
M  V30 3713 H 340.461 2.63394 -6.00799 0
M  V30 3714 H 340.378 1.59201 -7.39047 0
M  V30 3715 H 341.646 2.77639 -7.2838 0
M  V30 3716 N 345.875 1.56104 -0.216619 0
M  V30 3717 C 346.785 2.23694 0.706982 0
M  V30 3718 C 347.801 1.24295 1.21765 0
M  V30 3719 O 348.977 1.57094 1.2603 0
M  V30 3720 C 346.042 2.8998 1.90033 0
M  V30 3721 C 345.103 4.04708 1.43213 0
M  V30 3722 C 344.336 4.67824 2.56859 0
M  V30 3723 O 344.559 4.29913 3.74874 0
M  V30 3724 O 343.493 5.56905 2.28343 0
M  V30 3725 H 347.319 3.03272 0.161235 0
M  V30 3726 H 344.904 1.49394 0.0136177 0
M  V30 3727 H 346.786 3.31837 2.59735 0
M  V30 3728 H 345.461 2.13365 2.43428 0
M  V30 3729 H 344.368 3.6743 0.70327 0
M  V30 3730 H 345.701 4.83051 0.944615 0
M  V30 3731 N 347.353 -0.0568162 1.57498 0
M  V30 3732 C 348.3 -1.06591 2.04712 0
M  V30 3733 C 349.27 -1.3758 0.930644 0
M  V30 3734 O 350.455 -1.48392 1.19935 0
M  V30 3735 C 347.595 -2.3701 2.50839 0
M  V30 3736 C 346.708 -2.12421 3.76167 0
M  V30 3737 C 345.843 -3.36511 4.11015 0
M  V30 3738 C 344.882 -3.07353 5.2934 0
M  V30 3739 N 344.019 -4.23816 5.59754 0
M  V30 3740 H 348.859 -0.65631 2.90683 0
M  V30 3741 H 346.396 -0.312481 1.43743 0
M  V30 3742 H 348.354 -3.13175 2.7564 0
M  V30 3743 H 346.984 -2.75744 1.67825 0
M  V30 3744 H 346.036 -1.2688 3.58616 0
M  V30 3745 H 347.348 -1.86894 4.62463 0
M  V30 3746 H 346.502 -4.21062 4.36797 0
M  V30 3747 H 345.241 -3.65128 3.23315 0
M  V30 3748 H 344.246 -2.212 5.03339 0
M  V30 3749 H 345.471 -2.80043 6.1867 0
M  V30 3750 H 343.417 -4.52436 4.75014 0
M  V30 3751 H 343.334 -4.01614 6.40501 0
M  V30 3752 H 344.602 -5.0932 5.90096 0
M  V30 3753 N 348.832 -1.54138 -0.328536 0
M  V30 3754 C 349.742 -1.86192 -1.42723 0
M  V30 3755 C 350.758 -0.753382 -1.56844 0
M  V30 3756 O 351.934 -1.04718 -1.72035 0
M  V30 3757 C 348.999 -2.07824 -2.77507 0
M  V30 3758 C 348.06 -3.31641 -2.72603 0
M  V30 3759 C 347.293 -3.52232 -4.00959 0
M  V30 3760 O 347.516 -2.7636 -4.9898 0
M  V30 3761 O 346.45 -4.45699 -4.0452 0
M  V30 3762 H 350.276 -2.79608 -1.18547 0
M  V30 3763 H 347.861 -1.3998 -0.522104 0
M  V30 3764 H 349.743 -2.23411 -3.57303 0
M  V30 3765 H 348.418 -1.17596 -3.01584 0
M  V30 3766 H 347.325 -3.21444 -1.91376 0
M  V30 3767 H 348.658 -4.2191 -2.53481 0
M  V30 3768 N 350.31 0.590341 -1.46126 0
M  V30 3769 C 351.22 1.72793 -1.58681 0
M  V30 3770 C 352.236 1.67516 -0.470566 0
M  V30 3771 O 353.412 1.87562 -0.733642 0
M  V30 3772 C 350.477 3.09287 -1.5666 0
M  V30 3773 C 349.538 3.25886 -2.79458 0
M  V30 3774 C 348.771 4.55869 -2.77524 0
M  V30 3775 O 348.994 5.3928 -1.85832 0
M  V30 3776 O 347.928 4.75552 -3.68964 0
M  V30 3777 H 351.754 1.65149 -2.54872 0
M  V30 3778 H 349.339 0.756486 -1.28832 0
M  V30 3779 H 351.221 3.90577 -1.58202 0
M  V30 3780 H 349.896 3.17385 -0.636271 0
M  V30 3781 H 348.803 2.44119 -2.83472 0
M  V30 3782 H 350.136 3.22675 -3.71674 0
M  V30 3783 N 351.788 1.33704 0.83433 0
M  V30 3784 C 352.736 1.24323 1.96587 0
M  V30 3785 C 353.73 0.143659 1.6879 0
M  V30 3786 O 354.936 0.30791 1.77347 0
M  V30 3787 H 351.311 0.385925 0.645419 0
M  V30 3788 H 353.282 2.19978 2.01624 0
M  V30 3789 C 352.031 1.00394 3.32891 0
M  V30 3790 H 351.354 1.84231 3.54822 0
M  V30 3791 H 352.794 0.97862 4.12552 0
M  V30 3792 C 351.253 -0.293047 3.35623 0
M  V30 3793 O 351.783 -1.29823 3.80143 0
M  V30 3794 N 349.989 -0.322174 2.88809 0
M  V30 3795 H 349.536 0.496379 2.52772 0
M  V30 3796 H 349.494 -1.18977 2.91019 0
M  V30 3797 N 353.266 -1.05314 1.17247 0
M  V30 3798 C 354.176 -2.16538 0.90268 0
M  V30 3799 C 355.192 -1.73523 -0.128707 0
M  V30 3800 O 356.368 -2.01337 0.0502701 0
M  V30 3801 C 353.433 -3.44167 0.418356 0
M  V30 3802 C 352.494 -4.01635 1.51618 0
M  V30 3803 C 351.727 -5.23171 1.05487 0
M  V30 3804 O 351.95 -5.70327 -0.0914715 0
M  V30 3805 O 350.884 -5.72848 1.8474 0
M  V30 3806 H 354.71 -2.42145 1.83302 0
M  V30 3807 H 352.295 -1.15037 0.953246 0
M  V30 3808 H 354.177 -4.21112 0.155726 0
M  V30 3809 H 352.852 -3.20063 -0.48385 0
M  V30 3810 H 351.759 -3.26135 1.83268 0
M  V30 3811 H 353.092 -4.30053 2.39405 0
M  V30 3812 N 354.744 -0.972509 -1.24016 0
M  V30 3813 C 355.691 -0.505969 -2.25186 0
M  V30 3814 C 356.661 0.451009 -1.5986 0
M  V30 3815 O 357.846 0.360307 -1.87367 0
M  V30 3816 C 354.986 0.193089 -3.44559 0
M  V30 3817 C 354.099 -0.803222 -4.24467 0
M  V30 3818 C 353.234 -0.0797793 -5.3114 0
M  V30 3819 C 352.273 -1.06583 -6.02749 0
M  V30 3820 N 351.41 -0.372074 -7.01113 0
M  V30 3821 H 356.25 -1.37351 -2.64459 0
M  V30 3822 H 353.787 -0.688419 -1.29997 0
M  V30 3823 H 355.745 0.615125 -4.1264 0
M  V30 3824 H 354.375 1.02455 -3.06109 0
M  V30 3825 H 353.427 -1.34368 -3.55878 0
M  V30 3826 H 354.739 -1.55494 -4.73944 0
M  V30 3827 H 353.893 0.400015 -6.0538 0
M  V30 3828 H 352.632 0.704597 -4.82583 0
M  V30 3829 H 351.637 -1.55645 -5.27309 0
M  V30 3830 H 352.862 -1.85074 -6.53395 0
M  V30 3831 H 350.808 0.393238 -6.5482 0
M  V30 3832 H 350.725 -1.06258 -7.48495 0
M  V30 3833 H 351.993 0.0855932 -7.79453 0
M  V30 3834 N 356.222 1.38976 -0.743202 0
M  V30 3835 C 357.169 2.30544 -0.10861 0
M  V30 3836 C 358.139 1.49642 0.720869 0
M  V30 3837 O 359.324 1.78304 0.679142 0
M  V30 3838 C 356.464 3.36018 0.786496 0
M  V30 3839 C 355.577 4.31963 -0.0564849 0
M  V30 3840 C 354.712 5.24506 0.840657 0
M  V30 3841 C 353.751 6.121 -0.00658363 0
M  V30 3842 N 352.888 6.96973 0.846943 0
M  V30 3843 H 357.728 2.8424 -0.895088 0
M  V30 3844 H 355.265 1.3995 -0.453048 0
M  V30 3845 H 357.223 3.95768 1.31999 0
M  V30 3846 H 355.853 2.83758 1.53887 0
M  V30 3847 H 354.905 3.73763 -0.707492 0
M  V30 3848 H 356.217 4.93703 -0.711229 0
M  V30 3849 H 355.371 5.89322 1.4417 0
M  V30 3850 H 354.11 4.63107 1.52916 0
M  V30 3851 H 353.115 5.46289 -0.620366 0
M  V30 3852 H 354.34 6.75565 -0.691992 0
M  V30 3853 H 352.286 6.38133 1.52059 0
M  V30 3854 H 352.203 7.5559 0.248864 0
M  V30 3855 H 353.471 7.6621 1.43328 0
M  V30 3856 N 357.7 0.491464 1.49741 0
M  V30 3857 C 358.647 -0.292027 2.28945 0
M  V30 3858 C 359.617 -0.968973 1.34908 0
M  V30 3859 O 360.802 -0.97748 1.6386 0
M  V30 3860 C 357.942 -1.35617 3.17336 0
M  V30 3861 C 357.055 -0.691957 4.26422 0
M  V30 3862 C 356.19 -1.73572 5.02042 0
M  V30 3863 C 355.229 -1.05286 6.02977 0
M  V30 3864 N 354.366 -2.0404 6.71798 0
M  V30 3865 H 359.206 0.389654 2.95442 0
M  V30 3866 H 356.743 0.204003 1.45679 0
M  V30 3867 H 358.701 -1.98502 3.66951 0
M  V30 3868 H 357.331 -2.00674 2.52844 0
M  V30 3869 H 356.383 0.0499523 3.80367 0
M  V30 3870 H 357.695 -0.153946 4.98562 0
M  V30 3871 H 356.849 -2.43987 5.55478 0
M  V30 3872 H 355.588 -2.30757 4.29654 0
M  V30 3873 H 354.593 -0.334446 5.48782 0
M  V30 3874 H 355.818 -0.487636 6.77347 0
M  V30 3875 H 353.764 -2.60205 6.02187 0
M  V30 3876 H 353.681 -1.55279 7.39881 0
M  V30 3877 H 354.949 -2.73772 7.29842 0
M  V30 3878 N 359.178 -1.55987 0.224894 0
M  V30 3879 C 360.11 -2.17722 -0.716224 0
M  V30 3880 C 361.123 -1.14723 -1.15509 0
M  V30 3881 O 362.312 -1.41688 -1.08567 0
M  V30 3882 C 359.412 -2.74873 -1.98238 0
M  V30 3883 C 358.585 -4.03074 -1.69853 0
M  V30 3884 C 357.644 -4.44757 -2.81208 0
M  V30 3885 O 356.67 -5.11587 -2.49534 0
M  V30 3886 N 357.872 -4.10716 -4.10235 0
M  V30 3887 H 360.637 -2.99109 -0.188123 0
M  V30 3888 H 358.198 -1.6184 0.0440123 0
M  V30 3889 H 360.19 -2.99727 -2.7193 0
M  V30 3890 H 358.76 -1.9777 -2.42086 0
M  V30 3891 H 357.98 -3.86041 -0.797875 0
M  V30 3892 H 359.268 -4.86701 -1.48324 0
M  V30 3893 H 358.666 -3.57019 -4.38809 0
M  V30 3894 H 357.223 -4.40455 -4.80461 0
M  V30 3895 N 360.656 0.0484629 -1.57525 0
M  V30 3896 C 361.603 1.05504 -2.05275 0
M  V30 3897 C 362.573 1.37084 -0.937927 0
M  V30 3898 O 363.758 1.47754 -1.2072 0
M  V30 3899 C 360.898 2.35676 -2.52093 0
M  V30 3900 C 360.011 2.10423 -3.77288 0
M  V30 3901 C 359.146 3.34327 -4.12794 0
M  V30 3902 C 358.185 3.04542 -5.30962 0
M  V30 3903 N 357.322 4.20841 -5.61994 0
M  V30 3904 H 362.162 0.640885 -2.91027 0
M  V30 3905 H 359.699 0.304854 -1.43906 0
M  V30 3906 H 361.657 3.11709 -2.77297 0
M  V30 3907 H 360.287 2.7485 -1.69285 0
M  V30 3908 H 359.339 1.24976 -3.59284 0
M  V30 3909 H 360.651 1.84438 -4.63448 0
M  V30 3910 H 359.805 4.1874 -4.39024 0
M  V30 3911 H 358.544 3.63408 -3.25247 0
M  V30 3912 H 357.549 2.18528 -5.04505 0
M  V30 3913 H 358.774 2.76758 -6.20146 0
M  V30 3914 H 356.72 4.4991 -4.77406 0
M  V30 3915 H 356.637 3.98212 -6.42622 0
M  V30 3916 H 357.905 5.06184 -5.92789 0
M  V30 3917 N 362.134 1.5431 0.320358 0
M  V30 3918 C 363.081 1.83918 1.39438 0
M  V30 3919 C 364.051 0.686525 1.51248 0
M  V30 3920 O 365.236 0.933269 1.66417 0
M  V30 3921 C 362.376 2.075 2.75749 0
M  V30 3922 C 361.489 3.35177 2.72544 0
M  V30 3923 C 360.624 3.48704 4.00723 0
M  V30 3924 C 359.663 4.70244 3.91838 0
M  V30 3925 N 358.8 4.80679 5.11754 0
M  V30 3926 H 363.64 2.75544 1.13489 0
M  V30 3927 H 361.177 1.36459 0.549309 0
M  V30 3928 H 363.135 2.19166 3.54996 0
M  V30 3929 H 361.765 1.19163 3 0
M  V30 3930 H 360.817 3.32233 1.85271 0
M  V30 3931 H 362.129 4.24534 2.61863 0
M  V30 3932 H 361.283 3.59928 4.88402 0
M  V30 3933 H 360.022 2.57445 4.14214 0
M  V30 3934 H 359.027 4.59072 3.02544 0
M  V30 3935 H 360.252 5.6289 3.7991 0
M  V30 3936 H 358.198 3.92337 5.25745 0
M  V30 3937 H 358.115 5.64007 5.0342 0
M  V30 3938 H 359.383 4.96239 6.01138 0
M  V30 3939 N 363.613 -0.582584 1.46437 0
M  V30 3940 C 364.576 -1.67366 1.56592 0
M  V30 3941 C 365.576 -1.54575 0.443072 0
M  V30 3942 O 366.766 -1.59191 0.707381 0
M  V30 3943 C 363.898 -3.06791 1.48634 0
M  V30 3944 H 365.091 -1.5972 2.5383 0
M  V30 3945 H 362.644 -0.800432 1.34249 0
M  V30 3946 H 363.379 -3.19993 0.526763 0
M  V30 3947 H 363.164 -3.17484 2.30101 0
M  V30 3948 H 364.654 -3.86218 1.58826 0
M  V30 3949 N 365.091 -1.34144 -0.827227 0
M  V30 3950 C 366.316 -1.29476 -1.62021 0
M  V30 3951 C 366.741 0.129292 -1.87655 0
M  V30 3952 O 366.099 1.08967 -1.449 0
M  V30 3953 C 366.147 -2.08702 -2.94068 0
M  V30 3954 O 365.251 -1.45359 -3.85933 0
M  V30 3955 H 364.592 -0.444881 -0.492927 0
M  V30 3956 H 367.122 -1.76882 -1.02829 0
M  V30 3957 H 367.132 -2.19898 -3.43669 0
M  V30 3958 H 365.807 -3.12241 -2.74734 0
M  V30 3959 H 364.384 -1.42879 -3.44442 0
M  V30 3960 O 366.608 0.965494 -1.29462 0
M  V30 3961 H 367.299 1.59208 -1.10329 0
M  V30 END ATOM
M  V30 BEGIN BOND
M  V30 END BOND
M  V30 END CTAB
M  END
$$$$
