drugbank_target|O14832 Phytanoyl-CoA dioxygenase, peroxisomal (DB00025; DB00126; DB13998; DB13999)
 OpenBabel12092120063D

  0  0  0     0  0            999 V3000
M  V30 BEGIN CTAB
M  V30 COUNTS 5407 5474 0 0 0
M  V30 BEGIN ATOM
M  V30 1 H -0.908 1.98254 -0.117106 0
M  V30 2 N 0 1.576 0 0
M  V30 3 C 0.933 2.03868 1.02534 0
M  V30 4 C 1.911 0.928543 1.3348 0
M  V30 5 O 3.095 1.19667 1.45644 0
M  V30 6 C 0.222 2.43627 2.35294 0
M  V30 7 C -0.732 3.65373 2.2001 0
M  V30 8 S 0.101 5.13292 1.52614 0
M  V30 9 C 1.257 5.56322 2.86805 0
M  V30 10 H 1.49 2.90518 0.631377 0
M  V30 11 H -0.977 1.52953 0.210867 0
M  V30 12 H 0.981 2.67203 3.11629 0
M  V30 13 H -0.358 1.57376 2.7183 0
M  V30 14 H -1.165 3.90944 3.18086 0
M  V30 15 H -1.563 3.418 1.51819 0
M  V30 16 H 0.729 5.58782 3.83104 0
M  V30 17 H 1.672 6.56266 2.65933 0
M  V30 18 H 2.08 4.83886 2.90714 0
M  V30 19 N 1.4781 -0.272755 1.55222 0
M  V30 20 C 2.3881 -1.35918 1.91216 0
M  V30 21 C 3.4041 -1.54026 0.809436 0
M  V30 22 O 4.5801 -1.68148 1.10852 0
M  V30 23 C 1.6451 -2.69834 2.17693 0
M  V30 24 C 0.7061 -2.6047 3.41253 0
M  V30 25 C -0.0609 -3.88 3.66458 0
M  V30 26 O 0.1621 -4.88693 2.94169 0
M  V30 27 O -0.9039 -3.88189 4.59992 0
M  V30 28 H 2.9221 -1.0839 2.83699 0
M  V30 29 H 0.5071 -0.471301 1.41771 0
M  V30 30 H 2.3891 -3.49017 2.36147 0
M  V30 31 H 1.0641 -2.97148 1.28392 0
M  V30 32 H -0.0289 -1.79663 3.28134 0
M  V30 33 H 1.3041 -2.38106 4.30774 0
M  V30 34 N 2.9562 -1.48159 -0.537278 0
M  V30 35 C 3.8882 -1.58218 -1.65831 0
M  V30 36 C 4.9012 -0.466948 -1.5596 0
M  V30 37 O 6.0902 -0.73747 -1.62553 0
M  V30 38 C 3.1902 -1.48906 -3.04434 0
M  V30 39 C 2.3632 -2.75343 -3.3986 0
M  V30 40 C 1.4222 -2.59588 -4.57712 0
M  V30 41 O 0.4482 -3.33457 -4.61297 0
M  V30 42 N 1.6502 -1.68724 -5.55439 0
M  V30 43 H 4.4152 -2.54891 -1.57641 0
M  V30 44 H 1.9762 -1.4479 -0.724386 0
M  V30 45 H 3.9682 -1.36072 -3.81139 0
M  V30 46 H 2.5382 -0.602368 -3.06741 0
M  V30 47 H 1.7582 -3.02795 -2.52406 0
M  V30 48 H 3.0462 -3.5924 -3.60311 0
M  V30 49 H 2.4442 -1.07898 -5.55315 0
M  V30 50 H 1.0012 -1.61832 -6.3139 0
M  V30 51 N 4.4343 0.785586 -1.36625 0
M  V30 52 C 5.3643 1.91259 -1.33949 0
M  V30 53 C 6.3453 1.68795 -0.210325 0
M  V30 54 O 7.5303 1.89854 -0.408561 0
M  V30 55 C 4.6603 3.28339 -1.13186 0
M  V30 56 C 3.6143 3.65335 -2.22967 0
M  V30 57 C 2.9403 5.00806 -1.87342 0
M  V30 58 C 4.2403 3.7352 -3.65075 0
M  V30 59 H 5.9343 1.93755 -2.28253 0
M  V30 60 H 3.4803 0.930788 -1.09874 0
M  V30 61 H 5.4333 4.06804 -1.09948 0
M  V30 62 H 4.1573 3.2624 -0.153332 0
M  V30 63 H 2.8163 2.89169 -2.25337 0
M  V30 64 H 2.4643 4.95233 -0.880545 0
M  V30 65 H 2.1643 5.26529 -2.60846 0
M  V30 66 H 3.6883 5.81687 -1.85667 0
M  V30 67 H 5.1023 4.42168 -3.64911 0
M  V30 68 H 3.4993 4.10731 -4.37516 0
M  V30 69 H 4.5693 2.74527 -3.99703 0
M  V30 70 N 5.9124 1.20967 1.01018 0
M  V30 71 C 7.3284 0.965905 1.27053 0
M  V30 72 C 7.5284 -0.350785 1.98423 0
M  V30 73 O 6.5844 -1.07773 2.28344 0
M  V30 74 C 7.8974 2.15294 2.09926 0
M  V30 75 C 9.4454 2.19463 2.23171 0
M  V30 76 C 9.9204 3.3767 3.09424 0
M  V30 77 N 11.4114 3.37724 3.17012 0
M  V30 78 C 12.1464 4.25837 3.83993 0
M  V30 79 N 11.6424 5.24138 4.53047 0
M  V30 80 N 13.4354 4.1366 3.80581 0
M  V30 81 H 5.5864 2.0565 0.531194 0
M  V30 82 H 7.8494 0.90024 0.297106 0
M  V30 83 H 7.5554 3.10684 1.64828 0
M  V30 84 H 7.4294 2.13923 3.10672 0
M  V30 85 H 9.8164 1.24632 2.6749 0
M  V30 86 H 9.8974 2.2488 1.21912 0
M  V30 87 H 9.5414 4.32791 2.65808 0
M  V30 88 H 9.4714 3.29491 4.10784 0
M  V30 89 H 11.9624 2.6658 2.6785 0
M  V30 90 H 12.2754 5.87684 5.01844 0
M  V30 91 H 10.6204 5.28068 4.5185 0
M  V30 92 H 13.8114 3.36127 3.25785 0
M  V30 93 H 13.9844 4.82538 4.32505 0
M  V30 94 N 7.3905 -1.2043 1.01659 0
M  V30 95 C 8.3535 -2.21433 0.591616 0
M  V30 96 C 9.3535 -1.57203 -0.338226 0
M  V30 97 O 10.5435 -1.73737 -0.126918 0
M  V30 98 C 7.6755 -3.40628 -0.136058 0
M  V30 99 H 8.8685 -2.60545 1.48514 0
M  V30 100 H 6.4215 -1.33893 0.806379 0
M  V30 101 H 7.1565 -3.07019 -1.04449 0
M  V30 102 H 6.9415 -3.88475 0.531917 0
M  V30 103 H 8.4315 -4.15475 -0.420735 0
M  V30 104 N 8.8686 -0.792821 -1.36206 0
M  V30 105 C 9.8316 -0.199459 -2.2833 0
M  V30 106 C 10.8316 0.605189 -1.48977 0
M  V30 107 O 12.0216 0.425685 -1.68919 0
M  V30 108 C 9.1536 0.723523 -3.33134 0
M  V30 109 H 10.3466 -1.01181 -2.82316 0
M  V30 110 H 7.8996 -0.562485 -1.45828 0
M  V30 111 H 8.6346 1.56008 -2.84309 0
M  V30 112 H 8.4196 0.148436 -3.91819 0
M  V30 113 H 9.9096 1.13344 -4.01924 0
M  V30 114 N 10.3467 1.47872 -0.545128 0
M  V30 115 C 11.3097 2.28337 0.198717 0
M  V30 116 C 12.3097 1.36255 0.853888 0
M  V30 117 O 13.4997 1.59003 0.711606 0
M  V30 118 C 10.6317 3.15585 1.28915 0
M  V30 119 H 11.8247 2.95567 -0.507941 0
M  V30 120 H 9.3777 1.53362 -0.301616 0
M  V30 121 H 10.1127 2.53019 2.02859 0
M  V30 122 H 9.8977 3.83337 0.824309 0
M  V30 123 H 11.3877 3.76243 1.81194 0
M  V30 124 N 11.8248 0.280983 1.55075 0
M  V30 125 C 13.2408 -0.0729964 1.59433 0
M  V30 126 C 13.4408 -1.5411 1.29817 0
M  V30 127 O 12.4968 -2.29086 1.06187 0
M  V30 128 C 13.8098 0.306921 2.9913 0
M  V30 129 C 15.3578 0.254023 3.11968 0
M  V30 130 C 15.8328 0.608467 4.5394 0
M  V30 131 N 17.3238 0.560241 4.59799 0
M  V30 132 C 18.0588 0.80722 5.6769 0
M  V30 133 N 17.5548 1.11912 6.83701 0
M  V30 134 N 19.3478 0.735623 5.57266 0
M  V30 135 H 11.4988 1.238 1.7259 0
M  V30 136 H 13.7618 0.500547 0.805082 0
M  V30 137 H 13.4678 1.32816 3.25657 0
M  V30 138 H 13.3418 -0.349363 3.75579 0
M  V30 139 H 15.7288 -0.75794 2.852 0
M  V30 140 H 15.8098 0.944649 2.37718 0
M  V30 141 H 15.4538 1.61814 4.81434 0
M  V30 142 H 15.3838 -0.104013 5.26497 0
M  V30 143 H 17.8748 0.329288 3.76463 0
M  V30 144 H 18.1878 1.29409 7.61888 0
M  V30 145 H 16.5328 1.15695 6.85303 0
M  V30 146 H 19.7238 0.491752 4.6551 0
M  V30 147 H 19.8968 0.931482 6.4127 0
M  V30 148 N 13.3029 -1.57598 0.00835791 0
M  V30 149 C 14.2329 -2.1198 -0.979113 0
M  V30 150 C 15.2139 -1.03091 -1.35301 0
M  V30 151 O 16.3989 -1.30818 -1.43528 0
M  V30 152 C 13.5289 -2.62995 -2.26828 0
M  V30 153 C 12.4829 -3.76485 -2.03576 0
M  V30 154 C 11.8089 -4.13846 -3.38579 0
M  V30 155 C 13.1089 -5.0342 -1.39161 0
M  V30 156 H 14.8029 -2.94738 -0.526281 0
M  V30 157 H 12.3489 -1.41783 -0.251704 0
M  V30 158 H 14.3019 -2.99669 -2.96271 0
M  V30 159 H 13.0259 -1.7737 -2.7424 0
M  V30 160 H 11.6849 -3.40217 -1.36557 0
M  V30 161 H 11.3329 -3.25232 -3.83709 0
M  V30 162 H 11.0329 -4.90312 -3.23834 0
M  V30 163 H 12.5569 -4.53086 -4.09323 0
M  V30 164 H 13.9709 -5.37812 -1.98573 0
M  V30 165 H 12.3679 -5.84746 -1.34878 0
M  V30 166 H 13.4379 -4.83548 -0.361868 0
M  V30 167 N 14.781 0.264519 -1.55364 0
M  V30 168 C 15.713 1.34965 -1.85248 0
M  V30 169 C 16.726 1.45136 -0.737525 0
M  V30 170 O 17.915 1.46801 -1.01547 0
M  V30 171 C 15.015 2.73008 -2.00797 0
M  V30 172 C 14.188 2.85324 -3.31525 0
M  V30 173 C 13.247 4.04097 -3.37034 0
M  V30 174 O 12.273 3.94455 -4.10358 0
M  V30 175 N 13.475 5.16458 -2.65049 0
M  V30 176 H 16.24 1.09672 -2.78913 0
M  V30 177 H 13.801 0.454635 -1.55386 0
M  V30 178 H 15.793 3.50772 -2.01844 0
M  V30 179 H 14.363 2.91087 -1.1396 0
M  V30 180 H 13.583 1.94377 -3.42945 0
M  V30 181 H 14.871 2.9049 -4.17724 0
M  V30 182 H 14.269 5.27181 -2.05175 0
M  V30 183 H 12.826 5.92422 -2.71809 0
M  V30 184 N 16.2591 1.48442 0.529413 0
M  V30 185 C 17.5081 1.55742 1.28169 0
M  V30 186 C 17.8211 0.236511 1.94165 0
M  V30 187 O 19.0271 0.187761 2.7085 0
M  V30 188 C 17.4831 2.74667 2.32564 0
M  V30 189 C 17.0911 4.13402 1.72636 0
M  V30 190 C 18.8351 2.9128 3.08798 0
M  V30 191 C 16.7421 5.23587 2.74975 0
M  V30 192 H 15.6721 0.579796 0.48203 0
M  V30 193 H 18.3231 1.74776 0.559056 0
M  V30 194 H 16.7051 2.49067 3.07866 0
M  V30 195 H 17.8791 4.49022 1.03519 0
M  V30 196 H 16.1941 4.0191 1.08892 0
M  V30 197 H 18.7911 3.70767 3.85274 0
M  V30 198 H 19.1341 2.00757 3.64695 0
M  V30 199 H 19.6671 3.16782 2.40611 0
M  V30 200 H 16.4061 6.16076 2.23897 0
M  V30 201 H 15.9261 4.92454 3.42417 0
M  V30 202 H 17.6051 5.51724 3.37949 0
M  V30 203 N 17.7372 -0.778329 1.37039 0
M  V30 204 C 18.9832 -1.53892 1.32079 0
M  V30 205 C 19.3162 -1.9396 -0.0965386 0
M  V30 206 O 18.5912 -1.63568 -1.05242 0
M  V30 207 C 18.8742 -2.80847 2.25382 0
M  V30 208 C 18.7272 -2.47076 3.75864 0
M  V30 209 C 20.0462 -3.82741 2.1725 0
M  V30 210 H 17.1652 -0.558303 0.48111 0
M  V30 211 H 19.8072 -0.893397 1.67685 0
M  V30 212 H 17.9572 -3.35931 1.95148 0
M  V30 213 H 19.6292 -1.97957 4.16666 0
M  V30 214 H 17.8722 -1.79863 3.94755 0
M  V30 215 H 18.5432 -3.37798 4.36574 0
M  V30 216 H 21.0192 -3.37133 2.43887 0
M  V30 217 H 19.8952 -4.69303 2.84686 0
M  V30 218 H 20.1562 -4.2652 1.16331 0
M  V30 219 N 19.2153 -1.21501 -1.00376 0
M  V30 220 C 20.1453 -0.999478 -2.11028 0
M  V30 221 C 21.1263 0.0759671 -1.6993 0
M  V30 222 O 22.3113 -0.0841106 -1.94018 0
M  V30 223 C 19.4413 -0.564709 -3.42678 0
M  V30 224 C 18.3953 -1.58486 -3.97576 0
M  V30 225 C 17.7213 -1.00628 -5.25146 0
M  V30 226 C 19.0213 -2.97204 -4.29496 0
M  V30 227 H 20.7153 -1.92495 -2.29317 0
M  V30 228 H 18.2613 -0.92693 -1.102 0
M  V30 229 H 20.2143 -0.401091 -4.19487 0
M  V30 230 H 18.9383 0.396411 -3.24185 0
M  V30 231 H 17.5973 -1.73606 -3.22888 0
M  V30 232 H 17.2453 -0.0368439 -5.02987 0
M  V30 233 H 16.9453 -1.68771 -5.62841 0
M  V30 234 H 18.4693 -0.854015 -6.04598 0
M  V30 235 H 19.8833 -2.8552 -4.97143 0
M  V30 236 H 18.2803 -3.62372 -4.78338 0
M  V30 237 H 19.3503 -3.47956 -3.3772 0
M  V30 238 N 20.6934 1.19889 -1.02296 0
M  V30 239 C 21.9414 1.89046 -0.714558 0
M  V30 240 C 22.2624 1.79636 0.758681 0
M  V30 241 O 21.5324 1.20292 1.54618 0
M  V30 242 H 20.1124 0.699802 -0.261317 0
M  V30 243 H 22.7744 1.45574 -1.29592 0
M  V30 244 H 21.8704 2.95524 -1.0036 0
M  V30 245 N 22.1715 0.800033 1.35784 0
M  V30 246 C 23.1215 0.178654 2.27299 0
M  V30 247 C 24.1055 -0.643667 1.47464 0
M  V30 248 O 25.2975 -0.502 1.69732 0
M  V30 249 C 22.4265 -0.677194 3.36555 0
M  V30 250 C 21.5125 0.154497 4.23818 0
M  V30 251 N 21.9035 1.21427 4.91008 0
M  V30 252 C 20.2015 -0.0649462 4.45953 0
M  V30 253 C 20.9025 1.72147 5.55644 0
M  V30 254 N 19.8785 1.02897 5.33773 0
M  V30 255 H 23.6805 0.989637 2.76737 0
M  V30 256 H 21.1945 0.64054 1.49234 0
M  V30 257 H 23.1915 -1.13835 4.01058 0
M  V30 258 H 21.8515 -1.4866 2.8867 0
M  V30 259 H 22.8625 1.59684 4.92668 0
M  V30 260 H 19.5395 -0.844016 4.0888 0
M  V30 261 H 20.9295 2.60683 6.19269 0
M  V30 262 N 23.6496 -1.47581 0.552962 0
M  V30 263 C 24.5796 -2.32762 -0.185451 0
M  V30 264 C 25.5606 -1.43527 -0.912905 0
M  V30 265 O 26.7456 -1.72388 -0.894201 0
M  V30 266 C 23.8756 -3.25219 -1.21859 0
M  V30 267 C 22.8296 -4.23661 -0.607864 0
M  V30 268 C 22.1556 -5.05413 -1.74533 0
M  V30 269 C 23.4556 -5.20481 0.435582 0
M  V30 270 H 25.1496 -2.94749 0.525684 0
M  V30 271 H 22.6956 -1.41738 0.254251 0
M  V30 272 H 24.6486 -3.8365 -1.7433 0
M  V30 273 H 23.3726 -2.61279 -1.95961 0
M  V30 274 H 22.0316 -3.66451 -0.104489 0
M  V30 275 H 21.6796 -4.3788 -2.47529 0
M  V30 276 H 21.3796 -5.72059 -1.34249 0
M  V30 277 H 22.9036 -5.66701 -2.27338 0
M  V30 278 H 24.3176 -5.733 -0.00290157 0
M  V30 279 H 22.7146 -5.95305 0.757067 0
M  V30 280 H 23.7846 -4.66217 1.33303 0
M  V30 281 N 25.1277 -0.289203 -1.54924 0
M  V30 282 C 26.3757 0.322879 -1.99504 0
M  V30 283 C 26.6967 1.55313 -1.1791 0
M  V30 284 O 25.9667 1.94001 -0.272097 0
M  V30 285 H 24.5467 0.122291 -0.736922 0
M  V30 286 H 27.2087 -0.397802 -1.90797 0
M  V30 287 H 26.3047 0.603061 -3.06218 0
M  V30 288 N 26.6058 1.57591 -0.0167156 0
M  V30 289 C 28.0218 1.55946 0.339557 0
M  V30 290 C 28.2218 1.02109 1.73713 0
M  V30 291 O 27.2778 0.662303 2.43659 0
M  V30 292 C 28.5908 3.00037 0.199499 0
M  V30 293 C 30.1388 3.11805 0.273193 0
M  V30 294 C 30.6138 4.57713 0.162068 0
M  V30 295 N 32.1048 4.6268 0.219444 0
M  V30 296 C 32.8398 5.73185 0.157054 0
M  V30 297 N 32.3358 6.92786 0.0442936 0
M  V30 298 N 34.1288 5.61707 0.21014 0
M  V30 299 H 26.2798 1.90921 -0.930758 0
M  V30 300 H 28.5428 0.877674 -0.358319 0
M  V30 301 H 28.2488 3.4333 -0.76273 0
M  V30 302 H 28.1228 3.64387 0.974786 0
M  V30 303 H 30.5098 2.68433 1.22587 0
M  V30 304 H 30.5908 2.50201 -0.532256 0
M  V30 305 H 30.2348 5.01763 -0.78714 0
M  V30 306 H 30.1648 5.17283 0.986222 0
M  V30 307 H 32.6558 3.76649 0.307246 0
M  V30 308 H 32.9688 7.728 0.00304069 0
M  V30 309 H 31.3138 6.94999 0.00968457 0
M  V30 310 H 34.5048 4.6716 0.296546 0
M  V30 311 H 34.6778 6.47807 0.158054 0
M  V30 312 N 28.0839 -0.256276 1.55502 0
M  V30 313 C 29.4949 -0.826068 1.67431 0
M  V30 314 C 29.8459 -1.86396 0.612446 0
M  V30 315 O 28.9709 -2.15031 -0.243025 0
M  V30 316 C 29.5659 -1.50512 3.03532 0
M  V30 317 C 28.1249 -2.02273 3.17431 0
M  V30 318 C 27.2719 -0.870548 2.63281 0
M  V30 319 H 30.2229 -0.0322728 1.58667 0
M  V30 320 H 30.2439 -2.37279 2.97454 0
M  V30 321 H 29.7559 -0.749484 3.80794 0
M  V30 322 H 27.8569 -2.80746 2.44974 0
M  V30 323 H 27.9699 -2.22655 4.24219 0
M  V30 324 H 26.3339 -1.26851 2.20864 0
M  V30 325 H 27.1169 -0.128149 3.43061 0
M  V30 326 N 29.562 -1.4872 -0.521534 0
M  V30 327 C 30.787 -1.61101 -1.30618 0
M  V30 328 C 31.212 -0.274611 -1.86085 0
M  V30 329 O 30.57 0.754937 -1.64834 0
M  V30 330 C 30.618 -2.66709 -2.4269 0
M  V30 331 O 29.722 -2.24456 -3.45967 0
M  V30 332 H 29.063 -0.539921 -0.386499 0
M  V30 333 H 31.593 -1.94767 -0.626645 0
M  V30 334 H 31.603 -2.88245 -2.88754 0
M  V30 335 H 30.278 -3.63727 -2.01682 0
M  V30 336 H 28.855 -2.13168 -3.05964 0
M  V30 337 N 31.0401 0.771051 -1.3745 0
M  V30 338 C 32.0031 1.86598 -1.33093 0
M  V30 339 C 33.0031 1.59076 -0.234845 0
M  V30 340 O 34.1931 1.67145 -0.490732 0
M  V30 341 C 31.3251 3.23747 -1.06773 0
M  V30 342 H 32.5181 1.91873 -2.30488 0
M  V30 343 H 30.0711 0.970876 -1.2249 0
M  V30 344 H 30.8061 3.24148 -0.099129 0
M  V30 345 H 30.5911 3.45115 -1.86112 0
M  V30 346 H 32.0811 4.03824 -1.06377 0
M  V30 347 N 32.5182 1.22032 0.997298 0
M  V30 348 C 33.7662 1.04016 1.73278 0
M  V30 349 C 34.0872 -0.426255 1.90284 0
M  V30 350 O 33.3572 -1.30694 1.45931 0
M  V30 351 H 31.9372 0.381897 0.642 0
M  V30 352 H 34.5992 1.5347 1.20137 0
M  V30 353 H 33.6952 1.51441 2.72896 0
M  V30 354 N 33.9963 -1.19345 1.0293 0
M  V30 355 C 34.9593 -2.20793 0.615069 0
M  V30 356 C 35.9593 -1.57553 -0.321533 0
M  V30 357 O 37.1493 -1.73862 -0.108483 0
M  V30 358 C 34.2813 -3.40754 -0.0999222 0
M  V30 359 H 35.4743 -2.58955 1.51269 0
M  V30 360 H 33.0273 -1.3303 0.820534 0
M  V30 361 H 33.7623 -3.0811 -1.01187 0
M  V30 362 H 33.5473 -3.87889 0.57309 0
M  V30 363 H 35.0373 -4.15898 -0.376645 0
M  V30 364 N 35.4744 -0.807222 -1.35358 0
M  V30 365 C 36.7204 -0.388463 -1.99045 0
M  V30 366 C 37.0534 1.04184 -1.63888 0
M  V30 367 O 36.3284 1.72292 -0.902535 0
M  V30 368 C 36.6114 -0.572783 -3.55515 0
M  V30 369 C 36.4644 -2.04807 -4.00468 0
M  V30 370 C 37.7834 0.00114064 -4.401 0
M  V30 371 H 34.9024 -0.142619 -0.723069 0
M  V30 372 H 37.5444 -1.01687 -1.60498 0
M  V30 373 H 35.6944 -0.0378425 -3.88482 0
M  V30 374 H 37.3664 -2.64544 -3.77908 0
M  V30 375 H 35.6094 -2.54427 -3.51353 0
M  V30 376 H 36.2804 -2.12792 -5.09337 0
M  V30 377 H 38.7564 -0.455716 -4.13597 0
M  V30 378 H 37.6324 -0.157737 -5.48673 0
M  V30 379 H 37.8934 1.09488 -4.28328 0
M  V30 380 N 36.9525 1.47285 -0.560781 0
M  V30 381 C 38.1985 2.02764 -0.0381184 0
M  V30 382 C 38.5315 1.43384 1.30976 0
M  V30 383 O 37.8065 0.590733 1.85312 0
M  V30 384 C 38.0895 3.60064 0.0511427 0
M  V30 385 C 37.9425 4.2987 -1.32408 0
M  V30 386 C 39.2615 4.33439 0.762795 0
M  V30 387 H 36.3805 0.736841 -0.0153264 0
M  V30 388 H 39.0225 1.75675 -0.723759 0
M  V30 389 H 37.1725 3.83274 0.635065 0
M  V30 390 H 38.8445 4.17989 -1.95148 0
M  V30 391 H 37.0875 3.90085 -1.8978 0
M  V30 392 H 37.7585 5.38478 -1.21431 0
M  V30 393 H 40.2345 4.15243 0.266965 0
M  V30 394 H 39.1105 5.43124 0.794221 0
M  V30 395 H 39.3715 4.02915 1.81966 0
M  V30 396 N 38.4306 0.297415 1.54768 0
M  V30 397 C 39.3936 -0.567375 2.22066 0
M  V30 398 C 40.3936 -1.06409 1.20556 0
M  V30 399 O 41.5836 -0.960691 1.45315 0
M  V30 400 C 38.7156 -1.78517 2.90421 0
M  V30 401 H 39.9086 0.0205534 2.99893 0
M  V30 402 H 37.4616 0.0482163 1.56226 0
M  V30 403 H 38.1966 -2.41303 2.16664 0
M  V30 404 H 37.9816 -1.43669 3.64831 0
M  V30 405 H 39.4716 -2.39964 3.41771 0
M  V30 406 N 39.9087 -1.5758 0.0250728 0
M  V30 407 C 40.8587 -2.06468 -0.967201 0
M  V30 408 C 41.8427 -0.964376 -1.28797 0
M  V30 409 O 43.0347 -1.22797 -1.27475 0
M  V30 410 C 40.1637 -2.59203 -2.25097 0
M  V30 411 C 39.2497 -3.76157 -1.95874 0
M  V30 412 N 39.6407 -4.86919 -1.36905 0
M  V30 413 C 37.9387 -3.84566 -2.25887 0
M  V30 414 C 38.6397 -5.68172 -1.24724 0
M  V30 415 N 37.6157 -5.14953 -1.74138 0
M  V30 416 H 41.4177 -2.89508 -0.506176 0
M  V30 417 H 38.9317 -1.61399 -0.18004 0
M  V30 418 H 40.9287 -2.92517 -2.97052 0
M  V30 419 H 39.5887 -1.77592 -2.71829 0
M  V30 420 H 40.5997 -5.07256 -1.04459 0
M  V30 421 H 37.2767 -3.13854 -2.75321 0
M  V30 422 H 38.6667 -6.67221 -0.791605 0
M  V30 423 N 41.3868 0.248026 -1.55636 0
M  V30 424 C 42.7978 0.817177 -1.67866 0
M  V30 425 C 43.1488 1.86069 -0.622322 0
M  V30 426 O 42.2738 2.15157 0.231618 0
M  V30 427 C 42.8688 1.489 -3.04326 0
M  V30 428 C 41.4278 2.00587 -3.185 0
M  V30 429 C 40.5748 0.856573 -2.63739 0
M  V30 430 H 43.5258 0.0238579 -1.58682 0
M  V30 431 H 43.5468 2.35698 -2.98708 0
M  V30 432 H 43.0588 0.729279 -3.81186 0
M  V30 433 H 41.1598 2.79443 -2.4646 0
M  V30 434 H 41.2728 2.20402 -4.25393 0
M  V30 435 H 39.6368 1.25678 -2.21534 0
M  V30 436 H 40.4198 0.109953 -3.43124 0
M  V30 437 N 42.8649 1.48995 0.513639 0
M  V30 438 C 44.0929 1.61531 1.29288 0
M  V30 439 C 44.5079 0.281801 1.86685 0
M  V30 440 O 43.8649 -0.731111 1.67215 0
M  V30 441 C 43.9159 2.67449 2.43215 0
M  V30 442 O 43.6369 3.95626 1.88179 0
M  V30 443 C 45.1379 2.90575 3.34785 0
M  V30 444 H 42.3579 0.544165 0.392588 0
M  V30 445 H 44.9019 1.9494 0.617956 0
M  V30 446 H 43.0569 2.36853 3.0656 0
M  V30 447 H 43.4709 4.53868 2.62876 0
M  V30 448 H 44.9449 3.68449 4.11035 0
M  V30 449 H 45.4219 2.00011 3.91015 0
M  V30 450 H 46.0279 3.22538 2.77218 0
M  V30 451 N 44.343 -0.763751 1.37857 0
M  V30 452 C 45.568 -1.55805 1.36893 0
M  V30 453 C 45.993 -1.88054 -0.0416135 0
M  V30 454 O 45.351 -1.49825 -1.02089 0
M  V30 455 C 45.399 -2.84012 2.22192 0
M  V30 456 O 44.503 -3.78732 1.63204 0
M  V30 457 H 43.844 -0.471638 0.46739 0
M  V30 458 H 46.374 -0.944657 1.81487 0
M  V30 459 H 46.384 -3.33037 2.35691 0
M  V30 460 H 45.059 -2.59869 3.24716 0
M  V30 461 H 43.636 -3.37402 1.58791 0
M  V30 462 N 45.8211 -1.22559 -0.990812 0
M  V30 463 C 47.0691 -1.04933 -1.72724 0
M  V30 464 C 47.3901 0.416158 -1.90508 0
M  V30 465 O 46.6601 1.29918 -1.46622 0
M  V30 466 H 45.2401 -0.385296 -0.639965 0
M  V30 467 H 47.9021 -1.54105 -1.19322 0
M  V30 468 H 46.9981 -1.52886 -2.72089 0
M  V30 469 N 47.2992 1.18797 -1.03562 0
M  V30 470 C 48.5272 1.92599 -0.755869 0
M  V30 471 C 48.9422 1.75886 0.686271 0
M  V30 472 O 48.2992 1.08517 1.46732 0
M  V30 473 C 48.3502 3.44159 -1.10619 0
M  V30 474 O 48.0712 3.60341 -2.4917 0
M  V30 475 C 49.5722 4.3507 -0.850214 0
M  V30 476 H 46.7922 0.611587 -0.276048 0
M  V30 477 H 49.3362 1.50742 -1.38192 0
M  V30 478 H 47.4912 3.83823 -0.525194 0
M  V30 479 H 47.9052 4.54128 -2.62427 0
M  V30 480 H 49.3792 5.39989 -1.14523 0
M  V30 481 H 49.8562 4.38673 0.215176 0
M  V30 482 H 50.4622 4.01097 -1.41426 0
M  V30 483 N 48.7773 0.814389 1.34928 0
M  V30 484 C 50.0263 0.394871 1.97797 0
M  V30 485 C 50.3393 -1.04555 1.65311 0
M  V30 486 O 51.5453 -1.56856 2.21604 0
M  V30 487 C 50.0013 0.655103 3.53888 0
M  V30 488 C 49.6093 2.10858 3.95276 0
M  V30 489 C 51.3533 0.301329 4.23429 0
M  V30 490 C 49.2603 2.31415 5.44244 0
M  V30 491 H 48.1903 0.143913 0.740139 0
M  V30 492 H 50.8413 0.999544 1.53888 0
M  V30 493 H 49.2233 -0.0196253 3.95995 0
M  V30 494 H 50.3973 2.82176 3.64298 0
M  V30 495 H 48.7123 2.42297 3.38646 0
M  V30 496 H 51.3093 0.432869 5.32945 0
M  V30 497 H 51.6523 -0.75331 4.09428 0
M  V30 498 H 52.1853 0.930288 3.86769 0
M  V30 499 H 48.9243 3.35353 5.63222 0
M  V30 500 H 48.4443 1.6463 5.76764 0
M  V30 501 H 50.1233 2.13352 6.10811 0
M  V30 502 N 50.2554 -1.46986 0.568584 0
M  V30 503 C 51.4804 -2.07335 0.0520528 0
M  V30 504 C 51.9054 -1.41675 -1.23733 0
M  V30 505 O 51.2634 -0.495623 -1.74394 0
M  V30 506 C 51.3114 -3.60417 -0.11501 0
M  V30 507 O 50.4154 -3.95309 -1.17492 0
M  V30 508 H 49.7564 -0.661597 0.0564385 0
M  V30 509 H 52.2864 -1.88837 0.787507 0
M  V30 510 H 52.2964 -4.06698 -0.325644 0
M  V30 511 H 50.9714 -4.07601 0.826675 0
M  V30 512 H 49.5484 -3.60757 -0.943869 0
M  V30 513 N 51.7335 -0.305618 -1.54608 0
M  V30 514 C 52.9585 0.307562 -2.05107 0
M  V30 515 C 53.3835 1.46385 -1.18123 0
M  V30 516 O 52.7415 1.8034 -0.186324 0
M  V30 517 C 52.7895 0.73704 -3.52987 0
M  V30 518 O 51.8935 1.84134 -3.6901 0
M  V30 519 H 51.2345 0.0589143 -0.661381 0
M  V30 520 H 53.7645 -0.448807 -1.99617 0
M  V30 521 H 53.7745 1.02459 -3.94925 0
M  V30 522 H 52.4495 -0.108773 -4.15758 0
M  V30 523 H 51.0265 1.55398 -3.38978 0
M  V30 524 N 53.2116 1.57565 -0.0334293 0
M  V30 525 C 54.1746 2.09393 0.932048 0
M  V30 526 C 55.1746 1.00986 1.25134 0
M  V30 527 O 56.3646 1.27129 1.19096 0
M  V30 528 C 53.4966 2.56338 2.2473 0
M  V30 529 H 54.6896 2.95984 0.483085 0
M  V30 530 H 52.2426 1.54819 0.21468 0
M  V30 531 H 52.9776 1.7309 2.74245 0
M  V30 532 H 52.7626 3.35542 2.02865 0
M  V30 533 H 54.2526 2.96646 2.93923 0
M  V30 534 N 54.6897 -0.239769 1.55765 0
M  V30 535 C 55.9147 -0.988373 1.82335 0
M  V30 536 C 56.3397 -1.77886 0.611421 0
M  V30 537 O 55.6977 -1.75889 -0.439639 0
M  V30 538 C 55.7457 -1.89627 3.06715 0
M  V30 539 O 54.8497 -2.98904 2.84131 0
M  V30 540 H 54.1907 -0.280858 0.601677 0
M  V30 541 H 56.7207 -0.258597 2.02959 0
M  V30 542 H 56.7307 -2.30957 3.36338 0
M  V30 543 H 55.4057 -1.31511 3.9456 0
M  V30 544 H 53.9827 -2.61651 2.65694 0
M  V30 545 N 56.1678 -1.49265 -0.50573 0
M  V30 546 C 57.4148 -1.58513 -1.26015 0
M  V30 547 C 57.7428 -0.26972 -1.92621 0
M  V30 548 O 56.9978 0.741997 -1.81088 0
M  V30 549 C 57.2968 -2.69008 -2.35308 0
M  V30 550 C 56.9628 -4.10662 -1.86192 0
M  V30 551 C 55.6248 -4.49212 -1.72516 0
M  V30 552 C 57.9768 -4.99336 -1.49375 0
M  V30 553 C 55.3048 -5.74214 -1.20394 0
M  V30 554 C 57.6568 -6.24852 -0.987072 0
M  V30 555 C 56.3208 -6.62236 -0.836669 0
M  V30 556 H 55.5908 -0.580041 -0.461122 0
M  V30 557 H 58.2378 -1.83078 -0.561665 0
M  V30 558 H 56.5428 -2.38396 -3.10926 0
M  V30 559 H 58.2398 -2.73373 -2.93374 0
M  V30 560 H 54.8298 -3.8023 -1.97795 0
M  V30 561 H 59.0138 -4.70212 -1.5879 0
M  V30 562 H 54.2698 -6.01883 -1.07458 0
M  V30 563 H 58.4438 -6.92944 -0.692983 0
M  V30 564 H 56.0708 -7.58979 -0.430607 0
M  V30 565 N 57.6459 0.756429 -1.3826 0
M  V30 566 C 58.5959 1.86069 -1.31766 0
M  V30 567 C 59.5799 1.59621 -0.202483 0
M  V30 568 O 60.7719 1.7149 -0.438211 0
M  V30 569 C 57.9009 3.23742 -1.1422 0
M  V30 570 C 56.9869 3.56091 -2.30348 0
M  V30 571 N 57.3779 3.59517 -3.55783 0
M  V30 572 C 55.6759 3.86341 -2.22838 0
M  V30 573 C 56.3769 3.89052 -4.32451 0
M  V30 574 N 55.3529 4.05736 -3.61772 0
M  V30 575 H 59.1549 1.86992 -2.26741 0
M  V30 576 H 56.6689 0.953643 -1.31451 0
M  V30 577 H 58.6659 4.02761 -1.07652 0
M  V30 578 H 57.3259 3.24073 -0.201763 0
M  V30 579 H 58.3369 3.41347 -3.89491 0
M  V30 580 H 55.0139 3.94404 -1.36937 0
M  V30 581 H 56.4039 3.98349 -5.4108 0
M  V30 582 N 59.124 1.23083 0.984299 0
M  V30 583 C 60.535 1.05609 1.5396 0
M  V30 584 C 60.886 -0.377793 1.92528 0
M  V30 585 O 60.011 -1.26398 1.75649 0
M  V30 586 C 60.606 1.91087 2.7977 0
M  V30 587 C 59.165 1.77885 3.31713 0
M  V30 588 C 58.312 1.87028 2.04733 0
M  V30 589 H 61.263 1.36802 0.804419 0
M  V30 590 H 61.284 1.43336 3.5247 0
M  V30 591 H 60.796 2.9544 2.51668 0
M  V30 592 H 58.897 0.762995 3.64704 0
M  V30 593 H 59.01 2.61047 4.01735 0
M  V30 594 H 57.374 1.30565 2.18689 0
M  V30 595 H 58.157 2.92929 1.79017 0
M  V30 596 N 60.6021 -1.18246 1.0419 0
M  V30 597 C 61.5341 -2.2142 0.592088 0
M  V30 598 C 62.5471 -1.59233 -0.338909 0
M  V30 599 O 63.7361 -1.78002 -0.133231 0
M  V30 600 C 60.8361 -3.38546 -0.154854 0
M  V30 601 C 60.0091 -4.3031 0.784328 0
M  V30 602 C 59.0681 -5.26138 0.0804583 0
M  V30 603 O 58.0941 -5.64738 0.711292 0
M  V30 604 N 59.2961 -5.68261 -1.18574 0
M  V30 605 H 62.0611 -2.60636 1.47949 0
M  V30 606 H 59.6221 -1.33044 0.922544 0
M  V30 607 H 61.6141 -3.99678 -0.635606 0
M  V30 608 H 60.1841 -2.98012 -0.943811 0
M  V30 609 H 59.4041 -3.66764 1.44491 0
M  V30 610 H 60.6921 -4.8852 1.42218 0
M  V30 611 H 60.0901 -5.38957 -1.71876 0
M  V30 612 H 58.6471 -6.31584 -1.61074 0
M  V30 613 N 62.0802 -0.821533 -1.34494 0
M  V30 614 C 63.0122 -0.199946 -2.28326 0
M  V30 615 C 64.0252 0.609377 -1.50965 0
M  V30 616 O 65.2142 0.439285 -1.7301 0
M  V30 617 C 62.3142 0.738431 -3.30757 0
M  V30 618 C 61.4872 -0.0277632 -4.37391 0
M  V30 619 C 60.5462 0.831332 -5.19591 0
M  V30 620 O 59.5722 0.276822 -5.68526 0
M  V30 621 N 60.7742 2.15132 -5.39165 0
M  V30 622 H 63.5392 -1.00609 -2.82308 0
M  V30 623 H 61.1002 -0.678366 -1.47003 0
M  V30 624 H 63.0922 1.31773 -3.82646 0
M  V30 625 H 61.6622 1.44533 -2.7718 0
M  V30 626 H 60.8822 -0.788359 -3.86236 0
M  V30 627 H 62.1702 -0.555251 -5.05761 0
M  V30 628 H 61.5682 2.62559 -5.01078 0
M  V30 629 H 60.1252 2.6795 -5.94177 0
M  V30 630 N 63.5583 1.46682 -0.576371 0
M  V30 631 C 64.8053 2.02412 -0.0595339 0
M  V30 632 C 65.1333 1.44859 1.29793 0
M  V30 633 O 64.3883 0.601099 1.8624 0
M  V30 634 C 64.6873 3.57345 0.062886 0
M  V30 635 C 64.3533 4.33908 -1.22616 0
M  V30 636 C 63.0153 4.54544 -1.57933 0
M  V30 637 C 65.3673 4.77919 -2.07948 0
M  V30 638 C 62.6953 5.16444 -2.78393 0
M  V30 639 C 65.0473 5.41149 -3.27629 0
M  V30 640 C 63.7113 5.60014 -3.63236 0
M  V30 641 H 62.9813 0.74068 -0.021785 0
M  V30 642 H 65.6283 1.76128 -0.751735 0
M  V30 643 H 63.9333 3.82729 0.838178 0
M  V30 644 H 65.6303 3.98136 0.478439 0
M  V30 645 H 62.2203 4.18138 -0.941202 0
M  V30 646 H 66.4043 4.61738 -1.81967 0
M  V30 647 H 61.6603 5.29242 -3.06126 0
M  V30 648 H 65.8343 5.74211 -3.94023 0
M  V30 649 H 63.4613 6.07748 -4.56669 0
M  V30 650 N 65.0364 0.313813 1.54444 0
M  V30 651 C 65.9684 -0.590425 2.21465 0
M  V30 652 C 66.9814 -1.08753 1.21147 0
M  V30 653 O 68.1704 -1.00278 1.4767 0
M  V30 654 C 65.2704 -1.82179 2.85769 0
M  V30 655 C 64.4434 -1.46502 4.12136 0
M  V30 656 C 63.5024 -2.55288 4.60124 0
M  V30 657 O 62.5284 -2.19842 5.25032 0
M  V30 658 N 63.7304 -3.86053 4.33525 0
M  V30 659 H 66.4954 -0.0166033 2.99695 0
M  V30 660 H 64.0564 0.136578 1.61323 0
M  V30 661 H 66.0484 -2.54328 3.14801 0
M  V30 662 H 64.6184 -2.30369 2.11303 0
M  V30 663 H 63.8384 -0.575595 3.89975 0
M  V30 664 H 65.1264 -1.20221 4.94393 0
M  V30 665 H 64.5244 -4.17654 3.81552 0
M  V30 666 H 63.0814 -4.54461 4.67235 0
M  V30 667 N 66.5145 -1.57545 0.0417849 0
M  V30 668 C 67.7445 -1.96339 -0.642995 0
M  V30 669 C 68.1525 -0.917536 -1.65463 0
M  V30 670 O 67.4955 0.107747 -1.83384 0
M  V30 671 C 67.5575 -3.31333 -1.39494 0
M  V30 672 C 67.2215 -4.53796 -0.540204 0
M  V30 673 C 68.2185 -5.19553 0.189806 0
M  V30 674 C 65.9035 -5.0006 -0.473886 0
M  V30 675 C 67.8975 -6.29904 0.974674 0
M  V30 676 C 65.5845 -6.10289 0.314677 0
M  V30 677 C 66.5825 -6.75072 1.03765 0
M  V30 678 O 66.2705 -7.83183 1.81327 0
M  V30 679 H 66.0025 -0.651241 -0.181277 0
M  V30 680 H 68.5565 -2.05148 0.101665 0
M  V30 681 H 66.7865 -3.19052 -2.18502 0
M  V30 682 H 68.4755 -3.54942 -1.96904 0
M  V30 683 H 69.2415 -4.84774 0.147981 0
M  V30 684 H 65.1205 -4.49433 -1.0262 0
M  V30 685 H 68.6645 -6.80401 1.5395 0
M  V30 686 H 64.5615 -6.44506 0.358174 0
M  V30 687 H 65.3295 -7.99913 1.73438 0
M  V30 688 N 67.9926 0.231505 -1.5589 0
M  V30 689 C 69.2206 0.974505 -1.82513 0
M  V30 690 C 69.6356 1.78344 -0.619591 0
M  V30 691 O 68.9926 1.77792 0.411848 0
M  V30 692 C 69.0436 1.90007 -3.07538 0
M  V30 693 O 68.7646 1.12385 -4.2344 0
M  V30 694 C 70.2656 2.75779 -3.47075 0
M  V30 695 H 67.4856 0.286065 -0.606966 0
M  V30 696 H 70.0296 0.249739 -2.02969 0
M  V30 697 H 68.1846 2.57891 -2.89086 0
M  V30 698 H 68.5986 1.75125 -4.944 0
M  V30 699 H 70.0726 3.36443 -4.37619 0
M  V30 700 H 70.5496 3.47672 -2.68367 0
M  V30 701 H 71.1556 2.13323 -3.67931 0
M  V30 702 N 69.4707 1.49531 0.497807 0
M  V30 703 C 70.4007 1.6935 1.60757 0
M  V30 704 C 71.3817 0.542218 1.61227 0
M  V30 705 O 72.5667 0.778417 1.77917 0
M  V30 706 C 69.6967 1.76298 2.99226 0
M  V30 707 C 68.6507 2.91248 3.13622 0
M  V30 708 C 67.9767 2.83312 4.53474 0
M  V30 709 C 69.2767 4.3214 2.93346 0
M  V30 710 H 70.9707 2.62263 1.44425 0
M  V30 711 H 68.5167 1.26208 0.693367 0
M  V30 712 H 70.4697 1.88749 3.76765 0
M  V30 713 H 69.1937 0.799871 3.16654 0
M  V30 714 H 67.8527 2.78404 2.38509 0
M  V30 715 H 67.5007 1.84902 4.67782 0
M  V30 716 H 67.2007 3.60465 4.64046 0
M  V30 717 H 68.7247 2.97775 5.33069 0
M  V30 718 H 70.1387 4.45649 3.60652 0
M  V30 719 H 68.5357 5.1054 3.15387 0
M  V30 720 H 69.6057 4.46363 1.89441 0
M  V30 721 N 70.9488 -0.749086 1.3866 0
M  V30 722 C 72.2258 -1.4992 1.25632 0
M  V30 723 C 72.6058 -2.10633 -0.140317 0
M  V30 724 O 71.9538 -1.97437 -1.15025 0
M  V30 725 C 72.1638 -2.56195 2.36992 0
M  V30 726 C 73.5118 -3.22972 2.75634 0
M  V30 727 O 74.5358 -2.66502 2.36337 0
M  V30 728 O 73.3948 -4.25122 3.43415 0
M  V30 729 H 70.4888 -0.665067 0.491544 0
M  V30 730 H 73.0348 -0.784113 1.50498 0
M  V30 731 H 71.8068 -2.09612 3.30422 0
M  V30 732 H 71.4298 -3.35279 2.13714 0
M  V30 733 N 72.4269 -1.23603 -0.977757 0
M  V30 734 C 73.3749 -1.01704 -2.09187 0
M  V30 735 C 74.3689 0.0448214 -1.69341 0
M  V30 736 O 75.5749 -0.108902 -1.7967 0
M  V30 737 H 71.9499 -0.311803 -0.684312 0
M  V30 738 H 73.9209 -1.96207 -2.24823 0
M  V30 739 C 72.6699 -0.627746 -3.41986 0
M  V30 740 H 71.9929 -1.43656 -3.73099 0
M  V30 741 H 73.4329 -0.514053 -4.20872 0
M  V30 742 C 71.8919 0.664238 -3.30287 0
M  V30 743 O 72.4219 1.71268 -3.6336 0
M  V30 744 N 70.6279 0.641156 -2.83439 0
M  V30 745 H 70.1749 -0.212376 -2.56723 0
M  V30 746 H 70.1329 1.50583 -2.75993 0
M  V30 747 N 73.905 1.17692 -1.04816 0
M  V30 748 C 74.853 2.23632 -0.63966 0
M  V30 749 C 75.847 1.6601 0.337219 0
M  V30 750 O 77.053 1.78844 0.203693 0
M  V30 751 H 73.428 0.727949 -0.188665 0
M  V30 752 H 75.399 2.55387 -1.54337 0
M  V30 753 C 74.148 3.4769 -0.0264051 0
M  V30 754 H 73.471 3.92331 -0.769164 0
M  V30 755 H 74.911 4.23418 0.222098 0
M  V30 756 C 73.37 3.13807 1.22584 0
M  V30 757 O 73.9 3.28236 2.31569 0
M  V30 758 N 72.106 2.68065 1.12202 0
M  V30 759 H 71.653 2.56525 0.235133 0
M  V30 760 H 71.611 2.45767 1.96076 0
M  V30 761 N 75.3831 0.828654 1.34056 0
M  V30 762 C 76.6291 0.42008 1.98402 0
M  V30 763 C 76.9621 -1.01564 1.65525 0
M  V30 764 O 76.2371 -1.70834 0.929831 0
M  V30 765 C 76.5201 0.62927 3.54559 0
M  V30 766 C 76.3731 2.11152 3.97159 0
M  V30 767 C 77.6921 0.0688756 4.40046 0
M  V30 768 H 74.8111 0.154104 0.720709 0
M  V30 769 H 77.4531 1.04228 1.5886 0
M  V30 770 H 75.6031 0.0996418 3.88372 0
M  V30 771 H 77.2751 2.70522 3.73651 0
M  V30 772 H 75.5181 2.59985 3.47261 0
M  V30 773 H 76.1891 2.20868 5.05887 0
M  V30 774 H 78.6651 0.521458 4.1282 0
M  V30 775 H 77.5411 0.245006 5.48353 0
M  V30 776 H 77.8021 -1.0266 4.30015 0
M  V30 777 N 76.8612 -1.46375 0.584142 0
M  V30 778 C 77.7912 -2.33103 -0.136037 0
M  V30 779 C 78.7722 -1.45431 -0.882255 0
M  V30 780 O 79.9572 -1.74246 -0.857434 0
M  V30 781 C 77.0872 -3.27731 -1.14933 0
M  V30 782 C 76.0412 -4.24855 -0.517862 0
M  V30 783 C 75.3672 -5.09001 -1.63773 0
M  V30 784 C 76.6672 -5.19439 0.545886 0
M  V30 785 H 78.3612 -2.93568 0.588086 0
M  V30 786 H 75.9072 -1.41166 0.284259 0
M  V30 787 H 77.8602 -3.87261 -1.66153 0
M  V30 788 H 76.5842 -2.65377 -1.90375 0
M  V30 789 H 75.2432 -3.6659 -0.0267361 0
M  V30 790 H 74.8912 -4.43031 -2.38185 0
M  V30 791 H 74.5912 -5.74777 -1.22085 0
M  V30 792 H 76.1152 -5.71396 -2.15266 0
M  V30 793 H 77.5292 -5.73177 0.118704 0
M  V30 794 H 75.9262 -5.93566 0.88317 0
M  V30 795 H 76.9962 -4.63285 1.43162 0
M  V30 796 N 78.3393 -0.321999 -1.54275 0
M  V30 797 C 79.5673 0.283052 -2.04955 0
M  V30 798 C 79.9823 1.45904 -1.19823 0
M  V30 799 O 79.3393 1.81063 -0.228545 0
M  V30 800 C 79.3903 0.719028 -3.54277 0
M  V30 801 O 79.1113 -0.410175 -4.36176 0
M  V30 802 C 80.6123 1.38705 -4.21041 0
M  V30 803 H 77.8323 0.0584616 -0.668448 0
M  V30 804 H 80.3763 -0.467734 -1.99079 0
M  V30 805 H 78.5313 1.41979 -3.60445 0
M  V30 806 H 78.9453 -0.0669416 -5.24457 0
M  V30 807 H 80.4193 1.64306 -5.2698 0
M  V30 808 H 80.8963 2.33385 -3.72059 0
M  V30 809 H 81.5023 0.728906 -4.19007 0
M  V30 810 N 79.8174 1.5752 -0.0501392 0
M  V30 811 C 80.7474 2.14502 0.922566 0
M  V30 812 C 81.7284 1.06642 1.3252 0
M  V30 813 O 82.9134 1.34577 1.4001 0
M  V30 814 C 80.0434 2.68916 2.19776 0
M  V30 815 C 78.9974 3.8175 1.93523 0
M  V30 816 C 78.3234 4.22677 3.27487 0
M  V30 817 C 79.6234 5.06932 1.25765 0
M  V30 818 H 81.3174 2.9603 0.447952 0
M  V30 819 H 78.8634 1.42401 0.214024 0
M  V30 820 H 80.8164 3.07419 2.88222 0
M  V30 821 H 79.5404 1.84578 2.69441 0
M  V30 822 H 78.1994 3.43718 1.27489 0
M  V30 823 H 77.8474 3.35291 3.74952 0
M  V30 824 H 77.5474 4.98725 3.1072 0
M  V30 825 H 79.0714 4.63779 3.97166 0
M  V30 826 H 80.4854 5.42888 1.84244 0
M  V30 827 H 78.8824 5.88116 1.19328 0
M  V30 828 H 79.9524 4.84337 0.233536 0
M  V30 829 N 81.2955 -0.223234 1.56011 0
M  V30 830 C 82.2055 -1.29766 1.95443 0
M  V30 831 C 83.2215 -1.51373 0.858028 0
M  V30 832 O 84.3975 -1.64536 1.16146 0
M  V30 833 C 81.4625 -2.62772 2.26167 0
M  V30 834 C 80.5235 -2.49482 3.49367 0
M  V30 835 C 79.7565 -3.76145 3.78616 0
M  V30 836 O 79.9795 -4.79087 3.09568 0
M  V30 837 O 78.9135 -3.73358 4.72109 0
M  V30 838 H 82.7395 -0.99309 2.87004 0
M  V30 839 H 80.3245 -0.425958 1.43199 0
M  V30 840 H 82.2065 -3.41327 2.47131 0
M  V30 841 H 80.8815 -2.92913 1.37781 0
M  V30 842 H 79.7885 -1.69133 3.33684 0
M  V30 843 H 81.1215 -2.2428 4.38131 0
M  V30 844 N 82.7736 -1.49793 -0.48987 0
M  V30 845 C 83.7056 -1.63413 -1.60713 0
M  V30 846 C 84.7186 -0.516329 -1.54395 0
M  V30 847 O 85.9076 -0.788812 -1.60125 0
M  V30 848 C 83.0076 -1.58516 -2.99543 0
M  V30 849 C 82.1806 -2.86016 -3.30928 0
M  V30 850 C 81.2396 -2.74018 -4.49222 0
M  V30 851 O 80.2656 -3.47964 -4.50455 0
M  V30 852 N 81.4676 -1.86309 -5.4979 0
M  V30 853 H 84.2326 -2.59777 -1.49452 0
M  V30 854 H 81.7936 -1.47022 -0.677955 0
M  V30 855 H 83.7856 -1.48128 -3.76617 0
M  V30 856 H 82.3556 -0.69965 -3.0467 0
M  V30 857 H 81.5756 -3.10672 -2.42645 0
M  V30 858 H 82.8636 -3.70521 -3.487 0
M  V30 859 H 82.2616 -1.2551 -5.51601 0
M  V30 860 H 80.8186 -1.81837 -6.25922 0
M  V30 861 N 84.2517 0.741722 -1.39055 0
M  V30 862 C 85.6677 1.04638 -1.20512 0
M  V30 863 C 85.8677 2.01405 -0.0620218 0
M  V30 864 O 84.9237 2.45547 0.588457 0
M  V30 865 C 86.2367 1.6151 -2.53643 0
M  V30 866 C 87.7847 1.73623 -2.6043 0
M  V30 867 C 88.2597 2.33906 -3.93767 0
M  V30 868 N 89.7507 2.41323 -3.9537 0
M  V30 869 C 90.4857 2.88888 -4.95309 0
M  V30 870 N 89.9817 3.36401 -6.05645 0
M  V30 871 N 91.7747 2.88037 -4.82692 0
M  V30 872 H 83.9257 0.0998155 -2.12165 0
M  V30 873 H 86.1887 0.106907 -0.941953 0
M  V30 874 H 85.8947 0.978739 -3.37807 0
M  V30 875 H 85.7687 2.60411 -2.72885 0
M  V30 876 H 88.1557 2.36384 -1.76655 0
M  V30 877 H 88.2367 0.733945 -2.45045 0
M  V30 878 H 87.8807 1.71776 -4.7797 0
M  V30 879 H 87.8107 3.34799 -4.06469 0
M  V30 880 H 90.3017 2.07734 -3.15682 0
M  V30 881 H 90.6147 3.71186 -6.77821 0
M  V30 882 H 88.9597 3.34427 -6.09248 0
M  V30 883 H 92.1507 2.50237 -3.95599 0
M  V30 884 H 92.3237 3.24792 -5.60726 0
M  V30 885 N 85.7298 1.2412 0.971189 0
M  V30 886 C 86.6768 1.0305 2.06517 0
M  V30 887 C 87.6468 -0.0550666 1.66009 0
M  V30 888 O 88.8318 0.0988688 1.90544 0
M  V30 889 C 85.9718 0.637653 3.39158 0
M  V30 890 C 85.0848 1.79633 3.92882 0
M  V30 891 C 84.2198 1.34939 5.13775 0
M  V30 892 C 83.2588 2.47823 5.59687 0
M  V30 893 N 82.3958 2.04022 6.71803 0
M  V30 894 H 87.2358 1.96685 2.23873 0
M  V30 895 H 84.7728 0.979694 1.09729 0
M  V30 896 H 86.7308 0.390931 4.15364 0
M  V30 897 H 85.3608 -0.261693 3.21737 0
M  V30 898 H 84.4128 2.15681 3.13346 0
M  V30 899 H 85.7248 2.64466 4.22918 0
M  V30 900 H 84.8788 1.06134 5.97345 0
M  V30 901 H 83.6178 0.471557 4.85415 0
M  V30 902 H 82.6228 2.77392 4.74693 0
M  V30 903 H 83.8478 3.36158 5.90063 0
M  V30 904 H 81.7938 1.18632 6.45184 0
M  V30 905 H 81.7108 2.82409 7.01271 0
M  V30 906 H 82.9788 1.78347 7.58823 0
M  V30 907 N 87.2079 -1.17134 1.05439 0
M  V30 908 C 88.4549 -1.87456 0.765942 0
M  V30 909 C 88.7829 -1.81189 -0.707153 0
M  V30 910 O 88.0379 -1.21633 -1.5331 0
M  V30 911 C 88.3369 -3.36833 1.19491 0
M  V30 912 C 88.0029 -3.63301 2.67063 0
M  V30 913 C 86.6649 -3.70234 3.07376 0
M  V30 914 C 89.0169 -3.74575 3.62413 0
M  V30 915 C 86.3449 -3.85933 4.41896 0
M  V30 916 C 88.6969 -3.91793 4.9667 0
M  V30 917 C 87.3609 -3.96966 5.36633 0
M  V30 918 H 86.6309 -0.685948 0.280278 0
M  V30 919 H 89.2779 -1.38556 1.32192 0
M  V30 920 H 87.5829 -3.87807 0.557969 0
M  V30 921 H 89.2799 -3.89611 0.948893 0
M  V30 922 H 85.8699 -3.58532 2.34846 0
M  V30 923 H 90.0539 -3.68537 3.32406 0
M  V30 924 H 85.3099 -3.88187 4.72357 0
M  V30 925 H 89.4839 -3.99458 5.70444 0
M  V30 926 H 87.1109 -4.08883 6.40874 0
M  V30 927 N 88.686 -0.835752 -1.33615 0
M  V30 928 C 89.916 -0.442701 -2.01801 0
M  V30 929 C 90.324 0.959807 -1.63047 0
M  V30 930 O 89.667 1.63468 -0.838088 0
M  V30 931 C 89.729 -0.480125 -3.56279 0
M  V30 932 C 89.393 -1.8382 -4.18401 0
M  V30 933 C 90.39 -2.80097 -4.37998 0
M  V30 934 C 88.075 -2.13019 -4.54894 0
M  V30 935 C 90.069 -4.03736 -4.9323 0
M  V30 936 C 87.756 -3.36916 -5.09834 0
M  V30 937 C 88.754 -4.32091 -5.28948 0
M  V30 938 O 88.442 -5.53797 -5.82721 0
M  V30 939 H 88.174 -0.17441 -0.653114 0
M  V30 940 H 90.728 -1.129 -1.71589 0
M  V30 941 H 88.958 0.262931 -3.85805 0
M  V30 942 H 90.647 -0.105335 -4.05763 0
M  V30 943 H 91.413 -2.58838 -4.10156 0
M  V30 944 H 87.292 -1.39733 -4.39313 0
M  V30 945 H 90.836 -4.78034 -5.08064 0
M  V30 946 H 86.733 -3.58033 -5.37106 0
M  V30 947 H 87.501 -5.55494 -6.0114 0
M  V30 948 N 90.1641 1.46063 -0.591896 0
M  V30 949 C 91.0741 2.34192 0.13831 0
M  V30 950 C 92.0901 1.50305 0.876608 0
M  V30 951 O 93.2661 1.8315 0.837728 0
M  V30 952 C 90.3311 3.27656 1.13326 0
M  V30 953 C 89.3921 4.27445 0.39863 0
M  V30 954 C 88.6251 5.16443 1.34618 0
M  V30 955 O 88.8481 5.08553 2.58321 0
M  V30 956 O 87.7821 5.95843 0.851768 0
M  V30 957 H 91.6081 2.98002 -0.58552 0
M  V30 958 H 89.1931 1.45188 -0.352239 0
M  V30 959 H 91.0751 3.85291 1.70671 0
M  V30 960 H 89.7501 2.6643 1.83839 0
M  V30 961 H 88.6571 3.73471 -0.216895 0
M  V30 962 H 89.9901 4.91482 -0.265709 0
M  V30 963 N 91.6422 0.330177 1.54103 0
M  V30 964 C 92.5522 -0.541534 2.28264 0
M  V30 965 C 93.5682 -1.12351 1.32866 0
M  V30 966 O 94.7442 -1.14206 1.65888 0
M  V30 967 C 91.8092 -1.68322 3.03098 0
M  V30 968 C 90.8702 -1.13238 4.14096 0
M  V30 969 C 90.1032 -2.21966 4.85352 0
M  V30 970 O 90.3262 -3.42437 4.56172 0
M  V30 971 O 89.2602 -1.87013 5.7211 0
M  V30 972 H 93.0862 0.060938 3.03639 0
M  V30 973 H 90.6712 0.09565 1.49093 0
M  V30 974 H 92.5532 -2.34777 3.49939 0
M  V30 975 H 91.2282 -2.27176 2.30593 0
M  V30 976 H 90.1352 -0.432736 3.71589 0
M  V30 977 H 91.4682 -0.588898 4.88664 0
M  V30 978 N 93.1203 -1.57491 0.0584922 0
M  V30 979 C 94.0683 -2.13148 -0.931168 0
M  V30 980 C 95.0623 -1.06507 -1.31729 0
M  V30 981 O 96.2683 -1.24906 -1.29609 0
M  V30 982 H 92.6433 -0.68137 -0.31818 0
M  V30 983 H 94.6143 -2.95187 -0.436707 0
M  V30 984 C 93.3633 -2.69732 -2.19408 0
M  V30 985 H 92.6863 -3.51454 -1.90578 0
M  V30 986 H 94.1263 -3.12287 -2.86798 0
M  V30 987 C 92.5853 -1.63855 -2.94369 0
M  V30 988 O 93.1153 -1.05565 -3.87581 0
M  V30 989 N 91.3213 -1.35202 -2.57233 0
M  V30 990 H 90.8683 -1.82791 -1.81508 0
M  V30 991 H 90.8263 -0.645922 -3.07693 0
M  V30 992 N 94.5984 0.214957 -1.56127 0
M  V30 993 C 95.8464 0.936518 -1.79091 0
M  V30 994 C 96.1674 1.84606 -0.628148 0
M  V30 995 O 95.4374 1.92664 0.35462 0
M  V30 996 H 94.0174 0.3488 -0.660566 0
M  V30 997 H 96.6794 0.22523 -1.93594 0
M  V30 998 H 95.7754 1.53943 -2.71492 0
M  V30 999 N 96.0765 1.50051 0.48192 0
M  V30 1000 C 97.3235 1.60498 1.23477 0
M  V30 1001 C 97.6515 0.300331 1.92167 0
M  V30 1002 O 96.9065 -0.713094 1.82246 0
M  V30 1003 C 97.2055 2.72717 2.30998 0
M  V30 1004 C 96.8715 4.13572 1.79636 0
M  V30 1005 C 95.5335 4.519 1.65348 0
M  V30 1006 C 97.8855 5.01649 1.41412 0
M  V30 1007 C 95.2135 5.76057 1.11244 0
M  V30 1008 C 97.5655 6.26343 0.887538 0
M  V30 1009 C 96.2295 6.63483 0.731207 0
M  V30 1010 H 95.4995 0.587303 0.451836 0
M  V30 1011 H 98.1465 1.83948 0.532468 0
M  V30 1012 H 96.4515 2.43312 3.07094 0
M  V30 1013 H 98.1485 2.78006 2.88988 0
M  V30 1014 H 94.7385 3.83329 1.91721 0
M  V30 1015 H 98.9225 4.72679 1.51289 0
M  V30 1016 H 94.1785 6.03516 0.978686 0
M  V30 1017 H 98.3525 6.93958 0.582654 0
M  V30 1018 H 95.9795 7.59568 0.309806 0
M  V30 1019 N 97.5546 -0.734337 1.39446 0
M  V30 1020 C 98.4846 -1.86155 1.40955 0
M  V30 1021 C 99.4656 -1.67898 0.272827 0
M  V30 1022 O 100.651 -1.88207 0.478743 0
M  V30 1023 C 97.7806 -3.23912 1.25294 0
M  V30 1024 C 96.7346 -3.56808 2.36373 0
M  V30 1025 C 96.0606 -4.93508 2.058 0
M  V30 1026 C 97.3606 -3.59713 3.78687 0
M  V30 1027 H 99.0546 -1.8515 2.35287 0
M  V30 1028 H 96.6006 -0.889367 1.13253 0
M  V30 1029 H 98.5536 -4.02443 1.2497 0
M  V30 1030 H 97.2776 -3.25446 0.274308 0
M  V30 1031 H 95.9366 -2.80606 2.35914 0
M  V30 1032 H 95.5846 -4.91623 1.06374 0
M  V30 1033 H 95.2846 -5.16486 2.80208 0
M  V30 1034 H 96.8086 -5.74396 2.07128 0
M  V30 1035 H 98.2226 -4.2832 3.81071 0
M  V30 1036 H 96.6196 -3.94209 4.52459 0
M  V30 1037 H 97.6896 -2.59504 4.09617 0
M  V30 1038 N 99.0327 -1.24633 -0.964593 0
M  V30 1039 C 100.279 -1.08949 -1.71049 0
M  V30 1040 C 100.612 0.370302 -1.90637 0
M  V30 1041 O 99.8867 1.27349 -1.47011 0
M  V30 1042 C 100.17 -1.83329 -3.0994 0
M  V30 1043 C 100.023 -3.37077 -2.97824 0
M  V30 1044 C 101.342 -1.60846 -4.09654 0
M  V30 1045 H 98.4607 -0.397178 -0.620821 0
M  V30 1046 H 101.103 -1.5334 -1.12191 0
M  V30 1047 H 99.2527 -1.45597 -3.60186 0
M  V30 1048 H 100.925 -3.84425 -2.5498 0
M  V30 1049 H 99.1677 -3.65298 -2.33965 0
M  V30 1050 H 99.8387 -3.84324 -3.96231 0
M  V30 1051 H 102.315 -1.93674 -3.68279 0
M  V30 1052 H 101.191 -2.1534 -5.04896 0
M  V30 1053 H 101.452 -0.547434 -4.38698 0
M  V30 1054 N 100.511 1.16574 -1.06058 0
M  V30 1055 C 101.76 1.86385 -0.770944 0
M  V30 1056 C 102.073 1.82448 0.705129 0
M  V30 1057 O 103.279 2.47815 1.10905 0
M  V30 1058 C 101.735 3.34466 -1.32893 0
M  V30 1059 C 101.343 3.46883 -2.83507 0
M  V30 1060 C 103.087 4.09548 -1.11672 0
M  V30 1061 C 100.994 4.89036 -3.32562 0
M  V30 1062 H 99.9238 0.698181 -0.284709 0
M  V30 1063 H 102.575 1.31583 -1.27899 0
M  V30 1064 H 100.957 3.88859 -0.748662 0
M  V30 1065 H 102.131 3.02663 -3.47465 0
M  V30 1066 H 100.446 2.85232 -3.03368 0
M  V30 1067 H 103.043 5.14434 -1.45814 0
M  V30 1068 H 103.386 4.16264 -0.0549535 0
M  V30 1069 H 103.919 3.61387 -1.66265 0
M  V30 1070 H 100.658 4.87499 -4.38207 0
M  V30 1071 H 100.178 5.3389 -2.73351 0
M  V30 1072 H 101.857 5.57843 -3.2775 0
M  V30 1073 N 101.989 0.842826 1.3317 0
M  V30 1074 C 102.936 0.276885 2.29133 0
M  V30 1075 C 103.906 -0.609527 1.54512 0
M  V30 1076 O 105.091 -0.546955 1.82792 0
M  V30 1077 C 102.231 -0.538707 3.40869 0
M  V30 1078 C 101.344 0.372169 4.30394 0
M  V30 1079 C 100.479 -0.454908 5.29249 0
M  V30 1080 C 99.5179 0.45411 6.10413 0
M  V30 1081 N 98.6549 -0.335075 7.013 0
M  V30 1082 H 103.495 1.10052 2.76934 0
M  V30 1083 H 101.032 0.554161 1.36262 0
M  V30 1084 H 102.99 -1.02709 4.0436 0
M  V30 1085 H 101.62 -1.32727 2.9425 0
M  V30 1086 H 100.672 0.97888 3.6759 0
M  V30 1087 H 101.984 1.0703 4.87182 0
M  V30 1088 H 101.138 -1.00695 5.98285 0
M  V30 1089 H 99.8769 -1.18646 4.73048 0
M  V30 1090 H 98.8819 1.01813 5.40291 0
M  V30 1091 H 100.107 1.18409 6.68697 0
M  V30 1092 H 98.0529 -1.04994 6.47543 0
M  V30 1093 H 97.9699 0.304262 7.55387 0
M  V30 1094 H 99.2379 -0.869224 7.74638 0
M  V30 1095 N 103.467 -1.45747 0.599634 0
M  V30 1096 C 104.415 -2.322 -0.136426 0
M  V30 1097 C 105.409 -1.45497 -0.867583 0
M  V30 1098 O 106.615 -1.62027 -0.78405 0
M  V30 1099 H 102.99 -0.749368 -0.0628588 0
M  V30 1100 H 104.961 -2.92072 0.611281 0
M  V30 1101 C 103.71 -3.28974 -1.12567 0
M  V30 1102 H 103.033 -3.9568 -0.572484 0
M  V30 1103 H 104.473 -3.92212 -1.61077 0
M  V30 1104 C 102.932 -2.55561 -2.19523 0
M  V30 1105 O 103.462 -2.33111 -3.27143 0
M  V30 1106 N 101.668 -2.15832 -1.94589 0
M  V30 1107 H 101.215 -2.3429 -1.07078 0
M  V30 1108 H 101.173 -1.67034 -2.66359 0
M  V30 1109 N 104.945 -0.338344 -1.53925 0
M  V30 1110 C 105.875 0.51328 -2.27789 0
M  V30 1111 C 106.856 1.107 -1.29149 0
M  V30 1112 O 108.041 1.12937 -1.57984 0
M  V30 1113 C 105.171 1.66697 -3.04679 0
M  V30 1114 C 104.125 1.20183 -4.1078 0
M  V30 1115 C 103.451 2.44363 -4.75595 0
M  V30 1116 C 104.751 0.30605 -5.21403 0
M  V30 1117 H 106.445 -0.102883 -2.99223 0
M  V30 1118 H 103.991 -0.0509219 -1.4391 0
M  V30 1119 H 105.944 2.26915 -3.55088 0
M  V30 1120 H 104.668 2.30995 -2.30887 0
M  V30 1121 H 103.327 0.622499 -3.61276 0
M  V30 1122 H 102.975 3.07057 -3.98403 0
M  V30 1123 H 102.675 2.13925 -5.47275 0
M  V30 1124 H 104.199 3.05317 -5.28786 0
M  V30 1125 H 105.613 0.814929 -5.67478 0
M  V30 1126 H 104.01 0.0937929 -6.00027 0
M  V30 1127 H 105.08 -0.65921 -4.80398 0
M  V30 1128 N 106.423 1.57458 -0.0668435 0
M  V30 1129 C 107.669 1.93587 0.6043 0
M  V30 1130 C 108.002 0.946722 1.69561 0
M  V30 1131 O 107.277 -0.0248516 1.94484 0
M  V30 1132 C 107.56 3.40014 1.18585 0
M  V30 1133 C 107.413 4.49685 0.101529 0
M  V30 1134 C 108.732 3.87154 2.09284 0
M  V30 1135 H 105.851 0.703958 0.218202 0
M  V30 1136 H 108.493 1.89542 -0.131804 0
M  V30 1137 H 106.643 3.43592 1.81319 0
M  V30 1138 H 108.315 4.5823 -0.531279 0
M  V30 1139 H 106.558 4.30059 -0.568487 0
M  V30 1140 H 107.229 5.49266 0.54874 0
M  V30 1141 H 109.705 3.85551 1.56491 0
M  V30 1142 H 108.581 4.90231 2.46911 0
M  V30 1143 H 108.842 3.2481 2.99918 0
M  V30 1144 N 107.901 -0.206675 1.56239 0
M  V30 1145 C 109.312 -0.772383 1.69974 0
M  V30 1146 C 109.663 -1.84353 0.671436 0
M  V30 1147 O 108.788 -2.15695 -0.174491 0
M  V30 1148 C 109.383 -1.40779 3.08167 0
M  V30 1149 C 107.942 -1.92072 3.23706 0
M  V30 1150 C 107.089 -0.786347 2.65917 0
M  V30 1151 H 110.04 0.0182223 1.5869 0
M  V30 1152 H 110.061 -2.27696 3.04852 0
M  V30 1153 H 109.573 -0.627958 3.82986 0
M  V30 1154 H 107.674 -2.7281 2.53782 0
M  V30 1155 H 107.787 -2.09046 4.31087 0
M  V30 1156 H 106.151 -1.1976 2.24788 0
M  V30 1157 H 106.934 -0.0189416 3.43295 0
M  V30 1158 N 109.379 -1.50304 -0.473955 0
M  V30 1159 C 110.656 -1.51667 -1.23518 0
M  V30 1160 C 111.036 -0.259701 -2.09496 0
M  V30 1161 O 110.384 0.756986 -2.15597 0
M  V30 1162 C 110.594 -2.81082 -2.06868 0
M  V30 1163 C 111.942 -3.31631 -2.65153 0
M  V30 1164 O 112.966 -2.82384 -2.17113 0
M  V30 1165 O 111.825 -4.17471 -3.52675 0
M  V30 1166 H 108.919 -0.60822 -0.560355 0
M  V30 1167 H 111.465 -1.62592 -0.486011 0
M  V30 1168 H 110.237 -3.64041 -1.4349 0
M  V30 1169 H 109.86 -2.73146 -2.88924 0
M  V30 1170 N 110.857 0.726932 -1.39834 0
M  V30 1171 C 111.82 1.82269 -1.38962 0
M  V30 1172 C 112.82 1.58248 -0.285334 0
M  V30 1173 O 114.01 1.65499 -0.54366 0
M  V30 1174 C 111.142 3.20186 -1.17019 0
M  V30 1175 H 112.335 1.84443 -2.36476 0
M  V30 1176 H 109.888 0.931416 -1.25516 0
M  V30 1177 H 110.623 3.23669 -0.202204 0
M  V30 1178 H 110.408 3.3902 -1.96998 0
M  V30 1179 H 111.898 4.00235 -1.1917 0
M  V30 1180 N 112.336 1.25143 0.95797 0
M  V30 1181 C 113.613 1.00472 1.67823 0
M  V30 1182 C 113.993 -0.470056 2.058 0
M  V30 1183 O 113.341 -1.44663 1.76875 0
M  V30 1184 C 113.551 1.9372 2.90299 0
M  V30 1185 C 114.899 2.21371 3.62326 0
M  V30 1186 O 115.923 1.91451 3.00375 0
M  V30 1187 O 114.782 2.72231 4.7387 0
M  V30 1188 H 111.876 0.380752 0.734137 0
M  V30 1189 H 114.422 1.36283 1.01119 0
M  V30 1190 H 113.194 2.93316 2.59001 0
M  V30 1191 H 112.817 1.58286 3.64735 0
M  V30 1192 N 113.814 -1.1601 1.06675 0
M  V30 1193 C 115.063 -1.85973 0.780818 0
M  V30 1194 C 115.376 -1.82819 -0.695444 0
M  V30 1195 O 116.582 -2.484 -1.09589 0
M  V30 1196 C 115.038 -3.33757 1.34665 0
M  V30 1197 C 114.646 -3.45374 2.85343 0
M  V30 1198 C 116.39 -4.0895 1.13843 0
M  V30 1199 C 114.297 -4.87266 3.35151 0
M  V30 1200 H 113.227 -0.696661 0.288407 0
M  V30 1201 H 115.878 -1.30903 1.28595 0
M  V30 1202 H 114.26 -3.88456 0.769274 0
M  V30 1203 H 115.434 -3.00816 3.49065 0
M  V30 1204 H 113.749 -2.83619 3.04876 0
M  V30 1205 H 116.346 -5.13654 1.4854 0
M  V30 1206 H 116.689 -4.16229 0.0770282 0
M  V30 1207 H 117.222 -3.605 1.68179 0
M  V30 1208 H 113.961 -4.85168 4.40786 0
M  V30 1209 H 113.481 -5.32433 2.76179 0
M  V30 1210 H 115.16 -5.56097 3.30704 0
M  V30 1211 N 115.292 -0.849877 -1.32721 0
M  V30 1212 C 116.224 -0.248332 -2.27851 0
M  V30 1213 C 117.237 0.577218 -1.52224 0
M  V30 1214 O 118.426 0.402489 -1.73903 0
M  V30 1215 C 115.526 0.668107 -3.32249 0
M  V30 1216 C 114.699 -0.120534 -4.37234 0
M  V30 1217 C 113.758 0.720932 -5.21238 0
M  V30 1218 O 112.784 0.156166 -5.68986 0
M  V30 1219 N 113.986 2.03647 -5.43607 0
M  V30 1220 H 116.751 -1.06575 -2.80111 0
M  V30 1221 H 114.312 -0.709395 -1.45531 0
M  V30 1222 H 116.304 1.23627 -3.85355 0
M  V30 1223 H 114.874 1.38621 -2.80184 0
M  V30 1224 H 114.094 -0.870108 -3.84477 0
M  V30 1225 H 115.382 -0.662406 -5.0447 0
M  V30 1226 H 114.78 2.51871 -5.06535 0
M  V30 1227 H 113.337 2.55287 -5.99727 0
M  V30 1228 N 116.77 1.45427 -0.607355 0
M  V30 1229 C 118.186 1.57283 -0.270985 0
M  V30 1230 C 118.386 1.59875 1.22647 0
M  V30 1231 O 117.442 1.52893 2.00948 0
M  V30 1232 C 118.755 2.85566 -0.941952 0
M  V30 1233 C 120.303 2.9924 -0.917849 0
M  V30 1234 C 120.778 4.30293 -1.56882 0
M  V30 1235 N 122.269 4.37051 -1.5343 0
M  V30 1236 C 123.004 5.37123 -2.00715 0
M  V30 1237 N 122.5 6.43734 -2.56084 0
M  V30 1238 N 124.293 5.28479 -1.91484 0
M  V30 1239 H 116.444 1.41988 -1.57966 0
M  V30 1240 H 118.707 0.67885 -0.661715 0
M  V30 1241 H 118.413 2.8955 -1.99633 0
M  V30 1242 H 118.287 3.74322 -0.465096 0
M  V30 1243 H 120.674 2.94822 0.127984 0
M  V30 1244 H 120.755 2.11895 -1.43297 0
M  V30 1245 H 120.399 4.35469 -2.61398 0
M  V30 1246 H 120.329 5.16454 -1.02873 0
M  V30 1247 H 122.82 3.60615 -1.12982 0
M  V30 1248 H 123.133 7.16341 -2.89958 0
M  V30 1249 H 121.478 6.44485 -2.60122 0
M  V30 1250 H 124.669 4.44098 -1.47967 0
M  V30 1251 H 124.842 6.0632 -2.28648 0
M  V30 1252 N 118.248 0.346503 1.53744 0
M  V30 1253 C 119.495 -0.249104 2.00962 0
M  V30 1254 C 119.823 -1.5032 1.23426 0
M  V30 1255 O 119.078 -1.93217 0.310761 0
M  V30 1256 C 119.377 -0.605809 3.52228 0
M  V30 1257 C 119.043 0.551747 4.47512 0
M  V30 1258 C 117.705 0.86941 4.73281 0
M  V30 1259 C 120.057 1.32818 5.03993 0
M  V30 1260 C 117.385 1.96582 5.52786 0
M  V30 1261 C 119.737 2.41486 5.84694 0
M  V30 1262 C 118.401 2.73808 6.08757 0
M  V30 1263 H 117.671 -0.0911538 0.735372 0
M  V30 1264 H 120.318 0.475027 1.85515 0
M  V30 1265 H 118.623 -1.4107 3.65522 0
M  V30 1266 H 120.32 -1.07858 3.86222 0
M  V30 1267 H 116.91 0.294102 4.2759 0
M  V30 1268 H 121.094 1.09602 4.84047 0
M  V30 1269 H 116.35 2.22045 5.69654 0
M  V30 1270 H 120.524 3.02078 6.27473 0
M  V30 1271 H 118.151 3.58892 6.7015 0
M  V30 1272 N 119.726 -1.57421 0.075193 0
M  V30 1273 C 121.142 -1.57099 -0.281444 0
M  V30 1274 C 121.342 -1.08486 -1.69803 0
M  V30 1275 O 120.398 -0.752279 -2.41033 0
M  V30 1276 C 121.711 -3.00571 -0.0880041 0
M  V30 1277 C 123.259 -3.12605 -0.157281 0
M  V30 1278 C 123.734 -4.57999 0.0079207 0
M  V30 1279 N 125.225 -4.63176 -0.0475725 0
M  V30 1280 C 125.96 -5.73373 0.0557876 0
M  V30 1281 N 125.456 -6.92473 0.21286 0
M  V30 1282 N 127.249 -5.621 -0.00152098 0
M  V30 1283 H 119.4 -1.87335 1.00098 0
M  V30 1284 H 121.663 -0.86377 0.390646 0
M  V30 1285 H 121.369 -3.40262 0.889629 0
M  V30 1286 H 121.243 -3.67754 -0.838875 0
M  V30 1287 H 123.63 -2.72798 -1.1254 0
M  V30 1288 H 123.711 -2.48053 0.62475 0
M  V30 1289 H 123.355 -4.98496 0.972824 0
M  V30 1290 H 123.285 -5.20586 -0.793556 0
M  V30 1291 H 125.776 -3.7753 -0.167244 0
M  V30 1292 H 126.089 -7.72279 0.283781 0
M  V30 1293 H 124.434 -6.94556 0.248267 0
M  V30 1294 H 127.625 -4.67938 -0.122958 0
M  V30 1295 H 127.798 -6.47948 0.0824844 0
M  V30 1296 N 121.204 0.198386 -1.56346 0
M  V30 1297 C 122.152 1.26538 -1.95169 0
M  V30 1298 C 123.146 1.47295 -0.836685 0
M  V30 1299 O 124.352 1.48195 -1.02167 0
M  V30 1300 H 120.727 0.424744 -0.620561 0
M  V30 1301 H 122.698 0.910904 -2.84157 0
M  V30 1302 C 121.447 2.6035 -2.30463 0
M  V30 1303 H 120.77 2.45192 -3.15786 0
M  V30 1304 H 122.21 3.33762 -2.61494 0
M  V30 1305 C 120.669 3.17096 -1.13806 0
M  V30 1306 O 121.199 3.99588 -0.41135 0
M  V30 1307 N 119.405 2.75795 -0.915736 0
M  V30 1308 H 118.952 2.08816 -1.50843 0
M  V30 1309 H 118.91 3.14101 -0.136979 0
M  V30 1310 N 122.682 1.50554 0.465978 0
M  V30 1311 C 123.592 1.72585 1.58907 0
M  V30 1312 C 124.608 0.60911 1.6299 0
M  V30 1313 O 125.784 0.88804 1.80765 0
M  V30 1314 C 122.849 1.81995 2.95091 0
M  V30 1315 C 121.91 3.05751 3.01355 0
M  V30 1316 C 121.143 3.14702 4.31043 0
M  V30 1317 O 121.366 2.30313 5.21835 0
M  V30 1318 O 120.3 4.07468 4.43005 0
M  V30 1319 H 124.126 2.67799 1.43239 0
M  V30 1320 H 121.711 1.34711 0.646013 0
M  V30 1321 H 123.593 1.90335 3.75966 0
M  V30 1322 H 122.268 0.899659 3.10947 0
M  V30 1323 H 121.175 3.02908 2.19539 0
M  V30 1324 H 122.508 3.97375 2.90437 0
M  V30 1325 N 124.16 -0.719506 1.40217 0
M  V30 1326 C 125.407 -1.47933 1.38283 0
M  V30 1327 C 125.735 -1.94493 -0.0161536 0
M  V30 1328 O 124.99 -1.68224 -0.999956 0
M  V30 1329 C 125.289 -2.72271 2.31524 0
M  V30 1330 C 124.955 -2.44496 3.78857 0
M  V30 1331 C 123.617 -2.36631 4.18998 0
M  V30 1332 C 125.969 -2.21104 4.71977 0
M  V30 1333 C 123.297 -2.03437 5.503 0
M  V30 1334 C 125.649 -1.89423 6.03574 0
M  V30 1335 C 124.313 -1.80038 6.42762 0
M  V30 1336 H 123.583 -0.541325 0.506012 0
M  V30 1337 H 126.23 -0.824502 1.72842 0
M  V30 1338 H 124.535 -3.42572 1.90137 0
M  V30 1339 H 126.232 -3.30348 2.27313 0
M  V30 1340 H 122.822 -2.51503 3.47051 0
M  V30 1341 H 127.006 -2.26139 4.41786 0
M  V30 1342 H 122.262 -1.94705 5.79569 0
M  V30 1343 H 126.436 -1.70336 6.75247 0
M  V30 1344 H 124.063 -1.54083 7.44421 0
M  V30 1345 N 125.638 -1.25649 -0.95132 0
M  V30 1346 C 126.548 -1.08073 -2.08224 0
M  V30 1347 C 127.564 -0.0169666 -1.73992 0
M  V30 1348 O 128.74 -0.218593 -2.0021 0
M  V30 1349 C 125.805 -0.704922 -3.39458 0
M  V30 1350 C 124.866 -1.84699 -3.87537 0
M  V30 1351 C 124.099 -1.48902 -5.12508 0
M  V30 1352 O 124.322 -0.386156 -5.69091 0
M  V30 1353 O 123.256 -2.32033 -5.55378 0
M  V30 1354 H 127.082 -2.02924 -2.25954 0
M  V30 1355 H 124.667 -1.04618 -1.06656 0
M  V30 1356 H 126.549 -0.507609 -4.18332 0
M  V30 1357 H 125.224 0.214291 -3.2299 0
M  V30 1358 H 124.131 -2.09919 -3.09653 0
M  V30 1359 H 125.464 -2.74557 -4.08509 0
M  V30 1360 N 127.117 1.15442 -1.07289 0
M  V30 1361 C 128.064 2.20161 -0.692653 0
M  V30 1362 C 129.034 1.63073 0.31564 0
M  V30 1363 O 130.219 1.89725 0.202235 0
M  V30 1364 C 127.359 3.44967 -0.0959509 0
M  V30 1365 C 126.472 4.16256 -1.15564 0
M  V30 1366 C 125.607 5.28609 -0.524011 0
M  V30 1367 C 124.646 5.91715 -1.56653 0
M  V30 1368 N 123.783 6.9554 -0.957531 0
M  V30 1369 H 128.623 2.52037 -1.59002 0
M  V30 1370 H 126.16 1.2378 -0.794798 0
M  V30 1371 H 128.118 4.16341 0.267628 0
M  V30 1372 H 126.748 3.1361 0.764772 0
M  V30 1373 H 125.8 3.43385 -1.6368 0
M  V30 1374 H 127.112 4.59268 -1.94613 0
M  V30 1375 H 126.266 6.06604 -0.108032 0
M  V30 1376 H 125.005 4.86787 0.29825 0
M  V30 1377 H 124.01 5.12433 -1.9923 0
M  V30 1378 H 125.235 6.35614 -2.39107 0
M  V30 1379 H 123.181 6.55814 -0.156162 0
M  V30 1380 H 123.098 7.36977 -1.68526 0
M  V30 1381 H 124.366 7.77435 -0.567032 0
M  V30 1382 N 128.595 0.856903 1.32268 0
M  V30 1383 C 129.844 0.457599 1.96441 0
M  V30 1384 C 130.157 -0.992426 1.68553 0
M  V30 1385 O 131.363 -1.49727 2.26482 0
M  V30 1386 C 129.819 0.767358 3.51624 0
M  V30 1387 C 129.427 2.23326 3.88367 0
M  V30 1388 C 131.171 0.435887 4.22256 0
M  V30 1389 C 129.078 2.48613 5.36606 0
M  V30 1390 H 128.008 0.167387 0.735185 0
M  V30 1391 H 130.659 1.048 1.5063 0
M  V30 1392 H 129.041 0.106367 3.95857 0
M  V30 1393 H 130.215 2.93623 3.55137 0
M  V30 1394 H 128.53 2.52948 3.30766 0
M  V30 1395 H 131.127 0.602202 5.31298 0
M  V30 1396 H 131.47 -0.622672 4.11617 0
M  V30 1397 H 132.003 1.05286 3.83614 0
M  V30 1398 H 128.742 3.53101 5.52268 0
M  V30 1399 H 128.262 1.82896 5.71235 0
M  V30 1400 H 129.941 2.32676 6.03714 0
M  V30 1401 N 130.073 -1.45103 0.615059 0
M  V30 1402 C 131.313 -2.04069 0.116282 0
M  V30 1403 C 131.677 -1.4721 -1.2326 0
M  V30 1404 O 132.878 -1.97577 -1.82255 0
M  V30 1405 C 131.149 -3.57298 0.085482 0
M  V30 1406 S 132.708 -4.37394 -0.351015 0
M  V30 1407 H 129.526 -0.709006 0.0532183 0
M  V30 1408 H 132.128 -1.77709 0.81484 0
M  V30 1409 H 130.832 -3.9619 1.0706 0
M  V30 1410 H 130.363 -3.88244 -0.634835 0
M  V30 1411 H 132.378 -4.69734 -1.59889 0
M  V30 1412 N 131.551 -0.354651 -1.53558 0
M  V30 1413 C 132.967 -0.00315426 -1.596 0
M  V30 1414 C 133.167 1.47741 -1.37021 0
M  V30 1415 O 132.223 2.23759 -1.16996 0
M  V30 1416 C 133.536 -0.44929 -2.97325 0
M  V30 1417 C 135.084 -0.402578 -3.104 0
M  V30 1418 C 135.559 -0.824355 -4.5052 0
M  V30 1419 N 137.05 -0.778979 -4.56603 0
M  V30 1420 C 137.785 -1.07715 -5.63192 0
M  V30 1421 N 137.281 -1.44405 -6.77583 0
M  V30 1422 N 139.074 -1.00066 -5.53121 0
M  V30 1423 H 131.225 -1.31893 -1.66487 0
M  V30 1424 H 133.488 -0.538388 -0.780284 0
M  V30 1425 H 133.194 -1.48202 -3.1895 0
M  V30 1426 H 133.068 0.169772 -3.76818 0
M  V30 1427 H 135.455 0.621004 -2.88492 0
M  V30 1428 H 135.536 -1.05699 -2.32941 0
M  V30 1429 H 135.18 -1.846 -4.73165 0
M  V30 1430 H 135.11 -0.147304 -5.26394 0
M  V30 1431 H 137.601 -0.508528 -3.74463 0
M  V30 1432 H 137.914 -1.65612 -7.54846 0
M  V30 1433 H 136.259 -1.4826 -6.79002 0
M  V30 1434 H 139.45 -0.713293 -4.62633 0
M  V30 1435 H 139.623 -1.23638 -6.36096 0
M  V30 1436 N 133.029 1.57378 -0.0835403 0
M  V30 1437 C 133.976 2.13384 0.879539 0
M  V30 1438 C 134.946 1.04936 1.28754 0
M  V30 1439 O 136.131 1.32662 1.37133 0
M  V30 1440 C 133.271 2.70932 2.13752 0
M  V30 1441 C 132.384 3.93575 1.7811 0
M  V30 1442 C 131.519 4.39326 2.98607 0
M  V30 1443 C 130.558 5.54587 2.59037 0
M  V30 1444 N 129.695 5.95243 3.72331 0
M  V30 1445 H 134.535 2.9537 0.395076 0
M  V30 1446 H 132.072 1.45953 0.183349 0
M  V30 1447 H 134.03 3.02411 2.87408 0
M  V30 1448 H 132.66 1.91693 2.59718 0
M  V30 1449 H 131.712 3.68483 0.94469 0
M  V30 1450 H 133.024 4.77258 1.45005 0
M  V30 1451 H 132.178 4.72528 3.80529 0
M  V30 1452 H 130.917 3.5452 3.34913 0
M  V30 1453 H 129.922 5.21024 1.75539 0
M  V30 1454 H 131.147 6.41133 2.23887 0
M  V30 1455 H 129.093 5.13385 4.08378 0
M  V30 1456 H 129.01 6.73694 3.43034 0
M  V30 1457 H 130.278 6.33072 4.54797 0
M  V30 1458 N 134.507 -0.190092 1.56449 0
M  V30 1459 C 135.417 -1.25591 1.98152 0
M  V30 1460 C 136.433 -1.49519 0.889944 0
M  V30 1461 O 137.609 -1.62036 1.19609 0
M  V30 1462 C 134.674 -2.57916 2.3169 0
M  V30 1463 C 133.735 -2.42015 3.5458 0
M  V30 1464 C 132.968 -3.6803 3.8651 0
M  V30 1465 O 133.191 -4.72413 3.1966 0
M  V30 1466 O 132.125 -3.6326 4.79923 0
M  V30 1467 H 135.951 -0.931988 2.89046 0
M  V30 1468 H 133.536 -0.395488 1.4407 0
M  V30 1469 H 135.418 -3.36008 2.54316 0
M  V30 1470 H 134.093 -2.89925 1.43963 0
M  V30 1471 H 133 -1.62017 3.37196 0
M  V30 1472 H 134.333 -2.14937 4.4279 0
M  V30 1473 N 135.985 -1.50799 -0.457987 0
M  V30 1474 C 137.231 -1.62683 -1.21088 0
M  V30 1475 C 137.564 -0.332268 -1.91336 0
M  V30 1476 O 136.839 0.667043 -1.82704 0
M  V30 1477 C 137.122 -2.81615 -2.24422 0
M  V30 1478 C 136.975 -4.20989 -1.58392 0
M  V30 1479 C 138.294 -2.96085 -3.2561 0
M  V30 1480 H 135.413 -0.592087 -0.438864 0
M  V30 1481 H 138.055 -1.83225 -0.50286 0
M  V30 1482 H 136.205 -2.64231 -2.84806 0
M  V30 1483 H 137.877 -4.49994 -1.01504 0
M  V30 1484 H 136.12 -4.24641 -0.886704 0
M  V30 1485 H 136.791 -5.0016 -2.33547 0
M  V30 1486 H 139.267 -3.12042 -2.75262 0
M  V30 1487 H 138.143 -3.80902 -3.95228 0
M  V30 1488 H 138.404 -2.0726 -3.90507 0
M  V30 1489 N 137.463 0.71206 -1.40597 0
M  V30 1490 C 138.41 1.82613 -1.41142 0
M  V30 1491 C 139.38 1.63925 -0.267903 0
M  V30 1492 O 140.565 1.85009 -0.466495 0
M  V30 1493 C 137.705 3.20354 -1.28324 0
M  V30 1494 C 136.818 3.50589 -2.52411 0
M  V30 1495 C 135.953 4.77855 -2.32009 0
M  V30 1496 C 134.992 5.01005 -3.51654 0
M  V30 1497 N 134.129 6.19487 -3.30425 0
M  V30 1498 H 138.969 1.81482 -2.36365 0
M  V30 1499 H 136.506 0.886475 -1.17388 0
M  V30 1500 H 138.464 3.99899 -1.18899 0
M  V30 1501 H 137.094 3.20705 -0.367189 0
M  V30 1502 H 136.146 2.65573 -2.72351 0
M  V30 1503 H 137.458 3.63604 -3.41458 0
M  V30 1504 H 136.612 5.65424 -2.19956 0
M  V30 1505 H 135.351 4.67056 -1.40392 0
M  V30 1506 H 134.356 4.1189 -3.64179 0
M  V30 1507 H 135.581 5.13674 -4.44202 0
M  V30 1508 H 133.527 6.09932 -2.41494 0
M  V30 1509 H 133.444 6.33194 -4.13039 0
M  V30 1510 H 134.712 7.09834 -3.22113 0
M  V30 1511 N 138.941 1.26152 0.944643 0
M  V30 1512 C 140.352 1.10454 1.50522 0
M  V30 1513 C 140.703 -0.31635 1.93633 0
M  V30 1514 O 139.828 -1.20746 1.79581 0
M  V30 1515 C 140.423 1.99891 2.73549 0
M  V30 1516 C 138.982 1.88348 3.25886 0
M  V30 1517 C 138.129 1.93447 1.9868 0
M  V30 1518 H 141.08 1.39292 0.760489 0
M  V30 1519 H 141.101 1.54477 3.47732 0
M  V30 1520 H 140.613 3.03297 2.42141 0
M  V30 1521 H 138.714 0.878636 3.62092 0
M  V30 1522 H 138.827 2.73696 3.93227 0
M  V30 1523 H 137.191 1.37456 2.14425 0
M  V30 1524 H 137.974 2.98476 1.69607 0
M  V30 1525 N 140.419 -1.14872 1.07899 0
M  V30 1526 C 141.349 -2.2193 0.725887 0
M  V30 1527 C 142.33 -1.67622 -0.28927 0
M  V30 1528 O 143.515 -1.93533 -0.160787 0
M  V30 1529 C 140.645 -3.47061 0.128856 0
M  V30 1530 C 139.599 -4.14363 1.07178 0
M  V30 1531 C 138.925 -5.33636 0.337229 0
M  V30 1532 C 140.225 -4.63492 2.40775 0
M  V30 1533 H 141.919 -2.51724 1.62097 0
M  V30 1534 H 139.465 -1.20991 0.780838 0
M  V30 1535 H 141.418 -4.21199 -0.130147 0
M  V30 1536 H 140.142 -3.16617 -0.80134 0
M  V30 1537 H 138.801 -3.42173 1.3158 0
M  V30 1538 H 138.449 -4.99449 -0.596606 0
M  V30 1539 H 138.149 -5.79609 0.965788 0
M  V30 1540 H 139.673 -6.10539 0.0861567 0
M  V30 1541 H 141.087 -5.2913 2.20669 0
M  V30 1542 H 139.484 -5.20148 2.99276 0
M  V30 1543 H 140.554 -3.78834 3.02676 0
M  V30 1544 N 141.898 -0.863906 -1.31812 0
M  V30 1545 C 143.146 -0.470904 -1.96537 0
M  V30 1546 C 143.467 0.978771 -1.68657 0
M  V30 1547 O 142.737 1.6853 -0.998717 0
M  V30 1548 H 141.317 -0.171148 -0.72713 0
M  V30 1549 H 143.979 -1.10236 -1.60729 0
M  V30 1550 H 143.075 -0.623616 -3.05806 0
M  V30 1551 N 143.376 1.44774 -0.622745 0
M  V30 1552 C 144.306 2.33382 0.0741861 0
M  V30 1553 C 145.287 1.47719 0.843387 0
M  V30 1554 O 146.472 1.76458 0.810934 0
M  V30 1555 C 143.602 3.30663 1.06204 0
M  V30 1556 C 142.556 4.26079 0.405037 0
M  V30 1557 C 141.882 5.13165 1.5022 0
M  V30 1558 C 143.182 5.1781 -0.683414 0
M  V30 1559 H 144.876 2.91905 -0.665713 0
M  V30 1560 H 142.422 1.40363 -0.321587 0
M  V30 1561 H 144.375 3.9153 1.55827 0
M  V30 1562 H 143.099 2.70331 1.83272 0
M  V30 1563 H 141.758 3.66532 -0.0704683 0
M  V30 1564 H 141.406 4.49191 2.26355 0
M  V30 1565 H 141.106 5.77812 1.06803 0
M  V30 1566 H 142.63 5.76902 2.00041 0
M  V30 1567 H 144.044 5.72661 -0.270631 0
M  V30 1568 H 142.441 5.91015 -1.04023 0
M  V30 1569 H 143.511 4.59326 -1.55395 0
M  V30 1570 N 144.854 0.36279 1.53368 0
M  V30 1571 C 146.082 -0.228613 2.05633 0
M  V30 1572 C 146.497 -1.42676 1.23649 0
M  V30 1573 O 145.854 -1.80394 0.27647 0
M  V30 1574 C 145.905 -0.624845 3.56059 0
M  V30 1575 O 145.626 0.525675 4.34935 0
M  V30 1576 C 147.127 -1.27493 4.24571 0
M  V30 1577 H 144.347 -0.0407183 0.669763 0
M  V30 1578 H 146.891 0.520352 1.97769 0
M  V30 1579 H 145.046 -1.32373 3.64083 0
M  V30 1580 H 145.46 0.205969 5.24095 0
M  V30 1581 H 146.934 -1.50277 5.31151 0
M  V30 1582 H 147.411 -2.23439 3.78116 0
M  V30 1583 H 148.017 -0.617558 4.20792 0
M  V30 1584 N 146.332 -1.57332 0.0918853 0
M  V30 1585 C 147.578 -1.94524 -0.573425 0
M  V30 1586 C 147.911 -0.973578 -1.68033 0
M  V30 1587 O 147.186 -0.00609226 -1.94499 0
M  V30 1588 C 147.469 -3.41858 -1.13161 0
M  V30 1589 C 147.322 -4.4979 -0.0299747 0
M  V30 1590 C 148.641 -3.90435 -2.03098 0
M  V30 1591 H 145.76 -0.70734 -0.206975 0
M  V30 1592 H 148.402 -1.89309 0.161942 0
M  V30 1593 H 146.552 -3.46433 -1.7583 0
M  V30 1594 H 148.224 -4.57327 0.604112 0
M  V30 1595 H 146.467 -4.291 0.636833 0
M  V30 1596 H 147.138 -5.50069 -0.461287 0
M  V30 1597 H 149.614 -3.87992 -1.50338 0
M  V30 1598 H 148.49 -4.94097 -2.39081 0
M  V30 1599 H 148.751 -3.29541 -2.94712 0
M  V30 1600 N 147.81 0.181792 -1.56548 0
M  V30 1601 C 148.743 1.25366 -1.90679 0
M  V30 1602 C 149.721 1.43299 -0.768376 0
M  V30 1603 O 150.905 1.58475 -1.02068 0
M  V30 1604 C 148.032 2.61826 -2.1486 0
M  V30 1605 C 147.078 2.60688 -3.37556 0
M  V30 1606 S 147.911 2.10804 -4.92262 0
M  V30 1607 C 149.067 3.49062 -5.19525 0
M  V30 1608 H 149.3 0.962277 -2.81296 0
M  V30 1609 H 146.833 0.385892 -1.495 0
M  V30 1610 H 148.791 3.40371 -2.29473 0
M  V30 1611 H 147.452 2.88169 -1.24969 0
M  V30 1612 H 146.645 3.61058 -3.51643 0
M  V30 1613 H 146.247 1.90232 -3.22006 0
M  V30 1614 H 148.539 4.45003 -5.10861 0
M  V30 1615 H 149.482 3.39859 -6.2121 0
M  V30 1616 H 149.89 3.4459 -4.47122 0
M  V30 1617 N 149.288 1.51039 0.449983 0
M  V30 1618 C 150.704 1.38934 0.785462 0
M  V30 1619 C 150.904 0.461817 1.96136 0
M  V30 1620 O 149.96 -0.0877389 2.52348 0
M  V30 1621 C 151.273 2.80724 1.0777 0
M  V30 1622 C 152.821 2.89787 1.1829 0
M  V30 1623 C 153.296 4.32457 1.50815 0
M  V30 1624 N 154.787 4.35505 1.57764 0
M  V30 1625 C 155.522 5.42914 1.84477 0
M  V30 1626 N 155.018 6.60502 2.09068 0
M  V30 1627 N 156.811 5.3038 1.86155 0
M  V30 1628 H 148.962 2.09904 -0.324647 0
M  V30 1629 H 151.225 0.944378 -0.0827957 0
M  V30 1630 H 150.931 3.50531 0.286498 0
M  V30 1631 H 150.805 3.19273 2.00859 0
M  V30 1632 H 153.192 2.20186 1.96474 0
M  V30 1633 H 153.273 2.54752 0.231314 0
M  V30 1634 H 152.917 5.02603 0.731622 0
M  V30 1635 H 152.847 4.64995 2.47158 0
M  V30 1636 H 155.338 3.50724 1.40715 0
M  V30 1637 H 155.651 7.38158 2.28785 0
M  V30 1638 H 153.996 6.63639 2.06416 0
M  V30 1639 H 157.187 4.37505 1.66454 0
M  V30 1640 H 157.36 6.1417 2.06637 0
M  V30 1641 N 150.766 -0.704594 1.40972 0
M  V30 1642 C 152.043 -1.45847 1.30338 0
M  V30 1643 C 152.423 -2.10973 -0.0732344 0
M  V30 1644 O 151.771 -2.00997 -1.08685 0
M  V30 1645 C 151.981 -2.48525 2.45023 0
M  V30 1646 C 153.329 -3.1404 2.8577 0
M  V30 1647 O 154.353 -2.58848 2.44696 0
M  V30 1648 O 153.212 -4.13981 3.56766 0
M  V30 1649 H 150.306 -0.649092 0.512454 0
M  V30 1650 H 152.852 -0.735836 1.52917 0
M  V30 1651 H 151.624 -1.98994 3.36923 0
M  V30 1652 H 151.247 -3.2831 2.24272 0
M  V30 1653 N 152.244 -1.26651 -0.937939 0
M  V30 1654 C 153.49 -1.12553 -1.687 0
M  V30 1655 C 153.823 0.329782 -1.91379 0
M  V30 1656 O 153.098 1.24202 -1.4968 0
M  V30 1657 C 153.381 -1.89862 -3.05981 0
M  V30 1658 C 153.234 -3.43318 -2.90607 0
M  V30 1659 C 154.553 -1.69499 -4.0615 0
M  V30 1660 H 151.672 -0.410257 -0.612257 0
M  V30 1661 H 154.314 -1.55685 -1.08913 0
M  V30 1662 H 152.464 -1.53204 -3.57017 0
M  V30 1663 H 154.136 -3.89747 -2.46769 0
M  V30 1664 H 152.379 -3.70179 -2.26164 0
M  V30 1665 H 153.05 -3.92642 -3.8799 0
M  V30 1666 H 155.526 -2.01442 -3.64088 0
M  V30 1667 H 154.402 -2.26002 -5.00214 0
M  V30 1668 H 154.663 -0.640365 -4.37438 0
M  V30 1669 N 153.722 1.14298 -1.08507 0
M  V30 1670 C 154.95 1.89219 -0.836876 0
M  V30 1671 C 155.365 1.78638 0.611054 0
M  V30 1672 O 154.722 1.14643 1.41998 0
M  V30 1673 C 154.773 3.39158 -1.25116 0
M  V30 1674 O 154.494 3.49449 -2.64229 0
M  V30 1675 C 155.995 4.31073 -1.03398 0
M  V30 1676 H 153.215 0.599328 -0.301739 0
M  V30 1677 H 155.759 1.44746 -1.44461 0
M  V30 1678 H 153.914 3.81251 -0.687514 0
M  V30 1679 H 154.328 4.42589 -2.81452 0
M  V30 1680 H 155.802 5.34646 -1.37323 0
M  V30 1681 H 156.279 4.3919 0.0289259 0
M  V30 1682 H 156.885 3.94738 -1.58311 0
M  V30 1683 N 155.201 0.870884 1.31352 0
M  V30 1684 C 156.45 0.478408 1.95944 0
M  V30 1685 C 156.763 -0.974493 1.69597 0
M  V30 1686 O 157.969 -1.47316 2.28058 0
M  V30 1687 C 156.425 0.804609 3.50791 0
M  V30 1688 C 156.033 2.27433 3.85977 0
M  V30 1689 C 157.777 0.480648 4.2177 0
M  V30 1690 C 155.684 2.5429 5.33939 0
M  V30 1691 H 154.614 0.175175 0.733369 0
M  V30 1692 H 157.265 1.06391 1.4951 0
M  V30 1693 H 155.647 0.148347 3.95722 0
M  V30 1694 H 156.821 2.97373 3.52002 0
M  V30 1695 H 155.136 2.56442 3.28065 0
M  V30 1696 H 157.733 0.658519 5.30629 0
M  V30 1697 H 158.076 -0.578979 4.12254 0
M  V30 1698 H 158.609 1.09349 3.82476 0
M  V30 1699 H 155.348 3.58939 5.48491 0
M  V30 1700 H 154.868 1.88945 5.69263 0
M  V30 1701 H 156.547 2.39066 6.01212 0
M  V30 1702 N 156.679 -1.44442 0.630414 0
M  V30 1703 C 157.904 -2.06927 0.139944 0
M  V30 1704 C 158.329 -1.46795 -1.17613 0
M  V30 1705 O 157.687 -0.569144 -1.72135 0
M  V30 1706 C 157.735 -3.6058 0.0379581 0
M  V30 1707 O 156.839 -3.99937 -1.0062 0
M  V30 1708 H 156.18 -0.658608 0.0844483 0
M  V30 1709 H 158.71 -1.85327 0.866891 0
M  V30 1710 H 158.72 -4.07714 -0.152856 0
M  V30 1711 H 157.395 -4.03728 0.998809 0
M  V30 1712 H 155.972 -3.64436 -0.79001 0
M  V30 1713 N 158.157 -0.370918 -1.53173 0
M  V30 1714 C 159.104 0.473035 -2.259 0
M  V30 1715 C 160.074 1.07311 -1.26781 0
M  V30 1716 O 161.259 1.1046 -1.55574 0
M  V30 1717 C 158.399 1.60405 -3.05556 0
M  V30 1718 C 157.512 1.02863 -4.19575 0
M  V30 1719 C 156.647 2.12918 -4.86661 0
M  V30 1720 C 155.686 1.52869 -5.92704 0
M  V30 1721 N 154.823 2.56779 -6.53459 0
M  V30 1722 H 159.663 -0.153649 -2.97604 0
M  V30 1723 H 157.2 -0.0875946 -1.46839 0
M  V30 1724 H 159.158 2.27034 -3.50016 0
M  V30 1725 H 157.788 2.20131 -2.36097 0
M  V30 1726 H 156.84 0.252465 -3.79561 0
M  V30 1727 H 158.152 0.549642 -4.95762 0
M  V30 1728 H 157.306 2.87356 -5.34333 0
M  V30 1729 H 156.045 2.6417 -4.09958 0
M  V30 1730 H 155.05 0.769479 -5.44389 0
M  V30 1731 H 156.275 1.02435 -6.7133 0
M  V30 1732 H 154.221 3.07235 -5.79606 0
M  V30 1733 H 154.138 2.13583 -7.25202 0
M  V30 1734 H 155.406 3.30903 -7.05779 0
M  V30 1735 N 159.635 1.57281 -0.100228 0
M  V30 1736 C 160.86 1.99302 0.573881 0
M  V30 1737 C 161.285 0.979059 1.60611 0
M  V30 1738 O 160.643 -0.0517803 1.81226 0
M  V30 1739 C 160.691 3.40274 1.19358 0
M  V30 1740 O 159.795 3.41676 2.30935 0
M  V30 1741 H 159.136 0.647944 0.145138 0
M  V30 1742 H 161.666 2.03779 -0.183156 0
M  V30 1743 H 161.676 3.78078 1.53365 0
M  V30 1744 H 160.351 4.13594 0.437385 0
M  V30 1745 H 158.928 3.15672 1.98509 0
M  V30 1746 N 161.113 -0.173488 1.56642 0
M  V30 1747 C 162.023 -1.23482 1.99473 0
M  V30 1748 C 163.039 -1.48567 0.905752 0
M  V30 1749 O 164.215 -1.60758 1.21321 0
M  V30 1750 C 161.28 -2.55444 2.34413 0
M  V30 1751 C 160.341 -2.38241 3.57127 0
M  V30 1752 C 159.574 -3.63909 3.90392 0
M  V30 1753 O 159.797 -4.68996 3.24653 0
M  V30 1754 O 158.731 -3.58149 4.83749 0
M  V30 1755 H 162.557 -0.901279 2.90018 0
M  V30 1756 H 160.142 -0.380185 1.44482 0
M  V30 1757 H 162.024 -3.33292 2.57865 0
M  V30 1758 H 160.699 -2.88382 1.4703 0
M  V30 1759 H 159.606 -1.58431 3.38896 0
M  V30 1760 H 160.939 -2.10228 4.45045 0
M  V30 1761 N 162.591 -1.51276 -0.441967 0
M  V30 1762 C 163.821 -1.67273 -1.21257 0
M  V30 1763 C 164.229 -0.367624 -1.85594 0
M  V30 1764 O 163.572 0.663349 -1.71305 0
M  V30 1765 C 163.634 -2.72807 -2.34129 0
M  V30 1766 C 163.298 -4.1554 -1.90198 0
M  V30 1767 C 164.295 -5.00471 -1.40801 0
M  V30 1768 C 161.98 -4.61616 -1.9803 0
M  V30 1769 C 163.974 -6.29536 -0.998174 0
M  V30 1770 C 161.661 -5.90679 -1.56658 0
M  V30 1771 C 162.659 -6.74466 -1.07633 0
M  V30 1772 O 162.347 -8.01116 -0.668459 0
M  V30 1773 H 162.079 -0.564614 -0.371734 0
M  V30 1774 H 164.633 -1.9843 -0.530521 0
M  V30 1775 H 162.863 -2.36954 -3.05597 0
M  V30 1776 H 164.552 -2.77729 -2.96009 0
M  V30 1777 H 165.318 -4.66079 -1.34148 0
M  V30 1778 H 161.197 -3.96526 -2.35135 0
M  V30 1779 H 164.741 -6.94885 -0.61482 0
M  V30 1780 H 160.638 -6.24586 -1.62979 0
M  V30 1781 H 161.406 -8.14633 -0.794722 0
M  V30 1782 N 164.069 0.697108 -1.41344 0
M  V30 1783 C 165.032 1.79281 -1.42797 0
M  V30 1784 C 166.032 1.57607 -0.318837 0
M  V30 1785 O 167.222 1.64309 -0.578642 0
M  V30 1786 C 164.354 3.17632 -1.23785 0
M  V30 1787 H 165.547 1.79385 -2.40335 0
M  V30 1788 H 163.1 0.904582 -1.27464 0
M  V30 1789 H 163.835 3.23167 -0.270814 0
M  V30 1790 H 163.62 3.34765 -2.04144 0
M  V30 1791 H 165.11 3.97617 -1.27633 0
M  V30 1792 N 165.547 1.27147 0.931209 0
M  V30 1793 C 166.958 1.12044 1.49342 0
M  V30 1794 C 167.309 -0.295795 1.93957 0
M  V30 1795 O 166.434 -1.18835 1.80852 0
M  V30 1796 C 167.029 2.02781 2.71414 0
M  V30 1797 C 165.588 1.91794 3.2387 0
M  V30 1798 C 164.735 1.95543 1.96617 0
M  V30 1799 H 167.686 1.40091 0.745672 0
M  V30 1800 H 167.707 1.58156 3.46074 0
M  V30 1801 H 167.219 3.05848 2.38911 0
M  V30 1802 H 165.32 0.916992 3.6114 0
M  V30 1803 H 165.433 2.77852 3.90302 0
M  V30 1804 H 163.797 1.39722 2.12955 0
M  V30 1805 H 164.58 3.00259 1.66432 0
M  V30 1806 N 167.025 -1.13721 1.09112 0
M  V30 1807 C 168.25 -1.89314 0.847053 0
M  V30 1808 C 168.675 -1.78416 -0.595774 0
M  V30 1809 O 168.033 -1.12942 -1.41823 0
M  V30 1810 C 168.081 -3.3701 1.28284 0
M  V30 1811 O 167.185 -4.10054 0.439267 0
M  V30 1812 H 166.526 -0.588745 0.307044 0
M  V30 1813 H 169.056 -1.43902 1.45442 0
M  V30 1814 H 169.066 -3.87834 1.26683 0
M  V30 1815 H 167.741 -3.4426 2.33363 0
M  V30 1816 H 166.318 -3.69266 0.519312 0
M  V30 1817 N 168.503 -0.877838 -1.30888 0
M  V30 1818 C 169.413 -0.343096 -2.32078 0
M  V30 1819 C 170.429 0.551022 -1.65045 0
M  V30 1820 O 171.605 0.445854 -1.96403 0
M  V30 1821 C 168.67 0.439905 -3.43898 0
M  V30 1822 C 167.731 -0.483111 -4.26573 0
M  V30 1823 C 166.964 0.262616 -5.33053 0
M  V30 1824 O 167.187 1.48967 -5.50604 0
M  V30 1825 O 166.121 -0.383593 -6.00676 0
M  V30 1826 H 169.947 -1.18203 -2.79753 0
M  V30 1827 H 167.532 -0.64145 -1.34929 0
M  V30 1828 H 169.414 0.883504 -4.12034 0
M  V30 1829 H 168.089 1.25526 -2.98371 0
M  V30 1830 H 166.996 -0.975374 -3.61161 0
M  V30 1831 H 168.329 -1.26427 -4.75686 0
M  V30 1832 N 169.982 1.44106 -0.638065 0
M  V30 1833 C 170.929 2.30715 0.062701 0
M  V30 1834 C 171.899 1.43882 0.829883 0
M  V30 1835 O 173.084 1.72775 0.809532 0
M  V30 1836 C 170.224 3.29258 1.03358 0
M  V30 1837 C 169.337 4.31192 0.26409 0
M  V30 1838 C 168.472 5.16825 1.22741 0
M  V30 1839 C 167.511 6.10462 0.447475 0
M  V30 1840 N 166.648 6.8877 1.36161 0
M  V30 1841 H 171.488 2.90096 -0.681781 0
M  V30 1842 H 169.025 1.42925 -0.347988 0
M  V30 1843 H 170.983 3.84886 1.60992 0
M  V30 1844 H 169.613 2.71562 1.74511 0
M  V30 1845 H 168.665 3.77981 -0.428295 0
M  V30 1846 H 169.977 4.97619 -0.343052 0
M  V30 1847 H 169.131 5.77004 1.87487 0
M  V30 1848 H 167.87 4.50488 1.86847 0
M  V30 1849 H 166.875 5.49386 -0.213433 0
M  V30 1850 H 168.1 6.78837 -0.188968 0
M  V30 1851 H 166.046 6.25096 1.98975 0
M  V30 1852 H 165.963 7.51663 0.808656 0
M  V30 1853 H 167.231 7.53467 1.99769 0
M  V30 1854 N 171.46 0.379036 1.52974 0
M  V30 1855 C 172.393 -0.504932 2.22544 0
M  V30 1856 C 173.371 -1.0723 1.22231 0
M  V30 1857 O 174.555 -1.12589 1.51182 0
M  V30 1858 C 171.682 -1.69794 2.93066 0
M  V30 1859 C 170.728 -1.25678 4.07563 0
M  V30 1860 S 171.561 -0.246852 5.34931 0
M  V30 1861 C 172.717 -1.44588 6.08971 0
M  V30 1862 H 172.95 0.0858666 2.97176 0
M  V30 1863 H 170.483 0.163183 1.53535 0
M  V30 1864 H 172.441 -2.38219 3.34308 0
M  V30 1865 H 171.102 -2.26002 2.18133 0
M  V30 1866 H 170.295 -2.14725 4.5597 0
M  V30 1867 H 169.897 -0.651584 3.6828 0
M  V30 1868 H 172.189 -2.37469 6.34519 0
M  V30 1869 H 173.132 -1.00292 7.00962 0
M  V30 1870 H 173.54 -1.65804 5.39601 0
M  V30 1871 N 172.938 -1.57226 0.108567 0
M  V30 1872 C 174.187 -1.94008 -0.551703 0
M  V30 1873 C 174.5 -0.993442 -1.68494 0
M  V30 1874 O 175.706 -1.25551 -2.40726 0
M  V30 1875 C 174.162 -3.44763 -1.03279 0
M  V30 1876 C 173.77 -4.47943 0.0714193 0
M  V30 1877 C 175.514 -3.90483 -1.66503 0
M  V30 1878 C 173.421 -5.89865 -0.425779 0
M  V30 1879 H 172.351 -0.724206 -0.209863 0
M  V30 1880 H 175.002 -1.82547 0.186741 0
M  V30 1881 H 173.384 -3.51422 -1.82533 0
M  V30 1882 H 174.558 -4.52942 0.847365 0
M  V30 1883 H 172.873 -4.11913 0.609669 0
M  V30 1884 H 175.47 -4.93925 -2.04798 0
M  V30 1885 H 175.813 -3.29877 -2.53942 0
M  V30 1886 H 176.346 -3.86581 -0.938074 0
M  V30 1887 H 173.085 -6.54202 0.412316 0
M  V30 1888 H 172.605 -5.88309 -1.16843 0
M  V30 1889 H 174.284 -6.40844 -0.890397 0
M  V30 1890 N 174.416 0.165178 -1.56732 0
M  V30 1891 C 175.644 0.896218 -1.86482 0
M  V30 1892 C 176.059 1.75555 -0.694675 0
M  V30 1893 O 175.416 1.79379 0.33607 0
M  V30 1894 C 175.467 1.76792 -3.1532 0
M  V30 1895 O 175.188 0.943239 -4.27825 0
M  V30 1896 C 176.689 2.6081 -3.58459 0
M  V30 1897 H 173.909 0.260064 -0.618553 0
M  V30 1898 H 176.453 0.163428 -2.03846 0
M  V30 1899 H 174.608 2.45398 -2.99764 0
M  V30 1900 H 175.022 1.53998 -5.01383 0
M  V30 1901 H 176.496 3.17579 -4.51495 0
M  V30 1902 H 176.973 3.35977 -2.82872 0
M  V30 1903 H 177.579 1.97526 -3.76648 0
M  V30 1904 N 175.894 1.51508 0.433938 0
M  V30 1905 C 176.841 1.73068 1.52696 0
M  V30 1906 C 177.811 0.572441 1.55924 0
M  V30 1907 O 178.996 0.807253 1.72882 0
M  V30 1908 C 176.136 1.86474 2.90381 0
M  V30 1909 C 175.249 3.14037 2.96656 0
M  V30 1910 C 174.384 3.18019 4.25485 0
M  V30 1911 C 173.423 4.39882 4.2564 0
M  V30 1912 N 172.56 4.41394 5.45999 0
M  V30 1913 H 177.4 2.66366 1.33615 0
M  V30 1914 H 174.937 1.32008 0.649018 0
M  V30 1915 H 176.895 1.92229 3.70275 0
M  V30 1916 H 175.525 0.965809 3.08013 0
M  V30 1917 H 174.577 3.17575 2.09404 0
M  V30 1918 H 175.889 4.0394 2.92633 0
M  V30 1919 H 175.043 3.22708 5.13755 0
M  V30 1920 H 173.782 2.2601 4.3217 0
M  V30 1921 H 172.787 4.35366 3.35763 0
M  V30 1922 H 174.012 5.33159 4.20617 0
M  V30 1923 H 171.958 3.52258 5.53399 0
M  V30 1924 H 171.875 5.25111 5.4387 0
M  V30 1925 H 173.143 4.50281 6.36292 0
M  V30 1926 N 177.372 -0.689602 1.41712 0
M  V30 1927 C 178.618 -1.45181 1.41599 0
M  V30 1928 C 178.951 -1.94181 0.0270081 0
M  V30 1929 O 178.226 -1.6993 -0.946265 0
M  V30 1930 C 178.509 -2.65945 2.42787 0
M  V30 1931 C 178.362 -2.22672 3.90816 0
M  V30 1932 C 179.681 -3.68149 2.41151 0
M  V30 1933 H 176.8 -0.526576 0.515642 0
M  V30 1934 H 179.442 -0.784947 1.73028 0
M  V30 1935 H 177.592 -3.2284 2.16116 0
M  V30 1936 H 179.264 -1.71058 4.28412 0
M  V30 1937 H 177.507 -1.54394 4.05395 0
M  V30 1938 H 178.178 -3.0935 4.57172 0
M  V30 1939 H 180.654 -3.2094 2.64834 0
M  V30 1940 H 179.53 -4.50248 3.13955 0
M  V30 1941 H 179.791 -4.18259 1.43221 0
M  V30 1942 N 178.85 -1.27639 -0.924453 0
M  V30 1943 C 179.782 -1.06442 -2.02985 0
M  V30 1944 C 180.795 -0.0194771 -1.62788 0
M  V30 1945 O 181.984 -0.261388 -1.76576 0
M  V30 1946 C 179.084 -0.59327 -3.33667 0
M  V30 1947 C 178.257 -1.71123 -4.02537 0
M  V30 1948 C 177.316 -1.23527 -5.11495 0
M  V30 1949 O 176.342 -1.93553 -5.35281 0
M  V30 1950 N 177.544 -0.0926678 -5.80426 0
M  V30 1951 H 180.309 -2.01633 -2.2173 0
M  V30 1952 H 177.87 -1.19248 -1.09505 0
M  V30 1953 H 179.862 -0.258686 -4.03872 0
M  V30 1954 H 178.432 0.265502 -3.1147 0
M  V30 1955 H 177.652 -2.21593 -3.26022 0
M  V30 1956 H 178.94 -2.46145 -4.45298 0
M  V30 1957 H 178.338 0.491741 -5.63559 0
M  V30 1958 H 176.895 0.182714 -6.51544 0
M  V30 1959 N 180.328 1.1314 -1.09713 0
M  V30 1960 C 181.605 1.80762 -0.747302 0
M  V30 1961 C 181.985 1.96663 0.767265 0
M  V30 1962 O 181.333 1.53706 1.69076 0
M  V30 1963 C 181.543 3.15606 -1.48975 0
M  V30 1964 C 182.891 3.90914 -1.65746 0
M  V30 1965 O 183.915 3.25239 -1.45251 0
M  V30 1966 O 182.774 5.08718 -1.9967 0
M  V30 1967 H 179.868 0.782103 -0.268782 0
M  V30 1968 H 182.414 1.20041 -1.19951 0
M  V30 1969 H 181.186 2.99278 -2.52088 0
M  V30 1970 H 180.809 3.84029 -1.02991 0
M  V30 1971 N 181.806 0.884767 1.30421 0
M  V30 1972 C 183.053 0.503105 1.96151 0
M  V30 1973 C 183.381 -0.947676 1.69851 0
M  V30 1974 O 182.636 -1.68467 0.995861 0
M  V30 1975 C 182.935 0.724318 3.49983 0
M  V30 1976 C 182.601 2.15015 3.96332 0
M  V30 1977 C 181.263 2.54005 4.08699 0
M  V30 1978 C 183.615 3.07936 4.20505 0
M  V30 1979 C 180.943 3.85128 4.42599 0
M  V30 1980 C 183.295 4.3859 4.55874 0
M  V30 1981 C 181.959 4.77474 4.66449 0
M  V30 1982 H 181.229 0.184099 0.717766 0
M  V30 1983 H 183.876 1.12058 1.55291 0
M  V30 1984 H 182.181 0.0238086 3.91793 0
M  V30 1985 H 183.878 0.408617 3.98913 0
M  V30 1986 H 180.468 1.8375 3.87213 0
M  V30 1987 H 184.652 2.79033 4.10431 0
M  V30 1988 H 179.908 4.14996 4.48986 0
M  V30 1989 H 184.082 5.10629 4.7353 0
M  V30 1990 H 181.709 5.79115 4.92473 0
M  V30 1991 N 183.284 -1.43765 0.645699 0
M  V30 1992 C 184.216 -2.29027 -0.0890605 0
M  V30 1993 C 185.229 -1.42093 -0.794563 0
M  V30 1994 O 186.418 -1.66104 -0.653575 0
M  V30 1995 C 183.518 -3.18831 -1.14891 0
M  V30 1996 C 182.691 -4.34261 -0.523043 0
M  V30 1997 C 181.75 -5.04994 -1.47878 0
M  V30 1998 O 180.776 -5.6052 -0.990277 0
M  V30 1999 N 181.978 -5.07795 -2.81291 0
M  V30 2000 H 184.743 -2.92727 0.64272 0
M  V30 2001 H 182.304 -1.54373 0.487924 0
M  V30 2002 H 184.296 -3.63015 -1.78892 0
M  V30 2003 H 182.866 -2.56782 -1.78275 0
M  V30 2004 H 182.086 -3.93088 0.295896 0
M  V30 2005 H 183.374 -5.08728 -0.0858147 0
M  V30 2006 H 182.772 -4.64042 -3.23546 0
M  V30 2007 H 181.329 -5.55721 -3.40614 0
M  V30 2008 N 184.763 -0.387143 -1.52771 0
M  V30 2009 C 185.673 0.456442 -2.30117 0
M  V30 2010 C 186.689 1.07342 -1.36944 0
M  V30 2011 O 187.865 1.07971 -1.70013 0
M  V30 2012 C 184.93 1.56957 -3.09136 0
M  V30 2013 C 183.991 0.977916 -4.18014 0
M  V30 2014 C 183.224 2.038 -4.93256 0
M  V30 2015 O 183.447 3.25271 -4.68567 0
M  V30 2016 O 182.381 1.6565 -5.78657 0
M  V30 2017 H 186.207 -0.17359 -3.03203 0
M  V30 2018 H 183.792 -0.150919 -1.48636 0
M  V30 2019 H 185.674 2.21628 -3.58412 0
M  V30 2020 H 184.349 2.18461 -2.38865 0
M  V30 2021 H 183.256 0.294525 -3.72939 0
M  V30 2022 H 184.589 0.407128 -4.90513 0
M  V30 2023 N 186.241 1.57166 -0.116904 0
M  V30 2024 C 187.518 1.86645 0.585049 0
M  V30 2025 C 187.898 1.0177 1.84949 0
M  V30 2026 O 187.246 0.0960379 2.28298 0
M  V30 2027 C 187.456 3.37736 0.879507 0
M  V30 2028 C 188.804 4.06289 1.23348 0
M  V30 2029 O 189.828 3.42743 0.969836 0
M  V30 2030 O 188.687 5.18455 1.7282 0
M  V30 2031 H 185.781 0.772593 0.295007 0
M  V30 2032 H 188.327 1.69025 -0.151249 0
M  V30 2033 H 187.099 3.91296 -0.0166136 0
M  V30 2034 H 186.722 3.6078 1.67103 0
M  V30 2035 N 187.719 -0.156864 1.56817 0
M  V30 2036 C 188.666 -1.19394 1.97519 0
M  V30 2037 C 189.636 -1.4322 0.841265 0
M  V30 2038 O 190.821 -1.55719 1.10255 0
M  V30 2039 C 187.961 -2.52483 2.35258 0
M  V30 2040 C 187.074 -2.35914 3.61896 0
M  V30 2041 C 186.209 -3.61969 3.88782 0
M  V30 2042 C 185.248 -3.40395 5.08722 0
M  V30 2043 N 184.385 -4.58556 5.31668 0
M  V30 2044 H 189.225 -0.839845 2.85921 0
M  V30 2045 H 186.762 -0.403264 1.41464 0
M  V30 2046 H 188.72 -3.30071 2.55165 0
M  V30 2047 H 187.35 -2.85859 1.49949 0
M  V30 2048 H 186.402 -1.49429 3.49821 0
M  V30 2049 H 187.714 -2.15926 4.49641 0
M  V30 2050 H 186.868 -4.47989 4.09135 0
M  V30 2051 H 185.607 -3.84951 2.9944 0
M  V30 2052 H 184.612 -2.52763 4.88253 0
M  V30 2053 H 185.837 -3.18822 5.99608 0
M  V30 2054 H 183.783 -4.81729 4.45279 0
M  V30 2055 H 183.7 -4.41535 6.13664 0
M  V30 2056 H 184.968 -5.45817 5.5651 0
M  V30 2057 N 189.197 -1.51736 -0.425897 0
M  V30 2058 C 190.107 -1.76738 -1.54275 0
M  V30 2059 C 191.123 -0.65211 -1.61318 0
M  V30 2060 O 192.299 -0.935654 -1.78346 0
M  V30 2061 C 189.364 -1.89755 -2.90162 0
M  V30 2062 C 188.425 -3.13633 -2.93143 0
M  V30 2063 C 187.658 -3.2602 -4.22548 0
M  V30 2064 O 187.881 -2.44067 -5.15546 0
M  V30 2065 O 186.815 -4.19071 -4.32046 0
M  V30 2066 H 190.641 -2.71502 -1.36089 0
M  V30 2067 H 188.226 -1.36376 -0.610069 0
M  V30 2068 H 190.108 -2.00236 -3.70788 0
M  V30 2069 H 188.783 -0.981785 -3.08452 0
M  V30 2070 H 187.69 -3.08622 -2.11431 0
M  V30 2071 H 189.023 -4.04936 -2.798 0
M  V30 2072 N 190.675 0.682077 -1.42076 0
M  V30 2073 C 191.605 1.80796 -1.47767 0
M  V30 2074 C 192.586 1.6677 -0.334954 0
M  V30 2075 O 193.771 1.863 -0.548264 0
M  V30 2076 C 190.901 3.19038 -1.37229 0
M  V30 2077 C 189.855 3.47789 -2.49453 0
M  V30 2078 C 189.181 4.8553 -2.23975 0
M  V30 2079 C 190.481 3.45411 -3.91776 0
M  V30 2080 H 192.175 1.7629 -2.41997 0
M  V30 2081 H 189.721 0.846721 -1.16476 0
M  V30 2082 H 191.674 3.97528 -1.39821 0
M  V30 2083 H 190.398 3.24204 -0.394907 0
M  V30 2084 H 189.057 2.71657 -2.46166 0
M  V30 2085 H 188.705 4.87337 -1.24547 0
M  V30 2086 H 188.405 5.0573 -2.99184 0
M  V30 2087 H 189.929 5.66312 -2.28304 0
M  V30 2088 H 191.343 4.13882 -3.96705 0
M  V30 2089 H 189.74 3.77145 -4.66778 0
M  V30 2090 H 190.81 2.44122 -4.18966 0
M  V30 2091 N 192.153 1.28127 0.917671 0
M  V30 2092 C 193.4 1.15052 1.66641 0
M  V30 2093 C 193.728 -0.301677 1.92146 0
M  V30 2094 O 192.983 -1.23622 1.51711 0
M  V30 2095 C 193.282 1.89018 3.03327 0
M  V30 2096 C 192.948 3.38832 2.97496 0
M  V30 2097 C 191.61 3.79693 2.95613 0
M  V30 2098 C 193.962 4.34378 2.88036 0
M  V30 2099 C 191.29 5.14447 2.82066 0
M  V30 2100 C 193.642 5.69201 2.7603 0
M  V30 2101 C 192.306 6.09343 2.72502 0
M  V30 2102 H 191.576 0.421006 0.609783 0
M  V30 2103 H 194.223 1.58855 1.06945 0
M  V30 2104 H 192.528 1.37752 3.66785 0
M  V30 2105 H 194.225 1.76321 3.60156 0
M  V30 2106 H 190.815 3.06342 2.99754 0
M  V30 2107 H 194.999 4.03775 2.88581 0
M  V30 2108 H 190.255 5.44681 2.77728 0
M  V30 2109 H 194.429 6.42901 2.67678 0
M  V30 2110 H 192.056 7.13712 2.61762 0
M  V30 2111 N 193.631 -1.12557 1.10312 0
M  V30 2112 C 195.047 -1.36036 0.834649 0
M  V30 2113 C 195.247 -1.93946 -0.546539 0
M  V30 2114 O 194.303 -2.16484 -1.29966 0
M  V30 2115 C 195.616 -2.30312 1.9333 0
M  V30 2116 C 197.164 -2.43906 1.9616 0
M  V30 2117 C 197.639 -3.41496 3.05195 0
M  V30 2118 N 199.13 -3.49053 3.04494 0
M  V30 2119 C 199.865 -4.24471 3.85502 0
M  V30 2120 N 199.361 -5.02966 4.76442 0
M  V30 2121 N 201.154 -4.19864 3.73725 0
M  V30 2122 H 193.305 -0.733246 1.99342 0
M  V30 2123 H 195.568 -0.385234 0.866198 0
M  V30 2124 H 195.274 -1.94933 2.92735 0
M  V30 2125 H 195.148 -3.30421 1.81939 0
M  V30 2126 H 197.535 -2.78567 0.973886 0
M  V30 2127 H 197.616 -1.4369 2.11629 0
M  V30 2128 H 197.26 -3.07565 4.04186 0
M  V30 2129 H 197.19 -4.41539 2.86968 0
M  V30 2130 H 199.681 -2.93053 2.38596 0
M  V30 2131 H 199.994 -5.57846 5.34815 0
M  V30 2132 H 198.339 -5.02167 4.80472 0
M  V30 2133 H 201.53 -3.57623 3.02032 0
M  V30 2134 H 201.703 -4.78386 4.37093 0
M  V30 2135 N 195.109 -0.891671 -1.2995 0
M  V30 2136 C 196.339 -0.527893 -1.99742 0
M  V30 2137 C 196.747 0.88979 -1.66971 0
M  V30 2138 O 196.09 1.59766 -0.906667 0
M  V30 2139 C 196.152 -0.630804 -3.53922 0
M  V30 2140 C 195.816 -2.01401 -4.10228 0
M  V30 2141 C 196.813 -2.98422 -4.25724 0
M  V30 2142 C 194.498 -2.32121 -4.45449 0
M  V30 2143 C 196.492 -4.24293 -4.75662 0
M  V30 2144 C 194.179 -3.58237 -4.95086 0
M  V30 2145 C 195.177 -4.54137 -5.10146 0
M  V30 2146 O 194.865 -5.78014 -5.58708 0
M  V30 2147 H 194.597 -0.201953 -0.645129 0
M  V30 2148 H 197.151 -1.20076 -1.66646 0
M  V30 2149 H 195.381 0.0990616 -3.86573 0
M  V30 2150 H 197.07 -0.277338 -4.04951 0
M  V30 2151 H 197.836 -2.76001 -3.98809 0
M  V30 2152 H 193.715 -1.5824 -4.32991 0
M  V30 2153 H 197.259 -4.99153 -4.87332 0
M  V30 2154 H 193.156 -3.80491 -5.21437 0
M  V30 2155 H 193.924 -5.8049 -5.77039 0
M  V30 2156 N 196.587 1.43421 -0.653314 0
M  V30 2157 C 197.827 2.03689 -0.170346 0
M  V30 2158 C 198.191 1.50427 1.19314 0
M  V30 2159 O 199.392 2.0234 1.76952 0
M  V30 2160 C 197.663 3.56946 -0.180183 0
M  V30 2161 S 199.222 4.38171 0.234925 0
M  V30 2162 H 196.04 0.707345 -0.0719976 0
M  V30 2163 H 198.642 1.75486 -0.86167 0
M  V30 2164 H 197.346 3.93212 -1.17526 0
M  V30 2165 H 196.877 3.89791 0.531675 0
M  V30 2166 H 198.892 4.73808 1.47378 0
M  V30 2167 N 198.065 0.39524 1.52563 0
M  V30 2168 C 199.293 -0.184943 2.06072 0
M  V30 2169 C 199.708 -1.40021 1.26647 0
M  V30 2170 O 199.065 -1.79767 0.314672 0
M  V30 2171 C 199.116 -0.549179 3.57304 0
M  V30 2172 O 198.837 0.617813 4.33722 0
M  V30 2173 C 200.338 -1.18459 4.2718 0
M  V30 2174 H 197.558 -0.0265025 0.670476 0
M  V30 2175 H 200.102 0.562184 1.96621 0
M  V30 2176 H 198.257 -1.2462 3.66809 0
M  V30 2177 H 198.671 0.317091 5.23541 0
M  V30 2178 H 200.145 -1.38976 5.34219 0
M  V30 2179 H 200.622 -2.15368 3.82771 0
M  V30 2180 H 201.228 -0.528163 4.22008 0
M  V30 2181 N 199.544 -1.57102 0.125237 0
M  V30 2182 C 200.474 -2.18659 -0.819174 0
M  V30 2183 C 201.455 -1.12843 -1.27281 0
M  V30 2184 O 202.64 -1.41104 -1.33429 0
M  V30 2185 C 199.77 -2.79096 -2.06695 0
M  V30 2186 C 198.724 -3.90548 -1.75088 0
M  V30 2187 C 198.05 -4.37821 -3.06948 0
M  V30 2188 C 199.35 -5.12356 -1.01435 0
M  V30 2189 H 201.044 -2.9783 -0.306202 0
M  V30 2190 H 198.59 -1.4326 -0.145839 0
M  V30 2191 H 200.543 -3.2082 -2.73226 0
M  V30 2192 H 199.267 -1.97223 -2.60328 0
M  V30 2193 H 197.926 -3.49409 -1.10944 0
M  V30 2194 H 197.574 -3.52799 -3.58527 0
M  V30 2195 H 197.274 -5.12982 -2.86571 0
M  V30 2196 H 198.798 -4.822 -3.74587 0
M  V30 2197 H 200.212 -5.5106 -1.58132 0
M  V30 2198 H 198.609 -5.9314 -0.911319 0
M  V30 2199 H 199.679 -4.849 -0.00218681 0
M  V30 2200 N 201.022 0.148545 -1.56898 0
M  V30 2201 C 202.433 0.708766 -1.72723 0
M  V30 2202 C 202.784 1.81734 -0.739395 0
M  V30 2203 O 201.909 2.16194 0.0943169 0
M  V30 2204 C 202.504 1.29245 -3.13179 0
M  V30 2205 C 201.063 1.79925 -3.30611 0
M  V30 2206 C 200.21 0.687111 -2.68652 0
M  V30 2207 H 203.161 -0.0771063 -1.58513 0
M  V30 2208 H 203.182 2.16224 -3.13093 0
M  V30 2209 H 202.694 0.485382 -3.85053 0
M  V30 2210 H 200.795 2.63203 -2.63732 0
M  V30 2211 H 200.908 1.92903 -4.38549 0
M  V30 2212 H 199.272 1.11335 -2.29078 0
M  V30 2213 H 200.055 -0.108483 -3.43129 0
M  V30 2214 N 202.5 1.5196 0.417844 0
M  V30 2215 C 203.41 1.77554 1.53336 0
M  V30 2216 C 204.426 0.660655 1.6097 0
M  V30 2217 O 205.602 0.945099 1.77848 0
M  V30 2218 C 202.667 1.91291 2.89152 0
M  V30 2219 C 201.728 3.15183 2.91475 0
M  V30 2220 C 200.961 3.28256 4.20813 0
M  V30 2221 O 201.184 2.46798 5.14244 0
M  V30 2222 O 200.118 4.21356 4.29817 0
M  V30 2223 H 203.944 2.7222 1.34647 0
M  V30 2224 H 201.529 1.36698 0.602828 0
M  V30 2225 H 203.411 2.02199 3.69721 0
M  V30 2226 H 202.086 0.998129 3.07927 0
M  V30 2227 H 200.993 3.09739 2.09791 0
M  V30 2228 H 202.326 4.06414 2.77648 0
M  V30 2229 N 203.978 -0.674533 1.42435 0
M  V30 2230 C 205.227 -1.43034 1.42212 0
M  V30 2231 C 205.54 -1.95555 0.0420788 0
M  V30 2232 O 206.746 -2.71374 -0.0827558 0
M  V30 2233 C 205.202 -2.58748 2.50155 0
M  V30 2234 C 204.81 -2.12925 3.94166 0
M  V30 2235 C 206.554 -3.36257 2.59098 0
M  V30 2236 C 204.461 -3.25723 4.93618 0
M  V30 2237 H 203.391 -0.537345 0.528939 0
M  V30 2238 H 206.042 -0.73024 1.68344 0
M  V30 2239 H 204.424 -3.31128 2.17188 0
M  V30 2240 H 205.598 -1.47697 4.36488 0
M  V30 2241 H 203.913 -1.48354 3.89076 0
M  V30 2242 H 206.51 -4.20264 3.30578 0
M  V30 2243 H 206.853 -3.82866 1.63461 0
M  V30 2244 H 207.386 -2.70947 2.9126 0
M  V30 2245 H 204.125 -2.84105 5.90732 0
M  V30 2246 H 203.645 -3.89732 4.55926 0
M  V30 2247 H 205.324 -3.91186 5.15347 0
M  V30 2248 N 205.456 -1.28612 -0.910864 0
M  V30 2249 C 206.386 -1.15326 -2.03032 0
M  V30 2250 C 207.367 -0.0502924 -1.70026 0
M  V30 2251 O 208.552 -0.227797 -1.92859 0
M  V30 2252 C 205.682 -0.817343 -3.37545 0
M  V30 2253 C 204.636 -1.8754 -3.84724 0
M  V30 2254 C 203.962 -1.39305 -5.16235 0
M  V30 2255 C 205.262 -3.28244 -4.06267 0
M  V30 2256 H 206.956 -2.08975 -2.14406 0
M  V30 2257 H 204.502 -1.00612 -1.03021 0
M  V30 2258 H 206.455 -0.711151 -4.15356 0
M  V30 2259 H 205.179 0.154846 -3.26233 0
M  V30 2260 H 203.838 -1.97079 -3.09121 0
M  V30 2261 H 203.486 -0.409846 -5.01328 0
M  V30 2262 H 203.186 -2.10057 -5.48771 0
M  V30 2263 H 204.71 -1.30014 -5.96598 0
M  V30 2264 H 206.124 -3.21611 -4.74594 0
M  V30 2265 H 204.521 -3.96855 -4.5014 0
M  V30 2266 H 205.591 -3.72048 -3.10979 0
M  V30 2267 N 206.934 1.1197 -1.10907 0
M  V30 2268 C 207.881 2.17846 -0.762345 0
M  V30 2269 C 208.851 1.63995 0.263599 0
M  V30 2270 O 210.036 1.90273 0.141773 0
M  V30 2271 C 207.176 3.44487 -0.205651 0
M  V30 2272 C 206.289 4.12369 -1.28748 0
M  V30 2273 C 205.424 5.26674 -0.691919 0
M  V30 2274 C 204.463 5.86431 -1.75399 0
M  V30 2275 N 203.6 6.92142 -1.17833 0
M  V30 2276 H 208.44 2.46851 -1.6694 0
M  V30 2277 H 205.977 1.21188 -0.833776 0
M  V30 2278 H 207.935 4.16981 0.135037 0
M  V30 2279 H 206.565 3.15884 0.664613 0
M  V30 2280 H 205.617 3.38003 -1.74522 0
M  V30 2281 H 206.929 4.52844 -2.09125 0
M  V30 2282 H 206.083 6.05953 -0.300963 0
M  V30 2283 H 204.822 4.8749 0.143232 0
M  V30 2284 H 203.827 5.05835 -2.15432 0
M  V30 2285 H 205.052 6.27685 -2.59208 0
M  V30 2286 H 202.998 6.54985 -0.364725 0
M  V30 2287 H 202.915 7.31242 -1.91887 0
M  V30 2288 H 204.183 7.75237 -0.81408 0
M  V30 2289 N 208.412 0.89855 1.29475 0
M  V30 2290 C 209.642 0.538479 1.99459 0
M  V30 2291 C 210.05 -0.880922 1.67441 0
M  V30 2292 O 209.393 -1.59283 0.915127 0
M  V30 2293 C 209.455 0.649564 3.53583 0
M  V30 2294 C 209.119 2.03573 4.09154 0
M  V30 2295 C 210.116 3.00675 4.24135 0
M  V30 2296 C 207.801 2.3448 4.44212 0
M  V30 2297 C 209.795 4.26809 4.73405 0
M  V30 2298 C 207.482 3.60857 4.93179 0
M  V30 2299 C 208.48 4.56836 5.0773 0
M  V30 2300 O 208.168 5.80969 5.55635 0
M  V30 2301 H 207.9 0.205372 0.644048 0
M  V30 2302 H 210.454 1.20958 1.66007 0
M  V30 2303 H 208.684 -0.0785592 3.8662 0
M  V30 2304 H 210.373 0.29881 4.04799 0
M  V30 2305 H 211.139 2.78112 3.97339 0
M  V30 2306 H 207.018 1.60534 4.32145 0
M  V30 2307 H 210.562 5.0173 4.84678 0
M  V30 2308 H 206.459 3.83251 5.19412 0
M  V30 2309 H 207.227 5.83542 5.73952 0
M  V30 2310 N 209.89 -1.43072 0.660911 0
M  V30 2311 C 211.136 -2.0202 0.177708 0
M  V30 2312 C 211.469 -1.52066 -1.20787 0
M  V30 2313 O 210.744 -0.716987 -1.80802 0
M  V30 2314 C 211.027 -3.59561 0.197019 0
M  V30 2315 C 210.88 -4.19727 1.61706 0
M  V30 2316 C 212.199 -4.37664 -0.462396 0
M  V30 2317 H 209.318 -0.734034 0.0660494 0
M  V30 2318 H 211.96 -1.70272 0.843058 0
M  V30 2319 H 210.11 -3.86739 -0.369527 0
M  V30 2320 H 211.782 -4.03553 2.23479 0
M  V30 2321 H 210.025 -3.76084 2.16201 0
M  V30 2322 H 210.696 -5.28834 1.58237 0
M  V30 2323 H 213.172 -4.16095 0.0197215 0
M  V30 2324 H 212.048 -5.47305 -0.418188 0
M  V30 2325 H 212.309 -4.14493 -1.53778 0
M  V30 2326 N 211.368 -0.403325 -1.52352 0
M  V30 2327 C 212.278 0.432009 -2.30588 0
M  V30 2328 C 213.294 1.05884 -1.38075 0
M  V30 2329 O 214.47 1.06161 -1.71148 0
M  V30 2330 C 211.535 1.53669 -3.10784 0
M  V30 2331 C 210.596 0.933525 -4.19027 0
M  V30 2332 C 209.829 1.98557 -4.9539 0
M  V30 2333 O 210.052 3.20283 -4.71991 0
M  V30 2334 O 208.986 1.59504 -5.80381 0
M  V30 2335 H 212.812 -0.205739 -3.03002 0
M  V30 2336 H 210.397 -0.166675 -1.48467 0
M  V30 2337 H 212.279 2.17814 -3.60742 0
M  V30 2338 H 210.954 2.15915 -2.41169 0
M  V30 2339 H 209.861 0.254954 -3.7323 0
M  V30 2340 H 211.194 0.35508 -4.90918 0
M  V30 2341 N 212.846 1.57033 -0.133567 0
M  V30 2342 C 214.086 1.97575 0.523789 0
M  V30 2343 C 214.45 1.01605 1.62912 0
M  V30 2344 O 215.651 1.3114 2.3464 0
M  V30 2345 C 213.922 3.42256 1.02935 0
M  V30 2346 S 215.481 4.04817 1.69319 0
M  V30 2347 H 212.299 0.690427 0.169799 0
M  V30 2348 H 214.901 1.94234 -0.222101 0
M  V30 2349 H 213.605 4.09842 0.213917 0
M  V30 2350 H 213.136 3.4928 1.81017 0
M  V30 2351 H 215.151 3.96767 2.97977 0
M  V30 2352 N 214.325 -0.140222 1.56975 0
M  V30 2353 C 215.572 -0.851687 1.83719 0
M  V30 2354 C 215.9 -1.80862 0.715485 0
M  V30 2355 O 215.155 -1.93464 -0.294956 0
M  V30 2356 C 215.454 -1.65386 3.16832 0
M  V30 2357 C 215.12 -0.843112 4.42947 0
M  V30 2358 C 213.782 -0.619464 4.77196 0
M  V30 2359 C 216.134 -0.276582 5.20466 0
M  V30 2360 C 213.462 0.181312 5.8642 0
M  V30 2361 C 215.814 0.51127 6.30531 0
M  V30 2362 C 214.478 0.745432 6.63325 0
M  V30 2363 H 213.748 -0.311654 0.672274 0
M  V30 2364 H 216.395 -0.115006 1.91154 0
M  V30 2365 H 214.7 -2.46084 3.04877 0
M  V30 2366 H 216.397 -2.20793 3.34741 0
M  V30 2367 H 212.987 -1.0275 4.16101 0
M  V30 2368 H 217.171 -0.436632 4.94376 0
M  V30 2369 H 212.427 0.372165 6.10266 0
M  V30 2370 H 216.601 0.957354 6.89788 0
M  V30 2371 H 214.228 1.36778 7.47794 0
M  V30 2372 N 215.803 -1.52179 -0.40978 0
M  V30 2373 C 217.031 -1.70054 -1.17853 0
M  V30 2374 C 217.446 -0.409735 -1.843 0
M  V30 2375 O 216.803 0.614183 -1.71855 0
M  V30 2376 C 216.854 -2.83568 -2.24213 0
M  V30 2377 O 216.575 -4.0765 -1.60478 0
M  V30 2378 C 218.076 -3.12947 -3.13973 0
M  V30 2379 H 215.296 -0.569917 -0.354169 0
M  V30 2380 H 217.84 -1.98734 -0.482198 0
M  V30 2381 H 215.995 -2.57409 -2.89516 0
M  V30 2382 H 216.409 -4.70899 -2.30986 0
M  V30 2383 H 217.883 -3.95889 -3.84677 0
M  V30 2384 H 218.36 -2.26472 -3.76307 0
M  V30 2385 H 218.966 -3.40868 -2.5434 0
M  V30 2386 N 217.281 0.66697 -1.42791 0
M  V30 2387 C 218.529 1.42417 -1.43394 0
M  V30 2388 C 218.85 1.94925 -0.0542373 0
M  V30 2389 O 218.12 1.73564 0.908415 0
M  V30 2390 H 216.7 0.528515 -0.527902 0
M  V30 2391 H 219.362 0.787562 -1.78279 0
M  V30 2392 H 218.458 2.27333 -2.13837 0
M  V30 2393 N 218.759 1.29093 0.90403 0
M  V30 2394 C 220.17 1.15186 1.46932 0
M  V30 2395 C 220.521 -0.254587 1.94541 0
M  V30 2396 O 219.646 -1.14972 1.83332 0
M  V30 2397 C 220.241 2.08492 2.67051 0
M  V30 2398 C 218.8 1.98621 3.19729 0
M  V30 2399 C 217.947 1.9967 1.92425 0
M  V30 2400 H 220.898 1.41641 0.715789 0
M  V30 2401 H 220.919 1.65461 3.42641 0
M  V30 2402 H 220.431 3.10847 2.3237 0
M  V30 2403 H 218.532 0.993389 3.59114 0
M  V30 2404 H 218.645 2.86068 3.8432 0
M  V30 2405 H 217.009 1.44208 2.09943 0
M  V30 2406 H 217.792 3.03721 1.60026 0
M  V30 2407 N 220.237 -1.11381 1.11499 0
M  V30 2408 C 221.185 -2.19522 0.768956 0
M  V30 2409 C 222.179 -1.67693 -0.239857 0
M  V30 2410 O 223.385 -1.79727 -0.0990755 0
M  V30 2411 H 219.76 -0.715711 0.230786 0
M  V30 2412 H 221.731 -2.45954 1.68964 0
M  V30 2413 C 220.48 -3.46945 0.229073 0
M  V30 2414 H 219.803 -3.8718 0.996596 0
M  V30 2415 H 221.243 -4.23993 0.0251441 0
M  V30 2416 C 219.702 -3.2042 -1.04079 0
M  V30 2417 O 220.232 -3.41178 -2.12038 0
M  V30 2418 N 218.438 -2.74151 -0.963823 0
M  V30 2419 H 217.985 -2.57459 -0.0851722 0
M  V30 2420 H 217.943 -2.56781 -1.81414 0
M  V30 2421 N 221.715 -0.905404 -1.28997 0
M  V30 2422 C 222.964 -0.530191 -1.94607 0
M  V30 2423 C 223.277 0.929185 -1.72121 0
M  V30 2424 O 224.483 1.41218 -2.31883 0
M  V30 2425 C 222.939 -0.897333 -3.48534 0
M  V30 2426 C 222.547 -2.37587 -3.79811 0
M  V30 2427 C 224.291 -0.592304 -4.20347 0
M  V30 2428 C 222.198 -2.68357 -5.27009 0
M  V30 2429 H 221.128 -0.194558 -0.728466 0
M  V30 2430 H 223.779 -1.10318 -1.46636 0
M  V30 2431 H 222.161 -0.253214 -3.9519 0
M  V30 2432 H 223.335 -3.06602 -3.43994 0
M  V30 2433 H 221.65 -2.6505 -3.2115 0
M  V30 2434 H 224.247 -0.798975 -5.28697 0
M  V30 2435 H 224.59 0.469474 -4.13644 0
M  V30 2436 H 225.123 -1.19452 -3.79442 0
M  V30 2437 H 221.862 -3.73355 -5.38782 0
M  V30 2438 H 221.382 -2.03971 -5.64053 0
M  V30 2439 H 223.061 -2.54922 -5.94663 0
M  V30 2440 N 223.193 1.4272 -0.668489 0
M  V30 2441 C 224.126 2.28111 0.0637898 0
M  V30 2442 C 225.104 1.40705 0.814912 0
M  V30 2443 O 226.288 1.70146 0.81134 0
M  V30 2444 C 223.415 3.20429 1.0974 0
M  V30 2445 C 222.461 4.24197 0.442579 0
M  V30 2446 S 223.294 5.29563 -0.795173 0
M  V30 2447 C 224.45 6.25449 0.237516 0
M  V30 2448 H 224.683 2.8987 -0.660521 0
M  V30 2449 H 222.216 1.47456 -0.457821 0
M  V30 2450 H 224.174 3.74158 1.68868 0
M  V30 2451 H 222.835 2.57818 1.79411 0
M  V30 2452 H 222.028 4.88954 1.22227 0
M  V30 2453 H 221.63 3.73925 -0.0749554 0
M  V30 2454 H 223.922 6.68524 1.09915 0
M  V30 2455 H 224.865 7.07104 -0.375421 0
M  V30 2456 H 225.273 5.61511 0.580167 0
M  V30 2457 N 224.671 0.411399 1.52136 0
M  V30 2458 C 225.634 -0.401089 2.25663 0
M  V30 2459 C 226.634 -0.971732 1.28117 0
M  V30 2460 O 227.824 -0.850254 1.52041 0
M  V30 2461 C 224.956 -1.56483 3.02863 0
M  V30 2462 H 226.149 0.24295 2.98914 0
M  V30 2463 H 223.702 0.163968 1.55438 0
M  V30 2464 H 224.437 -2.24567 2.33967 0
M  V30 2465 H 224.222 -1.16211 3.74483 0
M  V30 2466 H 225.712 -2.13951 3.58629 0
M  V30 2467 N 226.149 -1.5696 0.141893 0
M  V30 2468 C 227.082 -2.12271 -0.837627 0
M  V30 2469 C 228.06 -1.04495 -1.24578 0
M  V30 2470 O 229.244 -1.32293 -1.34278 0
M  V30 2471 C 226.371 -2.63822 -2.12404 0
M  V30 2472 C 225.417 -3.83698 -1.86221 0
M  V30 2473 S 226.25 -5.24948 -1.05781 0
M  V30 2474 C 227.406 -5.79884 -2.35552 0
M  V30 2475 H 227.639 -2.95023 -0.367249 0
M  V30 2476 H 225.172 -1.54231 -0.0723014 0
M  V30 2477 H 227.13 -2.94175 -2.86307 0
M  V30 2478 H 225.791 -1.8121 -2.56557 0
M  V30 2479 H 224.984 -4.17995 -2.81596 0
M  V30 2480 H 224.586 -3.5408 -1.20429 0
M  V30 2481 H 226.878 -5.91005 -3.31239 0
M  V30 2482 H 227.821 -6.77544 -2.05767 0
M  V30 2483 H 228.229 -5.08095 -2.45967 0
M  V30 2484 N 227.627 0.131896 -1.57047 0
M  V30 2485 C 228.577 1.1679 -1.95816 0
M  V30 2486 C 229.561 1.37756 -0.831393 0
M  V30 2487 O 230.753 1.39065 -1.09499 0
M  V30 2488 C 227.882 2.49778 -2.35512 0
M  V30 2489 C 226.968 2.32342 -3.54793 0
M  V30 2490 N 227.359 1.8469 -4.70875 0
M  V30 2491 C 225.657 2.63043 -3.60173 0
M  V30 2492 C 226.358 1.80656 -5.52936 0
M  V30 2493 N 225.334 2.24528 -4.95064 0
M  V30 2494 H 229.136 0.791818 -2.83033 0
M  V30 2495 H 226.65 0.339791 -1.58805 0
M  V30 2496 H 228.647 3.24692 -2.61498 0
M  V30 2497 H 227.307 2.88156 -1.49654 0
M  V30 2498 H 228.318 1.54429 -4.9434 0
M  V30 2499 H 224.995 3.05193 -2.84892 0
M  V30 2500 H 226.385 1.45178 -6.56028 0
M  V30 2501 N 229.106 1.52395 0.401703 0
M  V30 2502 C 230.334 1.70676 1.16949 0
M  V30 2503 C 230.749 0.419503 1.8408 0
M  V30 2504 O 230.106 -0.605061 1.72178 0
M  V30 2505 C 230.157 2.84753 2.22706 0
M  V30 2506 O 229.878 4.08495 1.58314 0
M  V30 2507 C 231.379 3.14608 3.12309 0
M  V30 2508 H 228.599 0.571787 0.351142 0
M  V30 2509 H 231.143 1.98987 0.471652 0
M  V30 2510 H 229.298 2.58941 2.88147 0
M  V30 2511 H 229.712 4.72117 2.28485 0
M  V30 2512 H 231.186 3.97923 3.82572 0
M  V30 2513 H 231.663 2.28464 3.75101 0
M  V30 2514 H 232.269 3.42212 2.52529 0
M  V30 2515 N 230.584 -0.659388 1.43143 0
M  V30 2516 C 231.517 -1.78425 1.42267 0
M  V30 2517 C 232.495 -1.60085 0.284894 0
M  V30 2518 O 233.679 -1.82351 0.477527 0
M  V30 2519 C 230.806 -3.15642 1.22833 0
M  V30 2520 C 229.852 -3.52698 2.39806 0
M  V30 2521 S 230.685 -3.53372 4.02353 0
M  V30 2522 C 231.841 -4.93256 3.85291 0
M  V30 2523 H 232.074 -1.78897 2.37452 0
M  V30 2524 H 229.607 -0.831469 1.301 0
M  V30 2525 H 231.565 -3.94838 1.12308 0
M  V30 2526 H 230.226 -3.12739 0.29207 0
M  V30 2527 H 229.419 -4.52475 2.21996 0
M  V30 2528 H 229.021 -2.80899 2.46925 0
M  V30 2529 H 231.313 -5.81751 3.47235 0
M  V30 2530 H 232.256 -5.16115 4.84799 0
M  V30 2531 H 232.664 -4.665 3.17865 0
M  V30 2532 N 232.062 -1.29571 -0.897171 0
M  V30 2533 C 232.992 -1.17473 -2.01798 0
M  V30 2534 C 233.973 -0.068323 -1.69963 0
M  V30 2535 O 235.158 -0.248239 -1.92607 0
M  V30 2536 C 232.288 -0.853099 -3.36659 0
M  V30 2537 C 231.242 -1.9161 -3.82713 0
M  V30 2538 C 230.568 -1.44773 -5.14728 0
M  V30 2539 C 231.868 -3.32535 -4.02763 0
M  V30 2540 H 233.562 -2.11237 -2.12177 0
M  V30 2541 H 231.108 -1.01699 -1.01948 0
M  V30 2542 H 233.061 -0.755165 -4.14578 0
M  V30 2543 H 231.785 0.120236 -3.26379 0
M  V30 2544 H 230.444 -2.00346 -3.07013 0
M  V30 2545 H 230.092 -0.462995 -5.00865 0
M  V30 2546 H 229.792 -2.15865 -5.46513 0
M  V30 2547 H 231.316 -1.36334 -5.95185 0
M  V30 2548 H 232.73 -3.26626 -4.71156 0
M  V30 2549 H 231.127 -4.01607 -4.45905 0
M  V30 2550 H 232.197 -3.75326 -3.07016 0
M  V30 2551 N 233.54 1.10788 -1.12088 0
M  V30 2552 C 234.789 1.82036 -0.868659 0
M  V30 2553 C 235.102 1.85929 0.607426 0
M  V30 2554 O 236.308 2.53346 0.97613 0
M  V30 2555 C 234.764 3.26951 -1.50435 0
M  V30 2556 C 234.372 3.31367 -3.01496 0
M  V30 2557 C 236.116 4.03053 -1.33225 0
M  V30 2558 C 234.023 4.7072 -3.58017 0
M  V30 2559 H 232.953 0.682108 -0.321318 0
M  V30 2560 H 235.604 1.24618 -1.34694 0
M  V30 2561 H 233.986 3.84343 -0.953735 0
M  V30 2562 H 235.16 2.83819 -3.6302 0
M  V30 2563 H 233.475 2.6875 -3.18061 0
M  V30 2564 H 236.072 5.05981 -1.72878 0
M  V30 2565 H 236.415 4.15387 -0.275529 0
M  V30 2566 H 236.948 3.52066 -1.85188 0
M  V30 2567 H 233.687 4.63585 -4.63432 0
M  V30 2568 H 233.207 5.1865 -3.01268 0
M  V30 2569 H 234.886 5.39685 -3.56859 0
M  V30 2570 N 235.018 0.912232 1.28515 0
M  V30 2571 C 235.966 0.389597 2.29314 0
M  V30 2572 C 236.96 -0.517915 1.61289 0
M  V30 2573 O 238.166 -0.399328 1.75515 0
M  V30 2574 H 234.541 0.107386 0.744293 0
M  V30 2575 H 236.512 1.25286 2.70825 0
M  V30 2576 C 235.261 -0.356496 3.45868 0
M  V30 2577 H 234.584 0.332608 3.98414 0
M  V30 2578 H 236.024 -0.686851 4.184 0
M  V30 2579 C 234.483 -1.56383 2.98406 0
M  V30 2580 O 235.013 -2.66294 3.00749 0
M  V30 2581 N 233.219 -1.41029 2.54085 0
M  V30 2582 H 232.766 -0.516089 2.52377 0
M  V30 2583 H 232.724 -2.21939 2.22689 0
M  V30 2584 N 236.496 -1.42363 0.676048 0
M  V30 2585 C 237.443 -2.308 -0.00150904 0
M  V30 2586 C 238.413 -1.46032 -0.791444 0
M  V30 2587 O 239.598 -1.74861 -0.76344 0
M  V30 2588 C 236.738 -3.31883 -0.945919 0
M  V30 2589 C 235.851 -4.31741 -0.149675 0
M  V30 2590 C 234.986 -5.19898 -1.08995 0
M  V30 2591 C 234.025 -6.11434 -0.285465 0
M  V30 2592 N 233.162 -6.92138 -1.17851 0
M  V30 2593 H 238.002 -2.88187 0.758455 0
M  V30 2594 H 235.539 -1.41952 0.38576 0
M  V30 2595 H 237.497 -3.89019 -1.50731 0
M  V30 2596 H 236.127 -2.76093 -1.6725 0
M  V30 2597 H 235.179 -3.76713 0.528359 0
M  V30 2598 H 236.491 -4.96534 0.474866 0
M  V30 2599 H 235.645 -5.81772 -1.72123 0
M  V30 2600 H 234.384 -4.55284 -1.74837 0
M  V30 2601 H 233.389 -5.48627 0.359018 0
M  V30 2602 H 234.614 -6.78097 0.368883 0
M  V30 2603 H 232.56 -6.30152 -1.82332 0
M  V30 2604 H 232.477 -7.53542 -0.609082 0
M  V30 2605 H 233.745 -7.58499 -1.79722 0
M  V30 2606 N 237.974 -0.419461 -1.51915 0
M  V30 2607 C 239.385 0.0477853 -1.86639 0
M  V30 2608 C 239.736 1.43531 -1.33766 0
M  V30 2609 O 238.861 2.05401 -0.68113 0
M  V30 2610 C 239.456 0.0934885 -3.38671 0
M  V30 2611 C 238.015 0.505097 -3.72996 0
M  V30 2612 C 237.162 -0.313792 -2.75519 0
M  V30 2613 H 240.113 -0.636088 -1.45395 0
M  V30 2614 H 240.134 0.906667 -3.6954 0
M  V30 2615 H 239.646 -0.916501 -3.77123 0
M  V30 2616 H 237.747 1.52135 -3.40126 0
M  V30 2617 H 237.86 0.242309 -4.78487 0
M  V30 2618 H 236.224 0.225363 -2.53701 0
M  V30 2619 H 237.007 -1.32232 -3.16812 0
M  V30 2620 N 239.452 1.56882 -0.150215 0
M  V30 2621 C 240.863 1.82995 0.370076 0
M  V30 2622 C 241.214 1.06907 1.64515 0
M  V30 2623 O 240.339 0.315369 2.1409 0
M  V30 2624 C 240.934 3.31942 0.678208 0
M  V30 2625 C 239.493 3.58625 1.14301 0
M  V30 2626 C 238.64 2.76792 0.167778 0
M  V30 2627 H 241.591 1.54209 -0.374858 0
M  V30 2628 H 241.612 3.48272 1.53254 0
M  V30 2629 H 241.124 3.87294 -0.249991 0
M  V30 2630 H 239.225 3.08664 2.08704 0
M  V30 2631 H 239.338 4.67073 1.06676 0
M  V30 2632 H 237.702 2.45972 0.661037 0
M  V30 2633 H 238.485 3.34916 -0.754069 0
M  V30 2634 N 240.93 -0.123565 1.57115 0
M  V30 2635 C 242.207 -0.862196 1.75572 0
M  V30 2636 C 242.587 -1.98279 0.724475 0
M  V30 2637 O 241.935 -2.27102 -0.252407 0
M  V30 2638 C 242.145 -1.38309 3.20424 0
M  V30 2639 C 243.493 -1.83724 3.82793 0
M  V30 2640 O 244.517 -1.47999 3.23998 0
M  V30 2641 O 243.376 -2.49685 4.86127 0
M  V30 2642 H 240.47 -0.409113 0.718718 0
M  V30 2643 H 243.016 -0.107661 1.69358 0
M  V30 2644 H 241.788 -0.578889 3.86994 0
M  V30 2645 H 241.411 -2.20046 3.31158 0
M  V30 2646 N 242.408 -1.52605 -0.393616 0
M  V30 2647 C 243.633 -1.71592 -1.16495 0
M  V30 2648 C 244.058 -0.43133 -1.83088 0
M  V30 2649 O 243.416 0.612523 -1.7064 0
M  V30 2650 C 243.464 -2.86318 -2.19213 0
M  V30 2651 O 242.568 -2.52969 -3.257 0
M  V30 2652 H 241.909 -0.570734 -0.33935 0
M  V30 2653 H 244.439 -1.99377 -0.459324 0
M  V30 2654 H 244.449 -3.1168 -2.63286 0
M  V30 2655 H 243.124 -3.79511 -1.7013 0
M  V30 2656 H 241.701 -2.38332 -2.86797 0
M  V30 2657 N 243.887 0.651787 -1.4349 0
M  V30 2658 C 245.135 1.40888 -1.44897 0
M  V30 2659 C 245.456 1.94856 -0.0749086 0
M  V30 2660 O 244.726 1.74518 0.889956 0
M  V30 2661 H 243.306 0.522887 -0.533478 0
M  V30 2662 H 245.968 0.768609 -1.79104 0
M  V30 2663 H 245.064 2.25052 -2.16236 0
M  V30 2664 N 245.365 1.30045 0.890287 0
M  V30 2665 C 246.312 1.15976 1.99545 0
M  V30 2666 C 247.282 0.0506202 1.66023 0
M  V30 2667 O 248.467 0.219847 1.89529 0
M  V30 2668 C 245.607 0.852054 3.34416 0
M  V30 2669 C 244.72 2.04255 3.80662 0
M  V30 2670 C 243.855 1.6734 5.04154 0
M  V30 2671 C 242.894 2.82916 5.42794 0
M  V30 2672 N 242.031 2.46333 6.57468 0
M  V30 2673 H 246.871 2.10524 2.10911 0
M  V30 2674 H 244.408 1.04749 1.03276 0
M  V30 2675 H 246.366 0.654296 4.12037 0
M  V30 2676 H 244.996 -0.0565502 3.2275 0
M  V30 2677 H 244.048 2.35172 2.98995 0
M  V30 2678 H 245.36 2.90826 4.05242 0
M  V30 2679 H 244.514 1.43908 5.89386 0
M  V30 2680 H 243.253 0.779308 4.81433 0
M  V30 2681 H 242.258 3.0702 4.56091 0
M  V30 2682 H 243.483 3.73004 5.6749 0
M  V30 2683 H 241.429 1.59423 6.36334 0
M  V30 2684 H 241.346 3.26436 6.81891 0
M  V30 2685 H 242.614 2.26244 7.45945 0
M  V30 2686 N 246.843 -1.10192 1.12674 0
M  V30 2687 C 247.79 -2.16606 0.796906 0
M  V30 2688 C 248.76 -1.64394 -0.237476 0
M  V30 2689 O 249.945 -1.90474 -0.111484 0
M  V30 2690 C 247.085 -3.44116 0.26043 0
M  V30 2691 C 246.198 -4.10268 1.35293 0
M  V30 2692 C 245.333 -5.25507 0.775621 0
M  V30 2693 C 244.372 -5.83567 1.84706 0
M  V30 2694 N 243.509 -6.90179 1.28829 0
M  V30 2695 H 248.349 -2.44163 1.70846 0
M  V30 2696 H 245.886 -1.19846 0.85295 0
M  V30 2697 H 247.844 -4.17143 -0.0686814 0
M  V30 2698 H 246.474 -3.16901 -0.614274 0
M  V30 2699 H 245.526 -3.35184 1.79877 0
M  V30 2700 H 246.838 -4.4946 2.16303 0
M  V30 2701 H 245.992 -6.05398 0.397327 0
M  V30 2702 H 244.731 -4.87656 -0.0656581 0
M  V30 2703 H 243.736 -5.02344 2.23452 0
M  V30 2704 H 244.961 -6.23482 2.69161 0
M  V30 2705 H 242.907 -6.54322 0.468881 0
M  V30 2706 H 242.824 -7.28097 2.03497 0
M  V30 2707 H 244.092 -7.73844 0.937311 0
M  V30 2708 N 248.321 -0.919034 -1.28029 0
M  V30 2709 C 249.549 -0.570971 -1.98866 0
M  V30 2710 C 249.964 0.848996 -1.68634 0
M  V30 2711 O 249.321 1.56307 -0.942036 0
M  V30 2712 C 249.372 -0.776876 -3.53054 0
M  V30 2713 O 249.093 -2.14097 -3.82222 0
M  V30 2714 C 250.594 -0.436356 -4.41147 0
M  V30 2715 H 247.814 -0.217175 -0.634883 0
M  V30 2716 H 250.358 -1.23368 -1.63097 0
M  V30 2717 H 248.513 -0.161085 -3.87065 0
M  V30 2718 H 248.927 -2.18455 -4.76841 0
M  V30 2719 H 250.401 -0.63117 -5.4838 0
M  V30 2720 H 250.878 0.627686 -4.34692 0
M  V30 2721 H 251.484 -1.02991 -4.12641 0
M  V30 2722 N 249.799 1.42003 -0.683588 0
M  V30 2723 C 251.024 2.06265 -0.216647 0
M  V30 2724 C 251.449 1.51059 1.12083 0
M  V30 2725 O 250.807 0.632638 1.69904 0
M  V30 2726 C 250.855 3.60191 -0.171759 0
M  V30 2727 O 249.959 4.03396 0.857069 0
M  V30 2728 H 249.3 0.65502 -0.108834 0
M  V30 2729 H 251.83 1.81982 -0.935077 0
M  V30 2730 H 251.84 4.08 0.0014303 0
M  V30 2731 H 250.515 3.99743 -1.14796 0
M  V30 2732 H 249.092 3.67117 0.654208 0
M  V30 2733 N 251.277 0.427512 1.51691 0
M  V30 2734 C 252.693 0.0792977 1.59403 0
M  V30 2735 C 252.893 -1.41035 1.43914 0
M  V30 2736 O 251.949 -2.17922 1.27539 0
M  V30 2737 C 253.262 0.590636 2.94842 0
M  V30 2738 C 254.81 0.550215 3.08126 0
M  V30 2739 C 255.285 1.03836 4.46074 0
M  V30 2740 N 256.776 0.995943 4.52366 0
M  V30 2741 C 257.511 1.34463 5.57411 0
M  V30 2742 N 257.007 1.76569 6.69922 0
M  V30 2743 N 258.8 1.26343 5.47717 0
M  V30 2744 H 250.951 1.39687 1.60004 0
M  V30 2745 H 253.214 0.575003 0.753708 0
M  V30 2746 H 252.92 1.63251 3.11516 0
M  V30 2747 H 252.794 0.0102061 3.77199 0
M  V30 2748 H 255.181 -0.482654 2.91126 0
M  V30 2749 H 255.262 1.16693 2.27632 0
M  V30 2750 H 254.906 2.06965 4.63819 0
M  V30 2751 H 254.836 0.398286 5.25092 0
M  V30 2752 H 257.327 0.68661 3.7161 0
M  V30 2753 H 257.64 2.01438 7.46085 0
M  V30 2754 H 255.985 1.80488 6.71155 0
M  V30 2755 H 259.176 0.933209 4.58703 0
M  V30 2756 H 259.349 1.53846 6.29472 0
M  V30 2757 N 252.755 -1.56801 0.158532 0
M  V30 2758 C 253.705 -2.13923 -0.788738 0
M  V30 2759 C 254.689 -1.07006 -1.2016 0
M  V30 2760 O 255.881 -1.33159 -1.1661 0
M  V30 2761 C 253.01 -2.77348 -2.02319 0
M  V30 2762 C 252.096 -3.91404 -1.6329 0
M  V30 2763 N 252.487 -4.9677 -0.951463 0
M  V30 2764 C 250.785 -4.02326 -1.92482 0
M  V30 2765 C 251.486 -5.76698 -0.761221 0
M  V30 2766 N 250.462 -5.27859 -1.29869 0
M  V30 2767 H 254.264 -2.92757 -0.258995 0
M  V30 2768 H 251.778 -1.62344 -0.0426055 0
M  V30 2769 H 253.775 -3.16639 -2.71192 0
M  V30 2770 H 252.435 -1.99991 -2.558 0
M  V30 2771 H 253.446 -5.14284 -0.610928 0
M  V30 2772 H 250.123 -3.36059 -2.47732 0
M  V30 2773 H 251.513 -6.71529 -0.223284 0
M  V30 2774 N 254.233 0.115231 -1.57178 0
M  V30 2775 C 255.644 0.67197 -1.74188 0
M  V30 2776 C 255.995 1.80125 -0.777777 0
M  V30 2777 O 255.12 2.16346 0.0484376 0
M  V30 2778 C 255.715 1.22573 -3.1585 0
M  V30 2779 C 254.274 1.72872 -3.34353 0
M  V30 2780 C 253.421 0.629972 -2.70049 0
M  V30 2781 H 256.372 -0.110712 -1.58313 0
M  V30 2782 H 256.393 2.09535 -3.17609 0
M  V30 2783 H 255.905 0.403598 -3.85996 0
M  V30 2784 H 254.006 2.5755 -2.69256 0
M  V30 2785 H 254.119 1.83557 -4.42542 0
M  V30 2786 H 252.483 1.0645 -2.31388 0
M  V30 2787 H 253.266 -0.181241 -3.42821 0
M  V30 2788 N 255.711 1.52812 0.385517 0
M  V30 2789 C 256.641 1.80808 1.47752 0
M  V30 2790 C 257.622 0.660318 1.5676 0
M  V30 2791 O 258.807 0.908246 1.71652 0
M  V30 2792 C 255.937 1.98008 2.85324 0
M  V30 2793 C 254.891 3.13709 2.91154 0
M  V30 2794 C 254.217 3.16169 4.31209 0
M  V30 2795 C 255.517 4.52709 2.60483 0
M  V30 2796 H 257.211 2.72253 1.24573 0
M  V30 2797 H 254.757 1.31003 0.597839 0
M  V30 2798 H 256.71 2.16176 3.61726 0
M  V30 2799 H 255.434 1.03255 3.09848 0
M  V30 2800 H 254.093 2.95329 2.17201 0
M  V30 2801 H 253.741 2.19092 4.52778 0
M  V30 2802 H 253.441 3.93894 4.36029 0
M  V30 2803 H 254.965 3.36496 5.09512 0
M  V30 2804 H 256.379 4.71173 3.26602 0
M  V30 2805 H 254.776 5.32528 2.76648 0
M  V30 2806 H 255.846 4.59186 1.55809 0
M  V30 2807 N 257.189 -0.644168 1.43834 0
M  V30 2808 C 258.139 -1.7501 1.46135 0
M  V30 2809 C 259.123 -1.57507 0.328685 0
M  V30 2810 O 260.315 -1.67465 0.5731 0
M  V30 2811 C 257.444 -3.13641 1.39585 0
M  V30 2812 C 256.53 -3.3666 2.57916 0
M  V30 2813 N 256.921 -3.30107 3.83227 0
M  V30 2814 C 255.219 -3.67411 2.52834 0
M  V30 2815 C 255.92 -3.53456 4.61999 0
M  V30 2816 N 254.896 -3.75705 3.9287 0
M  V30 2817 H 258.698 -1.68382 2.40883 0
M  V30 2818 H 256.212 -0.846169 1.38614 0
M  V30 2819 H 258.209 -3.92933 1.39317 0
M  V30 2820 H 256.869 -3.21444 0.45865 0
M  V30 2821 H 257.88 -3.09316 4.15384 0
M  V30 2822 H 254.557 -3.82275 1.67845 0
M  V30 2823 H 255.947 -3.54093 5.71024 0
M  V30 2824 N 258.668 -1.30515 -0.883378 0
M  V30 2825 C 259.6 -1.12846 -1.99496 0
M  V30 2826 C 260.613 -0.0712571 -1.62644 0
M  V30 2827 O 261.802 -0.317432 -1.75655 0
M  V30 2828 C 258.902 -0.699123 -3.3161 0
M  V30 2829 C 258.075 -1.83842 -3.96889 0
M  V30 2830 C 257.134 -1.39737 -5.07307 0
M  V30 2831 O 256.16 -2.10485 -5.28852 0
M  V30 2832 N 257.362 -0.277279 -5.79837 0
M  V30 2833 H 260.127 -2.08585 -2.15203 0
M  V30 2834 H 257.688 -1.22672 -1.05656 0
M  V30 2835 H 259.68 -0.387044 -4.02845 0
M  V30 2836 H 258.25 0.166276 -3.12157 0
M  V30 2837 H 257.47 -2.31853 -3.18807 0
M  V30 2838 H 258.758 -2.60187 -4.37241 0
M  V30 2839 H 258.156 0.3122 -5.64838 0
M  V30 2840 H 256.713 -0.0246623 -6.51795 0
M  V30 2841 N 260.146 1.09593 -1.13257 0
M  V30 2842 C 261.423 1.78293 -0.804432 0
M  V30 2843 C 261.803 1.99004 0.70431 0
M  V30 2844 O 261.151 1.59007 1.641 0
M  V30 2845 C 261.361 3.10707 -1.5894 0
M  V30 2846 C 262.709 3.85443 -1.78099 0
M  V30 2847 O 263.733 3.20454 -1.55525 0
M  V30 2848 O 262.592 5.02108 -2.15753 0
M  V30 2849 H 259.686 0.773156 -0.293528 0
M  V30 2850 H 262.232 1.16164 -1.23709 0
M  V30 2851 H 261.004 2.91106 -2.61482 0
M  V30 2852 H 260.627 3.80558 -1.15157 0
M  V30 2853 N 261.624 0.925811 1.2754 0
M  V30 2854 C 262.554 0.440748 2.29303 0
M  V30 2855 C 263.535 -0.497971 1.62648 0
M  V30 2856 O 264.72 -0.403126 1.8997 0
M  V30 2857 C 261.85 -0.309048 3.45922 0
M  V30 2858 C 260.804 0.54166 4.24559 0
M  V30 2859 C 260.13 -0.337191 5.33636 0
M  V30 2860 C 261.43 1.80516 4.90114 0
M  V30 2861 H 263.124 1.29121 2.70126 0
M  V30 2862 H 260.67 0.622323 1.29858 0
M  V30 2863 H 262.623 -0.659315 4.1621 0
M  V30 2864 H 261.347 -1.19352 3.04011 0
M  V30 2865 H 260.006 0.874609 3.56014 0
M  V30 2866 H 259.654 -1.22056 4.87966 0
M  V30 2867 H 259.354 0.228497 5.87156 0
M  V30 2868 H 260.878 -0.683072 6.06767 0
M  V30 2869 H 262.292 1.52307 5.52698 0
M  V30 2870 H 260.689 2.3142 5.53683 0
M  V30 2871 H 261.759 2.52581 4.13921 0
M  V30 2872 N 263.102 -1.41638 0.69111 0
M  V30 2873 C 264.052 -2.28 -0.000107832 0
M  V30 2874 C 265.036 -1.41964 -0.757304 0
M  V30 2875 O 266.228 -1.65274 -0.633532 0
M  V30 2876 C 263.357 -3.30209 -0.938983 0
M  V30 2877 C 262.443 -4.23725 -0.17827 0
M  V30 2878 N 262.834 -4.99017 0.825563 0
M  V30 2879 C 261.132 -4.44071 -0.414392 0
M  V30 2880 C 261.833 -5.67431 1.28052 0
M  V30 2881 N 260.809 -5.40197 0.607304 0
M  V30 2882 H 264.611 -2.83644 0.769617 0
M  V30 2883 H 262.125 -1.53797 0.521562 0
M  V30 2884 H 264.122 -3.90898 -1.44929 0
M  V30 2885 H 262.782 -2.76126 -1.70836 0
M  V30 2886 H 263.793 -5.03671 1.20566 0
M  V30 2887 H 260.47 -4.01004 -1.162 0
M  V30 2888 H 261.86 -6.37801 2.11327 0
M  V30 2889 N 264.58 -0.43555 -1.51462 0
M  V30 2890 C 265.81 0.130053 -2.0619 0
M  V30 2891 C 266.218 1.37164 -1.30317 0
M  V30 2892 O 265.561 1.80225 -0.355598 0
M  V30 2893 C 265.623 0.519418 -3.55728 0
M  V30 2894 C 265.287 -0.615119 -4.52841 0
M  V30 2895 C 266.284 -1.48671 -4.9819 0
M  V30 2896 C 263.969 -0.795341 -4.95963 0
M  V30 2897 C 265.963 -2.52324 -5.8533 0
M  V30 2898 C 263.65 -1.83514 -5.82894 0
M  V30 2899 C 264.648 -2.69748 -6.27475 0
M  V30 2900 O 264.336 -3.71944 -7.1268 0
M  V30 2901 H 264.068 0.0121612 -0.675891 0
M  V30 2902 H 266.622 -0.6129 -1.96043 0
M  V30 2903 H 264.852 1.31505 -3.63653 0
M  V30 2904 H 266.541 1.01597 -3.92979 0
M  V30 2905 H 267.307 -1.359 -4.65571 0
M  V30 2906 H 263.186 -0.133713 -4.60806 0
M  V30 2907 H 266.73 -3.19665 -6.20048 0
M  V30 2908 H 262.627 -1.96306 -6.14926 0
M  V30 2909 H 263.395 -3.68503 -7.30854 0
M  V30 2910 N 266.058 1.56714 -0.166846 0
M  V30 2911 C 267.305 1.96747 0.479252 0
M  V30 2912 C 267.633 1.05263 1.63554 0
M  V30 2913 O 266.888 0.0858098 1.95512 0
M  V30 2914 C 267.187 3.42889 1.00806 0
M  V30 2915 C 266.853 4.50889 -0.0318574 0
M  V30 2916 C 265.515 4.8015 -0.317675 0
M  V30 2917 C 267.867 5.15949 -0.737956 0
M  V30 2918 C 265.195 5.71772 -1.31506 0
M  V30 2919 C 267.547 6.08647 -1.72429 0
M  V30 2920 C 266.211 6.36277 -2.0176 0
M  V30 2921 H 265.481 0.719949 0.175371 0
M  V30 2922 H 268.128 1.89756 -0.257864 0
M  V30 2923 H 266.433 3.4681 1.82291 0
M  V30 2924 H 268.13 3.71203 1.51689 0
M  V30 2925 H 264.72 4.28128 0.201088 0
M  V30 2926 H 268.904 4.93458 -0.530351 0
M  V30 2927 H 264.16 5.91465 -1.54853 0
M  V30 2928 H 268.334 6.58129 -2.27682 0
M  V30 2929 H 265.961 7.07075 -2.79194 0
M  V30 2930 N 267.536 -0.106894 1.57237 0
M  V30 2931 C 268.947 -0.662723 1.74542 0
M  V30 2932 C 269.298 -1.7971 0.787319 0
M  V30 2933 O 268.423 -2.16368 -0.0369636 0
M  V30 2934 C 269.018 -1.20896 3.16496 0
M  V30 2935 C 267.577 -1.71096 3.35266 0
M  V30 2936 C 266.724 -0.615642 2.7038 0
M  V30 2937 H 269.675 0.119106 1.58252 0
M  V30 2938 H 269.696 -2.07847 3.18716 0
M  V30 2939 H 269.208 -0.383122 3.86204 0
M  V30 2940 H 267.309 -2.56119 2.70618 0
M  V30 2941 H 267.422 -1.81208 4.43509 0
M  V30 2942 H 265.786 -1.05222 2.31949 0
M  V30 2943 H 266.569 0.199419 3.4272 0
M  V30 2944 N 269.014 -1.53014 -0.377408 0
M  V30 2945 C 270.261 -1.68623 -1.12128 0
M  V30 2946 C 270.589 -0.431997 -1.89642 0
M  V30 2947 O 269.844 0.585855 -1.86725 0
M  V30 2948 C 270.143 -2.87982 -2.11663 0
M  V30 2949 C 269.809 -4.24964 -1.50719 0
M  V30 2950 C 268.471 -4.62217 -1.33825 0
M  V30 2951 C 270.823 -5.10199 -1.06519 0
M  V30 2952 C 268.151 -5.82352 -0.712963 0
M  V30 2953 C 270.503 -6.30969 -0.453955 0
M  V30 2954 C 269.167 -6.66944 -0.272411 0
M  V30 2955 H 268.437 -0.617034 -0.410305 0
M  V30 2956 H 271.084 -1.8718 -0.404484 0
M  V30 2957 H 269.389 -2.63889 -2.89603 0
M  V30 2958 H 271.086 -2.97253 -2.6915 0
M  V30 2959 H 267.676 -3.95626 -1.64858 0
M  V30 2960 H 271.86 -4.81978 -1.18368 0
M  V30 2961 H 267.116 -6.08824 -0.560611 0
M  V30 2962 H 271.29 -6.96324 -0.103217 0
M  V30 2963 H 268.917 -7.59898 0.214181 0
M  V30 2964 N 270.492 0.636531 -1.44174 0
M  V30 2965 C 271.908 0.954104 -1.27941 0
M  V30 2966 C 272.108 2.0039 -0.211248 0
M  V30 2967 O 271.164 2.49236 0.404695 0
M  V30 2968 C 272.477 1.4225 -2.64925 0
M  V30 2969 C 274.025 1.53827 -2.72592 0
M  V30 2970 C 274.5 2.04053 -4.10032 0
M  V30 2971 N 275.991 2.11331 -4.12182 0
M  V30 2972 C 276.726 2.51352 -5.15374 0
M  V30 2973 N 276.222 2.90549 -6.2893 0
M  V30 2974 N 278.015 2.51438 -5.02728 0
M  V30 2975 H 270.166 -0.0578386 -2.12321 0
M  V30 2976 H 272.429 0.0367406 -0.947288 0
M  V30 2977 H 272.135 0.725466 -3.44136 0
M  V30 2978 H 272.009 2.39451 -2.9145 0
M  V30 2979 H 274.396 2.22628 -1.93702 0
M  V30 2980 H 274.477 0.550154 -2.49814 0
M  V30 2981 H 274.121 1.35848 -4.89395 0
M  V30 2982 H 274.051 3.03726 -4.30184 0
M  V30 2983 H 276.542 1.83745 -3.30222 0
M  V30 2984 H 276.855 3.19884 -7.03487 0
M  V30 2985 H 275.2 2.88313 -6.32377 0
M  V30 2986 H 278.391 2.20203 -4.13072 0
M  V30 2987 H 278.564 2.82304 -5.83274 0
M  V30 2988 N 271.97 1.30982 0.876444 0
M  V30 2989 C 273.381 1.18277 1.44456 0
M  V30 2990 C 273.732 -0.213265 1.95037 0
M  V30 2991 O 272.857 -1.11057 1.85729 0
M  V30 2992 C 273.452 2.1411 2.62569 0
M  V30 2993 C 272.011 2.05358 3.15444 0
M  V30 2994 C 271.158 2.03706 1.88146 0
M  V30 2995 H 274.109 1.43127 0.685584 0
M  V30 2996 H 274.13 1.72692 3.39054 0
M  V30 2997 H 273.642 3.15706 2.25724 0
M  V30 2998 H 271.743 1.06934 3.56926 0
M  V30 2999 H 271.856 2.94156 3.78166 0
M  V30 3000 H 270.22 1.48629 2.06837 0
M  V30 3001 H 271.003 3.07047 1.53547 0
M  V30 3002 N 273.449 -1.08991 1.13837 0
M  V30 3003 C 274.674 -1.85551 0.926585 0
M  V30 3004 C 275.099 -1.80782 -0.519566 0
M  V30 3005 O 274.457 -1.18855 -1.36906 0
M  V30 3006 C 274.505 -3.31266 1.42462 0
M  V30 3007 O 273.609 -4.07822 0.612789 0
M  V30 3008 H 272.95 -0.575192 0.331738 0
M  V30 3009 H 275.48 -1.37604 1.51414 0
M  V30 3010 H 275.49 -3.82112 1.43019 0
M  V30 3011 H 274.165 -3.34052 2.47754 0
M  V30 3012 H 272.742 -3.66731 0.675463 0
M  V30 3013 N 274.927 -0.932562 -1.27047 0
M  V30 3014 C 276.204 -0.49377 -1.89265 0
M  V30 3015 C 276.584 1.02833 -1.8436 0
M  V30 3016 O 275.932 1.88461 -1.29209 0
M  V30 3017 C 276.142 -1.04536 -3.32976 0
M  V30 3018 C 277.49 -1.10879 -4.09867 0
M  V30 3019 O 278.514 -0.995327 -3.42011 0
M  V30 3020 O 277.373 -1.28417 -5.31198 0
M  V30 3021 H 274.467 -0.159596 -0.811454 0
M  V30 3022 H 277.013 -1.02457 -1.3528 0
M  V30 3023 H 275.785 -2.08913 -3.30864 0
M  V30 3024 H 275.408 -0.496494 -3.94488 0
M  V30 3025 N 276.405 1.4127 -0.698611 0
M  V30 3026 C 277.335 2.33447 -0.049629 0
M  V30 3027 C 278.316 1.51982 0.763898 0
M  V30 3028 O 279.501 1.80509 0.716257 0
M  V30 3029 C 276.631 3.35828 0.885267 0
M  V30 3030 C 275.585 4.27627 0.178613 0
M  V30 3031 C 274.911 5.20406 1.22807 0
M  V30 3032 C 276.211 5.13459 -0.956933 0
M  V30 3033 H 277.905 2.87966 -0.81951 0
M  V30 3034 H 275.451 1.38461 -0.395538 0
M  V30 3035 H 277.404 3.9924 1.34854 0
M  V30 3036 H 276.128 2.79666 1.68685 0
M  V30 3037 H 274.787 3.65643 -0.26466 0
M  V30 3038 H 274.435 4.60558 2.02226 0
M  V30 3039 H 274.135 5.82661 0.760239 0
M  V30 3040 H 275.659 5.86695 1.69179 0
M  V30 3041 H 277.073 5.70421 -0.573805 0
M  V30 3042 H 275.47 5.8467 -1.35205 0
M  V30 3043 H 276.54 4.50443 -1.79524 0
M  V30 3044 N 277.883 0.443576 1.51229 0
M  V30 3045 C 279.132 -0.122332 2.01329 0
M  V30 3046 C 279.445 -1.43237 1.33201 0
M  V30 3047 O 280.651 -2.0816 1.74304 0
M  V30 3048 C 279.107 -0.268551 3.58897 0
M  V30 3049 C 278.715 1.03142 4.35965 0
M  V30 3050 C 280.459 -0.787894 4.17124 0
M  V30 3051 C 278.366 0.850504 5.85252 0
M  V30 3052 H 277.296 -0.0494929 0.752374 0
M  V30 3053 H 279.947 0.574289 1.74282 0
M  V30 3054 H 278.329 -1.02832 3.82415 0
M  V30 3055 H 279.503 1.80001 4.24189 0
M  V30 3056 H 277.818 1.47977 3.89219 0
M  V30 3057 H 280.415 -0.939841 5.26375 0
M  V30 3058 H 280.758 -1.77201 3.76703 0
M  V30 3059 H 281.291 -0.0862669 3.97706 0
M  V30 3060 H 278.03 1.80718 6.30096 0
M  V30 3061 H 277.55 0.121825 5.99676 0
M  V30 3062 H 279.229 0.506163 6.45017 0
M  V30 3063 N 279.361 -1.56624 0.175154 0
M  V30 3064 C 280.607 -1.9729 -0.469506 0
M  V30 3065 C 280.94 -1.06128 -1.62636 0
M  V30 3066 O 280.215 -0.109183 -1.94193 0
M  V30 3067 C 280.498 -3.47375 -0.948804 0
M  V30 3068 C 280.351 -4.49317 0.208491 0
M  V30 3069 C 281.67 -4.00652 -1.82116 0
M  V30 3070 H 278.789 -0.717317 -0.16919 0
M  V30 3071 H 281.431 -1.88184 0.262062 0
M  V30 3072 H 279.581 -3.55267 -1.57219 0
M  V30 3073 H 281.253 -4.53482 0.845682 0
M  V30 3074 H 279.496 -4.25121 0.863395 0
M  V30 3075 H 280.167 -5.51741 -0.169059 0
M  V30 3076 H 282.643 -3.95416 -1.2956 0
M  V30 3077 H 281.519 -5.06075 -2.12554 0
M  V30 3078 H 281.78 -3.44699 -2.7683 0
M  V30 3079 N 280.839 0.0985539 -1.57292 0
M  V30 3080 C 282.079 0.808332 -1.87737 0
M  V30 3081 C 282.443 1.7607 -0.76572 0
M  V30 3082 O 283.644 2.51358 -0.952499 0
M  V30 3083 C 281.915 1.52093 -3.23423 0
M  V30 3084 S 283.474 2.26947 -3.75554 0
M  V30 3085 H 280.292 0.269377 -0.657995 0
M  V30 3086 H 282.894 0.0656269 -1.9539 0
M  V30 3087 H 281.598 0.81363 -4.02254 0
M  V30 3088 H 281.129 2.30361 -3.189 0
M  V30 3089 H 283.144 3.53027 -3.48692 0
M  V30 3090 N 282.317 1.53212 0.369288 0
M  V30 3091 C 283.28 1.7872 1.43498 0
M  V30 3092 C 284.28 0.657554 1.46741 0
M  V30 3093 O 285.47 0.925736 1.47566 0
M  V30 3094 C 282.602 1.90591 2.82645 0
M  V30 3095 H 283.795 2.73894 1.22156 0
M  V30 3096 H 281.348 1.44233 0.602203 0
M  V30 3097 H 282.083 0.974709 3.09306 0
M  V30 3098 H 281.868 2.72751 2.8169 0
M  V30 3099 H 283.358 2.11931 3.59826 0
M  V30 3100 N 283.795 -0.628877 1.44509 0
M  V30 3101 C 285.041 -1.38863 1.48623 0
M  V30 3102 C 285.396 -1.92038 0.117933 0
M  V30 3103 O 284.689 -1.70853 -0.86716 0
M  V30 3104 C 284.883 -2.56995 2.48371 0
M  V30 3105 C 284.712 -2.15385 3.94765 0
M  V30 3106 C 283.482 -2.02558 4.62924 0
M  V30 3107 C 285.68 -1.74158 4.83915 0
M  V30 3108 N 283.662 -1.54534 5.94132 0
M  V30 3109 C 285.033 -1.37396 6.04584 0
M  V30 3110 C 287.088 -1.61559 4.7096 0
M  V30 3111 C 285.791 -0.892948 7.13736 0
M  V30 3112 C 287.817 -1.14862 5.80139 0
M  V30 3113 C 287.179 -0.790516 6.9995 0
M  V30 3114 H 283.278 -0.502858 0.59888 0
M  V30 3115 H 285.862 -0.72121 1.8085 0
M  V30 3116 H 284.033 -3.21362 2.1813 0
M  V30 3117 H 285.765 -3.23801 2.42766 0
M  V30 3118 H 282.52 -2.23082 4.1777 0
M  V30 3119 H 282.944 -1.32815 6.63844 0
M  V30 3120 H 287.586 -1.87876 3.78764 0
M  V30 3121 H 285.304 -0.617291 8.05739 0
M  V30 3122 H 288.89 -1.05569 5.72142 0
M  V30 3123 H 287.77 -0.434713 7.82994 0
M  V30 3124 N 285.273 -1.31445 -0.869486 0
M  V30 3125 C 286.501 -1.24122 -1.65534 0
M  V30 3126 C 286.916 0.193387 -1.87807 0
M  V30 3127 O 286.273 1.12557 -1.43656 0
M  V30 3128 C 286.324 -1.98229 -3.02304 0
M  V30 3129 O 286.045 -3.3609 -2.81026 0
M  V30 3130 C 287.546 -1.97751 -3.96749 0
M  V30 3131 H 284.766 -0.428868 -0.516055 0
M  V30 3132 H 287.31 -1.73328 -1.08525 0
M  V30 3133 H 285.465 -1.52782 -3.56001 0
M  V30 3134 H 285.879 -3.7383 -3.67902 0
M  V30 3135 H 287.353 -2.54114 -4.90031 0
M  V30 3136 H 287.83 -0.960137 -4.28577 0
M  V30 3137 H 288.436 -2.43079 -3.48988 0
M  V30 3138 N 286.751 1.08385 -1.14413 0
M  V30 3139 C 287.714 2.13486 -0.834048 0
M  V30 3140 C 288.714 1.59988 0.161418 0
M  V30 3141 O 289.904 1.74071 -0.0669575 0
M  V30 3142 C 287.036 3.4003 -0.243354 0
M  V30 3143 H 288.229 2.42425 -1.7655 0
M  V30 3144 H 285.782 1.24101 -0.950189 0
M  V30 3145 H 286.517 3.16726 0.696807 0
M  V30 3146 H 286.302 3.80157 -0.960367 0
M  V30 3147 H 287.792 4.17577 -0.0436242 0
M  V30 3148 N 288.23 0.939286 1.26551 0
M  V30 3149 C 289.163 0.391702 2.24813 0
M  V30 3150 C 290.141 -0.518421 1.54114 0
M  V30 3151 O 291.325 -0.456299 1.82894 0
M  V30 3152 C 288.452 -0.437382 3.35864 0
M  V30 3153 C 287.498 0.410946 4.24516 0
M  V30 3154 S 288.331 1.83372 5.03125 0
M  V30 3155 C 289.487 1.01264 6.17654 0
M  V30 3156 H 289.72 1.22448 2.70913 0
M  V30 3157 H 287.253 0.742269 1.35387 0
M  V30 3158 H 289.211 -0.909837 4.0029 0
M  V30 3159 H 287.872 -1.24482 2.8838 0
M  V30 3160 H 287.065 -0.224191 5.03501 0
M  V30 3161 H 286.667 0.818014 3.64945 0
M  V30 3162 H 288.959 0.254023 6.77024 0
M  V30 3163 H 289.902 1.77589 6.85469 0
M  V30 3164 H 290.31 0.549532 5.61819 0
M  V30 3165 N 289.708 -1.40897 0.706093 0
M  V30 3166 C 290.618 -2.3455 0.0482286 0
M  V30 3167 C 291.634 -1.56796 -0.754396 0
M  V30 3168 O 292.81 -1.89228 -0.689538 0
M  V30 3169 C 289.875 -3.35625 -0.869303 0
M  V30 3170 C 288.936 -4.29261 -0.0576994 0
M  V30 3171 C 288.169 -5.25508 -0.931531 0
M  V30 3172 O 288.392 -5.27472 -2.17092 0
M  V30 3173 O 287.326 -6.00727 -0.375587 0
M  V30 3174 H 291.152 -2.92407 0.820476 0
M  V30 3175 H 288.737 -1.4193 0.4665 0
M  V30 3176 H 290.619 -3.97635 -1.39514 0
M  V30 3177 H 289.294 -2.80196 -1.62086 0
M  V30 3178 H 288.201 -3.70566 0.512988 0
M  V30 3179 H 289.534 -4.87817 0.655426 0
M  V30 3180 N 291.186 -0.45159 -1.50991 0
M  V30 3181 C 292.136 0.370861 -2.24964 0
M  V30 3182 C 293.12 0.978074 -1.2776 0
M  V30 3183 O 294.312 0.893854 -1.52772 0
M  V30 3184 C 291.441 1.46344 -3.10545 0
M  V30 3185 C 290.527 0.864924 -4.15187 0
M  V30 3186 N 290.918 -0.00311354 -5.058 0
M  V30 3187 C 289.216 1.13099 -4.31422 0
M  V30 3188 C 289.917 -0.340772 -5.80701 0
M  V30 3189 N 288.893 0.279203 -5.42883 0
M  V30 3190 H 292.695 -0.298134 -2.92384 0
M  V30 3191 H 290.209 -0.264528 -1.60231 0
M  V30 3192 H 292.206 2.06565 -3.62128 0
M  V30 3193 H 290.866 2.13463 -2.4467 0
M  V30 3194 H 291.877 -0.37058 -5.16572 0
M  V30 3195 H 288.554 1.79861 -3.76771 0
M  V30 3196 H 289.944 -1.048 -6.63677 0
M  V30 3197 N 292.664 1.56529 -0.183458 0
M  V30 3198 C 293.913 1.96419 0.458511 0
M  V30 3199 C 294.226 1.0727 1.63562 0
M  V30 3200 O 295.432 1.36893 2.34462 0
M  V30 3201 C 293.888 3.49298 0.867122 0
M  V30 3202 C 293.496 4.47092 -0.285057 0
M  V30 3203 C 295.24 3.97983 1.47683 0
M  V30 3204 C 293.147 5.91225 0.143862 0
M  V30 3205 H 292.077 0.733394 0.175071 0
M  V30 3206 H 294.728 1.81448 -0.273624 0
M  V30 3207 H 293.11 3.59731 1.65559 0
M  V30 3208 H 294.284 4.48383 -1.0625 0
M  V30 3209 H 292.599 4.08535 -0.805503 0
M  V30 3210 H 295.196 5.03134 1.80999 0
M  V30 3211 H 295.539 3.41618 2.37914 0
M  V30 3212 H 296.072 3.90617 0.752562 0
M  V30 3213 H 292.811 6.5149 -0.723974 0
M  V30 3214 H 292.331 5.93214 0.886413 0
M  V30 3215 H 294.01 6.44362 0.583628 0
M  V30 3216 N 294.142 -0.090211 1.57342 0
M  V30 3217 C 295.367 -0.810082 1.90925 0
M  V30 3218 C 295.792 -1.71248 0.778187 0
M  V30 3219 O 295.15 -1.79278 -0.269991 0
M  V30 3220 C 295.198 -1.59529 3.23393 0
M  V30 3221 O 294.302 -2.70461 3.11327 0
M  V30 3222 H 293.643 -0.222231 0.625707 0
M  V30 3223 H 296.173 -0.0639716 2.045 0
M  V30 3224 H 296.183 -1.97847 3.5682 0
M  V30 3225 H 294.858 -0.933055 4.05299 0
M  V30 3226 H 293.435 -2.35135 2.89423 0
M  V30 3227 N 295.62 -1.53406 -0.361157 0
M  V30 3228 C 297.036 -1.43277 -0.703124 0
M  V30 3229 C 297.236 -0.575384 -1.9311 0
M  V30 3230 O 296.292 -0.0595362 -2.5243 0
M  V30 3231 C 297.605 -2.8653 -0.9122 0
M  V30 3232 C 299.153 -2.96191 -1.01193 0
M  V30 3233 C 299.628 -4.40514 -1.25345 0
M  V30 3234 N 301.119 -4.43962 -1.32105 0
M  V30 3235 C 301.854 -5.52746 -1.5251 0
M  V30 3236 N 301.35 -6.71567 -1.70203 0
M  V30 3237 N 303.143 -5.40331 -1.54916 0
M  V30 3238 H 295.294 -2.07654 0.446475 0
M  V30 3239 H 297.557 -0.937944 0.137715 0
M  V30 3240 H 297.263 -3.51605 -0.0816414 0
M  V30 3241 H 297.137 -3.30441 -1.81903 0
M  V30 3242 H 299.524 -2.31266 -1.83303 0
M  V30 3243 H 299.605 -2.55667 -0.0823929 0
M  V30 3244 H 299.249 -5.06014 -0.437346 0
M  V30 3245 H 299.179 -4.78614 -2.19627 0
M  V30 3246 H 301.67 -3.58332 -1.20028 0
M  V30 3247 H 301.983 -7.50241 -1.85359 0
M  V30 3248 H 300.328 -6.74545 -1.67373 0
M  V30 3249 H 303.519 -4.46465 -1.40663 0
M  V30 3250 H 303.692 -6.25173 -1.70477 0
M  V30 3251 N 297.098 0.621204 -1.44841 0
M  V30 3252 C 298.046 1.75385 -1.52784 0
M  V30 3253 C 299.04 1.64639 -0.398779 0
M  V30 3254 O 300.246 1.70598 -0.574137 0
M  V30 3255 H 296.621 0.579193 -0.479625 0
M  V30 3256 H 298.592 1.6581 -2.48092 0
M  V30 3257 C 297.341 3.13742 -1.4987 0
M  V30 3258 H 296.664 3.22663 -2.36069 0
M  V30 3259 H 298.104 3.92861 -1.59487 0
M  V30 3260 C 296.563 3.36175 -0.220973 0
M  V30 3261 O 297.093 3.95469 0.704782 0
M  V30 3262 N 295.299 2.90348 -0.120963 0
M  V30 3263 H 294.846 2.42278 -0.875162 0
M  V30 3264 H 294.804 3.05732 0.733168 0
M  V30 3265 N 298.576 1.31904 0.862503 0
M  V30 3266 C 299.524 1.20125 1.9918 0
M  V30 3267 C 300.518 0.107824 1.69056 0
M  V30 3268 O 301.724 0.270223 1.7796 0
M  V30 3269 H 298.099 0.372148 0.65346 0
M  V30 3270 H 300.07 2.15652 2.06244 0
M  V30 3271 C 298.819 0.933099 3.34946 0
M  V30 3272 H 298.142 1.76664 3.5865 0
M  V30 3273 H 299.582 0.890892 4.14535 0
M  V30 3274 C 298.041 -0.364172 3.34926 0
M  V30 3275 O 298.571 -1.37858 3.77304 0
M  V30 3276 N 296.777 -0.383362 2.8806 0
M  V30 3277 H 296.324 0.442651 2.53768 0
M  V30 3278 H 296.282 -1.25123 2.8843 0
M  V30 3279 N 300.054 -1.07777 1.14986 0
M  V30 3280 C 301.302 -1.79934 0.920235 0
M  V30 3281 C 301.623 -1.86955 -0.554336 0
M  V30 3282 O 300.893 -1.36731 -1.40291 0
M  V30 3283 H 299.473 -0.666424 0.337473 0
M  V30 3284 H 302.135 -1.3027 1.44968 0
M  V30 3285 H 301.231 -2.82539 1.32583 0
M  V30 3286 N 301.532 -0.945985 -1.26051 0
M  V30 3287 C 302.772 -0.603665 -1.95282 0
M  V30 3288 C 303.136 0.842377 -1.72534 0
M  V30 3289 O 304.337 1.29387 -2.35611 0
M  V30 3290 C 302.608 -0.942292 -3.44754 0
M  V30 3291 S 304.167 -0.711242 -4.32997 0
M  V30 3292 H 300.985 -0.222176 -0.675395 0
M  V30 3293 H 303.587 -1.21832 -1.52896 0
M  V30 3294 H 302.291 -1.99203 -3.58812 0
M  V30 3295 H 301.822 -0.317546 -3.92116 0
M  V30 3296 H 303.837 0.422221 -4.944 0
M  V30 3297 N 303.011 1.40521 -0.713556 0
M  V30 3298 C 303.941 2.33381 -0.0743864 0
M  V30 3299 C 304.922 1.52784 0.747735 0
M  V30 3300 O 306.107 1.81258 0.697071 0
M  V30 3301 C 303.237 3.36748 0.849598 0
M  V30 3302 C 302.191 4.27793 0.133247 0
M  V30 3303 C 301.517 5.21679 1.17281 0
M  V30 3304 C 302.817 5.12415 -1.01134 0
M  V30 3305 H 304.511 2.87081 -0.850007 0
M  V30 3306 H 302.057 1.38034 -0.410201 0
M  V30 3307 H 304.01 4.00648 1.30612 0
M  V30 3308 H 302.734 2.81439 1.65709 0
M  V30 3309 H 301.393 3.65342 -0.303426 0
M  V30 3310 H 301.041 4.62677 1.9733 0
M  V30 3311 H 300.741 5.83435 0.698397 0
M  V30 3312 H 302.265 5.88456 1.62947 0
M  V30 3313 H 303.679 5.69781 -0.634274 0
M  V30 3314 H 302.076 5.83203 -1.41399 0
M  V30 3315 H 303.146 4.48514 -1.84292 0
M  V30 3316 N 304.489 0.459591 1.5075 0
M  V30 3317 C 305.735 -0.0994966 2.02556 0
M  V30 3318 C 306.068 -1.40399 1.3417 0
M  V30 3319 O 305.343 -1.88892 0.463683 0
M  V30 3320 C 305.626 -0.295242 3.58888 0
M  V30 3321 C 305.479 1.02947 4.37861 0
M  V30 3322 C 306.798 -1.05502 4.27267 0
M  V30 3323 H 303.917 -0.034686 0.736183 0
M  V30 3324 H 306.559 0.602938 1.8018 0
M  V30 3325 H 304.709 -0.893563 3.78084 0
M  V30 3326 H 306.381 1.66348 4.30263 0
M  V30 3327 H 304.624 1.62885 4.02058 0
M  V30 3328 H 305.295 0.846281 5.45474 0
M  V30 3329 H 307.771 -0.547993 4.12476 0
M  V30 3330 H 306.647 -1.16077 5.36486 0
M  V30 3331 H 306.908 -2.08875 3.89645 0
M  V30 3332 N 305.967 -1.56429 0.191757 0
M  V30 3333 C 307.213 -1.97777 -0.448554 0
M  V30 3334 C 307.546 -1.07847 -1.61501 0
M  V30 3335 O 306.821 -0.129774 -1.94067 0
M  V30 3336 C 307.104 -3.48362 -0.911906 0
M  V30 3337 C 306.957 -4.4907 0.256136 0
M  V30 3338 C 308.276 -4.02561 -1.77857 0
M  V30 3339 H 305.395 -0.719071 -0.161572 0
M  V30 3340 H 308.037 -1.87896 0.282007 0
M  V30 3341 H 306.187 -3.56914 -1.53442 0
M  V30 3342 H 307.859 -4.5256 0.893733 0
M  V30 3343 H 306.102 -4.24181 0.908436 0
M  V30 3344 H 306.773 -5.51889 -0.11053 0
M  V30 3345 H 309.249 -3.96767 -1.25359 0
M  V30 3346 H 308.125 -5.08301 -2.07174 0
M  V30 3347 H 308.386 -3.47616 -2.73158 0
M  V30 3348 N 307.445 0.0818655 -1.57387 0
M  V30 3349 C 308.375 1.09885 -2.06028 0
M  V30 3350 C 309.356 1.4098 -0.951774 0
M  V30 3351 O 310.541 1.50781 -1.22387 0
M  V30 3352 C 307.671 2.4151 -2.4958 0
M  V30 3353 C 306.625 2.24792 -3.64215 0
M  V30 3354 C 305.951 3.61712 -3.93787 0
M  V30 3355 C 307.251 1.67749 -4.94629 0
M  V30 3356 H 308.945 0.694128 -2.91243 0
M  V30 3357 H 306.491 0.332448 -1.4011 0
M  V30 3358 H 308.444 3.12939 -2.82219 0
M  V30 3359 H 307.168 2.83943 -1.61381 0
M  V30 3360 H 305.827 1.55807 -3.31843 0
M  V30 3361 H 305.475 4.01697 -3.02735 0
M  V30 3362 H 305.175 3.51368 -4.70971 0
M  V30 3363 H 306.699 4.34587 -4.28913 0
M  V30 3364 H 308.113 2.29032 -5.25564 0
M  V30 3365 H 306.51 1.68128 -5.76067 0
M  V30 3366 H 307.58 0.638059 -4.80684 0
M  V30 3367 N 308.923 1.53595 0.353017 0
M  V30 3368 C 310.334 1.61937 0.929153 0
M  V30 3369 C 310.685 0.494686 1.89861 0
M  V30 3370 O 309.81 -0.377017 2.1309 0
M  V30 3371 C 310.405 2.93526 1.69199 0
M  V30 3372 C 308.964 3.04161 2.21727 0
M  V30 3373 C 308.111 2.57322 1.03348 0
M  V30 3374 H 311.062 1.58155 0.131431 0
M  V30 3375 H 311.083 2.82034 2.55416 0
M  V30 3376 H 310.595 3.75362 0.986144 0
M  V30 3377 H 308.696 2.26938 2.95516 0
M  V30 3378 H 308.809 4.09465 2.48748 0
M  V30 3379 H 307.173 2.12499 1.40414 0
M  V30 3380 H 307.956 3.41588 0.342428 0
M  V30 3381 N 310.401 -0.613514 1.45168 0
M  V30 3382 C 311.649 -1.36997 1.48581 0
M  V30 3383 C 311.97 -1.94589 0.126545 0
M  V30 3384 O 311.24 -1.76816 -0.843372 0
M  V30 3385 H 309.82 -0.508558 0.547154 0
M  V30 3386 H 312.482 -0.720853 1.81079 0
M  V30 3387 H 311.578 -2.1924 2.22127 0
M  V30 3388 N 311.879 -1.3236 -0.855495 0
M  V30 3389 C 313.107 -1.2587 -1.64208 0
M  V30 3390 C 313.522 0.173457 -1.88002 0
M  V30 3391 O 312.879 1.11027 -1.44842 0
M  V30 3392 C 312.93 -2.01424 -3.00184 0
M  V30 3393 O 312.651 -3.39051 -2.77445 0
M  V30 3394 C 314.152 -2.01948 -3.94629 0
M  V30 3395 H 311.372 -0.434318 -0.511477 0
M  V30 3396 H 313.916 -1.74469 -1.0668 0
M  V30 3397 H 312.071 -1.56549 -3.5436 0
M  V30 3398 H 312.485 -3.77711 -3.63916 0
M  V30 3399 H 313.959 -2.59297 -4.87308 0
M  V30 3400 H 314.436 -1.00554 -4.27534 0
M  V30 3401 H 315.042 -2.46767 -3.4639 0
M  V30 3402 N 313.357 1.07166 -1.15556 0
M  V30 3403 C 314.307 2.12649 -0.82247 0
M  V30 3404 C 315.291 1.59725 0.194129 0
M  V30 3405 O 316.483 1.76999 -0.00540402 0
M  V30 3406 C 313.612 3.41847 -0.315572 0
M  V30 3407 C 312.698 4.0162 -1.36244 0
M  V30 3408 N 313.089 4.35625 -2.5703 0
M  V30 3409 C 311.387 4.29114 -1.21562 0
M  V30 3410 C 312.088 4.83017 -3.24144 0
M  V30 3411 N 311.064 4.81906 -2.51531 0
M  V30 3412 H 314.866 2.36776 -1.74111 0
M  V30 3413 H 312.38 1.24622 -1.0413 0
M  V30 3414 H 314.377 4.16859 -0.0585855 0
M  V30 3415 H 313.037 3.19163 0.597105 0
M  V30 3416 H 314.048 4.26253 -2.94158 0
M  V30 3417 H 310.725 4.15919 -0.362988 0
M  V30 3418 H 312.115 5.18605 -4.27198 0
M  V30 3419 N 314.835 0.952656 1.25548 0
M  V30 3420 C 315.782 0.47008 2.25962 0
M  V30 3421 C 316.752 -0.476384 1.59122 0
M  V30 3422 O 317.937 -0.39007 1.8677 0
M  V30 3423 C 315.077 -0.247881 3.44209 0
M  V30 3424 C 314.19 0.735591 4.25691 0
M  V30 3425 C 313.325 -0.0047306 5.312 0
M  V30 3426 C 312.364 0.969805 6.04368 0
M  V30 3427 N 311.501 0.260486 7.01617 0
M  V30 3428 H 316.341 1.33126 2.66611 0
M  V30 3429 H 313.878 0.66765 1.31076 0
M  V30 3430 H 315.836 -0.680695 4.1161 0
M  V30 3431 H 314.466 -1.07312 3.0444 0
M  V30 3432 H 313.518 1.28689 3.57971 0
M  V30 3433 H 314.83 1.47934 4.76358 0
M  V30 3434 H 313.984 -0.496275 6.04667 0
M  V30 3435 H 312.723 -0.781282 4.81401 0
M  V30 3436 H 311.728 1.47237 5.29718 0
M  V30 3437 H 312.953 1.74655 6.56256 0
M  V30 3438 H 310.899 -0.497364 6.54112 0
M  V30 3439 H 310.816 0.943362 7.50091 0
M  V30 3440 H 312.084 -0.209587 7.79218 0
M  V30 3441 N 316.313 -1.40141 0.720998 0
M  V30 3442 C 317.561 -2.0039 0.262323 0
M  V30 3443 C 317.882 -1.57469 -1.15015 0
M  V30 3444 O 317.152 -0.816582 -1.78069 0
M  V30 3445 H 315.732 -0.741063 0.093996 0
M  V30 3446 H 318.394 -1.71398 0.927835 0
M  V30 3447 H 317.49 -3.10658 0.299671 0
M  V30 3448 N 317.792 -0.46758 -1.50504 0
M  V30 3449 C 319.017 0.0886943 -2.0721 0
M  V30 3450 C 319.442 1.33057 -1.32956 0
M  V30 3451 O 318.8 1.77354 -0.376197 0
M  V30 3452 C 318.848 0.359202 -3.58806 0
M  V30 3453 O 317.952 1.44034 -3.8643 0
M  V30 3454 H 317.293 -0.0114349 -0.663902 0
M  V30 3455 H 319.823 -0.657613 -1.93744 0
M  V30 3456 H 319.833 0.600742 -4.03553 0
M  V30 3457 H 318.508 -0.548311 -4.1227 0
M  V30 3458 H 317.085 1.18638 -3.53524 0
M  V30 3459 N 319.27 1.56325 -0.20005 0
M  V30 3460 C 320.2 2.22318 0.713916 0
M  V30 3461 C 321.181 1.18788 1.21752 0
M  V30 3462 O 322.366 1.47309 1.26545 0
M  V30 3463 C 319.496 2.88639 1.93144 0
M  V30 3464 C 318.45 3.98457 1.56255 0
M  V30 3465 C 317.776 4.51967 2.85709 0
M  V30 3466 C 319.076 5.16612 0.768747 0
M  V30 3467 H 320.77 2.98952 0.163755 0
M  V30 3468 H 318.316 1.43792 0.0773219 0
M  V30 3469 H 320.269 3.33491 2.57608 0
M  V30 3470 H 318.993 2.09419 2.50621 0
M  V30 3471 H 317.652 3.54305 0.941471 0
M  V30 3472 H 317.3 3.69503 3.41287 0
M  V30 3473 H 317 5.26071 2.6177 0
M  V30 3474 H 318.524 4.99523 3.51154 0
M  V30 3475 H 319.938 5.57977 1.3166 0
M  V30 3476 H 318.335 5.96812 0.627286 0
M  V30 3477 H 319.405 4.84358 -0.229168 0
M  V30 3478 N 320.748 -0.0735177 1.57428 0
M  V30 3479 C 321.695 -1.08756 2.0357 0
M  V30 3480 C 322.665 -1.38559 0.916 0
M  V30 3481 O 323.85 -1.49656 1.18354 0
M  V30 3482 C 320.99 -2.39657 2.48311 0
M  V30 3483 C 320.103 -2.16399 3.73892 0
M  V30 3484 C 319.238 -3.40852 4.07423 0
M  V30 3485 C 318.277 -3.1295 5.2605 0
M  V30 3486 N 317.414 -4.29729 5.55228 0
M  V30 3487 H 322.254 -0.687104 2.8997 0
M  V30 3488 H 319.791 -0.327709 1.43403 0
M  V30 3489 H 321.749 -3.16081 2.72303 0
M  V30 3490 H 320.379 -2.77508 1.64891 0
M  V30 3491 H 319.431 -1.30676 3.57251 0
M  V30 3492 H 320.743 -1.91788 4.60455 0
M  V30 3493 H 319.897 -4.25671 4.32306 0
M  V30 3494 H 318.636 -3.68537 3.19425 0
M  V30 3495 H 317.641 -2.26526 5.00965 0
M  V30 3496 H 318.866 -2.86589 6.15665 0
M  V30 3497 H 316.812 -4.57448 4.70188 0
M  V30 3498 H 316.729 -4.08385 6.36206 0
M  V30 3499 H 317.997 -5.1555 5.84661 0
M  V30 3500 N 322.226 -1.5378 -0.344866 0
M  V30 3501 C 323.637 -1.62428 -0.920552 0
M  V30 3502 C 323.988 -0.504747 -1.89596 0
M  V30 3503 O 323.113 0.365711 -2.13287 0
M  V30 3504 C 323.708 -2.94419 -1.67639 0
M  V30 3505 C 322.267 -3.05333 -2.20111 0
M  V30 3506 C 321.414 -2.57866 -1.01982 0
M  V30 3507 H 324.365 -1.58222 -0.123042 0
M  V30 3508 H 324.386 -2.83384 -2.53917 0
M  V30 3509 H 323.898 -3.7588 -0.966224 0
M  V30 3510 H 321.999 -2.28502 -2.94308 0
M  V30 3511 H 322.112 -4.10778 -2.46573 0
M  V30 3512 H 320.476 -2.13241 -1.39285 0
M  V30 3513 H 321.259 -3.41765 -0.324308 0
M  V30 3514 N 323.704 0.605807 -1.45491 0
M  V30 3515 C 324.654 1.71074 -1.50724 0
M  V30 3516 C 325.638 1.5658 -0.37033 0
M  V30 3517 O 326.83 1.65887 -0.617299 0
M  V30 3518 C 323.959 3.0983 -1.47852 0
M  V30 3519 C 323.045 3.29704 -2.66751 0
M  V30 3520 N 323.436 3.19831 -3.91844 0
M  V30 3521 C 321.734 3.60579 -2.62486 0
M  V30 3522 C 322.435 3.41083 -4.71208 0
M  V30 3523 N 321.411 3.65157 -4.02693 0
M  V30 3524 H 325.213 1.61937 -2.45263 0
M  V30 3525 H 322.727 0.80912 -1.40808 0
M  V30 3526 H 324.724 3.89101 -1.49686 0
M  V30 3527 H 323.384 3.20115 -0.543714 0
M  V30 3528 H 324.395 2.98194 -4.23439 0
M  V30 3529 H 321.072 3.7769 -1.77922 0
M  V30 3530 H 322.462 3.38828 -5.80211 0
M  V30 3531 N 325.182 1.32811 0.848464 0
M  V30 3532 C 326.459 1.14334 1.58704 0
M  V30 3533 C 326.839 -0.293948 2.09043 0
M  V30 3534 O 326.187 -1.29153 1.88499 0
M  V30 3535 C 326.397 2.17626 2.72837 0
M  V30 3536 C 327.745 2.51282 3.42261 0
M  V30 3537 O 328.769 2.16219 2.83068 0
M  V30 3538 O 327.628 3.11413 4.49093 0
M  V30 3539 H 324.722 0.441601 0.699226 0
M  V30 3540 H 327.268 1.44362 0.892053 0
M  V30 3541 H 326.04 3.14211 2.3321 0
M  V30 3542 H 325.663 1.88628 3.50008 0
M  V30 3543 N 326.66 -1.06551 1.16123 0
M  V30 3544 C 327.89 -1.8274 0.963838 0
M  V30 3545 C 328.298 -1.82712 -0.491228 0
M  V30 3546 O 327.641 -1.24294 -1.35265 0
M  V30 3547 C 327.703 -3.3065 1.41106 0
M  V30 3548 C 327.367 -3.54384 2.88549 0
M  V30 3549 C 328.364 -3.4765 3.86569 0
M  V30 3550 C 326.049 -3.81789 3.26408 0
M  V30 3551 C 328.043 -3.67982 5.2045 0
M  V30 3552 C 325.73 -4.01772 4.60459 0
M  V30 3553 C 326.728 -3.94866 5.57288 0
M  V30 3554 O 326.416 -4.14306 6.88916 0
M  V30 3555 H 326.148 -0.583136 0.341948 0
M  V30 3556 H 328.702 -1.35351 1.54497 0
M  V30 3557 H 326.932 -3.78887 0.773394 0
M  V30 3558 H 328.621 -3.88324 1.1815 0
M  V30 3559 H 329.387 -3.2647 3.58667 0
M  V30 3560 H 325.266 -3.86276 2.51619 0
M  V30 3561 H 328.81 -3.62507 5.96015 0
M  V30 3562 H 324.707 -4.2244 4.88072 0
M  V30 3563 H 325.475 -4.31609 6.95454 0
M  V30 3564 N 328.138 -0.959301 -1.25041 0
M  V30 3565 C 329.549 -0.65667 -1.74771 0
M  V30 3566 C 329.9 0.827852 -1.77879 0
M  V30 3567 O 329.025 1.64783 -1.40269 0
M  V30 3568 C 329.62 -1.1853 -3.1739 0
M  V30 3569 C 328.179 -0.932734 -3.6466 0
M  V30 3570 C 327.326 -1.32558 -2.43564 0
M  V30 3571 H 330.277 -1.13558 -1.10862 0
M  V30 3572 H 330.298 -0.547582 -3.76539 0
M  V30 3573 H 329.81 -2.26576 -3.15095 0
M  V30 3574 H 327.911 0.13257 -3.72364 0
M  V30 3575 H 328.024 -1.57248 -4.52559 0
M  V30 3576 H 326.388 -0.743956 -2.43593 0
M  V30 3577 H 327.171 -2.41537 -2.43957 0
M  V30 3578 N 329.616 1.39756 -0.72842 0
M  V30 3579 C 330.563 2.30647 -0.0841519 0
M  V30 3580 C 331.533 1.48869 0.7367 0
M  V30 3581 O 332.718 1.77574 0.698015 0
M  V30 3582 C 329.858 3.35165 0.822091 0
M  V30 3583 C 328.971 4.31999 -0.0106663 0
M  V30 3584 C 328.106 5.23585 0.896241 0
M  V30 3585 C 327.145 6.12072 0.0583381 0
M  V30 3586 N 326.282 6.96035 0.920818 0
M  V30 3587 H 331.122 2.85173 -0.864891 0
M  V30 3588 H 328.659 1.40422 -0.438179 0
M  V30 3589 H 330.617 3.94345 1.36189 0
M  V30 3590 H 329.247 2.8211 1.56888 0
M  V30 3591 H 328.299 3.74492 -0.66781 0
M  V30 3592 H 329.611 4.9443 -0.658825 0
M  V30 3593 H 328.765 5.87759 1.50412 0
M  V30 3594 H 327.504 4.61459 1.57819 0
M  V30 3595 H 326.509 5.46916 -0.562389 0
M  V30 3596 H 327.734 6.76261 -0.6203 0
M  V30 3597 H 325.68 6.36485 1.58818 0
M  V30 3598 H 325.597 7.55284 0.32899 0
M  V30 3599 H 326.865 7.64646 1.51447 0
M  V30 3600 N 331.094 0.475555 1.50254 0
M  V30 3601 C 332.34 -0.0701075 2.03279 0
M  V30 3602 C 332.695 -1.37007 1.35081 0
M  V30 3603 O 331.988 -1.8577 0.469052 0
M  V30 3604 C 332.182 -0.305114 3.56095 0
M  V30 3605 C 332.011 0.970515 4.39103 0
M  V30 3606 C 330.781 1.51509 4.82051 0
M  V30 3607 C 332.979 1.8671 4.79212 0
M  V30 3608 N 330.961 2.73928 5.49397 0
M  V30 3609 C 332.332 2.93715 5.46014 0
M  V30 3610 C 334.387 1.87695 4.61167 0
M  V30 3611 C 333.09 4.01699 5.96683 0
M  V30 3612 C 335.116 2.94637 5.12779 0
M  V30 3613 C 334.478 4.00361 5.79561 0
M  V30 3614 H 330.577 0.014486 0.781866 0
M  V30 3615 H 333.161 0.644755 1.83714 0
M  V30 3616 H 331.332 -0.989019 3.75597 0
M  V30 3617 H 333.064 -0.845516 3.95769 0
M  V30 3618 H 329.819 1.06367 4.61501 0
M  V30 3619 H 330.243 3.36109 5.87673 0
M  V30 3620 H 334.885 1.07273 4.08965 0
M  V30 3621 H 332.603 4.82934 6.4792 0
M  V30 3622 H 336.189 2.96388 5.00645 0
M  V30 3623 H 335.069 4.81751 6.18778 0
M  V30 3624 N 332.573 -1.56217 0.208337 0
M  V30 3625 C 333.483 -2.23316 -0.718836 0
M  V30 3626 C 334.499 -1.23648 -1.22422 0
M  V30 3627 O 335.675 -1.56423 -1.26861 0
M  V30 3628 C 332.74 -2.88968 -1.91568 0
M  V30 3629 C 331.801 -4.03943 -1.45357 0
M  V30 3630 C 331.034 -4.66455 -2.59337 0
M  V30 3631 O 331.257 -4.27919 -3.77149 0
M  V30 3632 O 330.191 -5.55686 -2.31293 0
M  V30 3633 H 334.017 -3.03182 -0.177315 0
M  V30 3634 H 331.602 -1.49384 -0.0215402 0
M  V30 3635 H 333.484 -3.30455 -2.61491 0
M  V30 3636 H 332.159 -2.12071 -2.44556 0
M  V30 3637 H 331.066 -3.67052 -0.722746 0
M  V30 3638 H 332.399 -4.82543 -0.970219 0
M  V30 3639 N 334.051 0.0651679 -1.57465 0
M  V30 3640 C 335.299 0.761555 -1.87202 0
M  V30 3641 C 335.62 1.77778 -0.801243 0
M  V30 3642 O 334.89 1.95166 0.16937 0
M  V30 3643 H 333.47 0.284251 -0.690804 0
M  V30 3644 H 336.132 0.0396827 -1.9486 0
M  V30 3645 H 335.228 1.27365 -2.84929 0
M  V30 3646 N 335.529 1.53961 0.336706 0
M  V30 3647 C 336.777 1.71197 1.07405 0
M  V30 3648 C 337.098 0.481475 1.88962 0
M  V30 3649 O 336.368 -0.504585 1.8929 0
M  V30 3650 H 334.948 0.631185 0.399517 0
M  V30 3651 H 337.61 1.91232 0.376323 0
M  V30 3652 H 336.706 2.58587 1.74755 0
M  V30 3653 N 337.007 -0.598083 1.45811 0
M  V30 3654 C 338.253 -1.35882 1.50545 0
M  V30 3655 C 338.586 -1.93616 0.150445 0
M  V30 3656 O 337.861 -1.75604 -0.83628 0
M  V30 3657 C 338.144 -2.49966 2.59208 0
M  V30 3658 C 337.997 -1.97367 4.04186 0
M  V30 3659 C 339.316 -3.52068 2.64076 0
M  V30 3660 H 336.435 -0.492717 0.548087 0
M  V30 3661 H 339.077 -0.673319 1.77669 0
M  V30 3662 H 337.227 -3.08443 2.3621 0
M  V30 3663 H 338.899 -1.43466 4.38423 0
M  V30 3664 H 337.142 -1.283 4.14393 0
M  V30 3665 H 337.813 -2.79649 4.75921 0
M  V30 3666 H 340.289 -3.03448 2.84708 0
M  V30 3667 H 339.165 -4.2937 3.41954 0
M  V30 3668 H 339.426 -4.08304 1.69531 0
M  V30 3669 N 338.485 -1.33259 -0.841409 0
M  V30 3670 C 339.433 -1.23279 -1.97244 0
M  V30 3671 C 340.427 -0.134706 -1.68864 0
M  V30 3672 O 341.633 -0.298501 -1.77508 0
M  V30 3673 H 338.008 -0.382497 -0.647457 0
M  V30 3674 H 339.979 -2.18906 -2.02787 0
M  V30 3675 C 338.728 -0.986268 -3.33419 0
M  V30 3676 H 338.051 -1.82347 -3.55794 0
M  V30 3677 H 339.491 -0.956728 -4.13065 0
M  V30 3678 C 337.95 0.310842 -3.35463 0
M  V30 3679 O 338.48 1.31838 -3.79449 0
M  V30 3680 N 336.686 0.337485 -2.88634 0
M  V30 3681 H 336.233 -0.482967 -2.53032 0
M  V30 3682 H 336.191 1.20518 -2.90384 0
M  V30 3683 N 339.963 1.05934 -1.16686 0
M  V30 3684 C 340.91 2.13499 -0.876748 0
M  V30 3685 C 341.88 1.65162 0.176299 0
M  V30 3686 O 343.065 1.90757 0.0407143 0
M  V30 3687 C 340.205 3.42912 -0.387967 0
M  V30 3688 C 339.318 4.04964 -1.50426 0
M  V30 3689 C 338.453 5.22266 -0.970125 0
M  V30 3690 C 337.492 5.76309 -2.06238 0
M  V30 3691 N 336.629 6.84922 -1.54356 0
M  V30 3692 H 341.469 2.37654 -1.7979 0
M  V30 3693 H 339.006 1.16598 -0.896843 0
M  V30 3694 H 340.964 4.17111 -0.086186 0
M  V30 3695 H 339.594 3.18963 0.496235 0
M  V30 3696 H 338.646 3.28277 -1.92193 0
M  V30 3697 H 339.958 4.41122 -2.32836 0
M  V30 3698 H 339.112 6.03506 -0.621743 0
M  V30 3699 H 337.851 4.87564 -0.115377 0
M  V30 3700 H 336.856 4.93704 -2.41942 0
M  V30 3701 H 338.081 6.13062 -2.92115 0
M  V30 3702 H 336.027 6.52131 -0.711406 0
M  V30 3703 H 335.944 7.20043 -2.30379 0
M  V30 3704 H 337.212 7.69832 -1.22387 0
M  V30 3705 N 341.441 0.965919 1.2453 0
M  V30 3706 C 342.374 0.4393 2.23932 0
M  V30 3707 C 343.352 -0.485615 1.55179 0
M  V30 3708 O 344.536 -0.417402 1.83821 0
M  V30 3709 C 341.663 -0.366042 3.36716 0
M  V30 3710 C 340.709 0.5009 4.23548 0
M  V30 3711 S 341.542 1.94002 4.99123 0
M  V30 3712 C 342.698 1.14342 6.15367 0
M  V30 3713 H 342.931 1.28167 2.68254 0
M  V30 3714 H 340.464 0.770819 1.33782 0
M  V30 3715 H 342.422 -0.824724 4.0213 0
M  V30 3716 H 341.083 -1.18337 2.90956 0
M  V30 3717 H 340.276 -0.117341 5.03863 0
M  V30 3718 H 339.878 0.89524 3.63127 0
M  V30 3719 H 342.17 0.397572 6.76332 0
M  V30 3720 H 343.113 1.92089 6.81548 0
M  V30 3721 H 343.521 0.668579 5.60527 0
M  V30 3722 N 342.919 -1.39368 0.735821 0
M  V30 3723 C 344.166 -2.00497 0.284123 0
M  V30 3724 C 344.494 -1.58387 -1.12889 0
M  V30 3725 O 343.749 -0.804359 -1.78406 0
M  V30 3726 C 344.048 -3.5583 0.334651 0
M  V30 3727 C 343.714 -4.17593 1.7008 0
M  V30 3728 C 342.376 -4.34176 2.07472 0
M  V30 3729 C 344.728 -4.51848 2.59775 0
M  V30 3730 C 342.056 -4.82304 3.34065 0
M  V30 3731 C 344.408 -5.01384 3.85741 0
M  V30 3732 C 343.072 -5.16175 4.23225 0
M  V30 3733 H 342.342 -0.73367 0.103968 0
M  V30 3734 H 344.989 -1.66683 0.942825 0
M  V30 3735 H 343.294 -3.89674 -0.407625 0
M  V30 3736 H 344.991 -4.00986 -0.0329927 0
M  V30 3737 H 341.581 -4.05087 1.40008 0
M  V30 3738 H 345.765 -4.38653 2.32157 0
M  V30 3739 H 341.021 -4.91941 3.63049 0
M  V30 3740 H 345.195 -5.26863 4.55399 0
M  V30 3741 H 342.822 -5.5323 5.21384 0
M  V30 3742 N 344.397 -0.483516 -1.5 0
M  V30 3743 C 345.347 0.32306 -2.257 0
M  V30 3744 C 346.331 0.950755 -1.29805 0
M  V30 3745 O 347.523 0.861247 -1.54634 0
M  V30 3746 C 344.652 1.39724 -3.13579 0
M  V30 3747 C 343.738 0.776663 -4.16928 0
M  V30 3748 N 344.129 -0.1104 -5.0568 0
M  V30 3749 C 342.427 1.03922 -4.33724 0
M  V30 3750 C 343.128 -0.46387 -5.79848 0
M  V30 3751 N 342.104 0.163987 -5.43353 0
M  V30 3752 H 345.906 -0.360086 -2.91686 0
M  V30 3753 H 343.42 -0.298456 -1.59634 0
M  V30 3754 H 345.417 1.98837 -3.66428 0
M  V30 3755 H 344.077 2.08225 -2.49143 0
M  V30 3756 H 345.088 -0.480069 -5.1567 0
M  V30 3757 H 341.765 1.71829 -3.80501 0
M  V30 3758 H 343.155 -1.18854 -6.61304 0
M  V30 3759 N 345.875 1.56104 -0.216619 0
M  V30 3760 C 347.123 1.97781 0.415593 0
M  V30 3761 C 347.444 1.10536 1.60645 0
M  V30 3762 O 346.714 0.181303 1.95059 0
M  V30 3763 H 345.294 0.730415 0.156534 0
M  V30 3764 H 347.956 1.92445 -0.308366 0
M  V30 3765 H 347.052 3.03072 0.74525 0
M  V30 3766 N 347.353 -0.0568162 1.57498 0
M  V30 3767 C 348.602 -0.752001 1.87157 0
M  V30 3768 C 348.915 -1.77978 0.811375 0
M  V30 3769 O 350.121 -2.52559 0.996293 0
M  V30 3770 C 348.577 -1.38844 3.3204 0
M  V30 3771 C 348.185 -0.398456 4.46225 0
M  V30 3772 C 349.929 -2.06512 3.70882 0
M  V30 3773 C 347.836 -1.04166 5.82154 0
M  V30 3774 H 346.766 -0.28461 0.698222 0
M  V30 3775 H 349.417 -0.00561272 1.83499 0
M  V30 3776 H 347.799 -2.1836 3.30356 0
M  V30 3777 H 348.973 0.367977 4.59328 0
M  V30 3778 H 347.288 0.174592 4.16034 0
M  V30 3779 H 349.885 -2.55437 4.6974 0
M  V30 3780 H 350.228 -2.87117 3.01445 0
M  V30 3781 H 350.761 -1.33808 3.7462 0
M  V30 3782 H 347.5 -0.275614 6.5492 0
M  V30 3783 H 347.02 -1.7786 5.72823 0
M  V30 3784 H 348.699 -1.55715 6.27982 0
M  V30 3785 N 348.832 -1.54138 -0.328536 0
M  V30 3786 C 349.764 -1.79509 -1.4251 0
M  V30 3787 C 350.777 -0.67688 -1.48061 0
M  V30 3788 O 351.966 -0.953898 -1.50874 0
M  V30 3789 C 349.066 -1.89337 -2.81078 0
M  V30 3790 C 348.239 -3.19443 -2.98789 0
M  V30 3791 C 347.298 -3.20036 -4.17688 0
M  V30 3792 O 346.324 -3.93697 -4.11086 0
M  V30 3793 N 347.526 -2.43467 -5.26976 0
M  V30 3794 H 350.291 -2.74139 -1.21111 0
M  V30 3795 H 347.852 -1.53373 -0.518499 0
M  V30 3796 H 349.844 -1.87167 -3.58818 0
M  V30 3797 H 348.414 -1.01826 -2.95551 0
M  V30 3798 H 347.634 -3.34614 -2.08391 0
M  V30 3799 H 348.922 -4.05354 -3.07515 0
M  V30 3800 H 348.32 -1.83201 -5.35214 0
M  V30 3801 H 346.877 -2.4708 -6.03154 0
M  V30 3802 N 350.31 0.590341 -1.46126 0
M  V30 3803 C 351.587 1.35029 -1.41515 0
M  V30 3804 C 351.967 2.10888 -0.0946472 0
M  V30 3805 O 351.315 2.08998 0.923693 0
M  V30 3806 C 351.525 2.28269 -2.63997 0
M  V30 3807 C 352.873 2.90338 -3.09821 0
M  V30 3808 O 353.897 2.38585 -2.64492 0
M  V30 3809 O 352.756 3.84321 -3.88535 0
M  V30 3810 H 349.85 0.606317 -0.562413 0
M  V30 3811 H 352.396 0.611994 -1.58281 0
M  V30 3812 H 351.168 1.71591 -3.51671 0
M  V30 3813 H 350.791 3.0945 -2.49652 0
M  V30 3814 N 351.788 1.33704 0.83433 0
M  V30 3815 C 353.018 1.28281 1.6195 0
M  V30 3816 C 353.426 -0.147603 1.88623 0
M  V30 3817 O 352.769 -1.1016 1.47005 0
M  V30 3818 C 352.831 1.99386 2.99141 0
M  V30 3819 C 352.495 3.48681 2.95416 0
M  V30 3820 C 353.492 4.438 2.70809 0
M  V30 3821 C 351.177 3.90925 3.15409 0
M  V30 3822 C 353.171 5.79138 2.66229 0
M  V30 3823 C 350.858 5.26366 3.10454 0
M  V30 3824 C 351.856 6.20284 2.85895 0
M  V30 3825 O 351.544 7.53245 2.80852 0
M  V30 3826 H 351.276 0.44315 0.510484 0
M  V30 3827 H 353.83 1.76711 1.04702 0
M  V30 3828 H 352.06 1.45554 3.58261 0
M  V30 3829 H 353.749 1.87403 3.60049 0
M  V30 3830 H 354.515 4.12485 2.5511 0
M  V30 3831 H 350.394 3.18229 3.33543 0
M  V30 3832 H 353.938 6.52416 2.4698 0
M  V30 3833 H 349.835 5.57304 3.25703 0
M  V30 3834 H 350.603 7.62846 2.96661 0
M  V30 3835 N 353.266 -1.05314 1.17247 0
M  V30 3836 C 354.176 -2.16538 0.90268 0
M  V30 3837 C 355.192 -1.73523 -0.128707 0
M  V30 3838 O 356.368 -2.01337 0.0502701 0
M  V30 3839 C 353.433 -3.44167 0.418356 0
M  V30 3840 C 352.494 -4.01635 1.51618 0
M  V30 3841 C 351.727 -5.23171 1.05487 0
M  V30 3842 O 351.95 -5.70327 -0.0914715 0
M  V30 3843 O 350.884 -5.72848 1.8474 0
M  V30 3844 H 354.71 -2.42145 1.83302 0
M  V30 3845 H 352.295 -1.15037 0.953246 0
M  V30 3846 H 354.177 -4.21112 0.155726 0
M  V30 3847 H 352.852 -3.20063 -0.48385 0
M  V30 3848 H 351.759 -3.26135 1.83268 0
M  V30 3849 H 353.092 -4.30053 2.39405 0
M  V30 3850 N 354.744 -0.972509 -1.24016 0
M  V30 3851 C 355.654 -0.5143 -2.28893 0
M  V30 3852 C 356.67 0.427078 -1.68677 0
M  V30 3853 O 357.846 0.298939 -1.99169 0
M  V30 3854 C 354.911 0.183598 -3.46214 0
M  V30 3855 C 353.972 -0.798202 -4.21814 0
M  V30 3856 C 353.205 -0.133514 -5.33533 0
M  V30 3857 O 353.428 1.07714 -5.60137 0
M  V30 3858 O 352.362 -0.828103 -5.96176 0
M  V30 3859 H 356.188 -1.38629 -2.70214 0
M  V30 3860 H 353.773 -0.739769 -1.29799 0
M  V30 3861 H 355.655 0.575433 -4.17453 0
M  V30 3862 H 354.33 1.03048 -3.0686 0
M  V30 3863 H 353.237 -1.24059 -3.52931 0
M  V30 3864 H 354.57 -1.61364 -4.64997 0
M  V30 3865 N 356.222 1.38976 -0.743202 0
M  V30 3866 C 357.17 2.32394 -0.0978389 0
M  V30 3867 C 358.164 1.53486 0.716824 0
M  V30 3868 O 359.37 1.69092 0.617088 0
M  V30 3869 H 355.745 0.75189 -0.0128402 0
M  V30 3870 H 357.716 2.84441 -0.901981 0
M  V30 3871 C 356.465 3.38629 0.789036 0
M  V30 3872 H 355.788 3.99432 0.171559 0
M  V30 3873 H 357.228 4.06426 1.20807 0
M  V30 3874 C 355.687 2.76347 1.92702 0
M  V30 3875 O 356.217 2.64836 3.02034 0
M  V30 3876 N 354.423 2.34311 1.71891 0
M  V30 3877 H 353.97 2.43873 0.829675 0
M  V30 3878 H 353.928 1.9298 2.48205 0
M  V30 3879 N 357.7 0.491464 1.49741 0
M  V30 3880 C 358.647 -0.292027 2.28945 0
M  V30 3881 C 359.617 -0.968973 1.34908 0
M  V30 3882 O 360.802 -0.97748 1.6386 0
M  V30 3883 C 357.942 -1.35617 3.17336 0
M  V30 3884 C 357.055 -0.691957 4.26422 0
M  V30 3885 C 356.19 -1.73572 5.02042 0
M  V30 3886 C 355.229 -1.05286 6.02977 0
M  V30 3887 N 354.366 -2.0404 6.71798 0
M  V30 3888 H 359.206 0.389654 2.95442 0
M  V30 3889 H 356.743 0.204003 1.45679 0
M  V30 3890 H 358.701 -1.98502 3.66951 0
M  V30 3891 H 357.331 -2.00674 2.52844 0
M  V30 3892 H 356.383 0.0499523 3.80367 0
M  V30 3893 H 357.695 -0.153946 4.98562 0
M  V30 3894 H 356.849 -2.43987 5.55478 0
M  V30 3895 H 355.588 -2.30757 4.29654 0
M  V30 3896 H 354.593 -0.334446 5.48782 0
M  V30 3897 H 355.818 -0.487636 6.77347 0
M  V30 3898 H 353.764 -2.60205 6.02187 0
M  V30 3899 H 353.681 -1.55279 7.39881 0
M  V30 3900 H 354.949 -2.73772 7.29842 0
M  V30 3901 N 359.178 -1.55987 0.224894 0
M  V30 3902 C 360.141 -2.19178 -0.670348 0
M  V30 3903 C 361.141 -1.15461 -1.11917 0
M  V30 3904 O 362.331 -1.40675 -1.02743 0
M  V30 3905 C 359.463 -2.81777 -1.9187 0
M  V30 3906 H 360.656 -2.99662 -0.119364 0
M  V30 3907 H 358.209 -1.5628 -0.0247128 0
M  V30 3908 H 358.944 -2.05172 -2.51147 0
M  V30 3909 H 358.729 -3.57732 -1.60531 0
M  V30 3910 H 360.219 -3.30205 -2.55645 0
M  V30 3911 N 360.656 0.0484629 -1.57525 0
M  V30 3912 C 362.072 0.40375 -1.54409 0
M  V30 3913 C 362.272 1.77786 -0.948384 0
M  V30 3914 O 361.328 2.46189 -0.560983 0
M  V30 3915 C 362.641 0.323394 -2.98956 0
M  V30 3916 C 364.189 0.401892 -3.10409 0
M  V30 3917 C 364.664 0.351195 -4.56652 0
M  V30 3918 N 366.155 0.410576 -4.61377 0
M  V30 3919 C 366.89 0.393933 -5.72045 0
M  V30 3920 N 366.386 0.330724 -6.9201 0
M  V30 3921 N 368.179 0.442227 -5.60358 0
M  V30 3922 H 360.33 -0.851016 -1.94606 0
M  V30 3923 H 362.593 -0.321721 -0.89174 0
M  V30 3924 H 362.299 -0.62011 -3.4619 0
M  V30 3925 H 362.173 1.12463 -3.60044 0
M  V30 3926 H 364.56 1.33582 -2.63134 0
M  V30 3927 H 364.641 -0.428342 -2.52188 0
M  V30 3928 H 364.285 -0.578987 -5.04589 0
M  V30 3929 H 364.215 1.19928 -5.12762 0
M  V30 3930 H 366.706 0.462729 -3.75056 0
M  V30 3931 H 367.019 0.322592 -7.72126 0
M  V30 3932 H 365.364 0.29706 -6.94365 0
M  V30 3933 H 368.555 0.489464 -4.65534 0
M  V30 3934 H 368.728 0.425788 -6.466 0
M  V30 3935 N 362.134 1.5431 0.320358 0
M  V30 3936 C 363.38 1.72924 1.05949 0
M  V30 3937 C 363.713 0.503185 1.87568 0
M  V30 3938 O 362.988 -0.499839 1.87968 0
M  V30 3939 C 363.271 3.00676 1.98156 0
M  V30 3940 C 363.124 4.3354 1.19845 0
M  V30 3941 C 364.443 3.24198 2.9763 0
M  V30 3942 H 361.562 0.629195 0.383774 0
M  V30 3943 H 364.204 1.87008 0.335854 0
M  V30 3944 H 362.354 2.888 2.59859 0
M  V30 3945 H 364.026 4.57305 0.605773 0
M  V30 3946 H 362.269 4.309 0.500784 0
M  V30 3947 H 362.94 5.19156 1.87567 0
M  V30 3948 H 365.416 3.35557 2.4605 0
M  V30 3949 H 364.292 4.14938 3.59329 0
M  V30 3950 H 364.553 2.41577 3.7026 0
M  V30 3951 N 363.613 -0.582584 1.46437 0
M  V30 3952 C 364.563 -1.68654 1.53426 0
M  V30 3953 C 365.547 -1.55971 0.395194 0
M  V30 3954 O 366.739 -1.64884 0.643612 0
M  V30 3955 C 363.868 -3.07439 1.52762 0
M  V30 3956 C 362.954 -3.25418 2.71963 0
M  V30 3957 N 363.345 -3.13556 3.96883 0
M  V30 3958 C 361.643 -3.56357 2.68189 0
M  V30 3959 C 362.344 -3.33543 4.76575 0
M  V30 3960 N 361.32 -3.58704 4.08451 0
M  V30 3961 H 365.122 -1.58014 2.47808 0
M  V30 3962 H 362.636 -0.786617 1.42078 0
M  V30 3963 H 364.633 -3.86671 1.55857 0
M  V30 3964 H 363.293 -3.1921 0.594573 0
M  V30 3965 H 364.304 -2.9142 4.28129 0
M  V30 3966 H 360.981 -3.74812 1.83908 0
M  V30 3967 H 362.371 -3.29555 5.85528 0
M  V30 3968 N 365.091 -1.34144 -0.827227 0
M  V30 3969 C 366.021 -1.28005 -1.95287 0
M  V30 3970 C 367.002 -0.158321 -1.69362 0
M  V30 3971 O 368.187 -0.349987 -1.9102 0
M  V30 3972 C 365.317 -1.03036 -3.31664 0
M  V30 3973 C 364.271 -2.11628 -3.72019 0
M  V30 3974 C 363.597 -1.71854 -5.0633 0
M  V30 3975 C 364.897 -3.53417 -3.8457 0
M  V30 3976 H 366.591 -2.22187 -2.00682 0
M  V30 3977 H 364.137 -1.0696 -0.964135 0
M  V30 3978 H 366.09 -0.973863 -4.09993 0
M  V30 3979 H 364.814 -0.0529391 -3.26557 0
M  V30 3980 H 363.473 -2.16339 -2.95961 0
M  V30 3981 H 363.121 -0.727841 -4.97706 0
M  V30 3982 H 362.821 -2.44531 -5.34302 0
M  V30 3983 H 364.345 -1.67692 -5.87122 0
M  V30 3984 H 365.759 -3.51142 -4.5318 0
M  V30 3985 H 364.156 -4.24679 -4.2399 0
M  V30 3986 H 365.226 -3.91072 -2.86689 0
M  V30 3987 N 366.569 1.04691 -1.17803 0
M  V30 3988 C 367.815 1.78045 -0.970969 0
M  V30 3989 C 368.148 1.87686 0.498751 0
M  V30 3990 O 367.423 1.38035 1.37027 0
M  V30 3991 C 367.706 3.2166 -1.61884 0
M  V30 3992 C 367.559 3.20001 -3.161 0
M  V30 3993 C 368.878 4.1962 -1.3269 0
M  V30 3994 H 365.997 0.64633 -0.354155 0
M  V30 3995 H 368.639 1.22333 -1.45378 0
M  V30 3996 H 366.789 3.69232 -1.20831 0
M  V30 3997 H 368.461 2.80467 -3.66246 0
M  V30 3998 H 366.704 2.58203 -3.48588 0
M  V30 3999 H 367.375 4.21386 -3.56564 0
M  V30 4000 H 369.851 3.80567 -1.68249 0
M  V30 4001 H 368.727 5.18339 -1.80599 0
M  V30 4002 H 368.988 4.414 -0.248622 0
M  V30 4003 N 368.047 0.979072 1.23499 0
M  V30 4004 C 368.98 0.463027 2.23453 0
M  V30 4005 C 369.958 -0.469128 1.55685 0
M  V30 4006 O 371.142 -0.397882 1.84253 0
M  V30 4007 C 368.269 -0.330308 3.37086 0
M  V30 4008 C 367.315 0.545795 4.22993 0
M  V30 4009 S 368.148 1.99285 4.97037 0
M  V30 4010 C 369.304 1.20862 6.1412 0
M  V30 4011 H 369.537 1.31005 2.6688 0
M  V30 4012 H 367.07 0.784965 1.32957 0
M  V30 4013 H 369.028 -0.782027 4.02982 0
M  V30 4014 H 367.689 -1.15244 2.92194 0
M  V30 4015 H 366.882 -0.0638928 5.03959 0
M  V30 4016 H 366.484 0.933705 3.62157 0
M  V30 4017 H 368.776 0.469284 6.75873 0
M  V30 4018 H 369.719 1.99307 6.79472 0
M  V30 4019 H 370.127 0.727992 5.59786 0
M  V30 4020 N 369.525 -1.3858 0.750561 0
M  V30 4021 C 370.435 -2.34278 0.122825 0
M  V30 4022 C 371.451 -1.59116 -0.704131 0
M  V30 4023 O 372.627 -1.91326 -0.628987 0
M  V30 4024 C 369.692 -3.38221 -0.762086 0
M  V30 4025 C 368.753 -4.29227 0.078896 0
M  V30 4026 C 367.986 -5.28205 -0.763874 0
M  V30 4027 O 368.209 -5.34112 -2.00201 0
M  V30 4028 O 367.143 -6.01618 -0.18428 0
M  V30 4029 H 370.969 -2.89649 0.913088 0
M  V30 4030 H 368.554 -1.40374 0.511417 0
M  V30 4031 H 370.436 -4.01872 -1.26793 0
M  V30 4032 H 369.111 -2.85211 -1.5309 0
M  V30 4033 H 368.018 -3.68747 0.630621 0
M  V30 4034 H 369.351 -4.85484 0.810289 0
M  V30 4035 N 371.003 -0.499398 -1.49478 0
M  V30 4036 C 371.95 0.279881 -2.29097 0
M  V30 4037 C 372.92 0.961805 -1.3542 0
M  V30 4038 O 374.105 0.968777 -1.64376 0
M  V30 4039 C 371.245 1.33932 -3.18051 0
M  V30 4040 C 370.358 0.669333 -4.26783 0
M  V30 4041 C 369.493 1.70907 -5.02955 0
M  V30 4042 C 368.532 1.02087 -6.03527 0
M  V30 4043 N 367.669 2.00474 -6.7287 0
M  V30 4044 H 372.509 -0.405317 -2.95231 0
M  V30 4045 H 370.046 -0.211726 -1.45568 0
M  V30 4046 H 372.004 1.96553 -3.67998 0
M  V30 4047 H 370.634 1.9933 -2.53904 0
M  V30 4048 H 369.686 -0.0701234 -3.80335 0
M  V30 4049 H 370.998 0.127503 -4.98637 0
M  V30 4050 H 370.152 2.41037 -5.56764 0
M  V30 4051 H 368.891 2.28476 -4.30871 0
M  V30 4052 H 367.896 0.305338 -5.48951 0
M  V30 4053 H 369.121 0.451708 -6.77596 0
M  V30 4054 H 367.067 2.57007 -6.03559 0
M  V30 4055 H 366.984 1.51353 -7.40694 0
M  V30 4056 H 368.252 2.69897 -7.31284 0
M  V30 4057 N 372.481 1.55866 -0.233164 0
M  V30 4058 C 373.729 1.9821 0.394593 0
M  V30 4059 C 374.05 1.12234 1.59463 0
M  V30 4060 O 373.32 0.201981 1.94856 0
M  V30 4061 H 371.9 0.732034 0.148778 0
M  V30 4062 H 374.562 1.92107 -0.32876 0
M  V30 4063 H 373.658 3.03845 0.713063 0
M  V30 4064 N 373.959 -0.0401083 1.57549 0
M  V30 4065 C 375.236 -0.767917 1.79896 0
M  V30 4066 C 375.616 -1.9416 0.82856 0
M  V30 4067 O 374.964 -2.2812 -0.131671 0
M  V30 4068 C 375.174 -1.2113 3.27305 0
M  V30 4069 C 376.522 -1.63175 3.91994 0
M  V30 4070 O 377.546 -1.30616 3.31388 0
M  V30 4071 O 376.405 -2.23565 4.98679 0
M  V30 4072 H 373.499 -0.370441 0.739393 0
M  V30 4073 H 376.045 -0.017737 1.69691 0
M  V30 4074 H 374.817 -0.372937 3.89519 0
M  V30 4075 H 374.44 -2.02183 3.42356 0
M  V30 4076 N 375.437 -1.54477 -0.31217 0
M  V30 4077 C 376.665 -1.77205 -1.068 0
M  V30 4078 C 377.08 -0.526114 -1.81321 0
M  V30 4079 O 376.437 0.503647 -1.75413 0
M  V30 4080 C 376.488 -2.97253 -2.05725 0
M  V30 4081 O 376.209 -4.1703 -1.34228 0
M  V30 4082 C 377.71 -3.32281 -2.93435 0
M  V30 4083 H 374.93 -0.591287 -0.317208 0
M  V30 4084 H 377.474 -2.01398 -0.354834 0
M  V30 4085 H 375.629 -2.753 -2.72559 0
M  V30 4086 H 376.043 -4.84636 -2.00571 0
M  V30 4087 H 377.517 -4.19551 -3.58721 0
M  V30 4088 H 377.994 -2.49945 -3.61143 0
M  V30 4089 H 378.6 -3.56353 -2.32147 0
M  V30 4090 N 376.915 0.57481 -1.46744 0
M  V30 4091 C 378.161 1.3347 -1.52688 0
M  V30 4092 C 378.494 1.93353 -0.181229 0
M  V30 4093 O 377.769 1.76912 0.808237 0
M  V30 4094 C 378.052 2.45811 -2.63152 0
M  V30 4095 C 377.905 1.90912 -4.07275 0
M  V30 4096 C 379.224 3.47822 -2.69644 0
M  V30 4097 H 376.343 0.483935 -0.555856 0
M  V30 4098 H 378.985 0.644968 -1.78718 0
M  V30 4099 H 377.135 3.04646 -2.41088 0
M  V30 4100 H 378.807 1.36473 -4.4065 0
M  V30 4101 H 377.05 1.21691 -4.16382 0
M  V30 4102 H 377.721 2.72042 -4.80309 0
M  V30 4103 H 380.197 2.9888 -2.895 0
M  V30 4104 H 379.073 4.23876 -3.48742 0
M  V30 4105 H 379.334 4.05555 -1.76005 0
M  V30 4106 N 378.394 1.34581 0.820102 0
M  V30 4107 C 379.641 1.27096 1.57648 0
M  V30 4108 C 379.969 -0.158317 1.93855 0
M  V30 4109 O 379.224 -1.12028 1.60463 0
M  V30 4110 C 379.523 2.10997 2.8847 0
M  V30 4111 C 379.189 3.59966 2.71543 0
M  V30 4112 C 377.851 4.00575 2.66634 0
M  V30 4113 C 380.203 4.54548 2.55021 0
M  V30 4114 C 377.531 5.33953 2.43128 0
M  V30 4115 C 379.883 5.88109 2.33047 0
M  V30 4116 C 378.547 6.27878 2.26552 0
M  V30 4117 H 377.817 0.465078 0.576874 0
M  V30 4118 H 380.464 1.6635 0.948671 0
M  V30 4119 H 378.769 1.6458 3.55557 0
M  V30 4120 H 380.466 2.0255 3.46084 0
M  V30 4121 H 377.056 3.27733 2.76205 0
M  V30 4122 H 381.24 4.24069 2.57835 0
M  V30 4123 H 376.496 5.63781 2.3656 0
M  V30 4124 H 380.67 6.60985 2.19251 0
M  V30 4125 H 378.297 7.31162 2.081 0
M  V30 4126 N 379.872 -1.04064 1.18357 0
M  V30 4127 C 381.119 -1.77265 0.978947 0
M  V30 4128 C 381.447 -1.88189 -0.491428 0
M  V30 4129 O 380.702 -1.38653 -1.38108 0
M  V30 4130 C 381.001 -3.20634 1.57888 0
M  V30 4131 C 380.667 -3.29743 3.07539 0
M  V30 4132 C 379.329 -3.31937 3.48384 0
M  V30 4133 C 381.681 -3.29841 4.03552 0
M  V30 4134 C 379.009 -3.3187 4.83818 0
M  V30 4135 C 381.361 -3.31313 5.38901 0
M  V30 4136 C 380.025 -3.31799 5.79194 0
M  V30 4137 H 379.295 -0.648659 0.358222 0
M  V30 4138 H 381.942 -1.22225 1.47422 0
M  V30 4139 H 380.247 -3.78675 1.00561 0
M  V30 4140 H 381.944 -3.75917 1.39598 0
M  V30 4141 H 378.534 -3.28757 2.74986 0
M  V30 4142 H 382.718 -3.27337 3.73047 0
M  V30 4143 H 377.974 -3.30562 5.14333 0
M  V30 4144 H 382.148 -3.30338 6.13066 0
M  V30 4145 H 379.775 -3.315 6.84114 0
M  V30 4146 N 381.35 -0.985608 -1.22978 0
M  V30 4147 C 382.3 -0.50118 -2.22423 0
M  V30 4148 C 383.284 0.426649 -1.5514 0
M  V30 4149 O 384.476 0.254656 -1.75159 0
M  V30 4150 C 381.605 0.190003 -3.42774 0
M  V30 4151 C 380.691 -0.757703 -4.17276 0
M  V30 4152 N 381.082 -1.90251 -4.68656 0
M  V30 4153 C 379.38 -0.57209 -4.42316 0
M  V30 4154 C 380.081 -2.49676 -5.25392 0
M  V30 4155 N 379.057 -1.78013 -5.13627 0
M  V30 4156 H 382.859 -1.37441 -2.59783 0
M  V30 4157 H 380.373 -0.846941 -1.38567 0
M  V30 4158 H 382.37 0.55439 -4.13197 0
M  V30 4159 H 381.03 1.05946 -3.06929 0
M  V30 4160 H 382.041 -2.28354 -4.64839 0
M  V30 4161 H 378.718 0.251909 -4.16739 0
M  V30 4162 H 380.108 -3.46384 -5.75732 0
M  V30 4163 N 382.828 1.3818 -0.7579 0
M  V30 4164 C 384.239 1.82726 -0.383134 0
M  V30 4165 C 384.59 1.63214 1.08884 0
M  V30 4166 O 383.715 1.13566 1.84205 0
M  V30 4167 C 384.31 3.31728 -0.688631 0
M  V30 4168 C 382.869 3.74606 -0.367091 0
M  V30 4169 C 382.016 2.60896 -0.939599 0
M  V30 4170 H 384.967 1.26847 -0.953699 0
M  V30 4171 H 384.988 3.80487 0.0316492 0
M  V30 4172 H 384.5 3.45898 -1.76001 0
M  V30 4173 H 382.601 3.66013 0.697532 0
M  V30 4174 H 382.714 4.71215 -0.865658 0
M  V30 4175 H 381.078 2.52075 -0.3647 0
M  V30 4176 H 381.861 2.77864 -2.0161 0
M  V30 4177 N 384.306 0.507319 1.49211 0
M  V30 4178 C 385.236 -0.256939 2.32082 0
M  V30 4179 C 386.217 -0.956609 1.40652 0
M  V30 4180 O 387.402 -0.946788 1.69557 0
M  V30 4181 C 384.532 -1.31802 3.21318 0
M  V30 4182 C 383.486 -0.737855 4.21592 0
M  V30 4183 C 382.812 -1.89992 4.99807 0
M  V30 4184 C 384.112 0.275325 5.21574 0
M  V30 4185 H 385.806 0.434798 2.96226 0
M  V30 4186 H 383.352 0.210546 1.42452 0
M  V30 4187 H 385.305 -1.86045 3.78107 0
M  V30 4188 H 384.029 -2.03903 2.5513 0
M  V30 4189 H 382.688 -0.217126 3.65956 0
M  V30 4190 H 382.336 -2.60877 4.30061 0
M  V30 4191 H 382.036 -1.51777 5.6766 0
M  V30 4192 H 383.56 -2.44657 5.59442 0
M  V30 4193 H 384.974 -0.179193 5.7302 0
M  V30 4194 H 383.371 0.573649 5.97352 0
M  V30 4195 H 384.441 1.18903 4.70096 0
M  V30 4196 N 385.784 -1.5574 0.241426 0
M  V30 4197 C 386.714 -2.24133 -0.654722 0
M  V30 4198 C 387.695 -1.21974 -1.1856 0
M  V30 4199 O 388.88 -1.50612 -1.22595 0
M  V30 4200 C 386.01 -2.93659 -1.85423 0
M  V30 4201 C 384.964 -4.0246 -1.45636 0
M  V30 4202 C 384.29 -4.59383 -2.73626 0
M  V30 4203 C 385.59 -5.18468 -0.631506 0
M  V30 4204 H 387.284 -2.99281 -0.0844353 0
M  V30 4205 H 384.83 -1.43947 -0.0391707 0
M  V30 4206 H 386.783 -3.40203 -2.48676 0
M  V30 4207 H 385.507 -2.15991 -2.44981 0
M  V30 4208 H 384.166 -3.56676 -0.847202 0
M  V30 4209 H 383.814 -3.78422 -3.3137 0
M  V30 4210 H 383.514 -5.32826 -2.4773 0
M  V30 4211 H 385.038 -5.08658 -3.37786 0
M  V30 4212 H 386.452 -5.61272 -1.1682 0
M  V30 4213 H 384.849 -5.98266 -0.468831 0
M  V30 4214 H 385.919 -4.8358 0.357506 0
M  V30 4215 N 387.262 0.0317525 -1.57568 0
M  V30 4216 C 388.511 0.722131 -1.8833 0
M  V30 4217 C 388.824 1.76664 -0.839587 0
M  V30 4218 O 390.03 2.50942 -1.03635 0
M  V30 4219 C 388.486 1.33544 -3.34207 0
M  V30 4220 C 388.094 0.327415 -4.46802 0
M  V30 4221 C 389.838 2.00585 -3.7412 0
M  V30 4222 C 387.745 0.948915 -5.83738 0
M  V30 4223 H 386.675 0.273466 -0.702661 0
M  V30 4224 H 389.326 -0.0235811 -1.83485 0
M  V30 4225 H 387.708 2.13077 -3.33788 0
M  V30 4226 H 388.882 -0.441006 -4.58685 0
M  V30 4227 H 387.197 -0.240758 -4.15703 0
M  V30 4228 H 389.794 2.47932 -4.73744 0
M  V30 4229 H 390.137 2.82285 -3.05975 0
M  V30 4230 H 390.67 1.27831 -3.76702 0
M  V30 4231 H 387.409 0.171387 -6.55276 0
M  V30 4232 H 386.929 1.68724 -5.7558 0
M  V30 4233 H 388.608 1.45705 -6.3038 0
M  V30 4234 N 388.74 1.54641 0.303973 0
M  V30 4235 C 389.69 1.8177 1.37636 0
M  V30 4236 C 390.674 0.674697 1.46071 0
M  V30 4237 O 391.866 0.935251 1.50273 0
M  V30 4238 C 388.995 2.06584 2.74186 0
M  V30 4239 C 388.081 3.2706 2.69986 0
M  V30 4240 N 388.472 4.47682 2.35402 0
M  V30 4241 C 386.77 3.29028 3.01092 0
M  V30 4242 C 387.471 5.29689 2.40426 0
M  V30 4243 N 386.447 4.67339 2.7766 0
M  V30 4244 H 390.249 2.72596 1.09857 0
M  V30 4245 H 387.763 1.541 0.51254 0
M  V30 4246 H 389.76 2.24166 3.51504 0
M  V30 4247 H 388.42 1.17024 3.02879 0
M  V30 4248 H 389.431 4.74336 2.07908 0
M  V30 4249 H 386.108 2.49565 3.34699 0
M  V30 4250 H 387.498 6.3606 2.16512 0
M  V30 4251 N 390.218 -0.567019 1.47046 0
M  V30 4252 C 391.466 -1.322 1.52864 0
M  V30 4253 C 391.787 -1.94088 0.188388 0
M  V30 4254 O 391.057 -1.7941 -0.786693 0
M  V30 4255 H 389.637 -0.490894 0.563056 0
M  V30 4256 H 392.299 -0.662879 1.83281 0
M  V30 4257 H 391.395 -2.12062 2.2899 0
M  V30 4258 N 391.696 -1.35014 -0.812953 0
M  V30 4259 C 392.921 -1.31187 -1.60639 0
M  V30 4260 C 393.346 0.109382 -1.87782 0
M  V30 4261 O 392.704 1.07424 -1.46047 0
M  V30 4262 C 392.752 -2.11809 -2.91838 0
M  V30 4263 O 391.856 -1.49444 -3.8437 0
M  V30 4264 H 391.197 -0.450084 -0.488181 0
M  V30 4265 H 393.727 -1.77963 -1.00947 0
M  V30 4266 H 393.737 -2.23531 -3.41318 0
M  V30 4267 H 392.412 -3.15137 -2.71407 0
M  V30 4268 H 390.989 -1.46524 -3.42907 0
M  V30 4269 N 393.175 1.03435 -1.18907 0
M  V30 4270 C 394.423 1.76394 -0.986382 0
M  V30 4271 C 394.744 1.88883 0.484567 0
M  V30 4272 O 394.014 1.41843 1.3512 0
M  V30 4273 H 392.594 0.65344 -0.361975 0
M  V30 4274 H 395.256 1.248 -1.49703 0
M  V30 4275 H 394.352 2.77424 -1.42978 0
M  V30 4276 N 394.653 0.992116 1.22453 0
M  V30 4277 C 395.585 0.500024 2.23679 0
M  V30 4278 C 396.598 -0.404463 1.57696 0
M  V30 4279 O 397.787 -0.206722 1.77299 0
M  V30 4280 C 394.887 -0.294711 3.37616 0
M  V30 4281 C 394.06 0.605723 4.33186 0
M  V30 4282 C 393.119 -0.13717 5.26021 0
M  V30 4283 O 392.145 0.477164 5.67196 0
M  V30 4284 N 393.347 -1.4197 5.62872 0
M  V30 4285 H 396.112 1.37045 2.66531 0
M  V30 4286 H 393.673 0.866741 1.36745 0
M  V30 4287 H 395.665 -0.800329 3.96707 0
M  V30 4288 H 394.235 -1.06623 2.93854 0
M  V30 4289 H 393.455 1.29202 3.72425 0
M  V30 4290 H 394.743 1.21896 4.93983 0
M  V30 4291 H 394.141 -1.94015 5.31389 0
M  V30 4292 H 392.698 -1.87052 6.24383 0
M  V30 4293 N 396.131 -1.37776 0.765217 0
M  V30 4294 C 397.079 -2.32209 0.134798 0
M  V30 4295 C 398.073 -1.54607 -0.692315 0
M  V30 4296 O 399.279 -1.70052 -0.590109 0
M  V30 4297 H 395.654 -0.751591 0.0248005 0
M  V30 4298 H 397.625 -2.8297 0.947119 0
M  V30 4299 C 396.374 -3.39841 -0.735063 0
M  V30 4300 H 395.697 -3.99654 -0.107991 0
M  V30 4301 H 397.137 -4.08296 -1.14326 0
M  V30 4302 C 395.596 -2.79378 -1.88281 0
M  V30 4303 O 396.126 -2.69608 -2.97783 0
M  V30 4304 N 394.332 -2.37016 -1.68142 0
M  V30 4305 H 393.879 -2.45162 -0.790772 0
M  V30 4306 H 393.837 -1.96905 -2.45104 0
M  V30 4307 N 397.609 -0.515225 -1.4894 0
M  V30 4308 C 398.556 0.255567 -2.29381 0
M  V30 4309 C 399.526 0.947387 -1.36432 0
M  V30 4310 O 400.711 0.951288 -1.65394 0
M  V30 4311 C 397.851 1.30551 -3.19453 0
M  V30 4312 C 396.964 0.624029 -4.27469 0
M  V30 4313 C 396.099 1.65563 -5.0474 0
M  V30 4314 C 395.138 0.956802 -6.04576 0
M  V30 4315 N 394.275 1.93326 -6.74959 0
M  V30 4316 H 399.115 -0.436607 -2.94784 0
M  V30 4317 H 396.652 -0.227154 -1.45336 0
M  V30 4318 H 398.61 1.92639 -3.70062 0
M  V30 4319 H 397.24 1.96626 -2.56004 0
M  V30 4320 H 396.292 -0.110459 -3.8024 0
M  V30 4321 H 397.604 0.0746092 -4.98744 0
M  V30 4322 H 396.758 2.35119 -5.59289 0
M  V30 4323 H 395.497 2.23893 -4.3327 0
M  V30 4324 H 394.502 0.247097 -5.49244 0
M  V30 4325 H 395.727 0.379814 -6.78037 0
M  V30 4326 H 393.673 2.50591 -6.06251 0
M  V30 4327 H 393.59 1.43489 -7.42258 0
M  V30 4328 H 394.858 2.62126 -7.34105 0
M  V30 4329 N 399.087 1.5561 -0.249682 0
M  V30 4330 C 400.315 2.03411 0.378352 0
M  V30 4331 C 400.73 1.12886 1.51335 0
M  V30 4332 O 400.087 0.143833 1.81932 0
M  V30 4333 C 400.138 3.50537 0.88351 0
M  V30 4334 O 399.859 4.37614 -0.20626 0
M  V30 4335 C 401.36 4.14113 1.58195 0
M  V30 4336 H 398.58 0.664994 0.08958 0
M  V30 4337 H 401.124 2.01044 -0.374357 0
M  V30 4338 H 399.279 3.5343 1.58639 0
M  V30 4339 H 399.693 5.24199 0.177782 0
M  V30 4340 H 401.167 5.18741 1.8871 0
M  V30 4341 H 401.644 3.60767 2.50487 0
M  V30 4342 H 402.25 4.15151 0.923573 0
M  V30 4343 N 400.565 -0.0233959 1.57583 0
M  V30 4344 C 401.497 -1.04994 2.03737 0
M  V30 4345 C 402.51 -1.32125 0.951152 0
M  V30 4346 O 403.699 -1.29512 1.22837 0
M  V30 4347 C 400.799 -2.39026 2.40249 0
M  V30 4348 C 399.972 -2.31171 3.7132 0
M  V30 4349 C 399.031 -3.47698 3.94959 0
M  V30 4350 O 398.057 -3.26937 4.65941 0
M  V30 4351 N 399.259 -4.6976 3.41037 0
M  V30 4352 H 402.024 -0.656507 2.92421 0
M  V30 4353 H 399.585 -0.211235 1.60516 0
M  V30 4354 H 401.577 -3.15712 2.53196 0
M  V30 4355 H 400.147 -2.70194 1.57207 0
M  V30 4356 H 399.367 -1.39547 3.68674 0
M  V30 4357 H 400.655 -2.23071 4.57293 0
M  V30 4358 H 400.053 -4.89528 2.83512 0
M  V30 4359 H 398.61 -5.43791 3.59353 0
M  V30 4360 N 402.043 -1.548 -0.295768 0
M  V30 4361 C 403.291 -1.73985 -1.02828 0
M  V30 4362 C 403.612 -0.531406 -1.87619 0
M  V30 4363 O 402.882 0.454221 -1.90561 0
M  V30 4364 H 401.462 -0.641556 -0.382642 0
M  V30 4365 H 404.124 -1.92163 -0.325489 0
M  V30 4366 H 403.22 -2.63129 -1.67838 0
M  V30 4367 N 403.521 0.559213 -1.47345 0
M  V30 4368 C 404.768 1.31648 -1.53867 0
M  V30 4369 C 405.096 1.93468 -0.200104 0
M  V30 4370 O 404.351 1.78295 0.806799 0
M  V30 4371 C 404.65 2.44853 -2.6035 0
M  V30 4372 C 404.316 2.00876 -4.03683 0
M  V30 4373 C 402.978 1.88599 -4.42701 0
M  V30 4374 C 405.33 1.67279 -4.93626 0
M  V30 4375 C 402.658 1.41017 -5.69501 0
M  V30 4376 C 405.01 1.21169 -6.20887 0
M  V30 4377 C 403.674 1.07487 -6.58789 0
M  V30 4378 H 402.944 0.481734 -0.56304 0
M  V30 4379 H 405.591 0.627301 -1.80934 0
M  V30 4380 H 403.896 3.19318 -2.27032 0
M  V30 4381 H 405.593 3.03039 -2.62619 0
M  V30 4382 H 402.183 2.11374 -3.72853 0
M  V30 4383 H 406.367 1.75638 -4.64182 0
M  V30 4384 H 401.623 1.29086 -5.97618 0
M  V30 4385 H 405.797 0.942345 -6.89995 0
M  V30 4386 H 403.424 0.703946 -7.56934 0
M  V30 4387 N 404.999 1.35443 0.805782 0
M  V30 4388 C 406.415 1.15499 1.10146 0
M  V30 4389 C 406.615 -0.0319975 2.01475 0
M  V30 4390 O 405.671 -0.70236 2.42535 0
M  V30 4391 C 406.984 2.45833 1.73166 0
M  V30 4392 C 408.532 2.52047 1.85583 0
M  V30 4393 C 409.007 3.82427 2.52019 0
M  V30 4394 N 410.498 3.83682 2.59504 0
M  V30 4395 C 411.233 4.81294 3.11679 0
M  V30 4396 N 410.729 5.89294 3.64287 0
M  V30 4397 N 412.522 4.6873 3.1024 0
M  V30 4398 H 404.673 2.11469 0.198678 0
M  V30 4399 H 406.936 0.93594 0.150731 0
M  V30 4400 H 406.642 3.32874 1.13526 0
M  V30 4401 H 406.516 2.6044 2.72857 0
M  V30 4402 H 408.903 1.65435 2.44367 0
M  V30 4403 H 408.984 2.41354 0.847455 0
M  V30 4404 H 408.628 4.69437 1.93885 0
M  V30 4405 H 408.558 3.90409 3.53395 0
M  V30 4406 H 411.049 3.05648 2.22234 0
M  V30 4407 H 411.362 6.59768 4.02401 0
M  V30 4408 H 409.707 5.92985 3.62483 0
M  V30 4409 H 412.898 3.83496 2.68419 0
M  V30 4410 H 413.071 5.44965 3.50596 0
M  V30 4411 N 406.477 -1.02803 1.19454 0
M  V30 4412 C 407.424 -2.11099 0.933046 0
M  V30 4413 C 408.394 -1.65571 -0.132447 0
M  V30 4414 O 409.579 -1.90797 0.00987576 0
M  V30 4415 C 406.719 -3.41763 0.478747 0
M  V30 4416 C 405.832 -4.00833 1.6111 0
M  V30 4417 C 404.967 -5.19511 1.10825 0
M  V30 4418 C 404.006 -5.70639 2.21445 0
M  V30 4419 N 403.143 -6.80589 1.72461 0
M  V30 4420 H 407.983 -2.32804 1.86028 0
M  V30 4421 H 405.52 -1.14179 0.927441 0
M  V30 4422 H 407.478 -4.16736 0.196745 0
M  V30 4423 H 406.108 -3.20166 -0.411493 0
M  V30 4424 H 405.16 -3.23066 2.00829 0
M  V30 4425 H 406.472 -4.34794 2.4445 0
M  V30 4426 H 405.626 -6.01645 0.781533 0
M  V30 4427 H 404.365 -4.87086 0.244606 0
M  V30 4428 H 403.37 -4.87116 2.54947 0
M  V30 4429 H 404.595 -6.05102 3.08267 0
M  V30 4430 H 402.541 -6.50016 0.884056 0
M  V30 4431 H 402.458 -7.13681 2.49389 0
M  V30 4432 H 403.726 -7.66317 1.42755 0
M  V30 4433 N 407.956 -0.998596 -1.21925 0
M  V30 4434 C 408.919 -0.558679 -2.22287 0
M  V30 4435 C 409.919 0.361525 -1.56683 0
M  V30 4436 O 411.109 0.152695 -1.73529 0
M  V30 4437 C 408.241 0.18661 -3.40389 0
M  V30 4438 H 409.434 -1.4463 -2.62721 0
M  V30 4439 H 406.987 -0.786413 -1.35075 0
M  V30 4440 H 407.722 1.08996 -3.05435 0
M  V30 4441 H 407.507 -0.474188 -3.89222 0
M  V30 4442 H 408.997 0.482367 -4.14805 0
M  V30 4443 N 409.434 1.37368 -0.772513 0
M  V30 4444 C 410.683 1.98918 -0.333861 0
M  V30 4445 C 410.996 1.62017 1.09589 0
M  V30 4446 O 412.202 2.16676 1.63596 0
M  V30 4447 C 410.658 3.55735 -0.545971 0
M  V30 4448 C 410.266 4.01573 -1.98603 0
M  V30 4449 C 412.01 4.24156 -0.170979 0
M  V30 4450 C 409.917 5.51102 -2.1457 0
M  V30 4451 H 408.847 0.744214 -0.121085 0
M  V30 4452 H 411.498 1.56888 -0.95175 0
M  V30 4453 H 409.88 3.95748 0.141387 0
M  V30 4454 H 411.054 3.72803 -2.7084 0
M  V30 4455 H 409.369 3.45937 -2.31769 0
M  V30 4456 H 411.966 5.34024 -0.26878 0
M  V30 4457 H 412.309 4.06917 0.878855 0
M  V30 4458 H 412.842 3.89447 -0.810914 0
M  V30 4459 H 409.581 5.73268 -3.17875 0
M  V30 4460 H 409.101 5.81554 -1.46817 0
M  V30 4461 H 410.78 6.17083 -1.94468 0
M  V30 4462 N 410.912 0.523116 1.48665 0
M  V30 4463 C 412.137 -0.0117284 2.07397 0
M  V30 4464 C 412.562 -1.28031 1.37803 0
M  V30 4465 O 411.92 -1.75836 0.441762 0
M  V30 4466 C 411.968 -0.225786 3.59892 0
M  V30 4467 O 411.072 -1.29592 3.91509 0
M  V30 4468 H 410.413 0.0360673 0.66302 0
M  V30 4469 H 412.943 0.729066 1.9117 0
M  V30 4470 H 412.953 -0.450552 4.05505 0
M  V30 4471 H 411.628 0.700944 4.09951 0
M  V30 4472 H 410.205 -1.05436 3.57684 0
M  V30 4473 N 412.39 -1.55475 0.257931 0
M  V30 4474 C 413.63 -2.01112 -0.365129 0
M  V30 4475 C 413.994 -1.1423 -1.54323 0
M  V30 4476 O 415.195 -1.49371 -2.23477 0
M  V30 4477 C 413.466 -3.49353 -0.754117 0
M  V30 4478 S 415.025 -4.16992 -1.36614 0
M  V30 4479 H 411.843 -0.701737 -0.114397 0
M  V30 4480 H 414.445 -1.91855 0.375747 0
M  V30 4481 H 413.149 -4.10246 0.112441 0
M  V30 4482 H 412.68 -3.6256 -1.52689 0
M  V30 4483 H 414.695 -4.19191 -2.65505 0
M  V30 4484 N 413.868 0.0150385 -1.57593 0
M  V30 4485 C 414.818 1.01943 -2.0394 0
M  V30 4486 C 415.802 1.31209 -0.931286 0
M  V30 4487 O 416.994 1.30559 -1.19513 0
M  V30 4488 C 414.123 2.31621 -2.53391 0
M  V30 4489 C 413.209 2.05384 -3.7105 0
M  V30 4490 N 413.6 1.49253 -4.83278 0
M  V30 4491 C 411.898 2.35601 -3.78693 0
M  V30 4492 C 412.599 1.39143 -5.64813 0
M  V30 4493 N 411.575 1.87187 -5.10355 0
M  V30 4494 H 415.377 0.57969 -2.88126 0
M  V30 4495 H 412.891 0.221056 -1.60888 0
M  V30 4496 H 414.888 3.044 -2.84862 0
M  V30 4497 H 413.548 2.76261 -1.70616 0
M  V30 4498 H 414.559 1.17334 -5.04433 0
M  V30 4499 H 411.236 2.8322 -3.06746 0
M  V30 4500 H 412.626 0.961153 -6.6499 0
M  V30 4501 N 415.346 1.54954 0.287554 0
M  V30 4502 C 416.593 1.74873 1.02106 0
M  V30 4503 C 416.921 0.541829 1.86801 0
M  V30 4504 O 416.176 -0.475992 1.89823 0
M  V30 4505 C 416.475 2.99833 1.94512 0
M  V30 4506 C 416.141 4.33029 1.25686 0
M  V30 4507 C 414.803 4.69233 1.06649 0
M  V30 4508 C 417.155 5.15542 0.765913 0
M  V30 4509 C 414.483 5.85518 0.372222 0
M  V30 4510 C 416.835 6.32542 0.0853101 0
M  V30 4511 C 415.499 6.67398 -0.1169 0
M  V30 4512 H 414.769 0.639906 0.373632 0
M  V30 4513 H 417.416 1.89219 0.294665 0
M  V30 4514 H 415.721 2.80325 2.73725 0
M  V30 4515 H 417.418 3.1244 2.51361 0
M  V30 4516 H 414.008 4.04564 1.41512 0
M  V30 4517 H 418.192 4.88059 0.90066 0
M  V30 4518 H 413.448 6.11057 0.204695 0
M  V30 4519 H 417.622 6.95741 -0.302936 0
M  V30 4520 H 415.249 7.57357 -0.656859 0
M  V30 4521 N 416.824 -0.551391 1.4764 0
M  V30 4522 C 417.787 -1.64007 1.60107 0
M  V30 4523 C 418.787 -1.53601 0.47576 0
M  V30 4524 O 419.977 -1.57655 0.740988 0
M  V30 4525 C 417.109 -3.03569 1.55108 0
M  V30 4526 H 418.302 -1.543 2.57161 0
M  V30 4527 H 415.855 -0.771776 1.35917 0
M  V30 4528 H 416.59 -3.18804 0.594519 0
M  V30 4529 H 416.375 -3.12532 2.36783 0
M  V30 4530 H 417.865 -3.82762 1.66982 0
M  V30 4531 N 418.302 -1.35869 -0.798587 0
M  V30 4532 C 419.527 -1.32883 -1.59238 0
M  V30 4533 C 419.952 0.0894587 -1.87887 0
M  V30 4534 O 419.31 1.05869 -1.47178 0
M  V30 4535 C 419.358 -2.14892 -2.89575 0
M  V30 4536 O 418.462 -1.53512 -3.82763 0
M  V30 4537 H 417.803 -0.455236 -0.48338 0
M  V30 4538 H 420.333 -1.79024 -0.990539 0
M  V30 4539 H 420.343 -2.27139 -3.38928 0
M  V30 4540 H 419.018 -3.17998 -2.68049 0
M  V30 4541 H 417.595 -1.50153 -3.41334 0
M  V30 4542 N 419.78 1.02168 -1.19998 0
M  V30 4543 C 420.743 2.08765 -0.94604 0
M  V30 4544 C 421.743 1.60618 0.0763846 0
M  V30 4545 O 422.933 1.73472 -0.159135 0
M  V30 4546 C 420.065 3.38262 -0.423255 0
M  V30 4547 H 421.258 2.32726 -1.89153 0
M  V30 4548 H 418.811 1.1889 -1.01464 0
M  V30 4549 H 419.546 3.19974 0.527938 0
M  V30 4550 H 419.331 3.74532 -1.16053 0
M  V30 4551 H 420.821 4.16759 -0.264911 0
M  V30 4552 N 421.258 1.00505 1.21394 0
M  V30 4553 C 422.535 0.603277 1.86064 0
M  V30 4554 C 422.915 -0.919095 1.90042 0
M  V30 4555 O 422.263 -1.80607 1.39977 0
M  V30 4556 C 422.473 1.23772 3.26315 0
M  V30 4557 C 423.821 1.34586 4.02705 0
M  V30 4558 O 424.845 1.19304 3.35626 0
M  V30 4559 O 423.704 1.59169 5.22807 0
M  V30 4560 H 420.798 0.206634 0.800769 0
M  V30 4561 H 423.344 1.1017 1.29076 0
M  V30 4562 H 422.116 2.27848 3.18121 0
M  V30 4563 H 421.739 0.725648 3.90922 0
M  V30 4564 N 422.737 -1.36956 0.779787 0
M  V30 4565 C 423.977 -2.01328 0.353043 0
M  V30 4566 C 424.341 -1.60558 -1.05286 0
M  V30 4567 O 425.542 -2.1745 -1.58016 0
M  V30 4568 C 423.813 -3.53874 0.500822 0
M  V30 4569 S 425.372 -4.38506 0.16053 0
M  V30 4570 H 422.19 -0.69799 0.13539 0
M  V30 4571 H 424.792 -1.67016 1.01617 0
M  V30 4572 H 423.496 -3.81034 1.52451 0
M  V30 4573 H 423.027 -3.92994 -0.178574 0
M  V30 4574 H 425.042 -4.85153 -1.04121 0
M  V30 4575 N 424.215 -0.530993 -1.48385 0
M  V30 4576 C 425.165 0.251092 -2.26613 0
M  V30 4577 C 426.149 0.908977 -1.32765 0
M  V30 4578 O 427.341 0.811616 -1.57295 0
M  V30 4579 C 424.47 1.29677 -3.17866 0
M  V30 4580 C 423.556 0.643627 -4.19188 0
M  V30 4581 N 423.947 -0.271223 -5.05072 0
M  V30 4582 C 422.245 0.900711 -4.3681 0
M  V30 4583 C 422.946 -0.648109 -5.78078 0
M  V30 4584 N 421.922 -0.00895987 -5.43599 0
M  V30 4585 H 425.724 -0.452702 -2.90393 0
M  V30 4586 H 423.238 -0.349091 -1.58604 0
M  V30 4587 H 425.235 1.87079 -3.72568 0
M  V30 4588 H 423.895 2.00193 -2.55642 0
M  V30 4589 H 424.906 -0.643883 -5.13882 0
M  V30 4590 H 421.583 1.59636 -3.85775 0
M  V30 4591 H 422.973 -1.39833 -6.57188 0
M  V30 4592 N 425.693 1.55336 -0.266172 0
M  V30 4593 C 426.923 2.03506 0.356239 0
M  V30 4594 C 427.331 1.14426 1.50676 0
M  V30 4595 O 426.674 0.155043 1.83045 0
M  V30 4596 C 426.736 3.47848 0.90785 0
M  V30 4597 C 426.4 4.56861 -0.112888 0
M  V30 4598 C 427.397 5.11528 -0.929264 0
M  V30 4599 C 425.082 5.01704 -0.244546 0
M  V30 4600 C 427.076 6.09549 -1.86357 0
M  V30 4601 C 424.763 5.99553 -1.18234 0
M  V30 4602 C 425.761 6.53356 -1.99036 0
M  V30 4603 O 425.449 7.49293 -2.91231 0
M  V30 4604 H 425.181 0.670444 0.08649 0
M  V30 4605 H 427.735 2.01598 -0.39337 0
M  V30 4606 H 425.965 3.46967 1.70737 0
M  V30 4607 H 427.654 3.79407 1.44239 0
M  V30 4608 H 428.42 4.77701 -0.838237 0
M  V30 4609 H 424.299 4.59477 0.374359 0
M  V30 4610 H 427.843 6.51469 -2.49467 0
M  V30 4611 H 423.74 6.32799 -1.27421 0
M  V30 4612 H 424.508 7.66978 -2.8581 0
M  V30 4613 N 427.171 -0.0066808 1.57599 0
M  V30 4614 C 428.42 -0.692078 1.89455 0
M  V30 4615 C 428.733 -1.75306 0.867586 0
M  V30 4616 O 429.939 -2.49262 1.07614 0
M  V30 4617 C 428.395 -1.2821 3.36289 0
M  V30 4618 C 428.003 -0.256291 4.47266 0
M  V30 4619 C 429.747 -1.94608 3.77264 0
M  V30 4620 C 427.654 -0.855927 5.85173 0
M  V30 4621 H 426.584 -0.262252 0.706923 0
M  V30 4622 H 429.235 0.052769 1.83424 0
M  V30 4623 H 427.617 -2.0774 3.37135 0
M  V30 4624 H 428.791 0.513923 4.57925 0
M  V30 4625 H 427.106 0.306862 4.15268 0
M  V30 4626 H 429.703 -2.40364 4.77629 0
M  V30 4627 H 430.046 -2.77382 3.10427 0
M  V30 4628 H 430.579 -1.21822 3.78688 0
M  V30 4629 H 427.318 -0.0671161 6.55466 0
M  V30 4630 H 426.838 -1.59546 5.78191 0
M  V30 4631 H 428.517 -1.35658 6.32618 0
M  V30 4632 N 428.649 -1.55105 -0.279332 0
M  V30 4633 C 429.926 -1.66119 -1.03267 0
M  V30 4634 C 430.306 -0.523525 -2.04505 0
M  V30 4635 O 429.654 0.477194 -2.23462 0
M  V30 4636 C 429.864 -3.05067 -1.69515 0
M  V30 4637 C 431.212 -3.62606 -2.20912 0
M  V30 4638 O 432.236 -3.07659 -1.79512 0
M  V30 4639 O 431.095 -4.58861 -2.96831 0
M  V30 4640 H 428.189 -0.674429 -0.478618 0
M  V30 4641 H 430.735 -1.67446 -0.275694 0
M  V30 4642 H 429.507 -3.79311 -0.9612 0
M  V30 4643 H 429.13 -3.07611 -2.51915 0
M  V30 4644 N 430.127 0.543554 -1.4793 0
M  V30 4645 C 431.373 1.30201 -1.55485 0
M  V30 4646 C 431.706 1.92925 -0.222201 0
M  V30 4647 O 430.981 1.78586 0.77053 0
M  V30 4648 C 431.264 2.40174 -2.68307 0
M  V30 4649 C 431.117 1.8223 -4.11233 0
M  V30 4650 C 432.436 3.42024 -2.76961 0
M  V30 4651 H 429.555 0.472036 -0.565996 0
M  V30 4652 H 432.197 0.606914 -1.80046 0
M  V30 4653 H 430.347 2.99463 -2.47495 0
M  V30 4654 H 432.019 1.27096 -4.43446 0
M  V30 4655 H 430.262 1.12832 -4.18869 0
M  V30 4656 H 430.933 2.61793 -4.85972 0
M  V30 4657 H 433.409 2.92672 -2.95774 0
M  V30 4658 H 432.285 4.16383 -3.57654 0
M  V30 4659 H 432.546 4.0173 -1.84568 0
M  V30 4660 N 431.605 1.3629 0.791371 0
M  V30 4661 C 432.552 1.30458 1.90393 0
M  V30 4662 C 433.522 0.173632 1.6519 0
M  V30 4663 O 434.707 0.35983 1.87376 0
M  V30 4664 C 431.847 1.09777 3.27174 0
M  V30 4665 C 430.96 2.31929 3.64462 0
M  V30 4666 C 430.095 2.04276 4.90352 0
M  V30 4667 C 429.134 3.224 5.20312 0
M  V30 4668 N 428.271 2.94424 6.37385 0
M  V30 4669 H 433.111 2.25589 1.94714 0
M  V30 4670 H 430.648 1.12122 0.952216 0
M  V30 4671 H 432.606 0.958133 4.06049 0
M  V30 4672 H 431.236 0.183014 3.22281 0
M  V30 4673 H 430.288 2.56703 2.80727 0
M  V30 4674 H 431.6 3.20085 3.82553 0
M  V30 4675 H 430.754 1.87231 5.77087 0
M  V30 4676 H 429.493 1.13428 4.74326 0
M  V30 4677 H 428.498 3.40005 4.32061 0
M  V30 4678 H 429.723 4.14071 5.38258 0
M  V30 4679 H 427.669 2.06185 6.22755 0
M  V30 4680 H 427.586 3.76118 6.55798 0
M  V30 4681 H 428.854 2.80953 7.27108 0
M  V30 4682 N 433.083 -1.0153 1.20538 0
M  V30 4683 C 434.331 -1.74803 1.01432 0
M  V30 4684 C 434.652 -1.8963 -0.454456 0
M  V30 4685 O 433.922 -1.43975 -1.32846 0
M  V30 4686 H 432.502 -0.647598 0.372324 0
M  V30 4687 H 435.164 -1.22402 1.5167 0
M  V30 4688 H 434.26 -2.75114 1.47373 0
M  V30 4689 N 434.561 -1.01147 -1.20859 0
M  V30 4690 C 435.789 -0.716911 -1.94082 0
M  V30 4691 C 436.204 0.721568 -1.74467 0
M  V30 4692 O 435.561 1.48889 -1.05539 0
M  V30 4693 C 435.612 -1.03662 -3.46318 0
M  V30 4694 O 435.333 -2.4186 -3.65288 0
M  V30 4695 C 436.834 -0.762386 -4.36695 0
M  V30 4696 H 434.054 -0.26367 -0.617024 0
M  V30 4697 H 436.598 -1.35127 -1.53496 0
M  V30 4698 H 434.753 -0.447757 -3.84804 0
M  V30 4699 H 435.167 -2.53224 -4.59323 0
M  V30 4700 H 436.641 -1.03621 -5.42187 0
M  V30 4701 H 437.118 0.303514 -4.3815 0
M  V30 4702 H 437.724 -1.33316 -4.03865 0
M  V30 4703 N 436.039 1.36541 -0.78704 0
M  V30 4704 C 437.264 2.0409 -0.369053 0
M  V30 4705 C 437.689 1.58957 1.00569 0
M  V30 4706 O 437.047 0.756926 1.64743 0
M  V30 4707 C 437.095 3.57924 -0.438466 0
M  V30 4708 O 436.199 4.08642 0.555479 0
M  V30 4709 H 435.54 0.645142 -0.157122 0
M  V30 4710 H 438.07 1.74545 -1.06749 0
M  V30 4711 H 438.08 4.06887 -0.301218 0
M  V30 4712 H 436.755 3.90127 -1.44132 0
M  V30 4713 H 435.332 3.70958 0.380088 0
M  V30 4714 N 437.518 0.538854 1.48102 0
M  V30 4715 C 438.45 -0.256278 2.27763 0
M  V30 4716 C 439.463 -0.89633 1.35904 0
M  V30 4717 O 440.652 -0.773275 1.60881 0
M  V30 4718 C 437.752 -1.37896 3.09577 0
M  V30 4719 C 436.925 -0.839159 4.29275 0
M  V30 4720 C 435.984 -1.84405 4.9283 0
M  V30 4721 O 435.01 -1.39746 5.51779 0
M  V30 4722 N 436.212 -3.17666 4.85869 0
M  V30 4723 H 438.977 0.426968 2.96643 0
M  V30 4724 H 436.538 0.373747 1.57527 0
M  V30 4725 H 438.53 -2.04955 3.48963 0
M  V30 4726 H 437.1 -1.96572 2.4306 0
M  V30 4727 H 436.32 0.00769287 3.94199 0
M  V30 4728 H 437.608 -0.457548 5.06739 0
M  V30 4729 H 437.006 -3.56609 4.39143 0
M  V30 4730 H 435.563 -3.80334 5.29329 0
M  V30 4731 N 438.996 -1.55193 0.274407 0
M  V30 4732 C 439.906 -2.26164 -0.623473 0
M  V30 4733 C 440.922 -1.28729 -1.17068 0
M  V30 4734 O 442.098 -1.61663 -1.20112 0
M  V30 4735 C 439.163 -2.96833 -1.7914 0
M  V30 4736 C 438.224 -4.09745 -1.28093 0
M  V30 4737 C 437.457 -4.77034 -2.3932 0
M  V30 4738 O 437.68 -4.4353 -3.5866 0
M  V30 4739 O 436.614 -5.64996 -2.07516 0
M  V30 4740 H 440.44 -3.03661 -0.0485661 0
M  V30 4741 H 438.025 -1.49341 0.0418382 0
M  V30 4742 H 439.907 -3.41248 -2.4724 0
M  V30 4743 H 438.582 -2.22253 -2.35341 0
M  V30 4744 H 437.489 -3.69787 -0.566416 0
M  V30 4745 H 438.822 -4.86224 -0.764683 0
M  V30 4746 N 440.474 -0.00167713 -1.576 0
M  V30 4747 C 441.422 1.0074 -2.09652 0
M  V30 4748 C 442.416 1.35483 -1.01689 0
M  V30 4749 O 443.622 1.34028 -1.20152 0
M  V30 4750 H 439.997 0.342537 -0.669457 0
M  V30 4751 H 441.968 0.542841 -2.93421 0
M  V30 4752 C 440.717 2.2899 -2.61647 0
M  V30 4753 H 440.04 2.03124 -3.44355 0
M  V30 4754 H 441.48 2.9787 -3.01744 0
M  V30 4755 C 439.939 3.00085 -1.53136 0
M  V30 4756 O 440.469 3.91135 -0.91524 0
M  V30 4757 N 438.675 2.6194 -1.25841 0
M  V30 4758 H 438.222 1.8798 -1.76129 0
M  V30 4759 H 438.18 3.09822 -0.534576 0
M  V30 4760 N 441.952 1.55251 0.271103 0
M  V30 4761 C 443.201 1.75151 1.00025 0
M  V30 4762 C 443.514 0.561041 1.87381 0
M  V30 4763 O 444.72 0.642506 2.63788 0
M  V30 4764 C 443.176 3.09999 1.82835 0
M  V30 4765 C 442.784 4.3662 1.00336 0
M  V30 4766 C 444.528 3.39249 2.55168 0
M  V30 4767 C 442.435 5.62506 1.82595 0
M  V30 4768 H 441.365 0.652877 0.377183 0
M  V30 4769 H 444.016 1.81708 0.255843 0
M  V30 4770 H 442.398 2.97485 2.61378 0
M  V30 4771 H 443.572 4.60055 0.261959 0
M  V30 4772 H 441.887 4.14527 0.394486 0
M  V30 4773 H 444.484 4.3051 3.1712 0
M  V30 4774 H 444.827 2.59467 3.2555 0
M  V30 4775 H 445.36 3.52869 1.83653 0
M  V30 4776 H 442.099 6.45041 1.16631 0
M  V30 4777 H 441.619 5.43211 2.54327 0
M  V30 4778 H 443.298 6.00875 2.39913 0
M  V30 4779 N 443.43 -0.535701 1.48216 0
M  V30 4780 C 444.34 -1.66785 1.64985 0
M  V30 4781 C 445.356 -1.65654 0.532414 0
M  V30 4782 O 446.532 -1.8471 0.80275 0
M  V30 4783 C 443.597 -3.0326 1.68031 0
M  V30 4784 C 442.658 -3.1529 2.9136 0
M  V30 4785 C 441.891 -4.45255 2.94252 0
M  V30 4786 O 442.114 -5.32011 2.05719 0
M  V30 4787 O 441.048 -4.6153 3.86359 0
M  V30 4788 H 444.874 -1.55576 2.60825 0
M  V30 4789 H 442.459 -0.70815 1.31551 0
M  V30 4790 H 444.341 -3.84436 1.72589 0
M  V30 4791 H 443.016 -3.14805 0.753628 0
M  V30 4792 H 441.923 -2.3343 2.92337 0
M  V30 4793 H 443.256 -3.08658 3.83394 0
M  V30 4794 N 444.908 -1.36708 -0.784132 0
M  V30 4795 C 445.855 -1.31466 -1.89698 0
M  V30 4796 C 446.825 -0.18239 -1.65096 0
M  V30 4797 O 448.01 -0.369762 -1.87183 0
M  V30 4798 C 445.15 -1.1151 -3.26588 0
M  V30 4799 C 444.263 -2.33859 -3.63227 0
M  V30 4800 C 443.398 -2.06873 -4.89262 0
M  V30 4801 C 442.437 -3.25154 -5.18595 0
M  V30 4802 N 441.574 -2.978 -6.35814 0
M  V30 4803 H 446.414 -2.26619 -1.93515 0
M  V30 4804 H 443.951 -1.12625 -0.946256 0
M  V30 4805 H 445.909 -0.979653 -4.05535 0
M  V30 4806 H 444.539 -0.200103 -3.22179 0
M  V30 4807 H 443.591 -2.58188 -2.79362 0
M  V30 4808 H 444.903 -3.22109 -3.8085 0
M  V30 4809 H 444.057 -1.90289 -5.76086 0
M  V30 4810 H 442.796 -1.15942 -4.73718 0
M  V30 4811 H 441.801 -3.42292 -4.30251 0
M  V30 4812 H 443.026 -4.1692 -5.36055 0
M  V30 4813 H 440.972 -2.09485 -6.21653 0
M  V30 4814 H 440.889 -3.7959 -6.53794 0
M  V30 4815 H 442.157 -2.84805 -7.25607 0
M  V30 4816 N 446.386 1.0089 -1.21074 0
M  V30 4817 C 447.296 2.13039 -0.982425 0
M  V30 4818 C 448.312 1.73881 0.0642161 0
M  V30 4819 O 449.488 2.01012 -0.12496 0
M  V30 4820 C 446.553 3.42377 -0.545803 0
M  V30 4821 C 445.614 3.95731 -1.6642 0
M  V30 4822 C 444.847 5.18896 -1.24832 0
M  V30 4823 O 445.07 5.70273 -0.120265 0
M  V30 4824 O 444.004 5.65597 -2.05873 0
M  V30 4825 H 447.83 2.35175 -1.92163 0
M  V30 4826 H 445.415 1.1142 -0.995285 0
M  V30 4827 H 447.297 4.20244 -0.311912 0
M  V30 4828 H 445.972 3.21639 0.364727 0
M  V30 4829 H 444.879 3.19108 -1.95246 0
M  V30 4830 H 446.212 4.20872 -2.55201 0
M  V30 4831 N 447.864 1.01787 1.20321 0
M  V30 4832 C 449.11 0.708985 1.90003 0
M  V30 4833 C 449.443 -0.759572 1.78729 0
M  V30 4834 O 448.718 -1.55198 1.17234 0
M  V30 4835 C 449.001 1.1469 3.41348 0
M  V30 4836 C 448.854 2.67586 3.61549 0
M  V30 4837 C 450.173 0.71915 4.34185 0
M  V30 4838 H 447.292 0.259034 0.689978 0
M  V30 4839 H 449.934 1.26584 1.41692 0
M  V30 4840 H 448.084 0.673128 3.82624 0
M  V30 4841 H 449.756 3.22826 3.29517 0
M  V30 4842 H 447.999 3.085 3.04976 0
M  V30 4843 H 448.67 2.93281 4.67643 0
M  V30 4844 H 451.146 1.12647 4.00562 0
M  V30 4845 H 450.022 1.05358 5.38694 0
M  V30 4846 H 450.283 -0.379111 4.40472 0
M  V30 4847 N 449.342 -1.36122 0.79427 0
M  V30 4848 C 450.588 -1.99406 0.369452 0
M  V30 4849 C 450.921 -1.62886 -1.05743 0
M  V30 4850 O 450.196 -0.886053 -1.73145 0
M  V30 4851 C 450.479 -3.56046 0.538833 0
M  V30 4852 C 450.332 -4.02404 2.00976 0
M  V30 4853 C 451.651 -4.40079 -0.0431359 0
M  V30 4854 H 448.77 -0.724397 0.135712 0
M  V30 4855 H 451.412 -1.61461 1.00151 0
M  V30 4856 H 449.562 -3.885 0.000771004 0
M  V30 4857 H 451.234 -3.80415 2.60926 0
M  V30 4858 H 449.477 -3.53765 2.51063 0
M  V30 4859 H 450.148 -5.11344 2.07922 0
M  V30 4860 H 452.624 -4.14013 0.416228 0
M  V30 4861 H 451.5 -5.48799 0.105374 0
M  V30 4862 H 451.761 -4.27264 -1.13571 0
M  V30 4863 N 450.82 -0.546701 -1.47814 0
M  V30 4864 C 452.068 -0.0187037 -2.02091 0
M  V30 4865 C 452.389 1.33168 -1.42447 0
M  V30 4866 O 451.659 1.86619 -0.595839 0
M  V30 4867 H 450.239 -0.00392531 -0.74699 0
M  V30 4868 H 452.901 -0.714327 -1.81338 0
M  V30 4869 H 451.997 0.0772219 -3.12004 0
M  V30 4870 N 452.299 1.55045 -0.282633 0
M  V30 4871 C 453.548 1.98938 0.332667 0
M  V30 4872 C 453.861 1.17455 1.56409 0
M  V30 4873 O 455.067 1.51527 2.25282 0
M  V30 4874 C 453.523 3.54105 0.643226 0
M  V30 4875 C 453.131 4.44374 -0.568814 0
M  V30 4876 C 454.875 4.06569 1.22074 0
M  V30 4877 C 452.782 5.90943 -0.232426 0
M  V30 4878 H 451.712 0.743043 0.128075 0
M  V30 4879 H 454.363 1.79341 -0.388464 0
M  V30 4880 H 452.745 3.69532 1.42346 0
M  V30 4881 H 453.919 4.40718 -1.34551 0
M  V30 4882 H 452.234 4.02585 -1.06369 0
M  V30 4883 H 454.831 5.13626 1.48635 0
M  V30 4884 H 455.174 3.56057 2.15707 0
M  V30 4885 H 455.707 3.94612 0.502621 0
M  V30 4886 H 452.446 6.45567 -1.13683 0
M  V30 4887 H 451.966 5.9765 0.507357 0
M  V30 4888 H 453.645 6.4677 0.172657 0
M  V30 4889 N 453.777 0.010035 1.57597 0
M  V30 4890 C 454.74 -0.963029 2.07986 0
M  V30 4891 C 455.74 -1.26619 0.991173 0
M  V30 4892 O 456.93 -1.2097 1.25347 0
M  V30 4893 C 454.062 -2.2851 2.52974 0
M  V30 4894 H 455.255 -0.526971 2.95234 0
M  V30 4895 H 452.808 -0.237639 1.54483 0
M  V30 4896 H 453.543 -2.76784 1.69 0
M  V30 4897 H 453.328 -2.07824 3.32493 0
M  V30 4898 H 454.818 -2.98294 2.9225 0
M  V30 4899 N 455.255 -1.55392 -0.262866 0
M  V30 4900 C 456.205 -1.85355 -1.32768 0
M  V30 4901 C 457.189 -0.713188 -1.44231 0
M  V30 4902 O 458.381 -0.974765 -1.47741 0
M  V30 4903 C 455.51 -2.13781 -2.68612 0
M  V30 4904 C 454.596 -3.34104 -2.61219 0
M  V30 4905 N 454.987 -4.53766 -2.2345 0
M  V30 4906 C 453.285 -3.36895 -2.92263 0
M  V30 4907 C 453.986 -5.35877 -2.26298 0
M  V30 4908 N 452.962 -4.74536 -2.65172 0
M  V30 4909 H 456.764 -2.75413 -1.02591 0
M  V30 4910 H 454.278 -1.55405 -0.471503 0
M  V30 4911 H 456.275 -2.33407 -3.45437 0
M  V30 4912 H 454.935 -1.25013 -2.99669 0
M  V30 4913 H 455.946 -4.79682 -1.95258 0
M  V30 4914 H 452.623 -2.58351 -3.27965 0
M  V30 4915 H 454.013 -6.41577 -1.99572 0
M  V30 4916 N 456.733 0.527833 -1.48498 0
M  V30 4917 C 457.68 1.6322 -1.6318 0
M  V30 4918 C 458.65 1.59199 -0.473815 0
M  V30 4919 O 459.835 1.77591 -0.697563 0
M  V30 4920 C 456.975 3.01474 -1.67951 0
M  V30 4921 C 456.088 3.15713 -2.94871 0
M  V30 4922 C 455.223 4.44539 -2.90789 0
M  V30 4923 C 454.262 4.52315 -4.12404 0
M  V30 4924 N 453.399 5.72533 -4.06387 0
M  V30 4925 H 458.239 1.50011 -2.57489 0
M  V30 4926 H 455.776 0.730298 -1.27691 0
M  V30 4927 H 457.734 3.81572 -1.68698 0
M  V30 4928 H 456.364 3.1345 -0.771306 0
M  V30 4929 H 455.416 2.28854 -3.03859 0
M  V30 4930 H 456.728 3.1732 -3.8485 0
M  V30 4931 H 455.882 5.3293 -2.89949 0
M  V30 4932 H 454.621 4.45457 -1.98542 0
M  V30 4933 H 453.626 3.62331 -4.13517 0
M  V30 4934 H 454.851 4.53134 -5.05812 0
M  V30 4935 H 452.797 5.74344 -3.16962 0
M  V30 4936 H 452.714 5.75643 -4.90073 0
M  V30 4937 H 453.982 6.63204 -4.0961 0
M  V30 4938 N 458.211 1.37122 0.776871 0
M  V30 4939 C 459.458 1.32047 1.53524 0
M  V30 4940 C 459.786 -0.0965631 1.9426 0
M  V30 4941 O 459.041 -1.06866 1.63945 0
M  V30 4942 C 459.34 2.20068 2.81611 0
M  V30 4943 C 459.006 3.68423 2.59953 0
M  V30 4944 C 457.668 4.08854 2.53755 0
M  V30 4945 C 460.02 4.62431 2.40431 0
M  V30 4946 C 457.348 5.41417 2.26018 0
M  V30 4947 C 459.7 5.95225 2.14219 0
M  V30 4948 C 458.364 6.34767 2.06462 0
M  V30 4949 H 457.634 0.483196 0.561785 0
M  V30 4950 H 460.281 1.69284 0.895268 0
M  V30 4951 H 458.586 1.75809 3.50141 0
M  V30 4952 H 460.283 2.13458 3.39465 0
M  V30 4953 H 456.873 3.36354 2.65638 0
M  V30 4954 H 461.057 4.32057 2.44213 0
M  V30 4955 H 456.313 5.71022 2.18504 0
M  V30 4956 H 460.487 6.67626 1.98112 0
M  V30 4957 H 458.114 7.37413 1.84733 0
M  V30 4958 N 459.689 -1.00246 1.21608 0
M  V30 4959 C 460.936 -1.74061 1.03485 0
M  V30 4960 C 461.264 -1.89658 -0.431308 0
M  V30 4961 O 460.519 -1.42976 -1.33627 0
M  V30 4962 C 460.818 -3.15448 1.68009 0
M  V30 4963 C 460.484 -3.19792 3.17874 0
M  V30 4964 C 459.146 -3.20685 3.58768 0
M  V30 4965 C 461.498 -3.16835 4.13842 0
M  V30 4966 C 458.826 -3.16309 4.94131 0
M  V30 4967 C 461.178 -3.14001 5.49169 0
M  V30 4968 C 459.842 -3.13204 5.89457 0
M  V30 4969 H 459.112 -0.636934 0.378677 0
M  V30 4970 H 461.759 -1.17473 1.51236 0
M  V30 4971 H 460.064 -3.75284 1.12557 0
M  V30 4972 H 461.761 -3.71285 1.51487 0
M  V30 4973 H 458.351 -3.19842 2.85305 0
M  V30 4974 H 462.535 -3.15303 3.83272 0
M  V30 4975 H 457.791 -3.14032 5.24589 0
M  V30 4976 H 461.965 -3.10667 6.23265 0
M  V30 4977 H 459.592 -3.09568 6.94314 0
M  V30 4978 N 461.167 -1.02423 -1.1978 0
M  V30 4979 C 462.415 -0.716569 -1.8897 0
M  V30 4980 C 462.736 0.756769 -1.79716 0
M  V30 4981 O 462.006 1.5449 -1.20456 0
M  V30 4982 H 460.586 -0.262062 -0.699523 0
M  V30 4983 H 463.248 -1.29747 -1.45436 0
M  V30 4984 H 462.344 -1.00675 -2.95417 0
M  V30 4985 N 462.645 1.35699 -0.801477 0
M  V30 4986 C 463.608 2.28199 -0.213994 0
M  V30 4987 C 464.608 1.49359 0.595691 0
M  V30 4988 O 465.798 1.69186 0.414921 0
M  V30 4989 C 462.93 3.33587 0.702297 0
M  V30 4990 H 464.123 2.81666 -1.02976 0
M  V30 4991 H 461.676 1.45467 -0.571759 0
M  V30 4992 H 462.411 2.85297 1.54195 0
M  V30 4993 H 462.196 3.91906 0.123484 0
M  V30 4994 H 463.686 4.02638 1.10783 0
M  V30 4995 N 464.123 0.554532 1.47522 0
M  V30 4996 C 465.033 -0.197865 2.33764 0
M  V30 4997 C 466.049 -0.914576 1.48025 0
M  V30 4998 O 467.225 -0.884067 1.80959 0
M  V30 4999 C 464.29 -1.21628 3.24665 0
M  V30 5000 C 463.351 -0.507283 4.26292 0
M  V30 5001 C 462.584 -1.47718 5.1285 0
M  V30 5002 O 462.807 -2.7118 5.01814 0
M  V30 5003 O 461.741 -1.00313 5.93482 0
M  V30 5004 H 465.567 0.50949 2.99396 0
M  V30 5005 H 463.152 0.315176 1.46038 0
M  V30 5006 H 465.034 -1.80421 3.80823 0
M  V30 5007 H 463.709 -1.9056 2.61665 0
M  V30 5008 H 462.616 0.121778 3.73902 0
M  V30 5009 H 463.949 0.140544 4.91999 0
M  V30 5010 N 465.601 -1.54893 0.290851 0
M  V30 5011 C 466.549 -2.24579 -0.605576 0
M  V30 5012 C 467.543 -1.24824 -1.14522 0
M  V30 5013 O 468.749 -1.42706 -1.09704 0
M  V30 5014 H 465.124 -0.720946 -0.213872 0
M  V30 5015 H 467.095 -2.984 0.0048173 0
M  V30 5016 C 465.844 -2.99224 -1.77088 0
M  V30 5017 H 465.167 -3.75782 -1.36484 0
M  V30 5018 H 466.607 -3.51281 -2.3744 0
M  V30 5019 C 465.066 -2.05602 -2.66888 0
M  V30 5020 O 465.596 -1.61745 -3.67698 0
M  V30 5021 N 463.802 -1.71771 -2.34399 0
M  V30 5022 H 463.349 -2.07633 -1.52468 0
M  V30 5023 H 463.307 -1.09403 -2.94751 0
M  V30 5024 N 467.08 -0.0183926 -1.57589 0
M  V30 5025 C 468.305 0.676634 -1.96052 0
M  V30 5026 C 468.73 1.6548 -0.894307 0
M  V30 5027 O 468.088 1.80712 0.145849 0
M  V30 5028 C 468.136 1.36872 -3.33614 0
M  V30 5029 O 467.24 2.48372 -3.29219 0
M  V30 5030 H 466.581 0.1786 -0.63953 0
M  V30 5031 H 469.111 -0.077056 -2.04455 0
M  V30 5032 H 469.121 1.72797 -3.69601 0
M  V30 5033 H 467.796 0.651636 -4.10763 0
M  V30 5034 H 466.373 2.14639 -3.04934 0
M  V30 5035 N 468.558 1.5553 0.254621 0
M  V30 5036 C 469.804 1.77262 0.985193 0
M  V30 5037 C 470.137 0.582286 1.85265 0
M  V30 5038 O 469.412 -0.419666 1.89919 0
M  V30 5039 C 469.695 3.0881 1.85225 0
M  V30 5040 C 469.548 4.38233 1.0135 0
M  V30 5041 C 470.867 3.3653 2.83612 0
M  V30 5042 H 467.986 0.644906 0.356742 0
M  V30 5043 H 470.628 1.88264 0.256236 0
M  V30 5044 H 468.778 2.99562 2.47376 0
M  V30 5045 H 470.45 4.59463 0.411269 0
M  V30 5046 H 468.693 4.32636 0.317574 0
M  V30 5047 H 469.364 5.26644 1.65379 0
M  V30 5048 H 471.84 3.45691 2.31596 0
M  V30 5049 H 470.716 4.29805 3.41407 0
M  V30 5050 H 470.977 2.57064 3.59681 0
M  V30 5051 N 470.036 -0.519951 1.48776 0
M  V30 5052 C 470.984 -1.64443 1.64503 0
M  V30 5053 C 471.978 -1.61501 0.511248 0
M  V30 5054 O 473.184 -1.66238 0.690294 0
M  V30 5055 H 469.559 -0.544776 0.518385 0
M  V30 5056 H 471.53 -1.48325 2.58925 0
M  V30 5057 C 470.279 -3.02673 1.71127 0
M  V30 5058 H 469.602 -3.05635 2.57735 0
M  V30 5059 H 471.042 -3.80941 1.86172 0
M  V30 5060 C 469.501 -3.33854 0.452032 0
M  V30 5061 O 470.031 -3.99385 -0.430678 0
M  V30 5062 N 468.237 -2.88825 0.32069 0
M  V30 5063 H 467.784 -2.35674 1.03998 0
M  V30 5064 H 467.742 -3.10056 -0.520814 0
M  V30 5065 N 471.514 -1.37532 -0.769588 0
M  V30 5066 C 472.444 -1.36172 -1.89682 0
M  V30 5067 C 473.425 -0.23001 -1.68538 0
M  V30 5068 O 474.61 -0.43069 -1.89364 0
M  V30 5069 C 471.74 -1.1701 -3.26995 0
M  V30 5070 C 470.694 -2.27216 -3.62708 0
M  V30 5071 C 470.02 -1.93174 -4.98586 0
M  V30 5072 C 471.32 -3.6941 -3.69234 0
M  V30 5073 H 473.014 -2.30499 -1.91078 0
M  V30 5074 H 470.56 -1.10953 -0.917902 0
M  V30 5075 H 472.513 -1.14688 -4.05493 0
M  V30 5076 H 471.237 -0.191395 -3.26039 0
M  V30 5077 H 469.896 -2.28697 -2.86519 0
M  V30 5078 H 469.544 -0.938281 -4.94171 0
M  V30 5079 H 469.244 -2.66973 -5.23449 0
M  V30 5080 H 470.768 -1.92443 -5.79481 0
M  V30 5081 H 472.182 -3.70047 -4.37879 0
M  V30 5082 H 470.579 -4.4228 -4.05597 0
M  V30 5083 H 471.649 -4.0288 -2.69844 0
M  V30 5084 N 472.992 0.995999 -1.22138 0
M  V30 5085 C 473.939 2.08551 -0.988687 0
M  V30 5086 C 474.909 1.65864 0.0885021 0
M  V30 5087 O 476.094 1.90704 -0.0604589 0
M  V30 5088 C 473.234 3.40374 -0.569191 0
M  V30 5089 C 472.347 3.96421 -1.71681 0
M  V30 5090 C 471.482 5.1639 -1.2456 0
M  V30 5091 C 470.521 5.64567 -2.36497 0
M  V30 5092 N 469.658 6.75777 -1.90445 0
M  V30 5093 H 474.498 2.2779 -1.92135 0
M  V30 5094 H 472.035 1.1168 -0.957388 0
M  V30 5095 H 473.993 4.16068 -0.307166 0
M  V30 5096 H 472.623 3.21145 0.326462 0
M  V30 5097 H 471.675 3.17628 -2.09324 0
M  V30 5098 H 472.987 4.2816 -2.55891 0
M  V30 5099 H 472.141 5.99362 -0.940774 0
M  V30 5100 H 470.88 4.86266 -0.373662 0
M  V30 5101 H 469.885 4.80185 -2.67772 0
M  V30 5102 H 471.11 5.96716 -3.24202 0
M  V30 5103 H 469.056 6.47443 -1.05609 0
M  V30 5104 H 468.973 7.06818 -2.68223 0
M  V30 5105 H 470.241 7.62262 -1.63022 0
M  V30 5106 N 474.47 1.03057 1.19235 0
M  V30 5107 C 475.747 0.642608 1.84743 0
M  V30 5108 C 476.127 -0.878577 1.91948 0
M  V30 5109 O 475.475 -1.77597 1.43776 0
M  V30 5110 C 475.685 1.30665 3.23616 0
M  V30 5111 C 477.033 1.43098 3.9976 0
M  V30 5112 O 478.057 1.26396 3.3302 0
M  V30 5113 O 476.916 1.70223 5.19313 0
M  V30 5114 H 474.01 0.223573 0.796206 0
M  V30 5115 H 476.556 1.12883 1.26711 0
M  V30 5116 H 475.328 2.34544 3.13217 0
M  V30 5117 H 474.951 0.808405 3.89295 0
M  V30 5118 N 475.948 -1.35272 0.808662 0
M  V30 5119 C 477.197 -1.97963 0.386483 0
M  V30 5120 C 477.51 -1.64866 -1.05255 0
M  V30 5121 O 478.716 -2.20937 -1.57794 0
M  V30 5122 C 477.172 -3.54162 0.640096 0
M  V30 5123 C 476.78 -3.96166 2.0918 0
M  V30 5124 C 478.524 -4.23553 0.283376 0
M  V30 5125 C 476.431 -5.4522 2.29106 0
M  V30 5126 H 475.361 -0.740742 0.140774 0
M  V30 5127 H 478.012 -1.5431 0.993012 0
M  V30 5128 H 476.394 -3.95983 -0.0364117 0
M  V30 5129 H 477.568 -3.65491 2.80629 0
M  V30 5130 H 475.883 -3.3967 2.40859 0
M  V30 5131 H 478.48 -5.33124 0.410273 0
M  V30 5132 H 478.823 -4.09105 -0.770659 0
M  V30 5133 H 479.356 -3.8716 0.913884 0
M  V30 5134 H 476.095 -5.64638 3.32962 0
M  V30 5135 H 475.615 -5.77457 1.62184 0
M  V30 5136 H 477.294 -6.1171 2.1076 0
M  V30 5137 N 477.426 -0.562348 -1.47226 0
M  V30 5138 C 478.672 -0.0485293 -2.03342 0
M  V30 5139 C 479.027 1.28898 -1.42839 0
M  V30 5140 O 478.32 1.82719 -0.576563 0
M  V30 5141 C 478.514 0.0969817 -3.57268 0
M  V30 5142 C 478.343 -1.22487 -4.32697 0
M  V30 5143 C 477.113 -1.79357 -4.72397 0
M  V30 5144 C 479.311 -2.14332 -4.67511 0
M  V30 5145 N 477.293 -3.05493 -5.32491 0
M  V30 5146 C 478.664 -3.25049 -5.27961 0
M  V30 5147 C 480.719 -2.14263 -4.4944 0
M  V30 5148 C 479.422 -4.35804 -5.72248 0
M  V30 5149 C 481.448 -3.24033 -4.94729 0
M  V30 5150 C 480.81 -4.3347 -5.55233 0
M  V30 5151 H 476.909 -0.0600464 -0.779691 0
M  V30 5152 H 479.493 -0.750769 -1.79643 0
M  V30 5153 H 477.664 0.768353 -3.80724 0
M  V30 5154 H 479.396 0.613333 -4.00025 0
M  V30 5155 H 476.151 -1.33093 -4.54514 0
M  V30 5156 H 476.575 -3.698 -5.67077 0
M  V30 5157 H 481.217 -1.30935 -4.02015 0
M  V30 5158 H 478.935 -5.19888 -6.18661 0
M  V30 5159 H 482.521 -3.25073 -4.82513 0
M  V30 5160 H 481.401 -5.17008 -5.89638 0
M  V30 5161 N 478.904 1.54736 -0.299062 0
M  V30 5162 C 479.837 2.1962 0.619851 0
M  V30 5163 C 480.815 1.16496 1.13434 0
M  V30 5164 O 481.999 1.4513 1.2029 0
M  V30 5165 C 479.126 2.8385 1.84788 0
M  V30 5166 C 478.172 4.00484 1.46679 0
M  V30 5167 S 479.005 5.32926 0.524389 0
M  V30 5168 C 480.161 6.00638 1.76026 0
M  V30 5169 H 480.394 2.97221 0.0686177 0
M  V30 5170 H 477.927 1.54176 -0.0832085 0
M  V30 5171 H 479.885 3.21483 2.55263 0
M  V30 5172 H 478.546 2.06099 2.37028 0
M  V30 5173 H 477.739 4.44201 2.38121 0
M  V30 5174 H 477.341 3.64398 0.842008 0
M  V30 5175 H 479.633 6.21327 2.70109 0
M  V30 5176 H 480.576 6.94805 1.36569 0
M  V30 5177 H 480.984 5.3026 1.93609 0
M  V30 5178 N 480.382 0.0267497 1.57577 0
M  V30 5179 C 481.629 -0.652404 1.91703 0
M  V30 5180 C 481.957 -1.72271 0.902936 0
M  V30 5181 O 481.212 -1.955 -0.0884843 0
M  V30 5182 C 481.511 -1.30914 3.3256 0
M  V30 5183 C 481.177 -0.369441 4.49384 0
M  V30 5184 C 479.839 -0.110791 4.81072 0
M  V30 5185 C 482.191 0.275971 5.20469 0
M  V30 5186 C 479.519 0.801116 5.81205 0
M  V30 5187 C 481.871 1.17592 6.21575 0
M  V30 5188 C 480.535 1.44348 6.51705 0
M  V30 5189 H 479.805 -0.238732 0.70149 0
M  V30 5190 H 482.452 0.0880091 1.91298 0
M  V30 5191 H 480.757 -2.12425 3.29216 0
M  V30 5192 H 482.454 -1.84115 3.56234 0
M  V30 5193 H 479.044 -0.581211 4.24641 0
M  V30 5194 H 483.228 0.0892 4.9622 0
M  V30 5195 H 478.484 1.01614 6.02897 0
M  V30 5196 H 482.658 1.68223 6.75777 0
M  V30 5197 H 480.285 2.15176 7.29111 0
M  V30 5198 N 481.861 -1.55662 -0.24637 0
M  V30 5199 C 483.277 -1.48098 -0.594907 0
M  V30 5200 C 483.477 -0.717044 -1.8831 0
M  V30 5201 O 482.533 -0.246618 -2.51293 0
M  V30 5202 C 483.846 -2.92507 -0.697146 0
M  V30 5203 C 485.394 -3.02881 -0.789436 0
M  V30 5204 C 485.869 -4.48598 -0.923232 0
M  V30 5205 N 487.36 -4.52538 -0.988088 0
M  V30 5206 C 488.095 -5.62536 -1.11089 0
M  V30 5207 N 487.591 -6.82342 -1.19919 0
M  V30 5208 N 489.384 -5.50334 -1.14408 0
M  V30 5209 H 481.535 -2.0377 0.599278 0
M  V30 5210 H 483.798 -0.925145 0.20691 0
M  V30 5211 H 483.504 -3.51242 0.179396 0
M  V30 5212 H 483.378 -3.43024 -1.5689 0
M  V30 5213 H 485.765 -2.44226 -1.65643 0
M  V30 5214 H 485.846 -2.55574 0.107482 0
M  V30 5215 H 485.49 -5.07864 -0.0607927 0
M  V30 5216 H 485.42 -4.93587 -1.8352 0
M  V30 5217 H 487.911 -3.66248 -0.931167 0
M  V30 5218 H 488.224 -7.61924 -1.29197 0
M  V30 5219 H 486.569 -6.85102 -1.16876 0
M  V30 5220 H 489.76 -4.5567 -1.07158 0
M  V30 5221 H 489.933 -6.36096 -1.23634 0
M  V30 5222 N 483.339 0.512053 -1.4905 0
M  V30 5223 C 484.302 1.59704 -1.64399 0
M  V30 5224 C 485.302 1.52285 -0.516317 0
M  V30 5225 O 486.492 1.55635 -0.782527 0
M  V30 5226 C 483.624 2.9935 -1.63102 0
M  V30 5227 H 484.817 1.47428 -2.61161 0
M  V30 5228 H 482.37 0.735469 -1.37915 0
M  V30 5229 H 483.105 3.17116 -0.678836 0
M  V30 5230 H 482.89 3.06144 -2.44986 0
M  V30 5231 H 484.38 3.782 -1.77072 0
M  V30 5232 N 484.817 1.37938 0.762283 0
M  V30 5233 C 486.233 1.18945 1.06415 0
M  V30 5234 C 486.433 0.0321163 2.01474 0
M  V30 5235 O 485.489 -0.624844 2.44647 0
M  V30 5236 C 486.802 2.51218 1.65258 0
M  V30 5237 C 488.35 2.57824 1.7747 0
M  V30 5238 C 488.825 3.90251 2.39725 0
M  V30 5239 N 490.316 3.91744 2.47166 0
M  V30 5240 C 491.051 4.90966 2.96209 0
M  V30 5241 N 490.547 6.00585 3.45354 0
M  V30 5242 N 492.34 4.78363 2.9517 0
M  V30 5243 H 484.491 2.11994 0.131301 0
M  V30 5244 H 486.754 0.940262 0.120879 0
M  V30 5245 H 486.46 3.36317 1.02878 0
M  V30 5246 H 486.334 2.68989 2.64433 0
M  V30 5247 H 488.721 1.73126 2.3898 0
M  V30 5248 H 488.802 2.43928 0.770241 0
M  V30 5249 H 488.446 4.75368 1.78852 0
M  V30 5250 H 488.376 4.01454 3.40796 0
M  V30 5251 H 490.867 3.12563 2.12397 0
M  V30 5252 H 491.18 6.72236 3.81207 0
M  V30 5253 H 489.525 6.04217 3.43434 0
M  V30 5254 H 492.716 3.91841 2.56082 0
M  V30 5255 H 492.889 5.55843 3.33081 0
M  V30 5256 N 486.295 -0.989507 1.22664 0
M  V30 5257 C 487.225 -2.09847 1.02404 0
M  V30 5258 C 488.206 -1.70007 -0.0561303 0
M  V30 5259 O 489.391 -1.93906 0.106748 0
M  V30 5260 C 486.521 -3.41996 0.604663 0
M  V30 5261 C 485.475 -3.95699 1.63115 0
M  V30 5262 C 484.801 -5.23936 1.0675 0
M  V30 5263 C 486.101 -4.25999 3.02196 0
M  V30 5264 H 487.795 -2.27054 1.95158 0
M  V30 5265 H 485.341 -1.09111 0.939727 0
M  V30 5266 H 487.294 -4.1899 0.45002 0
M  V30 5267 H 486.018 -3.24626 -0.35855 0
M  V30 5268 H 484.677 -3.2084 1.77362 0
M  V30 5269 H 484.325 -5.02909 0.0955422 0
M  V30 5270 H 484.025 -5.60833 1.75328 0
M  V30 5271 H 485.549 -6.0356 0.924516 0
M  V30 5272 H 486.963 -4.93777 2.91303 0
M  V30 5273 H 485.36 -4.74076 3.67929 0
M  V30 5274 H 486.43 -3.33636 3.51873 0
M  V30 5275 N 487.773 -1.03688 -1.18687 0
M  V30 5276 C 489.019 -0.739123 -1.88851 0
M  V30 5277 C 489.352 0.731042 -1.79915 0
M  V30 5278 O 488.627 1.53313 -1.19688 0
M  V30 5279 C 488.91 -1.20106 -3.3948 0
M  V30 5280 C 488.763 -2.73304 -3.57246 0
M  V30 5281 C 490.082 -0.788134 -4.32986 0
M  V30 5282 H 487.201 -0.269978 -0.68577 0
M  V30 5283 H 489.843 -1.28822 -1.3966 0
M  V30 5284 H 487.993 -0.733915 -3.81505 0
M  V30 5285 H 489.665 -3.28027 -3.24339 0
M  V30 5286 H 487.908 -3.13313 -3.00029 0
M  V30 5287 H 488.579 -3.00684 -4.62918 0
M  V30 5288 H 491.055 -1.19005 -3.98719 0
M  V30 5289 H 489.931 -1.13915 -5.36949 0
M  V30 5290 H 490.192 0.308988 -4.41019 0
M  V30 5291 N 489.251 1.34841 -0.815825 0
M  V30 5292 C 490.198 2.29644 -0.230664 0
M  V30 5293 C 491.168 1.53253 0.640533 0
M  V30 5294 O 492.353 1.81653 0.583672 0
M  V30 5295 C 489.493 3.39715 0.607275 0
M  V30 5296 C 488.606 4.31056 -0.28538 0
M  V30 5297 C 487.741 5.28225 0.561446 0
M  V30 5298 C 486.78 6.11204 -0.331035 0
M  V30 5299 N 485.917 7.00483 0.476302 0
M  V30 5300 H 490.757 2.79095 -1.0445 0
M  V30 5301 H 488.294 1.37351 -0.526595 0
M  V30 5302 H 490.252 4.02208 1.10835 0
M  V30 5303 H 488.882 2.91517 1.38629 0
M  V30 5304 H 487.934 3.69487 -0.904621 0
M  V30 5305 H 489.246 4.89239 -0.97193 0
M  V30 5306 H 488.4 5.96135 1.12728 0
M  V30 5307 H 487.139 4.70562 1.28153 0
M  V30 5308 H 486.144 5.42232 -0.909069 0
M  V30 5309 H 487.369 6.70947 -1.04912 0
M  V30 5310 H 485.315 6.45296 1.18019 0
M  V30 5311 H 485.232 7.55847 -0.152008 0
M  V30 5312 H 486.5 7.7273 1.02512 0
M  V30 5313 N 490.729 0.570148 1.46925 0
M  V30 5314 C 491.977 0.0508523 2.02036 0
M  V30 5315 C 492.298 -1.30885 1.44548 0
M  V30 5316 O 491.568 -1.85647 0.625453 0
M  V30 5317 H 490.148 0.0158088 0.746833 0
M  V30 5318 H 492.81 0.743086 1.80178 0
M  V30 5319 H 491.906 -0.027575 3.12088 0
M  V30 5320 N 492.207 -1.54576 0.307264 0
M  V30 5321 C 493.117 -2.27435 -0.57536 0
M  V30 5322 C 494.133 -1.31183 -1.14311 0
M  V30 5323 O 495.309 -1.64175 -1.16656 0
M  V30 5324 C 492.374 -3.00566 -1.72803 0
M  V30 5325 C 491.435 -4.12369 -1.19373 0
M  V30 5326 C 490.668 -4.82003 -2.29147 0
M  V30 5327 O 490.891 -4.51038 -3.49171 0
M  V30 5328 O 489.825 -5.69271 -1.95485 0
M  V30 5329 H 493.651 -3.03696 0.0158558 0
M  V30 5330 H 491.236 -1.49219 0.0735064 0
M  V30 5331 H 493.118 -3.46416 -2.39946 0
M  V30 5332 H 491.793 -2.27195 -2.30574 0
M  V30 5333 H 490.7 -3.70905 -0.487851 0
M  V30 5334 H 492.033 -4.87736 -0.661376 0
M  V30 5335 N 493.685 -0.035106 -1.57561 0
M  V30 5336 C 495.101 0.321334 -1.56332 0
M  V30 5337 C 495.301 1.72509 -1.04129 0
M  V30 5338 O 494.357 2.4287 -0.690694 0
M  V30 5339 C 495.67 0.164469 -3.0025 0
M  V30 5340 C 497.218 0.236786 -3.12103 0
M  V30 5341 C 497.693 0.10864 -4.57871 0
M  V30 5342 N 499.184 0.165433 -4.62904 0
M  V30 5343 C 499.919 0.0901506 -5.73329 0
M  V30 5344 N 499.415 -0.0365606 -6.9279 0
M  V30 5345 N 501.208 0.144572 -5.61914 0
M  V30 5346 H 493.359 -0.952976 -1.89821 0
M  V30 5347 H 495.622 -0.368537 -0.873432 0
M  V30 5348 H 495.328 -0.802746 -3.42416 0
M  V30 5349 H 495.202 0.932194 -3.655 0
M  V30 5350 H 497.589 1.19446 -2.69845 0
M  V30 5351 H 497.67 -0.561419 -2.49563 0
M  V30 5352 H 497.314 -0.845644 -5.00811 0
M  V30 5353 H 497.244 0.925786 -5.18398 0
M  V30 5354 H 499.735 0.263269 -3.76982 0
M  V30 5355 H 500.048 -0.0871487 -7.72751 0
M  V30 5356 H 498.393 -0.0714256 -6.94963 0
M  V30 5357 H 501.584 0.242006 -4.67474 0
M  V30 5358 H 501.757 0.0824413 -6.47948 0
M  V30 5359 N 495.163 1.55791 0.238111 0
M  V30 5360 C 496.391 1.82098 0.982233 0
M  V30 5361 C 496.806 0.612025 1.78605 0
M  V30 5362 O 496.163 -0.419381 1.77616 0
M  V30 5363 C 496.214 3.0673 1.91309 0
M  V30 5364 O 495.935 4.2296 1.14179 0
M  V30 5365 C 497.436 3.45903 2.77248 0
M  V30 5366 H 494.656 0.605748 0.288635 0
M  V30 5367 H 497.2 2.02862 0.258341 0
M  V30 5368 H 495.355 2.87991 2.59114 0
M  V30 5369 H 495.769 4.93653 1.7722 0
M  V30 5370 H 497.243 4.36189 3.38295 0
M  V30 5371 H 497.72 2.66891 3.48806 0
M  V30 5372 H 498.326 3.67024 2.14881 0
M  V30 5373 N 496.642 -0.504142 1.49319 0
M  V30 5374 C 497.59 -1.62689 1.66238 0
M  V30 5375 C 498.584 -1.6095 0.528349 0
M  V30 5376 O 499.79 -1.65496 0.707887 0
M  V30 5377 H 496.165 -0.539247 0.524134 0
M  V30 5378 H 498.136 -1.45571 2.60484 0
M  V30 5379 C 496.885 -3.00841 1.74328 0
M  V30 5380 H 496.208 -3.02884 2.60963 0
M  V30 5381 H 497.648 -3.78945 1.90202 0
M  V30 5382 C 496.107 -3.33355 0.487416 0
M  V30 5383 O 496.637 -3.99819 -0.388294 0
M  V30 5384 N 494.843 -2.88469 0.351306 0
M  V30 5385 H 494.39 -2.34557 1.06492 0
M  V30 5386 H 494.348 -3.10591 -0.487899 0
M  V30 5387 N 498.12 -1.38341 -0.754957 0
M  V30 5388 C 499.05 -1.38176 -1.88227 0
M  V30 5389 C 500.031 -0.247873 -1.68284 0
M  V30 5390 O 501.216 -0.45075 -1.88896 0
M  V30 5391 C 498.346 -1.20471 -3.25736 0
M  V30 5392 C 497.3 -2.3105 -3.60278 0
M  V30 5393 C 496.626 -1.98452 -4.96509 0
M  V30 5394 C 497.926 -3.73305 -3.65295 0
M  V30 5395 H 499.62 -2.32512 -1.88622 0
M  V30 5396 H 497.166 -1.1192 -0.906082 0
M  V30 5397 H 499.119 -1.18982 -4.04254 0
M  V30 5398 H 497.843 -0.225965 -3.25817 0
M  V30 5399 H 496.502 -2.31723 -2.84078 0
M  V30 5400 H 496.15 -0.990641 -4.93148 0
M  V30 5401 H 495.85 -2.7251 -5.20588 0
M  V30 5402 H 497.374 -1.98578 -5.77407 0
M  V30 5403 H 498.788 -3.7467 -4.3393 0
M  V30 5404 H 497.185 -4.46557 -4.00883 0
M  V30 5405 H 498.255 -4.05719 -2.65556 0
M  V30 5406 O 499.637 0.895511 -1.34398 0
M  V30 5407 H 500.328 1.53136 -1.18614 0
M  V30 END ATOM
M  V30 BEGIN BOND
M  V30 END BOND
M  V30 END CTAB
M  END
$$$$
