drugbank_target|O14880 Microsomal glutathione S-transferase 3 (DB00143)
 OpenBabel12092120083D

  0  0  0     0  0            999 V3000
M  V30 BEGIN CTAB
M  V30 COUNTS 2345 2378 0 0 0
M  V30 BEGIN ATOM
M  V30 1 H -0.908 1.98254 -0.117106 0
M  V30 2 N 0 1.576 0 0
M  V30 3 C 0.933 2.03868 1.02534 0
M  V30 4 C 1.911 0.928543 1.3348 0
M  V30 5 O 3.095 1.19667 1.45644 0
M  V30 6 C 0.222 2.43627 2.35294 0
M  V30 7 C -0.732 3.65373 2.2001 0
M  V30 8 S 0.101 5.13292 1.52614 0
M  V30 9 C 1.257 5.56322 2.86805 0
M  V30 10 H 1.49 2.90518 0.631377 0
M  V30 11 H -0.977 1.52953 0.210867 0
M  V30 12 H 0.981 2.67203 3.11629 0
M  V30 13 H -0.358 1.57376 2.7183 0
M  V30 14 H -1.165 3.90944 3.18086 0
M  V30 15 H -1.563 3.418 1.51819 0
M  V30 16 H 0.729 5.58782 3.83104 0
M  V30 17 H 1.672 6.56266 2.65933 0
M  V30 18 H 2.08 4.83886 2.90714 0
M  V30 19 N 1.4781 -0.272755 1.55222 0
M  V30 20 C 2.4411 -1.32041 1.87344 0
M  V30 21 C 3.4411 -1.42342 0.74803 0
M  V30 22 O 4.6311 -1.41488 1.0162 0
M  V30 23 C 1.7631 -2.70173 2.07893 0
M  V30 24 H 2.9561 -1.04789 2.80997 0
M  V30 25 H 0.5091 -0.51083 1.47717 0
M  V30 26 H 1.2441 -3.02605 1.16622 0
M  V30 27 H 1.0291 -2.64082 2.89833 0
M  V30 28 H 2.5191 -3.45869 2.34017 0
M  V30 29 N 2.9562 -1.48159 -0.537278 0
M  V30 30 C 4.2022 -1.56035 -1.29541 0
M  V30 31 C 4.5352 -0.230377 -1.92829 0
M  V30 32 O 3.8102 0.762952 -1.78911 0
M  V30 33 C 4.0932 -2.69323 -2.39034 0
M  V30 34 C 3.9462 -4.12002 -1.80485 0
M  V30 35 C 5.2652 -2.78408 -3.40847 0
M  V30 36 H 2.3842 -0.567992 -0.469632 0
M  V30 37 H 5.0262 -1.80302 -0.599277 0
M  V30 38 H 3.1762 -2.48763 -2.98412 0
M  V30 39 H 4.8482 -4.43981 -1.25215 0
M  V30 40 H 3.0912 -4.19344 -1.11055 0
M  V30 41 H 3.7622 -4.87077 -2.59731 0
M  V30 42 H 6.2382 -2.97012 -2.91416 0
M  V30 43 H 5.1142 -3.59416 -4.14863 0
M  V30 44 H 5.3752 -1.86269 -4.00944 0
M  V30 45 N 4.4343 0.785586 -1.36625 0
M  V30 46 C 5.3643 1.91259 -1.33949 0
M  V30 47 C 6.3453 1.68795 -0.210325 0
M  V30 48 O 7.5303 1.89854 -0.408561 0
M  V30 49 C 4.6603 3.28339 -1.13186 0
M  V30 50 C 3.6143 3.65335 -2.22967 0
M  V30 51 C 2.9403 5.00806 -1.87342 0
M  V30 52 C 4.2403 3.7352 -3.65075 0
M  V30 53 H 5.9343 1.93755 -2.28253 0
M  V30 54 H 3.4803 0.930788 -1.09874 0
M  V30 55 H 5.4333 4.06804 -1.09948 0
M  V30 56 H 4.1573 3.2624 -0.153332 0
M  V30 57 H 2.8163 2.89169 -2.25337 0
M  V30 58 H 2.4643 4.95233 -0.880545 0
M  V30 59 H 2.1643 5.26529 -2.60846 0
M  V30 60 H 3.6883 5.81687 -1.85667 0
M  V30 61 H 5.1023 4.42168 -3.64911 0
M  V30 62 H 3.4993 4.10731 -4.37516 0
M  V30 63 H 4.5693 2.74527 -3.99703 0
M  V30 64 N 5.9124 1.20967 1.01018 0
M  V30 65 C 7.1374 1.0503 1.78839 0
M  V30 66 C 7.5624 -0.395752 1.8389 0
M  V30 67 O 6.9204 -1.28529 1.27867 0
M  V30 68 C 6.9684 1.64602 3.2084 0
M  V30 69 O 6.0724 0.887988 4.02726 0
M  V30 70 H 5.4134 0.369987 0.551367 0
M  V30 71 H 7.9434 1.60399 1.27018 0
M  V30 72 H 7.9534 1.68607 3.71532 0
M  V30 73 H 6.6284 2.69841 3.16479 0
M  V30 74 H 5.2054 0.922648 3.61305 0
M  V30 75 N 7.3905 -1.2043 1.01659 0
M  V30 76 C 8.3375 -2.23215 0.586822 0
M  V30 77 C 9.3075 -1.61382 -0.393085 0
M  V30 78 O 10.4925 -1.88544 -0.292525 0
M  V30 79 C 7.6325 -3.45032 -0.0687464 0
M  V30 80 C 6.7455 -4.21296 0.955724 0
M  V30 81 C 5.8805 -5.30507 0.271208 0
M  V30 82 C 4.9195 -5.98515 1.28244 0
M  V30 83 N 4.0565 -6.99316 0.62459 0
M  V30 84 H 8.8965 -2.59336 1.46796 0
M  V30 85 H 6.4335 -1.27431 0.734836 0
M  V30 86 H 8.3915 -4.1459 -0.465965 0
M  V30 87 H 7.0215 -3.09604 -0.913529 0
M  V30 88 H 6.0735 -3.50803 1.4711 0
M  V30 89 H 7.3855 -4.6803 1.72479 0
M  V30 90 H 6.5395 -6.06428 -0.18151 0
M  V30 91 H 5.2785 -4.8481 -0.530163 0
M  V30 92 H 4.2835 -5.21355 1.74554 0
M  V30 93 H 5.5085 -6.46298 2.08509 0
M  V30 94 H 3.4545 -6.55812 -0.156914 0
M  V30 95 H 3.3715 -7.44178 1.33172 0
M  V30 96 H 4.6395 -7.79255 0.195462 0
M  V30 97 N 8.8686 -0.792821 -1.36206 0
M  V30 98 C 9.7786 -0.194808 -2.3379 0
M  V30 99 C 10.7946 0.654869 -1.61206 0
M  V30 100 O 11.9706 0.569856 -1.9317 0
M  V30 101 C 9.0356 0.657721 -3.40404 0
M  V30 102 C 8.0966 -0.210849 -4.28782 0
M  V30 103 C 7.3296 0.601086 -5.30304 0
M  V30 104 O 7.5526 1.83682 -5.40016 0
M  V30 105 O 6.4866 -0.000808277 -6.019 0
M  V30 106 H 10.3126 -1.00172 -2.86704 0
M  V30 107 H 7.8976 -0.554341 -1.38735 0
M  V30 108 H 9.7796 1.14375 -4.05581 0
M  V30 109 H 8.4546 1.44247 -2.89784 0
M  V30 110 H 7.3616 -0.743714 -3.66633 0
M  V30 111 H 8.6946 -0.959195 -4.82763 0
M  V30 112 N 10.3467 1.47872 -0.545128 0
M  V30 113 C 11.5767 2.06589 -0.0210534 0
M  V30 114 C 11.9847 1.39997 1.27269 0
M  V30 115 O 11.3277 0.486421 1.77143 0
M  V30 116 C 11.3897 3.58574 0.257933 0
M  V30 117 C 11.0537 4.47132 -0.944573 0
M  V30 118 C 12.0507 4.85986 -1.84699 0
M  V30 119 C 9.7357 4.88821 -1.15584 0
M  V30 120 C 11.7297 5.65314 -2.94446 0
M  V30 121 C 9.4167 5.67916 -2.25642 0
M  V30 122 C 10.4147 6.06073 -3.14905 0
M  V30 123 O 10.1027 6.83578 -4.23057 0
M  V30 124 H 9.8347 0.674971 -0.0372899 0
M  V30 125 H 12.3887 1.91037 -0.754599 0
M  V30 126 H 10.6187 3.72295 1.04564 0
M  V30 127 H 12.3077 3.99356 0.72592 0
M  V30 128 H 13.0737 4.54388 -1.69577 0
M  V30 129 H 8.9527 4.58595 -0.470279 0
M  V30 130 H 12.4967 5.95016 -3.64145 0
M  V30 131 H 8.3937 5.98927 -2.40742 0
M  V30 132 H 9.1617 7.01954 -4.20954 0
M  V30 133 N 11.8248 0.280983 1.55075 0
M  V30 134 C 13.0728 -0.333455 1.9933 0
M  V30 135 C 13.3938 -1.55937 1.17085 0
M  V30 136 O 12.6638 -1.94143 0.261805 0
M  V30 137 H 11.2438 -0.126197 0.736263 0
M  V30 138 H 13.9058 0.387678 1.91005 0
M  V30 139 H 13.0018 -0.619292 3.05894 0
M  V30 140 N 13.3029 -1.57598 0.00835791 0
M  V30 141 C 14.5499 -1.90928 -0.674732 0
M  V30 142 C 14.8779 -0.88277 -1.73313 0
M  V30 143 O 14.1329 0.111294 -1.95383 0
M  V30 144 C 14.4319 -3.3101 -1.34787 0
M  V30 145 C 14.0979 -4.48922 -0.421861 0
M  V30 146 C 12.7599 -4.8091 -0.166927 0
M  V30 147 C 15.1119 -5.20755 0.215211 0
M  V30 148 C 12.4399 -5.821 0.733232 0
M  V30 149 C 14.7919 -6.22905 1.1033 0
M  V30 150 C 13.4559 -6.53346 1.36733 0
M  V30 151 H 12.7259 -0.698656 -0.246902 0
M  V30 152 H 15.3729 -1.91387 0.0656779 0
M  V30 153 H 13.6779 -3.26714 -2.16253 0
M  V30 154 H 15.3749 -3.54061 -1.8826 0
M  V30 155 H 11.9649 -4.23934 -0.630729 0
M  V30 156 H 16.1489 -4.9629 0.0312829 0
M  V30 157 H 11.4049 -6.04042 0.945712 0
M  V30 158 H 15.5789 -6.77694 1.60325 0
M  V30 159 H 13.2059 -7.31573 2.06652 0
M  V30 160 N 14.781 0.264519 -1.55364 0
M  V30 161 C 16.027 0.99646 -1.76631 0
M  V30 162 C 16.36 1.85632 -0.570478 0
M  V30 163 O 15.635 1.89647 0.43175 0
M  V30 164 C 15.918 1.87187 -3.07625 0
M  V30 165 C 15.771 1.04138 -4.37579 0
M  V30 166 C 17.09 2.85749 -3.34717 0
M  V30 167 H 14.209 0.360841 -0.642622 0
M  V30 168 H 16.851 0.268218 -1.88097 0
M  V30 169 H 15.001 2.49279 -2.9798 0
M  V30 170 H 16.673 0.440517 -4.59192 0
M  V30 171 H 14.916 0.345115 -4.32425 0
M  V30 172 H 15.587 1.68729 -5.2558 0
M  V30 173 H 18.063 2.33793 -3.4421 0
M  V30 174 H 16.939 3.44136 -4.27623 0
M  V30 175 H 17.2 3.61311 -2.54768 0
M  V30 176 N 16.2591 1.48442 0.529413 0
M  V30 177 C 17.1891 1.65902 1.64313 0
M  V30 178 C 18.1701 0.507897 1.6234 0
M  V30 179 O 19.3551 0.740503 1.79528 0
M  V30 180 C 16.4851 1.69911 3.02898 0
M  V30 181 C 15.4391 2.8453 3.19729 0
M  V30 182 C 14.7651 2.73629 4.59381 0
M  V30 183 C 16.0651 4.25821 3.02447 0
M  V30 184 H 17.7591 2.5914 1.49955 0
M  V30 185 H 15.3051 1.24709 0.719982 0
M  V30 186 H 17.2581 1.80715 3.80684 0
M  V30 187 H 15.9821 0.732524 3.18279 0
M  V30 188 H 14.6411 2.73283 2.44361 0
M  V30 189 H 14.2891 1.74938 4.71599 0
M  V30 190 H 13.9891 3.50541 4.71588 0
M  V30 191 H 15.5131 2.86401 5.39265 0
M  V30 192 H 16.9271 4.37898 3.70024 0
M  V30 193 H 15.3241 5.03735 3.26146 0
M  V30 194 H 16.3941 4.42244 1.98867 0
M  V30 195 N 17.7372 -0.778329 1.37039 0
M  V30 196 C 18.6672 -1.90546 1.34962 0
M  V30 197 C 19.6482 -1.68681 0.219274 0
M  V30 198 O 20.8332 -1.89634 0.418624 0
M  V30 199 C 17.9632 -3.27734 1.14925 0
M  V30 200 C 16.9172 -3.64147 2.24902 0
M  V30 201 C 16.2432 -4.99806 1.89996 0
M  V30 202 C 17.5432 -3.71579 3.67051 0
M  V30 203 H 19.2372 -1.92541 2.29277 0
M  V30 204 H 16.7832 -0.924948 1.10366 0
M  V30 205 H 18.7362 -4.06215 1.12104 0
M  V30 206 H 17.4602 -3.26154 0.170631 0
M  V30 207 H 16.1192 -2.8797 2.26868 0
M  V30 208 H 15.7672 -4.94759 0.906796 0
M  V30 209 H 15.4672 -5.25139 2.63634 0
M  V30 210 H 16.9912 -5.80694 1.88749 0
M  V30 211 H 18.4052 -4.40227 3.67251 0
M  V30 212 H 16.8022 -4.08405 4.39688 0
M  V30 213 H 17.8722 -2.72404 4.01154 0
M  V30 214 N 19.2153 -1.21501 -1.00376 0
M  V30 215 C 20.4433 -1.059 -1.77744 0
M  V30 216 C 20.8583 0.391125 -1.84704 0
M  V30 217 O 20.2153 1.27133 -1.30933 0
M  V30 218 C 20.2663 -1.65111 -3.21591 0
M  V30 219 O 19.9873 -3.0445 -3.15027 0
M  V30 220 C 21.4883 -1.54637 -4.15454 0
M  V30 221 H 18.7083 -0.371825 -0.558558 0
M  V30 222 H 21.2523 -1.60865 -1.26264 0
M  V30 223 H 19.4073 -1.14235 -3.70175 0
M  V30 224 H 19.8213 -3.3278 -4.0541 0
M  V30 225 H 21.2953 -2.00808 -5.14179 0
M  V30 226 H 21.7723 -0.501022 -4.36333 0
M  V30 227 H 22.3783 -2.04767 -3.72761 0
M  V30 228 N 20.6934 1.19889 -1.02296 0
M  V30 229 C 21.9414 1.89046 -0.714558 0
M  V30 230 C 22.2624 1.79636 0.758681 0
M  V30 231 O 21.5324 1.20292 1.54618 0
M  V30 232 H 20.1124 0.699802 -0.261317 0
M  V30 233 H 22.7744 1.45574 -1.29592 0
M  V30 234 H 21.8704 2.95524 -1.0036 0
M  V30 235 N 22.1715 0.800033 1.35784 0
M  V30 236 C 23.1345 0.211565 2.28221 0
M  V30 237 C 24.1345 -0.59728 1.49296 0
M  V30 238 O 25.3245 -0.416721 1.69142 0
M  V30 239 C 22.4565 -0.705846 3.33513 0
M  V30 240 H 23.6495 1.02677 2.81776 0
M  V30 241 H 21.2025 0.570211 1.45528 0
M  V30 242 H 21.9375 -1.54498 2.85133 0
M  V30 243 H 21.7225 -0.127655 3.91892 0
M  V30 244 H 23.2125 -1.11211 4.02519 0
M  V30 245 N 23.6496 -1.47581 0.552962 0
M  V30 246 C 24.6126 -2.28439 -0.186605 0
M  V30 247 C 25.6126 -1.36706 -0.84665 0
M  V30 248 O 26.8026 -1.59378 -0.703164 0
M  V30 249 C 23.9346 -3.16264 -1.2724 0
M  V30 250 H 25.1276 -2.95294 0.523609 0
M  V30 251 H 22.6806 -1.532 0.309745 0
M  V30 252 H 23.4156 -2.54091 -2.01514 0
M  V30 253 H 23.2006 -3.83769 -0.803968 0
M  V30 254 H 24.6906 -3.77198 -1.79196 0
M  V30 255 N 25.1277 -0.289203 -1.54924 0
M  V30 256 C 26.3527 0.329299 -2.04769 0
M  V30 257 C 26.7777 1.4763 -1.16564 0
M  V30 258 O 26.1357 1.80527 -0.167186 0
M  V30 259 C 26.1837 0.774438 -3.52186 0
M  V30 260 O 25.2877 1.88038 -3.67036 0
M  V30 261 H 24.6287 0.0659259 -0.660719 0
M  V30 262 H 27.1587 -0.42761 -2.00082 0
M  V30 263 H 27.1687 1.06642 -3.93816 0
M  V30 264 H 25.8437 -0.0646707 -4.1585 0
M  V30 265 H 24.4207 1.58985 -3.3731 0
M  V30 266 N 26.6058 1.57591 -0.0167156 0
M  V30 267 C 27.8528 1.91283 0.664597 0
M  V30 268 C 28.1808 0.891949 1.72842 0
M  V30 269 O 27.4358 -0.100931 1.9544 0
M  V30 270 C 27.7348 3.3172 1.33029 0
M  V30 271 C 27.4008 4.4914 0.398047 0
M  V30 272 C 26.0628 4.80992 0.141421 0
M  V30 273 C 28.4148 5.20634 -0.242825 0
M  V30 274 C 25.7428 5.81703 -0.764092 0
M  V30 275 C 28.0948 6.22311 -1.13632 0
M  V30 276 C 26.7588 6.52611 -1.40196 0
M  V30 277 H 26.0288 0.699956 0.243193 0
M  V30 278 H 28.6758 1.9135 -0.0758267 0
M  V30 279 H 26.9808 3.27856 2.14517 0
M  V30 280 H 28.6778 3.55055 1.86379 0
M  V30 281 H 25.2678 4.24262 0.608238 0
M  V30 282 H 29.4518 4.96267 -0.0576019 0
M  V30 283 H 24.7078 6.03532 -0.977732 0
M  V30 284 H 28.8818 6.76834 -1.63917 0
M  V30 285 H 26.5088 7.30467 -2.10529 0
M  V30 286 N 28.0839 -0.256276 1.55502 0
M  V30 287 C 29.3329 -0.983486 1.76098 0
M  V30 288 C 29.6459 -1.86837 0.578896 0
M  V30 289 O 30.8519 -2.63163 0.667648 0
M  V30 290 C 29.3079 -1.79868 3.1173 0
M  V30 291 C 28.9159 -0.961648 4.37557 0
M  V30 292 C 30.6599 -2.51919 3.41668 0
M  V30 293 C 28.5669 -1.77219 5.64223 0
M  V30 294 H 27.4969 -0.370936 0.656447 0
M  V30 295 H 30.1479 -0.238492 1.81944 0
M  V30 296 H 28.5299 -2.58527 2.99966 0
M  V30 297 H 29.7039 -0.218048 4.60284 0
M  V30 298 H 28.0189 -0.354913 4.14885 0
M  V30 299 H 30.6159 -3.12998 4.33516 0
M  V30 300 H 30.9589 -3.23059 2.62562 0
M  V30 301 H 31.4919 -1.80278 3.54605 0
M  V30 302 H 28.2309 -1.10471 6.46124 0
M  V30 303 H 27.7509 -2.49132 5.45613 0
M  V30 304 H 29.4299 -2.34169 6.03137 0
M  V30 305 N 29.562 -1.4872 -0.521534 0
M  V30 306 C 30.495 -1.58451 -1.64221 0
M  V30 307 C 31.473 -0.434513 -1.56687 0
M  V30 308 O 32.657 -0.647275 -1.77038 0
M  V30 309 C 29.784 -1.52037 -3.02659 0
M  V30 310 C 28.83 -2.71981 -3.28525 0
M  V30 311 S 29.663 -4.33869 -3.13876 0
M  V30 312 C 30.819 -4.30067 -4.54745 0
M  V30 313 H 31.052 -2.53256 -1.55719 0
M  V30 314 H 28.585 -1.37358 -0.705143 0
M  V30 315 H 30.543 -1.49023 -3.82495 0
M  V30 316 H 29.204 -0.585541 -3.08594 0
M  V30 317 H 28.397 -2.63656 -4.29536 0
M  V30 318 H 27.999 -2.72302 -2.56374 0
M  V30 319 H 30.291 -4.00521 -5.46433 0
M  V30 320 H 31.234 -5.31287 -4.68123 0
M  V30 321 H 31.642 -3.60419 -4.34463 0
M  V30 322 N 31.0401 0.771051 -1.3745 0
M  V30 323 C 32.2861 1.5319 -1.32894 0
M  V30 324 C 32.6191 1.94008 0.0862511 0
M  V30 325 O 31.8941 1.64124 1.04373 0
M  V30 326 C 32.1771 2.79648 -2.26868 0
M  V30 327 C 32.0301 2.45079 -3.77169 0
M  V30 328 C 33.3491 3.81583 -2.19277 0
M  V30 329 H 30.4681 0.555744 -0.484064 0
M  V30 330 H 33.1101 0.884492 -1.68157 0
M  V30 331 H 31.2601 3.34891 -1.96926 0
M  V30 332 H 32.9321 1.95745 -4.1771 0
M  V30 333 H 31.1751 1.77767 -3.95704 0
M  V30 334 H 31.8461 3.35478 -4.38359 0
M  V30 335 H 34.3221 3.35835 -2.45671 0
M  V30 336 H 33.1981 4.67787 -2.87171 0
M  V30 337 H 33.4591 4.25897 -1.18592 0
M  V30 338 N 32.5182 1.22032 0.997298 0
M  V30 339 C 33.4812 0.987909 2.06816 0
M  V30 340 C 34.4812 -0.0440084 1.6074 0
M  V30 341 O 35.6712 0.194053 1.73116 0
M  V30 342 C 32.8032 0.49132 3.37341 0
M  V30 343 H 33.9962 1.93803 2.28868 0
M  V30 344 H 31.5492 1.03838 1.16822 0
M  V30 345 H 32.2842 -0.463364 3.20973 0
M  V30 346 H 32.0692 1.23575 3.72118 0
M  V30 347 H 33.5592 0.348824 4.16141 0
M  V30 348 N 33.9963 -1.19345 1.0293 0
M  V30 349 C 34.9463 -2.20472 0.58104 0
M  V30 350 C 35.9303 -1.56578 -0.370442 0
M  V30 351 O 37.1223 -1.75963 -0.191344 0
M  V30 352 C 34.2513 -3.43236 -0.066306 0
M  V30 353 C 33.3373 -4.14274 0.907642 0
M  V30 354 N 33.7283 -4.61492 2.07023 0
M  V30 355 C 32.0263 -4.39966 0.731177 0
M  V30 356 C 32.7273 -5.1605 2.68454 0
M  V30 357 N 31.7033 -5.06875 1.96414 0
M  V30 358 H 35.5053 -2.54659 1.46717 0
M  V30 359 H 33.0193 -1.35423 0.896345 0
M  V30 360 H 35.0163 -4.14927 -0.405068 0
M  V30 361 H 33.6763 -3.10549 -0.948118 0
M  V30 362 H 34.6873 -4.56304 2.44963 0
M  V30 363 H 31.3643 -4.17377 -0.101507 0
M  V30 364 H 32.7543 -5.6287 3.66915 0
M  V30 365 N 35.4744 -0.807222 -1.35358 0
M  V30 366 C 36.4044 -0.232509 -2.3234 0
M  V30 367 C 37.3854 0.642386 -1.57504 0
M  V30 368 O 38.5704 0.572526 -1.85569 0
M  V30 369 C 35.7004 0.619238 -3.41735 0
M  V30 370 C 34.6544 -0.157215 -4.27711 0
M  V30 371 C 33.9804 0.816273 -5.28433 0
M  V30 372 C 35.2804 -1.35656 -5.04376 0
M  V30 373 H 36.9744 -1.04276 -2.80654 0
M  V30 374 H 34.5204 -0.50288 -1.34934 0
M  V30 375 H 36.4734 1.03137 -4.08584 0
M  V30 376 H 35.1974 1.46239 -2.92031 0
M  V30 377 H 33.8564 -0.550525 -3.62443 0
M  V30 378 H 33.5044 1.65494 -4.74996 0
M  V30 379 H 33.2044 0.301067 -5.86828 0
M  V30 380 H 34.7284 1.22659 -5.98153 0
M  V30 381 H 36.1424 -1.01927 -5.64166 0
M  V30 382 H 34.5394 -1.8063 -5.7227 0
M  V30 383 H 35.6094 -2.14288 -4.34981 0
M  V30 384 N 36.9525 1.47285 -0.560781 0
M  V30 385 C 37.9155 2.28535 0.174488 0
M  V30 386 C 38.9155 1.37153 0.839388 0
M  V30 387 O 40.1055 1.59748 0.694702 0
M  V30 388 C 37.2375 3.16934 1.25561 0
M  V30 389 H 38.4305 2.95012 -0.539262 0
M  V30 390 H 35.9835 1.53034 -0.317865 0
M  V30 391 H 36.7185 2.55157 2.00164 0
M  V30 392 H 36.5035 3.8419 0.783604 0
M  V30 393 H 37.9935 3.78143 1.77193 0
M  V30 394 N 38.4306 0.297415 1.54768 0
M  V30 395 C 39.6796 -0.313669 1.99246 0
M  V30 396 C 39.9926 -1.55281 1.18942 0
M  V30 397 O 41.1986 -2.23825 1.5367 0
M  V30 398 C 39.6546 -0.609407 3.54703 0
M  V30 399 C 39.2626 0.611192 4.43811 0
M  V30 400 C 41.0066 -1.18188 4.07715 0
M  V30 401 C 38.9136 0.288805 5.90694 0
M  V30 402 H 37.8436 -0.120979 0.744231 0
M  V30 403 H 40.4946 0.40556 1.78962 0
M  V30 404 H 38.8766 -1.38813 3.70873 0
M  V30 405 H 40.0506 1.3875 4.39414 0
M  V30 406 H 38.3656 1.10205 4.01552 0
M  V30 407 H 40.9626 -1.43727 5.15021 0
M  V30 408 H 41.3056 -2.12299 3.58099 0
M  V30 409 H 41.8386 -0.464944 3.95074 0
M  V30 410 H 38.5776 1.19838 6.44453 0
M  V30 411 H 38.0976 -0.450305 5.98107 0
M  V30 412 H 39.7766 -0.110933 6.46905 0
M  V30 413 N 39.9087 -1.5758 0.0250728 0
M  V30 414 C 40.8567 -2.11125 -0.97617 0
M  V30 415 C 41.8507 -1.03689 -1.33959 0
M  V30 416 O 43.0567 -1.22128 -1.3223 0
M  V30 417 H 39.4317 -0.674468 -0.332561 0
M  V30 418 H 41.4027 -2.94194 -0.499223 0
M  V30 419 C 40.1517 -2.65017 -2.2508 0
M  V30 420 H 39.4747 -3.47333 -1.9799 0
M  V30 421 H 40.9147 -3.06133 -2.93357 0
M  V30 422 C 39.3737 -1.57574 -2.97779 0
M  V30 423 O 39.9037 -0.973203 -3.89733 0
M  V30 424 N 38.1097 -1.29716 -2.60043 0
M  V30 425 H 37.6567 -1.789 -1.85345 0
M  V30 426 H 37.6147 -0.58051 -3.08994 0
M  V30 427 N 41.3868 0.248026 -1.55636 0
M  V30 428 C 42.6328 0.97767 -1.77678 0
M  V30 429 C 42.9658 1.85016 -0.590135 0
M  V30 430 O 42.2408 1.90095 0.411611 0
M  V30 431 C 42.5238 1.83914 -3.09593 0
M  V30 432 C 42.3768 0.99491 -4.38659 0
M  V30 433 C 43.6958 2.82183 -3.37729 0
M  V30 434 H 40.8148 0.354005 -0.646413 0
M  V30 435 H 43.4568 0.248253 -1.88371 0
M  V30 436 H 41.6068 2.46104 -3.00608 0
M  V30 437 H 43.2788 0.391789 -4.59633 0
M  V30 438 H 41.5218 0.299231 -4.32767 0
M  V30 439 H 42.1928 1.63145 -5.2734 0
M  V30 440 H 44.6688 2.30129 -3.4667 0
M  V30 441 H 43.5448 3.39582 -4.31249 0
M  V30 442 H 43.8058 3.58588 -2.58586 0
M  V30 443 N 42.8649 1.48995 0.513639 0
M  V30 444 C 44.0899 1.61792 1.29762 0
M  V30 445 C 44.5149 0.284475 1.85936 0
M  V30 446 O 43.8729 -0.746185 1.65232 0
M  V30 447 C 43.9209 2.67993 2.41272 0
M  V30 448 O 43.0249 2.26287 3.44772 0
M  V30 449 H 42.3659 0.541963 0.38363 0
M  V30 450 H 44.8959 1.95097 0.616307 0
M  V30 451 H 44.9059 2.89772 2.87221 0
M  V30 452 H 43.5809 3.64791 1.9975 0
M  V30 453 H 42.1579 2.14788 3.04829 0
M  V30 454 N 44.343 -0.763751 1.37857 0
M  V30 455 C 45.29 -1.87726 1.34267 0
M  V30 456 C 46.26 -1.64807 0.206879 0
M  V30 457 O 47.445 -1.86613 0.397508 0
M  V30 458 C 44.585 -3.24896 1.16346 0
M  V30 459 C 43.698 -3.59716 2.39225 0
M  V30 460 C 42.833 -4.86137 2.14114 0
M  V30 461 C 41.872 -5.13711 3.32817 0
M  V30 462 N 41.009 -6.31323 3.07206 0
M  V30 463 H 45.849 -1.90129 2.29466 0
M  V30 464 H 43.386 -0.929433 1.14017 0
M  V30 465 H 45.344 -4.04036 1.03975 0
M  V30 466 H 43.974 -3.21847 0.247909 0
M  V30 467 H 43.026 -2.75498 2.62307 0
M  V30 468 H 44.338 -3.76027 3.27728 0
M  V30 469 H 43.492 -5.73198 1.9882 0
M  V30 470 H 42.231 -4.71945 1.22961 0
M  V30 471 H 41.236 -4.25123 3.48641 0
M  V30 472 H 42.461 -5.29807 4.24832 0
M  V30 473 H 40.407 -6.18474 2.1869 0
M  V30 474 H 40.324 -6.48087 3.89254 0
M  V30 475 H 41.592 -7.213 2.95546 0
M  V30 476 N 45.8211 -1.22559 -0.990812 0
M  V30 477 C 46.7841 -0.998863 -2.0629 0
M  V30 478 C 47.7841 0.0354834 -1.60761 0
M  V30 479 O 48.9741 -0.203231 -1.7301 0
M  V30 480 C 46.1061 -0.509203 -3.37076 0
M  V30 481 H 47.2991 -1.95014 -2.27837 0
M  V30 482 H 44.8521 -1.04456 -1.16269 0
M  V30 483 H 45.5871 0.446335 -3.21214 0
M  V30 484 H 45.3721 -1.25547 -3.71457 0
M  V30 485 H 46.8621 -0.370888 -4.1595 0
M  V30 486 N 47.2992 1.18797 -1.03562 0
M  V30 487 C 48.7152 1.40671 -0.753917 0
M  V30 488 C 48.9152 1.9043 0.658686 0
M  V30 489 O 47.9712 2.08538 1.42366 0
M  V30 490 C 49.2842 2.41192 -1.79574 0
M  V30 491 C 50.8322 2.54928 -1.81606 0
M  V30 492 C 51.3072 3.58709 -2.84766 0
M  V30 493 N 52.7982 3.66212 -2.83625 0
M  V30 494 C 53.5332 4.46225 -3.60098 0
M  V30 495 N 53.0292 5.29888 -4.46308 0
M  V30 496 N 54.8222 4.40939 -3.4861 0
M  V30 497 H 46.9732 0.848221 -1.94728 0
M  V30 498 H 49.2362 0.435081 -0.842264 0
M  V30 499 H 48.9422 2.11669 -2.80872 0
M  V30 500 H 48.8162 3.40467 -1.62365 0
M  V30 501 H 51.2032 2.83771 -0.809817 0
M  V30 502 H 51.2842 1.55784 -2.02891 0
M  V30 503 H 50.9282 3.30607 -3.85566 0
M  V30 504 H 50.8582 4.57519 -2.60737 0
M  V30 505 H 53.3492 3.06466 -2.21105 0
M  V30 506 H 53.6622 5.88078 -5.01382 0
M  V30 507 H 52.0072 5.29326 -4.50377 0
M  V30 508 H 55.1982 3.74624 -2.80668 0
M  V30 509 H 55.3712 5.03056 -4.08459 0
M  V30 510 N 48.7773 0.814389 1.34928 0
M  V30 511 C 49.7243 0.22822 2.29669 0
M  V30 512 C 50.6943 -0.642164 1.53184 0
M  V30 513 O 51.8793 -0.585605 1.81591 0
M  V30 514 C 49.0193 -0.61089 3.3965 0
M  V30 515 C 48.1323 0.280792 4.31086 0
M  V30 516 C 47.2673 -0.567067 5.28165 0
M  V30 517 C 46.3063 0.324531 6.11239 0
M  V30 518 N 45.4433 -0.483756 7.00431 0
M  V30 519 H 50.2833 1.04153 2.79206 0
M  V30 520 H 47.8203 0.525133 1.37407 0
M  V30 521 H 49.7783 -1.11263 4.0209 0
M  V30 522 H 48.4083 -1.38939 2.91369 0
M  V30 523 H 47.4603 0.900688 3.69583 0
M  V30 524 H 48.7723 0.966723 4.89342 0
M  V30 525 H 47.9263 -1.13363 5.96015 0
M  V30 526 H 46.6653 -1.28654 4.70425 0
M  V30 527 H 45.6703 0.903298 5.42329 0
M  V30 528 H 46.8953 1.04198 6.71059 0
M  V30 529 H 44.8413 -1.18706 6.45171 0
M  V30 530 H 44.7583 0.143965 7.55863 0
M  V30 531 H 46.0263 -1.03334 7.7262 0
M  V30 532 N 50.2554 -1.46986 0.568584 0
M  V30 533 C 51.2024 -2.30153 -0.172707 0
M  V30 534 C 52.1724 -1.39759 -0.897586 0
M  V30 535 O 53.3574 -1.68716 -0.891044 0
M  V30 536 C 50.4974 -3.23952 -1.1895 0
M  V30 537 C 49.6104 -4.29441 -0.469517 0
M  V30 538 C 48.7454 -5.1038 -1.47259 0
M  V30 539 C 47.7844 -6.07632 -0.738225 0
M  V30 540 N 46.9214 -6.8149 -1.68868 0
M  V30 541 H 51.7614 -2.93019 0.542596 0
M  V30 542 H 49.2984 -1.44422 0.279401 0
M  V30 543 H 51.2564 -3.76767 -1.79173 0
M  V30 544 H 49.8864 -2.62926 -1.87269 0
M  V30 545 H 48.9384 -3.79594 0.247467 0
M  V30 546 H 50.2504 -4.98689 0.105241 0
M  V30 547 H 49.4044 -5.67402 -2.14803 0
M  V30 548 H 48.1434 -4.4106 -2.08128 0
M  V30 549 H 47.1484 -5.49778 -0.0489293 0
M  V30 550 H 48.3734 -6.78966 -0.135129 0
M  V30 551 H 46.3194 -6.14891 -2.28573 0
M  V30 552 H 46.2364 -7.46948 -1.16636 0
M  V30 553 H 47.5044 -7.43078 -2.3549 0
M  V30 554 N 51.7335 -0.305618 -1.54608 0
M  V30 555 C 52.9635 0.304333 -2.04346 0
M  V30 556 C 53.3715 1.47715 -1.18224 0
M  V30 557 O 52.7145 1.82591 -0.201577 0
M  V30 558 C 52.7765 0.819031 -3.50046 0
M  V30 559 C 52.4405 -0.22912 -4.56425 0
M  V30 560 C 53.4375 -1.05914 -5.08997 0
M  V30 561 C 51.1225 -0.372148 -5.0092 0
M  V30 562 C 53.1165 -2.01809 -6.04609 0
M  V30 563 C 50.8035 -1.33454 -5.9635 0
M  V30 564 C 51.8015 -2.15599 -6.48079 0
M  V30 565 O 51.4895 -3.10205 -7.41639 0
M  V30 566 H 51.2215 0.0693996 -0.672428 0
M  V30 567 H 53.7755 -0.444548 -2.00532 0
M  V30 568 H 52.0055 1.61852 -3.51199 0
M  V30 569 H 53.6945 1.34537 -3.82955 0
M  V30 570 H 54.4605 -0.959538 -4.75413 0
M  V30 571 H 50.3395 0.257304 -4.60281 0
M  V30 572 H 53.8835 -2.65966 -6.44909 0
M  V30 573 H 49.7805 -1.43485 -6.29351 0
M  V30 574 H 50.5485 -3.05237 -7.59455 0
M  V30 575 N 53.2116 1.57565 -0.0334293 0
M  V30 576 C 54.1586 2.10478 0.946981 0
M  V30 577 C 55.1286 1.00787 1.32027 0
M  V30 578 O 56.3136 1.28232 1.41284 0
M  V30 579 C 53.4536 2.63994 2.22263 0
M  V30 580 C 52.5666 3.87709 1.90541 0
M  V30 581 C 51.7016 4.29604 3.12433 0
M  V30 582 C 50.7406 5.46065 2.76549 0
M  V30 583 N 49.8776 5.83096 3.9108 0
M  V30 584 H 54.7176 2.93963 0.488846 0
M  V30 585 H 52.2546 1.45296 0.22969 0
M  V30 586 H 54.2126 2.93114 2.96884 0
M  V30 587 H 52.8426 1.83333 2.65685 0
M  V30 588 H 51.8946 3.65291 1.06144 0
M  V30 589 H 53.2066 4.72403 1.60116 0
M  V30 590 H 52.3606 4.60182 3.9537 0
M  V30 591 H 51.0996 3.43685 3.46023 0
M  V30 592 H 50.1046 5.15176 1.92026 0
M  V30 593 H 51.3296 6.33685 2.44171 0
M  V30 594 H 49.2756 5.00132 4.24504 0
M  V30 595 H 49.1926 6.6244 3.64293 0
M  V30 596 H 50.4606 6.18282 4.74708 0
M  V30 597 N 54.6897 -0.239769 1.55765 0
M  V30 598 C 55.9357 -0.968234 1.78194 0
M  V30 599 C 56.2687 -1.84701 0.599938 0
M  V30 600 O 55.5437 -1.9031 -0.401524 0
M  V30 601 C 55.8267 -1.8227 3.10564 0
M  V30 602 C 55.6797 -0.971633 4.3918 0
M  V30 603 C 56.9987 -2.80388 3.39221 0
M  V30 604 H 54.1177 -0.350572 0.648281 0
M  V30 605 H 56.7597 -0.238259 1.885 0
M  V30 606 H 54.9097 -2.44507 3.01908 0
M  V30 607 H 56.5817 -0.367408 4.59835 0
M  V30 608 H 54.8247 -0.276276 4.32919 0
M  V30 609 H 55.4957 -1.60346 5.28198 0
M  V30 610 H 57.9717 -2.28287 3.47885 0
M  V30 611 H 56.8477 -3.3729 4.33044 0
M  V30 612 H 57.1087 -3.57212 2.60484 0
M  V30 613 N 56.1678 -1.49265 -0.50573 0
M  V30 614 C 57.0778 -1.68312 -1.63427 0
M  V30 615 C 58.0938 -0.565682 -1.64548 0
M  V30 616 O 59.2698 -0.839801 -1.83055 0
M  V30 617 C 56.3348 -1.74107 -2.99813 0
M  V30 618 C 55.3958 -2.97653 -3.09356 0
M  V30 619 C 54.6288 -3.03163 -4.39236 0
M  V30 620 O 54.8518 -2.16396 -5.27758 0
M  V30 621 O 53.7858 -3.9558 -4.53652 0
M  V30 622 H 57.6118 -2.63907 -1.50289 0
M  V30 623 H 55.1968 -1.32951 -0.681502 0
M  V30 624 H 57.0788 -1.803 -3.80881 0
M  V30 625 H 55.7538 -0.816901 -3.13223 0
M  V30 626 H 54.6608 -2.96981 -2.27493 0
M  V30 627 H 55.9938 -3.89535 -3.00871 0
M  V30 628 N 57.6459 0.756429 -1.3826 0
M  V30 629 C 58.8759 1.54341 -1.3734 0
M  V30 630 C 59.2839 1.89159 0.0393917 0
M  V30 631 O 58.6269 1.5307 1.01565 0
M  V30 632 C 58.6889 2.87238 -2.16182 0
M  V30 633 C 58.3529 2.74973 -3.65019 0
M  V30 634 C 59.3499 2.44962 -4.58574 0
M  V30 635 C 57.0349 2.92515 -4.08338 0
M  V30 636 C 59.0289 2.32642 -5.93428 0
M  V30 637 C 56.7159 2.79815 -5.43274 0
M  V30 638 C 57.7139 2.49921 -6.35632 0
M  V30 639 O 57.4019 2.37275 -7.68086 0
M  V30 640 H 57.1339 0.484281 -0.471643 0
M  V30 641 H 59.6879 0.944152 -1.82414 0
M  V30 642 H 57.9179 3.49342 -1.65822 0
M  V30 643 H 59.6069 3.48731 -2.07705 0
M  V30 644 H 60.3729 2.31081 -4.26412 0
M  V30 645 H 56.2519 3.14781 -3.368 0
M  V30 646 H 59.7959 2.0923 -6.65484 0
M  V30 647 H 55.6929 2.93269 -5.75034 0
M  V30 648 H 56.4609 2.52509 -7.78577 0
M  V30 649 N 59.124 1.23083 0.984299 0
M  V30 650 C 60.535 1.05609 1.5396 0
M  V30 651 C 60.886 -0.377793 1.92528 0
M  V30 652 O 60.011 -1.26398 1.75649 0
M  V30 653 C 60.606 1.91087 2.7977 0
M  V30 654 C 59.165 1.77885 3.31713 0
M  V30 655 C 58.312 1.87028 2.04733 0
M  V30 656 H 61.263 1.36802 0.804419 0
M  V30 657 H 61.284 1.43336 3.5247 0
M  V30 658 H 60.796 2.9544 2.51668 0
M  V30 659 H 58.897 0.762995 3.64704 0
M  V30 660 H 59.01 2.61047 4.01735 0
M  V30 661 H 57.374 1.30565 2.18689 0
M  V30 662 H 58.157 2.92929 1.79017 0
M  V30 663 N 60.6021 -1.18246 1.0419 0
M  V30 664 C 61.8511 -1.87588 0.741194 0
M  V30 665 C 62.1641 -1.81303 -0.734066 0
M  V30 666 O 63.3701 -2.46019 -1.14834 0
M  V30 667 C 61.8261 -3.36538 1.27555 0
M  V30 668 C 61.4341 -3.51349 2.77953 0
M  V30 669 C 63.1781 -4.11273 1.05143 0
M  V30 670 C 61.0851 -4.94265 3.2474 0
M  V30 671 H 60.0151 -0.702622 0.273565 0
M  V30 672 H 62.6661 -1.33601 1.25789 0
M  V30 673 H 61.0481 -3.9 0.686703 0
M  V30 674 H 62.2221 -3.08153 3.42605 0
M  V30 675 H 60.5371 -2.90022 2.98791 0
M  V30 676 H 63.1341 -5.16689 1.37611 0
M  V30 677 H 63.4771 -4.16298 -0.0112774 0
M  V30 678 H 64.0101 -3.63987 1.60495 0
M  V30 679 H 60.7491 -4.94408 4.30396 0
M  V30 680 H 60.2691 -5.38172 2.64823 0
M  V30 681 H 61.9481 -5.62987 3.18834 0
M  V30 682 N 62.0802 -0.821533 -1.34494 0
M  V30 683 C 63.0132 -0.187704 -2.27427 0
M  V30 684 C 63.9912 0.65507 -1.48821 0
M  V30 685 O 65.1752 0.619111 -1.78043 0
M  V30 686 C 62.3022 0.737996 -3.30562 0
M  V30 687 C 61.3482 -0.0270713 -4.26491 0
M  V30 688 S 62.1812 -1.37329 -5.17592 0
M  V30 689 C 63.3372 -0.452427 -6.24263 0
M  V30 690 H 63.5702 -0.975598 -2.80837 0
M  V30 691 H 61.1032 -0.61736 -1.4152 0
M  V30 692 H 63.0612 1.26654 -3.90473 0
M  V30 693 H 61.7222 1.4994 -2.76001 0
M  V30 694 H 60.9152 0.6766 -4.99438 0
M  V30 695 H 60.5172 -0.48612 -3.70827 0
M  V30 696 H 62.8092 0.356557 -6.76561 0
M  V30 697 H 63.7522 -1.15153 -6.98674 0
M  V30 698 H 64.1602 -0.0414755 -5.64485 0
M  V30 699 N 63.5583 1.46682 -0.576371 0
M  V30 700 C 64.7883 2.06498 -0.0648694 0
M  V30 701 C 65.1963 1.42665 1.24271 0
M  V30 702 O 64.5393 0.523886 1.76071 0
M  V30 703 C 64.6013 3.5904 0.181816 0
M  V30 704 C 64.2653 4.45028 -1.0392 0
M  V30 705 C 65.2623 4.81959 -1.94966 0
M  V30 706 C 62.9473 4.86259 -1.25927 0
M  V30 707 C 64.9413 5.58942 -3.06371 0
M  V30 708 C 62.6283 5.63002 -2.37638 0
M  V30 709 C 63.6263 5.99257 -3.2769 0
M  V30 710 O 63.3143 6.7445 -4.37461 0
M  V30 711 H 63.0463 0.674028 -0.0515987 0
M  V30 712 H 65.6003 1.89393 -0.794951 0
M  V30 713 H 63.8303 3.74429 0.966436 0
M  V30 714 H 65.5193 4.00806 0.641047 0
M  V30 715 H 66.2853 4.50689 -1.79177 0
M  V30 716 H 62.1643 4.57494 -0.567448 0
M  V30 717 H 65.7083 5.87158 -3.76684 0
M  V30 718 H 61.6053 5.93686 -2.53392 0
M  V30 719 H 62.3733 6.92867 -4.35749 0
M  V30 720 N 65.0364 0.313813 1.54444 0
M  V30 721 C 66.2614 -0.296681 2.05267 0
M  V30 722 C 66.6864 -1.45757 1.18897 0
M  V30 723 O 66.0444 -1.80239 0.195886 0
M  V30 724 C 66.0924 -0.71831 3.53373 0
M  V30 725 O 65.1964 -1.82175 3.69981 0
M  V30 726 H 64.5374 -0.0554061 0.661684 0
M  V30 727 H 67.0674 0.459387 1.99376 0
M  V30 728 H 67.0774 -1.00364 3.95463 0
M  V30 729 H 65.7524 0.130821 4.15694 0
M  V30 730 H 64.3294 -1.53598 3.39797 0
M  V30 731 N 66.5145 -1.57545 0.0417849 0
M  V30 732 C 67.7425 -1.96624 -0.643928 0
M  V30 733 C 68.1575 -0.918897 -1.64929 0
M  V30 734 O 67.5145 0.0979323 -1.82237 0
M  V30 735 C 67.5655 -3.35781 -1.33914 0
M  V30 736 O 67.2865 -4.365 -0.374048 0
M  V30 737 C 68.7875 -3.89566 -2.1155 0
M  V30 738 H 66.0075 -0.647316 -0.176702 0
M  V30 739 H 68.5515 -2.04229 0.105304 0
M  V30 740 H 66.7065 -3.29357 -2.03968 0
M  V30 741 H 67.1205 -5.17248 -0.869179 0
M  V30 742 H 68.5945 -4.89242 -2.55628 0
M  V30 743 H 69.0715 -3.24488 -2.9598 0
M  V30 744 H 69.6775 -3.99298 -1.46427 0
M  V30 745 N 67.9926 0.231505 -1.5589 0
M  V30 746 C 69.2696 0.981096 -1.69215 0
M  V30 747 C 69.6496 2.02799 -0.586164 0
M  V30 748 O 68.9976 2.24823 0.408253 0
M  V30 749 C 69.2076 1.60054 -3.10135 0
M  V30 750 C 70.5556 2.09658 -3.69227 0
M  V30 751 O 71.5796 1.69967 -3.13033 0
M  V30 752 O 70.4386 2.8258 -4.67772 0
M  V30 753 H 67.5326 0.457653 -0.688827 0
M  V30 754 H 70.0786 0.224073 -1.68214 0
M  V30 755 H 68.8506 0.844105 -3.82087 0
M  V30 756 H 68.4736 2.42336 -3.15212 0
M  V30 757 N 69.4707 1.49531 0.497807 0
M  V30 758 C 70.8817 1.52344 1.07927 0
M  V30 759 C 71.2327 0.311469 1.93712 0
M  V30 760 O 70.3577 -0.578405 2.08527 0
M  V30 761 C 70.9527 2.76062 1.96405 0
M  V30 762 C 69.5117 2.81643 2.49709 0
M  V30 763 C 68.6587 2.46299 1.27404 0
M  V30 764 H 71.6097 1.56182 0.281576 0
M  V30 765 H 71.6307 2.56405 2.81135 0
M  V30 766 H 71.1427 3.64254 1.33943 0
M  V30 767 H 69.2437 1.97739 3.15801 0
M  V30 768 H 69.3567 3.83891 2.86643 0
M  V30 769 H 67.7207 1.98148 1.60029 0
M  V30 770 H 68.5037 3.36769 0.66645 0
M  V30 771 N 70.9488 -0.749086 1.3866 0
M  V30 772 C 71.8588 -1.89358 1.38494 0
M  V30 773 C 72.8748 -1.71708 0.281476 0
M  V30 774 O 74.0508 -1.94554 0.520643 0
M  V30 775 C 71.1158 -3.24782 1.21316 0
M  V30 776 C 70.1768 -3.54926 2.41508 0
M  V30 777 C 69.4098 -4.83888 2.2514 0
M  V30 778 O 69.6328 -5.56592 1.24746 0
M  V30 779 O 68.5668 -5.13612 3.13826 0
M  V30 780 H 72.3928 -1.92452 2.34938 0
M  V30 781 H 69.9778 -0.894981 1.19626 0
M  V30 782 H 71.8598 -4.05739 1.13814 0
M  V30 783 H 70.5348 -3.2249 0.279592 0
M  V30 784 H 69.4418 -2.74112 2.54585 0
M  V30 785 H 70.7748 -3.61983 3.3351 0
M  V30 786 N 72.4269 -1.23603 -0.977757 0
M  V30 787 C 73.3749 -1.01704 -2.09187 0
M  V30 788 C 74.3689 0.0448214 -1.69341 0
M  V30 789 O 75.5749 -0.108902 -1.7967 0
M  V30 790 H 71.9499 -0.311803 -0.684312 0
M  V30 791 H 73.9209 -1.96207 -2.24823 0
M  V30 792 C 72.6699 -0.627746 -3.41986 0
M  V30 793 H 71.9929 -1.43656 -3.73099 0
M  V30 794 H 73.4329 -0.514053 -4.20872 0
M  V30 795 C 71.8919 0.664238 -3.30287 0
M  V30 796 O 72.4219 1.71268 -3.6336 0
M  V30 797 N 70.6279 0.641156 -2.83439 0
M  V30 798 H 70.1749 -0.212376 -2.56723 0
M  V30 799 H 70.1329 1.50583 -2.75993 0
M  V30 800 N 73.905 1.17692 -1.04816 0
M  V30 801 C 75.153 1.87488 -0.754497 0
M  V30 802 C 75.474 1.81205 0.720407 0
M  V30 803 O 74.744 1.23544 1.52032 0
M  V30 804 H 73.324 0.694101 -0.276102 0
M  V30 805 H 75.986 1.42793 -1.32651 0
M  V30 806 H 75.082 2.93328 -1.06606 0
M  V30 807 N 75.3831 0.828654 1.34056 0
M  V30 808 C 76.3331 0.226828 2.26869 0
M  V30 809 C 77.3171 -0.612243 1.48796 0
M  V30 810 O 78.5091 -0.465884 1.70759 0
M  V30 811 C 75.6381 -0.605654 3.37915 0
M  V30 812 C 74.7241 0.244361 4.23395 0
M  V30 813 N 75.1151 1.31815 4.88322 0
M  V30 814 C 73.4131 0.0296616 4.4599 0
M  V30 815 C 74.1141 1.83895 5.51867 0
M  V30 816 N 73.0901 1.14196 5.3147 0
M  V30 817 H 76.8921 1.04811 2.74576 0
M  V30 818 H 74.4061 0.67205 1.47842 0
M  V30 819 H 76.4031 -1.05302 4.03382 0
M  V30 820 H 75.0631 -1.42504 2.91758 0
M  V30 821 H 76.0741 1.70099 4.8917 0
M  V30 822 H 72.7511 -0.757097 4.10578 0
M  V30 823 H 74.1411 2.7376 6.136 0
M  V30 824 N 76.8612 -1.46375 0.584142 0
M  V30 825 C 78.1102 -2.01585 0.0679741 0
M  V30 826 C 78.4232 -1.46109 -1.30045 0
M  V30 827 O 79.6292 -1.93148 -1.90804 0
M  V30 828 C 78.0852 -3.5983 0.0709207 0
M  V30 829 C 77.6932 -4.24303 1.43775 0
M  V30 830 C 79.4372 -4.22693 -0.391228 0
M  V30 831 C 77.3442 -5.74631 1.39834 0
M  V30 832 H 76.2742 -0.753689 0.0216421 0
M  V30 833 H 78.9252 -1.68093 0.736001 0
M  V30 834 H 77.3072 -3.90405 -0.663299 0
M  V30 835 H 78.4812 -4.05335 2.19181 0
M  V30 836 H 76.7962 -3.73539 1.84004 0
M  V30 837 H 79.3932 -5.3289 -0.439524 0
M  V30 838 H 79.7362 -3.91728 -1.40906 0
M  V30 839 H 80.2692 -3.96749 0.288974 0
M  V30 840 H 77.0082 -6.10258 2.39303 0
M  V30 841 H 76.5282 -5.95858 0.686505 0
M  V30 842 H 78.2072 -6.37375 1.11187 0
M  V30 843 N 78.3393 -0.321999 -1.54275 0
M  V30 844 C 79.5863 0.281044 -2.0054 0
M  V30 845 C 79.9143 1.52265 -1.21019 0
M  V30 846 O 79.1693 1.93687 -0.279982 0
M  V30 847 C 79.4683 0.661769 -3.5122 0
M  V30 848 C 79.1343 -0.480482 -4.48333 0
M  V30 849 C 77.7963 -0.794005 -4.74604 0
M  V30 850 C 80.1483 -1.24783 -5.06042 0
M  V30 851 C 77.4763 -1.87763 -5.55844 0
M  V30 852 C 79.8283 -2.32153 -5.88462 0
M  V30 853 C 78.4923 -2.64089 -6.13036 0
M  V30 854 H 77.7623 0.102841 -0.733829 0
M  V30 855 H 80.4093 -0.445453 -1.86247 0
M  V30 856 H 78.7143 1.46867 -3.63232 0
M  V30 857 H 80.4113 1.13989 -3.84457 0
M  V30 858 H 77.0013 -0.226039 -4.28004 0
M  V30 859 H 81.1853 -1.01887 -4.85729 0
M  V30 860 H 76.4413 -2.12954 -5.73115 0
M  V30 861 H 80.6153 -2.92057 -6.32199 0
M  V30 862 H 78.2423 -3.48185 -6.75775 0
M  V30 863 N 79.8174 1.5752 -0.0501392 0
M  V30 864 C 80.7654 2.12651 0.942459 0
M  V30 865 C 81.7594 1.05807 1.32292 0
M  V30 866 O 82.9654 1.24217 1.3027 0
M  V30 867 H 79.3404 0.679673 0.321789 0
M  V30 868 H 81.3114 2.94951 0.452356 0
M  V30 869 C 80.0604 2.68565 2.20836 0
M  V30 870 H 79.3834 3.50439 1.92439 0
M  V30 871 H 80.8234 3.10761 2.8845 0
M  V30 872 C 79.2824 1.62291 2.95234 0
M  V30 873 O 79.8124 1.03508 3.88135 0
M  V30 874 N 78.0184 1.33836 2.57946 0
M  V30 875 H 77.5654 1.81826 1.82475 0
M  V30 876 H 77.5234 0.629595 3.08032 0
M  V30 877 N 81.2955 -0.223234 1.56011 0
M  V30 878 C 82.5355 -0.954962 1.8072 0
M  V30 879 C 82.8995 -1.81598 0.623384 0
M  V30 880 O 84.1005 -2.58132 0.749745 0
M  V30 881 C 82.3715 -1.77313 3.10314 0
M  V30 882 S 83.9305 -2.56073 3.56332 0
M  V30 883 H 80.7485 -0.320812 0.634508 0
M  V30 884 H 83.3505 -0.220686 1.9425 0
M  V30 885 H 82.0545 -1.13071 3.94516 0
M  V30 886 H 81.5855 -2.54974 2.99586 0
M  V30 887 H 83.6005 -3.79619 3.19536 0
M  V30 888 N 82.7736 -1.49793 -0.48987 0
M  V30 889 C 84.0226 -1.59085 -1.23995 0
M  V30 890 C 84.3356 -0.287907 -1.9347 0
M  V30 891 O 85.5416 -0.259506 -2.70257 0
M  V30 892 C 83.9976 -2.80736 -2.252 0
M  V30 893 C 83.6056 -4.17833 -1.61614 0
M  V30 894 C 85.3496 -2.99364 -3.00967 0
M  V30 895 C 83.2566 -5.30693 -2.60996 0
M  V30 896 H 82.1866 -0.592372 -0.466488 0
M  V30 897 H 84.8376 -1.76197 -0.51252 0
M  V30 898 H 83.2196 -2.57142 -3.01154 0
M  V30 899 H 84.3936 -4.51608 -0.915774 0
M  V30 900 H 82.7086 -4.04656 -0.981977 0
M  V30 901 H 85.3056 -3.80851 -3.75308 0
M  V30 902 H 85.6486 -2.10356 -3.59244 0
M  V30 903 H 86.1816 -3.2305 -2.32128 0
M  V30 904 H 82.9206 -6.21796 -2.07485 0
M  V30 905 H 82.4406 -5.01359 -3.2924 0
M  V30 906 H 84.1196 -5.6049 -3.23202 0
M  V30 907 N 84.2517 0.741722 -1.39055 0
M  V30 908 C 85.1837 1.8657 -1.33133 0
M  V30 909 C 86.1967 1.61001 -0.241329 0
M  V30 910 O 87.3857 1.7136 -0.499784 0
M  V30 911 C 84.4857 3.22457 -1.04283 0
M  V30 912 C 83.6587 3.75435 -2.24427 0
M  V30 913 C 82.7177 4.89867 -1.92138 0
M  V30 914 O 81.7437 5.03879 -2.64754 0
M  V30 915 N 82.9457 5.73738 -0.88347 0
M  V30 916 H 85.7107 1.92156 -2.29991 0
M  V30 917 H 83.2717 0.922172 -1.3307 0
M  V30 918 H 85.2637 3.9657 -0.807128 0
M  V30 919 H 83.8337 3.12181 -0.161807 0
M  V30 920 H 83.0537 2.92751 -2.6399 0
M  V30 921 H 84.3417 4.07563 -3.04581 0
M  V30 922 H 83.7397 5.64999 -0.281517 0
M  V30 923 H 82.2967 6.47947 -0.707662 0
M  V30 924 N 85.7298 1.2412 0.971189 0
M  V30 925 C 87.1458 1.00584 1.23916 0
M  V30 926 C 87.3458 -0.287481 1.99439 0
M  V30 927 O 86.4018 -1.00454 2.31658 0
M  V30 928 C 87.7148 2.21864 2.0297 0
M  V30 929 C 89.2628 2.26452 2.16076 0
M  V30 930 C 89.7378 3.47343 2.98524 0
M  V30 931 N 91.2288 3.47639 3.06107 0
M  V30 932 C 91.9638 4.37837 3.70251 0
M  V30 933 N 91.4598 5.38286 4.36142 0
M  V30 934 N 93.2528 4.25558 3.67228 0
M  V30 935 H 85.4038 2.07236 0.465499 0
M  V30 936 H 87.6668 0.909236 0.268315 0
M  V30 937 H 87.3728 3.15771 1.54861 0
M  V30 938 H 87.2468 2.23698 3.03709 0
M  V30 939 H 89.6338 1.33078 2.6339 0
M  V30 940 H 89.7148 2.28645 1.14696 0
M  V30 941 H 89.3588 4.41029 2.51905 0
M  V30 942 H 89.2888 3.42393 4.00093 0
M  V30 943 H 91.7798 2.74966 2.59233 0
M  V30 944 H 92.0928 6.03352 4.82894 0
M  V30 945 H 90.4378 5.42176 4.34822 0
M  V30 946 H 93.6288 3.46322 3.14927 0
M  V30 947 H 93.8018 4.96054 4.16935 0
M  V30 948 N 87.2079 -1.17134 1.05439 0
M  V30 949 C 88.1709 -2.19439 0.661764 0
M  V30 950 C 89.1709 -1.58199 -0.288042 0
M  V30 951 O 90.3609 -1.74053 -0.0715803 0
M  V30 952 C 87.4929 -3.40889 -0.0276209 0
M  V30 953 H 88.6859 -2.55688 1.56728 0
M  V30 954 H 86.2389 -1.31259 0.848567 0
M  V30 955 H 86.9739 -3.10187 -0.94629 0
M  V30 956 H 86.7589 -3.86586 0.655238 0
M  V30 957 H 88.2489 -4.16603 -0.288342 0
M  V30 958 N 88.686 -0.835752 -1.33615 0
M  V30 959 C 89.636 -0.238856 -2.26745 0
M  V30 960 C 90.62 0.604343 -1.49119 0
M  V30 961 O 91.812 0.456822 -1.71003 0
M  V30 962 C 88.941 0.587725 -3.38232 0
M  V30 963 C 88.027 -0.266811 -4.2326 0
M  V30 964 N 88.418 -1.34403 -4.87616 0
M  V30 965 C 86.716 -0.0533131 -4.45968 0
M  V30 966 C 87.417 -1.86819 -5.50884 0
M  V30 967 N 86.393 -1.17013 -5.30857 0
M  V30 968 H 90.195 -1.06266 -2.74016 0
M  V30 969 H 87.709 -0.679881 -1.47483 0
M  V30 970 H 89.706 1.03161 -4.03935 0
M  V30 971 H 88.366 1.40954 -2.9251 0
M  V30 972 H 89.377 -1.7269 -4.88261 0
M  V30 973 H 86.054 0.735312 -4.10974 0
M  V30 974 H 87.444 -2.7701 -6.1214 0
M  V30 975 N 90.1641 1.46063 -0.591896 0
M  V30 976 C 91.0961 2.28539 0.174001 0
M  V30 977 C 92.1091 1.39047 0.846753 0
M  V30 978 O 93.2981 1.63564 0.714774 0
M  V30 979 C 90.3981 3.14347 1.26645 0
M  V30 980 C 89.5711 4.32021 0.683856 0
M  V30 981 C 88.6301 4.99157 1.66518 0
M  V30 982 O 87.6561 5.56458 1.19763 0
M  V30 983 N 88.8581 4.97005 2.99943 0
M  V30 984 H 91.6231 2.94911 -0.533633 0
M  V30 985 H 89.1841 1.56077 -0.430294 0
M  V30 986 H 91.1761 3.56125 1.92242 0
M  V30 987 H 89.7461 2.49988 1.87682 0
M  V30 988 H 88.9661 3.93915 -0.1498 0
M  V30 989 H 90.2541 5.08059 0.274567 0
M  V30 990 H 89.6521 4.51714 3.40545 0
M  V30 991 H 88.2091 5.42696 3.61004 0
M  V30 992 N 91.6422 0.330177 1.54103 0
M  V30 993 C 92.5902 -0.548226 2.26047 0
M  V30 994 C 93.5842 -1.11309 1.27698 0
M  V30 995 O 94.7902 -1.06036 1.45452 0
M  V30 996 H 91.1652 -0.195456 0.726155 0
M  V30 997 H 93.1362 0.0807567 2.98291 0
M  V30 998 C 91.8852 -1.69415 3.03634 0
M  V30 999 H 91.2082 -1.26876 3.79134 0
M  V30 1000 H 92.6482 -2.28423 3.5721 0
M  V30 1001 C 91.1072 -2.61569 2.12328 0
M  V30 1002 O 91.6372 -3.63462 1.7105 0
M  V30 1003 N 89.8432 -2.29952 1.77681 0
M  V30 1004 H 89.3902 -1.47134 2.11446 0
M  V30 1005 H 89.3482 -2.91871 1.16869 0
M  V30 1006 N 93.1203 -1.57491 0.0584922 0
M  V30 1007 C 94.3483 -1.97296 -0.623037 0
M  V30 1008 C 94.7633 -0.936338 -1.63946 0
M  V30 1009 O 94.1203 0.0785981 -1.82331 0
M  V30 1010 C 94.1713 -3.37183 -1.30345 0
M  V30 1011 O 93.8923 -4.36872 -0.32773 0
M  V30 1012 C 95.3933 -3.91788 -2.07406 0
M  V30 1013 H 92.6133 -0.649153 -0.169826 0
M  V30 1014 H 95.1573 -2.04106 0.12696 0
M  V30 1015 H 93.3123 -3.31502 -2.00463 0
M  V30 1016 H 93.7263 -5.18141 -0.814269 0
M  V30 1017 H 95.2003 -4.91926 -2.50425 0
M  V30 1018 H 95.6773 -3.27609 -2.92521 0
M  V30 1019 H 96.2833 -4.00829 -1.42184 0
M  V30 1020 N 94.5984 0.214957 -1.56127 0
M  V30 1021 C 95.5284 1.2695 -1.95974 0
M  V30 1022 C 96.5094 1.48539 -0.828868 0
M  V30 1023 O 97.6944 1.60611 -1.09168 0
M  V30 1024 C 94.8244 2.61794 -2.28214 0
M  V30 1025 C 93.7784 2.54851 -3.43853 0
M  V30 1026 C 93.1044 3.93785 -3.61715 0
M  V30 1027 C 94.4044 2.09065 -4.78632 0
M  V30 1028 H 96.0984 0.93846 -2.84312 0
M  V30 1029 H 93.6444 0.449996 -1.36788 0
M  V30 1030 H 95.5974 3.35731 -2.54682 0
M  V30 1031 H 94.3214 2.96599 -1.36736 0
M  V30 1032 H 92.9804 1.8337 -3.17444 0
M  V30 1033 H 92.6284 4.25908 -2.67602 0
M  V30 1034 H 92.3284 3.90019 -4.39498 0
M  V30 1035 H 93.8524 4.69374 -3.90539 0
M  V30 1036 H 95.2664 2.7275 -5.04262 0
M  V30 1037 H 93.6634 2.16346 -5.59745 0
M  V30 1038 H 94.7334 1.04315 -4.73547 0
M  V30 1039 N 96.0765 1.50051 0.48192 0
M  V30 1040 C 96.9865 1.7089 1.60728 0
M  V30 1041 C 98.0025 0.591788 1.63627 0
M  V30 1042 O 99.1785 0.868817 1.81696 0
M  V30 1043 C 96.2435 1.78855 2.97005 0
M  V30 1044 C 95.3045 3.02537 3.04581 0
M  V30 1045 C 94.5375 3.10112 4.34357 0
M  V30 1046 O 94.7605 2.24765 5.24249 0
M  V30 1047 O 93.6945 4.02747 4.47301 0
M  V30 1048 H 97.5205 2.66264 1.46072 0
M  V30 1049 H 95.1055 1.34018 0.660264 0
M  V30 1050 H 96.9875 1.86336 3.77964 0
M  V30 1051 H 95.6625 0.866628 3.11883 0
M  V30 1052 H 94.5695 3.00563 2.22739 0
M  V30 1053 H 95.9025 3.94272 2.94636 0
M  V30 1054 N 97.5546 -0.734337 1.39446 0
M  V30 1055 C 98.8006 -1.49613 1.36908 0
M  V30 1056 C 99.1336 -1.94169 -0.0347829 0
M  V30 1057 O 98.4086 -1.66833 -0.999847 0
M  V30 1058 C 98.6916 -2.73534 2.34203 0
M  V30 1059 C 98.5446 -2.34993 3.83534 0
M  V30 1060 C 99.8636 -3.75635 2.29317 0
M  V30 1061 H 96.9826 -0.542714 0.498629 0
M  V30 1062 H 99.6246 -0.839597 1.70443 0
M  V30 1063 H 97.7746 -3.29553 2.05736 0
M  V30 1064 H 99.4466 -1.84601 4.22753 0
M  V30 1065 H 97.6896 -1.67213 4.00278 0
M  V30 1066 H 98.3606 -3.23738 4.47099 0
M  V30 1067 H 100.837 -3.29203 2.54489 0
M  V30 1068 H 99.7126 -4.60008 2.99472 0
M  V30 1069 H 99.9736 -4.22603 1.29842 0
M  V30 1070 N 99.0327 -1.24633 -0.964593 0
M  V30 1071 C 100.263 -1.11339 -1.74032 0
M  V30 1072 C 100.671 0.336593 -1.86182 0
M  V30 1073 O 100.014 1.24389 -1.35178 0
M  V30 1074 C 100.076 -1.68284 -3.1768 0
M  V30 1075 C 99.7397 -3.17196 -3.28992 0
M  V30 1076 C 100.737 -4.14308 -3.14078 0
M  V30 1077 C 98.4217 -3.57215 -3.53133 0
M  V30 1078 C 100.416 -5.4942 -3.23135 0
M  V30 1079 C 98.1027 -4.92468 -3.61827 0
M  V30 1080 C 99.1007 -5.8838 -3.46841 0
M  V30 1081 O 98.7887 -7.21173 -3.55197 0
M  V30 1082 H 98.5207 -0.389551 -0.552472 0
M  V30 1083 H 101.075 -1.65282 -1.21946 0
M  V30 1084 H 99.3047 -1.08777 -3.71085 0
M  V30 1085 H 100.994 -1.50234 -3.77074 0
M  V30 1086 H 101.76 -3.84731 -2.95308 0
M  V30 1087 H 97.6387 -2.83063 -3.63863 0
M  V30 1088 H 101.183 -6.24263 -3.11355 0
M  V30 1089 H 97.0797 -5.21714 -3.80111 0
M  V30 1090 H 97.8477 -7.29135 -3.71892 0
M  V30 1091 N 100.511 1.16574 -1.06058 0
M  V30 1092 C 101.922 1.68662 -0.800632 0
M  V30 1093 C 102.273 1.84184 0.67608 0
M  V30 1094 O 101.398 1.53568 1.52466 0
M  V30 1095 C 101.993 3.06356 -1.44676 0
M  V30 1096 C 100.552 3.55575 -1.23465 0
M  V30 1097 C 99.6988 2.31616 -1.52477 0
M  V30 1098 H 102.65 1.00969 -1.22438 0
M  V30 1099 H 102.671 3.70636 -0.860788 0
M  V30 1100 H 102.183 2.95027 -2.52152 0
M  V30 1101 H 100.284 3.72167 -0.179527 0
M  V30 1102 H 100.397 4.37812 -1.94571 0
M  V30 1103 H 98.7608 2.36512 -0.945209 0
M  V30 1104 H 99.5438 2.22887 -2.61106 0
M  V30 1105 N 101.989 0.842826 1.3317 0
M  V30 1106 C 103.4 0.496651 1.79973 0
M  V30 1107 C 103.751 -0.984641 1.69703 0
M  V30 1108 O 102.876 -1.76743 1.24863 0
M  V30 1109 C 103.471 0.894727 3.26772 0
M  V30 1110 C 102.03 0.600629 3.71577 0
M  V30 1111 C 101.177 1.10091 2.5451 0
M  V30 1112 H 104.128 1.03116 1.20635 0
M  V30 1113 H 104.149 0.206347 3.7994 0
M  V30 1114 H 103.661 1.97287 3.34215 0
M  V30 1115 H 101.762 -0.467284 3.69658 0
M  V30 1116 H 101.875 1.15863 4.64879 0
M  V30 1117 H 100.239 0.52162 2.49301 0
M  V30 1118 H 101.022 2.18591 2.64713 0
M  V30 1119 N 103.467 -1.45747 0.599634 0
M  V30 1120 C 104.714 -2.02292 0.0917284 0
M  V30 1121 C 105.042 -1.46906 -1.27472 0
M  V30 1122 O 104.297 -0.630652 -1.8526 0
M  V30 1123 C 104.596 -3.57399 -0.00602758 0
M  V30 1124 C 104.262 -4.31902 1.29503 0
M  V30 1125 C 102.924 -4.51974 1.65144 0
M  V30 1126 C 105.276 -4.74551 2.15525 0
M  V30 1127 C 102.604 -5.11949 2.86574 0
M  V30 1128 C 104.956 -5.35868 3.36196 0
M  V30 1129 C 103.62 -5.54165 3.72099 0
M  V30 1130 H 102.89 -0.740239 0.0335658 0
M  V30 1131 H 105.537 -1.7491 0.779661 0
M  V30 1132 H 103.842 -3.84014 -0.777183 0
M  V30 1133 H 105.539 -3.98846 -0.415038 0
M  V30 1134 H 102.129 -4.16588 1.00761 0
M  V30 1135 H 106.313 -4.58784 1.8929 0
M  V30 1136 H 101.569 -5.24305 3.14507 0
M  V30 1137 H 105.743 -5.6787 4.03109 0
M  V30 1138 H 103.37 -6.00406 4.6628 0
M  V30 1139 N 104.945 -0.338344 -1.53925 0
M  V30 1140 C 105.875 0.51328 -2.27789 0
M  V30 1141 C 106.856 1.107 -1.29149 0
M  V30 1142 O 108.041 1.12937 -1.57984 0
M  V30 1143 C 105.171 1.66697 -3.04679 0
M  V30 1144 C 104.125 1.20183 -4.1078 0
M  V30 1145 C 103.451 2.44363 -4.75595 0
M  V30 1146 C 104.751 0.30605 -5.21403 0
M  V30 1147 H 106.445 -0.102883 -2.99223 0
M  V30 1148 H 103.991 -0.0509219 -1.4391 0
M  V30 1149 H 105.944 2.26915 -3.55088 0
M  V30 1150 H 104.668 2.30995 -2.30887 0
M  V30 1151 H 103.327 0.622499 -3.61276 0
M  V30 1152 H 102.975 3.07057 -3.98403 0
M  V30 1153 H 102.675 2.13925 -5.47275 0
M  V30 1154 H 104.199 3.05317 -5.28786 0
M  V30 1155 H 105.613 0.814929 -5.67478 0
M  V30 1156 H 104.01 0.0937929 -6.00027 0
M  V30 1157 H 105.08 -0.65921 -4.80398 0
M  V30 1158 N 106.423 1.57458 -0.0668435 0
M  V30 1159 C 107.67 1.93301 0.603406 0
M  V30 1160 C 107.998 0.946486 1.69917 0
M  V30 1161 O 107.253 -0.0387021 1.95662 0
M  V30 1162 C 107.552 3.35784 1.22409 0
M  V30 1163 C 107.218 4.50179 0.254955 0
M  V30 1164 C 105.88 4.81199 -0.0116746 0
M  V30 1165 C 108.232 5.19598 -0.408338 0
M  V30 1166 C 105.56 5.78978 -0.94877 0
M  V30 1167 C 107.912 6.18381 -1.33372 0
M  V30 1168 C 106.576 6.47821 -1.60887 0
M  V30 1169 H 105.846 0.707338 0.220802 0
M  V30 1170 H 108.493 1.91012 -0.136665 0
M  V30 1171 H 106.798 3.34515 2.03978 0
M  V30 1172 H 108.495 3.60804 1.74989 0
M  V30 1173 H 105.085 4.25983 0.472954 0
M  V30 1174 H 109.269 4.95832 -0.215456 0
M  V30 1175 H 104.525 6.00115 -1.16925 0
M  V30 1176 H 108.699 6.71277 -1.85367 0
M  V30 1177 H 106.326 7.23399 -2.33661 0
M  V30 1178 N 107.901 -0.206675 1.56239 0
M  V30 1179 C 109.148 -0.928842 1.79941 0
M  V30 1180 C 109.476 -1.83734 0.638131 0
M  V30 1181 O 108.731 -1.92039 -0.376746 0
M  V30 1182 C 109.03 -1.78675 3.09532 0
M  V30 1183 C 108.696 -1.03022 4.38973 0
M  V30 1184 C 107.358 -0.821302 4.74139 0
M  V30 1185 C 109.71 -0.497081 5.18824 0
M  V30 1186 C 107.038 -0.0675719 5.86661 0
M  V30 1187 C 109.39 0.24338 6.32132 0
M  V30 1188 C 108.054 0.463422 6.65889 0
M  V30 1189 H 107.324 -0.339887 0.658451 0
M  V30 1190 H 109.971 -0.195977 1.90495 0
M  V30 1191 H 108.276 -2.58794 2.94165 0
M  V30 1192 H 109.973 -2.34792 3.25075 0
M  V30 1193 H 106.563 -1.20306 4.11369 0
M  V30 1194 H 110.747 -0.645921 4.92079 0
M  V30 1195 H 106.003 0.112995 6.11296 0
M  V30 1196 H 110.177 0.66393 6.93228 0
M  V30 1197 H 107.804 1.04938 7.52922 0
M  V30 1198 N 109.379 -1.50304 -0.473955 0
M  V30 1199 C 110.309 -1.71886 -1.58042 0
M  V30 1200 C 111.29 -0.567799 -1.60344 0
M  V30 1201 O 112.475 -0.806623 -1.76656 0
M  V30 1202 C 109.605 -1.81036 -2.96384 0
M  V30 1203 C 108.559 -2.962 -3.08949 0
M  V30 1204 C 107.885 -2.9049 -4.48909 0
M  V30 1205 C 109.185 -4.36752 -2.86434 0
M  V30 1206 H 110.879 -2.64527 -1.40234 0
M  V30 1207 H 108.425 -1.27295 -0.673201 0
M  V30 1208 H 110.378 -1.94719 -3.73714 0
M  V30 1209 H 109.102 -0.850147 -3.15341 0
M  V30 1210 H 107.761 -2.82164 -2.3405 0
M  V30 1211 H 107.409 -1.92321 -4.64781 0
M  V30 1212 H 107.109 -3.67802 -4.58253 0
M  V30 1213 H 108.633 -3.06218 -5.28264 0
M  V30 1214 H 110.047 -4.5133 -3.53517 0
M  V30 1215 H 108.444 -5.15493 -3.07225 0
M  V30 1216 H 109.514 -4.49321 -1.82316 0
M  V30 1217 N 110.857 0.726932 -1.39834 0
M  V30 1218 C 111.82 1.82269 -1.38962 0
M  V30 1219 C 112.82 1.58248 -0.285334 0
M  V30 1220 O 114.01 1.65499 -0.54366 0
M  V30 1221 C 111.142 3.20186 -1.17019 0
M  V30 1222 H 112.335 1.84443 -2.36476 0
M  V30 1223 H 109.888 0.931416 -1.25516 0
M  V30 1224 H 110.623 3.23669 -0.202204 0
M  V30 1225 H 110.408 3.3902 -1.96998 0
M  V30 1226 H 111.898 4.00235 -1.1917 0
M  V30 1227 N 112.336 1.25143 0.95797 0
M  V30 1228 C 113.582 1.09855 1.70469 0
M  V30 1229 C 113.915 -0.360187 1.90831 0
M  V30 1230 O 113.19 -1.26568 1.47685 0
M  V30 1231 C 113.473 1.8497 3.08963 0
M  V30 1232 C 113.326 3.38652 2.96032 0
M  V30 1233 C 114.645 1.63016 4.08795 0
M  V30 1234 H 111.764 0.400465 0.618706 0
M  V30 1235 H 114.406 1.53933 1.11376 0
M  V30 1236 H 112.556 1.47505 3.59409 0
M  V30 1237 H 114.228 3.85772 2.52938 0
M  V30 1238 H 112.471 3.66534 2.32025 0
M  V30 1239 H 113.142 3.8642 3.94187 0
M  V30 1240 H 115.618 1.95625 3.67247 0
M  V30 1241 H 114.494 2.18015 5.03747 0
M  V30 1242 H 114.755 0.570692 4.38401 0
M  V30 1243 N 113.814 -1.1601 1.06675 0
M  V30 1244 C 115.062 -1.86264 0.784229 0
M  V30 1245 C 115.383 -1.82328 -0.691488 0
M  V30 1246 O 114.653 -1.25947 -1.50047 0
M  V30 1247 H 113.233 -0.689621 0.28711 0
M  V30 1248 H 115.895 -1.40664 1.34906 0
M  V30 1249 H 114.991 -2.91595 1.11259 0
M  V30 1250 N 115.292 -0.849877 -1.32721 0
M  V30 1251 C 116.54 -0.450032 -1.97026 0
M  V30 1252 C 116.861 0.996604 -1.67609 0
M  V30 1253 O 116.131 1.6958 -0.980786 0
M  V30 1254 H 114.711 -0.163426 -0.728904 0
M  V30 1255 H 117.373 -1.08526 -1.6189 0
M  V30 1256 H 116.469 -0.591146 -3.0645 0
M  V30 1257 N 116.77 1.45427 -0.607355 0
M  V30 1258 C 118.016 2.0254 -0.102607 0
M  V30 1259 C 118.349 1.47478 1.26348 0
M  V30 1260 O 117.624 0.64939 1.83339 0
M  V30 1261 C 117.907 3.60044 -0.0634347 0
M  V30 1262 C 117.76 4.2544 -1.46017 0
M  V30 1263 C 119.079 4.35646 0.624514 0
M  V30 1264 H 116.198 0.73598 -0.0387607 0
M  V30 1265 H 118.84 1.73284 -0.779282 0
M  V30 1266 H 116.99 3.85101 0.512808 0
M  V30 1267 H 118.662 4.11569 -2.08347 0
M  V30 1268 H 116.905 3.83849 -2.02094 0
M  V30 1269 H 117.576 5.34342 -1.385 0
M  V30 1270 H 120.052 4.15882 0.134723 0
M  V30 1271 H 118.928 5.45376 0.621028 0
M  V30 1272 H 119.189 4.08501 1.69055 0
M  V30 1273 N 118.248 0.346503 1.53744 0
M  V30 1274 C 119.478 -0.250047 2.05081 0
M  V30 1275 C 119.886 -1.44529 1.22098 0
M  V30 1276 O 119.229 -1.81992 0.249917 0
M  V30 1277 C 119.291 -0.725934 3.52094 0
M  V30 1278 C 118.955 0.350053 4.55657 0
M  V30 1279 C 119.952 1.19372 5.0601 0
M  V30 1280 C 117.637 0.504827 4.99757 0
M  V30 1281 C 119.631 2.17768 5.99046 0
M  V30 1282 C 117.318 1.49218 5.92602 0
M  V30 1283 C 118.316 2.32706 6.42135 0
M  V30 1284 O 118.004 3.2976 7.33153 0
M  V30 1285 H 117.736 -0.0515469 0.674032 0
M  V30 1286 H 120.29 0.497559 1.99282 0
M  V30 1287 H 118.52 -1.52483 3.55367 0
M  V30 1288 H 120.209 -1.24336 3.86388 0
M  V30 1289 H 120.975 1.08525 4.72702 0
M  V30 1290 H 116.854 -0.135178 4.60802 0
M  V30 1291 H 120.398 2.82971 6.37631 0
M  V30 1292 H 116.295 1.6012 6.25325 0
M  V30 1293 H 117.063 3.25265 7.51096 0
M  V30 1294 N 119.726 -1.57421 0.075193 0
M  V30 1295 C 120.676 -2.09441 -0.901025 0
M  V30 1296 C 121.66 -1.00486 -1.25663 0
M  V30 1297 O 122.852 -1.2679 -1.23504 0
M  V30 1298 C 119.981 -2.66233 -2.16737 0
M  V30 1299 C 119.067 -3.82198 -1.83808 0
M  V30 1300 N 119.458 -4.91028 -1.21345 0
M  V30 1301 C 117.756 -3.91558 -2.13538 0
M  V30 1302 C 118.457 -5.71852 -1.06585 0
M  V30 1303 N 117.433 -5.20233 -1.57667 0
M  V30 1304 H 121.235 -2.90972 -0.413815 0
M  V30 1305 H 118.749 -1.6189 -0.128601 0
M  V30 1306 H 120.746 -3.01819 -2.87595 0
M  V30 1307 H 119.406 -1.8615 -2.66042 0
M  V30 1308 H 120.417 -5.10323 -0.88268 0
M  V30 1309 H 117.094 -3.22454 -2.65197 0
M  V30 1310 H 118.484 -6.69401 -0.578933 0
M  V30 1311 N 121.204 0.198386 -1.56346 0
M  V30 1312 C 122.615 0.763358 -1.70381 0
M  V30 1313 C 122.966 1.83995 -0.681203 0
M  V30 1314 O 122.091 2.15785 0.16305 0
M  V30 1315 C 122.686 1.39143 -3.08909 0
M  V30 1316 C 121.245 1.90352 -3.2472 0
M  V30 1317 C 120.392 0.772233 -2.6633 0
M  V30 1318 H 123.343 -0.0266377 -1.58678 0
M  V30 1319 H 123.364 2.26076 -3.06055 0
M  V30 1320 H 122.876 0.607638 -3.83314 0
M  V30 1321 H 120.977 2.71461 -2.55225 0
M  V30 1322 H 121.09 2.06757 -4.3219 0
M  V30 1323 H 119.454 1.18566 -2.2542 0
M  V30 1324 H 120.237 0.00073556 -3.433 0
M  V30 1325 N 122.682 1.50554 0.465978 0
M  V30 1326 C 124.098 1.38093 0.800154 0
M  V30 1327 C 124.298 0.440988 1.96615 0
M  V30 1328 O 123.354 -0.114499 2.5224 0
M  V30 1329 C 124.667 2.79565 1.10742 0
M  V30 1330 C 126.215 2.88516 1.21357 0
M  V30 1331 C 126.69 4.30833 1.55393 0
M  V30 1332 N 128.181 4.33807 1.62375 0
M  V30 1333 C 128.916 5.40927 1.90225 0
M  V30 1334 N 128.412 6.58247 2.16062 0
M  V30 1335 N 130.205 5.28376 1.9177 0
M  V30 1336 H 122.356 2.10237 -0.302366 0
M  V30 1337 H 124.619 0.945203 -0.0727746 0
M  V30 1338 H 124.325 3.50208 0.323661 0
M  V30 1339 H 124.199 3.17125 2.04234 0
M  V30 1340 H 126.586 2.1809 1.98799 0
M  V30 1341 H 126.667 2.54492 0.258321 0
M  V30 1342 H 126.311 5.01799 0.784889 0
M  V30 1343 H 126.241 4.62347 2.52076 0
M  V30 1344 H 128.732 3.49212 1.44427 0
M  V30 1345 H 129.045 7.3569 2.36601 0
M  V30 1346 H 127.39 6.61413 2.13444 0
M  V30 1347 H 130.581 4.35715 1.71085 0
M  V30 1348 H 130.754 6.11944 2.13139 0
M  V30 1349 N 124.16 -0.719506 1.40217 0
M  V30 1350 C 125.409 -1.47486 1.37589 0
M  V30 1351 C 125.722 -1.9559 -0.0201568 0
M  V30 1352 O 126.928 -2.70973 -0.169049 0
M  V30 1353 C 125.384 -2.66575 2.41796 0
M  V30 1354 C 124.992 -2.25358 3.87192 0
M  V30 1355 C 126.736 -3.4433 2.48269 0
M  V30 1356 C 124.643 -3.41262 4.83005 0
M  V30 1357 H 123.573 -0.553901 0.511576 0
M  V30 1358 H 126.224 -0.783427 1.65936 0
M  V30 1359 H 124.606 -3.3787 2.06543 0
M  V30 1360 H 125.78 -1.61509 4.31569 0
M  V30 1361 H 124.095 -1.60657 3.84159 0
M  V30 1362 H 126.692 -4.30569 3.17041 0
M  V30 1363 H 127.035 -3.87872 1.51198 0
M  V30 1364 H 127.568 -2.80076 2.82493 0
M  V30 1365 H 124.307 -3.02755 5.81394 0
M  V30 1366 H 123.827 -4.0404 4.43297 0
M  V30 1367 H 125.506 -4.07383 5.02641 0
M  V30 1368 N 125.638 -1.25649 -0.95132 0
M  V30 1369 C 126.601 -1.06399 -2.03007 0
M  V30 1370 C 127.601 -0.0156794 -1.60792 0
M  V30 1371 O 128.791 -0.25817 -1.72276 0
M  V30 1372 C 125.923 -0.616184 -3.35285 0
M  V30 1373 H 127.116 -2.02164 -2.21517 0
M  V30 1374 H 124.669 -1.08103 -1.12887 0
M  V30 1375 H 125.404 0.343917 -3.22471 0
M  V30 1376 H 125.189 -1.37301 -3.67275 0
M  V30 1377 H 126.679 -0.503032 -4.14559 0
M  V30 1378 N 127.117 1.15442 -1.07289 0
M  V30 1379 C 128.342 1.90638 -0.816828 0
M  V30 1380 C 128.767 1.77445 0.624083 0
M  V30 1381 O 128.125 1.10671 1.43602 0
M  V30 1382 C 128.173 3.39008 -1.22906 0
M  V30 1383 O 127.277 4.10701 -0.373975 0
M  V30 1384 H 126.618 0.593555 -0.297638 0
M  V30 1385 H 129.148 1.46198 -1.43134 0
M  V30 1386 H 129.158 3.89801 -1.20497 0
M  V30 1387 H 127.833 3.47929 -2.27856 0
M  V30 1388 H 126.41 3.70046 -0.460499 0
M  V30 1389 N 128.595 0.856903 1.32268 0
M  V30 1390 C 129.843 0.460474 1.96784 0
M  V30 1391 C 130.164 -0.987701 1.68135 0
M  V30 1392 O 129.434 -1.69058 0.989765 0
M  V30 1393 H 128.014 0.167289 0.728027 0
M  V30 1394 H 130.676 1.09383 1.61312 0
M  V30 1395 H 129.772 0.60739 3.06133 0
M  V30 1396 N 130.073 -1.45103 0.615059 0
M  V30 1397 C 131.003 -2.33339 -0.0865619 0
M  V30 1398 C 131.984 -1.4727 -0.851209 0
M  V30 1399 O 133.169 -1.76026 -0.820281 0
M  V30 1400 C 130.299 -3.30095 -1.07956 0
M  V30 1401 C 129.253 -4.25858 -0.427628 0
M  V30 1402 C 128.579 -5.12361 -1.5294 0
M  V30 1403 C 129.879 -5.18165 0.655944 0
M  V30 1404 H 131.573 -2.92254 0.650224 0
M  V30 1405 H 129.119 -1.40532 0.314138 0
M  V30 1406 H 131.072 -3.90698 -1.57901 0
M  V30 1407 H 129.796 -2.69355 -1.84703 0
M  V30 1408 H 128.455 -3.66564 0.0510292 0
M  V30 1409 H 128.103 -4.47984 -2.28734 0
M  V30 1410 H 127.803 -5.77238 -1.09865 0
M  V30 1411 H 129.327 -5.75833 -2.03098 0
M  V30 1412 H 130.741 -5.72796 0.240257 0
M  V30 1413 H 129.138 -5.91559 1.00888 0
M  V30 1414 H 130.208 -4.60144 1.52957 0
M  V30 1415 N 131.551 -0.354651 -1.53558 0
M  V30 1416 C 132.799 0.237972 -2.00694 0
M  V30 1417 C 133.12 1.50173 -1.24391 0
M  V30 1418 O 132.39 1.92673 -0.354135 0
M  V30 1419 H 130.97 0.0909256 -0.741446 0
M  V30 1420 H 133.632 -0.478368 -1.88938 0
M  V30 1421 H 132.728 0.47264 -3.085 0
M  V30 1422 N 133.029 1.57378 -0.0835403 0
M  V30 1423 C 133.959 2.1641 0.87686 0
M  V30 1424 C 134.94 1.09429 1.30228 0
M  V30 1425 O 136.125 1.37516 1.37124 0
M  V30 1426 C 133.255 2.73517 2.14022 0
M  V30 1427 C 132.209 3.85769 1.85381 0
M  V30 1428 C 131.535 4.29529 3.18448 0
M  V30 1429 C 132.835 5.09486 1.14984 0
M  V30 1430 H 134.529 2.96914 0.385059 0
M  V30 1431 H 132.075 1.42823 0.18377 0
M  V30 1432 H 134.028 3.13463 2.81636 0
M  V30 1433 H 132.752 1.90252 2.65465 0
M  V30 1434 H 131.411 3.46345 1.20169 0
M  V30 1435 H 131.059 3.43169 3.67755 0
M  V30 1436 H 130.759 5.05204 3.00071 0
M  V30 1437 H 132.283 4.72099 3.8724 0
M  V30 1438 H 133.697 5.46674 1.72687 0
M  V30 1439 H 132.094 5.90515 1.06826 0
M  V30 1440 H 133.164 4.84724 0.130749 0
M  V30 1441 N 134.507 -0.190092 1.56449 0
M  V30 1442 C 135.47 -1.21925 1.9408 0
M  V30 1443 C 136.47 -1.38176 0.822431 0
M  V30 1444 O 137.66 -1.35903 1.08977 0
M  V30 1445 C 134.792 -2.58773 2.21922 0
M  V30 1446 H 135.985 -0.897464 2.86157 0
M  V30 1447 H 133.538 -0.43181 1.50217 0
M  V30 1448 H 134.273 -2.95998 1.32499 0
M  V30 1449 H 134.058 -2.48348 3.03424 0
M  V30 1450 H 135.548 -3.32978 2.52022 0
M  V30 1451 N 135.985 -1.50799 -0.457987 0
M  V30 1452 C 137.231 -1.63648 -1.20792 0
M  V30 1453 C 137.586 -0.338662 -1.89396 0
M  V30 1454 O 136.879 0.664291 -1.79716 0
M  V30 1455 C 137.073 -2.76358 -2.2663 0
M  V30 1456 C 136.902 -4.16974 -1.68411 0
M  V30 1457 C 135.672 -4.83199 -1.47807 0
M  V30 1458 C 137.87 -5.00774 -1.17176 0
M  V30 1459 N 135.852 -6.07991 -0.849692 0
M  V30 1460 C 137.223 -6.16397 -0.667403 0
M  V30 1461 C 139.278 -4.86452 -1.06155 0
M  V30 1462 C 137.981 -7.19272 -0.0636908 0
M  V30 1463 C 140.007 -5.89515 -0.471759 0
M  V30 1464 C 139.369 -7.04397 0.0221557 0
M  V30 1465 H 135.468 -0.652888 -0.43042 0
M  V30 1466 H 138.052 -1.87962 -0.507785 0
M  V30 1467 H 136.223 -2.53744 -2.94056 0
M  V30 1468 H 137.955 -2.78496 -2.93636 0
M  V30 1469 H 134.71 -4.40714 -1.73403 0
M  V30 1470 H 135.134 -6.74733 -0.553537 0
M  V30 1471 H 139.776 -3.97907 -1.42932 0
M  V30 1472 H 137.494 -8.07481 0.316253 0
M  V30 1473 H 141.08 -5.805 -0.388671 0
M  V30 1474 H 139.96 -7.82782 0.471375 0
M  V30 1475 N 137.463 0.71206 -1.40597 0
M  V30 1476 C 138.712 1.46754 -1.38369 0
M  V30 1477 C 139.025 1.95598 0.0097839 0
M  V30 1478 O 140.231 2.71059 0.154677 0
M  V30 1479 C 138.687 2.65289 -2.43207 0
M  V30 1480 C 138.295 2.23301 -3.88382 0
M  V30 1481 C 140.039 3.43008 -2.50091 0
M  V30 1482 C 137.946 3.38696 -4.84808 0
M  V30 1483 H 136.876 0.55118 -0.514506 0
M  V30 1484 H 139.527 0.774616 -1.66349 0
M  V30 1485 H 137.909 3.36769 -2.08332 0
M  V30 1486 H 139.083 1.59218 -4.32419 0
M  V30 1487 H 137.398 1.58618 -3.85006 0
M  V30 1488 H 139.995 4.28881 -3.1932 0
M  V30 1489 H 140.338 3.87065 -1.53253 0
M  V30 1490 H 140.871 2.78574 -2.83974 0
M  V30 1491 H 137.61 2.99668 -5.82992 0
M  V30 1492 H 137.13 4.01683 -4.45433 0
M  V30 1493 H 138.809 4.04712 -5.04794 0
M  V30 1494 N 138.941 1.26152 0.944643 0
M  V30 1495 C 140.187 1.11657 1.69294 0
M  V30 1496 C 140.52 -0.339926 1.91202 0
M  V30 1497 O 139.795 -1.24994 1.49019 0
M  V30 1498 C 140.078 1.88236 3.06984 0
M  V30 1499 C 139.931 3.41772 2.92424 0
M  V30 1500 C 141.25 1.67343 4.07043 0
M  V30 1501 H 138.369 0.407004 0.614424 0
M  V30 1502 H 141.011 1.55106 1.09737 0
M  V30 1503 H 139.161 1.51308 3.57824 0
M  V30 1504 H 140.833 3.88433 2.48832 0
M  V30 1505 H 139.076 3.68974 2.28124 0
M  V30 1506 H 139.747 3.90579 3.90067 0
M  V30 1507 H 142.223 1.99509 3.65151 0
M  V30 1508 H 141.099 2.23346 5.01406 0
M  V30 1509 H 141.36 0.617158 4.37771 0
M  V30 1510 N 140.419 -1.14872 1.07899 0
M  V30 1511 C 141.667 -1.85422 0.803941 0
M  V30 1512 C 141.988 -1.83051 -0.67211 0
M  V30 1513 O 141.258 -1.27532 -1.48703 0
M  V30 1514 H 139.838 -0.686537 0.294408 0
M  V30 1515 H 142.5 -1.39226 1.3639 0
M  V30 1516 H 141.596 -2.90399 1.14346 0
M  V30 1517 N 141.898 -0.863906 -1.31812 0
M  V30 1518 C 143.314 -0.555004 -1.49639 0
M  V30 1519 C 143.514 0.912266 -1.79666 0
M  V30 1520 O 142.57 1.69479 -1.87171 0
M  V30 1521 C 143.883 -1.44998 -2.63431 0
M  V30 1522 C 145.431 -1.45138 -2.77316 0
M  V30 1523 C 145.906 -2.33179 -3.94197 0
M  V30 1524 N 147.397 -2.31025 -4.01474 0
M  V30 1525 C 148.132 -2.95871 -4.9117 0
M  V30 1526 N 147.628 -3.69863 -5.8581 0
M  V30 1527 N 149.421 -2.85211 -4.84367 0
M  V30 1528 H 141.572 -1.81339 -1.10589 0
M  V30 1529 H 143.835 -0.77505 -0.545895 0
M  V30 1530 H 143.541 -2.49377 -2.48 0
M  V30 1531 H 143.415 -1.14409 -3.59431 0
M  V30 1532 H 145.802 -0.415201 -2.92164 0
M  V30 1533 H 145.883 -1.79747 -1.82001 0
M  V30 1534 H 145.527 -3.3687 -3.80107 0
M  V30 1535 H 145.457 -1.95897 -4.88807 0
M  V30 1536 H 147.948 -1.77238 -3.33759 0
M  V30 1537 H 148.261 -4.16486 -6.50968 0
M  V30 1538 H 146.606 -3.73971 -5.85808 0
M  V30 1539 H 149.797 -2.26948 -4.09405 0
M  V30 1540 H 149.97 -3.36027 -5.54066 0
M  V30 1541 N 143.376 1.44774 -0.622745 0
M  V30 1542 C 144.622 2.0242 -0.124083 0
M  V30 1543 C 144.955 1.4881 1.24777 0
M  V30 1544 O 144.23 0.668799 1.8264 0
M  V30 1545 C 144.513 3.59957 -0.101619 0
M  V30 1546 C 144.366 4.23867 -1.50521 0
M  V30 1547 C 145.685 4.36284 0.578272 0
M  V30 1548 H 142.804 0.735528 -0.0465645 0
M  V30 1549 H 145.446 1.72447 -0.797617 0
M  V30 1550 H 143.596 3.85623 0.471934 0
M  V30 1551 H 145.268 4.09336 -2.12701 0
M  V30 1552 H 143.511 3.81684 -2.06154 0
M  V30 1553 H 144.182 5.32843 -1.4416 0
M  V30 1554 H 146.658 4.16001 0.0906057 0
M  V30 1555 H 145.534 5.46004 0.563149 0
M  V30 1556 H 145.795 4.10271 1.64713 0
M  V30 1557 N 144.854 0.36279 1.53368 0
M  V30 1558 C 145.784 -0.476976 2.28576 0
M  V30 1559 C 146.765 -1.08631 1.30894 0
M  V30 1560 O 147.95 -1.10409 1.59761 0
M  V30 1561 C 145.08 -1.61828 3.07293 0
M  V30 1562 C 144.034 -1.13633 4.1264 0
M  V30 1563 C 143.36 -2.36766 4.79423 0
M  V30 1564 C 144.66 -0.223061 5.21823 0
M  V30 1565 H 146.354 0.150474 2.99022 0
M  V30 1566 H 143.9 0.0738103 1.43811 0
M  V30 1567 H 145.853 -2.21237 3.58653 0
M  V30 1568 H 144.577 -2.27292 2.34533 0
M  V30 1569 H 143.236 -0.564945 3.62221 0
M  V30 1570 H 142.884 -3.0068 4.03238 0
M  V30 1571 H 142.584 -2.05192 5.50609 0
M  V30 1572 H 144.108 -2.96865 5.33576 0
M  V30 1573 H 145.522 -0.724545 5.68703 0
M  V30 1574 H 143.919 0.001678 6.001 0
M  V30 1575 H 144.989 0.735553 4.79289 0
M  V30 1576 N 146.332 -1.57332 0.0918853 0
M  V30 1577 C 147.562 -1.98286 -0.580205 0
M  V30 1578 C 147.97 -0.969713 -1.6246 0
M  V30 1579 O 147.313 0.0493501 -1.83634 0
M  V30 1580 C 147.375 -3.35603 -1.28882 0
M  V30 1581 C 147.039 -4.55285 -0.395559 0
M  V30 1582 C 148.036 -5.18687 0.355002 0
M  V30 1583 C 145.721 -5.01314 -0.314556 0
M  V30 1584 C 147.715 -6.26484 1.17458 0
M  V30 1585 C 145.402 -6.08979 0.508677 0
M  V30 1586 C 146.4 -6.71429 1.2519 0
M  V30 1587 O 146.088 -7.77018 2.06151 0
M  V30 1588 H 145.82 -0.656678 -0.160466 0
M  V30 1589 H 148.374 -2.04721 0.16688 0
M  V30 1590 H 146.604 -3.25842 -2.08241 0
M  V30 1591 H 148.293 -3.61026 -1.85512 0
M  V30 1592 H 149.059 -4.84058 0.302134 0
M  V30 1593 H 144.938 -4.5247 -0.882697 0
M  V30 1594 H 148.482 -6.75159 1.75518 0
M  V30 1595 H 144.379 -6.4304 0.563037 0
M  V30 1596 H 145.147 -7.93991 1.98799 0
M  V30 1597 N 147.81 0.181792 -1.56548 0
M  V30 1598 C 148.773 1.20894 -1.94724 0
M  V30 1599 C 149.773 1.37738 -0.829747 0
M  V30 1600 O 150.963 1.35323 -1.09697 0
M  V30 1601 C 148.095 2.57593 -2.23291 0
M  V30 1602 H 149.288 0.882275 -2.86629 0
M  V30 1603 H 146.841 0.423838 -1.50444 0
M  V30 1604 H 147.576 2.95291 -1.34067 0
M  V30 1605 H 147.361 2.46735 -3.04736 0
M  V30 1606 H 148.851 3.31637 -2.53785 0
M  V30 1607 N 149.288 1.51039 0.449983 0
M  V30 1608 C 150.518 1.66627 1.22143 0
M  V30 1609 C 150.926 0.357776 1.85786 0
M  V30 1610 O 150.269 -0.672424 1.70951 0
M  V30 1611 C 150.331 2.71562 2.35573 0
M  V30 1612 C 149.995 4.14526 1.92399 0
M  V30 1613 C 150.992 4.99717 1.43453 0
M  V30 1614 C 148.677 4.60559 2.00475 0
M  V30 1615 C 150.671 6.28998 1.03155 0
M  V30 1616 C 148.358 5.8984 1.59788 0
M  V30 1617 C 149.356 6.73886 1.11208 0
M  V30 1618 O 149.044 8.0075 0.710935 0
M  V30 1619 H 148.776 0.562635 0.374724 0
M  V30 1620 H 151.33 1.98146 0.541036 0
M  V30 1621 H 149.56 2.3533 3.06849 0
M  V30 1622 H 151.249 2.76156 2.97478 0
M  V30 1623 H 152.015 4.65361 1.36618 0
M  V30 1624 H 147.894 3.95273 2.37235 0
M  V30 1625 H 151.438 6.9455 0.651663 0
M  V30 1626 H 147.335 6.23713 1.66289 0
M  V30 1627 H 148.103 8.142 0.837913 0
M  V30 1628 N 150.766 -0.704594 1.40972 0
M  V30 1629 C 152.014 -1.46169 1.39568 0
M  V30 1630 C 152.335 -1.95 0.00253745 0
M  V30 1631 O 151.605 -1.71095 -0.954114 0
M  V30 1632 H 150.185 -0.542326 0.513704 0
M  V30 1633 H 152.847 -0.834553 1.76128 0
M  V30 1634 H 151.943 -2.32922 2.07735 0
M  V30 1635 N 152.244 -1.26651 -0.937939 0
M  V30 1636 C 153.474 -1.15006 -1.71631 0
M  V30 1637 C 153.882 0.297026 -1.86854 0
M  V30 1638 O 153.225 1.21493 -1.37786 0
M  V30 1639 C 153.287 -1.74984 -3.14039 0
M  V30 1640 C 152.951 -3.24103 -3.2219 0
M  V30 1641 C 153.948 -4.20877 -3.05219 0
M  V30 1642 C 151.633 -3.64625 -3.45476 0
M  V30 1643 C 153.627 -5.56151 -3.11408 0
M  V30 1644 C 151.314 -5.00032 -3.513 0
M  V30 1645 C 152.312 -5.95604 -3.34282 0
M  V30 1646 O 152 -7.28545 -3.3982 0
M  V30 1647 H 151.732 -0.401183 -0.544085 0
M  V30 1648 H 154.286 -1.67832 -1.18413 0
M  V30 1649 H 152.516 -1.16624 -3.68695 0
M  V30 1650 H 154.205 -1.58199 -3.73802 0
M  V30 1651 H 154.971 -3.90908 -2.87081 0
M  V30 1652 H 150.85 -2.90718 -3.57777 0
M  V30 1653 H 154.394 -6.30727 -2.98043 0
M  V30 1654 H 150.291 -5.29659 -3.68959 0
M  V30 1655 H 151.059 -7.3686 -3.56343 0
M  V30 1656 N 153.722 1.14298 -1.08507 0
M  V30 1657 C 154.952 1.88945 -0.835663 0
M  V30 1658 C 155.36 1.78894 0.615928 0
M  V30 1659 O 154.703 1.1468 1.43506 0
M  V30 1660 C 154.765 3.39585 -1.17994 0
M  V30 1661 C 154.429 3.7342 -2.63451 0
M  V30 1662 C 155.426 3.73454 -3.61702 0
M  V30 1663 C 153.111 4.03368 -2.99332 0
M  V30 1664 C 155.105 4.02961 -4.93864 0
M  V30 1665 C 152.792 4.32538 -4.31687 0
M  V30 1666 C 153.79 4.32318 -5.28763 0
M  V30 1667 O 153.478 4.6078 -6.58739 0
M  V30 1668 H 153.21 0.605307 -0.300965 0
M  V30 1669 H 155.764 1.45673 -1.44806 0
M  V30 1670 H 153.994 3.83315 -0.51055 0
M  V30 1671 H 155.683 3.9554 -0.911182 0
M  V30 1672 H 156.449 3.50403 -3.35325 0
M  V30 1673 H 152.328 4.02692 -2.24411 0
M  V30 1674 H 155.872 4.02704 -5.69627 0
M  V30 1675 H 151.769 4.55059 -4.57812 0
M  V30 1676 H 152.537 4.78492 -6.64069 0
M  V30 1677 N 155.201 0.870884 1.31352 0
M  V30 1678 C 156.429 0.49677 2.00848 0
M  V30 1679 C 156.844 -0.910998 1.65367 0
M  V30 1680 O 156.201 -1.59696 0.883374 0
M  V30 1681 C 156.252 0.645308 3.55694 0
M  V30 1682 O 155.973 1.99764 3.89905 0
M  V30 1683 C 157.474 0.272326 4.42463 0
M  V30 1684 H 154.694 0.193462 0.642506 0
M  V30 1685 H 157.238 1.1723 1.67563 0
M  V30 1686 H 155.393 0.0173176 3.87396 0
M  V30 1687 H 155.807 2.00607 4.84621 0
M  V30 1688 H 157.281 0.427208 5.50344 0
M  V30 1689 H 157.758 -0.788587 4.32062 0
M  V30 1690 H 158.364 0.876054 4.1618 0
M  V30 1691 N 156.679 -1.44442 0.630414 0
M  V30 1692 C 157.927 -2.01653 0.134351 0
M  V30 1693 C 158.248 -1.49836 -1.24796 0
M  V30 1694 O 157.518 -0.701684 -1.82902 0
M  V30 1695 H 156.098 -0.74554 0.0466769 0
M  V30 1696 H 158.76 -1.76952 0.816955 0
M  V30 1697 H 157.856 -3.11935 0.101498 0
M  V30 1698 N 158.157 -0.370918 -1.53173 0
M  V30 1699 C 159.067 0.480823 -2.2962 0
M  V30 1700 C 160.083 1.08789 -1.35798 0
M  V30 1701 O 161.259 1.09768 -1.68858 0
M  V30 1702 C 158.324 1.60227 -3.07454 0
M  V30 1703 C 157.385 1.0222 -4.16953 0
M  V30 1704 C 156.618 2.0902 -4.91066 0
M  V30 1705 O 156.841 3.30222 -4.65091 0
M  V30 1706 O 155.775 1.71778 -5.76867 0
M  V30 1707 H 159.601 -0.141421 -3.03371 0
M  V30 1708 H 157.186 -0.135146 -1.48787 0
M  V30 1709 H 159.068 2.25417 -3.56041 0
M  V30 1710 H 157.743 2.20982 -2.36535 0
M  V30 1711 H 156.65 0.334064 -3.72605 0
M  V30 1712 H 157.983 0.459131 -4.90054 0
M  V30 1713 N 159.635 1.57281 -0.100228 0
M  V30 1714 C 161.046 1.81725 0.428107 0
M  V30 1715 C 161.397 1.01619 1.67833 0
M  V30 1716 O 160.522 0.247098 2.14985 0
M  V30 1717 C 161.117 3.29617 0.78347 0
M  V30 1718 C 159.676 3.54808 1.25653 0
M  V30 1719 C 158.823 2.76118 0.255752 0
M  V30 1720 H 161.774 1.55324 -0.325608 0
M  V30 1721 H 161.795 3.4322 1.64256 0
M  V30 1722 H 161.307 3.87893 -0.12665 0
M  V30 1723 H 159.408 3.01868 2.18418 0
M  V30 1724 H 159.521 4.63443 1.21482 0
M  V30 1725 H 157.885 2.43745 0.738956 0
M  V30 1726 H 158.668 3.37145 -0.647136 0
M  V30 1727 N 161.113 -0.173488 1.56642 0
M  V30 1728 C 162.338 -0.910149 1.86363 0
M  V30 1729 C 162.763 -1.75132 0.686318 0
M  V30 1730 O 162.121 -1.77595 -0.364643 0
M  V30 1731 C 162.169 -1.76447 3.14482 0
M  V30 1732 O 161.273 -2.86584 2.96553 0
M  V30 1733 H 160.614 -0.255086 0.613047 0
M  V30 1734 H 163.144 -0.172283 2.03873 0
M  V30 1735 H 163.154 -2.16483 3.45831 0
M  V30 1736 H 161.829 -1.14658 3.99783 0
M  V30 1737 H 160.406 -2.50146 2.76553 0
M  V30 1738 N 162.591 -1.51276 -0.441967 0
M  V30 1739 C 163.538 -1.72256 -1.53612 0
M  V30 1740 C 164.508 -0.564164 -1.56225 0
M  V30 1741 O 165.693 -0.798074 -1.73307 0
M  V30 1742 C 162.833 -1.84932 -2.91366 0
M  V30 1743 C 161.946 -3.12459 -2.98317 0
M  V30 1744 C 161.081 -3.15758 -4.27166 0
M  V30 1745 C 160.12 -4.37619 -4.27967 0
M  V30 1746 N 159.257 -4.38493 -5.48333 0
M  V30 1747 H 164.097 -2.65654 -1.35026 0
M  V30 1748 H 161.634 -1.31662 -0.656009 0
M  V30 1749 H 163.592 -1.90263 -3.7129 0
M  V30 1750 H 162.222 -0.949461 -3.08521 0
M  V30 1751 H 161.274 -3.1646 -2.11086 0
M  V30 1752 H 162.586 -4.02382 -2.94771 0
M  V30 1753 H 161.74 -3.19979 -5.15459 0
M  V30 1754 H 160.479 -2.23715 -4.33362 0
M  V30 1755 H 159.484 -4.33579 -3.38067 0
M  V30 1756 H 160.709 -5.30921 -4.23438 0
M  V30 1757 H 158.655 -3.49318 -5.55259 0
M  V30 1758 H 158.572 -5.22219 -5.46647 0
M  V30 1759 H 159.84 -4.469 -6.38671 0
M  V30 1760 N 164.069 0.697108 -1.41344 0
M  V30 1761 C 165.485 1.00751 -1.2378 0
M  V30 1762 C 165.685 2.01105 -0.126066 0
M  V30 1763 O 164.741 2.47295 0.51004 0
M  V30 1764 C 166.054 1.53359 -2.58653 0
M  V30 1765 C 167.602 1.6525 -2.65822 0
M  V30 1766 C 168.077 2.2126 -4.01009 0
M  V30 1767 N 169.568 2.28622 -4.02847 0
M  V30 1768 C 170.303 2.72984 -5.04249 0
M  V30 1769 N 169.799 3.16962 -6.16041 0
M  V30 1770 N 171.592 2.72534 -4.91611 0
M  V30 1771 H 163.743 0.0322662 -2.12375 0
M  V30 1772 H 166.006 0.0768853 -0.944877 0
M  V30 1773 H 165.712 0.870773 -3.4075 0
M  V30 1774 H 165.586 2.51597 -2.81032 0
M  V30 1775 H 167.973 2.30644 -1.84086 0
M  V30 1776 H 168.054 0.655614 -2.47256 0
M  V30 1777 H 167.698 1.56482 -4.83193 0
M  V30 1778 H 167.628 3.21698 -4.16915 0
M  V30 1779 H 170.119 1.97585 -3.22131 0
M  V30 1780 H 170.432 3.49434 -6.89287 0
M  V30 1781 H 168.777 3.14875 -6.1958 0
M  V30 1782 H 171.968 2.37525 -4.0336 0
M  V30 1783 H 172.141 3.06789 -5.70775 0
M  V30 1784 N 165.547 1.27147 0.931209 0
M  V30 1785 C 166.772 1.16191 1.71797 0
M  V30 1786 C 167.197 -0.278004 1.86034 0
M  V30 1787 O 166.555 -1.20137 1.35782 0
M  V30 1788 C 166.603 1.84673 3.09723 0
M  V30 1789 O 165.707 1.14231 3.96264 0
M  V30 1790 H 165.048 0.404303 0.526721 0
M  V30 1791 H 167.578 1.68152 1.1656 0
M  V30 1792 H 167.588 1.91893 3.60057 0
M  V30 1793 H 166.263 2.89421 2.98677 0
M  V30 1794 H 164.84 1.15056 3.54706 0
M  V30 1795 N 167.025 -1.13721 1.09112 0
M  V30 1796 C 168.441 -1.36914 0.820174 0
M  V30 1797 C 168.641 -1.93356 -0.567079 0
M  V30 1798 O 167.697 -2.15093 -1.32255 0
M  V30 1799 C 169.01 -2.3235 1.90877 0
M  V30 1800 C 170.558 -2.45973 1.93562 0
M  V30 1801 C 171.033 -3.44714 3.01556 0
M  V30 1802 N 172.524 -3.52263 3.00775 0
M  V30 1803 C 173.259 -4.28536 3.80978 0
M  V30 1804 N 172.755 -5.07991 4.71081 0
M  V30 1805 N 174.548 -4.23804 3.69251 0
M  V30 1806 H 166.699 -0.754348 1.98553 0
M  V30 1807 H 168.962 -0.3944 0.862063 0
M  V30 1808 H 168.668 -1.98027 2.90651 0
M  V30 1809 H 168.542 -3.32332 1.78424 0
M  V30 1810 H 170.929 -2.79584 0.944286 0
M  V30 1811 H 171.01 -1.45926 2.10093 0
M  V30 1812 H 170.654 -3.11835 4.00901 0
M  V30 1813 H 170.584 -4.44558 2.82269 0
M  V30 1814 H 173.075 -2.95567 2.35475 0
M  V30 1815 H 173.388 -5.63487 5.28869 0
M  V30 1816 H 171.733 -5.07235 4.75119 0
M  V30 1817 H 174.924 -3.60806 2.98222 0
M  V30 1818 H 175.097 -4.82995 4.31995 0
M  V30 1819 N 168.503 -0.877838 -1.30888 0
M  V30 1820 C 169.751 -0.491723 -1.96027 0
M  V30 1821 C 170.072 0.960827 -1.69685 0
M  V30 1822 O 169.342 1.67462 -1.01654 0
M  V30 1823 H 167.922 -0.17885 -0.725273 0
M  V30 1824 H 170.584 -1.11935 -1.59551 0
M  V30 1825 H 169.68 -0.656016 -3.05128 0
M  V30 1826 N 169.982 1.44106 -0.638065 0
M  V30 1827 C 170.945 2.29138 0.0531013 0
M  V30 1828 C 171.945 1.41409 0.765506 0
M  V30 1829 O 173.135 1.63206 0.609046 0
M  V30 1830 C 170.267 3.23144 1.08584 0
M  V30 1831 H 171.46 2.91739 -0.694883 0
M  V30 1832 H 169.013 1.51134 -0.398538 0
M  V30 1833 H 169.748 2.65408 1.86357 0
M  V30 1834 H 169.533 3.87804 0.578852 0
M  V30 1835 H 171.023 3.87004 1.56899 0
M  V30 1836 N 171.46 0.379036 1.52974 0
M  V30 1837 C 172.39 -0.452706 2.29069 0
M  V30 1838 C 173.371 -1.07237 1.32039 0
M  V30 1839 O 174.556 -1.08708 1.60923 0
M  V30 1840 C 171.686 -1.5856 3.08992 0
M  V30 1841 C 170.64 -1.0925 4.13822 0
M  V30 1842 C 169.966 -2.31668 4.81907 0
M  V30 1843 C 171.266 -0.167702 5.22031 0
M  V30 1844 H 172.96 0.182181 2.98845 0
M  V30 1845 H 170.506 0.0890592 1.43724 0
M  V30 1846 H 172.459 -2.1742 3.6098 0
M  V30 1847 H 171.183 -2.24792 2.36931 0
M  V30 1848 H 169.842 -0.526494 3.628 0
M  V30 1849 H 169.49 -2.96386 4.06404 0
M  V30 1850 H 169.19 -1.9934 5.52754 0
M  V30 1851 H 170.714 -2.91189 5.36695 0
M  V30 1852 H 172.128 -0.664186 5.6944 0
M  V30 1853 H 170.525 0.0653265 6.00064 0
M  V30 1854 H 171.595 0.786347 4.78482 0
M  V30 1855 N 172.938 -1.57226 0.108567 0
M  V30 1856 C 174.186 -1.94448 -0.550853 0
M  V30 1857 C 174.507 -0.992074 -1.67878 0
M  V30 1858 O 173.777 -0.0465 -1.95845 0
M  V30 1859 H 172.357 -0.717897 -0.206479 0
M  V30 1860 H 175.019 -1.94112 0.175062 0
M  V30 1861 H 174.115 -2.97218 -0.952259 0
M  V30 1862 N 174.416 0.165178 -1.56732 0
M  V30 1863 C 175.641 0.900253 -1.86843 0
M  V30 1864 C 176.066 1.74766 -0.695596 0
M  V30 1865 O 175.424 1.77786 0.35522 0
M  V30 1866 C 175.472 1.74777 -3.15413 0
M  V30 1867 O 174.576 2.85007 -2.98068 0
M  V30 1868 H 173.917 0.251832 -0.614391 0
M  V30 1869 H 176.447 0.161468 -2.03962 0
M  V30 1870 H 176.457 2.14646 -3.46974 0
M  V30 1871 H 175.132 1.12537 -4.00385 0
M  V30 1872 H 173.709 2.48676 -2.77875 0
M  V30 1873 N 175.894 1.51508 0.433938 0
M  V30 1874 C 177.143 1.63578 1.18005 0
M  V30 1875 C 177.456 0.359514 1.92268 0
M  V30 1876 O 178.662 0.359632 2.69108 0
M  V30 1877 C 177.118 2.88901 2.14626 0
M  V30 1878 C 176.726 4.23544 1.45995 0
M  V30 1879 C 178.47 3.10328 2.89649 0
M  V30 1880 C 176.377 5.40014 2.4112 0
M  V30 1881 H 175.307 0.609277 0.444182 0
M  V30 1882 H 177.958 1.77978 0.446773 0
M  V30 1883 H 176.34 2.68142 2.91403 0
M  V30 1884 H 177.514 4.54696 0.747532 0
M  V30 1885 H 175.829 4.08021 0.831115 0
M  V30 1886 H 178.426 3.94518 3.60915 0
M  V30 1887 H 178.769 2.23544 3.51189 0
M  V30 1888 H 179.302 3.31443 2.19978 0
M  V30 1889 H 176.041 6.29068 1.84264 0
M  V30 1890 H 175.561 5.13233 3.10406 0
M  V30 1891 H 177.24 5.72099 3.02177 0
M  V30 1892 N 177.372 -0.689602 1.41712 0
M  V30 1893 C 178.335 -1.78521 1.43746 0
M  V30 1894 C 179.335 -1.57436 0.327191 0
M  V30 1895 O 180.525 -1.64 0.587348 0
M  V30 1896 C 177.657 -3.16971 1.25467 0
M  V30 1897 H 178.85 -1.78108 2.41283 0
M  V30 1898 H 176.403 -0.89781 1.27942 0
M  V30 1899 H 177.138 -3.23019 0.287948 0
M  V30 1900 H 176.923 -3.33678 2.05917 0
M  V30 1901 H 178.413 -3.96935 1.2974 0
M  V30 1902 N 178.85 -1.27639 -0.924453 0
M  V30 1903 C 179.78 -1.13166 -2.04244 0
M  V30 1904 C 180.761 -0.032256 -1.70069 0
M  V30 1905 O 181.946 -0.207328 -1.9309 0
M  V30 1906 C 179.076 -0.781496 -3.38393 0
M  V30 1907 C 178.03 -1.83449 -3.86692 0
M  V30 1908 C 177.356 -1.33822 -5.17683 0
M  V30 1909 C 178.656 -3.23917 -4.09726 0
M  V30 1910 H 180.35 -2.06689 -2.1661 0
M  V30 1911 H 177.896 -0.995136 -1.04082 0
M  V30 1912 H 179.849 -0.667057 -4.16087 0
M  V30 1913 H 178.573 0.189439 -3.2605 0
M  V30 1914 H 177.232 -1.93789 -3.11193 0
M  V30 1915 H 176.88 -0.35665 -5.01734 0
M  V30 1916 H 176.58 -2.04224 -5.50968 0
M  V30 1917 H 178.104 -1.23679 -5.97943 0
M  V30 1918 H 179.518 -3.16559 -4.77978 0
M  V30 1919 H 177.915 -3.92059 -4.54324 0
M  V30 1920 H 178.985 -3.68729 -3.14908 0
M  V30 1921 N 180.328 1.1314 -1.09713 0
M  V30 1922 C 181.258 2.20748 -0.761102 0
M  V30 1923 C 182.239 1.68061 0.262566 0
M  V30 1924 O 183.424 1.93765 0.129977 0
M  V30 1925 C 180.554 3.46812 -0.184054 0
M  V30 1926 C 179.508 4.12606 -1.13757 0
M  V30 1927 C 178.834 5.33031 -0.422083 0
M  V30 1928 C 180.134 4.59603 -2.48118 0
M  V30 1929 H 181.828 2.49113 -1.66082 0
M  V30 1930 H 179.374 1.19734 -0.799987 0
M  V30 1931 H 181.327 4.21353 0.0631215 0
M  V30 1932 H 180.051 3.17851 0.750868 0
M  V30 1933 H 178.71 3.40036 -1.37007 0
M  V30 1934 H 178.358 5.00335 0.517072 0
M  V30 1935 H 178.058 5.77999 -1.05788 0
M  V30 1936 H 179.582 6.10325 -0.183277 0
M  V30 1937 H 180.996 5.25552 -2.29059 0
M  V30 1938 H 179.393 5.15321 -3.07514 0
M  V30 1939 H 180.463 3.73971 -3.08665 0
M  V30 1940 N 181.806 0.884767 1.30421 0
M  V30 1941 C 183.054 0.502112 1.95763 0
M  V30 1942 C 183.375 -0.951815 1.70192 0
M  V30 1943 O 182.645 -1.6692 1.0254 0
M  V30 1944 H 181.225 0.182694 0.724315 0
M  V30 1945 H 183.887 1.1278 1.58955 0
M  V30 1946 H 182.983 0.672188 3.04775 0
M  V30 1947 N 183.284 -1.43765 0.645699 0
M  V30 1948 C 184.214 -2.33471 -0.0370477 0
M  V30 1949 C 185.195 -1.49042 -0.819779 0
M  V30 1950 O 186.38 -1.77726 -0.782758 0
M  V30 1951 C 183.51 -3.32311 -1.0093 0
M  V30 1952 C 182.464 -4.2667 -0.337201 0
M  V30 1953 C 181.79 -5.1549 -1.42037 0
M  V30 1954 C 183.09 -5.16657 0.765706 0
M  V30 1955 H 184.784 -2.90809 0.712069 0
M  V30 1956 H 182.33 -1.39834 0.343876 0
M  V30 1957 H 184.283 -3.9396 -1.49578 0
M  V30 1958 H 183.007 -2.73213 -1.78948 0
M  V30 1959 H 181.666 -3.66374 0.128771 0
M  V30 1960 H 181.314 -4.52735 -2.1918 0
M  V30 1961 H 181.014 -5.79438 -0.975966 0
M  V30 1962 H 182.538 -5.80012 -1.90838 0
M  V30 1963 H 183.952 -5.72158 0.361702 0
M  V30 1964 H 182.349 -5.89286 1.13413 0
M  V30 1965 H 183.419 -4.56796 1.62683 0
M  V30 1966 N 184.763 -0.387143 -1.52771 0
M  V30 1967 C 186.009 0.196025 -2.0185 0
M  V30 1968 C 186.342 1.46641 -1.27319 0
M  V30 1969 O 185.617 1.90889 -0.373032 0
M  V30 1970 C 185.9 0.466136 -3.5707 0
M  V30 1971 C 185.753 -0.819385 -4.42274 0
M  V30 1972 C 187.072 1.25768 -4.21747 0
M  V30 1973 H 184.191 0.0697708 -0.73369 0
M  V30 1974 H 186.833 -0.516286 -1.82851 0
M  V30 1975 H 184.983 1.07293 -3.7339 0
M  V30 1976 H 186.655 -1.4563 -4.37709 0
M  V30 1977 H 184.898 -1.43517 -4.09372 0
M  V30 1978 H 185.569 -0.585065 -5.48891 0
M  V30 1979 H 188.045 0.744167 -4.09391 0
M  V30 1980 H 186.921 1.41541 -5.30337 0
M  V30 1981 H 187.182 2.27228 -3.79236 0
M  V30 1982 N 186.241 1.57166 -0.116904 0
M  V30 1983 C 187.489 1.94737 0.540533 0
M  V30 1984 C 187.81 1.00096 1.67349 0
M  V30 1985 O 187.08 0.0568854 1.95817 0
M  V30 1986 H 185.66 0.718981 0.202669 0
M  V30 1987 H 188.322 1.94017 -0.185353 0
M  V30 1988 H 187.418 2.97719 0.936483 0
M  V30 1989 N 187.719 -0.156864 1.56817 0
M  V30 1990 C 188.947 -0.886316 1.86955 0
M  V30 1991 C 189.362 -1.75185 0.703975 0
M  V30 1992 O 188.719 -1.79555 -0.326552 0
M  V30 1993 C 188.77 -1.75117 3.16253 0
M  V30 1994 O 188.491 -0.920537 4.2832 0
M  V30 1995 C 189.992 -2.58905 3.59837 0
M  V30 1996 H 187.212 -0.25678 0.619923 0
M  V30 1997 H 189.756 -0.152615 2.0393 0
M  V30 1998 H 187.911 -2.43805 3.01062 0
M  V30 1999 H 188.325 -1.51337 5.02192 0
M  V30 2000 H 189.799 -3.1518 4.53172 0
M  V30 2001 H 190.276 -3.34472 2.84649 0
M  V30 2002 H 190.882 -1.95526 3.7769 0
M  V30 2003 N 189.197 -1.51736 -0.425897 0
M  V30 2004 C 190.425 -1.68794 -1.1965 0
M  V30 2005 C 190.84 -0.390164 -1.84725 0
M  V30 2006 O 190.197 0.632376 -1.71194 0
M  V30 2007 C 190.248 -2.81174 -2.27208 0
M  V30 2008 O 189.969 -4.05925 -1.64793 0
M  V30 2009 C 191.47 -3.09599 -3.17275 0
M  V30 2010 H 188.69 -0.566128 -0.360194 0
M  V30 2011 H 191.234 -1.98211 -0.503249 0
M  V30 2012 H 189.389 -2.54324 -2.9223 0
M  V30 2013 H 189.803 -4.68423 -2.35967 0
M  V30 2014 H 191.277 -3.91786 -3.88854 0
M  V30 2015 H 191.754 -2.22468 -3.78688 0
M  V30 2016 H 192.36 -3.38151 -2.57941 0
M  V30 2017 N 190.675 0.682077 -1.42076 0
M  V30 2018 C 191.921 1.44428 -1.42367 0
M  V30 2019 C 192.254 1.94164 -0.0373056 0
M  V30 2020 O 191.529 1.70429 0.937239 0
M  V30 2021 C 191.812 2.64654 -2.44194 0
M  V30 2022 C 191.665 2.20596 -3.91991 0
M  V30 2023 C 192.984 3.66865 -2.431 0
M  V30 2024 H 190.103 0.523834 -0.518428 0
M  V30 2025 H 192.745 0.77576 -1.73442 0
M  V30 2026 H 190.895 3.2169 -2.17826 0
M  V30 2027 H 192.567 1.68783 -4.29313 0
M  V30 2028 H 190.81 1.52242 -4.06208 0
M  V30 2029 H 191.481 3.06921 -4.58807 0
M  V30 2030 H 193.957 3.19531 -2.66532 0
M  V30 2031 H 192.833 4.48577 -3.16339 0
M  V30 2032 H 193.094 4.17493 -1.45437 0
M  V30 2033 N 192.153 1.28127 0.917671 0
M  V30 2034 C 193.393 1.163 1.68088 0
M  V30 2035 C 193.757 -0.284515 1.8988 0
M  V30 2036 O 194.958 -0.525413 2.63615 0
M  V30 2037 C 193.229 1.93546 3.00457 0
M  V30 2038 S 194.788 1.98048 3.91564 0
M  V30 2039 H 191.606 0.415005 0.577315 0
M  V30 2040 H 194.208 1.62173 1.09179 0
M  V30 2041 H 192.912 2.97888 2.82295 0
M  V30 2042 H 192.443 1.48207 3.64415 0
M  V30 2043 H 194.458 1.08415 4.84211 0
M  V30 2044 N 193.631 -1.12557 1.10312 0
M  V30 2045 C 194.856 -1.88405 0.867085 0
M  V30 2046 C 195.281 -1.79038 -0.576817 0
M  V30 2047 O 194.639 -1.14439 -1.40618 0
M  V30 2048 C 194.687 -3.3563 1.31851 0
M  V30 2049 O 193.791 -4.09565 0.482734 0
M  V30 2050 H 193.132 -0.585455 0.313271 0
M  V30 2051 H 195.662 -1.42352 1.4696 0
M  V30 2052 H 195.672 -3.86469 1.3079 0
M  V30 2053 H 194.347 -3.41765 2.37001 0
M  V30 2054 H 192.924 -3.68695 0.558448 0
M  V30 2055 N 195.109 -0.891671 -1.2995 0
M  V30 2056 C 196.072 -0.36828 -2.26222 0
M  V30 2057 C 197.072 0.493014 -1.53056 0
M  V30 2058 O 198.262 0.299213 -1.71611 0
M  V30 2059 C 195.394 0.47442 -3.37583 0
M  V30 2060 H 196.587 -1.21844 -2.74033 0
M  V30 2061 H 194.14 -0.669107 -1.41254 0
M  V30 2062 H 194.875 1.34489 -2.95099 0
M  V30 2063 H 194.66 -0.142615 -3.91841 0
M  V30 2064 H 196.15 0.83218 -4.09224 0
M  V30 2065 N 196.587 1.43421 -0.653314 0
M  V30 2066 C 197.834 2.01812 -0.166745 0
M  V30 2067 C 198.162 1.51535 1.21931 0
M  V30 2068 O 197.417 0.698975 1.82792 0
M  V30 2069 C 197.716 3.57176 -0.126623 0
M  V30 2070 C 197.382 4.26798 -1.45444 0
M  V30 2071 C 196.044 4.45534 -1.81805 0
M  V30 2072 C 198.396 4.66225 -2.32989 0
M  V30 2073 C 195.724 5.00961 -3.05377 0
M  V30 2074 C 198.076 5.23021 -3.55853 0
M  V30 2075 C 196.74 5.39973 -3.9241 0
M  V30 2076 H 196.01 0.738484 -0.0610162 0
M  V30 2077 H 198.657 1.71896 -0.84404 0
M  V30 2078 H 196.962 3.86634 0.634123 0
M  V30 2079 H 198.659 4.00112 0.266723 0
M  V30 2080 H 195.249 4.12561 -1.16153 0
M  V30 2081 H 199.433 4.51443 -2.06187 0
M  V30 2082 H 194.689 5.12271 -3.3375 0
M  V30 2083 H 198.863 5.52518 -4.23907 0
M  V30 2084 H 196.49 5.82687 -4.88242 0
M  V30 2085 N 198.065 0.39524 1.52563 0
M  V30 2086 C 198.997 -0.472201 2.24283 0
M  V30 2087 C 200.01 -1.02178 1.26742 0
M  V30 2088 O 201.199 -0.923097 1.52778 0
M  V30 2089 C 198.299 -1.66775 2.95024 0
M  V30 2090 C 197.472 -1.2445 4.19322 0
M  V30 2091 C 196.531 -2.30539 4.7301 0
M  V30 2092 O 195.557 -1.91702 5.35947 0
M  V30 2093 N 196.759 -3.6253 4.53379 0
M  V30 2094 H 199.524 0.142282 2.99362 0
M  V30 2095 H 197.085 0.2219 1.60372 0
M  V30 2096 H 199.077 -2.37283 3.27839 0
M  V30 2097 H 197.647 -2.18845 2.23217 0
M  V30 2098 H 196.867 -0.368069 3.92478 0
M  V30 2099 H 198.155 -0.938457 5.0007 0
M  V30 2100 H 197.553 -3.96841 4.03154 0
M  V30 2101 H 196.11 -4.29055 4.90668 0
M  V30 2102 N 199.544 -1.57102 0.125237 0
M  V30 2103 C 200.494 -2.12202 -0.833936 0
M  V30 2104 C 201.478 -1.04433 -1.22403 0
M  V30 2105 O 202.67 -1.30655 -1.19408 0
M  V30 2106 C 199.799 -2.72994 -2.08157 0
M  V30 2107 C 198.885 -3.87852 -1.71556 0
M  V30 2108 N 199.276 -4.9464 -1.05662 0
M  V30 2109 C 197.574 -3.98153 -2.00973 0
M  V30 2110 C 198.275 -5.74953 -0.883376 0
M  V30 2111 N 197.251 -5.24985 -1.41036 0
M  V30 2112 H 201.053 -2.92141 -0.321035 0
M  V30 2113 H 198.567 -1.62217 -0.0770315 0
M  V30 2114 H 200.564 -3.10816 -2.77847 0
M  V30 2115 H 199.224 -1.9452 -2.59985 0
M  V30 2116 H 200.235 -5.12872 -0.719878 0
M  V30 2117 H 196.912 -3.30728 -2.54804 0
M  V30 2118 H 198.302 -6.70904 -0.365675 0
M  V30 2119 N 201.022 0.148545 -1.56898 0
M  V30 2120 C 201.952 1.18524 -2.01182 0
M  V30 2121 C 202.933 1.4489 -0.891123 0
M  V30 2122 O 204.118 1.55836 -1.15882 0
M  V30 2123 C 201.248 2.51879 -2.39112 0
M  V30 2124 C 200.202 2.40038 -3.54353 0
M  V30 2125 C 199.528 3.78089 -3.78091 0
M  V30 2126 C 200.828 1.88577 -4.87069 0
M  V30 2127 H 202.522 0.817029 -2.88036 0
M  V30 2128 H 200.068 0.391575 -1.38574 0
M  V30 2129 H 202.021 3.24627 -2.68692 0
M  V30 2130 H 200.745 2.90532 -1.49193 0
M  V30 2131 H 199.404 1.69742 -3.24936 0
M  V30 2132 H 199.052 4.14175 -2.85426 0
M  V30 2133 H 198.752 3.71028 -4.55645 0
M  V30 2134 H 200.276 4.52387 -4.10095 0
M  V30 2135 H 201.69 2.51117 -5.15377 0
M  V30 2136 H 200.087 1.9241 -5.68417 0
M  V30 2137 H 201.157 0.84136 -4.77545 0
M  V30 2138 N 202.5 1.5196 0.417844 0
M  V30 2139 C 203.748 1.65263 1.16329 0
M  V30 2140 C 204.069 0.380634 1.91249 0
M  V30 2141 O 203.339 -0.604214 1.86349 0
M  V30 2142 H 201.919 0.60912 0.432414 0
M  V30 2143 H 204.581 1.88969 0.477162 0
M  V30 2144 H 203.677 2.4896 1.88217 0
M  V30 2145 N 203.978 -0.674533 1.42435 0
M  V30 2146 C 205.224 -1.43521 1.4413 0
M  V30 2147 C 205.579 -1.92316 0.0567773 0
M  V30 2148 O 204.872 -1.68008 -0.921076 0
M  V30 2149 C 205.066 -2.64767 2.40069 0
M  V30 2150 C 204.895 -2.27836 3.87713 0
M  V30 2151 C 203.665 -2.17183 4.56245 0
M  V30 2152 C 205.863 -1.89466 4.78129 0
M  V30 2153 N 203.845 -1.73358 5.88915 0
M  V30 2154 C 205.216 -1.56561 5.99907 0
M  V30 2155 C 207.271 -1.7646 4.65582 0
M  V30 2156 C 205.974 -1.11957 7.10534 0
M  V30 2157 C 208 -1.3326 5.76191 0
M  V30 2158 C 207.362 -1.0128 6.97081 0
M  V30 2159 H 203.461 -0.521656 0.582579 0
M  V30 2160 H 206.045 -0.778381 1.78464 0
M  V30 2161 H 204.216 -3.28139 2.07796 0
M  V30 2162 H 205.948 -3.3136 2.32342 0
M  V30 2163 H 202.703 -2.3626 4.10461 0
M  V30 2164 H 203.127 -1.53867 6.59283 0
M  V30 2165 H 207.769 -1.99831 3.72595 0
M  V30 2166 H 205.487 -0.873318 8.03367 0
M  V30 2167 H 209.073 -1.23717 5.68494 0
M  V30 2168 H 207.953 -0.683597 7.81215 0
M  V30 2169 N 205.456 -1.28612 -0.910864 0
M  V30 2170 C 206.702 -1.16106 -1.66274 0
M  V30 2171 C 207.035 0.289113 -1.92036 0
M  V30 2172 O 206.31 1.21 -1.52281 0
M  V30 2173 C 206.593 -1.96309 -3.01885 0
M  V30 2174 C 206.446 -3.49405 -2.8326 0
M  V30 2175 C 207.765 -1.78076 -4.02463 0
M  V30 2176 H 204.884 -0.423152 -0.603417 0
M  V30 2177 H 207.526 -1.57961 -1.05586 0
M  V30 2178 H 205.676 -1.60742 -3.53687 0
M  V30 2179 H 207.348 -3.94894 -2.38446 0
M  V30 2180 H 205.591 -3.74893 -2.18261 0
M  V30 2181 H 206.262 -4.00784 -3.79574 0
M  V30 2182 H 208.738 -2.0912 -3.59733 0
M  V30 2183 H 207.614 -2.36561 -4.95308 0
M  V30 2184 H 207.875 -0.733008 -4.35981 0
M  V30 2185 N 206.934 1.1197 -1.10907 0
M  V30 2186 C 207.881 2.17846 -0.762345 0
M  V30 2187 C 208.851 1.63995 0.263599 0
M  V30 2188 O 210.036 1.90273 0.141773 0
M  V30 2189 C 207.176 3.44487 -0.205651 0
M  V30 2190 C 206.289 4.12369 -1.28748 0
M  V30 2191 C 205.424 5.26674 -0.691919 0
M  V30 2192 C 204.463 5.86431 -1.75399 0
M  V30 2193 N 203.6 6.92142 -1.17833 0
M  V30 2194 H 208.44 2.46851 -1.6694 0
M  V30 2195 H 205.977 1.21188 -0.833776 0
M  V30 2196 H 207.935 4.16981 0.135037 0
M  V30 2197 H 206.565 3.15884 0.664613 0
M  V30 2198 H 205.617 3.38003 -1.74522 0
M  V30 2199 H 206.929 4.52844 -2.09125 0
M  V30 2200 H 206.083 6.05953 -0.300963 0
M  V30 2201 H 204.822 4.8749 0.143232 0
M  V30 2202 H 203.827 5.05835 -2.15432 0
M  V30 2203 H 205.052 6.27685 -2.59208 0
M  V30 2204 H 202.998 6.54985 -0.364725 0
M  V30 2205 H 202.915 7.31242 -1.91887 0
M  V30 2206 H 204.183 7.75237 -0.81408 0
M  V30 2207 N 208.412 0.89855 1.29475 0
M  V30 2208 C 209.637 0.538561 2.00285 0
M  V30 2209 C 210.062 -0.869135 1.66816 0
M  V30 2210 O 209.42 -1.57831 0.892145 0
M  V30 2211 C 209.468 0.736475 3.52999 0
M  V30 2212 O 208.572 -0.211537 4.11857 0
M  V30 2213 H 207.913 0.210563 0.62973 0
M  V30 2214 H 210.443 1.20982 1.64998 0
M  V30 2215 H 210.453 0.640685 4.02938 0
M  V30 2216 H 209.128 1.76276 3.76696 0
M  V30 2217 H 207.705 -0.0682991 3.72837 0
M  V30 2218 N 209.89 -1.43072 0.660911 0
M  V30 2219 C 211.138 -2.01323 0.177094 0
M  V30 2220 C 211.459 -1.5245 -1.2159 0
M  V30 2221 O 210.729 -0.740322 -1.81373 0
M  V30 2222 H 209.309 -0.744382 0.0624804 0
M  V30 2223 H 211.971 -1.75179 0.854305 0
M  V30 2224 H 211.067 -3.11649 0.167641 0
M  V30 2225 N 211.368 -0.403325 -1.52352 0
M  V30 2226 C 212.298 0.416205 -2.29761 0
M  V30 2227 C 213.279 1.05123 -1.33728 0
M  V30 2228 O 214.464 1.06134 -1.62632 0
M  V30 2229 C 211.594 1.53624 -3.11475 0
M  V30 2230 C 210.548 1.02653 -4.15507 0
M  V30 2231 C 209.874 2.23971 -4.85532 0
M  V30 2232 C 211.174 0.08463 -5.22231 0
M  V30 2233 H 212.868 -0.229701 -2.98518 0
M  V30 2234 H 210.414 -0.111913 -1.43564 0
M  V30 2235 H 212.367 2.1165 -3.64393 0
M  V30 2236 H 211.091 2.20994 -2.40477 0
M  V30 2237 H 209.75 0.46871 -3.63591 0
M  V30 2238 H 209.398 2.89883 -4.11068 0
M  V30 2239 H 209.098 1.90521 -5.55856 0
M  V30 2240 H 210.622 2.82614 -5.41259 0
M  V30 2241 H 212.036 0.573509 -5.70424 0
M  V30 2242 H 210.433 -0.160783 -5.99885 0
M  V30 2243 H 211.503 -0.86237 -4.7717 0
M  V30 2244 N 212.846 1.57033 -0.133567 0
M  V30 2245 C 214.094 1.953 0.519848 0
M  V30 2246 C 214.415 1.01866 1.66278 0
M  V30 2247 O 213.685 0.0776513 1.95746 0
M  V30 2248 H 212.265 0.721091 0.195032 0
M  V30 2249 H 214.927 1.93809 -0.205921 0
M  V30 2250 H 214.023 2.98695 0.904854 0
M  V30 2251 N 214.325 -0.140222 1.56975 0
M  V30 2252 C 215.55 -0.870414 1.88251 0
M  V30 2253 C 215.975 -1.73637 0.723312 0
M  V30 2254 O 215.333 -1.78329 -0.32689 0
M  V30 2255 C 215.381 -1.69737 3.18154 0
M  V30 2256 O 214.485 -2.80229 3.02565 0
M  V30 2257 H 213.826 -0.242025 0.61832 0
M  V30 2258 H 216.356 -0.128999 2.04193 0
M  V30 2259 H 216.366 -2.09099 3.50345 0
M  V30 2260 H 215.041 -1.06152 4.02125 0
M  V30 2261 H 213.618 -2.44224 2.81796 0
M  V30 2262 N 215.803 -1.52179 -0.40978 0
M  V30 2263 C 217.051 -1.65878 -1.15451 0
M  V30 2264 C 217.372 -0.390771 -1.91044 0
M  V30 2265 O 216.642 0.594323 -1.86667 0
M  V30 2266 H 215.222 -0.611405 -0.429177 0
M  V30 2267 H 217.884 -1.89219 -0.467134 0
M  V30 2268 H 216.98 -2.49954 -1.86894 0
M  V30 2269 N 217.281 0.66697 -1.42791 0
M  V30 2270 C 218.692 1.2478 -1.38877 0
M  V30 2271 C 219.043 1.96012 -0.0859426 0
M  V30 2272 O 218.168 2.00463 0.815081 0
M  V30 2273 C 218.763 2.26938 -2.51564 0
M  V30 2274 C 217.322 2.80529 -2.50959 0
M  V30 2275 C 216.469 1.54965 -2.29959 0
M  V30 2276 H 219.42 0.459853 -1.51892 0
M  V30 2277 H 219.441 3.08834 -2.22265 0
M  V30 2278 H 218.953 1.75065 -3.46372 0
M  V30 2279 H 217.054 3.36502 -1.59991 0
M  V30 2280 H 217.167 3.29012 -3.48265 0
M  V30 2281 H 215.531 1.81817 -1.78366 0
M  V30 2282 H 216.314 1.05047 -3.26833 0
M  V30 2283 N 218.759 1.29093 0.90403 0
M  V30 2284 C 219.706 1.13853 2.00764 0
M  V30 2285 C 220.676 0.0330084 1.66067 0
M  V30 2286 O 221.861 0.199733 1.89752 0
M  V30 2287 C 219.001 0.816537 3.35301 0
M  V30 2288 C 218.114 2.00206 3.82807 0
M  V30 2289 C 217.249 1.61983 5.059 0
M  V30 2290 C 216.288 2.77143 5.45764 0
M  V30 2291 N 215.425 2.39346 6.60044 0
M  V30 2292 H 220.265 2.08276 2.13132 0
M  V30 2293 H 217.802 1.03648 1.04381 0
M  V30 2294 H 219.76 0.610557 4.12708 0
M  V30 2295 H 218.39 -0.090779 3.22672 0
M  V30 2296 H 217.442 2.31988 3.01473 0
M  V30 2297 H 218.754 2.86512 4.08304 0
M  V30 2298 H 217.908 1.37649 5.90879 0
M  V30 2299 H 216.647 0.728202 4.82233 0
M  V30 2300 H 215.652 3.02165 4.59322 0
M  V30 2301 H 216.877 3.66964 5.71414 0
M  V30 2302 H 214.823 1.52665 6.37989 0
M  V30 2303 H 214.74 3.19185 6.85315 0
M  V30 2304 H 216.008 2.1832 7.48303 0
M  V30 2305 N 220.237 -1.11381 1.11499 0
M  V30 2306 C 221.477 -1.84763 0.874188 0
M  V30 2307 C 221.841 -1.82726 -0.589496 0
M  V30 2308 O 223.042 -2.51562 -0.947089 0
M  V30 2309 C 221.313 -3.27931 1.42112 0
M  V30 2310 S 222.872 -4.18557 1.31739 0
M  V30 2311 H 219.69 -0.637115 0.315603 0
M  V30 2312 H 222.292 -1.34097 1.42261 0
M  V30 2313 H 220.996 -3.26978 2.48019 0
M  V30 2314 H 220.527 -3.83665 0.869761 0
M  V30 2315 H 222.542 -4.95396 0.282335 0
M  V30 2316 N 221.715 -0.905404 -1.28997 0
M  V30 2317 C 222.955 -0.541232 -1.97104 0
M  V30 2318 C 223.319 0.896841 -1.69767 0
M  V30 2319 O 224.52 1.36817 -2.31375 0
M  V30 2320 C 222.791 -0.832134 -3.47578 0
M  V30 2321 S 224.35 -0.573127 -4.35041 0
M  V30 2322 H 221.168 -0.200576 -0.682122 0
M  V30 2323 H 223.77 -1.16906 -1.56694 0
M  V30 2324 H 222.474 -1.87687 -3.64968 0
M  V30 2325 H 222.005 -0.192636 -3.92928 0
M  V30 2326 H 224.02 0.579297 -4.92807 0
M  V30 2327 N 223.193 1.4272 -0.668489 0
M  V30 2328 C 224.143 2.27971 0.0363806 0
M  V30 2329 C 225.127 1.40741 0.779794 0
M  V30 2330 O 226.319 1.64245 0.659745 0
M  V30 2331 C 223.448 3.28673 0.991398 0
M  V30 2332 C 222.534 4.23388 0.245658 0
M  V30 2333 N 222.925 5.00267 -0.746069 0
M  V30 2334 C 221.223 4.43355 0.484988 0
M  V30 2335 C 221.924 5.69396 -1.19009 0
M  V30 2336 N 220.9 5.41095 -0.521287 0
M  V30 2337 H 224.702 2.84833 -0.724394 0
M  V30 2338 H 222.216 1.54607 -0.497028 0
M  V30 2339 H 224.213 3.88543 1.51129 0
M  V30 2340 H 222.873 2.73373 1.75207 0
M  V30 2341 H 223.884 5.05525 -1.12537 0
M  V30 2342 H 220.561 3.99104 1.22565 0
M  V30 2343 H 221.951 6.41083 -2.01153 0
M  V30 2344 O 224.71 0.553536 1.51718 0
M  V30 2345 H 225.401 0.050045 1.93635 0
M  V30 END ATOM
M  V30 BEGIN BOND
M  V30 END BOND
M  V30 END CTAB
M  END
$$$$
