drugbank_target|O14964 Hepatocyte growth factor-regulated tyrosine kinase substrate (DB04272)
 OpenBabel12092120563D

  0  0  0     0  0            999 V3000
M  V30 BEGIN CTAB
M  V30 COUNTS 11957 12098 0 0 0
M  V30 BEGIN ATOM
M  V30 1 H -0.908 1.98254 -0.117106 0
M  V30 2 N 0 1.576 0 0
M  V30 3 C 0.933 2.03868 1.02534 0
M  V30 4 C 1.911 0.928543 1.3348 0
M  V30 5 O 3.095 1.19667 1.45644 0
M  V30 6 C 0.222 2.43627 2.35294 0
M  V30 7 C -0.732 3.65373 2.2001 0
M  V30 8 S 0.101 5.13292 1.52614 0
M  V30 9 C 1.257 5.56322 2.86805 0
M  V30 10 H 1.49 2.90518 0.631377 0
M  V30 11 H -0.977 1.52953 0.210867 0
M  V30 12 H 0.981 2.67203 3.11629 0
M  V30 13 H -0.358 1.57376 2.7183 0
M  V30 14 H -1.165 3.90944 3.18086 0
M  V30 15 H -1.563 3.418 1.51819 0
M  V30 16 H 0.729 5.58782 3.83104 0
M  V30 17 H 1.672 6.56266 2.65933 0
M  V30 18 H 2.08 4.83886 2.90714 0
M  V30 19 N 1.4781 -0.272755 1.55222 0
M  V30 20 C 2.7261 -1.00234 1.75492 0
M  V30 21 C 3.0471 -1.8681 0.5592 0
M  V30 22 O 2.3171 -1.91215 -0.425882 0
M  V30 23 H 0.8971 -0.373076 0.647166 0
M  V30 24 H 3.5591 -0.296926 1.92625 0
M  V30 25 H 2.6551 -1.63913 2.65592 0
M  V30 26 N 2.9562 -1.48159 -0.537278 0
M  V30 27 C 4.3722 -1.34118 -0.865129 0
M  V30 28 C 4.5722 -0.346678 -1.98495 0
M  V30 29 O 3.6282 0.234715 -2.51407 0
M  V30 30 C 4.9412 -2.73963 -1.23954 0
M  V30 31 C 6.4892 -2.82397 -1.34984 0
M  V30 32 C 6.9642 -4.22928 -1.75772 0
M  V30 33 N 8.4552 -4.25566 -1.82887 0
M  V30 34 C 9.1902 -5.31235 -2.15817 0
M  V30 35 N 8.6862 -6.47189 -2.47222 0
M  V30 36 N 10.4792 -5.18624 -2.16761 0
M  V30 37 H 2.6302 -2.1144 0.201715 0
M  V30 38 H 4.8932 -0.947598 0.0275949 0
M  V30 39 H 4.5992 -3.48264 -0.490381 0
M  V30 40 H 4.4732 -3.0702 -2.19132 0
M  V30 41 H 6.8602 -2.08356 -2.08978 0
M  V30 42 H 6.9412 -2.5297 -0.379448 0
M  V30 43 H 6.5852 -4.97482 -1.02341 0
M  V30 44 H 6.5152 -4.49794 -2.73848 0
M  V30 45 H 9.0062 -3.41924 -1.60924 0
M  V30 46 H 9.3192 -7.23564 -2.71433 0
M  V30 47 H 7.6642 -6.50476 -2.44757 0
M  V30 48 H 10.8552 -4.27056 -1.91679 0
M  V30 49 H 11.0282 -6.01078 -2.42093 0
M  V30 50 N 4.4343 0.785586 -1.36625 0
M  V30 51 C 5.6823 1.54057 -1.30808 0
M  V30 52 C 6.0033 1.94683 0.111157 0
M  V30 53 O 5.2733 1.65241 1.05224 0
M  V30 54 H 3.8533 0.571354 -0.481211 0
M  V30 55 H 6.5153 0.935821 -1.70963 0
M  V30 56 H 5.6113 2.44637 -1.93801 0
M  V30 57 N 5.9124 1.20967 1.01018 0
M  V30 58 C 7.1374 1.0503 1.78839 0
M  V30 59 C 7.5624 -0.395752 1.8389 0
M  V30 60 O 6.9204 -1.28529 1.27867 0
M  V30 61 C 6.9684 1.64602 3.2084 0
M  V30 62 O 6.0724 0.887988 4.02726 0
M  V30 63 H 5.4134 0.369987 0.551367 0
M  V30 64 H 7.9434 1.60399 1.27018 0
M  V30 65 H 7.9534 1.68607 3.71532 0
M  V30 66 H 6.6284 2.69841 3.16479 0
M  V30 67 H 5.2054 0.922648 3.61305 0
M  V30 68 N 7.3905 -1.2043 1.01659 0
M  V30 69 C 8.6385 -1.89423 0.704522 0
M  V30 70 C 8.9595 -1.79231 -0.768197 0
M  V30 71 O 8.2295 -1.1947 -1.55254 0
M  V30 72 H 6.8095 -0.701178 0.257602 0
M  V30 73 H 9.4715 -1.4626 1.28818 0
M  V30 74 H 8.5675 -2.96052 0.987916 0
M  V30 75 N 8.8686 -0.792821 -1.36206 0
M  V30 76 C 10.0966 -0.378825 -2.03402 0
M  V30 77 C 10.5116 1.00586 -1.59774 0
M  V30 78 O 9.8686 1.64574 -0.788764 0
M  V30 79 C 9.9196 -0.43683 -3.58851 0
M  V30 80 O 9.6406 -1.76691 -4.00889 0
M  V30 81 C 11.1416 -0.0138943 -4.43298 0
M  V30 82 H 8.3616 -0.155673 -0.652692 0
M  V30 83 H 10.9056 -1.07261 -1.74113 0
M  V30 84 H 9.0606 0.208575 -3.86838 0
M  V30 85 H 9.4746 -1.72011 -4.95492 0
M  V30 86 H 10.9486 -0.105615 -5.51899 0
M  V30 87 H 11.4256 1.03915 -4.2673 0
M  V30 88 H 12.0316 -0.63192 -4.20579 0
M  V30 89 N 10.3467 1.47872 -0.545128 0
M  V30 90 C 11.5937 2.02493 -0.0165858 0
M  V30 91 C 11.9217 1.42073 1.32836 0
M  V30 92 O 11.1767 0.561459 1.87473 0
M  V30 93 C 11.4757 3.57131 0.13867 0
M  V30 94 C 11.1417 4.36411 -1.13384 0
M  V30 95 C 9.8037 4.57792 -1.48256 0
M  V30 96 C 12.1557 4.82223 -1.97764 0
M  V30 97 C 9.4837 5.22233 -2.67376 0
M  V30 98 C 11.8357 5.47977 -3.16076 0
M  V30 99 C 10.4997 5.67593 -3.51275 0
M  V30 100 H 9.7697 0.740975 -0.00606918 0
M  V30 101 H 12.4167 1.77683 -0.714207 0
M  V30 102 H 10.7217 3.80865 0.919172 0
M  V30 103 H 12.4187 3.97031 0.562782 0
M  V30 104 H 9.0087 4.2004 -0.852297 0
M  V30 105 H 13.1927 4.65493 -1.72132 0
M  V30 106 H 8.4487 5.35616 -2.94831 0
M  V30 107 H 12.6227 5.8244 -3.81755 0
M  V30 108 H 10.2497 6.17298 -4.43675 0
M  V30 109 N 11.8248 0.280983 1.55075 0
M  V30 110 C 12.7348 -0.61388 2.26426 0
M  V30 111 C 13.7508 -1.16521 1.29224 0
M  V30 112 O 14.9268 -1.19426 1.62171 0
M  V30 113 C 11.9918 -1.7788 2.9759 0
M  V30 114 C 11.0528 -1.26355 4.10284 0
M  V30 115 C 10.2858 -2.37295 4.78045 0
M  V30 116 O 10.5088 -3.56777 4.45047 0
M  V30 117 O 9.4428 -2.05119 5.65871 0
M  V30 118 H 13.2688 -0.0356932 3.03679 0
M  V30 119 H 10.8538 0.0481686 1.49322 0
M  V30 120 H 12.7358 -2.45791 3.42293 0
M  V30 121 H 11.4108 -2.34397 2.23249 0
M  V30 122 H 10.3178 -0.550735 3.70024 0
M  V30 123 H 11.6508 -0.744065 4.86543 0
M  V30 124 N 13.3029 -1.57598 0.00835791 0
M  V30 125 C 14.7189 -1.55764 -0.347822 0
M  V30 126 C 14.9189 -1.01186 -1.74252 0
M  V30 127 O 13.9749 -0.649371 -2.44007 0
M  V30 128 C 15.2879 -2.99927 -0.215407 0
M  V30 129 C 16.8359 -3.11656 -0.289725 0
M  V30 130 C 17.3109 -4.57621 -0.18634 0
M  V30 131 N 18.8019 -4.62557 -0.243978 0
M  V30 132 C 19.5369 -5.73094 -0.18745 0
M  V30 133 N 19.0329 -6.92753 -0.0810331 0
M  V30 134 N 20.8259 -5.61588 -0.239925 0
M  V30 135 H 12.9769 -1.91411 0.92062 0
M  V30 136 H 15.2399 -0.879562 0.353659 0
M  V30 137 H 14.9459 -3.43729 0.744512 0
M  V30 138 H 14.8199 -3.63865 -0.994097 0
M  V30 139 H 17.2069 -2.67779 -1.24009 0
M  V30 140 H 17.2879 -2.5048 0.51898 0
M  V30 141 H 16.9319 -5.02174 0.760519 0
M  V30 142 H 16.8619 -5.16752 -1.01364 0
M  V30 143 H 19.3529 -3.76481 -0.327217 0
M  V30 144 H 19.6659 -7.72787 -0.0440241 0
M  V30 145 H 18.0109 -6.94984 -0.0465419 0
M  V30 146 H 21.2019 -4.66996 -0.321317 0
M  V30 147 H 21.3749 -6.47714 -0.192407 0
M  V30 148 N 14.781 0.264519 -1.55364 0
M  V30 149 C 15.711 1.33121 -1.91836 0
M  V30 150 C 16.692 1.51101 -0.781192 0
M  V30 151 O 17.877 1.64003 -1.04003 0
M  V30 152 C 15.007 2.68921 -2.19769 0
M  V30 153 C 13.961 2.65661 -3.35571 0
M  V30 154 C 13.287 4.05093 -3.49004 0
M  V30 155 C 14.587 2.24187 -4.71739 0
M  V30 156 H 16.281 1.02844 -2.81182 0
M  V30 157 H 13.827 0.493286 -1.35287 0
M  V30 158 H 15.78 3.43663 -2.43872 0
M  V30 159 H 14.504 3.00799 -1.27231 0
M  V30 160 H 13.163 1.93377 -3.1145 0
M  V30 161 H 12.811 4.34206 -2.53917 0
M  V30 162 H 12.511 4.03804 -4.26868 0
M  V30 163 H 14.035 4.81561 -3.75408 0
M  V30 164 H 15.449 2.88654 -4.9533 0
M  V30 165 H 13.846 2.34044 -5.52579 0
M  V30 166 H 14.916 1.19327 -4.69988 0
M  V30 167 N 16.2591 1.48442 0.529413 0
M  V30 168 C 17.1891 1.65902 1.64313 0
M  V30 169 C 18.1701 0.507897 1.6234 0
M  V30 170 O 19.3551 0.740503 1.79528 0
M  V30 171 C 16.4851 1.69911 3.02898 0
M  V30 172 C 15.4391 2.8453 3.19729 0
M  V30 173 C 14.7651 2.73629 4.59381 0
M  V30 174 C 16.0651 4.25821 3.02447 0
M  V30 175 H 17.7591 2.5914 1.49955 0
M  V30 176 H 15.3051 1.24709 0.719982 0
M  V30 177 H 17.2581 1.80715 3.80684 0
M  V30 178 H 15.9821 0.732524 3.18279 0
M  V30 179 H 14.6411 2.73283 2.44361 0
M  V30 180 H 14.2891 1.74938 4.71599 0
M  V30 181 H 13.9891 3.50541 4.71588 0
M  V30 182 H 15.5131 2.86401 5.39265 0
M  V30 183 H 16.9271 4.37898 3.70024 0
M  V30 184 H 15.3241 5.03735 3.26146 0
M  V30 185 H 16.3941 4.42244 1.98867 0
M  V30 186 N 17.7372 -0.778329 1.37039 0
M  V30 187 C 19.0142 -1.52551 1.22424 0
M  V30 188 C 19.3942 -2.10288 -0.184964 0
M  V30 189 O 18.7422 -1.94953 -1.19187 0
M  V30 190 C 18.9522 -2.61164 2.31504 0
M  V30 191 C 20.3002 -3.28746 2.68721 0
M  V30 192 O 21.3242 -2.71455 2.30631 0
M  V30 193 O 20.1832 -4.3231 3.3432 0
M  V30 194 H 17.2772 -0.675343 0.477326 0
M  V30 195 H 19.8232 -0.815859 1.48801 0
M  V30 196 H 18.5952 -2.16574 3.25901 0
M  V30 197 H 18.2182 -3.39737 2.06554 0
M  V30 198 N 19.2153 -1.21501 -1.00376 0
M  V30 199 C 20.1623 -0.975387 -2.09177 0
M  V30 200 C 21.1323 0.0990615 -1.65804 0
M  V30 201 O 22.3173 -0.0483147 -1.90739 0
M  V30 202 C 19.4573 -0.547507 -3.40729 0
M  V30 203 C 18.5703 -1.69153 -3.97506 0
M  V30 204 C 17.7053 -1.2127 -5.17172 0
M  V30 205 C 16.7443 -2.32897 -5.66061 0
M  V30 206 N 15.8813 -1.86138 -6.76976 0
M  V30 207 H 20.7213 -1.9068 -2.29009 0
M  V30 208 H 18.2583 -0.950257 -1.12288 0
M  V30 209 H 20.2163 -0.280667 -4.16255 0
M  V30 210 H 18.8463 0.346904 -3.20931 0
M  V30 211 H 17.8983 -2.07298 -3.18954 0
M  V30 212 H 19.2103 -2.5316 -4.29781 0
M  V30 213 H 18.3643 -0.902591 -5.99948 0
M  V30 214 H 17.1033 -0.342692 -4.86495 0
M  V30 215 H 16.1083 -2.64709 -4.81881 0
M  V30 216 H 17.3333 -3.20396 -5.98768 0
M  V30 217 H 15.2793 -1.01484 -6.48103 0
M  V30 218 H 15.1963 -2.63717 -7.08512 0
M  V30 219 H 16.4643 -1.58165 -7.63285 0
M  V30 220 N 20.6934 1.19889 -1.02296 0
M  V30 221 C 21.6564 2.21116 -0.603351 0
M  V30 222 C 22.6564 1.5738 0.329884 0
M  V30 223 O 23.8464 1.73802 0.117702 0
M  V30 224 C 20.9784 3.40696 0.117992 0
M  V30 225 H 22.1714 2.59754 -1.49893 0
M  V30 226 H 19.7244 1.33463 -0.813468 0
M  V30 227 H 20.4594 3.07569 1.0282 0
M  V30 228 H 20.2444 3.88188 -0.552511 0
M  V30 229 H 21.7344 4.15692 0.398696 0
M  V30 230 N 22.1715 0.800033 1.35784 0
M  V30 231 C 23.3995 0.389606 2.03199 0
M  V30 232 C 23.8145 -0.997375 1.60306 0
M  V30 233 O 23.1715 -1.64154 0.797481 0
M  V30 234 C 23.2225 0.455855 3.58614 0
M  V30 235 O 22.9435 1.78815 3.99946 0
M  V30 236 C 24.4445 0.0374032 4.43284 0
M  V30 237 H 21.6645 0.159132 0.651857 0
M  V30 238 H 24.2085 1.08183 1.73541 0
M  V30 239 H 22.3635 -0.188057 3.86943 0
M  V30 240 H 22.7775 1.74636 4.94573 0
M  V30 241 H 24.2515 0.134882 5.51835 0
M  V30 242 H 24.7285 -1.01651 4.27275 0
M  V30 243 H 25.3345 0.654215 4.20238 0
M  V30 244 N 23.6496 -1.47581 0.552962 0
M  V30 245 C 24.8746 -2.07378 0.0300593 0
M  V30 246 C 25.2996 -1.40355 -1.25229 0
M  V30 247 O 24.6576 -0.477099 -1.7491 0
M  V30 248 C 24.7056 -3.60274 -0.153231 0
M  V30 249 O 23.8096 -3.94041 -1.21678 0
M  V30 250 H 23.1506 -0.662158 0.0494182 0
M  V30 251 H 25.6806 -1.89662 0.767434 0
M  V30 252 H 25.6906 -4.0633 -0.368761 0
M  V30 253 H 24.3656 -4.08455 0.783397 0
M  V30 254 H 22.9426 -3.59735 -0.982079 0
M  V30 255 N 25.1277 -0.289203 -1.54924 0
M  V30 256 C 26.0597 0.625583 -2.20497 0
M  V30 257 C 27.0727 1.10667 -1.19402 0
M  V30 258 O 28.2617 1.02615 -1.46056 0
M  V30 259 C 25.3617 1.86702 -2.82835 0
M  V30 260 C 24.5347 1.5304 -4.09753 0
M  V30 261 C 23.5937 2.62576 -4.56005 0
M  V30 262 O 22.6197 2.28167 -5.21468 0
M  V30 263 N 23.8217 3.92901 -4.27328 0
M  V30 264 H 26.5867 0.0642801 -2.99631 0
M  V30 265 H 24.1477 -0.110896 -1.6152 0
M  V30 266 H 26.1397 2.59304 -3.10715 0
M  V30 267 H 24.7097 2.33702 -2.07611 0
M  V30 268 H 23.9297 0.637564 -3.8901 0
M  V30 269 H 25.2177 1.28072 -4.92418 0
M  V30 270 H 24.6157 4.23671 -3.74859 0
M  V30 271 H 23.1727 4.61837 -4.59946 0
M  V30 272 N 26.6058 1.57591 -0.0167156 0
M  V30 273 C 27.5358 2.12496 0.967858 0
M  V30 274 C 28.5168 1.03807 1.34752 0
M  V30 275 O 29.7018 1.31577 1.42833 0
M  V30 276 C 26.8318 2.64194 2.25431 0
M  V30 277 C 25.7858 3.77559 2.01576 0
M  V30 278 C 25.1118 4.15636 3.36379 0
M  V30 279 C 26.4118 5.04151 1.36489 0
M  V30 280 H 28.1058 2.95013 0.510643 0
M  V30 281 H 25.6518 1.41915 0.244181 0
M  V30 282 H 27.6048 3.01236 2.94678 0
M  V30 283 H 26.3288 1.78821 2.73296 0
M  V30 284 H 24.9878 3.40937 1.34751 0
M  V30 285 H 24.6358 3.27263 3.81979 0
M  V30 286 H 24.3358 4.92022 3.21229 0
M  V30 287 H 25.8598 4.5525 4.06915 0
M  V30 288 H 27.2738 5.38857 1.95718 0
M  V30 289 H 25.6708 5.85453 1.31776 0
M  V30 290 H 26.7408 4.83733 0.336219 0
M  V30 291 N 28.0839 -0.256276 1.55502 0
M  V30 292 C 29.0139 -1.32102 1.92539 0
M  V30 293 C 29.9949 -1.50684 0.789194 0
M  V30 294 O 31.1799 -1.63449 1.04872 0
M  V30 295 C 28.3099 -2.67752 2.21192 0
M  V30 296 C 27.2639 -2.63878 3.36975 0
M  V30 297 C 26.5899 -4.03236 3.51147 0
M  V30 298 C 27.8899 -2.21682 4.72921 0
M  V30 299 H 29.5839 -1.01351 2.81724 0
M  V30 300 H 27.1299 -0.486105 1.35547 0
M  V30 301 H 29.0829 -3.42365 2.45691 0
M  V30 302 H 27.8069 -3.0012 1.28824 0
M  V30 303 H 26.4659 -1.91722 3.12471 0
M  V30 304 H 26.1139 -4.32854 2.56216 0
M  V30 305 H 25.8139 -4.01535 4.29003 0
M  V30 306 H 27.3379 -4.79563 3.77957 0
M  V30 307 H 28.7519 -2.86023 4.96854 0
M  V30 308 H 27.1489 -2.3111 5.53812 0
M  V30 309 H 28.2189 -1.16833 4.70615 0
M  V30 310 N 29.562 -1.4872 -0.521534 0
M  V30 311 C 30.492 -1.66771 -1.63431 0
M  V30 312 C 31.473 -0.516499 -1.62069 0
M  V30 313 O 32.658 -0.750013 -1.79132 0
M  V30 314 C 29.788 -1.71515 -3.01993 0
M  V30 315 C 28.742 -2.86222 -3.18216 0
M  V30 316 C 28.068 -2.76061 -4.57924 0
M  V30 317 C 29.368 -4.27419 -3.00184 0
M  V30 318 H 31.062 -2.59932 -1.48579 0
M  V30 319 H 28.608 -1.25089 -0.713358 0
M  V30 320 H 30.561 -1.82731 -3.7972 0
M  V30 321 H 29.285 -0.749393 -3.17886 0
M  V30 322 H 27.944 -2.74575 -2.42908 0
M  V30 323 H 27.592 -1.77437 -4.70665 0
M  V30 324 H 27.292 -3.53037 -4.69722 0
M  V30 325 H 28.816 -2.89256 -5.37739 0
M  V30 326 H 30.23 -4.39855 -3.67697 0
M  V30 327 H 28.627 -5.05458 -3.2347 0
M  V30 328 H 29.697 -4.43293 -1.96518 0
M  V30 329 N 31.0401 0.771051 -1.3745 0
M  V30 330 C 31.9501 1.91538 -1.35464 0
M  V30 331 C 32.9661 1.72134 -0.254123 0
M  V30 332 O 34.1421 1.95358 -0.489626 0
M  V30 333 C 31.2071 3.26671 -1.16134 0
M  V30 334 C 30.2681 3.58723 -2.35831 0
M  V30 335 C 29.5011 4.87409 -2.17413 0
M  V30 336 O 29.7241 5.58506 -1.15876 0
M  V30 337 O 28.6581 5.18539 -3.05615 0
M  V30 338 H 32.4841 1.96165 -2.31847 0
M  V30 339 H 30.0691 0.9139 -1.18187 0
M  V30 340 H 31.9511 4.07499 -1.07345 0
M  V30 341 H 30.6261 3.22894 -0.228251 0
M  V30 342 H 29.5331 2.78127 -2.50192 0
M  V30 343 H 30.8661 3.67243 -3.27709 0
M  V30 344 N 32.5182 1.22032 0.997298 0
M  V30 345 C 33.7462 1.06841 1.7718 0
M  V30 346 C 34.1612 -0.381325 1.84909 0
M  V30 347 O 33.5182 -1.26437 1.31605 0
M  V30 348 C 33.5692 1.66814 3.20711 0
M  V30 349 O 33.2902 3.06116 3.13408 0
M  V30 350 C 34.7912 1.56838 4.14628 0
M  V30 351 H 32.0112 0.374782 0.556578 0
M  V30 352 H 34.5552 1.61532 1.2541 0
M  V30 353 H 32.7102 1.16196 3.69564 0
M  V30 354 H 33.1242 3.34926 4.0364 0
M  V30 355 H 34.5982 2.03532 5.13107 0
M  V30 356 H 35.0752 0.524155 4.36061 0
M  V30 357 H 35.6812 2.06741 3.7167 0
M  V30 358 N 33.9963 -1.19345 1.0293 0
M  V30 359 C 35.2733 -1.84811 0.640642 0
M  V30 360 C 35.6533 -1.91855 -0.88062 0
M  V30 361 O 35.0013 -1.43587 -1.7775 0
M  V30 362 C 35.2113 -3.23755 1.30321 0
M  V30 363 C 36.5593 -3.99912 1.42673 0
M  V30 364 O 37.5833 -3.33155 1.26041 0
M  V30 365 O 36.4423 -5.19494 1.6967 0
M  V30 366 H 33.5363 -0.796443 0.222726 0
M  V30 367 H 36.0823 -1.26831 1.12748 0
M  V30 368 H 34.8543 -3.13466 2.34211 0
M  V30 369 H 34.4773 -3.89381 0.804261 0
M  V30 370 N 35.4744 -0.807222 -1.35358 0
M  V30 371 C 36.7204 -0.397594 -1.99476 0
M  V30 372 C 37.0754 1.02405 -1.62883 0
M  V30 373 O 36.3684 1.70077 -0.882282 0
M  V30 374 C 36.5624 -0.519036 -3.53611 0
M  V30 375 C 36.3914 -1.95094 -4.05177 0
M  V30 376 C 35.1614 -2.57945 -4.34503 0
M  V30 377 C 37.3594 -2.91558 -4.23673 0
M  V30 378 N 35.3414 -3.92539 -4.72003 0
M  V30 379 C 36.7124 -4.11024 -4.64176 0
M  V30 380 C 38.7674 -2.88381 -4.05883 0
M  V30 381 C 37.4704 -5.27745 -4.88751 0
M  V30 382 C 39.4964 -4.04306 -4.31614 0
M  V30 383 C 38.8584 -5.22519 -4.72391 0
M  V30 384 H 34.9574 -0.193274 -0.75774 0
M  V30 385 H 37.5414 -1.0486 -1.6405 0
M  V30 386 H 35.7124 0.101979 -3.88266 0
M  V30 387 H 37.4444 -0.0839321 -4.04613 0
M  V30 388 H 34.1994 -2.09295 -4.24844 0
M  V30 389 H 34.6234 -4.61836 -4.95011 0
M  V30 390 H 39.2654 -1.98137 -3.73499 0
M  V30 391 H 36.9834 -6.1856 -5.20008 0
M  V30 392 H 40.5694 -4.03229 -4.19402 0
M  V30 393 H 39.4494 -6.1073 -4.91913 0
M  V30 394 N 36.9525 1.47285 -0.560781 0
M  V30 395 C 37.8625 2.33846 0.187954 0
M  V30 396 C 38.8785 1.48412 0.908293 0
M  V30 397 O 40.0545 1.81332 0.876388 0
M  V30 398 C 37.1195 3.25178 1.2025 0
M  V30 399 C 36.1805 4.26504 0.489208 0
M  V30 400 C 35.4135 5.13472 1.45542 0
M  V30 401 O 35.6365 5.02959 2.6905 0
M  V30 402 O 34.5705 5.93902 0.977963 0
M  V30 403 H 38.3965 2.99177 -0.522177 0
M  V30 404 H 35.9815 1.45903 -0.321364 0
M  V30 405 H 37.8635 3.81584 1.78805 0
M  V30 406 H 36.5385 2.6247 1.89449 0
M  V30 407 H 35.4455 3.73847 -0.137627 0
M  V30 408 H 36.7785 4.91935 -0.161399 0
M  V30 409 N 38.4306 0.297415 1.54768 0
M  V30 410 C 39.6556 -0.318435 2.04941 0
M  V30 411 C 40.0806 -1.4701 1.17345 0
M  V30 412 O 39.4386 -1.80436 0.176758 0
M  V30 413 C 39.4866 -0.755749 3.52592 0
M  V30 414 O 38.5906 -1.86088 3.68028 0
M  V30 415 H 37.9316 -0.062421 0.661059 0
M  V30 416 H 40.4616 0.438215 1.99852 0
M  V30 417 H 40.4716 -1.04552 3.94376 0
M  V30 418 H 39.1466 0.0867233 4.1581 0
M  V30 419 H 37.7236 -1.57193 3.38149 0
M  V30 420 N 39.9087 -1.5758 0.0250728 0
M  V30 421 C 41.1577 -1.90811 -0.653767 0
M  V30 422 C 41.4707 -0.90273 -1.73523 0
M  V30 423 O 42.6767 -1.12614 -2.47043 0
M  V30 424 C 41.1327 -3.38804 -1.21409 0
M  V30 425 C 40.7407 -4.47692 -0.166126 0
M  V30 426 C 42.4847 -3.81108 -1.86967 0
M  V30 427 C 40.3917 -5.86779 -0.737856 0
M  V30 428 H 39.3217 -0.712063 -0.247956 0
M  V30 429 H 41.9727 -1.83281 0.0897137 0
M  V30 430 H 40.3547 -3.41252 -2.00905 0
M  V30 431 H 41.5287 -4.56797 0.606079 0
M  V30 432 H 39.8437 -4.14565 0.390466 0
M  V30 433 H 42.4407 -4.82375 -2.30692 0
M  V30 434 H 42.7837 -3.15953 -2.71071 0
M  V30 435 H 43.3167 -3.81065 -1.14167 0
M  V30 436 H 40.0557 -6.55468 0.0649577 0
M  V30 437 H 39.5757 -5.81288 -1.47864 0
M  V30 438 H 41.2547 -6.35223 -1.22884 0
M  V30 439 N 41.3868 0.248026 -1.55636 0
M  V30 440 C 42.3168 1.31079 -1.93237 0
M  V30 441 C 43.2978 1.50264 -0.797174 0
M  V30 442 O 44.4828 1.62891 -1.05737 0
M  V30 443 C 41.6128 2.66575 -2.22609 0
M  V30 444 C 40.5668 2.62087 -3.3837 0
M  V30 445 C 39.8928 4.01369 -3.53281 0
M  V30 446 C 41.1928 2.19171 -4.7409 0
M  V30 447 H 42.8868 0.998556 -2.82257 0
M  V30 448 H 40.4328 0.47891 -1.35803 0
M  V30 449 H 42.3858 3.41057 -2.47503 0
M  V30 450 H 41.1098 2.99432 -1.30414 0
M  V30 451 H 39.7688 1.90063 -3.13483 0
M  V30 452 H 39.4168 4.31489 -2.58508 0
M  V30 453 H 39.1168 3.99254 -4.31127 0
M  V30 454 H 40.6408 4.77552 -3.80495 0
M  V30 455 H 42.0548 2.83384 -4.98363 0
M  V30 456 H 40.4518 2.2817 -5.5503 0
M  V30 457 H 41.5218 1.14336 -4.71227 0
M  V30 458 N 42.8649 1.48995 0.513639 0
M  V30 459 C 43.7969 1.60836 1.63293 0
M  V30 460 C 44.8099 0.491701 1.55197 0
M  V30 461 O 45.9989 0.763238 1.6136 0
M  V30 462 C 43.0989 1.53731 3.02027 0
M  V30 463 C 42.2719 2.80715 3.35437 0
M  V30 464 C 41.3309 2.66837 4.53525 0
M  V30 465 O 40.3569 3.40753 4.55934 0
M  V30 466 N 41.5589 1.77539 5.52684 0
M  V30 467 H 44.3239 2.57366 1.53566 0
M  V30 468 H 41.8849 1.45925 0.701259 0
M  V30 469 H 43.8769 1.42118 3.78926 0
M  V30 470 H 42.4469 0.651092 3.05744 0
M  V30 471 H 41.6669 3.06772 2.47557 0
M  V30 472 H 42.9549 3.64927 3.54551 0
M  V30 473 H 42.3529 1.16719 5.53528 0
M  V30 474 H 40.9099 1.71856 6.28736 0
M  V30 475 N 44.343 -0.763751 1.37857 0
M  V30 476 C 45.592 -1.51789 1.32827 0
M  V30 477 C 45.905 -1.95426 -0.0823719 0
M  V30 478 O 47.111 -2.70298 -0.255172 0
M  V30 479 C 45.567 -2.74133 2.33193 0
M  V30 480 C 45.175 -2.37562 3.79827 0
M  V30 481 C 46.919 -3.52054 2.37188 0
M  V30 482 C 44.826 -3.56456 4.71904 0
M  V30 483 H 43.756 -0.569896 0.493695 0
M  V30 484 H 46.407 -0.835822 1.63359 0
M  V30 485 H 44.789 -3.4427 1.9569 0
M  V30 486 H 45.963 -1.75157 4.26212 0
M  V30 487 H 44.278 -1.72798 3.78853 0
M  V30 488 H 46.875 -4.40437 3.03182 0
M  V30 489 H 47.218 -3.92486 1.38782 0
M  V30 490 H 47.751 -2.88921 2.7344 0
M  V30 491 H 44.49 -3.21099 5.71468 0
M  V30 492 H 44.01 -4.17938 4.30218 0
M  V30 493 H 45.689 -4.23168 4.89426 0
M  V30 494 N 45.8211 -1.22559 -0.990812 0
M  V30 495 C 47.0611 -1.06302 -1.74583 0
M  V30 496 C 47.4251 0.394737 -1.87898 0
M  V30 497 O 48.6261 0.678214 -2.60103 0
M  V30 498 C 46.8971 -1.75699 -3.11231 0
M  V30 499 S 48.4561 -1.74882 -4.02445 0
M  V30 500 H 45.2741 -0.380639 -0.600529 0
M  V30 501 H 47.8761 -1.55532 -1.18449 0
M  V30 502 H 46.5801 -2.80923 -2.99183 0
M  V30 503 H 46.1111 -1.26708 -3.72436 0
M  V30 504 H 48.1261 -0.799997 -4.89709 0
M  V30 505 N 47.2992 1.18797 -1.03562 0
M  V30 506 C 48.5762 1.84469 -0.650434 0
M  V30 507 C 48.9562 1.92319 0.870433 0
M  V30 508 O 48.3042 1.44528 1.76986 0
M  V30 509 C 48.5142 3.2306 -1.32036 0
M  V30 510 C 49.8622 3.9915 -1.44792 0
M  V30 511 O 50.8862 3.32481 -1.27806 0
M  V30 512 O 49.7452 5.18587 -1.72423 0
M  V30 513 H 46.8392 0.795251 -0.226946 0
M  V30 514 H 49.3852 1.26231 -1.13419 0
M  V30 515 H 48.1572 3.1222 -2.3587 0
M  V30 516 H 47.7802 3.88949 -0.8249 0
M  V30 517 N 48.7773 0.814389 1.34928 0
M  V30 518 C 49.7073 0.244827 2.32213 0
M  V30 519 C 50.6883 -0.634024 1.57842 0
M  V30 520 O 51.8733 -0.562676 1.8587 0
M  V30 521 C 49.0033 -0.601106 3.42058 0
M  V30 522 C 47.9573 0.179896 4.27622 0
M  V30 523 C 47.2833 -0.788237 5.28858 0
M  V30 524 C 48.5833 1.38329 5.03649 0
M  V30 525 H 50.2773 1.05763 2.80097 0
M  V30 526 H 47.8233 0.510029 1.34665 0
M  V30 527 H 49.7763 -1.00968 4.09125 0
M  V30 528 H 48.5003 -1.44688 2.92802 0
M  V30 529 H 47.1593 0.569739 3.62146 0
M  V30 530 H 46.8073 -1.62973 4.75866 0
M  V30 531 H 46.5073 -0.269942 5.8698 0
M  V30 532 H 48.0313 -1.19485 5.98795 0
M  V30 533 H 49.4453 1.04918 5.63618 0
M  V30 534 H 47.8423 1.83662 5.71304 0
M  V30 535 H 48.9123 2.16592 4.33839 0
M  V30 536 N 50.2554 -1.46986 0.568584 0
M  V30 537 C 51.5044 -2.01646 0.0465894 0
M  V30 538 C 51.8174 -1.44721 -1.31587 0
M  V30 539 O 53.0234 -1.91113 -1.92842 0
M  V30 540 C 51.4794 -3.59885 0.032752 0
M  V30 541 C 51.0874 -4.25804 1.39266 0
M  V30 542 C 52.8314 -4.22255 -0.436038 0
M  V30 543 C 50.7384 -5.76081 1.33732 0
M  V30 544 H 49.6684 -0.753876 0.013647 0
M  V30 545 H 52.3194 -1.68864 0.718131 0
M  V30 546 H 50.7014 -3.8968 -0.704669 0
M  V30 547 H 51.8754 -4.07637 2.1487 0
M  V30 548 H 50.1904 -3.7547 1.80032 0
M  V30 549 H 52.7874 -5.32394 -0.49602 0
M  V30 550 H 53.1304 -3.90212 -1.45053 0
M  V30 551 H 53.6634 -3.97033 0.246877 0
M  V30 552 H 50.4024 -6.12761 2.32817 0
M  V30 553 H 49.9224 -5.96553 0.623267 0
M  V30 554 H 51.6014 -6.38518 1.0442 0
M  V30 555 N 51.7335 -0.305618 -1.54608 0
M  V30 556 C 53.1495 0.0476228 -1.59529 0
M  V30 557 C 53.3495 1.52025 -1.32252 0
M  V30 558 O 52.4055 2.27368 -1.09818 0
M  V30 559 C 53.7185 -0.354471 -2.98603 0
M  V30 560 C 55.2665 -0.303622 -3.11524 0
M  V30 561 C 55.7415 -0.680608 -4.52915 0
M  V30 562 N 57.2325 -0.63332 -4.5885 0
M  V30 563 C 57.9675 -0.897432 -5.66334 0
M  V30 564 N 57.4635 -1.22775 -6.81834 0
M  V30 565 N 59.2565 -0.824186 -5.56025 0
M  V30 566 H 51.4075 -1.2653 -1.70599 0
M  V30 567 H 53.6705 -0.513291 -0.797017 0
M  V30 568 H 53.3765 -1.3798 -3.23503 0
M  V30 569 H 53.2505 0.289568 -3.76087 0
M  V30 570 H 55.6375 0.712472 -2.8637 0
M  V30 571 H 55.7185 -0.982348 -2.36185 0
M  V30 572 H 55.3625 -1.69453 -4.78799 0
M  V30 573 H 55.2925 0.0202385 -5.26596 0
M  V30 574 H 57.7835 -0.389138 -3.75891 0
M  V30 575 H 58.0965 -1.41513 -7.59733 0
M  V30 576 H 56.4415 -1.26583 -6.83375 0
M  V30 577 H 59.6325 -0.565748 -4.64669 0
M  V30 578 H 59.8055 -1.03338 -6.39707 0
M  V30 579 N 53.2116 1.57565 -0.0334293 0
M  V30 580 C 54.1436 2.0739 0.975811 0
M  V30 581 C 55.1566 0.998166 1.2861 0
M  V30 582 O 56.3456 1.27426 1.25 0
M  V30 583 C 53.4456 2.4871 2.30209 0
M  V30 584 C 52.6186 3.79413 2.17634 0
M  V30 585 C 51.6776 4.07237 3.33233 0
M  V30 586 O 50.7036 4.77425 3.09927 0
M  V30 587 N 51.9056 3.5775 4.5716 0
M  V30 588 H 54.6706 2.94598 0.55066 0
M  V30 589 H 52.2316 1.61173 0.15323 0
M  V30 590 H 54.2236 2.64413 3.06378 0
M  V30 591 H 52.7936 1.66845 2.64351 0
M  V30 592 H 52.0136 3.73465 1.26165 0
M  V30 593 H 53.3016 4.65038 2.0644 0
M  V30 594 H 52.6996 3.00976 4.78989 0
M  V30 595 H 51.2566 3.78724 5.30482 0
M  V30 596 N 54.6897 -0.239769 1.55765 0
M  V30 597 C 55.9377 -0.964892 1.77579 0
M  V30 598 C 56.2587 -1.85582 0.598699 0
M  V30 599 O 55.5287 -1.92075 -0.385226 0
M  V30 600 H 54.1087 -0.359265 0.654933 0
M  V30 601 H 56.7707 -0.256001 1.93211 0
M  V30 602 H 55.8667 -1.58243 2.69009 0
M  V30 603 N 56.1678 -1.49265 -0.50573 0
M  V30 604 C 57.4448 -1.49012 -1.26707 0
M  V30 605 C 57.8248 -0.215205 -2.1 0
M  V30 606 O 57.1728 0.802547 -2.13943 0
M  V30 607 C 57.3828 -2.7663 -2.12783 0
M  V30 608 C 58.7308 -3.25932 -2.72127 0
M  V30 609 O 59.7548 -2.77715 -2.23054 0
M  V30 610 O 58.6138 -4.09897 -3.61451 0
M  V30 611 H 55.7078 -0.596197 -0.57313 0
M  V30 612 H 58.2538 -1.61524 -0.52039 0
M  V30 613 H 57.0258 -3.60916 -1.5118 0
M  V30 614 H 56.6488 -2.66956 -2.94653 0
M  V30 615 N 57.6459 0.756429 -1.3826 0
M  V30 616 C 58.8739 1.54565 -1.3754 0
M  V30 617 C 59.2889 1.88767 0.0355331 0
M  V30 618 O 58.6459 1.52572 1.0014 0
M  V30 619 C 58.6969 2.84654 -2.22833 0
M  V30 620 O 58.4179 2.51912 -3.5843 0
M  V30 621 C 59.9189 3.78807 -2.30261 0
M  V30 622 H 57.1389 0.478353 -0.470553 0
M  V30 623 H 59.6829 0.936381 -1.81803 0
M  V30 624 H 57.8379 3.41965 -1.8204 0
M  V30 625 H 58.2519 3.35325 -4.03308 0
M  V30 626 H 59.7259 4.67045 -2.94233 0
M  V30 627 H 60.2029 4.19038 -1.31545 0
M  V30 628 H 60.8089 3.2742 -2.71433 0
M  V30 629 N 59.124 1.23083 0.984299 0
M  V30 630 C 60.056 0.96636 2.07832 0
M  V30 631 C 61.069 -0.0582135 1.62696 0
M  V30 632 O 62.258 0.176843 1.77622 0
M  V30 633 C 59.358 0.433397 3.36117 0
M  V30 634 C 58.531 1.51722 4.10243 0
M  V30 635 C 57.59 0.989821 5.16807 0
M  V30 636 O 56.616 1.67794 5.43906 0
M  V30 637 N 57.818 -0.184367 5.80207 0
M  V30 638 H 60.583 1.90824 2.31098 0
M  V30 639 H 58.144 1.13888 1.1507 0
M  V30 640 H 60.136 0.065699 4.04647 0
M  V30 641 H 58.706 -0.413806 3.09849 0
M  V30 642 H 57.926 2.05786 3.36223 0
M  V30 643 H 59.214 2.24619 4.56534 0
M  V30 644 H 58.612 -0.760062 5.60571 0
M  V30 645 H 57.169 -0.493366 6.4993 0
M  V30 646 N 60.6021 -1.18246 1.0419 0
M  V30 647 C 61.5651 -2.20128 0.638452 0
M  V30 648 C 62.5651 -1.57885 -0.304805 0
M  V30 649 O 63.7551 -1.73967 -0.0900369 0
M  V30 650 C 60.8871 -3.4084 -0.0637751 0
M  V30 651 H 62.0801 -2.57336 1.54007 0
M  V30 652 H 59.6331 -1.32152 0.834598 0
M  V30 653 H 60.3681 -3.09166 -0.979136 0
M  V30 654 H 60.1531 -3.8726 0.614198 0
M  V30 655 H 61.6431 -4.16274 -0.332512 0
M  V30 656 N 62.0802 -0.821533 -1.34494 0
M  V30 657 C 63.0272 -0.240397 -2.29545 0
M  V30 658 C 63.9972 0.634031 -1.53523 0
M  V30 659 O 65.1822 0.575966 -1.81899 0
M  V30 660 C 62.3222 0.592869 -3.39969 0
M  V30 661 C 61.4352 -0.30365 -4.30932 0
M  V30 662 C 60.5702 0.539049 -5.28458 0
M  V30 663 C 59.6092 -0.356942 -6.11058 0
M  V30 664 N 58.7462 0.446603 -7.00678 0
M  V30 665 H 63.5862 -1.05632 -2.7865 0
M  V30 666 H 61.1232 -0.532413 -1.37127 0
M  V30 667 H 63.0812 1.09129 -4.02675 0
M  V30 668 H 61.7112 1.37392 -2.92102 0
M  V30 669 H 60.7632 -0.920276 -3.691 0
M  V30 670 H 62.0752 -0.992661 -4.88823 0
M  V30 671 H 61.2292 1.102 -5.96608 0
M  V30 672 H 59.9682 1.26157 -4.71101 0
M  V30 673 H 58.9732 -0.932047 -5.41842 0
M  V30 674 H 60.1982 -1.07755 -6.70497 0
M  V30 675 H 58.1442 1.15282 -6.45791 0
M  V30 676 H 58.0612 -0.184048 -7.55776 0
M  V30 677 H 59.3292 0.992352 -7.73158 0
M  V30 678 N 63.5583 1.46682 -0.576371 0
M  V30 679 C 64.7883 2.06498 -0.0648694 0
M  V30 680 C 65.1963 1.42665 1.24271 0
M  V30 681 O 64.5393 0.523886 1.76071 0
M  V30 682 C 64.6013 3.5904 0.181816 0
M  V30 683 C 64.2653 4.45028 -1.0392 0
M  V30 684 C 65.2623 4.81959 -1.94966 0
M  V30 685 C 62.9473 4.86259 -1.25927 0
M  V30 686 C 64.9413 5.58942 -3.06371 0
M  V30 687 C 62.6283 5.63002 -2.37638 0
M  V30 688 C 63.6263 5.99257 -3.2769 0
M  V30 689 O 63.3143 6.7445 -4.37461 0
M  V30 690 H 63.0463 0.674028 -0.0515987 0
M  V30 691 H 65.6003 1.89393 -0.794951 0
M  V30 692 H 63.8303 3.74429 0.966436 0
M  V30 693 H 65.5193 4.00806 0.641047 0
M  V30 694 H 66.2853 4.50689 -1.79177 0
M  V30 695 H 62.1643 4.57494 -0.567448 0
M  V30 696 H 65.7083 5.87158 -3.76684 0
M  V30 697 H 61.6053 5.93686 -2.53392 0
M  V30 698 H 62.3733 6.92867 -4.35749 0
M  V30 699 N 65.0364 0.313813 1.54444 0
M  V30 700 C 65.9994 -0.54379 2.22656 0
M  V30 701 C 66.9994 -1.05124 1.21678 0
M  V30 702 O 68.1894 -0.945225 1.46325 0
M  V30 703 C 65.3214 -1.75427 2.92298 0
M  V30 704 H 66.5144 0.0523599 2.99854 0
M  V30 705 H 64.0674 0.0647834 1.56166 0
M  V30 706 H 64.8024 -2.38991 2.19211 0
M  V30 707 H 64.5874 -1.39791 3.66334 0
M  V30 708 H 66.0774 -2.36325 3.44297 0
M  V30 709 N 66.5145 -1.57545 0.0417849 0
M  V30 710 C 67.7605 -1.92601 -0.635021 0
M  V30 711 C 68.0935 -0.919627 -1.71045 0
M  V30 712 O 67.3685 0.0557892 -1.9442 0
M  V30 713 C 67.6515 -3.38085 -1.23979 0
M  V30 714 C 67.5045 -4.49467 -0.173057 0
M  V30 715 C 68.8235 -3.83776 -2.15416 0
M  V30 716 H 65.9425 -0.700397 -0.229374 0
M  V30 717 H 68.5845 -1.89728 0.101633 0
M  V30 718 H 66.7345 -3.40664 -1.86762 0
M  V30 719 H 68.4065 -4.59018 0.458312 0
M  V30 720 H 66.6495 -4.30909 0.499996 0
M  V30 721 H 67.3205 -5.48323 -0.636054 0
M  V30 722 H 69.7965 -3.83013 -1.62605 0
M  V30 723 H 68.6725 -4.8624 -2.54679 0
M  V30 724 H 68.9335 -3.19998 -3.05047 0
M  V30 725 N 67.9926 0.231505 -1.5589 0
M  V30 726 C 68.9406 1.30649 -1.92441 0
M  V30 727 C 69.9346 1.49037 -0.805254 0
M  V30 728 O 71.1406 1.50329 -0.990007 0
M  V30 729 H 67.5156 0.437812 -0.611412 0
M  V30 730 H 69.4866 0.970973 -2.82161 0
M  V30 731 C 68.2356 2.65179 -2.24889 0
M  V30 732 H 67.5586 2.51835 -3.10514 0
M  V30 733 H 68.9986 3.39234 -2.54355 0
M  V30 734 C 67.4576 3.19439 -1.07054 0
M  V30 735 O 67.9876 4.00371 -0.326499 0
M  V30 736 N 66.1936 2.77675 -0.85703 0
M  V30 737 H 65.7406 2.11969 -1.46379 0
M  V30 738 H 65.6986 3.14321 -0.0703223 0
M  V30 739 N 69.4707 1.49531 0.497807 0
M  V30 740 C 70.6957 1.63159 1.28039 0
M  V30 741 C 71.1207 0.30418 1.85624 0
M  V30 742 O 70.4787 -0.728618 1.66015 0
M  V30 743 C 70.5267 2.70537 2.38416 0
M  V30 744 O 69.6307 2.29931 3.42353 0
M  V30 745 H 68.9717 0.546001 0.377861 0
M  V30 746 H 71.5017 1.9574 0.59558 0
M  V30 747 H 71.5117 2.92802 2.84132 0
M  V30 748 H 70.1867 3.6689 1.95869 0
M  V30 749 H 68.7637 2.18009 3.02533 0
M  V30 750 N 70.9488 -0.749086 1.3866 0
M  V30 751 C 72.1978 -1.50371 1.3443 0
M  V30 752 C 72.5108 -1.95503 -0.0616397 0
M  V30 753 O 73.7168 -2.70554 -0.226489 0
M  V30 754 C 72.1728 -2.71644 2.36088 0
M  V30 755 C 71.7808 -2.3352 3.82325 0
M  V30 756 C 73.5248 -3.49518 2.40909 0
M  V30 757 C 71.4318 -3.51431 4.75658 0
M  V30 758 H 70.3618 -0.564628 0.499712 0
M  V30 759 H 73.0128 -0.818449 1.64237 0
M  V30 760 H 71.3948 -3.42175 1.9933 0
M  V30 761 H 72.5688 -1.70627 4.28046 0
M  V30 762 H 70.8838 -1.6877 3.80665 0
M  V30 763 H 73.4808 -4.37197 3.07836 0
M  V30 764 H 73.8238 -3.90992 1.42937 0
M  V30 765 H 74.3568 -2.86005 2.76489 0
M  V30 766 H 71.0958 -3.15019 5.74842 0
M  V30 767 H 70.6158 -4.13352 4.34627 0
M  V30 768 H 72.2948 -4.17953 4.93887 0
M  V30 769 N 72.4269 -1.23603 -0.977757 0
M  V30 770 C 73.3739 -1.01954 -2.07061 0
M  V30 771 C 74.3439 0.0638697 -1.65977 0
M  V30 772 O 75.5289 -0.0887624 -1.90593 0
M  V30 773 C 72.6689 -0.619658 -3.39491 0
M  V30 774 C 71.7819 -1.77547 -3.93829 0
M  V30 775 C 70.9169 -1.32212 -5.14484 0
M  V30 776 C 69.9559 -2.44852 -5.60994 0
M  V30 777 N 69.0929 -2.00456 -6.72876 0
M  V30 778 H 73.9329 -1.95495 -2.24913 0
M  V30 779 H 71.4699 -0.973861 -1.10247 0
M  V30 780 H 73.4279 -0.368898 -4.15566 0
M  V30 781 H 72.0579 0.278752 -3.21594 0
M  V30 782 H 71.1099 -2.14016 -3.14486 0
M  V30 783 H 72.4219 -2.62219 -4.24314 0
M  V30 784 H 71.5759 -1.02965 -5.97899 0
M  V30 785 H 70.3149 -0.445808 -4.85658 0
M  V30 786 H 69.3199 -2.74871 -4.76157 0
M  V30 787 H 70.5449 -3.33024 -5.91837 0
M  V30 788 H 68.4909 -1.15208 -6.45804 0
M  V30 789 H 68.4079 -2.78687 -7.02759 0
M  V30 790 H 69.6759 -1.7432 -7.59758 0
M  V30 791 N 73.905 1.17692 -1.04816 0
M  V30 792 C 74.852 2.21581 -0.645797 0
M  V30 793 C 75.822 1.62367 0.350159 0
M  V30 794 O 77.007 1.89254 0.242433 0
M  V30 795 C 74.147 3.45092 -0.0227568 0
M  V30 796 C 73.26 4.18613 -1.06709 0
M  V30 797 C 72.395 5.29602 -0.411767 0
M  V30 798 C 71.434 5.94904 -1.44067 0
M  V30 799 N 70.571 6.97414 -0.809781 0
M  V30 800 H 75.411 2.55353 -1.5362 0
M  V30 801 H 72.948 1.25438 -0.768364 0
M  V30 802 H 74.906 4.15679 0.35588 0
M  V30 803 H 73.536 3.11917 0.831122 0
M  V30 804 H 72.588 3.46779 -1.5636 0
M  V30 805 H 73.9 4.63293 -1.84827 0
M  V30 806 H 73.054 6.06696 0.0206623 0
M  V30 807 H 71.793 4.86045 0.401438 0
M  V30 808 H 70.798 5.16544 -1.88316 0
M  V30 809 H 72.023 6.40542 -2.25571 0
M  V30 810 H 69.969 6.55998 -0.0170186 0
M  V30 811 H 69.886 7.40386 -1.52856 0
M  V30 812 H 71.154 7.78463 -0.401999 0
M  V30 813 N 75.3831 0.828654 1.34056 0
M  V30 814 C 76.3301 0.252567 2.29414 0
M  V30 815 C 77.3001 -0.62588 1.53857 0
M  V30 816 O 78.4851 -0.566312 1.82202 0
M  V30 817 C 75.6251 -0.574831 3.40279 0
M  V30 818 C 74.7381 0.326499 4.30764 0
M  V30 819 C 73.8731 -0.511016 5.28736 0
M  V30 820 C 72.9121 0.389342 6.1086 0
M  V30 821 N 72.0491 -0.409439 7.00905 0
M  V30 822 H 76.8891 1.07108 2.78086 0
M  V30 823 H 74.4261 0.539677 1.36843 0
M  V30 824 H 76.3841 -1.06992 4.03248 0
M  V30 825 H 75.0141 -1.35841 2.92826 0
M  V30 826 H 74.0661 0.939837 3.68607 0
M  V30 827 H 75.3781 1.01857 4.88289 0
M  V30 828 H 74.5321 -1.07035 5.97184 0
M  V30 829 H 73.2711 -1.23657 4.71763 0
M  V30 830 H 72.2761 0.960769 5.4134 0
M  V30 831 H 73.5011 1.1131 6.69916 0
M  V30 832 H 71.4471 -1.11856 6.46393 0
M  V30 833 H 71.3641 0.224126 7.55668 0
M  V30 834 H 72.6321 -0.951336 7.73673 0
M  V30 835 N 76.8612 -1.46375 0.584142 0
M  V30 836 C 78.1072 -2.02678 0.0703716 0
M  V30 837 C 78.4402 -1.4545 -1.28678 0
M  V30 838 O 77.7152 -0.62014 -1.84349 0
M  V30 839 C 77.9982 -3.60099 0.00614674 0
M  V30 840 C 77.8512 -4.27709 1.3923 0
M  V30 841 C 79.1702 -4.34598 -0.693742 0
M  V30 842 H 76.2892 -0.736504 0.027047 0
M  V30 843 H 78.9312 -1.74501 0.751615 0
M  V30 844 H 77.0812 -3.84236 -0.574009 0
M  V30 845 H 78.7532 -4.14832 2.01773 0
M  V30 846 H 76.9962 -3.87016 1.95962 0
M  V30 847 H 77.6672 -5.36478 1.29982 0
M  V30 848 H 80.1432 -4.15615 -0.200869 0
M  V30 849 H 79.0192 -5.44318 -0.707714 0
M  V30 850 H 79.2802 -4.05759 -1.75533 0
M  V30 851 N 78.3393 -0.321999 -1.54275 0
M  V30 852 C 79.2873 0.560206 -2.25753 0
M  V30 853 C 80.2813 1.11984 -1.27106 0
M  V30 854 O 81.4873 1.06806 -1.44888 0
M  V30 855 H 77.8623 0.199304 -0.725108 0
M  V30 856 H 79.8333 -0.0649365 -2.98329 0
M  V30 857 C 78.5823 1.71023 -3.02731 0
M  V30 858 H 77.9053 1.28885 -3.78456 0
M  V30 859 H 79.3453 2.30314 -3.55993 0
M  V30 860 C 77.8043 2.62692 -2.10938 0
M  V30 861 O 78.3343 3.64364 -1.6912 0
M  V30 862 N 76.5403 2.30891 -1.76459 0
M  V30 863 H 76.0873 1.48253 -2.10663 0
M  V30 864 H 76.0453 2.92487 -1.1532 0
M  V30 865 N 79.8174 1.5752 -0.0501392 0
M  V30 866 C 81.0944 1.83996 0.663685 0
M  V30 867 C 81.4744 0.938339 1.89099 0
M  V30 868 O 80.8224 -0.00087759 2.285 0
M  V30 869 C 81.0324 3.33702 1.02196 0
M  V30 870 C 82.3804 4.00691 1.40469 0
M  V30 871 O 83.4044 3.38321 1.11433 0
M  V30 872 O 82.2634 5.10658 1.94654 0
M  V30 873 H 79.3574 0.759385 0.32751 0
M  V30 874 H 81.9034 1.69514 -0.0794238 0
M  V30 875 H 80.6754 3.91015 0.149364 0
M  V30 876 H 80.2984 3.53368 1.82255 0
M  V30 877 N 81.2955 -0.223234 1.56011 0
M  V30 878 C 82.2425 -1.27664 1.92277 0
M  V30 879 C 83.2125 -1.46659 0.779763 0
M  V30 880 O 84.3975 -1.60256 1.03551 0
M  V30 881 C 81.5375 -2.62234 2.24338 0
M  V30 882 C 80.6505 -2.51051 3.51564 0
M  V30 883 C 79.7855 -3.78133 3.7308 0
M  V30 884 C 78.8245 -3.61665 4.93827 0
M  V30 885 N 77.9615 -4.80693 5.11741 0
M  V30 886 H 82.8015 -0.960358 2.82101 0
M  V30 887 H 80.3385 -0.462901 1.39627 0
M  V30 888 H 82.2965 -3.40596 2.40936 0
M  V30 889 H 80.9265 -2.91961 1.3769 0
M  V30 890 H 79.9785 -1.64132 3.43169 0
M  V30 891 H 81.2905 -2.34803 4.40079 0
M  V30 892 H 80.4445 -4.64938 3.89766 0
M  V30 893 H 79.1835 -3.97304 2.82844 0
M  V30 894 H 78.1885 -2.73244 4.77093 0
M  V30 895 H 79.4135 -3.43966 5.85546 0
M  V30 896 H 77.3595 -5.00181 4.24446 0
M  V30 897 H 77.2765 -4.67165 5.94384 0
M  V30 898 H 78.5445 -5.6893 5.3286 0
M  V30 899 N 82.7736 -1.49793 -0.48987 0
M  V30 900 C 83.7216 -1.67783 -1.61095 0
M  V30 901 C 84.7156 -0.543683 -1.60438 0
M  V30 902 O 85.9216 -0.723647 -1.64813 0
M  V30 903 H 82.2966 -0.529255 -0.534222 0
M  V30 904 H 84.2676 -2.61861 -1.43078 0
M  V30 905 C 83.0166 -1.77191 -2.99164 0
M  V30 906 H 82.3396 -2.63841 -3.0038 0
M  V30 907 H 83.7796 -1.93809 -3.77113 0
M  V30 908 C 82.2386 -0.519203 -3.32875 0
M  V30 909 O 82.7686 0.350124 -4.00171 0
M  V30 910 N 80.9746 -0.378816 -2.8812 0
M  V30 911 H 80.5216 -1.08725 -2.33531 0
M  V30 912 H 80.4796 0.458239 -3.11043 0
M  V30 913 N 84.2517 0.741722 -1.39055 0
M  V30 914 C 85.6627 1.31966 -1.32068 0
M  V30 915 C 86.0137 1.96192 0.0180797 0
M  V30 916 O 85.1387 1.95861 0.920196 0
M  V30 917 C 85.7337 2.39954 -2.39181 0
M  V30 918 C 84.2927 2.93438 -2.35735 0
M  V30 919 C 83.4397 1.66936 -2.21422 0
M  V30 920 H 86.3907 0.539721 -1.4924 0
M  V30 921 H 86.4117 3.20182 -2.05581 0
M  V30 922 H 85.9237 1.9318 -3.36605 0
M  V30 923 H 84.0247 3.4451 -1.41929 0
M  V30 924 H 84.1377 3.4701 -3.30335 0
M  V30 925 H 82.5017 1.91016 -1.68478 0
M  V30 926 H 83.2847 1.22224 -3.20806 0
M  V30 927 N 85.7298 1.2412 0.971189 0
M  V30 928 C 86.6798 0.997551 2.05019 0
M  V30 929 C 87.6638 -0.0597747 1.60789 0
M  V30 930 O 88.8558 0.153516 1.76333 0
M  V30 931 C 85.9848 0.600557 3.38006 0
M  V30 932 C 85.0708 1.69377 3.88809 0
M  V30 933 N 85.4618 2.92586 4.12586 0
M  V30 934 C 83.7598 1.57048 4.17435 0
M  V30 935 C 84.4608 3.63431 4.54195 0
M  V30 936 N 83.4368 2.90979 4.59165 0
M  V30 937 H 87.2388 1.93316 2.21374 0
M  V30 938 H 84.7528 1.14194 1.1547 0
M  V30 939 H 86.7498 0.40725 4.14906 0
M  V30 940 H 85.4098 -0.327903 3.2304 0
M  V30 941 H 86.4208 3.288 4.00139 0
M  V30 942 H 83.0978 0.709798 4.11422 0
M  V30 943 H 84.4878 4.69102 4.81033 0
M  V30 944 N 87.2079 -1.17134 1.05439 0
M  V30 945 C 88.4539 -1.87733 0.767077 0
M  V30 946 C 88.7869 -1.8098 -0.704253 0
M  V30 947 O 88.0619 -1.21951 -1.5152 0
M  V30 948 C 88.3449 -3.37659 1.25133 0
M  V30 949 C 88.1979 -3.53149 2.78578 0
M  V30 950 C 89.5169 -4.31768 0.852324 0
M  V30 951 H 86.6359 -0.681687 0.280129 0
M  V30 952 H 89.2779 -1.37732 1.30881 0
M  V30 953 H 87.4279 -3.80373 0.790469 0
M  V30 954 H 89.0999 -3.19434 3.32806 0
M  V30 955 H 87.3429 -2.95345 3.17732 0
M  V30 956 H 88.0139 -4.58403 3.07523 0
M  V30 957 H 90.4899 -3.96909 1.24911 0
M  V30 958 H 89.3659 -5.35199 1.21873 0
M  V30 959 H 89.6269 -4.41429 -0.243485 0
M  V30 960 N 88.686 -0.835752 -1.33615 0
M  V30 961 C 89.649 -0.272 -2.2758 0
M  V30 962 C 90.649 0.557487 -1.50827 0
M  V30 963 O 91.839 0.37173 -1.70188 0
M  V30 964 C 88.971 0.617173 -3.35267 0
M  V30 965 H 90.164 -1.10111 -2.78954 0
M  V30 966 H 87.717 -0.608594 -1.43965 0
M  V30 967 H 88.452 1.46884 -2.89129 0
M  V30 968 H 88.237 0.0237066 -3.92093 0
M  V30 969 H 89.727 1.005 -4.05326 0
M  V30 970 N 90.1641 1.46063 -0.591896 0
M  V30 971 C 91.0941 2.33172 0.123673 0
M  V30 972 C 92.0751 1.45897 0.87453 0
M  V30 973 O 93.2601 1.74698 0.848181 0
M  V30 974 C 90.3901 3.28336 1.13194 0
M  V30 975 C 89.3441 4.25124 0.495324 0
M  V30 976 C 88.6701 5.09863 1.61071 0
M  V30 977 C 89.9701 5.19143 -0.573425 0
M  V30 978 H 91.6641 2.93252 -0.603646 0
M  V30 979 H 89.2101 1.41014 -0.291741 0
M  V30 980 H 91.1631 3.88137 1.64097 0
M  V30 981 H 89.8871 2.66383 1.88965 0
M  V30 982 H 88.5461 3.66599 0.00729452 0
M  V30 983 H 88.1941 4.44288 2.35832 0
M  V30 984 H 87.8941 5.75417 1.19035 0
M  V30 985 H 89.4181 5.72529 2.12233 0
M  V30 986 H 90.8321 5.73106 -0.1491 0
M  V30 987 H 89.2291 5.93089 -0.914636 0
M  V30 988 H 90.2991 4.62519 -1.45617 0
M  V30 989 N 91.6422 0.330177 1.54103 0
M  V30 990 C 92.8722 -0.271784 2.04805 0
M  V30 991 C 93.2802 -1.45816 1.20559 0
M  V30 992 O 92.6232 -1.82247 0.2306 0
M  V30 993 C 92.6852 -0.763238 3.51305 0
M  V30 994 C 92.3492 0.301705 4.56003 0
M  V30 995 C 93.3462 1.13999 5.07248 0
M  V30 996 C 91.0312 0.451793 5.00264 0
M  V30 997 C 93.0252 2.11402 6.01322 0
M  V30 998 C 90.7122 1.42924 5.94151 0
M  V30 999 C 91.7102 2.25882 6.44567 0
M  V30 1000 O 91.3982 3.21965 7.3661 0
M  V30 1001 H 91.1302 -0.058693 0.673447 0
M  V30 1002 H 93.6842 0.476395 1.99799 0
M  V30 1003 H 91.9142 -1.56244 3.5373 0
M  V30 1004 H 93.6032 -1.28427 3.85047 0
M  V30 1005 H 94.3692 1.03505 4.73827 0
M  V30 1006 H 90.2482 -0.184044 4.60632 0
M  V30 1007 H 93.7922 2.76192 6.40596 0
M  V30 1008 H 89.6892 1.53479 6.26988 0
M  V30 1009 H 90.4572 3.17281 7.54503 0
M  V30 1010 N 93.1203 -1.57491 0.0584922 0
M  V30 1011 C 94.0833 -2.1085 -0.898617 0
M  V30 1012 C 95.0833 -1.02964 -1.23511 0
M  V30 1013 O 96.2733 -1.29007 -1.17059 0
M  V30 1014 C 93.4053 -2.59881 -2.20623 0
M  V30 1015 H 94.5983 -2.96715 -0.435936 0
M  V30 1016 H 92.1513 -1.55141 -0.190023 0
M  V30 1017 H 92.8863 -1.77431 -2.71457 0
M  V30 1018 H 92.6713 -3.38727 -1.97501 0
M  V30 1019 H 94.1613 -3.01285 -2.89166 0
M  V30 1020 N 94.5984 0.214957 -1.56127 0
M  V30 1021 C 95.5284 1.2695 -1.95974 0
M  V30 1022 C 96.5094 1.48539 -0.828868 0
M  V30 1023 O 97.6944 1.60611 -1.09168 0
M  V30 1024 C 94.8244 2.61794 -2.28214 0
M  V30 1025 C 93.7784 2.54851 -3.43853 0
M  V30 1026 C 93.1044 3.93785 -3.61715 0
M  V30 1027 C 94.4044 2.09065 -4.78632 0
M  V30 1028 H 96.0984 0.93846 -2.84312 0
M  V30 1029 H 93.6444 0.449996 -1.36788 0
M  V30 1030 H 95.5974 3.35731 -2.54682 0
M  V30 1031 H 94.3214 2.96599 -1.36736 0
M  V30 1032 H 92.9804 1.8337 -3.17444 0
M  V30 1033 H 92.6284 4.25908 -2.67602 0
M  V30 1034 H 92.3284 3.90019 -4.39498 0
M  V30 1035 H 93.8524 4.69374 -3.90539 0
M  V30 1036 H 95.2664 2.7275 -5.04262 0
M  V30 1037 H 93.6634 2.16346 -5.59745 0
M  V30 1038 H 94.7334 1.04315 -4.73547 0
M  V30 1039 N 96.0765 1.50051 0.48192 0
M  V30 1040 C 96.9865 1.7089 1.60728 0
M  V30 1041 C 98.0025 0.591788 1.63627 0
M  V30 1042 O 99.1785 0.868817 1.81696 0
M  V30 1043 C 96.2435 1.78855 2.97005 0
M  V30 1044 C 95.3045 3.02537 3.04581 0
M  V30 1045 C 94.5375 3.10112 4.34357 0
M  V30 1046 O 94.7605 2.24765 5.24249 0
M  V30 1047 O 93.6945 4.02747 4.47301 0
M  V30 1048 H 97.5205 2.66264 1.46072 0
M  V30 1049 H 95.1055 1.34018 0.660264 0
M  V30 1050 H 96.9875 1.86336 3.77964 0
M  V30 1051 H 95.6625 0.866628 3.11883 0
M  V30 1052 H 94.5695 3.00563 2.22739 0
M  V30 1053 H 95.9025 3.94272 2.94636 0
M  V30 1054 N 97.5546 -0.734337 1.39446 0
M  V30 1055 C 98.8006 -1.49613 1.36908 0
M  V30 1056 C 99.1336 -1.94169 -0.0347829 0
M  V30 1057 O 98.4086 -1.66833 -0.999847 0
M  V30 1058 C 98.6916 -2.73534 2.34203 0
M  V30 1059 C 98.5446 -2.34993 3.83534 0
M  V30 1060 C 99.8636 -3.75635 2.29317 0
M  V30 1061 H 96.9826 -0.542714 0.498629 0
M  V30 1062 H 99.6246 -0.839597 1.70443 0
M  V30 1063 H 97.7746 -3.29553 2.05736 0
M  V30 1064 H 99.4466 -1.84601 4.22753 0
M  V30 1065 H 97.6896 -1.67213 4.00278 0
M  V30 1066 H 98.3606 -3.23738 4.47099 0
M  V30 1067 H 100.837 -3.29203 2.54489 0
M  V30 1068 H 99.7126 -4.60008 2.99472 0
M  V30 1069 H 99.9736 -4.22603 1.29842 0
M  V30 1070 N 99.0327 -1.24633 -0.964593 0
M  V30 1071 C 99.9657 -0.984662 -2.05863 0
M  V30 1072 C 100.944 0.0826554 -1.6239 0
M  V30 1073 O 102.128 -0.0549296 -1.8842 0
M  V30 1074 C 99.2547 -0.486529 -3.35187 0
M  V30 1075 C 98.3007 -1.54286 -3.97615 0
M  V30 1076 S 99.1337 -3.12513 -4.34851 0
M  V30 1077 C 100.29 -2.6441 -5.67308 0
M  V30 1078 H 100.523 -1.91104 -2.27743 0
M  V30 1079 H 98.0557 -1.08052 -1.10291 0
M  V30 1080 H 100.014 -0.205757 -4.09984 0
M  V30 1081 H 98.6747 0.419186 -3.1129 0
M  V30 1082 H 97.8677 -1.14481 -4.90826 0
M  V30 1083 H 97.4697 -1.7738 -3.2926 0
M  V30 1084 H 99.7617 -2.07416 -6.44969 0
M  V30 1085 H 100.705 -3.56222 -6.11973 0
M  V30 1086 H 101.113 -2.04734 -5.26065 0
M  V30 1087 N 100.511 1.16574 -1.06058 0
M  V30 1088 C 101.421 2.2452 -0.680282 0
M  V30 1089 C 102.437 1.71348 0.302604 0
M  V30 1090 O 103.613 2.00822 0.152513 0
M  V30 1091 C 100.678 3.46629 -0.0700315 0
M  V30 1092 C 99.7388 4.14849 -1.10448 0
M  V30 1093 C 98.9718 5.31129 -0.523256 0
M  V30 1094 O 99.1948 5.66514 0.664709 0
M  V30 1095 O 98.1288 5.88526 -1.26179 0
M  V30 1096 H 101.955 2.59355 -1.58015 0
M  V30 1097 H 99.5398 1.24043 -0.832694 0
M  V30 1098 H 101.422 4.20543 0.268667 0
M  V30 1099 H 100.097 3.13573 0.803353 0
M  V30 1100 H 99.0038 3.42916 -1.49532 0
M  V30 1101 H 100.337 4.51954 -1.94931 0
M  V30 1102 N 101.989 0.842826 1.3317 0
M  V30 1103 C 103.214 0.453129 2.02389 0
M  V30 1104 C 103.639 -0.939105 1.6298 0
M  V30 1105 O 102.997 -1.61472 0.8244 0
M  V30 1106 C 103.045 0.586094 3.55805 0
M  V30 1107 O 102.149 -0.386029 4.10589 0
M  V30 1108 H 101.49 0.183664 0.638094 0
M  V30 1109 H 104.02 1.13875 1.69981 0
M  V30 1110 H 104.03 0.469209 4.05293 0
M  V30 1111 H 102.705 1.6014 3.83833 0
M  V30 1112 H 101.282 -0.226371 3.72212 0
M  V30 1113 N 103.467 -1.45747 0.599634 0
M  V30 1114 C 104.713 -2.02592 0.0918643 0
M  V30 1115 C 105.046 -1.46806 -1.27128 0
M  V30 1116 O 104.321 -0.639658 -1.83681 0
M  V30 1117 C 104.604 -3.60073 0.0443398 0
M  V30 1118 C 104.457 -4.26208 1.43759 0
M  V30 1119 C 105.776 -4.35309 -0.647608 0
M  V30 1120 H 102.895 -0.736175 0.034857 0
M  V30 1121 H 105.537 -1.73694 0.770081 0
M  V30 1122 H 103.687 -3.84823 -0.533224 0
M  V30 1123 H 105.359 -4.12668 2.06162 0
M  V30 1124 H 103.602 -3.84916 2.00056 0
M  V30 1125 H 104.273 -5.35069 1.35665 0
M  V30 1126 H 106.749 -4.15805 -0.156776 0
M  V30 1127 H 105.625 -5.45038 -0.649942 0
M  V30 1128 H 105.886 -4.07598 -1.71219 0
M  V30 1129 N 104.945 -0.338344 -1.53925 0
M  V30 1130 C 106.191 0.260143 -2.01125 0
M  V30 1131 C 106.524 1.50617 -1.22589 0
M  V30 1132 O 105.799 1.91979 -0.312113 0
M  V30 1133 C 106.082 0.579499 -3.55407 0
M  V30 1134 C 105.935 -0.678264 -4.44657 0
M  V30 1135 C 107.254 1.39122 -4.17532 0
M  V30 1136 H 104.373 0.0930772 -0.731099 0
M  V30 1137 H 107.015 -0.457852 -1.84401 0
M  V30 1138 H 105.165 1.19118 -3.69788 0
M  V30 1139 H 106.837 -1.31631 -4.42121 0
M  V30 1140 H 105.08 -1.3042 -4.13731 0
M  V30 1141 H 105.751 -0.410143 -5.50474 0
M  V30 1142 H 108.227 0.874035 -4.06817 0
M  V30 1143 H 107.103 1.58342 -5.25565 0
M  V30 1144 H 107.364 2.39178 -3.71815 0
M  V30 1145 N 106.423 1.57458 -0.0668435 0
M  V30 1146 C 107.37 2.12439 0.902122 0
M  V30 1147 C 108.34 1.03565 1.2986 0
M  V30 1148 O 109.525 1.312 1.38532 0
M  V30 1149 C 106.665 2.6865 2.16614 0
M  V30 1150 C 105.778 3.91663 1.82274 0
M  V30 1151 C 104.913 4.36134 3.0325 0
M  V30 1152 C 103.952 5.51808 2.64904 0
M  V30 1153 N 103.089 5.9126 3.78624 0
M  V30 1154 H 107.929 2.94934 0.426382 0
M  V30 1155 H 105.466 1.4575 0.198819 0
M  V30 1156 H 107.424 2.99346 2.90599 0
M  V30 1157 H 106.054 1.88928 2.61737 0
M  V30 1158 H 105.106 3.6746 0.983719 0
M  V30 1159 H 106.418 4.75693 1.50059 0
M  V30 1160 H 105.572 4.68465 3.85519 0
M  V30 1161 H 104.311 3.50948 3.38655 0
M  V30 1162 H 103.316 5.19133 1.81055 0
M  V30 1163 H 104.541 6.38722 2.30675 0
M  V30 1164 H 102.487 5.09024 4.138 0
M  V30 1165 H 102.404 6.70018 3.5016 0
M  V30 1166 H 103.672 6.28212 4.61486 0
M  V30 1167 N 107.901 -0.206675 1.56239 0
M  V30 1168 C 108.849 -1.27571 1.94495 0
M  V30 1169 C 109.843 -1.47737 0.828862 0
M  V30 1170 O 111.049 -1.48735 1.0138 0
M  V30 1171 H 107.424 -0.428029 0.6183 0
M  V30 1172 H 109.395 -0.925961 2.8367 0
M  V30 1173 C 108.144 -2.61568 2.29079 0
M  V30 1174 H 107.467 -2.46863 3.14482 0
M  V30 1175 H 108.907 -3.35144 2.5972 0
M  V30 1176 C 107.366 -3.17695 1.12123 0
M  V30 1177 O 107.896 -3.99801 0.390153 0
M  V30 1178 N 106.102 -2.76276 0.901097 0
M  V30 1179 H 105.649 -2.09613 1.49733 0
M  V30 1180 H 105.607 -3.1417 0.120319 0
M  V30 1181 N 109.379 -1.50304 -0.473955 0
M  V30 1182 C 110.619 -1.62786 -1.23612 0
M  V30 1183 C 110.983 -0.319786 -1.89318 0
M  V30 1184 O 112.184 -0.320012 -2.66888 0
M  V30 1185 C 110.455 -2.77351 -2.25414 0
M  V30 1186 S 112.014 -3.09948 -3.10608 0
M  V30 1187 H 108.832 -0.573895 -0.419721 0
M  V30 1188 H 111.434 -1.88076 -0.533623 0
M  V30 1189 H 110.138 -3.70879 -1.75719 0
M  V30 1190 H 109.669 -2.54137 -3.00296 0
M  V30 1191 H 111.684 -2.53553 -4.26527 0
M  V30 1192 N 110.857 0.726932 -1.39834 0
M  V30 1193 C 112.105 1.4837 -1.37225 0
M  V30 1194 C 112.426 1.94979 0.0284857 0
M  V30 1195 O 111.696 1.69555 0.981213 0
M  V30 1196 H 110.276 0.55043 -0.505011 0
M  V30 1197 H 112.938 0.862468 -1.74778 0
M  V30 1198 H 112.034 2.36198 -2.04003 0
M  V30 1199 N 112.336 1.25143 0.95797 0
M  V30 1200 C 113.268 1.01023 2.05735 0
M  V30 1201 C 114.281 -0.0236902 1.62783 0
M  V30 1202 O 115.47 0.21448 1.77207 0
M  V30 1203 C 112.57 0.504595 3.35122 0
M  V30 1204 C 111.743 1.6039 4.06932 0
M  V30 1205 C 110.802 1.09922 5.14591 0
M  V30 1206 O 109.828 1.79293 5.40225 0
M  V30 1207 N 111.03 -0.0612545 5.80468 0
M  V30 1208 H 113.795 1.95683 2.26998 0
M  V30 1209 H 111.356 1.16303 1.12629 0
M  V30 1210 H 113.348 0.151516 4.04416 0
M  V30 1211 H 111.918 -0.347989 3.10657 0
M  V30 1212 H 111.138 2.12872 3.31782 0
M  V30 1213 H 112.426 2.34252 4.51667 0
M  V30 1214 H 111.824 -0.640985 5.62057 0
M  V30 1215 H 110.381 -0.355395 6.5083 0
M  V30 1216 N 113.814 -1.1601 1.06675 0
M  V30 1217 C 115.042 -1.90527 0.806667 0
M  V30 1218 C 115.457 -1.77643 -0.639396 0
M  V30 1219 O 114.814 -1.12369 -1.43803 0
M  V30 1220 C 114.865 -3.41106 1.19705 0
M  V30 1221 O 114.586 -3.53608 2.58636 0
M  V30 1222 C 116.087 -4.32663 0.965266 0
M  V30 1223 H 113.307 -0.604053 0.292166 0
M  V30 1224 H 115.851 -1.47026 1.4214 0
M  V30 1225 H 114.006 -3.82296 0.626774 0
M  V30 1226 H 114.42 -4.47011 2.74375 0
M  V30 1227 H 115.894 -5.36763 1.288 0
M  V30 1228 H 116.371 -4.39089 -0.0987936 0
M  V30 1229 H 116.977 -3.97206 1.52011 0
M  V30 1230 N 115.292 -0.849877 -1.32721 0
M  V30 1231 C 116.538 -0.451591 -1.97708 0
M  V30 1232 C 116.871 0.989175 -1.6712 0
M  V30 1233 O 116.146 1.69334 -0.956891 0
M  V30 1234 C 116.429 -0.685598 -3.53513 0
M  V30 1235 C 116.282 -2.17444 -3.93749 0
M  V30 1236 C 117.601 -0.138874 -4.39881 0
M  V30 1237 H 114.72 -0.16555 -0.718166 0
M  V30 1238 H 117.362 -1.06742 -1.57182 0
M  V30 1239 H 115.512 -0.161416 -3.88165 0
M  V30 1240 H 117.184 -2.76433 -3.693 0
M  V30 1241 H 115.427 -2.65476 -3.43081 0
M  V30 1242 H 116.098 -2.28888 -5.02309 0
M  V30 1243 H 118.574 -0.587068 -4.11938 0
M  V30 1244 H 117.45 -0.332213 -5.47894 0
M  V30 1245 H 117.711 0.95806 -4.31594 0
M  V30 1246 N 116.77 1.45427 -0.607355 0
M  V30 1247 C 117.72 2.27612 0.133038 0
M  V30 1248 C 118.704 1.37307 0.838785 0
M  V30 1249 O 119.896 1.61299 0.728813 0
M  V30 1250 C 117.025 3.24173 1.12991 0
M  V30 1251 C 116.111 4.21965 0.425011 0
M  V30 1252 N 116.502 5.02982 -0.533217 0
M  V30 1253 C 114.8 4.40899 0.672593 0
M  V30 1254 C 115.501 5.73931 -0.947518 0
M  V30 1255 N 114.477 5.42819 -0.291321 0
M  V30 1256 H 118.279 2.87649 -0.602935 0
M  V30 1257 H 115.793 1.56576 -0.431006 0
M  V30 1258 H 117.79 3.81783 1.67473 0
M  V30 1259 H 116.45 2.65696 1.86644 0
M  V30 1260 H 117.461 5.09843 -0.90995 0
M  V30 1261 H 114.138 3.93547 1.39382 0
M  V30 1262 H 115.528 6.49037 -1.73782 0
M  V30 1263 N 118.248 0.346503 1.53744 0
M  V30 1264 C 119.525 -0.304532 1.93215 0
M  V30 1265 C 119.905 -1.67993 1.27834 0
M  V30 1266 O 119.253 -2.24411 0.430352 0
M  V30 1267 C 119.463 -0.373852 3.46992 0
M  V30 1268 C 120.811 -0.62329 4.2 0
M  V30 1269 O 121.835 -0.455847 3.53271 0
M  V30 1270 O 120.694 -0.947879 5.38217 0
M  V30 1271 H 117.788 -0.178318 0.807547 0
M  V30 1272 H 120.334 0.397895 1.64969 0
M  V30 1273 H 119.106 0.591224 3.86808 0
M  V30 1274 H 118.729 -1.12294 3.81413 0
M  V30 1275 N 119.726 -1.57421 0.075193 0
M  V30 1276 C 120.636 -2.1642 -0.905511 0
M  V30 1277 C 121.652 -1.12828 -1.32461 0
M  V30 1278 O 122.828 -1.45109 -1.39661 0
M  V30 1279 C 119.893 -2.71693 -2.15369 0
M  V30 1280 C 118.954 -3.90171 -1.79068 0
M  V30 1281 C 118.187 -4.42798 -2.97936 0
M  V30 1282 O 118.41 -3.94416 -4.12058 0
M  V30 1283 O 117.344 -5.34085 -2.77555 0
M  V30 1284 H 121.17 -3.00588 -0.433626 0
M  V30 1285 H 118.755 -1.48664 -0.148067 0
M  V30 1286 H 120.637 -3.07104 -2.88557 0
M  V30 1287 H 119.312 -1.90582 -2.61649 0
M  V30 1288 H 118.219 -3.59606 -1.03122 0
M  V30 1289 H 119.552 -4.72584 -1.37569 0
M  V30 1290 N 121.204 0.198386 -1.56346 0
M  V30 1291 C 122.45 0.920648 -1.80698 0
M  V30 1292 C 122.783 1.83045 -0.648697 0
M  V30 1293 O 122.058 1.91308 0.350925 0
M  V30 1294 C 122.341 1.73971 -3.15287 0
M  V30 1295 C 122.194 0.85485 -4.41602 0
M  V30 1296 C 123.513 2.71296 -3.46535 0
M  V30 1297 H 120.632 0.333261 -0.657348 0
M  V30 1298 H 123.274 0.188198 -1.89066 0
M  V30 1299 H 121.424 2.36416 -3.08285 0
M  V30 1300 H 123.096 0.245362 -4.60647 0
M  V30 1301 H 121.339 0.161398 -4.335 0
M  V30 1302 H 122.01 1.46286 -5.32264 0
M  V30 1303 H 124.486 2.18983 -3.53816 0
M  V30 1304 H 123.362 3.2569 -4.41834 0
M  V30 1305 H 123.623 3.5018 -2.69864 0
M  V30 1306 N 122.682 1.50554 0.465978 0
M  V30 1307 C 123.645 1.69233 1.54574 0
M  V30 1308 C 124.645 0.562901 1.50626 0
M  V30 1309 O 125.835 0.830016 1.53155 0
M  V30 1310 C 122.967 1.7223 2.94193 0
M  V30 1311 H 124.16 2.65571 1.39327 0
M  V30 1312 H 121.713 1.40111 0.692711 0
M  V30 1313 H 122.448 0.77603 3.14878 0
M  V30 1314 H 122.233 2.54285 2.98466 0
M  V30 1315 H 123.723 1.88618 3.72576 0
M  V30 1316 N 124.16 -0.719506 1.40217 0
M  V30 1317 C 125.108 -1.85493 1.40339 0
M  V30 1318 C 126.102 -1.66995 0.284415 0
M  V30 1319 O 127.308 -1.74148 0.455252 0
M  V30 1320 H 123.683 -0.610857 0.438586 0
M  V30 1321 H 125.654 -1.82506 2.36081 0
M  V30 1322 C 124.403 -3.23321 1.27901 0
M  V30 1323 H 123.726 -3.38159 2.1328 0
M  V30 1324 H 125.166 -4.02914 1.32045 0
M  V30 1325 C 123.625 -3.36898 -0.0111355 0
M  V30 1326 O 124.155 -3.89674 -0.975538 0
M  V30 1327 N 122.361 -2.90492 -0.0793393 0
M  V30 1328 H 121.908 -2.47731 0.706183 0
M  V30 1329 H 121.866 -2.99955 -0.942038 0
M  V30 1330 N 125.638 -1.25649 -0.95132 0
M  V30 1331 C 126.585 -1.06323 -2.04851 0
M  V30 1332 C 127.555 0.0286491 -1.66075 0
M  V30 1333 O 128.74 -0.12917 -1.90362 0
M  V30 1334 C 125.88 -0.691529 -3.381 0
M  V30 1335 C 124.993 -1.85861 -3.89974 0
M  V30 1336 C 124.128 -1.43096 -5.11563 0
M  V30 1337 C 123.167 -2.56696 -5.55674 0
M  V30 1338 N 122.304 -2.14684 -6.68472 0
M  V30 1339 H 127.144 -2.00222 -2.20715 0
M  V30 1340 H 124.681 -0.997027 -1.08156 0
M  V30 1341 H 126.639 -0.456963 -4.1469 0
M  V30 1342 H 125.269 0.210474 -3.22113 0
M  V30 1343 H 124.321 -2.20639 -3.09875 0
M  V30 1344 H 125.633 -2.71161 -4.18657 0
M  V30 1345 H 124.787 -1.15624 -5.9558 0
M  V30 1346 H 123.526 -0.548722 -4.84603 0
M  V30 1347 H 122.531 -2.84909 -4.7022 0
M  V30 1348 H 123.756 -3.45503 -5.8464 0
M  V30 1349 H 121.702 -1.28881 -6.43215 0
M  V30 1350 H 121.619 -2.9353 -6.96689 0
M  V30 1351 H 122.887 -1.90397 -7.5589 0
M  V30 1352 N 127.117 1.15442 -1.07289 0
M  V30 1353 C 128.049 2.19773 -0.650585 0
M  V30 1354 C 129.062 1.60076 0.296572 0
M  V30 1355 O 130.251 1.78293 0.0859905 0
M  V30 1356 C 127.351 3.38838 0.0650398 0
M  V30 1357 C 126.524 4.2808 -0.898141 0
M  V30 1358 C 125.583 5.2574 -0.219926 0
M  V30 1359 O 124.609 5.62654 -0.860773 0
M  V30 1360 N 125.811 5.71205 1.03466 0
M  V30 1361 H 128.576 2.56622 -1.54808 0
M  V30 1362 H 126.137 1.30551 -0.957494 0
M  V30 1363 H 128.129 4.01222 0.529415 0
M  V30 1364 H 126.699 3.00409 0.864466 0
M  V30 1365 H 125.919 3.62804 -1.54165 0
M  V30 1366 H 127.207 4.84577 -1.5512 0
M  V30 1367 H 126.605 5.43325 1.57526 0
M  V30 1368 H 125.162 6.35633 1.44272 0
M  V30 1369 N 128.595 0.856903 1.32268 0
M  V30 1370 C 129.823 0.475439 2.01363 0
M  V30 1371 C 130.238 -0.928486 1.64392 0
M  V30 1372 O 129.595 -1.60624 0.866387 0
M  V30 1373 C 129.646 0.607545 3.56358 0
M  V30 1374 O 129.367 1.95617 3.92002 0
M  V30 1375 C 130.868 0.225382 4.42727 0
M  V30 1376 H 128.088 0.186636 0.644521 0
M  V30 1377 H 130.632 1.15446 1.68797 0
M  V30 1378 H 128.787 -0.0237719 3.87393 0
M  V30 1379 H 129.201 1.95455 4.86721 0
M  V30 1380 H 130.675 0.368813 5.50767 0
M  V30 1381 H 131.152 -0.834369 4.31202 0
M  V30 1382 H 131.758 0.831864 4.17085 0
M  V30 1383 N 130.073 -1.45103 0.615059 0
M  V30 1384 C 131.006 -2.27717 -0.148408 0
M  V30 1385 C 131.984 -1.37584 -0.866572 0
M  V30 1386 O 133.168 -1.67017 -0.87393 0
M  V30 1387 C 130.295 -3.16136 -1.21557 0
M  V30 1388 C 129.341 -4.22263 -0.599712 0
M  V30 1389 S 130.174 -5.3215 0.598081 0
M  V30 1390 C 131.33 -6.24137 -0.469484 0
M  V30 1391 H 131.563 -2.92121 0.552483 0
M  V30 1392 H 129.096 -1.49054 0.402778 0
M  V30 1393 H 131.054 -3.67633 -1.82638 0
M  V30 1394 H 129.715 -2.50982 -1.88857 0
M  V30 1395 H 128.908 -4.84081 -1.4029 0
M  V30 1396 H 128.51 -3.73945 -0.063876 0
M  V30 1397 H 130.802 -6.63984 -1.34652 0
M  V30 1398 H 131.745 -7.0801 0.112725 0
M  V30 1399 H 132.153 -5.58971 -0.788168 0
M  V30 1400 N 131.551 -0.354651 -1.53558 0
M  V30 1401 C 132.461 0.50515 -2.29097 0
M  V30 1402 C 133.477 1.10223 -1.34636 0
M  V30 1403 O 134.653 1.11553 -1.67684 0
M  V30 1404 C 131.718 1.63479 -3.05738 0
M  V30 1405 C 130.779 1.06636 -4.15845 0
M  V30 1406 C 130.012 2.14217 -4.88822 0
M  V30 1407 O 130.235 3.35137 -4.61562 0
M  V30 1408 O 129.169 1.77887 -5.75013 0
M  V30 1409 H 132.995 -0.109237 -3.03503 0
M  V30 1410 H 130.58 -0.119357 -1.48922 0
M  V30 1411 H 132.462 2.2918 -3.5363 0
M  V30 1412 H 131.137 2.23478 -2.34178 0
M  V30 1413 H 130.044 0.373565 -3.7223 0
M  V30 1414 H 131.377 0.511081 -4.89539 0
M  V30 1415 N 133.029 1.57378 -0.0835403 0
M  V30 1416 C 133.939 2.16897 0.894021 0
M  V30 1417 C 134.955 1.13528 1.31861 0
M  V30 1418 O 136.131 1.45848 1.3889 0
M  V30 1419 C 133.196 2.72831 2.13925 0
M  V30 1420 C 132.257 3.91115 1.76997 0
M  V30 1421 C 131.49 4.44371 2.95584 0
M  V30 1422 O 131.713 3.96596 4.09961 0
M  V30 1423 O 130.647 5.35549 2.74719 0
M  V30 1424 H 134.473 3.00814 0.417679 0
M  V30 1425 H 132.058 1.48741 0.140181 0
M  V30 1426 H 133.94 3.0863 2.86924 0
M  V30 1427 H 132.615 1.91967 2.60635 0
M  V30 1428 H 131.522 3.60148 1.01214 0
M  V30 1429 H 132.855 4.73307 1.3506 0
M  V30 1430 N 134.507 -0.190092 1.56449 0
M  V30 1431 C 135.437 -1.23816 1.97969 0
M  V30 1432 C 136.418 -1.47201 0.852395 0
M  V30 1433 O 137.603 -1.58854 1.1171 0
M  V30 1434 C 134.733 -2.5813 2.3235 0
M  V30 1435 C 133.687 -2.49348 3.47864 0
M  V30 1436 C 133.013 -3.8798 3.67934 0
M  V30 1437 C 134.313 -2.01424 4.81898 0
M  V30 1438 H 136.007 -0.89311 2.85769 0
M  V30 1439 H 133.553 -0.428177 1.37487 0
M  V30 1440 H 135.506 -3.31637 2.59991 0
M  V30 1441 H 134.23 -2.94386 1.41438 0
M  V30 1442 H 132.889 -1.78297 3.20321 0
M  V30 1443 H 132.537 -4.21597 2.74344 0
M  V30 1444 H 132.237 -3.82978 4.45648 0
M  V30 1445 H 133.761 -4.63101 3.97957 0
M  V30 1446 H 135.175 -2.64693 5.08538 0
M  V30 1447 H 133.572 -2.07413 5.63116 0
M  V30 1448 H 134.642 -0.967677 4.75146 0
M  V30 1449 N 135.985 -1.50799 -0.457987 0
M  V30 1450 C 136.932 -1.70617 -1.5543 0
M  V30 1451 C 137.902 -0.547562 -1.56815 0
M  V30 1452 O 139.087 -0.779647 -1.74144 0
M  V30 1453 C 136.227 -1.81831 -2.93311 0
M  V30 1454 C 135.34 -3.09278 -3.01615 0
M  V30 1455 C 134.475 -3.11209 -4.30491 0
M  V30 1456 C 133.514 -4.33055 -4.32585 0
M  V30 1457 N 132.651 -4.32652 -5.52952 0
M  V30 1458 H 137.491 -2.64207 -1.37836 0
M  V30 1459 H 135.028 -1.30959 -0.669937 0
M  V30 1460 H 136.986 -1.86314 -3.73287 0
M  V30 1461 H 135.616 -0.916685 -3.0951 0
M  V30 1462 H 134.668 -3.14203 -2.1443 0
M  V30 1463 H 135.98 -3.99233 -2.99022 0
M  V30 1464 H 135.134 -3.14494 -5.18824 0
M  V30 1465 H 133.873 -2.19106 -4.35711 0
M  V30 1466 H 132.878 -4.29969 -3.42647 0
M  V30 1467 H 134.103 -5.264 -4.29046 0
M  V30 1468 H 132.049 -3.43409 -5.58933 0
M  V30 1469 H 131.966 -5.16392 -5.52155 0
M  V30 1470 H 133.234 -4.40101 -6.43375 0
M  V30 1471 N 137.463 0.71206 -1.40597 0
M  V30 1472 C 138.74 1.46536 -1.29563 0
M  V30 1473 C 139.12 2.10931 0.0844217 0
M  V30 1474 O 138.468 2.00418 1.0975 0
M  V30 1475 C 138.678 2.49821 -2.43701 0
M  V30 1476 C 140.026 3.15551 -2.841 0
M  V30 1477 O 141.05 2.60142 -2.4332 0
M  V30 1478 O 139.909 4.15867 -3.54566 0
M  V30 1479 H 137.003 0.651801 -0.509004 0
M  V30 1480 H 139.549 0.743935 -1.52524 0
M  V30 1481 H 138.321 2.00778 -3.35863 0
M  V30 1482 H 137.944 3.29495 -2.22528 0
M  V30 1483 N 138.941 1.26152 0.944643 0
M  V30 1484 C 139.871 1.09902 2.06019 0
M  V30 1485 C 140.852 0.00519538 1.70099 0
M  V30 1486 O 142.037 0.176583 1.93396 0
M  V30 1487 C 139.167 0.727562 3.39594 0
M  V30 1488 C 138.121 1.77274 3.89561 0
M  V30 1489 C 137.447 1.25569 5.19747 0
M  V30 1490 C 138.747 3.17357 4.14827 0
M  V30 1491 H 140.441 2.03217 2.19871 0
M  V30 1492 H 137.987 0.978452 1.05652 0
M  V30 1493 H 139.94 0.600777 4.17095 0
M  V30 1494 H 138.664 -0.241287 3.25707 0
M  V30 1495 H 137.323 1.88814 3.14237 0
M  V30 1496 H 136.971 0.276783 5.02238 0
M  V30 1497 H 136.671 1.95433 5.54148 0
M  V30 1498 H 138.195 1.1415 5.99835 0
M  V30 1499 H 139.609 3.08914 4.82954 0
M  V30 1500 H 138.006 3.84781 4.60504 0
M  V30 1501 H 139.076 3.63673 3.20734 0
M  V30 1502 N 140.419 -1.14872 1.07899 0
M  V30 1503 C 141.349 -2.2193 0.725887 0
M  V30 1504 C 142.33 -1.67622 -0.28927 0
M  V30 1505 O 143.515 -1.93533 -0.160787 0
M  V30 1506 C 140.645 -3.47061 0.128856 0
M  V30 1507 C 139.599 -4.14363 1.07178 0
M  V30 1508 C 138.925 -5.33636 0.337229 0
M  V30 1509 C 140.225 -4.63492 2.40775 0
M  V30 1510 H 141.919 -2.51724 1.62097 0
M  V30 1511 H 139.465 -1.20991 0.780838 0
M  V30 1512 H 141.418 -4.21199 -0.130147 0
M  V30 1513 H 140.142 -3.16617 -0.80134 0
M  V30 1514 H 138.801 -3.42173 1.3158 0
M  V30 1515 H 138.449 -4.99449 -0.596606 0
M  V30 1516 H 138.149 -5.79609 0.965788 0
M  V30 1517 H 139.673 -6.10539 0.0861567 0
M  V30 1518 H 141.087 -5.2913 2.20669 0
M  V30 1519 H 139.484 -5.20148 2.99276 0
M  V30 1520 H 140.554 -3.78834 3.02676 0
M  V30 1521 N 141.898 -0.863906 -1.31812 0
M  V30 1522 C 142.845 -0.313303 -2.28664 0
M  V30 1523 C 143.815 0.584868 -1.55462 0
M  V30 1524 O 145 0.517805 -1.83639 0
M  V30 1525 C 142.14 0.48441 -3.41683 0
M  V30 1526 C 141.253 -0.440594 -4.29747 0
M  V30 1527 C 140.388 0.370652 -5.29905 0
M  V30 1528 C 139.427 -0.551164 -6.09613 0
M  V30 1529 N 138.564 0.223462 -7.01744 0
M  V30 1530 H 143.404 -1.14444 -2.75148 0
M  V30 1531 H 140.941 -0.575769 -1.35364 0
M  V30 1532 H 142.899 0.962627 -4.05943 0
M  V30 1533 H 141.529 1.28029 -2.96325 0
M  V30 1534 H 140.581 -1.03724 -3.65986 0
M  V30 1535 H 141.893 -1.14767 -4.85417 0
M  V30 1536 H 141.047 0.911638 -5.99812 0
M  V30 1537 H 139.786 1.11105 -4.74876 0
M  V30 1538 H 138.791 -1.10396 -5.38603 0
M  V30 1539 H 140.016 -1.29032 -6.66729 0
M  V30 1540 H 137.962 0.946787 -6.49132 0
M  V30 1541 H 137.879 -0.424399 -7.54808 0
M  V30 1542 H 139.147 0.745876 -7.75923 0
M  V30 1543 N 143.376 1.44774 -0.622745 0
M  V30 1544 C 144.792 1.56986 -0.287652 0
M  V30 1545 C 144.992 1.61167 1.20944 0
M  V30 1546 O 144.048 1.55015 1.99315 0
M  V30 1547 C 145.361 2.84551 -0.972188 0
M  V30 1548 C 146.909 2.9825 -0.949536 0
M  V30 1549 C 147.384 4.28605 -1.61437 0
M  V30 1550 N 148.875 4.35399 -1.58057 0
M  V30 1551 C 149.61 5.34964 -2.064 0
M  V30 1552 N 149.106 6.40981 -2.62897 0
M  V30 1553 N 150.899 5.26419 -1.97078 0
M  V30 1554 H 143.05 1.40304 -1.59463 0
M  V30 1555 H 145.313 0.671794 -0.668878 0
M  V30 1556 H 145.019 2.87417 -2.02693 0
M  V30 1557 H 144.893 3.73807 -0.504771 0
M  V30 1558 H 147.28 2.94941 0.0967067 0
M  V30 1559 H 147.361 2.10364 -1.45536 0
M  V30 1560 H 147.005 4.32672 -2.66002 0
M  V30 1561 H 146.935 5.15334 -1.08344 0
M  V30 1562 H 149.426 3.59397 -1.16801 0
M  V30 1563 H 149.739 7.13225 -2.97539 0
M  V30 1564 H 148.084 6.4169 -2.66943 0
M  V30 1565 H 151.275 4.42504 -1.52669 0
M  V30 1566 H 151.448 6.03861 -2.35066 0
M  V30 1567 N 144.854 0.36279 1.53368 0
M  V30 1568 C 145.786 -0.519668 2.23231 0
M  V30 1569 C 146.799 -1.04844 1.24546 0
M  V30 1570 O 147.988 -0.955296 1.50786 0
M  V30 1571 C 145.088 -1.72995 2.9142 0
M  V30 1572 C 144.261 -1.33316 4.16588 0
M  V30 1573 C 143.32 -2.40521 4.68013 0
M  V30 1574 O 142.346 -2.03027 5.3176 0
M  V30 1575 N 143.548 -3.72065 4.45587 0
M  V30 1576 H 146.313 0.078751 2.99597 0
M  V30 1577 H 143.874 0.187833 1.60807 0
M  V30 1578 H 145.866 -2.44184 3.22733 0
M  V30 1579 H 144.436 -2.2353 2.18525 0
M  V30 1580 H 143.656 -0.451236 3.91609 0
M  V30 1581 H 144.944 -1.04432 4.97967 0
M  V30 1582 H 144.342 -4.05304 3.94646 0
M  V30 1583 H 142.899 -4.39366 4.81457 0
M  V30 1584 N 146.332 -1.57332 0.0918853 0
M  V30 1585 C 147.578 -1.94524 -0.573425 0
M  V30 1586 C 147.911 -0.973578 -1.68033 0
M  V30 1587 O 147.186 -0.00609226 -1.94499 0
M  V30 1588 C 147.469 -3.41858 -1.13161 0
M  V30 1589 C 147.322 -4.4979 -0.0299747 0
M  V30 1590 C 148.641 -3.90435 -2.03098 0
M  V30 1591 H 145.76 -0.70734 -0.206975 0
M  V30 1592 H 148.402 -1.89309 0.161942 0
M  V30 1593 H 146.552 -3.46433 -1.7583 0
M  V30 1594 H 148.224 -4.57327 0.604112 0
M  V30 1595 H 146.467 -4.291 0.636833 0
M  V30 1596 H 147.138 -5.50069 -0.461287 0
M  V30 1597 H 149.614 -3.87992 -1.50338 0
M  V30 1598 H 148.49 -4.94097 -2.39081 0
M  V30 1599 H 148.751 -3.29541 -2.94712 0
M  V30 1600 N 147.81 0.181792 -1.56548 0
M  V30 1601 C 148.72 1.24538 -1.98815 0
M  V30 1602 C 149.736 1.49045 -0.897861 0
M  V30 1603 O 150.912 1.61399 -1.20467 0
M  V30 1604 C 147.977 2.56683 -2.33055 0
M  V30 1605 C 147.038 2.40131 -3.55859 0
M  V30 1606 C 146.271 3.65975 -3.88456 0
M  V30 1607 O 146.494 4.70711 -3.22161 0
M  V30 1608 O 145.428 3.6071 -4.81842 0
M  V30 1609 H 149.254 0.916647 -2.89536 0
M  V30 1610 H 146.839 0.387842 -1.44278 0
M  V30 1611 H 148.721 3.34655 -2.56094 0
M  V30 1612 H 147.396 2.89157 -1.45498 0
M  V30 1613 H 146.303 1.60226 -3.38051 0
M  V30 1614 H 147.636 2.12585 -4.43924 0
M  V30 1615 N 149.288 1.51039 0.449983 0
M  V30 1616 C 150.534 1.63322 1.20223 0
M  V30 1617 C 150.867 0.34241 1.91158 0
M  V30 1618 O 150.142 -0.657344 1.83055 0
M  V30 1619 C 150.425 2.82801 2.22925 0
M  V30 1620 C 150.278 4.21823 1.56157 0
M  V30 1621 C 151.597 2.97807 3.24035 0
M  V30 1622 H 148.716 0.594407 0.435718 0
M  V30 1623 H 151.358 1.83489 0.493136 0
M  V30 1624 H 149.508 2.65738 2.834 0
M  V30 1625 H 151.18 4.50526 0.991162 0
M  V30 1626 H 149.423 4.25105 0.864172 0
M  V30 1627 H 150.094 5.01391 2.30891 0
M  V30 1628 H 152.57 3.13497 2.73603 0
M  V30 1629 H 151.446 3.82992 3.93202 0
M  V30 1630 H 151.707 2.09328 3.89402 0
M  V30 1631 N 150.766 -0.704594 1.40972 0
M  V30 1632 C 151.714 -1.83994 1.42299 0
M  V30 1633 C 152.708 -1.66684 0.302111 0
M  V30 1634 O 153.914 -1.73655 0.473697 0
M  V30 1635 H 150.289 -0.606171 0.44504 0
M  V30 1636 H 152.26 -1.79992 2.38003 0
M  V30 1637 C 151.009 -3.21946 1.31323 0
M  V30 1638 H 150.332 -3.35878 2.16855 0
M  V30 1639 H 151.772 -4.01491 1.36311 0
M  V30 1640 C 150.231 -3.36891 0.0245977 0
M  V30 1641 O 150.761 -3.90687 -0.934153 0
M  V30 1642 N 148.967 -2.90559 -0.0485243 0
M  V30 1643 H 148.514 -2.46968 0.732419 0
M  V30 1644 H 148.472 -3.00937 -0.910171 0
M  V30 1645 N 152.244 -1.26651 -0.937939 0
M  V30 1646 C 153.49 -1.12553 -1.687 0
M  V30 1647 C 153.823 0.329782 -1.91379 0
M  V30 1648 O 153.098 1.24202 -1.4968 0
M  V30 1649 C 153.381 -1.89862 -3.05981 0
M  V30 1650 C 153.234 -3.43318 -2.90607 0
M  V30 1651 C 154.553 -1.69499 -4.0615 0
M  V30 1652 H 151.672 -0.410257 -0.612257 0
M  V30 1653 H 154.314 -1.55685 -1.08913 0
M  V30 1654 H 152.464 -1.53204 -3.57017 0
M  V30 1655 H 154.136 -3.89747 -2.46769 0
M  V30 1656 H 152.379 -3.70179 -2.26164 0
M  V30 1657 H 153.05 -3.92642 -3.8799 0
M  V30 1658 H 155.526 -2.01442 -3.64088 0
M  V30 1659 H 154.402 -2.26002 -5.00214 0
M  V30 1660 H 154.663 -0.640365 -4.37438 0
M  V30 1661 N 153.722 1.14298 -1.08507 0
M  V30 1662 C 155.138 1.37347 -0.812901 0
M  V30 1663 C 155.338 1.93052 0.577325 0
M  V30 1664 O 154.394 2.14389 1.33393 0
M  V30 1665 C 155.707 2.33359 -1.89642 0
M  V30 1666 C 157.255 2.46996 -1.92255 0
M  V30 1667 C 157.73 3.46309 -2.99724 0
M  V30 1668 N 159.221 3.53853 -2.98902 0
M  V30 1669 C 159.956 4.3055 -3.787 0
M  V30 1670 N 159.452 5.10482 -4.6838 0
M  V30 1671 N 161.245 4.25757 -3.66998 0
M  V30 1672 H 153.396 0.764867 -1.9815 0
M  V30 1673 H 155.659 0.398966 -0.859959 0
M  V30 1674 H 155.365 1.99565 -2.89597 0
M  V30 1675 H 155.239 3.33274 -1.76659 0
M  V30 1676 H 157.626 2.80081 -0.929445 0
M  V30 1677 H 157.707 1.47039 -2.09316 0
M  V30 1678 H 157.351 3.13957 -3.99241 0
M  V30 1679 H 157.281 4.46049 -2.79907 0
M  V30 1680 H 159.772 2.96812 -2.33904 0
M  V30 1681 H 160.085 5.66284 -5.25873 0
M  V30 1682 H 158.43 5.09747 -4.72422 0
M  V30 1683 H 161.621 3.62383 -2.96304 0
M  V30 1684 H 161.794 4.85279 -4.29427 0
M  V30 1685 N 155.201 0.870884 1.31352 0
M  V30 1686 C 156.149 0.316445 2.30437 0
M  V30 1687 C 157.143 -0.568965 1.59559 0
M  V30 1688 O 158.349 -0.454964 1.74155 0
M  V30 1689 H 154.724 0.0836521 0.747333 0
M  V30 1690 H 156.695 1.16606 2.74673 0
M  V30 1691 C 155.444 -0.46635 3.44558 0
M  V30 1692 H 154.767 0.205687 3.99271 0
M  V30 1693 H 156.207 -0.819614 4.16003 0
M  V30 1694 C 154.666 -1.65797 2.9328 0
M  V30 1695 O 155.196 -2.75728 2.92125 0
M  V30 1696 N 153.402 -1.49041 2.4947 0
M  V30 1697 H 152.949 -0.59612 2.50608 0
M  V30 1698 H 152.907 -2.28911 2.15516 0
M  V30 1699 N 156.679 -1.44442 0.630414 0
M  V30 1700 C 157.626 -2.30678 -0.0749355 0
M  V30 1701 C 158.596 -1.4344 -0.837502 0
M  V30 1702 O 159.781 -1.72343 -0.818684 0
M  V30 1703 C 156.921 -3.28706 -1.05103 0
M  V30 1704 C 156.034 -4.31046 -0.286954 0
M  V30 1705 C 155.169 -5.16167 -1.2548 0
M  V30 1706 C 154.208 -6.10216 -0.479843 0
M  V30 1707 N 153.345 -6.88039 -1.39811 0
M  V30 1708 H 158.185 -2.90454 0.666386 0
M  V30 1709 H 155.722 -1.43107 0.340404 0
M  V30 1710 H 157.68 -3.84027 -1.63031 0
M  V30 1711 H 156.31 -2.70632 -1.75949 0
M  V30 1712 H 155.362 -3.78203 0.408243 0
M  V30 1713 H 156.674 -4.97794 0.316657 0
M  V30 1714 H 155.828 -5.76002 -1.90544 0
M  V30 1715 H 154.567 -4.49491 -1.89233 0
M  V30 1716 H 153.572 -5.49491 0.184295 0
M  V30 1717 H 154.797 -6.78928 0.152965 0
M  V30 1718 H 152.743 -6.24032 -2.02287 0
M  V30 1719 H 152.66 -7.51223 -0.848508 0
M  V30 1720 H 153.928 -7.52397 -2.03762 0
M  V30 1721 N 158.157 -0.370918 -1.53173 0
M  V30 1722 C 159.406 0.218249 -2.00516 0
M  V30 1723 C 159.719 1.49429 -1.26215 0
M  V30 1724 O 160.925 2.16239 -1.64174 0
M  V30 1725 C 159.381 0.43948 -3.57207 0
M  V30 1726 C 158.989 -0.822244 -4.4039 0
M  V30 1727 C 160.733 0.986012 -4.1289 0
M  V30 1728 C 158.64 -0.570304 -5.88644 0
M  V30 1729 H 157.57 0.0853333 -0.749156 0
M  V30 1730 H 160.221 -0.490483 -1.76823 0
M  V30 1731 H 158.603 1.20961 -3.77074 0
M  V30 1732 H 159.777 -1.59557 -4.32294 0
M  V30 1733 H 158.092 -1.29238 -3.95836 0
M  V30 1734 H 160.689 1.18991 -5.21292 0
M  V30 1735 H 161.032 1.94972 -3.6782 0
M  V30 1736 H 161.565 0.27592 -3.96842 0
M  V30 1737 H 158.304 -1.50449 -6.38001 0
M  V30 1738 H 157.824 0.164427 -5.99575 0
M  V30 1739 H 159.503 -0.19784 -6.46697 0
M  V30 1740 N 159.635 1.57281 -0.100228 0
M  V30 1741 C 160.565 2.17328 0.853857 0
M  V30 1742 C 161.546 1.10804 1.2906 0
M  V30 1743 O 162.731 1.38963 1.35657 0
M  V30 1744 C 159.861 2.75772 2.11109 0
M  V30 1745 C 158.815 3.87713 1.81279 0
M  V30 1746 C 158.141 4.32882 3.13874 0
M  V30 1747 C 159.441 5.10677 1.09574 0
M  V30 1748 H 161.135 2.97305 0.353545 0
M  V30 1749 H 158.681 1.43009 0.168612 0
M  V30 1750 H 160.634 3.16433 2.78296 0
M  V30 1751 H 159.358 1.93057 2.63432 0
M  V30 1752 H 158.017 3.476 1.16489 0
M  V30 1753 H 157.665 3.47051 3.64095 0
M  V30 1754 H 157.365 5.08358 2.94696 0
M  V30 1755 H 158.889 4.7618 3.82211 0
M  V30 1756 H 160.303 5.48474 1.66879 0
M  V30 1757 H 158.7 5.91615 1.00557 0
M  V30 1758 H 159.77 4.84835 0.0793299 0
M  V30 1759 N 161.113 -0.173488 1.56642 0
M  V30 1760 C 162.343 -0.904781 1.85734 0
M  V30 1761 C 162.751 -1.76431 0.68328 0
M  V30 1762 O 162.094 -1.802 -0.356865 0
M  V30 1763 C 162.156 -1.83382 3.09211 0
M  V30 1764 C 161.82 -1.15411 4.42187 0
M  V30 1765 C 162.817 -0.520609 5.17287 0
M  V30 1766 C 160.502 -1.15151 4.88923 0
M  V30 1767 C 162.496 0.106412 6.37311 0
M  V30 1768 C 160.183 -0.520664 6.08878 0
M  V30 1769 C 161.181 0.107196 6.82916 0
M  V30 1770 O 160.869 0.728102 8.00596 0
M  V30 1771 H 160.601 -0.268408 0.62043 0
M  V30 1772 H 163.155 -0.179096 2.04618 0
M  V30 1773 H 161.385 -2.59976 2.86268 0
M  V30 1774 H 163.074 -2.43476 3.24768 0
M  V30 1775 H 163.84 -0.514606 4.82262 0
M  V30 1776 H 159.719 -1.62961 4.31236 0
M  V30 1777 H 163.263 0.597081 6.9504 0
M  V30 1778 H 159.16 -0.524242 6.43368 0
M  V30 1779 H 159.928 0.627138 8.16094 0
M  V30 1780 N 162.591 -1.51276 -0.441967 0
M  V30 1781 C 163.521 -1.752 -1.54361 0
M  V30 1782 C 164.502 -0.601682 -1.59103 0
M  V30 1783 O 165.687 -0.843913 -1.74905 0
M  V30 1784 C 162.817 -1.87282 -2.92477 0
M  V30 1785 C 161.771 -3.02687 -3.02596 0
M  V30 1786 C 161.097 -2.99947 -4.42647 0
M  V30 1787 C 162.397 -4.4273 -2.77106 0
M  V30 1788 H 164.091 -2.67442 -1.34592 0
M  V30 1789 H 161.637 -1.28694 -0.646048 0
M  V30 1790 H 163.59 -2.02602 -3.695 0
M  V30 1791 H 162.314 -0.916844 -3.13467 0
M  V30 1792 H 160.973 -2.87065 -2.28012 0
M  V30 1793 H 160.621 -2.02136 -4.60597 0
M  V30 1794 H 160.321 -3.77439 -4.50348 0
M  V30 1795 H 161.845 -3.17354 -5.2165 0
M  V30 1796 H 163.259 -4.58727 -3.43864 0
M  V30 1797 H 161.656 -5.21893 -2.96222 0
M  V30 1798 H 162.726 -4.53087 -1.72744 0
M  V30 1799 N 164.069 0.697108 -1.41344 0
M  V30 1800 C 165.318 1.45279 -1.39918 0
M  V30 1801 C 165.631 1.95597 -0.0109624 0
M  V30 1802 O 166.837 2.71208 0.125919 0
M  V30 1803 C 165.293 2.62695 -2.46007 0
M  V30 1804 C 164.901 2.19169 -3.90729 0
M  V30 1805 C 166.645 3.40336 -2.53715 0
M  V30 1806 C 164.552 3.33535 -4.88373 0
M  V30 1807 H 163.482 0.545692 -0.520323 0
M  V30 1808 H 166.133 0.756929 -1.67161 0
M  V30 1809 H 164.515 3.34541 -2.11892 0
M  V30 1810 H 165.689 1.54623 -4.34083 0
M  V30 1811 H 164.004 1.54525 -3.86666 0
M  V30 1812 H 166.601 4.2547 -3.2385 0
M  V30 1813 H 166.944 3.85418 -1.5735 0
M  V30 1814 H 167.477 2.75546 -2.86913 0
M  V30 1815 H 164.216 2.93468 -5.86137 0
M  V30 1816 H 163.736 3.96936 -4.49668 0
M  V30 1817 H 165.415 3.99335 -5.09059 0
M  V30 1818 N 165.547 1.27147 0.931209 0
M  V30 1819 C 166.479 1.05364 2.03546 0
M  V30 1820 C 167.492 0.0108438 1.62796 0
M  V30 1821 O 168.681 0.25202 1.76712 0
M  V30 1822 C 165.781 0.575566 3.33977 0
M  V30 1823 C 164.954 1.68985 4.03439 0
M  V30 1824 C 164.013 1.20813 5.12143 0
M  V30 1825 O 163.039 1.90712 5.363 0
M  V30 1826 N 164.241 0.0618851 5.80467 0
M  V30 1827 H 167.006 2.00454 2.22796 0
M  V30 1828 H 164.567 1.18666 1.10136 0
M  V30 1829 H 166.559 0.237264 4.04004 0
M  V30 1830 H 165.129 -0.282016 3.11325 0
M  V30 1831 H 164.349 2.19861 3.27192 0
M  V30 1832 H 165.637 2.4378 4.46597 0
M  V30 1833 H 165.035 -0.521621 5.6329 0
M  V30 1834 H 163.592 -0.217264 6.51438 0
M  V30 1835 N 167.025 -1.13721 1.09112 0
M  V30 1836 C 167.988 -2.17222 0.731241 0
M  V30 1837 C 168.988 -1.59035 -0.237566 0
M  V30 1838 O 170.178 -1.74192 -0.0161704 0
M  V30 1839 C 167.31 -3.40804 0.0808443 0
M  V30 1840 H 168.503 -2.50573 1.64783 0
M  V30 1841 H 166.056 -1.28493 0.889897 0
M  V30 1842 H 166.791 -3.1304 -0.847127 0
M  V30 1843 H 166.576 -3.84306 0.777896 0
M  V30 1844 H 168.066 -4.1731 -0.155657 0
M  V30 1845 N 168.503 -0.877838 -1.30888 0
M  V30 1846 C 169.749 -0.502773 -1.97088 0
M  V30 1847 C 170.104 0.936274 -1.68082 0
M  V30 1848 O 169.397 1.65162 -0.971196 0
M  V30 1849 C 169.591 -0.705748 -3.50363 0
M  V30 1850 C 169.42 -2.16297 -3.94266 0
M  V30 1851 C 168.19 -2.80614 -4.20219 0
M  V30 1852 C 170.388 -3.13606 -4.07622 0
M  V30 1853 N 168.37 -4.17007 -4.50532 0
M  V30 1854 C 169.741 -4.35051 -4.41736 0
M  V30 1855 C 171.796 -3.09491 -3.90026 0
M  V30 1856 C 170.499 -5.52911 -4.60089 0
M  V30 1857 C 172.525 -4.26616 -4.09576 0
M  V30 1858 C 171.887 -5.46825 -4.44029 0
M  V30 1859 H 167.986 -0.233168 -0.746429 0
M  V30 1860 H 170.57 -1.13408 -1.58261 0
M  V30 1861 H 168.741 -0.103976 -3.88261 0
M  V30 1862 H 170.473 -0.298291 -4.03599 0
M  V30 1863 H 167.228 -2.3152 -4.13153 0
M  V30 1864 H 167.652 -4.87426 -4.69834 0
M  V30 1865 H 172.294 -2.17657 -3.62471 0
M  V30 1866 H 170.012 -6.45255 -4.86489 0
M  V30 1867 H 173.598 -4.24894 -3.97438 0
M  V30 1868 H 172.478 -6.35947 -4.58848 0
M  V30 1869 N 169.982 1.44106 -0.638065 0
M  V30 1870 C 170.945 2.29138 0.0531013 0
M  V30 1871 C 171.945 1.41409 0.765506 0
M  V30 1872 O 173.135 1.63206 0.609046 0
M  V30 1873 C 170.267 3.23144 1.08584 0
M  V30 1874 H 171.46 2.91739 -0.694883 0
M  V30 1875 H 169.013 1.51134 -0.398538 0
M  V30 1876 H 169.748 2.65408 1.86357 0
M  V30 1877 H 169.533 3.87804 0.578852 0
M  V30 1878 H 171.023 3.87004 1.56899 0
M  V30 1879 N 171.46 0.379036 1.52974 0
M  V30 1880 C 172.41 -0.477772 2.22938 0
M  V30 1881 C 173.394 -1.03792 1.22948 0
M  V30 1882 O 174.586 -0.965725 1.48333 0
M  V30 1883 C 171.715 -1.60994 3.03209 0
M  V30 1884 C 170.801 -1.06203 4.10587 0
M  V30 1885 N 171.192 -0.238214 5.05239 0
M  V30 1886 C 169.49 -1.33554 4.25534 0
M  V30 1887 C 170.191 0.0633235 5.81666 0
M  V30 1888 N 169.167 -0.537901 5.40932 0
M  V30 1889 H 172.969 0.158295 2.93473 0
M  V30 1890 H 170.483 0.187778 1.61311 0
M  V30 1891 H 172.48 -2.23607 3.5186 0
M  V30 1892 H 171.14 -2.24893 2.34207 0
M  V30 1893 H 172.151 0.123695 5.17752 0
M  V30 1894 H 168.828 -1.97632 3.6776 0
M  V30 1895 H 170.218 0.730161 6.67921 0
M  V30 1896 N 172.938 -1.57226 0.108567 0
M  V30 1897 C 173.901 -2.13602 -0.831082 0
M  V30 1898 C 174.901 -1.06841 -1.20173 0
M  V30 1899 O 176.091 -1.32666 -1.12895 0
M  V30 1900 C 173.223 -2.66769 -2.12243 0
M  V30 1901 H 174.416 -2.97951 -0.341317 0
M  V30 1902 H 171.969 -1.55667 -0.14057 0
M  V30 1903 H 172.704 -1.85977 -2.65675 0
M  V30 1904 H 172.489 -3.44839 -1.86625 0
M  V30 1905 H 173.979 -3.10332 -2.79435 0
M  V30 1906 N 174.416 0.165178 -1.56732 0
M  V30 1907 C 175.663 0.880807 -1.8234 0
M  V30 1908 C 175.991 1.81977 -0.686621 0
M  V30 1909 O 175.246 1.92971 0.325697 0
M  V30 1910 C 175.545 1.70405 -3.1416 0
M  V30 1911 C 175.211 0.913475 -4.4155 0
M  V30 1912 C 173.873 0.695303 -4.7615 0
M  V30 1913 C 176.225 0.359349 -5.1996 0
M  V30 1914 C 173.553 -0.0879947 -5.86634 0
M  V30 1915 C 175.905 -0.410893 -6.31264 0
M  V30 1916 C 174.569 -0.639808 -6.64427 0
M  V30 1917 H 173.839 0.32231 -0.667231 0
M  V30 1918 H 176.486 0.145402 -1.90947 0
M  V30 1919 H 174.791 2.50903 -3.00923 0
M  V30 1920 H 176.488 2.26091 -3.31186 0
M  V30 1921 H 173.078 1.09357 -4.14414 0
M  V30 1922 H 177.262 0.515228 -4.93618 0
M  V30 1923 H 172.518 -0.27503 -6.10781 0
M  V30 1924 H 176.692 -0.847494 -6.91224 0
M  V30 1925 H 174.319 -1.24864 -7.49875 0
M  V30 1926 N 175.894 1.51508 0.433938 0
M  V30 1927 C 177.31 1.39759 0.770682 0
M  V30 1928 C 177.51 0.482594 1.95636 0
M  V30 1929 O 176.566 -0.0609691 2.52426 0
M  V30 1930 C 177.879 2.81851 1.04787 0
M  V30 1931 C 179.427 2.91025 1.1521 0
M  V30 1932 C 179.902 4.34032 1.46219 0
M  V30 1933 N 181.393 4.37154 1.53136 0
M  V30 1934 C 182.128 5.4484 1.78709 0
M  V30 1935 N 181.624 6.62682 2.02051 0
M  V30 1936 N 183.417 5.32324 1.80519 0
M  V30 1937 H 175.568 2.09548 -0.346892 0
M  V30 1938 H 177.831 0.943446 -0.0928074 0
M  V30 1939 H 177.537 3.50815 0.249304 0
M  V30 1940 H 177.411 3.21386 1.97461 0
M  V30 1941 H 179.798 2.22257 1.94128 0
M  V30 1942 H 179.879 2.54983 0.204281 0
M  V30 1943 H 179.523 5.03351 0.678274 0
M  V30 1944 H 179.453 4.6759 2.42212 0
M  V30 1945 H 181.944 3.52197 1.36987 0
M  V30 1946 H 182.257 7.40543 2.20943 0
M  V30 1947 H 180.602 6.65791 1.99366 0
M  V30 1948 H 183.793 4.39246 1.61805 0
M  V30 1949 H 183.966 6.16328 2.00111 0
M  V30 1950 N 177.372 -0.689602 1.41712 0
M  V30 1951 C 178.32 -1.82475 1.44242 0
M  V30 1952 C 179.314 -1.66354 0.319774 0
M  V30 1953 O 180.52 -1.73143 0.492089 0
M  V30 1954 H 176.895 -0.601416 0.451445 0
M  V30 1955 H 178.866 -1.77458 2.39899 0
M  V30 1956 C 177.615 -3.20535 1.3473 0
M  V30 1957 H 176.938 -3.33559 2.20405 0
M  V30 1958 H 178.378 -4.00023 1.40562 0
M  V30 1959 C 176.837 -3.36846 0.0603281 0
M  V30 1960 O 177.367 -3.91656 -0.892663 0
M  V30 1961 N 175.573 -2.90595 -0.0177039 0
M  V30 1962 H 175.12 -2.46178 0.758572 0
M  V30 1963 H 175.078 -3.01886 -0.878201 0
M  V30 1964 N 178.85 -1.27639 -0.924453 0
M  V30 1965 C 179.76 -1.12466 -2.05885 0
M  V30 1966 C 180.776 -0.053869 -1.73917 0
M  V30 1967 O 181.952 -0.261012 -1.99702 0
M  V30 1968 C 179.017 -0.776768 -3.37886 0
M  V30 1969 C 178.078 -1.92878 -3.83532 0
M  V30 1970 C 177.311 -1.59739 -5.09234 0
M  V30 1971 O 177.534 -0.506782 -5.68144 0
M  V30 1972 O 176.468 -2.43761 -5.50331 0
M  V30 1973 H 180.294 -2.07671 -2.21599 0
M  V30 1974 H 177.879 -1.06857 -1.04413 0
M  V30 1975 H 179.761 -0.596229 -4.17161 0
M  V30 1976 H 178.436 0.145732 -3.23372 0
M  V30 1977 H 177.343 -2.1644 -3.0513 0
M  V30 1978 H 178.676 -2.8316 -4.02593 0
M  V30 1979 N 180.328 1.1314 -1.09713 0
M  V30 1980 C 181.739 1.66029 -0.853885 0
M  V30 1981 C 182.09 1.86241 0.617142 0
M  V30 1982 O 181.215 1.5834 1.47503 0
M  V30 1983 C 181.81 3.01599 -1.5435 0
M  V30 1984 C 180.369 3.51467 -1.34714 0
M  V30 1985 C 179.516 2.26648 -1.59769 0
M  V30 1986 H 182.467 0.970226 -1.25588 0
M  V30 1987 H 182.488 3.67709 -0.978267 0
M  V30 1988 H 182 2.86856 -2.6141 0
M  V30 1989 H 180.101 3.71408 -0.297838 0
M  V30 1990 H 180.214 4.314 -2.08401 0
M  V30 1991 H 178.578 2.33385 -1.01998 0
M  V30 1992 H 179.361 2.14467 -2.68065 0
M  V30 1993 N 181.806 0.884767 1.30421 0
M  V30 1994 C 182.753 0.349642 2.28136 0
M  V30 1995 C 183.723 -0.560061 1.56373 0
M  V30 1996 O 184.908 -0.488524 1.8444 0
M  V30 1997 C 182.048 -0.42999 3.42411 0
M  V30 1998 C 181.161 0.508907 4.28992 0
M  V30 1999 C 180.296 -0.286301 5.30428 0
M  V30 2000 C 179.335 0.648079 6.08659 0
M  V30 2001 N 178.472 -0.111792 7.02011 0
M  V30 2002 H 183.312 1.18807 2.73293 0
M  V30 2003 H 180.849 0.597231 1.3443 0
M  V30 2004 H 182.807 -0.897923 4.07423 0
M  V30 2005 H 181.437 -1.23299 2.98324 0
M  V30 2006 H 180.489 1.09533 3.64289 0
M  V30 2007 H 181.801 1.22475 4.8353 0
M  V30 2008 H 180.955 -0.816098 6.01186 0
M  V30 2009 H 179.694 -1.03536 4.76583 0
M  V30 2010 H 178.699 1.18951 5.36778 0
M  V30 2011 H 179.924 1.39623 6.64592 0
M  V30 2012 H 177.87 -0.843395 6.50556 0
M  V30 2013 H 177.787 0.544429 7.54037 0
M  V30 2014 H 179.055 -0.622339 7.77012 0
M  V30 2015 N 183.284 -1.43765 0.645699 0
M  V30 2016 C 184.514 -2.05953 0.163318 0
M  V30 2017 C 184.922 -1.48432 -1.17322 0
M  V30 2018 O 184.265 -0.607295 -1.73371 0
M  V30 2019 C 184.327 -3.59499 -0.0103065 0
M  V30 2020 C 183.991 -4.39563 1.25035 0
M  V30 2021 C 184.988 -4.72108 2.17739 0
M  V30 2022 C 182.673 -4.79697 1.48983 0
M  V30 2023 C 184.667 -5.43688 3.3269 0
M  V30 2024 C 182.354 -5.51023 2.64229 0
M  V30 2025 C 183.352 -5.8294 3.55908 0
M  V30 2026 O 183.04 -6.5281 4.69142 0
M  V30 2027 H 182.772 -0.670798 0.0836986 0
M  V30 2028 H 185.326 -1.85384 0.884407 0
M  V30 2029 H 183.556 -3.78613 -0.78669 0
M  V30 2030 H 185.245 -4.03408 -0.449087 0
M  V30 2031 H 186.011 -4.41627 2.00476 0
M  V30 2032 H 181.89 -4.54266 0.785078 0
M  V30 2033 H 185.434 -5.68517 4.04269 0
M  V30 2034 H 181.331 -5.8092 2.81429 0
M  V30 2035 H 182.099 -6.71288 4.6831 0
M  V30 2036 N 184.763 -0.387143 -1.52771 0
M  V30 2037 C 185.71 0.449048 -2.26389 0
M  V30 2038 C 186.68 1.05961 -1.27912 0
M  V30 2039 O 187.865 1.08804 -1.56737 0
M  V30 2040 C 185.005 1.57155 -3.0724 0
M  V30 2041 C 184.118 0.984066 -4.20643 0
M  V30 2042 C 183.253 2.07745 -4.88892 0
M  V30 2043 C 182.292 1.46574 -5.94292 0
M  V30 2044 N 181.429 2.49834 -6.56146 0
M  V30 2045 H 186.269 -0.185205 -2.97424 0
M  V30 2046 H 183.806 -0.103164 -1.46738 0
M  V30 2047 H 185.764 2.23309 -3.52405 0
M  V30 2048 H 184.394 2.17615 -2.38419 0
M  V30 2049 H 183.446 0.212193 -3.79808 0
M  V30 2050 H 184.758 0.497029 -4.96318 0
M  V30 2051 H 183.912 2.81673 -5.3735 0
M  V30 2052 H 182.651 2.59807 -4.12737 0
M  V30 2053 H 181.656 0.711696 -5.45174 0
M  V30 2054 H 182.881 0.953088 -6.72379 0
M  V30 2055 H 180.827 3.0107 -5.82832 0
M  V30 2056 H 180.744 2.05879 -7.27427 0
M  V30 2057 H 182.012 3.23399 -7.09249 0
M  V30 2058 N 186.241 1.57166 -0.116904 0
M  V30 2059 C 187.487 1.95412 0.542405 0
M  V30 2060 C 187.82 1.00019 1.66463 0
M  V30 2061 O 187.095 0.0370346 1.94465 0
M  V30 2062 C 187.378 3.43615 1.07708 0
M  V30 2063 C 187.231 4.49781 -0.0415868 0
M  V30 2064 C 188.55 3.93616 1.96861 0
M  V30 2065 H 185.669 0.710543 0.195696 0
M  V30 2066 H 188.311 1.89027 -0.192038 0
M  V30 2067 H 186.461 3.49187 1.70296 0
M  V30 2068 H 188.133 4.56308 -0.676793 0
M  V30 2069 H 186.376 4.28033 -0.705019 0
M  V30 2070 H 187.047 5.50733 0.373717 0
M  V30 2071 H 189.523 3.90335 1.44146 0
M  V30 2072 H 188.399 4.97838 2.3119 0
M  V30 2073 H 188.66 3.34188 2.89432 0
M  V30 2074 N 187.719 -0.156864 1.56817 0
M  V30 2075 C 188.965 -0.872416 1.83076 0
M  V30 2076 C 189.298 -1.81261 0.697001 0
M  V30 2077 O 188.573 -1.92171 -0.30008 0
M  V30 2078 C 188.856 -1.65551 3.19789 0
M  V30 2079 C 188.709 -0.737467 4.43713 0
M  V30 2080 C 190.028 -2.62012 3.53606 0
M  V30 2081 H 187.147 -0.315715 0.665953 0
M  V30 2082 H 189.789 -0.138004 1.89498 0
M  V30 2083 H 187.939 -2.28159 3.14445 0
M  V30 2084 H 189.611 -0.123143 4.61136 0
M  V30 2085 H 187.854 -0.0464067 4.33775 0
M  V30 2086 H 188.525 -1.32122 5.35955 0
M  V30 2087 H 191.001 -2.09525 3.59497 0
M  V30 2088 H 189.877 -3.13861 4.50314 0
M  V30 2089 H 190.138 -3.42902 2.79053 0
M  V30 2090 N 189.197 -1.51736 -0.425897 0
M  V30 2091 C 190.129 -1.70083 -1.53638 0
M  V30 2092 C 191.142 -0.581349 -1.52066 0
M  V30 2093 O 192.331 -0.856017 -1.56635 0
M  V30 2094 C 189.431 -1.71078 -2.9255 0
M  V30 2095 C 188.604 -2.99795 -3.185 0
M  V30 2096 C 187.663 -2.92825 -4.37196 0
M  V30 2097 O 186.689 -3.66756 -4.35291 0
M  V30 2098 N 187.891 -2.0946 -5.41393 0
M  V30 2099 H 190.656 -2.65882 -1.383 0
M  V30 2100 H 188.217 -1.49765 -0.614988 0
M  V30 2101 H 190.209 -1.63969 -3.69995 0
M  V30 2102 H 188.779 -0.828242 -3.01428 0
M  V30 2103 H 187.999 -3.20684 -2.2925 0
M  V30 2104 H 189.287 -3.84977 -3.32671 0
M  V30 2105 H 188.685 -1.48792 -5.45781 0
M  V30 2106 H 187.242 -2.08221 -6.17647 0
M  V30 2107 N 190.675 0.682077 -1.42076 0
M  V30 2108 C 191.952 1.43755 -1.32642 0
M  V30 2109 C 192.332 2.11063 0.0396611 0
M  V30 2110 O 191.68 2.02701 1.05474 0
M  V30 2111 C 191.89 2.44596 -2.48946 0
M  V30 2112 C 193.238 3.09454 -2.9073 0
M  V30 2113 O 194.262 2.54922 -2.48783 0
M  V30 2114 O 193.121 4.08253 -3.63307 0
M  V30 2115 H 190.215 0.640857 -0.522715 0
M  V30 2116 H 192.761 0.711415 -1.54068 0
M  V30 2117 H 191.533 1.93609 -3.40046 0
M  V30 2118 H 191.156 3.24701 -2.29467 0
M  V30 2119 N 192.153 1.28127 0.917671 0
M  V30 2120 C 193.381 1.17892 1.70026 0
M  V30 2121 C 193.796 -0.262958 1.8696 0
M  V30 2122 O 193.153 -1.17811 1.3938 0
M  V30 2123 C 193.204 1.86872 3.09453 0
M  V30 2124 O 192.925 3.25428 2.93306 0
M  V30 2125 C 194.426 1.8289 4.03815 0
M  V30 2126 H 191.646 0.40942 0.531617 0
M  V30 2127 H 194.19 1.69181 1.14883 0
M  V30 2128 H 192.345 1.39464 3.61426 0
M  V30 2129 H 192.759 3.59918 3.81523 0
M  V30 2130 H 194.233 2.35751 4.99125 0
M  V30 2131 H 194.71 0.800412 4.31845 0
M  V30 2132 H 195.316 2.29959 3.57769 0
M  V30 2133 N 193.631 -1.12557 1.10312 0
M  V30 2134 C 194.861 -1.87592 0.865617 0
M  V30 2135 C 195.269 -1.79851 -0.587389 0
M  V30 2136 O 194.612 -1.16949 -1.41664 0
M  V30 2137 C 194.674 -3.37665 1.23381 0
M  V30 2138 C 194.338 -3.69181 2.69359 0
M  V30 2139 C 195.335 -3.67652 3.67597 0
M  V30 2140 C 193.02 -3.98555 3.05711 0
M  V30 2141 C 195.014 -3.95053 5.00212 0
M  V30 2142 C 192.701 -4.25616 4.38514 0
M  V30 2143 C 193.699 -4.23851 5.35574 0
M  V30 2144 O 193.387 -4.50242 6.65986 0
M  V30 2145 H 193.119 -0.600442 0.310557 0
M  V30 2146 H 195.673 -1.4335 1.47105 0
M  V30 2147 H 193.903 -3.82454 0.571467 0
M  V30 2148 H 195.592 -3.94041 0.973994 0
M  V30 2149 H 196.358 -3.45024 3.40857 0
M  V30 2150 H 192.237 -3.99071 2.30789 0
M  V30 2151 H 195.781 -3.93591 5.75962 0
M  V30 2152 H 191.678 -4.47718 4.64994 0
M  V30 2153 H 192.446 -4.67867 6.71597 0
M  V30 2154 N 195.109 -0.891671 -1.2995 0
M  V30 2155 C 196.041 -0.320695 -2.26945 0
M  V30 2156 C 197.054 0.528497 -1.53983 0
M  V30 2157 O 198.243 0.346959 -1.75096 0
M  V30 2158 C 195.343 0.562066 -3.34207 0
M  V30 2159 C 194.516 -0.259576 -4.36629 0
M  V30 2160 C 193.575 0.554739 -5.23268 0
M  V30 2161 O 192.601 -0.0249311 -5.69195 0
M  V30 2162 N 193.803 1.8625 -5.4981 0
M  V30 2163 H 196.568 -1.15432 -2.76578 0
M  V30 2164 H 194.129 -0.755336 -1.432 0
M  V30 2165 H 196.121 1.11304 -3.89093 0
M  V30 2166 H 194.691 1.29637 -2.84452 0
M  V30 2167 H 193.911 -0.991986 -3.81514 0
M  V30 2168 H 195.199 -0.822564 -5.02107 0
M  V30 2169 H 194.597 2.35628 -5.14292 0
M  V30 2170 H 193.154 2.36078 -6.07545 0
M  V30 2171 N 196.587 1.43421 -0.653314 0
M  V30 2172 C 197.836 2.01032 -0.164076 0
M  V30 2173 C 198.149 1.52147 1.22926 0
M  V30 2174 O 199.355 2.02031 1.81371 0
M  V30 2175 C 197.811 3.59082 -0.24252 0
M  V30 2176 C 197.419 4.1696 -1.63855 0
M  V30 2177 C 199.163 4.24079 0.18911 0
M  V30 2178 C 197.07 5.67304 -1.67092 0
M  V30 2179 H 196 0.751798 -0.0575769 0
M  V30 2180 H 198.651 1.6439 -0.815362 0
M  V30 2181 H 197.033 3.93125 0.476276 0
M  V30 2182 H 198.207 3.94416 -2.38271 0
M  V30 2183 H 196.522 3.64335 -2.01616 0
M  V30 2184 H 199.119 5.34381 0.184775 0
M  V30 2185 H 199.462 3.98005 1.22056 0
M  V30 2186 H 199.995 3.94918 -0.477938 0
M  V30 2187 H 196.734 5.98145 -2.68146 0
M  V30 2188 H 196.254 5.91904 -0.970014 0
M  V30 2189 H 197.933 6.31344 -1.4147 0
M  V30 2190 N 198.065 0.39524 1.52563 0
M  V30 2191 C 198.998 -0.4813 2.23067 0
M  V30 2192 C 199.976 -1.05927 1.23362 0
M  V30 2193 O 201.16 -1.10979 1.52368 0
M  V30 2194 C 198.287 -1.66676 2.9485 0
M  V30 2195 C 197.333 -1.21348 4.08873 0
M  V30 2196 S 198.166 -0.190102 5.35162 0
M  V30 2197 C 199.322 -1.38121 6.1047 0
M  V30 2198 H 199.555 0.117381 2.97068 0
M  V30 2199 H 197.088 0.179458 1.53354 0
M  V30 2200 H 199.046 -2.3466 3.36816 0
M  V30 2201 H 197.707 -2.23676 2.20518 0
M  V30 2202 H 196.9 -2.09877 4.58222 0
M  V30 2203 H 196.502 -0.612486 3.68951 0
M  V30 2204 H 198.794 -2.30726 6.37002 0
M  V30 2205 H 199.737 -0.928521 7.01986 0
M  V30 2206 H 200.145 -1.60071 5.41329 0
M  V30 2207 N 199.544 -1.57102 0.125237 0
M  V30 2208 C 200.491 -2.15641 -0.822655 0
M  V30 2209 C 201.461 -1.08313 -1.25927 0
M  V30 2210 O 202.646 -1.36251 -1.33567 0
M  V30 2211 C 199.786 -2.76504 -2.06494 0
M  V30 2212 C 198.899 -3.98158 -1.67612 0
M  V30 2213 C 198.034 -4.47088 -2.86854 0
M  V30 2214 C 197.073 -5.6126 -2.44242 0
M  V30 2215 N 196.21 -6.04905 -3.56419 0
M  V30 2216 H 201.05 -2.96313 -0.316625 0
M  V30 2217 H 198.587 -1.46388 -0.144588 0
M  V30 2218 H 200.545 -3.09925 -2.79289 0
M  V30 2219 H 199.175 -1.98512 -2.54545 0
M  V30 2220 H 198.227 -3.70858 -0.846661 0
M  V30 2221 H 199.539 -4.80934 -1.32301 0
M  V30 2222 H 198.693 -4.82451 -3.67867 0
M  V30 2223 H 197.432 -3.63275 -3.25396 0
M  V30 2224 H 196.437 -5.25495 -1.61663 0
M  V30 2225 H 197.662 -6.46843 -2.0681 0
M  V30 2226 H 195.608 -5.24032 -3.94623 0
M  V30 2227 H 195.525 -6.82552 -3.25051 0
M  V30 2228 H 196.793 -6.44907 -4.37853 0
M  V30 2229 N 201.022 0.148545 -1.56898 0
M  V30 2230 C 202.268 0.862694 -1.83536 0
M  V30 2231 C 202.601 1.80889 -0.706604 0
M  V30 2232 O 201.876 1.92328 0.289885 0
M  V30 2233 C 202.159 1.63853 -3.20662 0
M  V30 2234 C 202.012 0.713925 -4.44098 0
M  V30 2235 C 203.331 2.60133 -3.54991 0
M  V30 2236 H 200.45 0.312179 -0.667618 0
M  V30 2237 H 203.092 0.127953 -1.89569 0
M  V30 2238 H 201.242 2.26489 -3.1565 0
M  V30 2239 H 202.914 0.098686 -4.61194 0
M  V30 2240 H 201.157 0.0234019 -4.33794 0
M  V30 2241 H 201.828 1.29278 -5.36648 0
M  V30 2242 H 204.304 2.07616 -3.60603 0
M  V30 2243 H 203.18 3.11468 -4.51972 0
M  V30 2244 H 203.441 3.41417 -2.80868 0
M  V30 2245 N 202.5 1.5196 0.417844 0
M  V30 2246 C 203.41 1.77554 1.53336 0
M  V30 2247 C 204.426 0.660655 1.6097 0
M  V30 2248 O 205.602 0.945099 1.77848 0
M  V30 2249 C 202.667 1.91291 2.89152 0
M  V30 2250 C 201.728 3.15183 2.91475 0
M  V30 2251 C 200.961 3.28256 4.20813 0
M  V30 2252 O 201.184 2.46798 5.14244 0
M  V30 2253 O 200.118 4.21356 4.29817 0
M  V30 2254 H 203.944 2.7222 1.34647 0
M  V30 2255 H 201.529 1.36698 0.602828 0
M  V30 2256 H 203.411 2.02199 3.69721 0
M  V30 2257 H 202.086 0.998129 3.07927 0
M  V30 2258 H 200.993 3.09739 2.09791 0
M  V30 2259 H 202.326 4.06414 2.77648 0
M  V30 2260 N 203.978 -0.674533 1.42435 0
M  V30 2261 C 205.226 -1.43175 1.42637 0
M  V30 2262 C 205.547 -1.94951 0.0438992 0
M  V30 2263 O 204.817 -1.7308 -0.917607 0
M  V30 2264 H 203.397 -0.531307 0.525092 0
M  V30 2265 H 206.059 -0.797006 1.77859 0
M  V30 2266 H 205.155 -2.28463 2.12629 0
M  V30 2267 N 205.456 -1.28612 -0.910864 0
M  V30 2268 C 206.406 -1.09423 -2.00026 0
M  V30 2269 C 207.39 -0.0170079 -1.60891 0
M  V30 2270 O 208.582 -0.237472 -1.754 0
M  V30 2271 C 205.711 -0.76114 -3.34756 0
M  V30 2272 C 204.797 -1.87735 -3.80285 0
M  V30 2273 N 205.188 -3.11938 -3.98156 0
M  V30 2274 C 203.486 -1.76786 -4.09467 0
M  V30 2275 C 204.187 -3.84687 -4.36338 0
M  V30 2276 N 203.163 -3.12555 -4.44759 0
M  V30 2277 H 206.965 -2.03658 -2.11898 0
M  V30 2278 H 204.479 -1.19573 -1.09891 0
M  V30 2279 H 206.476 -0.604743 -4.12491 0
M  V30 2280 H 205.136 0.173403 -3.24237 0
M  V30 2281 H 206.147 -3.47516 -3.83996 0
M  V30 2282 H 202.824 -0.905284 -4.07567 0
M  V30 2283 H 204.214 -4.91518 -4.58104 0
M  V30 2284 N 206.934 1.1197 -1.10907 0
M  V30 2285 C 208.18 1.8386 -0.855773 0
M  V30 2286 C 208.513 1.84134 0.617103 0
M  V30 2287 O 207.788 1.29041 1.45529 0
M  V30 2288 C 208.071 3.31305 -1.411 0
M  V30 2289 C 207.924 3.39456 -2.9511 0
M  V30 2290 C 209.243 4.2721 -1.05736 0
M  V30 2291 H 206.362 0.667545 -0.312334 0
M  V30 2292 H 209.004 1.31331 -1.37303 0
M  V30 2293 H 207.154 3.76169 -0.97105 0
M  V30 2294 H 208.826 3.03191 -3.47668 0
M  V30 2295 H 207.069 2.79849 -3.31462 0
M  V30 2296 H 207.74 4.43209 -3.29044 0
M  V30 2297 H 210.216 3.90497 -1.43706 0
M  V30 2298 H 209.092 5.28775 -1.47269 0
M  V30 2299 H 209.353 4.42088 0.0325958 0
M  V30 2300 N 208.412 0.89855 1.29475 0
M  V30 2301 C 209.659 0.523882 1.95606 0
M  V30 2302 C 209.987 -0.929608 1.70847 0
M  V30 2303 O 209.242 -1.67401 1.01367 0
M  V30 2304 C 209.541 0.761398 3.49195 0
M  V30 2305 C 209.207 2.19207 3.94029 0
M  V30 2306 C 207.869 2.58326 4.05982 0
M  V30 2307 C 210.221 3.12379 4.17216 0
M  V30 2308 C 207.549 3.898 4.38489 0
M  V30 2309 C 209.901 4.43401 4.51197 0
M  V30 2310 C 208.565 4.82394 4.61359 0
M  V30 2311 H 207.835 0.191702 0.715773 0
M  V30 2312 H 210.482 1.13699 1.54094 0
M  V30 2313 H 208.787 0.0653622 3.91745 0
M  V30 2314 H 210.484 0.450904 3.98457 0
M  V30 2315 H 207.074 1.87846 3.85242 0
M  V30 2316 H 211.258 2.83371 4.07449 0
M  V30 2317 H 206.514 4.19734 4.44559 0
M  V30 2318 H 210.688 5.15623 4.68087 0
M  V30 2319 H 208.315 5.84306 4.86303 0
M  V30 2320 N 209.89 -1.43072 0.660911 0
M  V30 2321 C 211.301 -1.84932 0.256348 0
M  V30 2322 C 211.652 -1.55325 -1.19868 0
M  V30 2323 O 210.777 -1.00607 -1.91591 0
M  V30 2324 C 211.372 -3.35684 0.458475 0
M  V30 2325 C 209.931 -3.76245 0.108161 0
M  V30 2326 C 209.078 -2.66749 0.757641 0
M  V30 2327 H 212.029 -1.33116 0.864051 0
M  V30 2328 H 212.05 -3.79365 -0.293683 0
M  V30 2329 H 211.562 -3.572 1.51755 0
M  V30 2330 H 209.663 -3.60338 -0.948014 0
M  V30 2331 H 209.776 -4.76058 0.538992 0
M  V30 2332 H 208.14 -2.53989 0.190185 0
M  V30 2333 H 208.923 -2.91092 1.81989 0
M  V30 2334 N 211.368 -0.403325 -1.52352 0
M  V30 2335 C 212.278 0.432009 -2.30588 0
M  V30 2336 C 213.294 1.05884 -1.38075 0
M  V30 2337 O 214.47 1.06161 -1.71148 0
M  V30 2338 C 211.535 1.53669 -3.10784 0
M  V30 2339 C 210.596 0.933525 -4.19027 0
M  V30 2340 C 209.829 1.98557 -4.9539 0
M  V30 2341 O 210.052 3.20283 -4.71991 0
M  V30 2342 O 208.986 1.59504 -5.80381 0
M  V30 2343 H 212.812 -0.205739 -3.03002 0
M  V30 2344 H 210.397 -0.166675 -1.48467 0
M  V30 2345 H 212.279 2.17814 -3.60742 0
M  V30 2346 H 210.954 2.15915 -2.41169 0
M  V30 2347 H 209.861 0.254954 -3.7323 0
M  V30 2348 H 211.194 0.35508 -4.90918 0
M  V30 2349 N 212.846 1.57033 -0.133567 0
M  V30 2350 C 214.093 1.95686 0.520877 0
M  V30 2351 C 214.421 1.0177 1.6575 0
M  V30 2352 O 213.676 0.0443195 1.9565 0
M  V30 2353 C 213.975 3.40674 1.08057 0
M  V30 2354 C 213.641 4.50855 0.0637899 0
M  V30 2355 C 212.303 4.80716 -0.215757 0
M  V30 2356 C 214.655 5.17398 -0.62835 0
M  V30 2357 C 211.983 5.74433 -1.19348 0
M  V30 2358 C 214.335 6.12167 -1.5948 0
M  V30 2359 C 212.999 6.40414 -1.88218 0
M  V30 2360 H 212.269 0.716067 0.190602 0
M  V30 2361 H 214.916 1.9026 -0.217556 0
M  V30 2362 H 213.221 3.42865 1.89606 0
M  V30 2363 H 214.918 3.67902 1.59529 0
M  V30 2364 H 211.508 4.27605 0.291855 0
M  V30 2365 H 215.692 4.94472 -0.425562 0
M  V30 2366 H 210.948 5.94616 -1.42272 0
M  V30 2367 H 215.122 6.6281 -2.13671 0
M  V30 2368 H 212.749 7.12838 -2.64133 0
M  V30 2369 N 214.325 -0.140222 1.56975 0
M  V30 2370 C 215.272 -1.17292 1.98774 0
M  V30 2371 C 216.242 -1.4232 0.856408 0
M  V30 2372 O 217.427 -1.54541 1.119 0
M  V30 2373 C 214.567 -2.49973 2.37923 0
M  V30 2374 C 213.68 -2.32062 3.64378 0
M  V30 2375 C 212.815 -3.57825 3.926 0
M  V30 2376 C 211.854 -3.3498 5.12303 0
M  V30 2377 N 210.991 -4.52891 5.36502 0
M  V30 2378 H 215.831 -0.809472 2.86795 0
M  V30 2379 H 213.368 -0.388237 1.41884 0
M  V30 2380 H 215.326 -3.27346 2.58652 0
M  V30 2381 H 213.956 -2.84252 1.52972 0
M  V30 2382 H 213.008 -1.45711 3.51387 0
M  V30 2383 H 214.32 -2.11145 4.51906 0
M  V30 2384 H 213.474 -4.43624 4.13863 0
M  V30 2385 H 212.213 -3.81753 3.03506 0
M  V30 2386 H 211.218 -2.4757 4.90906 0
M  V30 2387 H 212.443 -3.12444 6.02956 0
M  V30 2388 H 210.389 -4.76979 4.50363 0
M  V30 2389 H 210.306 -4.35001 6.18312 0
M  V30 2390 H 211.574 -5.39884 5.62268 0
M  V30 2391 N 215.803 -1.52179 -0.40978 0
M  V30 2392 C 216.713 -1.78364 -1.52392 0
M  V30 2393 C 217.729 -0.669183 -1.60617 0
M  V30 2394 O 218.905 -0.954518 -1.77344 0
M  V30 2395 C 215.97 -1.92822 -2.88133 0
M  V30 2396 C 215.031 -3.16725 -2.898 0
M  V30 2397 C 214.264 -3.30483 -4.19067 0
M  V30 2398 O 214.487 -2.49522 -5.12928 0
M  V30 2399 O 213.421 -4.2363 -4.27576 0
M  V30 2400 H 217.247 -2.72931 -1.33201 0
M  V30 2401 H 214.832 -1.37016 -0.59557 0
M  V30 2402 H 216.714 -2.04157 -3.68643 0
M  V30 2403 H 215.389 -1.01444 -3.07393 0
M  V30 2404 H 214.296 -3.10848 -2.08146 0
M  V30 2405 H 215.629 -4.07881 -2.75489 0
M  V30 2406 N 217.281 0.66697 -1.42791 0
M  V30 2407 C 218.506 1.46004 -1.47301 0
M  V30 2408 C 218.931 1.87894 -0.0880317 0
M  V30 2409 O 218.289 1.56502 0.915253 0
M  V30 2410 C 218.337 2.68031 -2.41229 0
M  V30 2411 O 217.441 3.6659 -1.88906 0
M  V30 2412 H 216.782 0.43832 -0.49877 0
M  V30 2413 H 219.312 0.817391 -1.87563 0
M  V30 2414 H 219.322 3.1601 -2.58073 0
M  V30 2415 H 217.997 2.36883 -3.41847 0
M  V30 2416 H 216.574 3.25661 -1.81656 0
M  V30 2417 N 218.759 1.29093 0.90403 0
M  V30 2418 C 220.036 1.075 1.63411 0
M  V30 2419 C 220.416 -0.382346 2.07609 0
M  V30 2420 O 219.764 -1.37031 1.82851 0
M  V30 2421 C 219.974 2.05858 2.81822 0
M  V30 2422 C 221.322 2.36539 3.52611 0
M  V30 2423 O 222.346 2.04019 2.91984 0
M  V30 2424 O 221.205 2.92085 4.61897 0
M  V30 2425 H 218.299 0.411547 0.717327 0
M  V30 2426 H 220.845 1.40449 0.952479 0
M  V30 2427 H 219.617 3.04037 2.46327 0
M  V30 2428 H 219.24 1.73613 3.57693 0
M  V30 2429 N 220.237 -1.11381 1.11499 0
M  V30 2430 C 221.2 -2.15622 0.777153 0
M  V30 2431 C 222.2 -1.59504 -0.203779 0
M  V30 2432 O 223.39 -1.74188 0.020782 0
M  V30 2433 C 220.522 -3.40556 0.153116 0
M  V30 2434 H 221.715 -2.47021 1.70061 0
M  V30 2435 H 219.268 -1.26577 0.916952 0
M  V30 2436 H 220.003 -3.14767 -0.780536 0
M  V30 2437 H 219.788 -3.8257 0.859238 0
M  V30 2438 H 221.278 -4.17546 -0.0671044 0
M  V30 2439 N 221.715 -0.905404 -1.28997 0
M  V30 2440 C 222.648 -0.331959 -2.25773 0
M  V30 2441 C 223.626 0.559099 -1.52685 0
M  V30 2442 O 224.81 0.50463 -1.8162 0
M  V30 2443 C 221.937 0.526276 -3.34586 0
M  V30 2444 C 220.983 -0.298249 -4.25456 0
M  V30 2445 S 221.816 -1.69968 -5.0781 0
M  V30 2446 C 222.972 -0.848519 -6.20122 0
M  V30 2447 H 223.205 -1.15222 -2.74064 0
M  V30 2448 H 220.738 -0.706112 -1.37308 0
M  V30 2449 H 222.696 1.01565 -3.97737 0
M  V30 2450 H 221.357 1.32084 -2.84978 0
M  V30 2451 H 220.55 0.357607 -5.0273 0
M  V30 2452 H 220.152 -0.720968 -3.66985 0
M  V30 2453 H 222.444 -0.0744325 -6.77459 0
M  V30 2454 H 223.387 -1.59353 -6.89937 0
M  V30 2455 H 223.795 -0.400383 -5.63078 0
M  V30 2456 N 223.193 1.4272 -0.668489 0
M  V30 2457 C 224.44 2.01624 -0.18814 0
M  V30 2458 C 224.768 1.5282 1.20317 0
M  V30 2459 O 224.023 0.718323 1.8204 0
M  V30 2460 C 224.322 3.57021 -0.164499 0
M  V30 2461 C 223.988 4.25232 -1.49962 0
M  V30 2462 C 222.65 4.4358 -1.8652 0
M  V30 2463 C 225.002 4.63727 -2.37921 0
M  V30 2464 C 222.33 4.97694 -3.10674 0
M  V30 2465 C 224.682 5.19218 -3.6138 0
M  V30 2466 C 223.346 5.3578 -3.98115 0
M  V30 2467 H 222.616 0.737795 -0.0688454 0
M  V30 2468 H 225.263 1.70991 -0.862225 0
M  V30 2469 H 223.568 3.87285 0.593079 0
M  V30 2470 H 225.265 4.00372 0.224271 0
M  V30 2471 H 221.855 4.11306 -1.20522 0
M  V30 2472 H 226.039 4.4923 -2.10964 0
M  V30 2473 H 221.295 5.08702 -3.39164 0
M  V30 2474 H 225.469 5.4799 -4.29743 0
M  V30 2475 H 223.096 5.77475 -4.94395 0
M  V30 2476 N 224.671 0.411399 1.52136 0
M  V30 2477 C 225.634 -0.401089 2.25663 0
M  V30 2478 C 226.634 -0.971732 1.28117 0
M  V30 2479 O 227.824 -0.850254 1.52041 0
M  V30 2480 C 224.956 -1.56483 3.02863 0
M  V30 2481 H 226.149 0.24295 2.98914 0
M  V30 2482 H 223.702 0.163968 1.55438 0
M  V30 2483 H 224.437 -2.24567 2.33967 0
M  V30 2484 H 224.222 -1.16211 3.74483 0
M  V30 2485 H 225.712 -2.13951 3.58629 0
M  V30 2486 N 226.149 -1.5696 0.141893 0
M  V30 2487 C 227.112 -2.15316 -0.785587 0
M  V30 2488 C 228.112 -1.09366 -1.1788 0
M  V30 2489 O 229.302 -1.35031 -1.10056 0
M  V30 2490 C 226.434 -2.71211 -2.06537 0
M  V30 2491 H 227.627 -2.98608 -0.278041 0
M  V30 2492 H 225.18 -1.5593 -0.107519 0
M  V30 2493 H 225.915 -1.91571 -2.6167 0
M  V30 2494 H 225.7 -3.4872 -1.79268 0
M  V30 2495 H 227.19 -3.16189 -2.72789 0
M  V30 2496 N 227.627 0.131896 -1.57047 0
M  V30 2497 C 228.537 1.1815 -2.02676 0
M  V30 2498 C 229.553 1.46113 -0.944824 0
M  V30 2499 O 230.729 1.57485 -1.25541 0
M  V30 2500 C 227.794 2.49139 -2.41103 0
M  V30 2501 C 226.855 2.28688 -3.63318 0
M  V30 2502 C 226.088 3.53431 -3.99903 0
M  V30 2503 O 226.311 4.60223 -3.36973 0
M  V30 2504 O 225.245 3.45198 -4.93074 0
M  V30 2505 H 229.071 0.824069 -2.92306 0
M  V30 2506 H 226.656 0.341745 -1.45439 0
M  V30 2507 H 228.538 3.26338 -2.66611 0
M  V30 2508 H 227.213 2.84382 -1.54624 0
M  V30 2509 H 226.12 1.4939 -3.42977 0
M  V30 2510 H 227.453 1.98355 -4.50462 0
M  V30 2511 N 229.106 1.52395 0.401703 0
M  V30 2512 C 230.522 1.41363 0.740864 0
M  V30 2513 C 230.722 0.523982 1.94568 0
M  V30 2514 O 229.778 -0.00741204 2.52499 0
M  V30 2515 C 231.091 2.84011 0.987847 0
M  V30 2516 C 232.639 2.93404 1.09011 0
M  V30 2517 C 233.114 4.37036 1.3698 0
M  V30 2518 N 234.605 4.40304 1.43829 0
M  V30 2519 C 235.34 5.48508 1.67112 0
M  V30 2520 N 234.836 6.66819 1.87949 0
M  V30 2521 N 236.629 5.36034 1.69187 0
M  V30 2522 H 228.78 2.08765 -0.391262 0
M  V30 2523 H 231.043 0.941265 -0.112798 0
M  V30 2524 H 230.749 3.51265 0.174835 0
M  V30 2525 H 230.623 3.25502 1.906 0
M  V30 2526 H 233.01 2.26325 1.8937 0
M  V30 2527 H 233.091 2.55359 0.15015 0
M  V30 2528 H 232.735 5.04676 0.571353 0
M  V30 2529 H 232.665 4.72623 2.3224 0
M  V30 2530 H 235.156 3.55024 1.29486 0
M  V30 2531 H 235.469 7.45063 2.05185 0
M  V30 2532 H 233.814 6.6987 1.85199 0
M  V30 2533 H 237.005 4.42579 1.52451 0
M  V30 2534 H 237.178 6.20434 1.86993 0
M  V30 2535 N 230.584 -0.659388 1.43143 0
M  V30 2536 C 231.547 -1.75432 1.47501 0
M  V30 2537 C 232.547 -1.56707 0.360512 0
M  V30 2538 O 233.737 -1.62717 0.622002 0
M  V30 2539 C 230.869 -3.14239 1.32162 0
M  V30 2540 H 232.062 -1.7295 2.45006 0
M  V30 2541 H 229.615 -0.870469 1.29817 0
M  V30 2542 H 230.35 -3.22336 0.356401 0
M  V30 2543 H 230.135 -3.29235 2.12948 0
M  V30 2544 H 231.625 -3.94094 1.3813 0
M  V30 2545 N 232.062 -1.29571 -0.897171 0
M  V30 2546 C 233.473 -1.15964 -1.46319 0
M  V30 2547 C 233.824 0.244267 -1.94674 0
M  V30 2548 O 232.949 1.13998 -1.83939 0
M  V30 2549 C 233.544 -2.09906 -2.65942 0
M  V30 2550 C 232.103 -2.00314 -3.18671 0
M  V30 2551 C 231.25 -2.00687 -1.91363 0
M  V30 2552 H 234.201 -1.42019 -0.708268 0
M  V30 2553 H 234.222 -1.67276 -3.41759 0
M  V30 2554 H 233.734 -3.12075 -2.30718 0
M  V30 2555 H 231.835 -1.01242 -3.58582 0
M  V30 2556 H 231.948 -2.88102 -3.82798 0
M  V30 2557 H 230.312 -1.45319 -2.09175 0
M  V30 2558 H 231.095 -3.04566 -1.58413 0
M  V30 2559 N 233.54 1.10788 -1.12088 0
M  V30 2560 C 234.817 1.79136 -0.785476 0
M  V30 2561 C 235.197 1.98246 0.725377 0
M  V30 2562 O 234.545 1.57258 1.65778 0
M  V30 2563 C 234.755 3.12375 -1.55636 0
M  V30 2564 C 236.103 3.8731 -1.74001 0
M  V30 2565 O 237.127 3.22085 -1.52117 0
M  V30 2566 O 235.986 5.04369 -2.10415 0
M  V30 2567 H 233.08 0.776226 -0.285311 0
M  V30 2568 H 235.626 1.1747 -1.2247 0
M  V30 2569 H 234.398 2.93863 -2.5838 0
M  V30 2570 H 234.021 3.81758 -1.11114 0
M  V30 2571 N 235.018 0.912232 1.28515 0
M  V30 2572 C 236.264 0.554851 1.95686 0
M  V30 2573 C 236.619 -0.89138 1.70506 0
M  V30 2574 O 235.912 -1.62529 1.01464 0
M  V30 2575 C 236.106 0.798392 3.48368 0
M  V30 2576 C 235.935 2.26674 3.88393 0
M  V30 2577 C 234.705 2.91657 4.12631 0
M  V30 2578 C 236.903 3.24303 3.99164 0
M  V30 2579 N 234.885 4.28805 4.39317 0
M  V30 2580 C 236.256 4.4661 4.30046 0
M  V30 2581 C 238.311 3.19723 3.81683 0
M  V30 2582 C 237.014 5.64915 4.45268 0
M  V30 2583 C 239.04 4.37325 3.98121 0
M  V30 2584 C 238.402 5.58406 4.29375 0
M  V30 2585 H 234.501 0.252876 0.739985 0
M  V30 2586 H 237.085 1.17565 1.55199 0
M  V30 2587 H 235.256 0.20688 3.87849 0
M  V30 2588 H 236.988 0.405193 4.02666 0
M  V30 2589 H 233.743 2.42393 4.06869 0
M  V30 2590 H 234.167 4.99712 4.56746 0
M  V30 2591 H 238.809 2.27191 3.56573 0
M  V30 2592 H 236.527 6.57927 4.6921 0
M  V30 2593 H 240.113 4.35282 3.86033 0
M  V30 2594 H 238.993 6.47889 4.41825 0
M  V30 2595 N 236.496 -1.42363 0.676048 0
M  V30 2596 C 237.742 -2.0182 0.199125 0
M  V30 2597 C 238.075 -1.53339 -1.19168 0
M  V30 2598 O 237.35 -0.736124 -1.80032 0
M  V30 2599 C 237.633 -3.59331 0.235144 0
M  V30 2600 C 237.486 -4.17989 1.66149 0
M  V30 2601 C 238.805 -4.3813 -0.41595 0
M  V30 2602 H 235.924 -0.733293 0.0738311 0
M  V30 2603 H 238.566 -1.69368 0.86107 0
M  V30 2604 H 236.716 -3.87109 -0.328487 0
M  V30 2605 H 238.388 -4.0116 2.27747 0
M  V30 2606 H 236.631 -3.7377 2.20178 0
M  V30 2607 H 237.302 -5.27126 1.63837 0
M  V30 2608 H 239.778 -4.16051 0.0638529 0
M  V30 2609 H 238.654 -5.47717 -0.360115 0
M  V30 2610 H 238.915 -4.16101 -1.49373 0
M  V30 2611 N 237.974 -0.419461 -1.51915 0
M  V30 2612 C 239.251 0.211999 -1.94448 0
M  V30 2613 C 239.631 1.61703 -1.35703 0
M  V30 2614 O 238.979 2.22102 -0.536931 0
M  V30 2615 C 239.189 0.207872 -3.4838 0
M  V30 2616 C 240.537 0.422192 -4.22496 0
M  V30 2617 O 241.561 0.286778 -3.55044 0
M  V30 2618 O 240.42 0.690009 -5.42126 0
M  V30 2619 H 237.514 0.139586 -0.815135 0
M  V30 2620 H 240.06 -0.476151 -1.62883 0
M  V30 2621 H 238.832 -0.775102 -3.83546 0
M  V30 2622 H 238.455 0.939688 -3.86336 0
M  V30 2623 N 239.452 1.56882 -0.150215 0
M  V30 2624 C 240.415 2.1573 0.774157 0
M  V30 2625 C 241.415 1.0999 1.17298 0
M  V30 2626 O 242.605 1.35613 1.09338 0
M  V30 2627 C 239.737 2.72302 2.05096 0
M  V30 2628 H 240.93 2.98752 0.262201 0
M  V30 2629 H 238.483 1.55985 0.099248 0
M  V30 2630 H 239.218 1.92956 2.6065 0
M  V30 2631 H 239.003 3.49665 1.77416 0
M  V30 2632 H 240.493 3.17632 2.71109 0
M  V30 2633 N 240.93 -0.123565 1.57115 0
M  V30 2634 C 241.84 -1.17074 2.033 0
M  V30 2635 C 242.856 -1.4561 0.952559 0
M  V30 2636 O 244.032 -1.56817 1.26374 0
M  V30 2637 C 241.097 -2.47857 2.42421 0
M  V30 2638 C 240.158 -2.26758 3.64526 0
M  V30 2639 C 239.391 -3.51305 4.01771 0
M  V30 2640 O 239.614 -4.5843 3.39409 0
M  V30 2641 O 238.548 -3.42578 4.94898 0
M  V30 2642 H 242.374 -0.808555 2.92739 0
M  V30 2643 H 239.959 -0.334027 1.45618 0
M  V30 2644 H 241.841 -3.2492 2.68338 0
M  V30 2645 H 240.516 -2.83558 1.5613 0
M  V30 2646 H 239.423 -1.47569 3.43765 0
M  V30 2647 H 240.756 -1.95963 4.51508 0
M  V30 2648 N 242.408 -1.52605 -0.393616 0
M  V30 2649 C 243.318 -1.79971 -1.50492 0
M  V30 2650 C 244.334 -0.686181 -1.59899 0
M  V30 2651 O 245.51 -0.973274 -1.76322 0
M  V30 2652 C 242.575 -1.95867 -2.86072 0
M  V30 2653 C 241.636 -3.19781 -2.86424 0
M  V30 2654 C 240.869 -3.34909 -4.15538 0
M  V30 2655 O 241.092 -2.54948 -5.10253 0
M  V30 2656 O 240.026 -4.28141 -4.23059 0
M  V30 2657 H 243.852 -2.74328 -1.30299 0
M  V30 2658 H 241.437 -1.3764 -0.581005 0
M  V30 2659 H 243.319 -2.08056 -3.66457 0
M  V30 2660 H 241.994 -1.04699 -3.063 0
M  V30 2661 H 240.901 -3.13038 -2.04837 0
M  V30 2662 H 242.234 -4.1078 -2.71147 0
M  V30 2663 N 243.887 0.651787 -1.4349 0
M  V30 2664 C 245.127 1.42345 -1.46688 0
M  V30 2665 C 245.491 1.91793 -0.0891023 0
M  V30 2666 O 246.692 2.688 0.00423594 0
M  V30 2667 C 244.963 2.57221 -2.48137 0
M  V30 2668 S 246.522 3.45725 -2.70221 0
M  V30 2669 H 243.34 0.485878 -0.51908 0
M  V30 2670 H 245.942 0.756578 -1.80267 0
M  V30 2671 H 244.646 2.1917 -3.46976 0
M  V30 2672 H 244.177 3.28757 -2.16061 0
M  V30 2673 H 246.192 4.53996 -2.00255 0
M  V30 2674 N 245.365 1.30045 0.890287 0
M  V30 2675 C 246.315 1.12592 1.9826 0
M  V30 2676 C 247.299 0.0426021 1.60844 0
M  V30 2677 O 248.491 0.265346 1.75 0
M  V30 2678 C 245.62 0.814301 3.33503 0
M  V30 2679 C 244.706 1.93761 3.7725 0
M  V30 2680 N 245.097 3.18232 3.93143 0
M  V30 2681 C 243.395 1.83277 4.06602 0
M  V30 2682 C 244.096 3.9158 4.30163 0
M  V30 2683 N 243.072 3.19591 4.3973 0
M  V30 2684 H 246.874 2.07003 2.08631 0
M  V30 2685 H 244.388 1.21307 1.07974 0
M  V30 2686 H 246.385 0.67029 4.11476 0
M  V30 2687 H 245.045 -0.121797 3.24471 0
M  V30 2688 H 246.056 3.53581 3.78419 0
M  V30 2689 H 242.733 0.97001 4.06075 0
M  V30 2690 H 244.123 4.98744 4.50226 0
M  V30 2691 N 246.843 -1.10192 1.12674 0
M  V30 2692 C 248.259 -1.34235 0.863317 0
M  V30 2693 C 248.459 -1.95062 -0.505277 0
M  V30 2694 O 247.515 -2.19192 -1.25345 0
M  V30 2695 C 248.828 -2.2616 1.98172 0
M  V30 2696 C 250.376 -2.3969 2.0129 0
M  V30 2697 C 250.851 -3.34946 3.1237 0
M  V30 2698 N 252.342 -3.42515 3.11829 0
M  V30 2699 C 253.077 -4.16199 3.94419 0
M  V30 2700 N 252.573 -4.92747 4.87004 0
M  V30 2701 N 254.366 -4.11843 3.82547 0
M  V30 2702 H 246.517 -0.690798 2.00853 0
M  V30 2703 H 248.78 -0.366774 0.874174 0
M  V30 2704 H 248.486 -1.8868 2.96804 0
M  V30 2705 H 248.36 -3.26488 1.88906 0
M  V30 2706 H 250.747 -2.76438 1.03276 0
M  V30 2707 H 250.828 -1.39169 2.14629 0
M  V30 2708 H 250.472 -2.98923 4.10619 0
M  V30 2709 H 250.402 -4.35353 2.96269 0
M  V30 2710 H 252.893 -2.87926 2.44759 0
M  V30 2711 H 253.206 -5.46376 5.46528 0
M  V30 2712 H 251.551 -4.91862 4.91016 0
M  V30 2713 H 254.742 -3.51136 3.0955 0
M  V30 2714 H 254.915 -4.69007 4.47142 0
M  V30 2715 N 248.321 -0.919034 -1.28029 0
M  V30 2716 C 249.561 -0.562107 -1.96519 0
M  V30 2717 C 249.925 0.878784 -1.70708 0
M  V30 2718 O 251.126 1.34355 -2.32813 0
M  V30 2719 C 249.397 -0.868953 -3.46676 0
M  V30 2720 S 250.956 -0.619237 -4.34409 0
M  V30 2721 H 247.774 -0.2078 -0.679956 0
M  V30 2722 H 250.376 -1.18562 -1.55446 0
M  V30 2723 H 249.08 -1.91547 -3.62957 0
M  V30 2724 H 248.611 -0.234301 -3.92702 0
M  V30 2725 H 250.626 0.526995 -4.93394 0
M  V30 2726 N 249.799 1.42003 -0.683588 0
M  V30 2727 C 251.215 1.55625 -0.353976 0
M  V30 2728 C 251.415 1.66151 1.14 0
M  V30 2729 O 250.471 1.63329 1.92561 0
M  V30 2730 C 251.784 2.80171 -1.092 0
M  V30 2731 C 253.332 2.93954 -1.07518 0
M  V30 2732 C 253.807 4.21372 -1.79471 0
M  V30 2733 N 255.298 4.28303 -1.76381 0
M  V30 2734 C 256.033 5.25729 -2.28904 0
M  V30 2735 N 255.529 6.29254 -2.89846 0
M  V30 2736 N 257.322 5.17586 -2.19228 0
M  V30 2737 H 249.473 1.33415 -1.6527 0
M  V30 2738 H 251.736 0.64282 -0.696769 0
M  V30 2739 H 251.442 2.78561 -2.14701 0
M  V30 2740 H 251.316 3.7133 -0.662862 0
M  V30 2741 H 253.703 2.95086 -0.028475 0
M  V30 2742 H 253.784 2.04002 -1.54328 0
M  V30 2743 H 253.428 4.21001 -2.84114 0
M  V30 2744 H 253.358 5.10275 -1.30104 0
M  V30 2745 H 255.849 3.54119 -1.31939 0
M  V30 2746 H 256.162 6.99964 -3.27522 0
M  V30 2747 H 254.507 6.29791 -2.93919 0
M  V30 2748 H 257.698 4.35631 -1.71299 0
M  V30 2749 H 257.871 5.93348 -2.60466 0
M  V30 2750 N 251.277 0.427512 1.51691 0
M  V30 2751 C 252.523 -0.142439 2.02299 0
M  V30 2752 C 252.856 -1.43214 1.31162 0
M  V30 2753 O 252.131 -1.89833 0.423511 0
M  V30 2754 C 252.414 -0.371301 3.58181 0
M  V30 2755 C 252.267 0.936358 4.39946 0
M  V30 2756 C 253.586 -1.14542 4.24933 0
M  V30 2757 H 250.705 -0.0502937 0.735282 0
M  V30 2758 H 253.347 0.564584 1.81418 0
M  V30 2759 H 251.497 -0.973559 3.76104 0
M  V30 2760 H 253.169 1.57184 4.33694 0
M  V30 2761 H 251.412 1.5432 4.05423 0
M  V30 2762 H 252.083 0.730388 5.47147 0
M  V30 2763 H 254.559 -0.635362 4.11221 0
M  V30 2764 H 253.435 -1.27431 5.33903 0
M  V30 2765 H 253.696 -2.17093 3.85127 0
M  V30 2766 N 252.755 -1.56801 0.158532 0
M  V30 2767 C 253.687 -2.14488 -0.807923 0
M  V30 2768 C 254.7 -1.09721 -1.20271 0
M  V30 2769 O 255.889 -1.36956 -1.14478 0
M  V30 2770 C 252.989 -2.66217 -2.09718 0
M  V30 2771 C 252.162 -3.95507 -1.86796 0
M  V30 2772 C 251.221 -4.3243 -2.99818 0
M  V30 2773 O 250.247 -5.00543 -2.71008 0
M  V30 2774 N 251.449 -3.92947 -4.27285 0
M  V30 2775 H 254.214 -2.98042 -0.314816 0
M  V30 2776 H 251.775 -1.61881 -0.0246692 0
M  V30 2777 H 253.767 -2.87924 -2.84398 0
M  V30 2778 H 252.337 -1.87324 -2.50257 0
M  V30 2779 H 251.557 -3.82309 -0.96089 0
M  V30 2780 H 252.845 -4.79972 -1.68833 0
M  V30 2781 H 252.243 -3.38087 -4.53557 0
M  V30 2782 H 250.8 -4.19681 -4.9871 0
M  V30 2783 N 254.233 0.115231 -1.57178 0
M  V30 2784 C 255.48 0.822351 -1.8505 0
M  V30 2785 C 255.808 1.79701 -0.744168 0
M  V30 2786 O 255.063 1.93909 0.26414 0
M  V30 2787 C 255.362 1.60324 -3.19423 0
M  V30 2788 C 255.028 0.772536 -4.44233 0
M  V30 2789 C 253.69 0.543468 -4.78121 0
M  V30 2790 C 256.042 0.193746 -5.2084 0
M  V30 2791 C 253.37 -0.274583 -5.86057 0
M  V30 2792 C 255.722 -0.611517 -6.29637 0
M  V30 2793 C 254.386 -0.850867 -6.62055 0
M  V30 2794 H 253.656 0.30092 -0.677147 0
M  V30 2795 H 256.303 0.0845802 -1.91313 0
M  V30 2796 H 254.608 2.41203 -3.08753 0
M  V30 2797 H 256.305 2.1544 -3.38211 0
M  V30 2798 H 252.895 0.96117 -4.17683 0
M  V30 2799 H 257.079 0.357926 -4.95008 0
M  V30 2800 H 252.335 -0.469206 -6.09597 0
M  V30 2801 H 256.509 -1.06697 -6.88178 0
M  V30 2802 H 254.136 -1.48657 -7.45523 0
M  V30 2803 N 255.711 1.52812 0.385517 0
M  V30 2804 C 256.959 1.67694 1.12797 0
M  V30 2805 C 257.28 0.421115 1.90399 0
M  V30 2806 O 256.55 -0.564551 1.87589 0
M  V30 2807 H 255.13 0.618155 0.419396 0
M  V30 2808 H 257.792 1.89938 0.436972 0
M  V30 2809 H 256.888 2.52896 1.82894 0
M  V30 2810 N 257.189 -0.644168 1.43834 0
M  V30 2811 C 258.435 -1.40603 1.46146 0
M  V30 2812 C 258.768 -1.93997 0.0887717 0
M  V30 2813 O 258.043 -1.72854 -0.891724 0
M  V30 2814 C 258.326 -2.58086 2.51124 0
M  V30 2815 C 258.179 -2.10126 3.97702 0
M  V30 2816 C 259.498 -3.60291 2.52742 0
M  V30 2817 H 256.617 -0.509905 0.532134 0
M  V30 2818 H 259.259 -0.729502 1.75437 0
M  V30 2819 H 257.409 -3.15801 2.26278 0
M  V30 2820 H 259.081 -1.57342 4.33637 0
M  V30 2821 H 257.324 -1.41419 4.10101 0
M  V30 2822 H 257.995 -2.94649 4.66783 0
M  V30 2823 H 260.471 -3.12352 2.7491 0
M  V30 2824 H 259.347 -4.40032 3.28121 0
M  V30 2825 H 259.608 -4.1349 1.56455 0
M  V30 2826 N 258.668 -1.30515 -0.883378 0
M  V30 2827 C 259.601 -1.11359 -1.99184 0
M  V30 2828 C 260.579 -0.0207858 -1.62587 0
M  V30 2829 O 261.763 -0.174646 -1.87689 0
M  V30 2830 C 258.89 -0.69871 -3.31415 0
M  V30 2831 C 257.936 -1.79261 -3.86998 0
M  V30 2832 S 258.769 -3.39536 -4.14096 0
M  V30 2833 C 259.925 -2.99954 -5.49344 0
M  V30 2834 H 260.158 -2.052 -2.15128 0
M  V30 2835 H 257.691 -1.14847 -1.03196 0
M  V30 2836 H 259.649 -0.466075 -4.07846 0
M  V30 2837 H 258.31 0.220368 -3.13326 0
M  V30 2838 H 257.503 -1.45464 -4.82552 0
M  V30 2839 H 257.105 -1.97961 -3.17313 0
M  V30 2840 H 259.397 -2.48013 -6.30473 0
M  V30 2841 H 260.34 -3.9442 -5.8808 0
M  V30 2842 H 260.748 -2.37775 -5.1198 0
M  V30 2843 N 260.146 1.09593 -1.13257 0
M  V30 2844 C 261.374 1.855 -0.916378 0
M  V30 2845 C 261.789 1.81069 0.534738 0
M  V30 2846 O 261.146 1.20562 1.37007 0
M  V30 2847 C 261.197 3.33546 -1.39388 0
M  V30 2848 O 260.918 3.37927 -2.78813 0
M  V30 2849 C 262.419 4.26299 -1.21588 0
M  V30 2850 H 259.639 0.585991 -0.326887 0
M  V30 2851 H 262.183 1.38488 -1.5047 0
M  V30 2852 H 260.338 3.77992 -0.848597 0
M  V30 2853 H 260.752 4.30254 -2.9997 0
M  V30 2854 H 262.226 5.28341 -1.59876 0
M  V30 2855 H 262.703 4.38918 -0.157376 0
M  V30 2856 H 263.309 3.87668 -1.7491 0
M  V30 2857 N 261.624 0.925811 1.2754 0
M  V30 2858 C 263.04 0.625767 1.46821 0
M  V30 2859 C 263.24 -0.825506 1.83814 0
M  V30 2860 O 262.296 -1.60356 1.95044 0
M  V30 2861 C 263.609 1.57402 2.56213 0
M  V30 2862 C 265.157 1.58204 2.70075 0
M  V30 2863 C 265.632 2.51721 3.82623 0
M  V30 2864 N 267.123 2.49917 3.89994 0
M  V30 2865 C 267.858 3.18968 4.76494 0
M  V30 2866 N 267.354 3.97391 5.67496 0
M  V30 2867 N 269.147 3.07996 4.70208 0
M  V30 2868 H 261.298 1.86409 1.01811 0
M  V30 2869 H 263.561 0.800213 0.508295 0
M  V30 2870 H 263.267 2.60925 2.35819 0
M  V30 2871 H 263.141 1.31428 3.53563 0
M  V30 2872 H 265.528 0.554124 2.89851 0
M  V30 2873 H 265.609 1.88226 1.73218 0
M  V30 2874 H 265.253 3.54622 3.63601 0
M  V30 2875 H 265.183 2.18996 4.78903 0
M  V30 2876 H 267.674 1.9296 3.24923 0
M  V30 2877 H 267.987 4.4707 6.30356 0
M  V30 2878 H 266.332 4.01495 5.67298 0
M  V30 2879 H 269.523 2.46223 3.9811 0
M  V30 2880 H 269.696 3.6208 5.37403 0
M  V30 2881 N 263.102 -1.41638 0.69111 0
M  V30 2882 C 264.049 -2.30789 0.0229705 0
M  V30 2883 C 265.019 -1.46863 -0.775911 0
M  V30 2884 O 266.204 -1.75661 -0.74485 0
M  V30 2885 C 263.344 -3.32868 -0.910666 0
M  V30 2886 C 262.457 -4.31875 -0.103874 0
M  V30 2887 C 261.592 -5.21024 -1.03475 0
M  V30 2888 C 260.631 -6.11702 -0.220598 0
M  V30 2889 N 259.768 -6.93349 -1.10504 0
M  V30 2890 H 264.608 -2.87366 0.788978 0
M  V30 2891 H 262.145 -1.41535 0.400794 0
M  V30 2892 H 264.103 -3.90596 -1.46597 0
M  V30 2893 H 262.733 -2.77851 -1.64312 0
M  V30 2894 H 261.785 -3.76131 0.568285 0
M  V30 2895 H 263.097 -4.96003 0.527504 0
M  V30 2896 H 262.251 -5.83565 -1.65943 0
M  V30 2897 H 260.99 -4.57112 -1.69999 0
M  V30 2898 H 259.995 -5.48215 0.417187 0
M  V30 2899 H 261.22 -6.77668 0.440784 0
M  V30 2900 H 259.166 -6.3205 -1.75638 0
M  V30 2901 H 259.083 -7.54146 -0.529125 0
M  V30 2902 H 260.351 -7.60362 -1.71667 0
M  V30 2903 N 264.58 -0.43555 -1.51462 0
M  V30 2904 C 265.53 0.394701 -2.24558 0
M  V30 2905 C 266.514 0.99157 -1.26715 0
M  V30 2906 O 267.706 0.910007 -1.51815 0
M  V30 2907 C 264.835 1.4963 -3.08975 0
M  V30 2908 C 263.921 0.908912 -4.14246 0
M  V30 2909 N 264.312 0.0505335 -5.05775 0
M  V30 2910 C 262.61 1.17668 -4.30198 0
M  V30 2911 C 263.311 -0.279161 -5.8103 0
M  V30 2912 N 262.287 0.336767 -5.42556 0
M  V30 2913 H 266.089 -0.267106 -2.92684 0
M  V30 2914 H 263.603 -0.247518 -1.60503 0
M  V30 2915 H 265.6 2.10394 -3.59917 0
M  V30 2916 H 264.26 2.16046 -2.42393 0
M  V30 2917 H 265.271 -0.31577 -5.16936 0
M  V30 2918 H 261.948 1.83847 -3.74842 0
M  V30 2919 H 263.338 -0.977553 -6.64751 0
M  V30 2920 N 266.058 1.56714 -0.166846 0
M  V30 2921 C 267.008 2.14338 0.777382 0
M  V30 2922 C 267.992 1.07642 1.19591 0
M  V30 2923 O 269.184 1.33775 1.15902 0
M  V30 2924 C 266.313 2.78417 2.00846 0
M  V30 2925 C 265.399 3.92264 1.61212 0
M  V30 2926 N 265.79 4.97268 0.925104 0
M  V30 2927 C 264.088 4.03342 1.90346 0
M  V30 2928 C 264.789 5.77093 0.730627 0
M  V30 2929 N 263.765 5.2854 1.27067 0
M  V30 2930 H 267.567 2.9289 0.243466 0
M  V30 2931 H 265.081 1.62364 0.0339954 0
M  V30 2932 H 267.078 3.18073 2.69509 0
M  V30 2933 H 265.738 2.01344 2.54736 0
M  V30 2934 H 266.749 5.14601 0.583646 0
M  V30 2935 H 263.426 3.37368 2.45946 0
M  V30 2936 H 264.816 6.71638 0.187668 0
M  V30 2937 N 267.536 -0.106894 1.57237 0
M  V30 2938 C 268.776 -0.818277 1.87306 0
M  V30 2939 C 269.14 -1.76474 0.756371 0
M  V30 2940 O 270.341 -2.5186 0.939155 0
M  V30 2941 C 268.612 -1.53806 3.22612 0
M  V30 2942 S 270.171 -2.28935 3.74345 0
M  V30 2943 H 266.989 -0.272862 0.656557 0
M  V30 2944 H 269.591 -0.075988 1.95352 0
M  V30 2945 H 268.295 -0.834951 4.01817 0
M  V30 2946 H 267.826 -2.32049 3.17674 0
M  V30 2947 H 269.841 -3.54871 3.46815 0
M  V30 2948 N 269.014 -1.53014 -0.377408 0
M  V30 2949 C 270.43 -1.42523 -0.718281 0
M  V30 2950 C 270.63 -0.55487 -1.9371 0
M  V30 2951 O 269.686 -0.0327593 -2.52479 0
M  V30 2952 C 270.999 -2.85546 -0.942539 0
M  V30 2953 C 272.547 -2.95101 -1.04329 0
M  V30 2954 C 273.022 -4.3916 -1.3001 0
M  V30 2955 N 274.513 -4.42536 -1.36806 0
M  V30 2956 C 275.248 -5.51097 -1.58364 0
M  V30 2957 N 274.744 -6.69724 -1.77317 0
M  V30 2958 N 276.537 -5.38657 -1.60638 0
M  V30 2959 H 268.688 -2.08116 0.424426 0
M  V30 2960 H 270.951 -0.939352 0.127759 0
M  V30 2961 H 270.657 -3.51499 -0.118929 0
M  V30 2962 H 270.531 -3.28493 -1.85397 0
M  V30 2963 H 272.918 -2.29309 -1.85745 0
M  V30 2964 H 272.999 -2.55566 -0.109505 0
M  V30 2965 H 272.643 -5.05521 -0.490991 0
M  V30 2966 H 272.573 -4.76258 -2.24691 0
M  V30 2967 H 275.064 -3.57039 -1.23821 0
M  V30 2968 H 275.377 -7.48233 -1.93306 0
M  V30 2969 H 273.722 -6.72732 -1.74518 0
M  V30 2970 H 276.913 -4.44948 -1.45391 0
M  V30 2971 H 277.086 -6.2333 -1.77098 0
M  V30 2972 N 270.492 0.636531 -1.44174 0
M  V30 2973 C 271.455 1.73063 -1.50273 0
M  V30 2974 C 272.455 1.56113 -0.385397 0
M  V30 2975 O 273.645 1.61707 -0.64781 0
M  V30 2976 C 270.777 3.12096 -1.37145 0
M  V30 2977 H 271.97 1.69031 -2.47727 0
M  V30 2978 H 269.523 0.849706 -1.31186 0
M  V30 2979 H 270.258 3.21728 -0.407636 0
M  V30 2980 H 270.043 3.25805 -2.18159 0
M  V30 2981 H 271.533 3.91846 -1.44382 0
M  V30 2982 N 271.97 1.30982 0.876444 0
M  V30 2983 C 273.21 1.21589 1.64303 0
M  V30 2984 C 273.574 -0.223962 1.90689 0
M  V30 2985 O 274.775 -0.44128 2.65153 0
M  V30 2986 C 273.046 2.03007 2.94148 0
M  V30 2987 S 274.605 2.10405 3.85065 0
M  V30 2988 H 271.423 0.433161 0.563819 0
M  V30 2989 H 274.025 1.65565 1.03964 0
M  V30 2990 H 272.729 3.06719 2.72675 0
M  V30 2991 H 272.26 1.59725 3.59515 0
M  V30 2992 H 274.275 1.23765 4.80517 0
M  V30 2993 N 273.449 -1.08991 1.13837 0
M  V30 2994 C 274.697 -1.80899 0.901098 0
M  V30 2995 C 275.018 -1.86356 -0.574134 0
M  V30 2996 O 274.288 -1.35235 -1.41733 0
M  V30 2997 H 272.868 -0.669966 0.330386 0
M  V30 2998 H 275.53 -1.318 1.43578 0
M  V30 2999 H 274.626 -2.83929 1.29578 0
M  V30 3000 N 274.927 -0.932562 -1.27047 0
M  V30 3001 C 275.859 -0.392734 -2.2581 0
M  V30 3002 C 276.872 0.479241 -1.55586 0
M  V30 3003 O 278.061 0.291078 -1.76111 0
M  V30 3004 C 275.161 0.455456 -3.35826 0
M  V30 3005 C 274.334 -0.398355 -4.35582 0
M  V30 3006 C 273.393 0.387985 -5.24768 0
M  V30 3007 O 272.419 -0.206003 -5.68827 0
M  V30 3008 N 273.621 1.68664 -5.55457 0
M  V30 3009 H 276.386 -1.24173 -2.72766 0
M  V30 3010 H 273.947 -0.800511 -1.40725 0
M  V30 3011 H 275.939 0.988692 -3.92437 0
M  V30 3012 H 274.509 1.20522 -2.88432 0
M  V30 3013 H 273.729 -1.11286 -3.78165 0
M  V30 3014 H 275.017 -0.981889 -4.99236 0
M  V30 3015 H 274.415 2.19147 -5.21528 0
M  V30 3016 H 272.972 2.1663 -6.14748 0
M  V30 3017 N 276.405 1.4127 -0.698611 0
M  V30 3018 C 277.654 2.00408 -0.227949 0
M  V30 3019 C 277.967 1.55981 1.18023 0
M  V30 3020 O 279.173 2.07699 1.74852 0
M  V30 3021 C 277.629 3.58129 -0.356636 0
M  V30 3022 C 277.237 4.11536 -1.77037 0
M  V30 3023 C 278.981 4.24466 0.0540969 0
M  V30 3024 C 276.888 5.61701 -1.85055 0
M  V30 3025 H 275.818 0.749586 -0.0814657 0
M  V30 3026 H 278.469 1.61713 -0.867249 0
M  V30 3027 H 276.851 3.94442 0.350965 0
M  V30 3028 H 278.025 3.86636 -2.50698 0
M  V30 3029 H 276.34 3.57736 -2.13105 0
M  V30 3030 H 278.937 5.34698 0.0146723 0
M  V30 3031 H 279.28 4.01687 1.09332 0
M  V30 3032 H 279.813 3.93198 -0.603337 0
M  V30 3033 H 276.552 5.89312 -2.8704 0
M  V30 3034 H 276.072 5.88519 -1.15783 0
M  V30 3035 H 277.751 6.26524 -1.61484 0
M  V30 3036 N 277.883 0.443576 1.51229 0
M  V30 3037 C 279.13 -0.120796 2.02139 0
M  V30 3038 C 279.458 -1.42166 1.32736 0
M  V30 3039 O 278.713 -1.90849 0.43301 0
M  V30 3040 C 279.012 -0.380579 3.55368 0
M  V30 3041 C 278.678 0.83523 4.43097 0
M  V30 3042 C 277.34 1.16864 4.66794 0
M  V30 3043 C 279.692 1.64601 4.94526 0
M  V30 3044 C 277.02 2.31339 5.39165 0
M  V30 3045 C 279.372 2.78181 5.68153 0
M  V30 3046 C 278.036 3.11969 5.90112 0
M  V30 3047 H 277.306 -0.0442023 0.73968 0
M  V30 3048 H 279.953 0.592046 1.82118 0
M  V30 3049 H 278.258 -1.17538 3.73754 0
M  V30 3050 H 279.955 -0.830777 3.923 0
M  V30 3051 H 276.545 0.565437 4.24854 0
M  V30 3052 H 280.729 1.40163 4.76097 0
M  V30 3053 H 275.985 2.57823 5.5438 0
M  V30 3054 H 280.159 3.41371 6.06992 0
M  V30 3055 H 277.786 4.00784 6.45969 0
M  V30 3056 N 279.361 -1.56624 0.175154 0
M  V30 3057 C 280.601 -1.98894 -0.471221 0
M  V30 3058 C 280.965 -1.05889 -1.60161 0
M  V30 3059 O 282.166 -1.37315 -2.3108 0
M  V30 3060 C 280.437 -3.44865 -0.938241 0
M  V30 3061 S 281.996 -4.09164 -1.58526 0
M  V30 3062 H 278.814 -0.694686 -0.151434 0
M  V30 3063 H 281.416 -1.93577 0.27352 0
M  V30 3064 H 280.12 -4.10265 -0.10518 0
M  V30 3065 H 279.651 -3.53956 -1.71693 0
M  V30 3066 H 281.666 -4.04528 -2.87352 0
M  V30 3067 N 280.839 0.0985539 -1.57292 0
M  V30 3068 C 282.087 0.801092 -1.85545 0
M  V30 3069 C 282.408 1.79438 -0.763353 0
M  V30 3070 O 281.678 1.94763 0.21073 0
M  V30 3071 H 280.258 0.29884 -0.684619 0
M  V30 3072 H 282.92 0.0810064 -1.94732 0
M  V30 3073 H 282.016 1.3338 -2.82163 0
M  V30 3074 N 282.317 1.53212 0.369288 0
M  V30 3075 C 283.264 1.79388 1.45219 0
M  V30 3076 C 284.234 0.638059 1.53356 0
M  V30 3077 O 285.419 0.879852 1.69302 0
M  V30 3078 C 282.559 1.98623 2.82211 0
M  V30 3079 C 281.672 3.26337 2.8307 0
M  V30 3080 C 280.807 3.35779 4.11614 0
M  V30 3081 C 279.846 4.5754 4.06601 0
M  V30 3082 N 278.983 4.64155 5.26787 0
M  V30 3083 H 283.823 2.71794 1.22198 0
M  V30 3084 H 281.36 1.34642 0.592444 0
M  V30 3085 H 283.318 2.07761 3.61789 0
M  V30 3086 H 281.948 1.09558 3.03639 0
M  V30 3087 H 281 3.26171 1.95747 0
M  V30 3088 H 282.312 4.15988 2.75237 0
M  V30 3089 H 281.466 3.44208 4.99606 0
M  V30 3090 H 280.205 2.44137 4.22195 0
M  V30 3091 H 279.21 4.49215 3.16996 0
M  V30 3092 H 280.435 5.50519 3.97625 0
M  V30 3093 H 278.381 3.75413 5.3796 0
M  V30 3094 H 278.298 5.47706 5.21109 0
M  V30 3095 H 279.566 4.76863 6.16621 0
M  V30 3096 N 283.795 -0.628877 1.44509 0
M  V30 3097 C 285.035 -1.39993 1.48934 0
M  V30 3098 C 285.399 -1.91627 0.119604 0
M  V30 3099 O 286.6 -2.68772 0.0385283 0
M  V30 3100 C 284.871 -2.53241 2.52198 0
M  V30 3101 S 286.43 -3.41383 2.75687 0
M  V30 3102 H 283.248 -0.477558 0.526744 0
M  V30 3103 H 285.85 -0.727804 1.81448 0
M  V30 3104 H 284.554 -2.13622 3.50419 0
M  V30 3105 H 284.085 -3.25278 2.21264 0
M  V30 3106 H 286.1 -4.50752 2.07453 0
M  V30 3107 N 285.273 -1.31445 -0.869486 0
M  V30 3108 C 286.498 -1.24256 -1.66058 0
M  V30 3109 C 286.923 0.188928 -1.87149 0
M  V30 3110 O 286.281 1.13522 -1.4136 0
M  V30 3111 C 286.329 -1.9924 -3.00559 0
M  V30 3112 O 285.433 -1.33007 -3.90362 0
M  V30 3113 H 284.774 -0.428973 -0.506831 0
M  V30 3114 H 287.304 -1.73521 -1.08404 0
M  V30 3115 H 287.314 -2.08854 -3.50491 0
M  V30 3116 H 285.989 -3.03342 -2.84528 0
M  V30 3117 H 284.566 -1.31848 -3.48813 0
M  V30 3118 N 286.751 1.08385 -1.14413 0
M  V30 3119 C 287.976 1.85057 -0.936413 0
M  V30 3120 C 288.401 1.81055 0.509971 0
M  V30 3121 O 287.759 1.1958 1.36273 0
M  V30 3122 C 287.807 3.30505 -1.44217 0
M  V30 3123 O 286.911 4.07491 -0.634409 0
M  V30 3124 H 286.252 0.573425 -0.334784 0
M  V30 3125 H 288.782 1.36799 -1.52142 0
M  V30 3126 H 288.792 3.81348 -1.45043 0
M  V30 3127 H 287.467 3.32734 -2.49522 0
M  V30 3128 H 286.044 3.66368 -0.694902 0
M  V30 3129 N 288.23 0.939286 1.26551 0
M  V30 3130 C 289.177 0.446088 2.26448 0
M  V30 3131 C 290.147 -0.493234 1.58608 0
M  V30 3132 O 291.332 -0.409857 1.86346 0
M  V30 3133 C 288.472 -0.284375 3.43926 0
M  V30 3134 C 287.585 0.690399 4.26448 0
M  V30 3135 C 286.72 -0.0610712 5.31165 0
M  V30 3136 C 285.759 0.905649 6.05363 0
M  V30 3137 N 284.896 0.186055 7.01853 0
M  V30 3138 H 289.736 1.30291 2.68008 0
M  V30 3139 H 287.273 0.65371 1.31776 0
M  V30 3140 H 289.231 -0.724313 4.10864 0
M  V30 3141 H 287.861 -1.10535 3.03285 0
M  V30 3142 H 286.913 1.24885 3.59316 0
M  V30 3143 H 288.225 1.42873 4.779 0
M  V30 3144 H 287.379 -0.56038 6.04106 0
M  V30 3145 H 286.118 -0.832297 4.80546 0
M  V30 3146 H 285.123 1.4161 5.3125 0
M  V30 3147 H 286.348 1.67685 6.58072 0
M  V30 3148 H 284.294 -0.566714 6.53548 0
M  V30 3149 H 284.211 0.863752 7.51049 0
M  V30 3150 H 285.479 -0.292221 7.78952 0
M  V30 3151 N 289.708 -1.40897 0.706093 0
M  V30 3152 C 290.938 -2.05075 0.250523 0
M  V30 3153 C 291.346 -1.53275 -1.10921 0
M  V30 3154 O 290.689 -0.680281 -1.7064 0
M  V30 3155 C 290.751 -3.59219 0.142178 0
M  V30 3156 C 290.415 -4.33864 1.43566 0
M  V30 3157 C 291.412 -4.62448 2.37566 0
M  V30 3158 C 289.097 -4.72946 1.69195 0
M  V30 3159 C 291.091 -5.29088 3.5545 0
M  V30 3160 C 288.778 -5.3932 2.87362 0
M  V30 3161 C 289.776 -5.6732 3.80312 0
M  V30 3162 O 289.464 -6.32325 4.96408 0
M  V30 3163 H 289.196 -0.666645 0.112074 0
M  V30 3164 H 291.75 -1.81467 0.962239 0
M  V30 3165 H 289.98 -3.81609 -0.6254 0
M  V30 3166 H 291.669 -4.0495 -0.277584 0
M  V30 3167 H 292.435 -4.32727 2.19027 0
M  V30 3168 H 288.314 -4.50527 0.977042 0
M  V30 3169 H 291.858 -5.50859 4.28018 0
M  V30 3170 H 287.755 -5.68461 3.05814 0
M  V30 3171 H 288.523 -6.50821 4.9636 0
M  V30 3172 N 291.186 -0.45159 -1.50991 0
M  V30 3173 C 292.411 0.110667 -2.07105 0
M  V30 3174 C 292.836 1.3446 -1.31538 0
M  V30 3175 O 292.194 1.77743 -0.357365 0
M  V30 3176 C 292.242 0.397238 -3.58405 0
M  V30 3177 O 291.346 1.48124 -3.84881 0
M  V30 3178 H 290.687 -0.00439271 -0.663985 0
M  V30 3179 H 293.217 -0.637026 -1.9443 0
M  V30 3180 H 293.227 0.64351 -4.02893 0
M  V30 3181 H 291.902 -0.504553 -4.12828 0
M  V30 3182 H 290.479 1.22381 -3.52246 0
M  V30 3183 N 292.664 1.56529 -0.183458 0
M  V30 3184 C 293.892 2.01623 0.464285 0
M  V30 3185 C 294.307 1.06366 1.55986 0
M  V30 3186 O 293.664 0.0665398 1.82379 0
M  V30 3187 C 293.715 3.46475 1.03139 0
M  V30 3188 O 293.436 4.38095 -0.0204675 0
M  V30 3189 C 294.937 4.0703 1.75617 0
M  V30 3190 H 292.157 0.660596 0.117704 0
M  V30 3191 H 294.701 2.02451 -0.288751 0
M  V30 3192 H 292.856 3.46383 1.73486 0
M  V30 3193 H 293.27 5.22973 0.399952 0
M  V30 3194 H 294.744 5.10271 2.10542 0
M  V30 3195 H 295.221 3.49819 2.65563 0
M  V30 3196 H 295.827 4.1086 1.09882 0
M  V30 3197 N 294.142 -0.090211 1.57342 0
M  V30 3198 C 295.391 -0.791531 1.8552 0
M  V30 3199 C 295.704 -1.79659 0.773441 0
M  V30 3200 O 296.91 -2.54616 0.942497 0
M  V30 3201 C 295.366 -1.45856 3.2902 0
M  V30 3202 C 294.974 -0.493017 4.45279 0
M  V30 3203 C 296.718 -2.14332 3.66418 0
M  V30 3204 C 294.625 -1.16491 5.79814 0
M  V30 3205 H 293.555 -0.299356 0.692027 0
M  V30 3206 H 296.206 -0.0445343 1.83446 0
M  V30 3207 H 294.588 -2.25318 3.2565 0
M  V30 3208 H 295.762 0.270464 4.60006 0
M  V30 3209 H 294.077 0.0863061 4.16311 0
M  V30 3210 H 296.674 -2.65344 4.64216 0
M  V30 3211 H 297.017 -2.93447 2.95287 0
M  V30 3212 H 297.55 -1.41724 3.71698 0
M  V30 3213 H 294.289 -0.41447 6.54188 0
M  V30 3214 H 293.809 -1.8997 5.68921 0
M  V30 3215 H 295.488 -1.69001 6.24538 0
M  V30 3216 N 295.62 -1.53406 -0.361157 0
M  V30 3217 C 297.031 -1.61442 -0.937728 0
M  V30 3218 C 297.382 -0.48461 -1.90121 0
M  V30 3219 O 296.507 0.388312 -2.12888 0
M  V30 3220 C 297.102 -2.92624 -1.70753 0
M  V30 3221 C 295.661 -3.02981 -2.23337 0
M  V30 3222 C 294.808 -2.5677 -1.04712 0
M  V30 3223 H 297.759 -1.58083 -0.139816 0
M  V30 3224 H 297.78 -2.80675 -2.56908 0
M  V30 3225 H 297.292 -3.74834 -1.00604 0
M  V30 3226 H 295.393 -2.25368 -2.96715 0
M  V30 3227 H 295.506 -4.0814 -2.50916 0
M  V30 3228 H 293.87 -2.11752 -1.41539 0
M  V30 3229 H 294.653 -3.41402 -0.360539 0
M  V30 3230 N 297.098 0.621204 -1.44841 0
M  V30 3231 C 298.045 1.73267 -1.5247 0
M  V30 3232 C 299.015 1.6189 -0.371611 0
M  V30 3233 O 300.2 1.81668 -0.58321 0
M  V30 3234 C 297.34 3.11545 -1.48438 0
M  V30 3235 C 296.453 3.33827 -2.74196 0
M  V30 3236 C 295.588 4.62133 -2.61929 0
M  V30 3237 C 294.627 4.77627 -3.82804 0
M  V30 3238 N 293.764 5.97219 -3.69153 0
M  V30 3239 H 298.604 1.66082 -2.47428 0
M  V30 3240 H 296.141 0.810026 -1.22788 0
M  V30 3241 H 298.099 3.91528 -1.4409 0
M  V30 3242 H 296.729 3.1772 -0.570402 0
M  V30 3243 H 295.781 2.47715 -2.88689 0
M  V30 3244 H 297.093 3.41153 -3.6389 0
M  V30 3245 H 296.247 5.50291 -2.5547 0
M  V30 3246 H 294.986 4.57182 -1.69811 0
M  V30 3247 H 293.991 3.87896 -3.89637 0
M  V30 3248 H 295.216 4.84385 -4.75971 0
M  V30 3249 H 293.162 5.93339 -2.79794 0
M  V30 3250 H 293.079 6.05644 -4.52472 0
M  V30 3251 H 294.347 6.87912 -3.66603 0
M  V30 3252 N 298.576 1.31904 0.862503 0
M  V30 3253 C 299.823 1.22017 1.61611 0
M  V30 3254 C 300.151 -0.21991 1.93253 0
M  V30 3255 O 299.406 -1.17076 1.56817 0
M  V30 3256 C 299.705 2.01713 2.95037 0
M  V30 3257 C 299.371 3.51145 2.82857 0
M  V30 3258 C 298.033 3.91889 2.79243 0
M  V30 3259 C 300.385 4.46204 2.69353 0
M  V30 3260 C 297.713 5.25947 2.59993 0
M  V30 3261 C 300.065 5.80397 2.5164 0
M  V30 3262 C 298.729 6.20352 2.46413 0
M  V30 3263 H 297.999 0.44649 0.591378 0
M  V30 3264 H 300.646 1.63248 1.00111 0
M  V30 3265 H 298.951 1.53185 3.60613 0
M  V30 3266 H 300.648 1.91437 3.52353 0
M  V30 3267 H 297.238 3.1878 2.86491 0
M  V30 3268 H 301.422 4.15652 2.71196 0
M  V30 3269 H 296.678 5.5597 2.54376 0
M  V30 3270 H 300.852 6.53676 2.40169 0
M  V30 3271 H 298.479 7.24172 2.31256 0
M  V30 3272 N 300.054 -1.07777 1.14986 0
M  V30 3273 C 301.302 -1.79934 0.920235 0
M  V30 3274 C 301.623 -1.86955 -0.554336 0
M  V30 3275 O 300.893 -1.36731 -1.40291 0
M  V30 3276 H 299.473 -0.666424 0.337473 0
M  V30 3277 H 302.135 -1.3027 1.44968 0
M  V30 3278 H 301.231 -2.82539 1.32583 0
M  V30 3279 N 301.532 -0.945985 -1.26051 0
M  V30 3280 C 302.781 -0.591836 -1.92822 0
M  V30 3281 C 303.094 0.873956 -1.7499 0
M  V30 3282 O 304.3 1.33769 -2.36259 0
M  V30 3283 C 302.756 -1.00776 -3.45503 0
M  V30 3284 C 302.364 -2.4955 -3.7206 0
M  V30 3285 C 304.108 -0.725735 -4.1825 0
M  V30 3286 C 302.015 -2.84988 -5.18205 0
M  V30 3287 H 300.945 -0.217635 -0.721908 0
M  V30 3288 H 303.596 -1.14927 -1.43052 0
M  V30 3289 H 301.978 -0.378812 -3.94184 0
M  V30 3290 H 303.152 -3.1739 -3.34066 0
M  V30 3291 H 301.467 -2.75133 -3.12555 0
M  V30 3292 H 304.064 -0.966771 -5.25887 0
M  V30 3293 H 304.407 0.337639 -4.14929 0
M  V30 3294 H 304.94 -1.31463 -3.7545 0
M  V30 3295 H 301.679 -3.90307 -5.26631 0
M  V30 3296 H 301.199 -2.21813 -5.57278 0
M  V30 3297 H 302.878 -2.73712 -5.86252 0
M  V30 3298 N 303.011 1.40521 -0.713556 0
M  V30 3299 C 303.921 2.34522 -0.0606667 0
M  V30 3300 C 304.937 1.57193 0.74607 0
M  V30 3301 O 306.113 1.89591 0.679493 0
M  V30 3302 C 303.178 3.36081 0.851491 0
M  V30 3303 C 302.239 4.29286 0.0349339 0
M  V30 3304 C 301.472 5.25994 0.903649 0
M  V30 3305 O 301.695 5.28616 2.14292 0
M  V30 3306 O 300.629 6.00918 0.343723 0
M  V30 3307 H 304.455 2.91968 -0.835972 0
M  V30 3308 H 302.04 1.41681 -0.47402 0
M  V30 3309 H 303.922 3.98369 1.37404 0
M  V30 3310 H 302.597 2.81052 1.60598 0
M  V30 3311 H 301.504 3.70289 -0.532633 0
M  V30 3312 H 302.837 4.87462 -0.681287 0
M  V30 3313 N 304.489 0.459591 1.5075 0
M  V30 3314 C 305.436 -0.340524 2.28274 0
M  V30 3315 C 306.406 -0.997371 1.32822 0
M  V30 3316 O 307.591 -1.01202 1.61749 0
M  V30 3317 C 304.731 -1.42317 3.14388 0
M  V30 3318 C 303.844 -0.782251 4.24859 0
M  V30 3319 C 302.979 -1.84182 4.98247 0
M  V30 3320 C 302.018 -1.18053 6.00608 0
M  V30 3321 N 301.155 -2.18244 6.67319 0
M  V30 3322 H 305.995 0.326899 2.96202 0
M  V30 3323 H 303.532 0.173057 1.46078 0
M  V30 3324 H 305.49 -2.06241 3.62658 0
M  V30 3325 H 304.12 -2.05992 2.4853 0
M  V30 3326 H 303.172 -0.0307404 3.80388 0
M  V30 3327 H 304.484 -0.259663 4.98124 0
M  V30 3328 H 303.638 -2.55714 5.50177 0
M  V30 3329 H 302.377 -2.39819 4.24662 0
M  V30 3330 H 301.382 -0.450776 5.47949 0
M  V30 3331 H 302.607 -0.631202 6.7616 0
M  V30 3332 H 300.553 -2.72919 5.96533 0
M  V30 3333 H 300.47 -1.70938 7.36421 0
M  V30 3334 H 301.738 -2.89191 7.23871 0
M  V30 3335 N 305.967 -1.56429 0.191757 0
M  V30 3336 C 306.877 -2.22541 -0.742481 0
M  V30 3337 C 307.893 -1.22342 -1.23727 0
M  V30 3338 O 309.069 -1.55069 -1.28513 0
M  V30 3339 C 306.134 -2.8692 -1.94623 0
M  V30 3340 C 305.195 -4.02378 -1.49633 0
M  V30 3341 C 304.428 -4.63678 -2.6427 0
M  V30 3342 O 304.651 -4.23895 -3.81666 0
M  V30 3343 O 303.585 -5.53202 -2.37174 0
M  V30 3344 H 307.411 -3.02977 -0.209462 0
M  V30 3345 H 304.996 -1.49353 -0.0373832 0
M  V30 3346 H 306.878 -3.27663 -2.64982 0
M  V30 3347 H 305.553 -2.09466 -2.46791 0
M  V30 3348 H 304.46 -3.66265 -0.761636 0
M  V30 3349 H 305.793 -4.81487 -1.02134 0
M  V30 3350 N 307.445 0.0818655 -1.57387 0
M  V30 3351 C 308.691 0.784074 -1.8703 0
M  V30 3352 C 309.024 1.77729 -0.782689 0
M  V30 3353 O 308.299 1.93384 0.208051 0
M  V30 3354 C 308.582 1.50105 -3.27323 0
M  V30 3355 C 308.435 0.524925 -4.46727 0
M  V30 3356 C 309.754 2.44843 -3.65705 0
M  V30 3357 H 306.873 0.283582 -0.680257 0
M  V30 3358 H 309.515 0.0474352 -1.89941 0
M  V30 3359 H 307.665 2.12897 -3.24972 0
M  V30 3360 H 309.337 -0.0970111 -4.61198 0
M  V30 3361 H 307.58 -0.160606 -4.33503 0
M  V30 3362 H 308.251 1.064 -5.41648 0
M  V30 3363 H 310.727 1.92135 -3.69085 0
M  V30 3364 H 309.603 2.92018 -4.64776 0
M  V30 3365 H 309.864 3.29197 -2.95096 0
M  V30 3366 N 308.923 1.53595 0.353017 0
M  V30 3367 C 310.339 1.43648 0.695516 0
M  V30 3368 C 310.539 0.585617 1.92802 0
M  V30 3369 O 309.595 0.0729223 2.52395 0
M  V30 3370 C 310.908 2.8701 0.896991 0
M  V30 3371 C 312.456 2.96723 0.996209 0
M  V30 3372 C 312.931 4.41173 1.23007 0
M  V30 3373 N 314.422 4.44657 1.29749 0
M  V30 3374 C 315.157 5.53547 1.49577 0
M  V30 3375 N 314.653 6.72461 1.66639 0
M  V30 3376 N 316.446 5.41145 1.52048 0
M  V30 3377 H 308.597 2.07415 -0.457481 0
M  V30 3378 H 310.86 0.9372 -0.142687 0
M  V30 3379 H 310.566 3.51644 0.0629938 0
M  V30 3380 H 310.44 3.31401 1.80148 0
M  V30 3381 H 312.827 2.32235 1.82074 0
M  V30 3382 H 312.908 2.55707 0.0688331 0
M  V30 3383 H 312.552 5.06238 0.410505 0
M  V30 3384 H 312.482 4.79772 2.17086 0
M  V30 3385 H 314.973 3.58963 1.18126 0
M  V30 3386 H 315.286 7.51214 1.81378 0
M  V30 3387 H 313.631 6.75423 1.63794 0
M  V30 3388 H 316.822 4.47205 1.38294 0
M  V30 3389 H 316.995 6.26068 1.67159 0
M  V30 3390 N 310.401 -0.613514 1.45168 0
M  V30 3391 C 311.647 -1.37471 1.49096 0
M  V30 3392 C 311.98 -1.93765 0.129901 0
M  V30 3393 O 311.255 -1.74707 -0.854858 0
M  V30 3394 C 311.538 -2.52701 2.56542 0
M  V30 3395 C 311.391 -2.01643 4.0207 0
M  V30 3396 C 312.71 -3.54849 2.60327 0
M  V30 3397 H 309.829 -0.498502 0.54283 0
M  V30 3398 H 312.471 -0.692125 1.76945 0
M  V30 3399 H 310.621 -3.10931 2.32926 0
M  V30 3400 H 312.293 -1.48108 4.36877 0
M  V30 3401 H 310.536 -1.32688 4.13009 0
M  V30 3402 H 311.207 -2.84681 4.72928 0
M  V30 3403 H 313.683 -3.0645 2.81474 0
M  V30 3404 H 312.559 -4.32973 3.37381 0
M  V30 3405 H 312.82 -4.10079 1.6519 0
M  V30 3406 N 311.879 -1.3236 -0.855495 0
M  V30 3407 C 313.119 -1.24187 -1.62348 0
M  V30 3408 C 313.483 0.193597 -1.91021 0
M  V30 3409 O 314.684 0.39904 -2.65822 0
M  V30 3410 C 312.955 -2.07661 -2.90881 0
M  V30 3411 S 314.514 -2.16505 -3.81669 0
M  V30 3412 H 311.332 -0.442076 -0.556857 0
M  V30 3413 H 313.934 -1.67198 -1.01317 0
M  V30 3414 H 312.638 -3.11018 -2.67761 0
M  V30 3415 H 312.169 -1.65425 -3.56929 0
M  V30 3416 H 314.184 -1.31394 -4.78487 0
M  V30 3417 N 313.357 1.07166 -1.15556 0
M  V30 3418 C 314.267 2.17947 -0.868116 0
M  V30 3419 C 315.283 1.73297 0.156297 0
M  V30 3420 O 316.459 2.01392 -0.0182327 0
M  V30 3421 C 313.524 3.44789 -0.36355 0
M  V30 3422 C 312.585 4.03996 -1.45209 0
M  V30 3423 C 311.818 5.24783 -0.971508 0
M  V30 3424 O 312.041 5.70109 0.182194 0
M  V30 3425 O 310.975 5.75715 -1.75603 0
M  V30 3426 H 314.801 2.4503 -1.79427 0
M  V30 3427 H 312.386 1.16539 -0.934824 0
M  V30 3428 H 314.268 4.21307 -0.0887113 0
M  V30 3429 H 312.943 3.19253 0.534708 0
M  V30 3430 H 311.85 3.29009 -1.78056 0
M  V30 3431 H 313.183 4.33808 -2.32533 0
M  V30 3432 N 314.835 0.952656 1.25548 0
M  V30 3433 C 316.246 0.647392 1.75116 0
M  V30 3434 C 316.597 -0.837274 1.77438 0
M  V30 3435 O 315.722 -1.65525 1.39393 0
M  V30 3436 C 316.317 1.16845 3.18014 0
M  V30 3437 C 314.876 0.913382 3.6515 0
M  V30 3438 C 314.023 1.31265 2.44264 0
M  V30 3439 H 316.974 1.12968 1.11462 0
M  V30 3440 H 316.995 0.527606 3.76824 0
M  V30 3441 H 316.507 2.24902 3.16292 0
M  V30 3442 H 314.608 -0.152316 3.72289 0
M  V30 3443 H 314.721 1.54845 4.53387 0
M  V30 3444 H 313.085 0.731028 2.43984 0
M  V30 3445 H 313.868 2.40239 2.45234 0
M  V30 3446 N 316.313 -1.40141 0.720998 0
M  V30 3447 C 317.553 -2.02644 0.267335 0
M  V30 3448 C 317.917 -1.55948 -1.12001 0
M  V30 3449 O 319.118 -2.10552 -1.67097 0
M  V30 3450 C 317.389 -3.55679 0.350281 0
M  V30 3451 S 318.948 -4.38793 -0.0256004 0
M  V30 3452 H 315.766 -0.703105 0.105664 0
M  V30 3453 H 318.368 -1.71175 0.944416 0
M  V30 3454 H 317.072 -3.87157 1.36153 0
M  V30 3455 H 316.603 -3.91883 -0.345096 0
M  V30 3456 H 318.618 -4.803 -1.24604 0
M  V30 3457 N 317.792 -0.46758 -1.50504 0
M  V30 3458 C 319.022 0.086288 -2.0642 0
M  V30 3459 C 319.43 1.34369 -1.33197 0
M  V30 3460 O 318.773 1.79431 -0.393747 0
M  V30 3461 C 318.835 0.443846 -3.5675 0
M  V30 3462 C 318.499 -0.711035 -4.51435 0
M  V30 3463 C 319.496 -1.59205 -4.94924 0
M  V30 3464 C 317.181 -0.900363 -4.94165 0
M  V30 3465 C 319.175 -2.64683 -5.79846 0
M  V30 3466 C 316.862 -1.95837 -5.7887 0
M  V30 3467 C 317.86 -2.82997 -6.21612 0
M  V30 3468 O 317.548 -3.86977 -7.0463 0
M  V30 3469 H 317.28 -0.00217814 -0.675996 0
M  V30 3470 H 319.834 -0.654346 -1.94698 0
M  V30 3471 H 318.064 1.23762 -3.6636 0
M  V30 3472 H 319.753 0.932386 -3.95046 0
M  V30 3473 H 320.519 -1.45745 -4.62583 0
M  V30 3474 H 316.398 -0.231427 -4.60419 0
M  V30 3475 H 319.942 -3.32745 -6.13128 0
M  V30 3476 H 315.839 -2.09305 -6.10624 0
M  V30 3477 H 316.607 -3.83923 -7.22873 0
M  V30 3478 N 319.27 1.56325 -0.20005 0
M  V30 3479 C 320.18 2.22931 0.730668 0
M  V30 3480 C 321.196 1.22997 1.23076 0
M  V30 3481 O 322.372 1.55748 1.27689 0
M  V30 3482 C 319.437 2.87948 1.93098 0
M  V30 3483 C 318.498 4.03166 1.47497 0
M  V30 3484 C 317.731 4.65073 2.61807 0
M  V30 3485 O 317.954 4.25913 3.79413 0
M  V30 3486 O 316.888 5.54452 2.34237 0
M  V30 3487 H 320.714 3.03084 0.193391 0
M  V30 3488 H 318.299 1.49371 0.0294621 0
M  V30 3489 H 320.181 3.29063 2.6324 0
M  V30 3490 H 318.856 2.10771 2.45677 0
M  V30 3491 H 317.763 3.66664 0.742201 0
M  V30 3492 H 319.096 4.82022 0.995796 0
M  V30 3493 N 320.748 -0.0735177 1.57428 0
M  V30 3494 C 321.68 -1.11423 2.00294 0
M  V30 3495 C 322.693 -1.35084 0.908637 0
M  V30 3496 O 323.882 -1.33355 1.18654 0
M  V30 3497 C 320.982 -2.46548 2.32523 0
M  V30 3498 C 320.155 -2.42867 3.63778 0
M  V30 3499 C 319.214 -3.60087 3.83697 0
M  V30 3500 O 318.24 -3.41595 4.55304 0
M  V30 3501 N 319.442 -4.80372 3.25919 0
M  V30 3502 H 322.207 -0.749206 2.90184 0
M  V30 3503 H 319.768 -0.262195 1.59763 0
M  V30 3504 H 321.76 -3.23607 2.43024 0
M  V30 3505 H 320.33 -2.75059 1.48531 0
M  V30 3506 H 319.55 -1.51206 3.64047 0
M  V30 3507 H 320.838 -2.37506 4.49965 0
M  V30 3508 H 320.236 -4.983 2.67795 0
M  V30 3509 H 318.793 -5.54948 3.41871 0
M  V30 3510 N 322.226 -1.5378 -0.344866 0
M  V30 3511 C 323.156 -1.84662 -1.42906 0
M  V30 3512 C 324.137 -0.701648 -1.54955 0
M  V30 3513 O 325.322 -0.953438 -1.69184 0
M  V30 3514 C 322.452 -2.05503 -2.79974 0
M  V30 3515 C 321.406 -3.21318 -2.82734 0
M  V30 3516 C 320.732 -3.2749 -4.22675 0
M  V30 3517 C 322.032 -4.59456 -2.48389 0
M  V30 3518 H 323.726 -2.75461 -1.17311 0
M  V30 3519 H 321.272 -1.32542 -0.562896 0
M  V30 3520 H 323.225 -2.25691 -3.55867 0
M  V30 3521 H 321.949 -1.11434 -3.07002 0
M  V30 3522 H 320.608 -3.00984 -2.09294 0
M  V30 3523 H 320.256 -2.31019 -4.4681 0
M  V30 3524 H 319.956 -4.05316 -4.25433 0
M  V30 3525 H 321.48 -3.49887 -5.00412 0
M  V30 3526 H 322.894 -4.79667 -3.13995 0
M  V30 3527 H 321.291 -5.39675 -2.62432 0
M  V30 3528 H 322.361 -4.63155 -1.4358 0
M  V30 3529 N 323.704 0.605807 -1.45491 0
M  V30 3530 C 324.652 1.73754 -1.54636 0
M  V30 3531 C 325.646 1.64207 -0.416219 0
M  V30 3532 O 326.852 1.69979 -0.592199 0
M  V30 3533 H 323.227 0.574073 -0.485741 0
M  V30 3534 H 325.198 1.63169 -2.49837 0
M  V30 3535 C 323.947 3.12135 -1.53189 0
M  V30 3536 H 323.27 3.20141 -2.39478 0
M  V30 3537 H 324.71 3.91147 -1.63645 0
M  V30 3538 C 323.169 3.35921 -0.256616 0
M  V30 3539 O 323.699 3.96194 0.662798 0
M  V30 3540 N 321.905 2.90204 -0.151751 0
M  V30 3541 H 321.452 2.41336 -0.90081 0
M  V30 3542 H 321.41 3.06492 0.700699 0
M  V30 3543 N 325.182 1.32811 0.848464 0
M  V30 3544 C 326.598 1.11937 1.13764 0
M  V30 3545 C 326.798 -0.0960789 2.01271 0
M  V30 3546 O 325.854 -0.779165 2.40178 0
M  V30 3547 C 327.167 2.402 1.809 0
M  V30 3548 C 328.715 2.46016 1.93508 0
M  V30 3549 C 329.19 3.74215 2.64059 0
M  V30 3550 N 330.681 3.75232 2.71579 0
M  V30 3551 C 331.416 4.71134 3.26833 0
M  V30 3552 N 330.912 5.77406 3.8285 0
M  V30 3553 N 332.705 4.58623 3.24995 0
M  V30 3554 H 324.856 2.1073 0.265855 0
M  V30 3555 H 327.119 0.930671 0.180431 0
M  V30 3556 H 326.825 3.29093 1.24058 0
M  V30 3557 H 326.699 2.51628 2.81004 0
M  V30 3558 H 329.086 1.57577 2.49506 0
M  V30 3559 H 329.167 2.38536 0.923811 0
M  V30 3560 H 328.811 4.63031 2.08722 0
M  V30 3561 H 328.741 3.78968 3.65637 0
M  V30 3562 H 331.232 2.98423 2.31845 0
M  V30 3563 H 331.545 6.46632 4.23187 0
M  V30 3564 H 329.89 5.81152 3.81165 0
M  V30 3565 H 333.081 3.74762 2.80484 0
M  V30 3566 H 333.254 5.33535 3.67756 0
M  V30 3567 N 326.66 -1.06551 1.16123 0
M  V30 3568 C 327.607 -2.13961 0.865414 0
M  V30 3569 C 328.577 -1.65066 -0.185055 0
M  V30 3570 O 329.762 -1.90732 -0.05083 0
M  V30 3571 C 326.902 -3.43113 0.369776 0
M  V30 3572 C 326.015 -4.05756 1.48276 0
M  V30 3573 C 325.15 -5.22773 0.942414 0
M  V30 3574 C 324.189 -5.77395 2.03179 0
M  V30 3575 N 323.326 -6.85731 1.50721 0
M  V30 3576 H 328.166 -2.38605 1.78527 0
M  V30 3577 H 325.703 -1.17072 0.890646 0
M  V30 3578 H 327.661 -4.17151 0.0640643 0
M  V30 3579 H 326.291 -3.18695 -0.513143 0
M  V30 3580 H 325.343 -3.29292 1.9045 0
M  V30 3581 H 326.655 -4.42351 2.30493 0
M  V30 3582 H 325.809 -6.03827 0.589729 0
M  V30 3583 H 324.548 -4.87618 0.0895191 0
M  V30 3584 H 323.553 -4.94981 2.3932 0
M  V30 3585 H 324.778 -6.14603 2.8886 0
M  V30 3586 H 322.724 -6.52499 0.676811 0
M  V30 3587 H 322.641 -7.21254 2.26557 0
M  V30 3588 H 323.909 -7.7047 1.18303 0
M  V30 3589 N 328.138 -0.959301 -1.25041 0
M  V30 3590 C 329.101 -0.487677 -2.23952 0
M  V30 3591 C 330.101 0.41119 -1.55454 0
M  V30 3592 O 331.291 0.207825 -1.72956 0
M  V30 3593 C 328.423 0.294807 -3.39623 0
M  V30 3594 H 329.616 -1.36198 -2.67189 0
M  V30 3595 H 327.169 -0.743042 -1.37508 0
M  V30 3596 H 327.904 1.18658 -3.01813 0
M  V30 3597 H 327.689 -0.35012 -3.90534 0
M  V30 3598 H 329.179 0.614089 -4.1306 0
M  V30 3599 N 329.616 1.39756 -0.72842 0
M  V30 3600 C 330.526 2.34444 -0.0855374 0
M  V30 3601 C 331.542 1.57976 0.729356 0
M  V30 3602 O 332.718 1.90301 0.659346 0
M  V30 3603 C 329.783 3.36965 0.815798 0
M  V30 3604 C 328.844 4.29299 -0.0105996 0
M  V30 3605 C 328.077 5.26923 0.84781 0
M  V30 3606 O 328.3 5.30859 2.08673 0
M  V30 3607 O 327.234 6.01249 0.279969 0
M  V30 3608 H 331.06 2.91065 -0.866892 0
M  V30 3609 H 328.645 1.4117 -0.48902 0
M  V30 3610 H 330.527 3.99804 1.33171 0
M  V30 3611 H 329.202 2.82739 1.57608 0
M  V30 3612 H 328.109 3.69703 -0.571877 0
M  V30 3613 H 329.442 4.86712 -0.73295 0
M  V30 3614 N 331.094 0.475555 1.50254 0
M  V30 3615 C 332.342 -0.077738 2.0195 0
M  V30 3616 C 332.663 -1.39813 1.35931 0
M  V30 3617 O 331.933 -1.89249 0.506123 0
M  V30 3618 H 330.513 -0.031719 0.746326 0
M  V30 3619 H 333.175 0.626995 1.84539 0
M  V30 3620 H 332.271 -0.225995 3.11281 0
M  V30 3621 N 332.573 -1.56217 0.208337 0
M  V30 3622 C 333.52 -2.19699 -0.707192 0
M  V30 3623 C 334.49 -1.14836 -1.20008 0
M  V30 3624 O 335.675 -1.4314 -1.26157 0
M  V30 3625 C 332.815 -2.87061 -1.91546 0
M  V30 3626 C 331.928 -4.06483 -1.46271 0
M  V30 3627 C 331.063 -4.61665 -2.62752 0
M  V30 3628 C 330.102 -5.73417 -2.14147 0
M  V30 3629 N 329.239 -6.22948 -3.23853 0
M  V30 3630 H 334.079 -2.97575 -0.159111 0
M  V30 3631 H 331.616 -1.46948 -0.0667874 0
M  V30 3632 H 333.574 -3.24294 -2.62468 0
M  V30 3633 H 332.204 -2.11725 -2.43664 0
M  V30 3634 H 331.256 -3.74825 -0.648886 0
M  V30 3635 H 332.568 -4.87271 -1.06622 0
M  V30 3636 H 331.722 -5.01272 -3.41776 0
M  V30 3637 H 330.461 -3.80013 -3.05682 0
M  V30 3638 H 329.466 -5.33326 -1.33581 0
M  V30 3639 H 330.691 -6.56897 -1.72232 0
M  V30 3640 H 328.637 -5.44213 -3.6629 0
M  V30 3641 H 328.554 -6.98823 -2.88414 0
M  V30 3642 H 329.822 -6.6721 -4.03052 0
M  V30 3643 N 334.051 0.0651679 -1.57465 0
M  V30 3644 C 335.014 1.06117 -2.03155 0
M  V30 3645 C 336.014 1.31204 -0.929632 0
M  V30 3646 O 337.204 1.26813 -1.19432 0
M  V30 3647 C 334.336 2.4032 -2.41783 0
M  V30 3648 H 335.529 0.667231 -2.92383 0
M  V30 3649 H 333.082 0.311075 -1.53173 0
M  V30 3650 H 333.817 2.84532 -1.55601 0
M  V30 3651 H 333.602 2.23451 -3.22199 0
M  V30 3652 H 335.092 3.11898 -2.77685 0
M  V30 3653 N 335.529 1.53961 0.336706 0
M  V30 3654 C 336.757 1.75483 1.09605 0
M  V30 3655 C 337.172 0.4972 1.82136 0
M  V30 3656 O 336.529 -0.53149 1.74589 0
M  V30 3657 C 336.58 2.93943 2.10428 0
M  V30 3658 O 336.301 4.14842 1.40846 0
M  V30 3659 C 337.802 3.27571 2.98684 0
M  V30 3660 H 335.022 0.586166 0.326574 0
M  V30 3661 H 337.566 2.00808 0.38683 0
M  V30 3662 H 335.721 2.70929 2.76905 0
M  V30 3663 H 336.135 4.81383 2.08255 0
M  V30 3664 H 337.609 4.13791 3.6535 0
M  V30 3665 H 338.086 2.44168 3.65074 0
M  V30 3666 H 338.692 3.52615 2.37787 0
M  V30 3667 N 337.007 -0.598083 1.45811 0
M  V30 3668 C 338.232 -1.3881 1.54099 0
M  V30 3669 C 338.657 -1.8726 0.177578 0
M  V30 3670 O 338.015 -1.6069 -0.839541 0
M  V30 3671 C 338.063 -2.56217 2.53743 0
M  V30 3672 O 337.167 -3.5716 2.06182 0
M  V30 3673 H 336.508 -0.414024 0.519115 0
M  V30 3674 H 339.038 -0.726971 1.91249 0
M  V30 3675 H 339.048 -3.03337 2.72856 0
M  V30 3676 H 337.723 -2.20303 3.5276 0
M  V30 3677 H 336.3 -3.16624 1.96987 0
M  V30 3678 N 338.485 -1.33259 -0.841409 0
M  V30 3679 C 339.713 -1.27605 -1.62864 0
M  V30 3680 C 340.128 0.153507 -1.88175 0
M  V30 3681 O 339.485 1.09485 -1.46011 0
M  V30 3682 C 339.536 -2.04596 -2.98031 0
M  V30 3683 O 339.257 -3.41975 -2.73834 0
M  V30 3684 C 340.758 -2.06122 -3.92465 0
M  V30 3685 H 337.978 -0.439718 -0.506842 0
M  V30 3686 H 340.522 -1.75591 -1.04824 0
M  V30 3687 H 338.677 -1.60299 -3.5268 0
M  V30 3688 H 339.091 -3.81549 -3.59889 0
M  V30 3689 H 340.565 -2.64451 -4.84531 0
M  V30 3690 H 341.042 -1.05083 -4.26444 0
M  V30 3691 H 341.648 -2.50427 -3.43753 0
M  V30 3692 N 339.963 1.05934 -1.16686 0
M  V30 3693 C 341.191 1.8249 -0.974929 0
M  V30 3694 C 341.606 1.82679 0.476861 0
M  V30 3695 O 340.963 1.2486 1.33103 0
M  V30 3696 C 341.014 3.28943 -1.49929 0
M  V30 3697 O 340.735 3.28886 -2.89423 0
M  V30 3698 C 342.236 4.22215 -1.35089 0
M  V30 3699 H 339.456 0.575295 -0.345365 0
M  V30 3700 H 342 1.33631 -1.548 0
M  V30 3701 H 340.155 3.751 -0.968423 0
M  V30 3702 H 340.569 4.20493 -3.13506 0
M  V30 3703 H 342.043 5.22987 -1.76603 0
M  V30 3704 H 342.52 4.38195 -0.296935 0
M  V30 3705 H 343.126 3.81907 -1.87155 0
M  V30 3706 N 341.441 0.965919 1.2453 0
M  V30 3707 C 342.351 0.502154 2.29163 0
M  V30 3708 C 343.367 -0.436017 1.68448 0
M  V30 3709 O 344.543 -0.309497 1.99008 0
M  V30 3710 C 341.608 -0.201956 3.46111 0
M  V30 3711 C 340.669 0.775821 4.22232 0
M  V30 3712 C 339.902 0.105217 5.33596 0
M  V30 3713 O 340.125 -1.10683 5.59558 0
M  V30 3714 O 339.059 0.796475 5.96607 0
M  V30 3715 H 342.885 1.37194 2.70946 0
M  V30 3716 H 340.47 0.732875 1.30189 0
M  V30 3717 H 342.352 -0.597564 4.17142 0
M  V30 3718 H 341.027 -1.04673 3.06309 0
M  V30 3719 H 339.934 1.22185 3.53584 0
M  V30 3720 H 341.267 1.58896 4.65846 0
M  V30 3721 N 342.919 -1.39368 0.735821 0
M  V30 3722 C 343.849 -2.33234 0.111506 0
M  V30 3723 C 344.83 -1.53954 -0.723334 0
M  V30 3724 O 346.015 -1.82344 -0.668147 0
M  V30 3725 C 343.145 -3.38057 -0.795917 0
M  V30 3726 C 342.099 -4.2795 -0.065172 0
M  V30 3727 C 341.425 -5.23479 -1.08967 0
M  V30 3728 C 342.725 -5.10741 1.09273 0
M  V30 3729 H 344.419 -2.85692 0.895571 0
M  V30 3730 H 341.965 -1.37364 0.432109 0
M  V30 3731 H 343.918 -4.02675 -1.24221 0
M  V30 3732 H 342.642 -2.8404 -1.61211 0
M  V30 3733 H 341.301 -3.64813 0.361511 0
M  V30 3734 H 340.949 -4.65758 -1.89944 0
M  V30 3735 H 340.649 -5.84472 -0.605489 0
M  V30 3736 H 342.173 -5.90974 -1.53565 0
M  V30 3737 H 343.587 -5.68699 0.724841 0
M  V30 3738 H 341.984 -5.8088 1.50659 0
M  V30 3739 H 343.054 -4.45525 1.91404 0
M  V30 3740 N 344.397 -0.483516 -1.5 0
M  V30 3741 C 345.808 -0.0314176 -1.86674 0
M  V30 3742 C 346.159 1.37728 -1.39733 0
M  V30 3743 O 345.284 2.02327 -0.767635 0
M  V30 3744 C 345.879 -0.0502376 -3.38763 0
M  V30 3745 C 344.438 0.346442 -3.74802 0
M  V30 3746 C 343.585 -0.430366 -2.7394 0
M  V30 3747 H 346.536 -0.697182 -1.42566 0
M  V30 3748 H 346.557 0.749116 -3.73053 0
M  V30 3749 H 346.069 -1.07563 -3.72897 0
M  V30 3750 H 344.17 1.37572 -3.46273 0
M  V30 3751 H 344.283 0.0391486 -4.79084 0
M  V30 3752 H 342.647 0.117557 -2.54429 0
M  V30 3753 H 343.43 -1.4555 -3.10918 0
M  V30 3754 N 345.875 1.56104 -0.216619 0
M  V30 3755 C 347.286 1.844 0.292128 0
M  V30 3756 C 347.637 1.13788 1.59833 0
M  V30 3757 O 346.762 0.405888 2.12559 0
M  V30 3758 C 347.357 3.3452 0.53681 0
M  V30 3759 C 345.916 3.63151 0.989876 0
M  V30 3760 C 345.063 2.77255 0.0502302 0
M  V30 3761 H 348.014 1.52481 -0.439926 0
M  V30 3762 H 348.035 3.54459 1.38345 0
M  V30 3763 H 347.547 3.85885 -0.414031 0
M  V30 3764 H 345.648 3.17238 1.95425 0
M  V30 3765 H 345.761 4.71177 0.867698 0
M  V30 3766 H 344.125 2.48555 0.556117 0
M  V30 3767 H 344.908 3.31416 -0.89544 0
M  V30 3768 N 347.353 -0.0568162 1.57498 0
M  V30 3769 C 348.263 -1.08346 2.08083 0
M  V30 3770 C 349.279 -1.41439 1.01346 0
M  V30 3771 O 350.455 -1.51316 1.32912 0
M  V30 3772 C 347.52 -2.37352 2.52715 0
M  V30 3773 C 346.581 -2.11093 3.73816 0
M  V30 3774 C 345.814 -3.33949 4.1631 0
M  V30 3775 O 346.037 -4.43622 3.58547 0
M  V30 3776 O 344.971 -3.21279 5.08983 0
M  V30 3777 H 348.797 -0.683667 2.95905 0
M  V30 3778 H 346.382 -0.271965 1.46904 0
M  V30 3779 H 348.264 -3.13246 2.81877 0
M  V30 3780 H 346.939 -2.76681 1.68016 0
M  V30 3781 H 345.846 -1.32856 3.49714 0
M  V30 3782 H 347.179 -1.76637 4.59413 0
M  V30 3783 N 348.832 -1.54138 -0.328536 0
M  V30 3784 C 350.062 -1.75807 -1.08516 0
M  V30 3785 C 350.47 -0.50428 -1.82356 0
M  V30 3786 O 349.813 0.534451 -1.75754 0
M  V30 3787 C 349.875 -2.89423 -2.13248 0
M  V30 3788 C 349.539 -4.28504 -1.5885 0
M  V30 3789 C 350.536 -5.09536 -1.03289 0
M  V30 3790 C 348.221 -4.75034 -1.63243 0
M  V30 3791 C 350.215 -6.35206 -0.52845 0
M  V30 3792 C 347.902 -6.00672 -1.12411 0
M  V30 3793 C 348.9 -6.80592 -0.573062 0
M  V30 3794 O 348.588 -8.03867 -0.0723692 0
M  V30 3795 H 348.32 -0.590633 -0.328829 0
M  V30 3796 H 350.874 -2.01819 -0.381868 0
M  V30 3797 H 349.104 -2.5897 -2.87178 0
M  V30 3798 H 350.793 -2.98921 -2.74592 0
M  V30 3799 H 351.559 -4.74745 -0.99206 0
M  V30 3800 H 347.438 -4.12875 -2.05074 0
M  V30 3801 H 350.982 -6.97532 -0.0976774 0
M  V30 3802 H 346.879 -6.34955 -1.162 0
M  V30 3803 H 347.647 -8.18283 -0.188258 0
M  V30 3804 N 350.31 0.590341 -1.46126 0
M  V30 3805 C 351.24 1.71032 -1.58966 0
M  V30 3806 C 352.221 1.64302 -0.440335 0
M  V30 3807 O 353.406 1.82436 -0.665634 0
M  V30 3808 C 350.536 3.09665 -1.57241 0
M  V30 3809 C 349.49 3.31221 -2.71066 0
M  V30 3810 C 348.816 4.70303 -2.54399 0
M  V30 3811 C 350.116 3.19796 -4.1295 0
M  V30 3812 H 351.81 1.60543 -2.52718 0
M  V30 3813 H 349.356 0.770933 -1.21625 0
M  V30 3814 H 351.309 3.87831 -1.64819 0
M  V30 3815 H 350.033 3.21036 -0.600289 0
M  V30 3816 H 348.692 2.55452 -2.62944 0
M  V30 3817 H 348.34 4.78429 -1.55288 0
M  V30 3818 H 348.04 4.85679 -3.30741 0
M  V30 3819 H 349.564 5.50647 -2.63857 0
M  V30 3820 H 350.978 3.87815 -4.22223 0
M  V30 3821 H 349.375 3.46696 -4.89818 0
M  V30 3822 H 350.445 2.16983 -4.33643 0
M  V30 3823 N 351.788 1.33704 0.83433 0
M  V30 3824 C 353.016 1.28467 1.62185 0
M  V30 3825 C 353.431 -0.143526 1.88254 0
M  V30 3826 O 352.788 -1.08709 1.4659 0
M  V30 3827 C 352.839 2.06174 2.96942 0
M  V30 3828 O 352.56 3.43422 2.72016 0
M  V30 3829 C 354.061 2.08201 3.91366 0
M  V30 3830 H 351.281 0.4424 0.504503 0
M  V30 3831 H 353.825 1.76145 1.03891 0
M  V30 3832 H 351.98 1.62167 3.51825 0
M  V30 3833 H 352.394 3.83453 3.57861 0
M  V30 3834 H 353.868 2.67017 4.83121 0
M  V30 3835 H 354.345 1.07343 4.2588 0
M  V30 3836 H 354.951 2.52246 3.42421 0
M  V30 3837 N 353.266 -1.05314 1.17247 0
M  V30 3838 C 354.491 -1.82509 0.985148 0
M  V30 3839 C 354.916 -1.82343 -0.461788 0
M  V30 3840 O 354.274 -1.23151 -1.33055 0
M  V30 3841 C 354.322 -3.26566 1.52929 0
M  V30 3842 O 353.426 -4.05666 0.742225 0
M  V30 3843 H 352.767 -0.564347 0.349869 0
M  V30 3844 H 355.297 -1.32718 1.55715 0
M  V30 3845 H 355.307 -3.77369 1.55103 0
M  V30 3846 H 353.982 -3.26001 2.58256 0
M  V30 3847 H 352.559 -3.64397 0.791794 0
M  V30 3848 N 354.744 -0.972509 -1.24016 0
M  V30 3849 C 356.155 -0.67517 -1.74064 0
M  V30 3850 C 356.506 0.808939 -1.78747 0
M  V30 3851 O 355.631 1.63286 -1.42009 0
M  V30 3852 C 356.226 -1.21889 -3.16115 0
M  V30 3853 C 354.785 -0.971358 -3.6365 0
M  V30 3854 C 353.932 -1.35134 -2.42145 0
M  V30 3855 H 356.883 -1.14727 -1.09651 0
M  V30 3856 H 356.904 -0.587489 -3.75937 0
M  V30 3857 H 356.416 -2.29906 -3.12674 0
M  V30 3858 H 354.517 0.0930686 -3.72484 0
M  V30 3859 H 354.63 -1.62039 -4.50866 0
M  V30 3860 H 352.994 -0.769751 -2.4279 0
M  V30 3861 H 353.777 -2.4411 -2.41381 0
M  V30 3862 N 356.222 1.38976 -0.743202 0
M  V30 3863 C 357.152 2.33171 -0.123873 0
M  V30 3864 C 358.133 1.54336 0.71516 0
M  V30 3865 O 359.318 1.82696 0.658467 0
M  V30 3866 C 356.448 3.38474 0.777978 0
M  V30 3867 C 355.402 4.27979 0.0424758 0
M  V30 3868 C 354.728 5.2405 1.06189 0
M  V30 3869 C 356.028 5.10155 -1.1198 0
M  V30 3870 H 357.722 2.85213 -0.910709 0
M  V30 3871 H 355.268 1.37133 -0.439388 0
M  V30 3872 H 357.221 4.03328 1.22084 0
M  V30 3873 H 355.945 2.84891 1.59702 0
M  V30 3874 H 354.604 3.64616 -0.380853 0
M  V30 3875 H 354.252 4.66758 1.87472 0
M  V30 3876 H 353.952 5.84785 0.574485 0
M  V30 3877 H 355.476 5.9178 1.50428 0
M  V30 3878 H 356.89 5.68307 -0.75499 0
M  V30 3879 H 355.287 5.80073 -1.53738 0
M  V30 3880 H 356.357 4.44504 -1.93764 0
M  V30 3881 N 357.7 0.491464 1.49741 0
M  V30 3882 C 358.925 -0.0557177 2.07325 0
M  V30 3883 C 359.35 -1.30925 1.35056 0
M  V30 3884 O 358.708 -1.76733 0.404365 0
M  V30 3885 C 358.756 -0.302074 3.59333 0
M  V30 3886 O 357.86 -1.37868 3.88672 0
M  V30 3887 H 357.201 0.0219956 0.663636 0
M  V30 3888 H 359.731 0.688352 1.92673 0
M  V30 3889 H 359.741 -0.536464 4.04458 0
M  V30 3890 H 358.416 0.61383 4.11345 0
M  V30 3891 H 356.993 -1.12999 3.55367 0
M  V30 3892 N 359.178 -1.55987 0.224894 0
M  V30 3893 C 360.11 -2.17722 -0.716224 0
M  V30 3894 C 361.123 -1.14723 -1.15509 0
M  V30 3895 O 362.312 -1.41688 -1.08567 0
M  V30 3896 C 359.412 -2.74873 -1.98238 0
M  V30 3897 C 358.585 -4.03074 -1.69853 0
M  V30 3898 C 357.644 -4.44757 -2.81208 0
M  V30 3899 O 356.67 -5.11587 -2.49534 0
M  V30 3900 N 357.872 -4.10716 -4.10235 0
M  V30 3901 H 360.637 -2.99109 -0.188123 0
M  V30 3902 H 358.198 -1.6184 0.0440123 0
M  V30 3903 H 360.19 -2.99727 -2.7193 0
M  V30 3904 H 358.76 -1.9777 -2.42086 0
M  V30 3905 H 357.98 -3.86041 -0.797875 0
M  V30 3906 H 359.268 -4.86701 -1.48324 0
M  V30 3907 H 358.666 -3.57019 -4.38809 0
M  V30 3908 H 357.223 -4.40455 -4.80461 0
M  V30 3909 N 360.656 0.0484629 -1.57525 0
M  V30 3910 C 361.588 1.08222 -2.02041 0
M  V30 3911 C 362.601 1.33621 -0.930012 0
M  V30 3912 O 363.79 1.3145 -1.20761 0
M  V30 3913 C 360.89 2.42818 -2.36416 0
M  V30 3914 C 360.063 2.37049 -3.67596 0
M  V30 3915 C 359.122 3.53937 -3.89378 0
M  V30 3916 O 358.148 3.34308 -4.60681 0
M  V30 3917 N 359.35 4.75126 -3.3352 0
M  V30 3918 H 362.115 0.702946 -2.9134 0
M  V30 3919 H 359.676 0.236745 -1.6016 0
M  V30 3920 H 361.668 3.197 -2.48141 0
M  V30 3921 H 360.238 2.72661 -1.52888 0
M  V30 3922 H 359.458 1.45395 -3.66407 0
M  V30 3923 H 360.746 2.30318 -4.53686 0
M  V30 3924 H 360.144 4.93976 -2.75688 0
M  V30 3925 H 358.701 5.49439 -3.50656 0
M  V30 3926 N 362.134 1.5431 0.320358 0
M  V30 3927 C 363.359 1.76954 1.08175 0
M  V30 3928 C 363.784 0.518193 1.80821 0
M  V30 3929 O 363.142 -0.530411 1.73368 0
M  V30 3930 C 363.19 2.96451 2.05303 0
M  V30 3931 O 362.294 2.68221 3.13259 0
M  V30 3932 H 361.635 0.586275 0.311733 0
M  V30 3933 H 364.165 2.01342 0.363676 0
M  V30 3934 H 364.175 3.23887 2.48116 0
M  V30 3935 H 362.85 3.87196 1.51829 0
M  V30 3936 H 361.427 2.51744 2.75099 0
M  V30 3937 N 363.613 -0.582584 1.46437 0
M  V30 3938 C 364.545 -1.70618 1.53043 0
M  V30 3939 C 365.558 -1.57322 0.418769 0
M  V30 3940 O 366.747 -1.64744 0.687136 0
M  V30 3941 C 363.847 -3.08869 1.39474 0
M  V30 3942 C 363.02 -3.48166 2.64762 0
M  V30 3943 C 362.079 -4.65478 2.4539 0
M  V30 3944 O 361.105 -4.71333 3.19114 0
M  V30 3945 N 362.307 -5.60365 1.51564 0
M  V30 3946 H 365.072 -1.65405 2.49923 0
M  V30 3947 H 362.633 -0.768567 1.42494 0
M  V30 3948 H 364.625 -3.85143 1.24287 0
M  V30 3949 H 363.195 -3.08449 0.507758 0
M  V30 3950 H 362.415 -2.61598 2.9489 0
M  V30 3951 H 363.703 -3.71188 3.4799 0
M  V30 3952 H 363.101 -5.5837 0.907705 0
M  V30 3953 H 361.658 -6.36068 1.4234 0
M  V30 3954 N 365.091 -1.34144 -0.827227 0
M  V30 3955 C 366.021 -1.28005 -1.95287 0
M  V30 3956 C 367.002 -0.158321 -1.69362 0
M  V30 3957 O 368.187 -0.349987 -1.9102 0
M  V30 3958 C 365.317 -1.03036 -3.31664 0
M  V30 3959 C 364.271 -2.11628 -3.72019 0
M  V30 3960 C 363.597 -1.71854 -5.0633 0
M  V30 3961 C 364.897 -3.53417 -3.8457 0
M  V30 3962 H 366.591 -2.22187 -2.00682 0
M  V30 3963 H 364.137 -1.0696 -0.964135 0
M  V30 3964 H 366.09 -0.973863 -4.09993 0
M  V30 3965 H 364.814 -0.0529391 -3.26557 0
M  V30 3966 H 363.473 -2.16339 -2.95961 0
M  V30 3967 H 363.121 -0.727841 -4.97706 0
M  V30 3968 H 362.821 -2.44531 -5.34302 0
M  V30 3969 H 364.345 -1.67692 -5.87122 0
M  V30 3970 H 365.759 -3.51142 -4.5318 0
M  V30 3971 H 364.156 -4.24679 -4.2399 0
M  V30 3972 H 365.226 -3.91072 -2.86689 0
M  V30 3973 N 366.569 1.04691 -1.17803 0
M  V30 3974 C 367.98 1.59238 -0.974689 0
M  V30 3975 C 368.331 1.90306 0.477292 0
M  V30 3976 O 367.456 1.68846 1.35352 0
M  V30 3977 C 368.051 2.89318 -1.76296 0
M  V30 3978 C 366.61 3.40506 -1.60414 0
M  V30 3979 C 365.757 2.14172 -1.76141 0
M  V30 3980 H 368.708 0.874395 -1.32439 0
M  V30 3981 H 368.729 3.5944 -1.24833 0
M  V30 3982 H 368.241 2.66675 -2.81968 0
M  V30 3983 H 366.342 3.68175 -0.572519 0
M  V30 3984 H 366.455 4.14753 -2.39827 0
M  V30 3985 H 364.819 2.25176 -1.19028 0
M  V30 3986 H 365.602 1.93992 -2.83235 0
M  V30 3987 N 368.047 0.979072 1.23499 0
M  V30 3988 C 369.458 0.684391 1.73704 0
M  V30 3989 C 369.809 -0.799448 1.79174 0
M  V30 3990 O 368.934 -1.62531 1.42873 0
M  V30 3991 C 369.529 1.23564 3.15464 0
M  V30 3992 C 368.088 0.99063 3.6313 0
M  V30 3993 C 367.235 1.36416 2.41425 0
M  V30 3994 H 370.186 1.15307 1.09041 0
M  V30 3995 H 370.207 0.607417 3.7562 0
M  V30 3996 H 369.719 2.31561 3.1145 0
M  V30 3997 H 367.82 -0.0733136 3.72528 0
M  V30 3998 H 367.933 1.64427 4.5 0
M  V30 3999 H 366.297 0.782616 2.42378 0
M  V30 4000 H 367.08 2.45387 2.40083 0
M  V30 4001 N 369.525 -1.3858 0.750561 0
M  V30 4002 C 370.472 -2.30483 0.120835 0
M  V30 4003 C 371.442 -1.50022 -0.712923 0
M  V30 4004 O 372.627 -1.78662 -0.669676 0
M  V30 4005 C 369.767 -3.36431 -0.768666 0
M  V30 4006 C 368.88 -4.31927 0.0793922 0
M  V30 4007 C 368.015 -5.24944 -0.81283 0
M  V30 4008 C 367.054 -6.12088 0.0390447 0
M  V30 4009 N 366.191 -6.97412 -0.809969 0
M  V30 4010 H 371.031 -2.83761 0.91015 0
M  V30 4011 H 368.568 -1.39707 0.460463 0
M  V30 4012 H 370.526 -3.96462 -1.29898 0
M  V30 4013 H 369.156 -2.8457 -1.5238 0
M  V30 4014 H 368.208 -3.73382 0.727303 0
M  V30 4015 H 369.52 -4.93319 0.737401 0
M  V30 4016 H 368.674 -5.90078 -1.41042 0
M  V30 4017 H 367.413 -4.63911 -1.50458 0
M  V30 4018 H 366.418 -5.45952 0.649328 0
M  V30 4019 H 367.643 -6.75189 0.727809 0
M  V30 4020 H 365.589 -6.38931 -1.48672 0
M  V30 4021 H 365.506 -7.55712 -0.208789 0
M  V30 4022 H 366.774 -7.66959 -1.39263 0
M  V30 4023 N 371.003 -0.499398 -1.49478 0
M  V30 4024 C 372.419 -0.155261 -1.58843 0
M  V30 4025 C 372.619 1.34008 -1.50479 0
M  V30 4026 O 371.675 2.11589 -1.37791 0
M  V30 4027 C 372.988 -0.730636 -2.91689 0
M  V30 4028 C 374.536 -0.696599 -3.0515 0
M  V30 4029 C 375.011 -1.25001 -4.40612 0
M  V30 4030 N 376.502 -1.21064 -4.47099 0
M  V30 4031 C 377.237 -1.60905 -5.50361 0
M  V30 4032 N 376.733 -2.08331 -6.60735 0
M  V30 4033 N 378.526 -1.52331 -5.41065 0
M  V30 4034 H 370.677 -1.47162 -1.53158 0
M  V30 4035 H 372.94 -0.610309 -0.725415 0
M  V30 4036 H 372.646 -1.77928 -3.03372 0
M  V30 4037 H 372.52 -0.190161 -3.7672 0
M  V30 4038 H 374.907 0.343204 -2.93097 0
M  V30 4039 H 374.988 -1.2742 -2.21806 0
M  V30 4040 H 374.632 -2.28859 -4.53416 0
M  V30 4041 H 374.562 -0.64836 -5.22593 0
M  V30 4042 H 377.053 -0.863128 -3.67911 0
M  V30 4043 H 377.366 -2.36805 -7.35624 0
M  V30 4044 H 375.711 -2.12304 -6.6178 0
M  V30 4045 H 378.902 -1.151 -4.53729 0
M  V30 4046 H 379.075 -1.83704 -6.21415 0
M  V30 4047 N 372.481 1.55866 -0.233164 0
M  V30 4048 C 373.758 1.90471 0.444988 0
M  V30 4049 C 374.138 1.15209 1.7689 0
M  V30 4050 O 373.486 0.265119 2.26957 0
M  V30 4051 C 373.696 3.4333 0.626559 0
M  V30 4052 C 375.044 4.14319 0.92871 0
M  V30 4053 O 376.068 3.48993 0.712926 0
M  V30 4054 O 374.927 5.29846 1.33887 0
M  V30 4055 H 372.021 0.792347 0.236885 0
M  V30 4056 H 374.567 1.67437 -0.276211 0
M  V30 4057 H 373.339 3.90095 -0.306822 0
M  V30 4058 H 372.962 3.72181 1.39881 0
M  V30 4059 N 373.959 -0.0401083 1.57549 0
M  V30 4060 C 374.869 -1.06133 2.0922 0
M  V30 4061 C 375.885 -1.40356 1.0284 0
M  V30 4062 O 377.061 -1.49897 1.34509 0
M  V30 4063 C 374.126 -2.34658 2.55218 0
M  V30 4064 C 373.187 -2.07117 3.76033 0
M  V30 4065 C 372.42 -3.29514 4.19829 0
M  V30 4066 O 372.643 -4.39794 3.63232 0
M  V30 4067 O 371.577 -3.15863 5.12362 0
M  V30 4068 H 375.403 -0.652244 2.96613 0
M  V30 4069 H 372.988 -0.256368 1.47184 0
M  V30 4070 H 374.87 -3.10239 2.85184 0
M  V30 4071 H 373.545 -2.74883 1.70941 0
M  V30 4072 H 372.452 -1.29139 3.51104 0
M  V30 4073 H 373.785 -1.71754 4.61261 0
M  V30 4074 N 375.437 -1.54477 -0.31217 0
M  V30 4075 C 376.665 -1.77205 -1.068 0
M  V30 4076 C 377.08 -0.526114 -1.81321 0
M  V30 4077 O 376.437 0.503647 -1.75413 0
M  V30 4078 C 376.488 -2.97253 -2.05725 0
M  V30 4079 O 376.209 -4.1703 -1.34228 0
M  V30 4080 C 377.71 -3.32281 -2.93435 0
M  V30 4081 H 374.93 -0.591287 -0.317208 0
M  V30 4082 H 377.474 -2.01398 -0.354834 0
M  V30 4083 H 375.629 -2.753 -2.72559 0
M  V30 4084 H 376.043 -4.84636 -2.00571 0
M  V30 4085 H 377.517 -4.19551 -3.58721 0
M  V30 4086 H 377.994 -2.49945 -3.61143 0
M  V30 4087 H 378.6 -3.56353 -2.32147 0
M  V30 4088 N 376.915 0.57481 -1.46744 0
M  V30 4089 C 377.878 1.66533 -1.57478 0
M  V30 4090 C 378.878 1.54338 -0.451263 0
M  V30 4091 O 380.068 1.58814 -0.715813 0
M  V30 4092 C 377.2 3.05999 -1.50259 0
M  V30 4093 H 378.393 1.58372 -2.54673 0
M  V30 4094 H 375.946 0.793301 -1.34672 0
M  V30 4095 H 376.681 3.19709 -0.543725 0
M  V30 4096 H 376.466 3.16259 -2.31781 0
M  V30 4097 H 377.956 3.8537 -1.60872 0
M  V30 4098 N 378.394 1.34581 0.820102 0
M  V30 4099 C 379.324 1.29038 1.94606 0
M  V30 4100 C 380.305 0.1673 1.69275 0
M  V30 4101 O 381.49 0.360112 1.90832 0
M  V30 4102 C 378.62 1.04793 3.31113 0
M  V30 4103 C 377.574 2.13597 3.70891 0
M  V30 4104 C 376.9 1.74537 5.05412 0
M  V30 4105 C 378.2 3.55451 3.8269 0
M  V30 4106 H 379.894 2.23248 1.99501 0
M  V30 4107 H 377.44 1.0747 0.958449 0
M  V30 4108 H 379.393 0.995592 4.0947 0
M  V30 4109 H 378.117 0.0702565 3.26524 0
M  V30 4110 H 376.776 2.17905 2.9481 0
M  V30 4111 H 376.424 0.754226 4.97313 0
M  V30 4112 H 376.124 2.47361 5.32997 0
M  V30 4113 H 377.648 1.70803 5.86224 0
M  V30 4114 H 379.062 3.5354 4.51312 0
M  V30 4115 H 377.459 4.26922 4.21732 0
M  V30 4116 H 378.529 3.92587 2.84611 0
M  V30 4117 N 379.872 -1.04064 1.18357 0
M  V30 4118 C 380.804 -2.12114 0.868358 0
M  V30 4119 C 381.817 -1.62247 -0.134045 0
M  V30 4120 O 383.006 -1.78253 0.0937933 0
M  V30 4121 C 380.106 -3.37773 0.276132 0
M  V30 4122 C 379.279 -4.16874 1.3242 0
M  V30 4123 C 378.338 -5.20861 0.747662 0
M  V30 4124 O 377.364 -5.51141 1.42239 0
M  V30 4125 N 378.566 -5.78715 -0.454823 0
M  V30 4126 H 381.331 -2.39748 1.79836 0
M  V30 4127 H 378.892 -1.20258 1.08396 0
M  V30 4128 H 380.884 -4.04513 -0.123133 0
M  V30 4129 H 379.454 -3.07581 -0.557895 0
M  V30 4130 H 378.674 -3.45456 1.89878 0
M  V30 4131 H 379.962 -4.66516 2.03078 0
M  V30 4132 H 379.36 -5.56415 -1.02073 0
M  V30 4133 H 377.917 -6.46921 -0.79601 0
M  V30 4134 N 381.35 -0.985608 -1.22978 0
M  V30 4135 C 382.26 -0.538548 -2.28335 0
M  V30 4136 C 383.276 0.409163 -1.69121 0
M  V30 4137 O 384.452 0.277797 -1.99475 0
M  V30 4138 C 381.517 0.146867 -3.46389 0
M  V30 4139 C 380.578 -0.842896 -4.20944 0
M  V30 4140 C 379.811 -0.190095 -5.33361 0
M  V30 4141 O 380.034 1.01767 -5.61248 0
M  V30 4142 O 378.968 -0.891289 -5.95264 0
M  V30 4143 H 382.794 -1.41487 -2.68729 0
M  V30 4144 H 380.379 -0.753495 -1.29007 0
M  V30 4145 H 382.261 0.531125 -4.1804 0
M  V30 4146 H 380.936 0.997871 -3.07935 0
M  V30 4147 H 379.843 -1.27795 -3.51595 0
M  V30 4148 H 381.176 -1.66287 -4.6326 0
M  V30 4149 N 382.828 1.3818 -0.7579 0
M  V30 4150 C 383.738 2.3421 -0.135247 0
M  V30 4151 C 384.754 1.59487 0.695683 0
M  V30 4152 O 385.93 1.91657 0.618832 0
M  V30 4153 C 382.995 3.3862 0.744139 0
M  V30 4154 C 382.056 4.2918 -0.101658 0
M  V30 4155 C 381.289 5.28603 0.735851 0
M  V30 4156 O 381.512 5.35166 1.97366 0
M  V30 4157 O 380.446 6.01707 0.152372 0
M  V30 4158 H 384.272 2.8916 -0.928436 0
M  V30 4159 H 381.857 1.40101 -0.518855 0
M  V30 4160 H 383.739 4.02539 1.2466 0
M  V30 4161 H 382.414 2.86019 1.51575 0
M  V30 4162 H 381.321 3.68407 -0.650167 0
M  V30 4163 H 382.654 4.85048 -0.836024 0
M  V30 4164 N 384.306 0.507319 1.49211 0
M  V30 4165 C 385.216 -0.272136 2.33016 0
M  V30 4166 C 386.232 -0.961206 1.45041 0
M  V30 4167 O 387.408 -0.941191 1.78055 0
M  V30 4168 C 384.473 -1.31895 3.20631 0
M  V30 4169 C 383.534 -0.642648 4.24463 0
M  V30 4170 C 382.767 -1.63959 5.07891 0
M  V30 4171 O 382.99 -2.87007 4.92933 0
M  V30 4172 O 381.924 -1.19143 5.8999 0
M  V30 4173 H 385.75 0.413982 3.00865 0
M  V30 4174 H 383.335 0.268556 1.46966 0
M  V30 4175 H 385.217 -1.92446 3.7489 0
M  V30 4176 H 383.892 -1.98788 2.5547 0
M  V30 4177 H 382.799 0.00276252 3.741 0
M  V30 4178 H 384.132 -0.0160534 4.92197 0
M  V30 4179 N 385.784 -1.5574 0.241426 0
M  V30 4180 C 386.694 -2.2479 -0.671305 0
M  V30 4181 C 387.71 -1.26217 -1.19772 0
M  V30 4182 O 388.886 -1.59079 -1.23514 0
M  V30 4183 C 385.951 -2.92966 -1.85396 0
M  V30 4184 C 385.012 -4.06935 -1.36756 0
M  V30 4185 C 384.245 -4.71851 -2.49384 0
M  V30 4186 O 384.468 -4.35823 -3.67987 0
M  V30 4187 O 383.402 -5.60467 -2.19454 0
M  V30 4188 H 387.228 -3.0349 -0.112966 0
M  V30 4189 H 384.813 -1.49397 0.0101513 0
M  V30 4190 H 386.695 -3.35927 -2.54423 0
M  V30 4191 H 385.37 -2.17211 -2.40002 0
M  V30 4192 H 384.277 -3.68503 -0.644726 0
M  V30 4193 H 385.61 -4.84492 -0.867647 0
M  V30 4194 N 387.262 0.0317525 -1.57568 0
M  V30 4195 C 388.192 1.03274 -2.0942 0
M  V30 4196 C 389.173 1.3788 -0.996143 0
M  V30 4197 O 390.358 1.46811 -1.27122 0
M  V30 4198 C 387.488 2.33448 -2.57137 0
M  V30 4199 C 386.442 2.13091 -3.71182 0
M  V30 4200 C 385.768 3.49001 -4.05095 0
M  V30 4201 C 387.068 1.51928 -4.99715 0
M  V30 4202 H 388.762 0.60112 -2.93303 0
M  V30 4203 H 386.308 0.287705 -1.41097 0
M  V30 4204 H 388.261 3.03802 -2.92032 0
M  V30 4205 H 386.985 2.78665 -1.70333 0
M  V30 4206 H 385.644 1.45171 -3.36632 0
M  V30 4207 H 385.292 3.91862 -3.15362 0
M  V30 4208 H 384.992 3.36207 -4.81911 0
M  V30 4209 H 386.516 4.20721 -4.42522 0
M  V30 4210 H 387.93 2.12196 -5.32584 0
M  V30 4211 H 386.327 1.49716 -5.81124 0
M  V30 4212 H 387.397 0.484811 -4.8247 0
M  V30 4213 N 388.74 1.54641 0.303973 0
M  V30 4214 C 389.672 1.81754 1.39636 0
M  V30 4215 C 390.685 0.70035 1.46966 0
M  V30 4216 O 391.874 0.97778 1.49338 0
M  V30 4217 C 388.974 1.93785 2.7803 0
M  V30 4218 C 388.147 3.24156 2.93669 0
M  V30 4219 C 387.206 3.26641 4.12544 0
M  V30 4220 O 386.232 4.00187 4.04771 0
M  V30 4221 N 387.434 2.5182 5.23036 0
M  V30 4222 H 390.199 2.76031 1.16734 0
M  V30 4223 H 387.76 1.54178 0.494033 0
M  V30 4224 H 389.752 1.92852 3.55795 0
M  V30 4225 H 388.322 1.06515 2.93893 0
M  V30 4226 H 387.542 3.37887 2.03042 0
M  V30 4227 H 388.83 4.10195 3.01027 0
M  V30 4228 H 388.228 1.91692 5.32232 0
M  V30 4229 H 386.785 2.56644 5.99147 0
M  V30 4230 N 390.218 -0.567019 1.47046 0
M  V30 4231 C 391.148 -1.68482 1.61667 0
M  V30 4232 C 392.129 -1.6358 0.466418 0
M  V30 4233 O 393.314 -1.81354 0.694574 0
M  V30 4234 C 390.444 -3.07124 1.62148 0
M  V30 4235 C 389.398 -3.26867 2.76301 0
M  V30 4236 C 388.724 -4.66196 2.61849 0
M  V30 4237 C 390.024 -3.13186 4.17986 0
M  V30 4238 H 391.718 -1.56502 2.5524 0
M  V30 4239 H 389.264 -0.751486 1.22836 0
M  V30 4240 H 391.217 -3.8516 1.70968 0
M  V30 4241 H 389.941 -3.2004 0.651287 0
M  V30 4242 H 388.6 -2.51237 2.66975 0
M  V30 4243 H 388.248 -4.75898 1.62879 0
M  V30 4244 H 387.948 -4.80356 3.38425 0
M  V30 4245 H 389.472 -5.46379 2.72584 0
M  V30 4246 H 390.886 -3.81049 4.2834 0
M  V30 4247 H 389.283 -3.3886 4.95272 0
M  V30 4248 H 390.353 -2.10057 4.3704 0
M  V30 4249 N 391.696 -1.35014 -0.812953 0
M  V30 4250 C 392.659 -1.27292 -1.90602 0
M  V30 4251 C 393.659 -0.185817 -1.59723 0
M  V30 4252 O 394.849 -0.439102 -1.68575 0
M  V30 4253 C 391.981 -0.967676 -3.26877 0
M  V30 4254 H 393.174 -2.24479 -1.9887 0
M  V30 4255 H 390.727 -1.19446 -1.00808 0
M  V30 4256 H 391.462 0.0005954 -3.243 0
M  V30 4257 H 391.247 -1.75412 -3.50675 0
M  V30 4258 H 392.737 -0.939085 -4.06904 0
M  V30 4259 N 393.175 1.03435 -1.18907 0
M  V30 4260 C 394.105 2.13503 -0.945448 0
M  V30 4261 C 395.086 1.69682 0.119189 0
M  V30 4262 O 396.271 1.94169 -0.034707 0
M  V30 4263 C 393.401 3.44004 -0.477316 0
M  V30 4264 C 392.355 4.0148 -1.48316 0
M  V30 4265 C 391.681 5.27537 -0.872311 0
M  V30 4266 C 392.981 4.36921 -2.86177 0
M  V30 4267 H 394.675 2.34141 -1.86597 0
M  V30 4268 H 392.221 1.12523 -0.898584 0
M  V30 4269 H 394.174 4.20372 -0.294204 0
M  V30 4270 H 392.898 3.23072 0.478786 0
M  V30 4271 H 391.557 3.27201 -1.65332 0
M  V30 4272 H 391.205 5.02917 0.0911752 0
M  V30 4273 H 390.905 5.66954 -1.54393 0
M  V30 4274 H 392.429 6.06576 -0.699871 0
M  V30 4275 H 393.843 5.04248 -2.72776 0
M  V30 4276 H 392.24 4.87405 -3.50081 0
M  V30 4277 H 393.31 3.46466 -3.39248 0
M  V30 4278 N 394.653 0.992116 1.22453 0
M  V30 4279 C 395.616 0.546883 2.2258 0
M  V30 4280 C 396.616 -0.369829 1.56489 0
M  V30 4281 O 397.806 -0.161896 1.73446 0
M  V30 4282 C 394.938 -0.204659 3.40285 0
M  V30 4283 H 396.131 1.43234 2.63484 0
M  V30 4284 H 393.684 0.779239 1.3549 0
M  V30 4285 H 394.419 -1.10614 3.04853 0
M  V30 4286 H 394.204 0.45354 3.89468 0
M  V30 4287 H 395.694 -0.504358 4.14543 0
M  V30 4288 N 396.131 -1.37776 0.765217 0
M  V30 4289 C 397.061 -2.32945 0.160953 0
M  V30 4290 C 398.042 -1.55454 -0.690516 0
M  V30 4291 O 399.227 -1.83721 -0.629318 0
M  V30 4292 C 396.357 -3.39669 -0.724031 0
M  V30 4293 C 395.311 -4.27992 0.0256173 0
M  V30 4294 C 394.637 -5.25673 -0.978383 0
M  V30 4295 C 395.937 -5.08309 1.20082 0
M  V30 4296 H 397.631 -2.83728 0.955969 0
M  V30 4297 H 395.177 -1.36416 0.461149 0
M  V30 4298 H 397.13 -4.05219 -1.15652 0
M  V30 4299 H 395.854 -2.87396 -1.5515 0
M  V30 4300 H 394.513 -3.63964 0.438812 0
M  V30 4301 H 394.161 -4.69682 -1.80022 0
M  V30 4302 H 393.861 -5.85625 -0.481378 0
M  V30 4303 H 395.385 -5.94098 -1.40995 0
M  V30 4304 H 396.799 -5.67034 0.845307 0
M  V30 4305 H 395.196 -5.77554 1.62947 0
M  V30 4306 H 396.266 -4.41365 2.00811 0
M  V30 4307 N 397.609 -0.515225 -1.4894 0
M  V30 4308 C 398.834 0.022727 -2.07388 0
M  V30 4309 C 399.259 1.2876 -1.37122 0
M  V30 4310 O 398.617 1.76067 -0.432431 0
M  V30 4311 C 398.665 0.244869 -3.59768 0
M  V30 4312 O 397.769 1.31667 -3.90817 0
M  V30 4313 H 397.11 -0.0325506 -0.663202 0
M  V30 4314 H 399.64 -0.718918 -1.91553 0
M  V30 4315 H 399.65 0.47205 -4.0526 0
M  V30 4316 H 398.325 -0.679194 -4.10317 0
M  V30 4317 H 396.902 1.07331 -3.5712 0
M  V30 4318 N 399.087 1.5561 -0.249682 0
M  V30 4319 C 400.019 2.18834 0.681496 0
M  V30 4320 C 401.032 1.16546 1.1367 0
M  V30 4321 O 402.221 1.43397 1.06299 0
M  V30 4322 C 399.321 2.77992 1.9384 0
M  V30 4323 C 398.494 4.05725 1.63419 0
M  V30 4324 C 397.553 4.49174 2.74096 0
M  V30 4325 O 396.579 5.15492 2.41364 0
M  V30 4326 N 397.781 4.17191 4.03649 0
M  V30 4327 H 400.546 2.9937 0.140514 0
M  V30 4328 H 398.107 1.6175 -0.0697541 0
M  V30 4329 H 400.099 3.04015 2.67127 0
M  V30 4330 H 398.669 2.01596 2.38909 0
M  V30 4331 H 397.889 3.87261 0.736358 0
M  V30 4332 H 399.177 4.88999 1.40562 0
M  V30 4333 H 398.575 3.63955 4.33074 0
M  V30 4334 H 397.132 4.48043 4.73393 0
M  V30 4335 N 400.565 -0.0233959 1.57583 0
M  V30 4336 C 401.79 -0.728376 1.94189 0
M  V30 4337 C 402.215 -1.67793 0.850119 0
M  V30 4338 O 401.573 -1.80262 -0.19371 0
M  V30 4339 C 401.621 -1.45669 3.29868 0
M  V30 4340 O 400.725 -2.57013 3.22518 0
M  V30 4341 H 400.066 -0.195493 0.63457 0
M  V30 4342 H 402.596 0.0228214 2.04587 0
M  V30 4343 H 402.606 -1.82535 3.6489 0
M  V30 4344 H 401.281 -0.760314 4.08891 0
M  V30 4345 H 399.858 -2.22648 2.99136 0
M  V30 4346 N 402.043 -1.548 -0.295768 0
M  V30 4347 C 402.953 -1.89177 -1.38742 0
M  V30 4348 C 403.969 -0.786481 -1.55211 0
M  V30 4349 O 405.145 -1.08344 -1.69775 0
M  V30 4350 C 402.21 -2.13663 -2.73036 0
M  V30 4351 C 401.271 -3.37349 -2.65508 0
M  V30 4352 C 400.504 -3.60658 -3.93398 0
M  V30 4353 O 400.727 -2.86882 -4.93006 0
M  V30 4354 O 399.661 -4.54179 -3.94975 0
M  V30 4355 H 403.487 -2.82059 -1.12589 0
M  V30 4356 H 401.072 -1.41056 -0.492295 0
M  V30 4357 H 402.954 -2.3094 -3.52484 0
M  V30 4358 H 401.629 -1.23967 -2.99022 0
M  V30 4359 H 400.536 -3.25431 -1.84514 0
M  V30 4360 H 401.869 -4.27192 -2.44474 0
M  V30 4361 N 403.521 0.559213 -1.47345 0
M  V30 4362 C 404.484 1.64854 -1.59235 0
M  V30 4363 C 405.484 1.53851 -0.467607 0
M  V30 4364 O 406.674 1.58045 -0.732617 0
M  V30 4365 C 403.806 3.04388 -1.53496 0
M  V30 4366 H 404.999 1.55662 -2.56339 0
M  V30 4367 H 402.552 0.778973 -1.35505 0
M  V30 4368 H 403.287 3.19115 -0.577604 0
M  V30 4369 H 403.072 3.13783 -2.35123 0
M  V30 4370 H 404.562 3.83642 -1.6495 0
M  V30 4371 N 404.999 1.35443 0.805782 0
M  V30 4372 C 405.909 1.30546 1.94923 0
M  V30 4373 C 406.925 0.210233 1.72725 0
M  V30 4374 O 408.101 0.43975 1.9654 0
M  V30 4375 C 405.166 1.07782 3.29521 0
M  V30 4376 C 404.227 2.26625 3.64609 0
M  V30 4377 C 403.46 2.04938 4.92784 0
M  V30 4378 O 403.683 1.01624 5.61274 0
M  V30 4379 O 402.617 2.9232 5.26149 0
M  V30 4380 H 406.443 2.26779 2.02002 0
M  V30 4381 H 404.028 1.15823 0.943682 0
M  V30 4382 H 405.91 0.969392 4.10098 0
M  V30 4383 H 404.585 0.146003 3.23371 0
M  V30 4384 H 403.492 2.43033 2.84404 0
M  V30 4385 H 404.825 3.18257 3.75464 0
M  V30 4386 N 406.477 -1.02803 1.19454 0
M  V30 4387 C 407.387 -2.14575 0.948408 0
M  V30 4388 C 408.403 -1.73757 -0.091871 0
M  V30 4389 O 409.579 -2.01185 0.0929654 0
M  V30 4390 C 406.644 -3.43202 0.491265 0
M  V30 4391 C 405.705 -3.98328 1.60103 0
M  V30 4392 C 404.938 -5.20816 1.16561 0
M  V30 4393 O 405.161 -5.70392 0.0295238 0
M  V30 4394 O 404.095 -5.68801 1.96849 0
M  V30 4395 H 407.921 -2.38202 1.88397 0
M  V30 4396 H 405.506 -1.12989 0.977433 0
M  V30 4397 H 407.388 -4.20687 0.245015 0
M  V30 4398 H 406.063 -3.21018 -0.415851 0
M  V30 4399 H 404.97 -3.22174 1.90144 0
M  V30 4400 H 406.303 -4.24879 2.48473 0
M  V30 4401 N 407.956 -0.998596 -1.21925 0
M  V30 4402 C 408.903 -0.553621 -2.24062 0
M  V30 4403 C 409.873 0.416999 -1.6078 0
M  V30 4404 O 411.058 0.320482 -1.88089 0
M  V30 4405 C 408.198 0.119959 -3.44891 0
M  V30 4406 C 407.311 -0.893077 -4.22668 0
M  V30 4407 C 406.446 -0.192424 -5.30851 0
M  V30 4408 C 405.485 -1.19344 -6.00353 0
M  V30 4409 N 404.622 -0.520707 -7.00166 0
M  V30 4410 H 409.462 -1.4293 -2.61486 0
M  V30 4411 H 406.999 -0.715838 -1.28507 0
M  V30 4412 H 408.957 0.527459 -4.13852 0
M  V30 4413 H 407.587 0.959389 -3.08214 0
M  V30 4414 H 406.639 -1.41886 -3.52948 0
M  V30 4415 H 407.951 -1.65512 -4.70539 0
M  V30 4416 H 407.105 0.271515 -6.06092 0
M  V30 4417 H 405.844 0.602075 -4.83969 0
M  V30 4418 H 404.849 -1.66795 -5.23889 0
M  V30 4419 H 406.074 -1.98891 -6.49322 0
M  V30 4420 H 404.02 0.254252 -6.55507 0
M  V30 4421 H 403.937 -1.2211 -7.46073 0
M  V30 4422 H 405.205 -0.0797596 -7.79459 0
M  V30 4423 N 409.434 1.37368 -0.772513 0
M  V30 4424 C 410.344 2.34053 -0.160081 0
M  V30 4425 C 411.36 1.60216 0.678728 0
M  V30 4426 O 412.536 1.92303 0.59847 0
M  V30 4427 C 409.601 3.3939 0.708182 0
M  V30 4428 C 408.662 4.29048 -0.147172 0
M  V30 4429 C 407.895 5.29354 0.679744 0
M  V30 4430 O 408.118 5.3723 1.91678 0
M  V30 4431 O 407.052 6.01835 0.0885444 0
M  V30 4432 H 410.878 2.88159 -0.959053 0
M  V30 4433 H 408.463 1.39543 -0.533685 0
M  V30 4434 H 410.345 4.03839 1.20384 0
M  V30 4435 H 409.02 2.8761 1.48533 0
M  V30 4436 H 407.927 3.67697 -0.689205 0
M  V30 4437 H 409.26 4.84134 -0.887423 0
M  V30 4438 N 410.912 0.523116 1.48665 0
M  V30 4439 C 412.328 0.180511 1.58576 0
M  V30 4440 C 412.528 -1.31597 1.52592 0
M  V30 4441 O 411.584 -2.0937 1.4114 0
M  V30 4442 C 412.897 0.776949 2.90489 0
M  V30 4443 C 414.445 0.745058 3.04003 0
M  V30 4444 C 414.92 1.31995 4.38567 0
M  V30 4445 N 416.411 1.28162 4.45117 0
M  V30 4446 C 417.146 1.6964 5.47731 0
M  V30 4447 N 416.642 2.18816 6.57337 0
M  V30 4448 N 418.435 1.6092 5.38573 0
M  V30 4449 H 410.586 1.4958 1.50797 0
M  V30 4450 H 412.849 0.621772 0.715614 0
M  V30 4451 H 412.555 1.82732 3.00503 0
M  V30 4452 H 412.429 0.25007 3.7637 0
M  V30 4453 H 414.816 -0.296532 2.93606 0
M  V30 4454 H 414.897 1.30933 2.1975 0
M  V30 4455 H 414.541 2.36043 4.49718 0
M  V30 4456 H 414.471 0.731418 5.21496 0
M  V30 4457 H 416.962 0.92155 3.66491 0
M  V30 4458 H 417.275 2.48478 7.31764 0
M  V30 4459 H 415.62 2.22805 6.58318 0
M  V30 4460 H 418.811 1.22304 4.5184 0
M  V30 4461 H 418.984 1.93567 6.18414 0
M  V30 4462 N 412.39 -1.55475 0.257931 0
M  V30 4463 C 413.32 -2.24815 -0.630912 0
M  V30 4464 C 414.301 -1.23224 -1.17259 0
M  V30 4465 O 415.486 -1.51904 -1.20991 0
M  V30 4466 C 412.616 -2.95609 -1.82298 0
M  V30 4467 C 411.57 -4.03982 -1.41359 0
M  V30 4468 C 410.896 -4.6226 -2.68738 0
M  V30 4469 C 412.196 -5.19109 -0.57648 0
M  V30 4470 H 413.89 -2.99354 -0.0526878 0
M  V30 4471 H 411.436 -1.4398 -0.023901 0
M  V30 4472 H 413.389 -3.42822 -2.45054 0
M  V30 4473 H 412.113 -2.18577 -2.42676 0
M  V30 4474 H 410.772 -3.57555 -0.809324 0
M  V30 4475 H 410.42 -3.81915 -3.27338 0
M  V30 4476 H 410.12 -5.35424 -2.42065 0
M  V30 4477 H 411.644 -5.12212 -3.32372 0
M  V30 4478 H 413.058 -5.62479 -1.10861 0
M  V30 4479 H 411.455 -5.98729 -0.405351 0
M  V30 4480 H 412.525 -4.83174 0.408776 0
M  V30 4481 N 413.868 0.0150385 -1.57593 0
M  V30 4482 C 415.284 0.370907 -1.5523 0
M  V30 4483 C 415.484 1.75735 -0.985882 0
M  V30 4484 O 414.54 2.44944 -0.613077 0
M  V30 4485 C 415.853 0.259908 -2.99575 0
M  V30 4486 C 417.401 0.335959 -3.11192 0
M  V30 4487 C 417.876 0.254253 -4.57294 0
M  V30 4488 N 419.367 0.312618 -4.62144 0
M  V30 4489 C 420.102 0.272505 -5.72752 0
M  V30 4490 N 419.598 0.183864 -6.92556 0
M  V30 4491 N 421.391 0.323267 -5.6117 0
M  V30 4492 H 413.542 -0.892104 -1.92757 0
M  V30 4493 H 415.805 -0.340563 -0.884715 0
M  V30 4494 H 415.511 -0.693403 -3.44797 0
M  V30 4495 H 415.385 1.048 -3.62349 0
M  V30 4496 H 417.772 1.27971 -2.65909 0
M  V30 4497 H 417.853 -0.481739 -2.51223 0
M  V30 4498 H 417.497 -0.685887 -5.03247 0
M  V30 4499 H 417.427 1.09024 -5.15191 0
M  V30 4500 H 419.918 0.38307 -3.75953 0
M  V30 4501 H 420.231 0.15874 -7.72637 0
M  V30 4502 H 418.576 0.149708 -6.94839 0
M  V30 4503 H 421.767 0.390607 -4.66467 0
M  V30 4504 H 421.94 0.288539 -6.47357 0
M  V30 4505 N 415.346 1.54954 0.287554 0
M  V30 4506 C 416.278 1.83224 1.37701 0
M  V30 4507 C 417.291 0.715898 1.46215 0
M  V30 4508 O 418.48 0.993565 1.48292 0
M  V30 4509 C 415.58 1.96723 2.75959 0
M  V30 4510 C 414.753 3.27253 2.90215 0
M  V30 4511 C 413.812 3.30998 4.09056 0
M  V30 4512 O 412.838 4.04457 4.00503 0
M  V30 4513 N 414.04 2.57353 5.20336 0
M  V30 4514 H 416.805 2.77254 1.138 0
M  V30 4515 H 414.366 1.54694 0.477652 0
M  V30 4516 H 416.358 1.96615 3.5373 0
M  V30 4517 H 414.928 1.09626 2.92747 0
M  V30 4518 H 414.148 3.40022 1.99447 0
M  V30 4519 H 415.436 4.13365 2.96659 0
M  V30 4520 H 414.834 1.97327 5.30169 0
M  V30 4521 H 413.391 2.62984 5.96391 0
M  V30 4522 N 416.824 -0.551391 1.4764 0
M  V30 4523 C 417.771 -1.65796 1.60563 0
M  V30 4524 C 418.741 -1.59932 0.448428 0
M  V30 4525 O 419.926 -1.78679 0.669222 0
M  V30 4526 C 417.066 -3.04108 1.63133 0
M  V30 4527 C 416.179 -3.20365 2.89811 0
M  V30 4528 C 415.314 -4.49109 2.8368 0
M  V30 4529 C 414.353 -4.58819 4.05156 0
M  V30 4530 N 413.49 -5.78926 3.97227 0
M  V30 4531 H 418.33 -1.54088 2.5507 0
M  V30 4532 H 415.867 -0.75052 1.26513 0
M  V30 4533 H 417.825 -3.84207 1.62606 0
M  V30 4534 H 416.455 -3.14637 0.721341 0
M  V30 4535 H 415.507 -2.33659 3.00179 0
M  V30 4536 H 416.819 -3.23402 3.79753 0
M  V30 4537 H 415.973 -5.37475 2.81434 0
M  V30 4538 H 414.712 -4.4856 1.91431 0
M  V30 4539 H 413.717 -3.68864 4.077 0
M  V30 4540 H 414.942 -4.61124 4.98539 0
M  V30 4541 H 412.888 -5.79314 3.07785 0
M  V30 4542 H 412.805 -5.83367 4.80853 0
M  V30 4543 H 414.073 -6.69637 3.99007 0
M  V30 4544 N 418.302 -1.35869 -0.798587 0
M  V30 4545 C 419.527 -1.32883 -1.59238 0
M  V30 4546 C 419.952 0.0894587 -1.87887 0
M  V30 4547 O 419.31 1.05869 -1.47178 0
M  V30 4548 C 419.358 -2.14892 -2.89575 0
M  V30 4549 O 418.462 -1.53512 -3.82763 0
M  V30 4550 H 417.803 -0.455236 -0.48338 0
M  V30 4551 H 420.333 -1.79024 -0.990539 0
M  V30 4552 H 420.343 -2.27139 -3.38928 0
M  V30 4553 H 419.018 -3.17998 -2.68049 0
M  V30 4554 H 417.595 -1.50153 -3.41334 0
M  V30 4555 N 419.78 1.02168 -1.19998 0
M  V30 4556 C 421.008 1.79296 -1.03249 0
M  V30 4557 C 421.423 1.84103 0.418502 0
M  V30 4558 O 420.78 1.29031 1.29063 0
M  V30 4559 C 420.831 3.24007 -1.60319 0
M  V30 4560 O 420.552 3.19512 -2.99739 0
M  V30 4561 C 422.053 4.17704 -1.48453 0
M  V30 4562 H 419.273 0.564016 -0.363493 0
M  V30 4563 H 421.817 1.28639 -1.58973 0
M  V30 4564 H 419.972 3.7183 -1.08727 0
M  V30 4565 H 420.386 4.10306 -3.26725 0
M  V30 4566 H 421.86 5.17104 -1.93153 0
M  V30 4567 H 422.337 4.37029 -0.436193 0
M  V30 4568 H 422.943 3.7576 -1.99211 0
M  V30 4569 N 421.258 1.00505 1.21394 0
M  V30 4570 C 422.488 0.705584 1.94178 0
M  V30 4571 C 422.896 -0.735846 1.74304 0
M  V30 4572 O 422.239 -1.50954 1.04683 0
M  V30 4573 C 422.301 0.94689 3.46806 0
M  V30 4574 C 421.965 2.37517 3.90429 0
M  V30 4575 C 422.962 3.35539 3.97127 0
M  V30 4576 C 420.647 2.71284 4.22742 0
M  V30 4577 C 422.641 4.65395 4.3553 0
M  V30 4578 C 420.328 4.01356 4.60822 0
M  V30 4579 C 421.326 4.98223 4.67186 0
M  V30 4580 O 421.014 6.25969 5.04399 0
M  V30 4581 H 420.746 0.259216 0.624326 0
M  V30 4582 H 423.3 1.34592 1.55159 0
M  V30 4583 H 421.53 0.249386 3.85895 0
M  V30 4584 H 423.219 0.640804 4.0081 0
M  V30 4585 H 423.985 3.10786 3.7234 0
M  V30 4586 H 419.864 1.96581 4.16985 0
M  V30 4587 H 423.408 5.41002 4.40412 0
M  V30 4588 H 419.305 4.25893 4.85063 0
M  V30 4589 H 420.073 6.30085 5.22431 0
M  V30 4590 N 422.737 -1.36956 0.779787 0
M  V30 4591 C 423.965 -2.03755 0.359398 0
M  V30 4592 C 424.38 -1.58807 -1.02106 0
M  V30 4593 O 423.737 -0.773024 -1.6532 0
M  V30 4594 C 423.788 -3.59251 0.402568 0
M  V30 4595 O 423.509 -4.02557 1.72858 0
M  V30 4596 C 425.01 -4.43291 -0.0284068 0
M  V30 4597 H 422.23 -0.654148 0.149437 0
M  V30 4598 H 424.774 -1.75128 1.05595 0
M  V30 4599 H 422.929 -3.86621 -0.245478 0
M  V30 4600 H 423.343 -4.97111 1.67275 0
M  V30 4601 H 424.817 -5.51975 0.0529466 0
M  V30 4602 H 425.294 -4.25719 -1.07982 0
M  V30 4603 H 425.9 -4.21163 0.591758 0
M  V30 4604 N 424.215 -0.530993 -1.48385 0
M  V30 4605 C 425.44 0.000729535 -2.074 0
M  V30 4606 C 425.865 1.27298 -1.3848 0
M  V30 4607 O 425.223 1.75599 -0.451081 0
M  V30 4608 C 425.271 0.206697 -3.60007 0
M  V30 4609 O 424.375 1.27514 -3.92191 0
M  V30 4610 H 423.716 -0.039583 -0.662819 0
M  V30 4611 H 426.246 -0.739194 -1.9078 0
M  V30 4612 H 426.256 0.42904 -4.05738 0
M  V30 4613 H 424.931 -0.722675 -4.09573 0
M  V30 4614 H 423.508 1.03537 -3.58238 0
M  V30 4615 N 425.693 1.55336 -0.266172 0
M  V30 4616 C 426.923 2.03506 0.356239 0
M  V30 4617 C 427.331 1.14426 1.50676 0
M  V30 4618 O 426.674 0.155043 1.83045 0
M  V30 4619 C 426.736 3.47848 0.90785 0
M  V30 4620 C 426.4 4.56861 -0.112888 0
M  V30 4621 C 427.397 5.11528 -0.929264 0
M  V30 4622 C 425.082 5.01704 -0.244546 0
M  V30 4623 C 427.076 6.09549 -1.86357 0
M  V30 4624 C 424.763 5.99553 -1.18234 0
M  V30 4625 C 425.761 6.53356 -1.99036 0
M  V30 4626 O 425.449 7.49293 -2.91231 0
M  V30 4627 H 425.181 0.670444 0.08649 0
M  V30 4628 H 427.735 2.01598 -0.39337 0
M  V30 4629 H 425.965 3.46967 1.70737 0
M  V30 4630 H 427.654 3.79407 1.44239 0
M  V30 4631 H 428.42 4.77701 -0.838237 0
M  V30 4632 H 424.299 4.59477 0.374359 0
M  V30 4633 H 427.843 6.51469 -2.49467 0
M  V30 4634 H 423.74 6.32799 -1.27421 0
M  V30 4635 H 424.508 7.66978 -2.8581 0
M  V30 4636 N 427.171 -0.0066808 1.57599 0
M  V30 4637 C 428.582 -0.550379 1.78403 0
M  V30 4638 C 428.933 -1.74339 0.900014 0
M  V30 4639 O 428.058 -2.16166 0.100713 0
M  V30 4640 C 428.653 -1.00523 3.23544 0
M  V30 4641 C 427.212 -1.49428 3.45468 0
M  V30 4642 C 426.359 -0.442444 2.73748 0
M  V30 4643 H 429.31 0.219508 1.57175 0
M  V30 4644 H 429.331 -1.87157 3.31289 0
M  V30 4645 H 428.843 -0.136735 3.87859 0
M  V30 4646 H 426.944 -2.3839 2.86358 0
M  V30 4647 H 427.057 -1.52635 4.54136 0
M  V30 4648 H 425.421 -0.902578 2.38171 0
M  V30 4649 H 426.204 0.416973 3.40758 0
M  V30 4650 N 428.649 -1.55105 -0.279332 0
M  V30 4651 C 429.596 -1.8755 -1.34513 0
M  V30 4652 C 430.566 -0.726384 -1.49375 0
M  V30 4653 O 431.751 -0.977063 -1.63884 0
M  V30 4654 C 428.891 -2.14738 -2.70151 0
M  V30 4655 C 428.004 -3.42285 -2.63562 0
M  V30 4656 C 427.139 -3.59206 -3.91337 0
M  V30 4657 C 426.178 -4.80467 -3.79233 0
M  V30 4658 N 425.315 -4.94079 -4.98829 0
M  V30 4659 H 430.155 -2.78456 -1.06143 0
M  V30 4660 H 427.692 -1.37867 -0.512936 0
M  V30 4661 H 429.65 -2.28501 -3.49061 0
M  V30 4662 H 428.28 -1.27075 -2.96735 0
M  V30 4663 H 427.332 -3.37029 -1.76397 0
M  V30 4664 H 428.644 -4.31328 -2.50515 0
M  V30 4665 H 427.798 -3.72751 -4.78687 0
M  V30 4666 H 426.537 -2.68337 -4.07243 0
M  V30 4667 H 425.542 -4.66932 -2.90266 0
M  V30 4668 H 426.767 -5.72765 -3.64852 0
M  V30 4669 H 424.713 -4.06139 -5.15158 0
M  V30 4670 H 424.63 -5.77156 -4.8829 0
M  V30 4671 H 425.898 -5.12003 -5.8777 0
M  V30 4672 N 430.127 0.543554 -1.4793 0
M  V30 4673 C 431.09 1.63156 -1.60975 0
M  V30 4674 C 432.09 1.53346 -0.483899 0
M  V30 4675 O 433.28 1.5726 -0.749339 0
M  V30 4676 C 430.412 3.02743 -1.56716 0
M  V30 4677 H 431.605 1.52934 -2.57975 0
M  V30 4678 H 429.158 0.764557 -1.36324 0
M  V30 4679 H 429.893 3.18484 -0.611418 0
M  V30 4680 H 429.678 3.11272 -2.38438 0
M  V30 4681 H 431.168 3.81871 -1.6901 0
M  V30 4682 N 431.605 1.3629 0.791371 0
M  V30 4683 C 432.515 1.32606 1.93527 0
M  V30 4684 C 433.531 0.228541 1.72493 0
M  V30 4685 O 434.707 0.460571 1.96063 0
M  V30 4686 C 431.772 1.11271 3.28359 0
M  V30 4687 C 430.833 2.3048 3.62185 0
M  V30 4688 C 430.066 2.10154 4.90583 0
M  V30 4689 O 430.289 1.07572 5.60165 0
M  V30 4690 O 429.223 2.97884 5.23019 0
M  V30 4691 H 433.049 2.28909 1.99585 0
M  V30 4692 H 430.634 1.16818 0.931344 0
M  V30 4693 H 432.516 1.01283 4.09047 0
M  V30 4694 H 431.191 0.180292 3.23198 0
M  V30 4695 H 430.098 2.46036 2.81811 0
M  V30 4696 H 431.431 3.22221 3.72068 0
M  V30 4697 N 433.083 -1.0153 1.20538 0
M  V30 4698 C 434.494 -1.56598 1.01657 0
M  V30 4699 C 434.845 -1.91505 -0.426668 0
M  V30 4700 O 433.97 -1.72375 -1.30827 0
M  V30 4701 C 434.565 -2.84542 1.83905 0
M  V30 4702 C 433.124 -3.36133 1.69386 0
M  V30 4703 C 432.271 -2.09427 1.81757 0
M  V30 4704 H 435.222 -0.838974 1.34711 0
M  V30 4705 H 435.243 -3.56004 1.34319 0
M  V30 4706 H 434.755 -2.59105 2.8894 0
M  V30 4707 H 432.856 -3.66528 0.669933 0
M  V30 4708 H 432.969 -4.08248 2.50739 0
M  V30 4709 H 431.333 -2.21941 1.24957 0
M  V30 4710 H 432.116 -1.86414 2.88279 0
M  V30 4711 N 434.561 -1.01147 -1.20859 0
M  V30 4712 C 435.494 -0.522108 -2.22147 0
M  V30 4713 C 436.472 0.427686 -1.56874 0
M  V30 4714 O 437.656 0.34889 -1.85243 0
M  V30 4715 C 434.783 0.240819 -3.37843 0
M  V30 4716 C 433.829 -0.657752 -4.21398 0
M  V30 4717 S 434.662 -2.12393 -4.91578 0
M  V30 4718 C 435.818 -1.37102 -6.10699 0
M  V30 4719 H 436.051 -1.38035 -2.63313 0
M  V30 4720 H 433.584 -0.819941 -1.30829 0
M  V30 4721 H 435.542 0.674908 -4.04914 0
M  V30 4722 H 434.203 1.07457 -2.95147 0
M  V30 4723 H 433.396 -0.0697456 -5.03952 0
M  V30 4724 H 432.998 -1.0294 -3.59555 0
M  V30 4725 H 435.29 -0.648315 -6.74391 0
M  V30 4726 H 436.233 -2.17252 -6.73949 0
M  V30 4727 H 436.641 -0.876154 -5.57659 0
M  V30 4728 N 436.039 1.36541 -0.78704 0
M  V30 4729 C 437.45 1.81873 -0.421807 0
M  V30 4730 C 437.801 1.65487 1.05397 0
M  V30 4731 O 436.926 1.17448 1.81755 0
M  V30 4732 C 437.521 3.30192 -0.758841 0
M  V30 4733 C 436.08 3.73743 -0.446468 0
M  V30 4734 C 435.227 2.58844 -0.994728 0
M  V30 4735 H 438.178 1.24796 -0.98039 0
M  V30 4736 H 438.199 3.80468 -0.0490648 0
M  V30 4737 H 437.711 3.42087 -1.83299 0
M  V30 4738 H 435.812 3.6741 0.619739 0
M  V30 4739 H 435.925 4.69272 -0.965415 0
M  V30 4740 H 434.289 2.51245 -0.418087 0
M  V30 4741 H 435.072 2.73525 -2.07458 0
M  V30 4742 N 437.518 0.538854 1.48102 0
M  V30 4743 C 438.743 0.0102694 2.07397 0
M  V30 4744 C 439.168 -1.26562 1.39153 0
M  V30 4745 O 438.526 -1.75357 0.460387 0
M  V30 4746 C 438.574 -0.187602 3.60112 0
M  V30 4747 O 437.678 -1.25432 3.92862 0
M  V30 4748 H 437.019 0.0430975 0.6626 0
M  V30 4749 H 439.549 0.749301 1.90385 0
M  V30 4750 H 439.559 -0.407517 4.0596 0
M  V30 4751 H 438.234 0.744386 4.09184 0
M  V30 4752 H 436.811 -1.01636 3.58782 0
M  V30 4753 N 438.996 -1.55193 0.274407 0
M  V30 4754 C 439.959 -2.212 -0.600279 0
M  V30 4755 C 440.959 -1.18963 -1.08187 0
M  V30 4756 O 442.149 -1.43873 -0.982158 0
M  V30 4757 C 439.281 -2.87739 -1.82809 0
M  V30 4758 H 440.474 -2.9989 -0.0239682 0
M  V30 4759 H 438.027 -1.5628 0.0250192 0
M  V30 4760 H 438.762 -2.13058 -2.44493 0
M  V30 4761 H 438.547 -3.62658 -1.49069 0
M  V30 4762 H 440.037 -3.38171 -2.45011 0
M  V30 4763 N 440.474 -0.00167713 -1.576 0
M  V30 4764 C 441.699 0.69739 -1.95323 0
M  V30 4765 C 442.124 1.6642 -0.876706 0
M  V30 4766 O 441.482 1.80548 0.165007 0
M  V30 4767 C 441.53 1.40403 -3.32144 0
M  V30 4768 O 440.634 2.5185 -3.26566 0
M  V30 4769 H 439.975 0.185373 -0.637599 0
M  V30 4770 H 442.505 -0.0553665 -2.04525 0
M  V30 4771 H 442.515 1.76707 -3.67748 0
M  V30 4772 H 441.19 0.695167 -4.10049 0
M  V30 4773 H 439.767 2.17861 -3.0264 0
M  V30 4774 N 441.952 1.55251 0.271103 0
M  V30 4775 C 443.177 1.80306 1.02491 0
M  V30 4776 C 443.602 0.575457 1.79081 0
M  V30 4777 O 442.96 -0.474987 1.74967 0
M  V30 4778 C 443.008 3.02832 1.95768 0
M  V30 4779 O 442.112 2.78051 3.04568 0
M  V30 4780 H 441.453 0.595896 0.292923 0
M  V30 4781 H 443.983 2.02397 0.299436 0
M  V30 4782 H 443.993 3.31616 2.37686 0
M  V30 4783 H 442.668 3.9183 1.39434 0
M  V30 4784 H 441.245 2.60369 2.66951 0
M  V30 4785 N 443.43 -0.535701 1.48216 0
M  V30 4786 C 444.393 -1.623 1.61838 0
M  V30 4787 C 445.393 -1.53087 0.492024 0
M  V30 4788 O 446.583 -1.5686 0.757668 0
M  V30 4789 C 443.715 -3.01907 1.58319 0
M  V30 4790 H 444.908 -1.51564 2.58783 0
M  V30 4791 H 442.461 -0.757317 1.36727 0
M  V30 4792 H 443.196 -3.18155 0.628299 0
M  V30 4793 H 442.981 -3.10003 2.40085 0
M  V30 4794 H 444.471 -3.80969 1.71033 0
M  V30 4795 N 444.908 -1.36708 -0.784132 0
M  V30 4796 C 446.319 -1.27947 -1.35965 0
M  V30 4797 C 446.67 0.0784013 -1.96043 0
M  V30 4798 O 445.795 0.979989 -1.92938 0
M  V30 4799 C 446.39 -2.31689 -2.47195 0
M  V30 4800 C 444.949 -2.26601 -3.00548 0
M  V30 4801 C 444.096 -2.16184 -1.73666 0
M  V30 4802 H 447.047 -1.4751 -0.585358 0
M  V30 4803 H 447.068 -1.95638 -3.26352 0
M  V30 4804 H 446.58 -3.30506 -2.03439 0
M  V30 4805 H 444.681 -1.31268 -3.48711 0
M  V30 4806 H 444.794 -3.19508 -3.57004 0
M  V30 4807 H 443.158 -1.62524 -1.96107 0
M  V30 4808 H 443.941 -3.16896 -1.32031 0
M  V30 4809 N 446.386 1.0089 -1.21074 0
M  V30 4810 C 447.797 1.56056 -1.02486 0
M  V30 4811 C 448.148 1.91728 0.416506 0
M  V30 4812 O 447.273 1.73066 1.29912 0
M  V30 4813 C 447.868 2.83563 -1.85411 0
M  V30 4814 C 446.427 3.3523 -1.71166 0
M  V30 4815 C 445.574 2.0846 -1.82865 0
M  V30 4816 H 448.525 0.831818 -1.35154 0
M  V30 4817 H 448.546 3.55286 -1.36205 0
M  V30 4818 H 448.058 2.57569 -2.9031 0
M  V30 4819 H 446.159 3.66167 -0.689361 0
M  V30 4820 H 446.272 4.06913 -2.52901 0
M  V30 4821 H 444.636 2.21275 -1.26132 0
M  V30 4822 H 445.419 1.84883 -2.89263 0
M  V30 4823 N 447.864 1.01787 1.20321 0
M  V30 4824 C 448.827 0.593972 2.2137 0
M  V30 4825 C 449.827 -0.336553 1.57239 0
M  V30 4826 O 451.017 -0.125069 1.7375 0
M  V30 4827 C 448.149 -0.132433 3.40643 0
M  V30 4828 H 449.342 1.48791 2.60387 0
M  V30 4829 H 446.895 0.807803 1.33807 0
M  V30 4830 H 447.63 -1.04123 3.0713 0
M  V30 4831 H 447.415 0.53605 3.88418 0
M  V30 4832 H 448.905 -0.416314 4.1552 0
M  V30 4833 N 449.342 -1.36122 0.79427 0
M  V30 4834 C 450.567 -2.03891 0.379871 0
M  V30 4835 C 450.992 -1.59488 -0.997251 0
M  V30 4836 O 450.35 -0.765652 -1.64339 0
M  V30 4837 C 450.398 -3.57687 0.457442 0
M  V30 4838 O 449.502 -4.08931 -0.5338 0
M  V30 4839 H 448.843 -0.6443 0.160541 0
M  V30 4840 H 451.373 -1.73976 1.07673 0
M  V30 4841 H 451.383 -4.06721 0.322792 0
M  V30 4842 H 450.058 -3.89357 1.46199 0
M  V30 4843 H 448.635 -3.71154 -0.360409 0
M  V30 4844 N 450.82 -0.546701 -1.47814 0
M  V30 4845 C 452.045 -0.021268 -2.07389 0
M  V30 4846 C 452.47 1.25822 -1.39822 0
M  V30 4847 O 451.828 1.75111 -0.46968 0
M  V30 4848 C 451.876 0.168502 -3.60206 0
M  V30 4849 O 450.98 1.23347 -3.93522 0
M  V30 4850 H 450.321 -0.0466108 -0.662362 0
M  V30 4851 H 452.851 -0.759387 -1.89985 0
M  V30 4852 H 452.861 0.385982 -4.0617 0
M  V30 4853 H 451.536 -0.766075 -4.08784 0
M  V30 4854 H 450.113 0.997319 -3.59316 0
M  V30 4855 N 452.299 1.55045 -0.282633 0
M  V30 4856 C 453.229 2.2579 0.595066 0
M  V30 4857 C 454.21 1.25074 1.15284 0
M  V30 4858 O 455.395 1.5381 1.18559 0
M  V30 4859 C 452.525 2.98472 1.77572 0
M  V30 4860 C 451.479 4.0618 1.34914 0
M  V30 4861 C 450.805 4.66477 2.6135 0
M  V30 4862 C 452.105 5.1996 0.493821 0
M  V30 4863 H 453.799 2.994 0.00505653 0
M  V30 4864 H 451.345 1.44 0.000992001 0
M  V30 4865 H 453.298 3.46677 2.39568 0
M  V30 4866 H 452.022 2.2241 2.39168 0
M  V30 4867 H 450.681 3.58797 0.752338 0
M  V30 4868 H 450.329 3.87074 3.2122 0
M  V30 4869 H 450.029 5.39207 2.33516 0
M  V30 4870 H 451.553 5.17435 3.24181 0
M  V30 4871 H 452.967 5.64172 1.01898 0
M  V30 4872 H 451.364 5.99299 0.310047 0
M  V30 4873 H 452.434 4.82462 -0.485593 0
M  V30 4874 N 453.777 0.010035 1.57597 0
M  V30 4875 C 455.007 -0.682422 1.95004 0
M  V30 4876 C 455.415 -1.67278 0.884014 0
M  V30 4877 O 454.758 -1.83129 -0.144672 0
M  V30 4878 C 454.82 -1.46141 3.28456 0
M  V30 4879 C 454.484 -0.631523 4.52615 0
M  V30 4880 C 455.481 0.0850905 5.1983 0
M  V30 4881 C 453.166 -0.574539 4.99003 0
M  V30 4882 C 455.16 0.847566 6.3174 0
M  V30 4883 C 452.847 0.191655 6.10799 0
M  V30 4884 C 453.845 0.901432 6.77025 0
M  V30 4885 O 453.533 1.65511 7.86677 0
M  V30 4886 H 453.265 -0.194361 0.647456 0
M  V30 4887 H 455.819 0.060312 2.05311 0
M  V30 4888 H 454.049 -2.24885 3.14585 0
M  V30 4889 H 455.738 -2.04016 3.50902 0
M  V30 4890 H 456.504 0.0502812 4.84974 0
M  V30 4891 H 452.383 -1.11654 4.47274 0
M  V30 4892 H 455.927 1.4021 6.83364 0
M  V30 4893 H 451.824 0.228249 6.45096 0
M  V30 4894 H 452.592 1.57287 8.03245 0
M  V30 4895 N 455.255 -1.55392 -0.262866 0
M  V30 4896 C 456.48 -1.80847 -1.01533 0
M  V30 4897 C 456.905 -0.584946 -1.78774 0
M  V30 4898 O 456.263 0.465701 -1.75217 0
M  V30 4899 C 456.311 -3.03866 -1.94159 0
M  V30 4900 O 455.415 -2.79662 -3.03089 0
M  V30 4901 H 454.756 -0.597441 -0.289759 0
M  V30 4902 H 457.286 -2.02553 -0.288698 0
M  V30 4903 H 457.296 -3.32872 -2.35924 0
M  V30 4904 H 455.971 -3.92564 -1.37354 0
M  V30 4905 H 454.548 -2.61781 -2.65566 0
M  V30 4906 N 456.733 0.527833 -1.48498 0
M  V30 4907 C 457.958 1.313 -1.60546 0
M  V30 4908 C 458.383 1.86199 -0.26672 0
M  V30 4909 O 457.741 1.64513 0.761918 0
M  V30 4910 C 457.789 2.43818 -2.65678 0
M  V30 4911 O 456.893 3.46916 -2.22987 0
M  V30 4912 H 456.234 0.388784 -0.538277 0
M  V30 4913 H 458.764 0.634896 -1.945 0
M  V30 4914 H 458.774 2.89973 -2.87018 0
M  V30 4915 H 457.449 2.03222 -3.62869 0
M  V30 4916 H 456.026 3.06864 -2.11869 0
M  V30 4917 N 458.211 1.37122 0.776871 0
M  V30 4918 C 459.622 1.28667 1.35284 0
M  V30 4919 C 459.973 -0.0680035 1.96082 0
M  V30 4920 O 459.098 -0.969743 1.93455 0
M  V30 4921 C 459.693 2.32997 2.45963 0
M  V30 4922 C 458.252 2.28191 2.99342 0
M  V30 4923 C 457.399 2.17101 1.72517 0
M  V30 4924 H 460.35 1.47819 0.577527 0
M  V30 4925 H 460.371 1.97366 3.2531 0
M  V30 4926 H 459.883 3.3158 2.01684 0
M  V30 4927 H 457.984 1.33115 3.4801 0
M  V30 4928 H 458.097 3.21397 3.55304 0
M  V30 4929 H 456.461 1.63562 1.95242 0
M  V30 4930 H 457.244 3.17591 1.30348 0
M  V30 4931 N 459.689 -1.00246 1.21608 0
M  V30 4932 C 460.935 -1.74319 1.03638 0
M  V30 4933 C 461.268 -1.89408 -0.428749 0
M  V30 4934 O 460.543 -1.43026 -1.3181 0
M  V30 4935 C 460.826 -3.15431 1.73711 0
M  V30 4936 C 460.679 -3.08049 3.27759 0
M  V30 4937 C 461.998 -4.14407 1.48173 0
M  V30 4938 H 459.117 -0.632741 0.377899 0
M  V30 4939 H 461.759 -1.16853 1.49818 0
M  V30 4940 H 459.909 -3.64493 1.34452 0
M  V30 4941 H 461.581 -2.66681 3.76403 0
M  V30 4942 H 459.824 -2.45088 3.57931 0
M  V30 4943 H 460.495 -4.07862 3.71958 0
M  V30 4944 H 462.971 -3.74061 1.82258 0
M  V30 4945 H 461.847 -5.11279 1.99713 0
M  V30 4946 H 462.108 -4.40174 0.412273 0
M  V30 4947 N 461.167 -1.02423 -1.1978 0
M  V30 4948 C 462.115 -0.594474 -2.24875 0
M  V30 4949 C 463.109 0.370598 -1.65296 0
M  V30 4950 O 464.315 0.239684 -1.78397 0
M  V30 4951 H 460.69 -0.173961 -0.731602 0
M  V30 4952 H 462.661 -1.4916 -2.58445 0
M  V30 4953 C 461.41 0.0436512 -3.47673 0
M  V30 4954 H 460.733 -0.689963 -3.93801 0
M  V30 4955 H 462.173 0.307362 -4.22884 0
M  V30 4956 C 460.632 1.28881 -3.11274 0
M  V30 4957 O 461.162 2.38135 -3.23503 0
M  V30 4958 N 459.368 1.1758 -2.6575 0
M  V30 4959 H 458.915 0.286769 -2.55999 0
M  V30 4960 H 458.873 2.00988 -2.41767 0
M  V30 4961 N 462.645 1.35699 -0.801477 0
M  V30 4962 C 463.87 2.03687 -0.390678 0
M  V30 4963 C 464.295 1.60015 0.988778 0
M  V30 4964 O 463.653 0.774357 1.63931 0
M  V30 4965 C 463.701 3.57439 -0.476404 0
M  V30 4966 O 462.805 4.09208 0.512106 0
M  V30 4967 H 462.146 0.64344 -0.163956 0
M  V30 4968 H 464.676 1.73403 -1.08594 0
M  V30 4969 H 464.686 4.06544 -0.344357 0
M  V30 4970 H 463.361 3.88576 -1.48262 0
M  V30 4971 H 461.938 3.7134 0.340721 0
M  V30 4972 N 464.123 0.554532 1.47522 0
M  V30 4973 C 465.348 0.0322661 2.07375 0
M  V30 4974 C 465.773 -1.25079 1.40488 0
M  V30 4975 O 465.131 -1.74859 0.47896 0
M  V30 4976 C 465.179 -0.149397 3.6029 0
M  V30 4977 O 464.283 -1.21259 3.9417 0
M  V30 4978 H 463.624 0.0501228 0.662106 0
M  V30 4979 H 466.154 0.769452 1.8958 0
M  V30 4980 H 466.164 -0.364437 4.06369 0
M  V30 4981 H 464.839 0.787743 4.08372 0
M  V30 4982 H 463.416 -0.97825 3.5984 0
M  V30 4983 N 465.601 -1.54893 0.290851 0
M  V30 4984 C 466.564 -2.21824 -0.576784 0
M  V30 4985 C 467.564 -1.20104 -1.06919 0
M  V30 4986 O 468.754 -1.44906 -0.966843 0
M  V30 4987 C 465.886 -2.89662 -1.79747 0
M  V30 4988 H 467.079 -2.99899 0.00784051 0
M  V30 4989 H 464.632 -1.56245 0.0415934 0
M  V30 4990 H 465.367 -2.15639 -2.42219 0
M  V30 4991 H 465.152 -3.64219 -1.45214 0
M  V30 4992 H 466.642 -3.4075 -2.4141 0
M  V30 4993 N 467.08 -0.0183926 -1.57589 0
M  V30 4994 C 468.491 0.521927 -1.79256 0
M  V30 4995 C 468.842 1.72885 -0.927636 0
M  V30 4996 O 467.967 2.15978 -0.135091 0
M  V30 4997 C 468.562 0.953632 -3.25102 0
M  V30 4998 C 467.121 1.43913 -3.47801 0
M  V30 4999 C 466.268 0.398837 -2.74417 0
M  V30 5000 H 469.219 -0.244485 -1.56805 0
M  V30 5001 H 469.24 1.81863 -3.34224 0
M  V30 5002 H 468.752 0.0750123 -3.88028 0
M  V30 5003 H 466.853 2.33804 -2.90115 0
M  V30 5004 H 466.966 1.45391 -4.56507 0
M  V30 5005 H 465.33 0.864572 -2.39577 0
M  V30 5006 H 466.113 -0.471132 -3.40052 0
M  V30 5007 N 468.558 1.5553 0.254621 0
M  V30 5008 C 469.488 1.9268 1.31897 0
M  V30 5009 C 470.469 0.790797 1.506 0
M  V30 5010 O 471.654 1.05045 1.63337 0
M  V30 5011 C 468.784 2.21477 2.67517 0
M  V30 5012 C 467.738 3.37256 2.63519 0
M  V30 5013 C 467.064 3.51576 4.02862 0
M  V30 5014 C 468.364 4.73157 2.21179 0
M  V30 5015 H 470.058 2.81832 1.01051 0
M  V30 5016 H 467.604 1.35599 0.484662 0
M  V30 5017 H 469.557 2.46055 3.42104 0
M  V30 5018 H 468.281 1.29144 2.99982 0
M  V30 5019 H 466.94 3.12675 1.9139 0
M  V30 5020 H 466.588 2.56676 4.32581 0
M  V30 5021 H 466.288 4.2943 4.01078 0
M  V30 5022 H 467.812 3.78467 4.79161 0
M  V30 5023 H 469.226 4.97158 2.85494 0
M  V30 5024 H 467.623 5.54058 2.30521 0
M  V30 5025 H 468.693 4.70739 1.16332 0
M  V30 5026 N 470.036 -0.519951 1.48776 0
M  V30 5027 C 470.999 -1.60574 1.6355 0
M  V30 5028 C 471.999 -1.52557 0.508234 0
M  V30 5029 O 473.189 -1.56047 0.774262 0
M  V30 5030 C 470.321 -3.00211 1.61512 0
M  V30 5031 H 471.514 -1.4881 2.60376 0
M  V30 5032 H 469.067 -0.742772 1.37523 0
M  V30 5033 H 469.802 -3.17471 0.662009 0
M  V30 5034 H 469.587 -3.07439 2.43359 0
M  V30 5035 H 471.077 -3.79134 1.75064 0
M  V30 5036 N 471.514 -1.37532 -0.769588 0
M  V30 5037 C 472.424 -1.35668 -1.91393 0
M  V30 5038 C 473.44 -0.255954 -1.72107 0
M  V30 5039 O 474.616 -0.491704 -1.95305 0
M  V30 5040 C 471.681 -1.16481 -3.26547 0
M  V30 5041 C 470.742 -2.36212 -3.58472 0
M  V30 5042 C 469.975 -2.17932 -4.87177 0
M  V30 5043 O 470.198 -1.1647 -5.58382 0
M  V30 5044 O 469.132 -3.06167 -5.18214 0
M  V30 5045 H 472.958 -2.32055 -1.95918 0
M  V30 5046 H 470.543 -1.18284 -0.912641 0
M  V30 5047 H 472.425 -1.07778 -4.07384 0
M  V30 5048 H 471.1 -0.231687 -3.2287 0
M  V30 5049 H 470.007 -2.50488 -2.77861 0
M  V30 5050 H 471.34 -3.281 -3.66894 0
M  V30 5051 N 472.992 0.995999 -1.22138 0
M  V30 5052 C 474.269 1.70834 -0.952642 0
M  V30 5053 C 474.649 2.04257 0.533119 0
M  V30 5054 O 473.997 1.72343 1.50034 0
M  V30 5055 C 474.207 2.96119 -1.84701 0
M  V30 5056 C 475.555 3.68962 -2.10124 0
M  V30 5057 O 476.579 3.0612 -1.82124 0
M  V30 5058 O 475.438 4.82017 -2.57531 0
M  V30 5059 H 472.532 0.745498 -0.357997 0
M  V30 5060 H 475.078 1.05262 -1.33109 0
M  V30 5061 H 473.85 2.67898 -2.85213 0
M  V30 5062 H 473.473 3.6943 -1.46995 0
M  V30 5063 N 474.47 1.03057 1.19235 0
M  V30 5064 C 475.719 0.72326 1.88287 0
M  V30 5065 C 476.032 -0.751333 1.80594 0
M  V30 5066 O 477.238 -1.17176 2.44912 0
M  V30 5067 C 475.694 1.24338 3.3774 0
M  V30 5068 C 475.302 2.74587 3.53986 0
M  V30 5069 C 477.046 1.01213 4.12257 0
M  V30 5070 C 474.953 3.20009 4.97341 0
M  V30 5071 H 473.883 0.266848 0.705201 0
M  V30 5072 H 476.534 1.24509 1.34795 0
M  V30 5073 H 474.916 0.649457 3.90638 0
M  V30 5074 H 476.09 3.39649 3.11408 0
M  V30 5075 H 474.405 2.9601 2.9286 0
M  V30 5076 H 477.002 1.32675 5.17978 0
M  V30 5077 H 477.345 -0.051001 4.16269 0
M  V30 5078 H 477.878 1.57014 3.65501 0
M  V30 5079 H 474.617 4.25659 4.98493 0
M  V30 5080 H 474.137 2.59676 5.40674 0
M  V30 5081 H 475.816 3.13447 5.66003 0
M  V30 5082 N 475.948 -1.35272 0.808662 0
M  V30 5083 C 477.225 -1.93077 0.313181 0
M  V30 5084 C 477.605 -1.73847 -1.19752 0
M  V30 5085 O 476.953 -1.1087 -1.998 0
M  V30 5086 C 477.163 -3.41347 0.726859 0
M  V30 5087 C 478.511 -4.18493 0.717532 0
M  V30 5088 O 479.535 -3.4987 0.668535 0
M  V30 5089 O 478.394 -5.40937 0.777779 0
M  V30 5090 H 475.488 -0.822885 0.0824018 0
M  V30 5091 H 478.034 -1.44335 0.892499 0
M  V30 5092 H 476.806 -3.49082 1.76797 0
M  V30 5093 H 476.429 -3.97411 0.122461 0
M  V30 5094 N 477.426 -0.562348 -1.47226 0
M  V30 5095 C 478.837 -0.130325 -1.86245 0
M  V30 5096 C 479.188 1.30128 -1.46838 0
M  V30 5097 O 478.313 1.97974 -0.873805 0
M  V30 5098 C 478.908 -0.229738 -3.3802 0
M  V30 5099 C 477.467 0.14728 -3.76112 0
M  V30 5100 C 476.614 -0.574971 -2.71274 0
M  V30 5101 H 479.565 -0.771773 -1.3867 0
M  V30 5102 H 479.586 0.550316 -3.76499 0
M  V30 5103 H 479.098 -1.27178 -3.66671 0
M  V30 5104 H 477.199 1.19023 -3.53078 0
M  V30 5105 H 477.312 -0.214858 -4.78618 0
M  V30 5106 H 475.676 -0.0174756 -2.54694 0
M  V30 5107 H 476.459 -1.61827 -3.02766 0
M  V30 5108 N 478.904 1.54736 -0.299062 0
M  V30 5109 C 479.814 2.27127 0.587413 0
M  V30 5110 C 480.83 1.30575 1.15005 0
M  V30 5111 O 482.006 1.63554 1.17525 0
M  V30 5112 C 479.071 2.99645 1.74395 0
M  V30 5113 C 478.132 4.11731 1.21559 0
M  V30 5114 C 477.365 4.80781 2.317 0
M  V30 5115 O 477.588 4.4918 3.51558 0
M  V30 5116 O 476.522 5.68226 1.98501 0
M  V30 5117 H 480.348 3.037 0.000250109 0
M  V30 5118 H 477.933 1.49256 -0.0655919 0
M  V30 5119 H 479.815 3.45138 2.4178 0
M  V30 5120 H 478.49 2.25969 2.31775 0
M  V30 5121 H 477.397 3.70641 0.507514 0
M  V30 5122 H 478.73 4.87379 0.687233 0
M  V30 5123 N 480.382 0.0267497 1.57577 0
M  V30 5124 C 481.312 -0.954308 2.13108 0
M  V30 5125 C 482.293 -1.34088 1.04663 0
M  V30 5126 O 483.478 -1.41992 1.32484 0
M  V30 5127 C 480.608 -2.23744 2.65624 0
M  V30 5128 C 479.562 -1.99168 3.78835 0
M  V30 5129 C 478.888 -3.33726 4.17769 0
M  V30 5130 C 480.188 -1.33277 5.0501 0
M  V30 5131 H 481.882 -0.491848 2.95332 0
M  V30 5132 H 479.428 -0.23514 1.42067 0
M  V30 5133 H 481.381 -2.92754 3.03106 0
M  V30 5134 H 480.105 -2.72151 1.80558 0
M  V30 5135 H 478.764 -1.32577 3.41788 0
M  V30 5136 H 478.412 -3.79888 3.29688 0
M  V30 5137 H 478.112 -3.18089 4.94058 0
M  V30 5138 H 479.636 -4.04008 4.57832 0
M  V30 5139 H 481.05 -1.92283 5.40093 0
M  V30 5140 H 479.447 -1.28045 5.8628 0
M  V30 5141 H 480.517 -0.305411 4.83937 0
M  V30 5142 N 481.861 -1.55662 -0.24637 0
M  V30 5143 C 482.824 -1.89558 -1.28842 0
M  V30 5144 C 483.824 -0.772082 -1.41052 0
M  V30 5145 O 485.014 -1.04007 -1.39743 0
M  V30 5146 C 482.146 -2.12449 -2.66605 0
M  V30 5147 H 483.339 -2.82735 -1.00004 0
M  V30 5148 H 480.892 -1.48562 -0.485684 0
M  V30 5149 H 481.627 -1.21742 -3.00582 0
M  V30 5150 H 481.412 -2.94273 -2.59125 0
M  V30 5151 H 482.902 -2.39854 -3.41847 0
M  V30 5152 N 483.339 0.512053 -1.4905 0
M  V30 5153 C 484.755 0.84224 -1.35567 0
M  V30 5154 C 484.955 1.97878 -0.380319 0
M  V30 5155 O 484.011 2.51769 0.19201 0
M  V30 5156 C 485.324 1.19286 -2.76028 0
M  V30 5157 C 486.872 1.30171 -2.84648 0
M  V30 5158 C 487.347 1.68568 -4.25851 0
M  V30 5159 N 488.838 1.75638 -4.28609 0
M  V30 5160 C 489.573 2.06769 -5.34821 0
M  V30 5161 N 489.069 2.36201 -6.51292 0
M  V30 5162 N 490.862 2.07927 -5.22229 0
M  V30 5163 H 483.013 -0.237574 -2.11067 0
M  V30 5164 H 485.276 -0.0436747 -0.946993 0
M  V30 5165 H 484.982 0.431199 -3.49047 0
M  V30 5166 H 484.856 2.13889 -3.10695 0
M  V30 5167 H 487.243 2.05411 -2.11873 0
M  V30 5168 H 487.324 0.336457 -2.53578 0
M  V30 5169 H 486.968 0.938824 -4.99148 0
M  V30 5170 H 486.898 2.66174 -4.54377 0
M  V30 5171 H 489.389 1.55097 -3.44606 0
M  V30 5172 H 489.702 2.59112 -7.28066 0
M  V30 5173 H 488.047 2.33681 -6.54536 0
M  V30 5174 H 491.238 1.84403 -4.30248 0
M  V30 5175 H 491.411 2.31856 -6.05101 0
M  V30 5176 N 484.817 1.37938 0.762283 0
M  V30 5177 C 486.047 1.36685 1.54922 0
M  V30 5178 C 486.455 -0.0474099 1.89141 0
M  V30 5179 O 485.798 -1.02213 1.52638 0
M  V30 5180 C 485.86 2.14963 2.88152 0
M  V30 5181 C 485.524 3.6385 2.76518 0
M  V30 5182 C 486.521 4.57531 2.46904 0
M  V30 5183 C 484.206 4.07095 2.94243 0
M  V30 5184 C 486.2 5.92436 2.35156 0
M  V30 5185 C 483.887 5.42083 2.82116 0
M  V30 5186 C 484.885 6.34567 2.52614 0
M  V30 5187 O 484.573 7.67073 2.40529 0
M  V30 5188 H 484.305 0.469586 0.486276 0
M  V30 5189 H 486.859 1.82012 0.951876 0
M  V30 5190 H 485.089 1.6434 3.50042 0
M  V30 5191 H 486.778 2.06224 3.49609 0
M  V30 5192 H 487.544 4.25428 2.32886 0
M  V30 5193 H 483.423 3.35462 3.16206 0
M  V30 5194 H 486.967 6.64591 2.12049 0
M  V30 5195 H 482.864 5.73785 2.95704 0
M  V30 5196 H 483.632 7.77499 2.55807 0
M  V30 5197 N 486.295 -0.989507 1.22664 0
M  V30 5198 C 487.225 -2.09847 1.02404 0
M  V30 5199 C 488.206 -1.70007 -0.0561303 0
M  V30 5200 O 489.391 -1.93906 0.106748 0
M  V30 5201 C 486.521 -3.41996 0.604663 0
M  V30 5202 C 485.475 -3.95699 1.63115 0
M  V30 5203 C 484.801 -5.23936 1.0675 0
M  V30 5204 C 486.101 -4.25999 3.02196 0
M  V30 5205 H 487.795 -2.27054 1.95158 0
M  V30 5206 H 485.341 -1.09111 0.939727 0
M  V30 5207 H 487.294 -4.1899 0.45002 0
M  V30 5208 H 486.018 -3.24626 -0.35855 0
M  V30 5209 H 484.677 -3.2084 1.77362 0
M  V30 5210 H 484.325 -5.02909 0.0955422 0
M  V30 5211 H 484.025 -5.60833 1.75328 0
M  V30 5212 H 485.549 -6.0356 0.924516 0
M  V30 5213 H 486.963 -4.93777 2.91303 0
M  V30 5214 H 485.36 -4.74076 3.67929 0
M  V30 5215 H 486.43 -3.33636 3.51873 0
M  V30 5216 N 487.773 -1.03688 -1.18687 0
M  V30 5217 C 488.721 -0.618292 -2.24232 0
M  V30 5218 C 489.715 0.353045 -1.6568 0
M  V30 5219 O 490.921 0.220749 -1.78641 0
M  V30 5220 H 487.296 -0.181711 -0.729716 0
M  V30 5221 H 489.267 -1.51893 -2.56848 0
M  V30 5222 C 488.016 0.00677342 -3.47699 0
M  V30 5223 H 487.339 -0.731692 -3.93047 0
M  V30 5224 H 488.779 0.262492 -4.23187 0
M  V30 5225 C 487.238 1.25572 -3.12623 0
M  V30 5226 O 487.768 2.34691 -3.26011 0
M  V30 5227 N 485.974 1.14755 -2.66982 0
M  V30 5228 H 485.521 0.259601 -2.56289 0
M  V30 5229 H 485.479 1.98412 -2.43885 0
M  V30 5230 N 489.251 1.34841 -0.815825 0
M  V30 5231 C 490.667 1.51543 -0.500697 0
M  V30 5232 C 490.867 1.76261 0.976444 0
M  V30 5233 O 489.923 1.8094 1.76117 0
M  V30 5234 C 491.236 2.68487 -1.35407 0
M  V30 5235 C 492.784 2.82368 -1.35046 0
M  V30 5236 C 493.259 4.02347 -2.18816 0
M  V30 5237 N 494.75 4.09542 -2.16402 0
M  V30 5238 C 495.485 5.01517 -2.77971 0
M  V30 5239 N 494.981 5.98763 -3.48503 0
M  V30 5240 N 496.774 4.94334 -2.67563 0
M  V30 5241 H 488.925 1.17055 -1.77234 0
M  V30 5242 H 491.188 0.573481 -0.754866 0
M  V30 5243 H 490.894 2.56829 -2.40274 0
M  V30 5244 H 490.768 3.63321 -1.01377 0
M  V30 5245 H 493.155 2.93471 -0.309604 0
M  V30 5246 H 493.236 1.88363 -1.73069 0
M  V30 5247 H 492.88 3.92004 -3.22948 0
M  V30 5248 H 492.81 4.95551 -1.78148 0
M  V30 5249 H 495.301 3.39932 -1.65091 0
M  V30 5250 H 495.614 6.6556 -3.92747 0
M  V30 5251 H 493.959 5.98909 -3.52609 0
M  V30 5252 H 497.15 4.1732 -2.12041 0
M  V30 5253 H 497.323 5.6582 -3.15834 0
M  V30 5254 N 490.729 0.570148 1.46925 0
M  V30 5255 C 491.677 -0.183181 2.31878 0
M  V30 5256 C 492.671 -0.896721 1.43719 0
M  V30 5257 O 493.877 -0.816536 1.60414 0
M  V30 5258 H 490.252 -0.077944 0.74795 0
M  V30 5259 H 492.223 0.552312 2.93244 0
M  V30 5260 C 490.972 -1.19172 3.2664 0
M  V30 5261 H 490.295 -0.652088 3.94446 0
M  V30 5262 H 491.735 -1.68946 3.88887 0
M  V30 5263 C 490.194 -2.24627 2.51086 0
M  V30 5264 O 490.724 -3.31773 2.26472 0
M  V30 5265 N 488.93 -1.98898 2.11867 0
M  V30 5266 H 488.477 -1.11777 2.32086 0
M  V30 5267 H 488.435 -2.6967 1.61634 0
M  V30 5268 N 492.207 -1.54576 0.307264 0
M  V30 5269 C 493.437 -2.04378 -0.302158 0
M  V30 5270 C 493.845 -1.18381 -1.47589 0
M  V30 5271 O 493.188 -0.20352 -1.82569 0
M  V30 5272 C 493.25 -3.50133 -0.815305 0
M  V30 5273 C 492.914 -4.56401 0.233977 0
M  V30 5274 C 493.911 -5.08884 1.06456 0
M  V30 5275 C 491.596 -5.0088 0.377478 0
M  V30 5276 C 493.59 -6.04394 2.02452 0
M  V30 5277 C 491.277 -5.96208 1.34088 0
M  V30 5278 C 492.275 -6.47849 2.16288 0
M  V30 5279 O 491.963 -7.41308 3.10994 0
M  V30 5280 H 491.695 -0.672502 -0.0686839 0
M  V30 5281 H 494.249 -2.00484 0.446682 0
M  V30 5282 H 492.479 -3.51371 -1.61478 0
M  V30 5283 H 494.168 -3.83098 -1.34129 0
M  V30 5284 H 494.934 -4.75311 0.964596 0
M  V30 5285 H 490.813 -4.60309 -0.252405 0
M  V30 5286 H 494.357 -6.44626 2.66652 0
M  V30 5287 H 490.254 -6.29198 1.44154 0
M  V30 5288 H 491.022 -7.5913 3.06045 0
M  V30 5289 N 493.685 -0.035106 -1.57561 0
M  V30 5290 C 494.931 0.637362 -1.93156 0
M  V30 5291 C 495.286 1.69391 -0.912392 0
M  V30 5292 O 494.579 1.91469 0.070735 0
M  V30 5293 C 494.773 1.29149 -3.3325 0
M  V30 5294 C 494.602 0.29983 -4.48699 0
M  V30 5295 C 493.372 -0.102454 -5.05196 0
M  V30 5296 C 495.57 -0.448297 -5.12342 0
M  V30 5297 N 493.552 -1.08866 -6.0417 0
M  V30 5298 C 494.923 -1.28807 -6.06472 0
M  V30 5299 C 496.978 -0.508351 -4.95298 0
M  V30 5300 C 495.681 -2.18248 -6.85391 0
M  V30 5301 C 497.707 -1.39013 -5.7483 0
M  V30 5302 C 497.069 -2.21766 -6.6858 0
M  V30 5303 H 493.168 0.205358 -0.754554 0
M  V30 5304 H 495.752 -0.103682 -1.94424 0
M  V30 5305 H 493.923 2.00264 -3.3279 0
M  V30 5306 H 495.655 1.92147 -3.56177 0
M  V30 5307 H 492.41 0.273223 -4.72811 0
M  V30 5308 H 492.834 -1.57817 -6.58348 0
M  V30 5309 H 497.476 0.117197 -4.22638 0
M  V30 5310 H 495.194 -2.81855 -7.57353 0
M  V30 5311 H 498.78 -1.44096 -5.63673 0
M  V30 5312 H 497.66 -2.88892 -7.29048 0
M  V30 5313 N 495.163 1.55791 0.238111 0
M  V30 5314 C 496.073 1.94196 1.31625 0
M  V30 5315 C 497.089 0.843545 1.52185 0
M  V30 5316 O 498.265 1.1457 1.65637 0
M  V30 5317 C 495.33 2.2365 2.64918 0
M  V30 5318 C 494.391 3.46971 2.52804 0
M  V30 5319 C 493.624 3.7501 3.79741 0
M  V30 5320 O 493.847 3.04982 4.82019 0
M  V30 5321 O 492.781 4.68525 3.77846 0
M  V30 5322 H 496.607 2.86044 1.02043 0
M  V30 5323 H 494.192 1.42786 0.439603 0
M  V30 5324 H 496.074 2.43863 3.4367 0
M  V30 5325 H 494.749 1.34979 2.94215 0
M  V30 5326 H 493.656 3.32055 1.72309 0
M  V30 5327 H 494.989 4.35971 2.28451 0
M  V30 5328 N 496.642 -0.504142 1.49319 0
M  V30 5329 C 497.589 -1.60603 1.65756 0
M  V30 5330 C 498.559 -1.58425 0.499082 0
M  V30 5331 O 499.744 -1.76459 0.725728 0
M  V30 5332 C 496.884 -2.98764 1.72726 0
M  V30 5333 C 495.997 -3.10982 2.99857 0
M  V30 5334 C 495.132 -4.39857 2.97824 0
M  V30 5335 C 494.171 -4.45697 4.19548 0
M  V30 5336 N 493.308 -5.65995 4.15444 0
M  V30 5337 H 498.148 -1.45895 2.59843 0
M  V30 5338 H 495.685 -0.709891 1.28837 0
M  V30 5339 H 497.643 -3.78839 1.74747 0
M  V30 5340 H 496.273 -3.12183 0.821075 0
M  V30 5341 H 495.325 -2.23991 3.07461 0
M  V30 5342 H 496.637 -3.11157 3.89849 0
M  V30 5343 H 495.791 -5.2825 2.98391 0
M  V30 5344 H 494.53 -4.42242 2.05604 0
M  V30 5345 H 493.535 -3.55707 4.19229 0
M  V30 5346 H 494.76 -4.4503 5.12957 0
M  V30 5347 H 492.706 -5.69229 3.26059 0
M  V30 5348 H 492.623 -5.67773 4.99169 0
M  V30 5349 H 493.891 -6.56604 4.20109 0
M  V30 5350 N 498.12 -1.38341 -0.754957 0
M  V30 5351 C 499.067 -1.3546 -1.86867 0
M  V30 5352 C 500.037 -0.217369 -1.64672 0
M  V30 5353 O 501.222 -0.409383 -1.86356 0
M  V30 5354 C 498.362 -1.18413 -3.24149 0
M  V30 5355 C 497.475 -2.41511 -3.58185 0
M  V30 5356 C 496.61 -2.17205 -4.84763 0
M  V30 5357 C 495.649 -3.36081 -5.11582 0
M  V30 5358 N 494.786 -3.11219 -6.29354 0
M  V30 5359 H 499.626 -2.30672 -1.88664 0
M  V30 5360 H 497.163 -1.14607 -0.922154 0
M  V30 5361 H 499.121 -1.06545 -4.03366 0
M  V30 5362 H 497.751 -0.268397 -3.21682 0
M  V30 5363 H 496.803 -2.64056 -2.73822 0
M  V30 5364 H 498.115 -3.30115 -3.73932 0
M  V30 5365 H 497.269 -2.02465 -5.7192 0
M  V30 5366 H 496.008 -1.25964 -4.71152 0
M  V30 5367 H 495.013 -3.51341 -4.22894 0
M  V30 5368 H 496.238 -4.28196 -5.27091 0
M  V30 5369 H 494.184 -2.22624 -6.17069 0
M  V30 5370 H 494.101 -3.93373 -6.45596 0
M  V30 5371 H 495.369 -3.00132 -7.19403 0
M  V30 5372 N 499.598 0.982988 -1.23187 0
M  V30 5373 C 500.53 2.07729 -0.968572 0
M  V30 5374 C 501.543 1.62702 0.0564821 0
M  V30 5375 O 502.732 1.77603 -0.178733 0
M  V30 5376 C 499.832 3.36071 -0.436974 0
M  V30 5377 C 499.005 4.10081 -1.52159 0
M  V30 5378 C 498.064 5.16701 -0.99532 0
M  V30 5379 O 497.09 5.43727 -1.68373 0
M  V30 5380 N 498.292 5.80226 0.178192 0
M  V30 5381 H 501.057 2.30894 -1.9107 0
M  V30 5382 H 498.618 1.14949 -1.1401 0
M  V30 5383 H 500.61 4.04639 -0.0700051 0
M  V30 5384 H 499.18 3.09893 0.410509 0
M  V30 5385 H 498.4 3.36004 -2.06144 0
M  V30 5386 H 499.688 4.56295 -2.25105 0
M  V30 5387 H 499.086 5.60651 0.754096 0
M  V30 5388 H 497.643 6.49982 0.486449 0
M  V30 5389 N 501.076 1.04316 1.18135 0
M  V30 5390 C 501.986 0.646876 2.25505 0
M  V30 5391 C 503.002 -0.328008 1.7088 0
M  V30 5392 O 504.178 -0.182309 2.00573 0
M  V30 5393 C 501.243 0.0185664 3.46695 0
M  V30 5394 C 500.304 1.04277 4.16443 0
M  V30 5395 C 499.537 0.444352 5.31847 0
M  V30 5396 O 499.76 -0.748735 5.65465 0
M  V30 5397 O 498.694 1.17428 5.90334 0
M  V30 5398 H 502.52 1.54147 2.61672 0
M  V30 5399 H 500.105 0.814188 1.25265 0
M  V30 5400 H 501.987 -0.331068 4.20097 0
M  V30 5401 H 500.662 -0.849814 3.12346 0
M  V30 5402 H 499.569 1.44425 3.45098 0
M  V30 5403 H 500.902 1.882 4.54798 0
M  V30 5404 N 502.554 -1.34406 0.822964 0
M  V30 5405 C 503.464 -2.33298 0.246838 0
M  V30 5406 C 504.48 -1.62625 -0.618797 0
M  V30 5407 O 505.656 -1.94391 -0.526685 0
M  V30 5408 C 502.721 -3.41785 -0.581731 0
M  V30 5409 C 501.782 -4.28206 0.306309 0
M  V30 5410 C 501.015 -5.31512 -0.48281 0
M  V30 5411 O 501.238 -5.43973 -1.71607 0
M  V30 5412 O 500.172 -6.01749 0.134884 0
M  V30 5413 H 503.998 -2.84401 1.06534 0
M  V30 5414 H 501.583 -1.37466 0.585108 0
M  V30 5415 H 503.465 -4.08028 -1.05313 0
M  V30 5416 H 502.14 -2.92925 -1.37756 0
M  V30 5417 H 501.047 -3.64885 0.825199 0
M  V30 5418 H 502.38 -4.80507 1.06649 0
M  V30 5419 N 504.032 -0.577932 -1.46621 0
M  V30 5420 C 504.995 0.147805 -2.28723 0
M  V30 5421 C 505.995 0.823325 -1.38123 0
M  V30 5422 O 507.185 0.676011 -1.60548 0
M  V30 5423 C 504.317 1.21853 -3.18378 0
M  V30 5424 H 505.51 -0.573654 -2.94362 0
M  V30 5425 H 503.063 -0.335703 -1.52652 0
M  V30 5426 H 503.798 1.97173 -2.57475 0
M  V30 5427 H 503.583 0.738714 -3.85078 0
M  V30 5428 H 505.073 1.72768 -3.80186 0
M  V30 5429 N 505.51 1.54411 -0.315457 0
M  V30 5430 C 506.926 1.59556 0.037464 0
M  V30 5431 C 507.126 1.33217 1.5118 0
M  V30 5432 O 506.182 1.11264 2.26664 0
M  V30 5433 C 507.495 2.98372 -0.373477 0
M  V30 5434 C 509.043 3.11324 -0.323452 0
M  V30 5435 C 509.518 4.52472 -0.709433 0
M  V30 5436 N 511.009 4.58437 -0.662524 0
M  V30 5437 C 511.744 5.65751 -0.933474 0
M  V30 5438 N 511.24 6.81039 -1.27114 0
M  V30 5439 N 513.033 5.55489 -0.859573 0
M  V30 5440 H 505.184 1.6979 -1.27614 0
M  V30 5441 H 507.447 0.793732 -0.518356 0
M  V30 5442 H 507.153 3.22618 -1.40037 0
M  V30 5443 H 507.027 3.76264 0.265615 0
M  V30 5444 H 509.414 2.86818 0.694223 0
M  V30 5445 H 509.495 2.35555 -0.997367 0
M  V30 5446 H 509.139 4.7771 -1.72498 0
M  V30 5447 H 509.069 5.26598 -0.0132923 0
M  V30 5448 H 511.56 3.75636 -0.413065 0
M  V30 5449 H 511.873 7.58816 -1.46348 0
M  V30 5450 H 510.218 6.82555 -1.30932 0
M  V30 5451 H 513.409 4.64299 -0.595324 0
M  V30 5452 H 513.582 6.39036 -1.0741 0
M  V30 5453 N 506.988 0.0434614 1.5754 0
M  V30 5454 C 507.935 -0.93356 2.11077 0
M  V30 5455 C 508.905 -1.31383 1.01626 0
M  V30 5456 O 510.09 -1.40465 1.29129 0
M  V30 5457 C 507.23 -2.20578 2.65404 0
M  V30 5458 C 506.343 -1.88068 3.88914 0
M  V30 5459 C 505.478 -3.09691 4.31584 0
M  V30 5460 C 504.517 -2.73067 5.47815 0
M  V30 5461 N 503.654 -3.87359 5.85574 0
M  V30 5462 H 508.494 -0.470118 2.94268 0
M  V30 5463 H 506.031 -0.220434 1.45439 0
M  V30 5464 H 507.989 -2.95011 2.94999 0
M  V30 5465 H 506.619 -2.64513 1.85021 0
M  V30 5466 H 505.671 -1.03816 3.6596 0
M  V30 5467 H 506.983 -1.57104 4.73413 0
M  V30 5468 H 506.137 -3.92431 4.62691 0
M  V30 5469 H 504.876 -3.43827 3.45882 0
M  V30 5470 H 503.881 -1.88742 5.16388 0
M  V30 5471 H 505.106 -2.40131 6.35227 0
M  V30 5472 H 503.052 -4.21311 5.02825 0
M  V30 5473 H 502.969 -3.60068 6.64746 0
M  V30 5474 H 504.237 -4.70761 6.21292 0
M  V30 5475 N 508.466 -1.55915 -0.229846 0
M  V30 5476 C 509.691 -1.8296 -0.976743 0
M  V30 5477 C 510.116 -0.622735 -1.77493 0
M  V30 5478 O 509.474 0.428431 -1.76165 0
M  V30 5479 C 509.522 -3.07916 -1.8767 0
M  V30 5480 O 508.626 -2.86028 -2.97088 0
M  V30 5481 H 507.967 -0.603453 -0.277021 0
M  V30 5482 H 510.497 -2.0312 -0.245669 0
M  V30 5483 H 510.507 -3.37802 -2.2881 0
M  V30 5484 H 509.182 -3.95389 -1.28996 0
M  V30 5485 H 507.759 -2.67355 -2.59954 0
M  V30 5486 N 509.944 0.496216 -1.49584 0
M  V30 5487 C 511.355 1.07765 -1.52459 0
M  V30 5488 C 511.706 1.93679 -0.31353 0
M  V30 5489 O 510.831 2.08588 0.576186 0
M  V30 5490 C 511.426 1.96111 -2.76271 0
M  V30 5491 C 509.985 2.49409 -2.81908 0
M  V30 5492 C 509.132 1.27142 -2.46435 0
M  V30 5493 H 512.083 0.279914 -1.56212 0
M  V30 5494 H 512.104 2.80862 -2.56704 0
M  V30 5495 H 511.616 1.33555 -3.64396 0
M  V30 5496 H 509.717 3.1559 -1.98074 0
M  V30 5497 H 509.83 2.86234 -3.84196 0
M  V30 5498 H 508.194 1.59818 -1.98319 0
M  V30 5499 H 508.977 0.662866 -3.3684 0
M  V30 5500 N 511.423 1.38739 0.74761 0
M  V30 5501 C 512.651 1.38521 1.53686 0
M  V30 5502 C 513.066 -0.0235129 1.88785 0
M  V30 5503 O 512.423 -0.991662 1.53207 0
M  V30 5504 C 512.474 2.24641 2.83229 0
M  V30 5505 O 512.195 3.60026 2.49625 0
M  V30 5506 C 513.696 2.32669 3.77333 0
M  V30 5507 H 510.916 0.473589 0.475347 0
M  V30 5508 H 513.46 1.82395 0.924786 0
M  V30 5509 H 511.615 1.84213 3.40799 0
M  V30 5510 H 512.029 4.05435 3.3275 0
M  V30 5511 H 513.503 2.97201 4.65162 0
M  V30 5512 H 513.98 1.3421 4.18192 0
M  V30 5513 H 514.586 2.73512 3.25685 0
M  V30 5514 N 512.901 -0.976442 1.23707 0
M  V30 5515 C 514.312 -1.53284 1.06587 0
M  V30 5516 C 514.663 -1.92765 -0.365526 0
M  V30 5517 O 513.788 -1.7645 -1.25277 0
M  V30 5518 C 514.383 -2.78548 1.92864 0
M  V30 5519 C 512.942 -3.30574 1.79994 0
M  V30 5520 C 512.089 -2.03538 1.88328 0
M  V30 5521 H 515.04 -0.795692 1.37311 0
M  V30 5522 H 515.061 -3.5155 1.45577 0
M  V30 5523 H 514.573 -2.49782 2.97037 0
M  V30 5524 H 512.674 -3.64211 0.786202 0
M  V30 5525 H 512.787 -4.00065 2.636 0
M  V30 5526 H 511.151 -2.17853 1.31954 0
M  V30 5527 H 511.934 -1.77149 2.94063 0
M  V30 5528 N 514.379 -1.04941 -1.1758 0
M  V30 5529 C 515.604 -0.778253 -1.92245 0
M  V30 5530 C 516.029 0.659707 -1.76152 0
M  V30 5531 O 515.387 1.45803 -1.07755 0
M  V30 5532 C 515.435 -1.16051 -3.41416 0
M  V30 5533 O 514.539 -0.291153 -4.11371 0
M  V30 5534 H 513.88 -0.285619 -0.599431 0
M  V30 5535 H 516.41 -1.40159 -1.49052 0
M  V30 5536 H 516.42 -1.12619 -3.92149 0
M  V30 5537 H 515.095 -2.208 -3.52449 0
M  V30 5538 H 513.672 -0.385851 -3.70898 0
M  V30 5539 N 515.857 1.33968 -0.830081 0
M  V30 5540 C 516.82 2.27694 -0.26235 0
M  V30 5541 C 517.82 1.50589 0.563876 0
M  V30 5542 O 519.01 1.70028 0.378941 0
M  V30 5543 C 516.142 3.35002 0.63138 0
M  V30 5544 H 517.335 2.79419 -1.08928 0
M  V30 5545 H 514.888 1.44221 -0.602486 0
M  V30 5546 H 515.623 2.88504 1.48109 0
M  V30 5547 H 515.408 3.92079 0.0403276 0
M  V30 5548 H 516.898 4.04897 1.02217 0
M  V30 5549 N 517.335 0.585699 1.46312 0
M  V30 5550 C 518.746 0.159938 1.86014 0
M  V30 5551 C 519.097 -1.27775 1.48889 0
M  V30 5552 O 518.222 -1.96559 0.90519 0
M  V30 5553 C 518.817 0.283485 3.37612 0
M  V30 5554 C 517.376 -0.0874256 3.76298 0
M  V30 5555 C 516.523 0.618055 2.70325 0
M  V30 5556 H 519.474 0.793737 1.37425 0
M  V30 5557 H 519.495 -0.490348 3.77327 0
M  V30 5558 H 519.007 1.32995 3.64601 0
M  V30 5559 H 517.108 -1.13391 3.54927 0
M  V30 5560 H 517.221 0.290975 4.78216 0
M  V30 5561 H 515.585 0.057993 2.54634 0
M  V30 5562 H 516.368 1.66623 3.00153 0
M  V30 5563 N 518.813 -1.54241 0.323641 0
M  V30 5564 C 520.059 -2.00867 -0.279323 0
M  V30 5565 C 520.392 -1.21146 -1.5178 0
M  V30 5566 O 519.667 -0.29378 -1.92269 0
M  V30 5567 C 519.95 -3.54837 -0.613387 0
M  V30 5568 C 519.803 -4.45284 0.635803 0
M  V30 5569 C 521.122 -4.16186 -1.43099 0
M  V30 5570 H 518.241 -0.730177 -0.100049 0
M  V30 5571 H 520.883 -1.84829 0.440235 0
M  V30 5572 H 519.033 -3.68634 -1.22641 0
M  V30 5573 H 520.705 -4.43357 1.27406 0
M  V30 5574 H 518.948 -4.14956 1.26466 0
M  V30 5575 H 519.619 -5.5084 0.357597 0
M  V30 5576 H 522.095 -4.05964 -0.912814 0
M  V30 5577 H 520.971 -5.24031 -1.6335 0
M  V30 5578 H 521.232 -3.69516 -2.42715 0
M  V30 5579 N 520.291 -0.0518155 -1.57515 0
M  V30 5580 C 521.702 0.483787 -1.80323 0
M  V30 5581 C 522.053 1.70879 -0.964099 0
M  V30 5582 O 521.178 2.15643 -0.180872 0
M  V30 5583 C 521.773 0.884459 -3.27052 0
M  V30 5584 C 520.332 1.36504 -3.50776 0
M  V30 5585 C 519.479 0.340539 -2.75201 0
M  V30 5586 H 522.43 -0.277691 -1.56252 0
M  V30 5587 H 522.451 1.74733 -3.38007 0
M  V30 5588 H 521.963 -0.00731093 -3.88099 0
M  V30 5589 H 520.064 2.27598 -2.95009 0
M  V30 5590 H 520.177 1.35675 -4.59488 0
M  V30 5591 H 518.541 0.81356 -2.41357 0
M  V30 5592 H 519.324 -0.543156 -3.38976 0
M  V30 5593 N 521.769 1.56035 0.221574 0
M  V30 5594 C 522.699 1.95434 1.2778 0
M  V30 5595 C 523.68 0.822564 1.48889 0
M  V30 5596 O 524.865 1.08486 1.61072 0
M  V30 5597 C 521.995 2.27102 2.62759 0
M  V30 5598 C 520.949 3.4277 2.56306 0
M  V30 5599 C 520.275 3.60043 3.95314 0
M  V30 5600 C 521.575 4.77742 2.11093 0
M  V30 5601 H 523.269 2.83912 0.950504 0
M  V30 5602 H 520.815 1.36596 0.455791 0
M  V30 5603 H 522.768 2.53256 3.36807 0
M  V30 5604 H 521.492 1.35478 2.97176 0
M  V30 5605 H 520.151 3.16664 1.84715 0
M  V30 5606 H 519.799 2.65794 4.27039 0
M  V30 5607 H 519.499 4.37841 3.91879 0
M  V30 5608 H 521.023 3.88545 4.71025 0
M  V30 5609 H 522.437 5.03102 2.74885 0
M  V30 5610 H 520.834 5.58823 2.18716 0
M  V30 5611 H 521.904 4.731 1.06321 0
M  V30 5612 N 523.247 -0.488276 1.49845 0
M  V30 5613 C 524.475 -1.26527 1.63702 0
M  V30 5614 C 524.89 -1.8618 0.313447 0
M  V30 5615 O 524.247 -1.68432 -0.702624 0
M  V30 5616 C 524.298 -2.3864 2.71538 0
M  V30 5617 O 524.019 -1.81437 3.98763 0
M  V30 5618 C 525.52 -3.29805 2.96215 0
M  V30 5619 H 522.74 -0.383295 0.55075 0
M  V30 5620 H 525.284 -0.584779 1.95961 0
M  V30 5621 H 523.439 -3.02496 2.42023 0
M  V30 5622 H 523.853 -2.55135 4.58265 0
M  V30 5623 H 525.327 -4.04722 3.75372 0
M  V30 5624 H 525.804 -3.87563 2.06619 0
M  V30 5625 H 526.41 -2.71703 3.27196 0
M  V30 5626 N 524.725 -1.39134 -0.740242 0
M  V30 5627 C 525.635 -1.39697 -1.88473 0
M  V30 5628 C 526.651 -0.292403 -1.71526 0
M  V30 5629 O 527.827 -0.533021 -1.94219 0
M  V30 5630 C 524.892 -1.23382 -3.24003 0
M  V30 5631 C 523.953 -2.43763 -3.53381 0
M  V30 5632 C 523.186 -2.28216 -4.82445 0
M  V30 5633 O 523.409 -1.28288 -5.55786 0
M  V30 5634 O 522.343 -3.1709 -5.11603 0
M  V30 5635 H 526.169 -2.36159 -1.90952 0
M  V30 5636 H 523.754 -1.20194 -0.887346 0
M  V30 5637 H 525.636 -1.16395 -4.05006 0
M  V30 5638 H 524.311 -0.300121 -3.22306 0
M  V30 5639 H 523.218 -2.56325 -2.72485 0
M  V30 5640 H 524.551 -3.35808 -3.59852 0
M  V30 5641 N 526.204 0.969867 -1.24223 0
M  V30 5642 C 527.615 1.52717 -1.07399 0
M  V30 5643 C 527.966 1.92956 0.355298 0
M  V30 5644 O 527.091 1.77112 1.2434 0
M  V30 5645 C 527.686 2.77521 -1.94339 0
M  V30 5646 C 526.245 3.29615 -1.81744 0
M  V30 5647 C 525.392 2.02537 -1.89405 0
M  V30 5648 H 528.343 0.788399 -1.37732 0
M  V30 5649 H 528.364 3.50773 -1.47439 0
M  V30 5650 H 527.876 2.48203 -2.98357 0
M  V30 5651 H 525.977 3.63789 -0.805505 0
M  V30 5652 H 526.09 3.98661 -2.65718 0
M  V30 5653 H 524.454 2.17151 -1.33108 0
M  V30 5654 H 525.237 1.75587 -2.94999 0
M  V30 5655 N 527.682 1.05563 1.17022 0
M  V30 5656 C 528.645 0.664098 2.19368 0
M  V30 5657 C 529.645 -0.286358 1.5823 0
M  V30 5658 O 530.835 -0.069728 1.7406 0
M  V30 5659 C 527.967 -0.0239932 3.40892 0
M  V30 5660 H 529.16 1.57 2.55521 0
M  V30 5661 H 526.713 0.849964 1.31169 0
M  V30 5662 H 527.448 -0.942988 3.10287 0
M  V30 5663 H 527.233 0.659351 3.86516 0
M  V30 5664 H 528.723 -0.283909 4.16634 0
M  V30 5665 N 529.16 -1.33526 0.837174 0
M  V30 5666 C 530.123 -2.27551 0.274421 0
M  V30 5667 C 531.123 -1.50886 -0.555881 0
M  V30 5668 O 532.313 -1.70227 -0.369918 0
M  V30 5669 C 529.445 -3.35332 -0.613605 0
M  V30 5670 H 530.638 -2.78837 1.10408 0
M  V30 5671 H 528.191 -1.439 0.610126 0
M  V30 5672 H 528.926 -2.89285 -1.46577 0
M  V30 5673 H 528.711 -3.92095 -0.0195341 0
M  V30 5674 H 530.201 -4.05433 -1.00068 0
M  V30 5675 N 530.638 -0.59345 -1.46 0
M  V30 5676 C 531.57 0.171569 -2.28557 0
M  V30 5677 C 532.583 0.845273 -1.39137 0
M  V30 5678 O 533.772 0.713033 -1.6364 0
M  V30 5679 C 530.872 1.26311 -3.14482 0
M  V30 5680 C 530.045 0.679258 -4.32094 0
M  V30 5681 C 529.104 1.65987 -4.99334 0
M  V30 5682 O 528.13 1.19171 -5.56585 0
M  V30 5683 N 529.332 2.99414 -4.97324 0
M  V30 5684 H 532.097 -0.536771 -2.94854 0
M  V30 5685 H 529.658 -0.431954 -1.56031 0
M  V30 5686 H 531.65 1.91863 -3.5633 0
M  V30 5687 H 530.22 1.87416 -2.50188 0
M  V30 5688 H 529.44 -0.153992 -3.93899 0
M  V30 5689 H 530.728 0.26916 -5.08088 0
M  V30 5690 H 530.126 3.40064 -4.52076 0
M  V30 5691 H 528.683 3.60426 -5.4308 0
M  V30 5692 N 532.116 1.54067 -0.331816 0
M  V30 5693 C 533.527 1.86059 0.15454 0
M  V30 5694 C 533.878 1.25331 1.50952 0
M  V30 5695 O 533.003 0.562441 2.08963 0
M  V30 5696 C 533.598 3.37581 0.287192 0
M  V30 5697 C 532.157 3.69493 0.717773 0
M  V30 5698 C 531.304 2.76863 -0.155569 0
M  V30 5699 H 534.255 1.48797 -0.55182 0
M  V30 5700 H 534.276 3.63744 1.11671 0
M  V30 5701 H 533.788 3.81751 -0.699131 0
M  V30 5702 H 531.889 3.3086 1.71354 0
M  V30 5703 H 532.002 4.76315 0.5158 0
M  V30 5704 H 530.366 2.51995 0.370213 0
M  V30 5705 H 531.149 3.23861 -1.13881 0
M  V30 5706 N 533.594 0.0601682 1.57485 0
M  V30 5707 C 534.842 -0.610386 1.92662 0
M  V30 5708 C 535.163 -1.70849 0.939981 0
M  V30 5709 O 534.433 -1.95895 -0.0137455 0
M  V30 5710 H 533.013 -0.228457 0.711208 0
M  V30 5711 H 535.675 0.115288 1.94559 0
M  V30 5712 H 534.771 -1.0432 2.94149 0
M  V30 5713 N 535.072 -1.5615 -0.213296 0
M  V30 5714 C 535.982 -1.96265 -1.28519 0
M  V30 5715 C 536.998 -0.86765 -1.50824 0
M  V30 5716 O 538.174 -1.17191 -1.63793 0
M  V30 5717 C 535.239 -2.27836 -2.61327 0
M  V30 5718 C 534.3 -3.50949 -2.47252 0
M  V30 5719 C 533.533 -3.81004 -3.73727 0
M  V30 5720 O 533.756 -3.12612 -4.77106 0
M  V30 5721 O 532.69 -4.74477 -3.70344 0
M  V30 5722 H 536.516 -2.87631 -0.974795 0
M  V30 5723 H 534.101 -1.43467 -0.416832 0
M  V30 5724 H 535.983 -2.49299 -3.39747 0
M  V30 5725 H 534.658 -1.39643 -2.9203 0
M  V30 5726 H 533.565 -3.34754 -1.67004 0
M  V30 5727 H 534.898 -4.39551 -2.21486 0
M  V30 5728 N 536.55 0.480323 -1.50102 0
M  V30 5729 C 537.798 1.23063 -1.60312 0
M  V30 5730 C 538.119 1.92659 -0.301226 0
M  V30 5731 O 537.389 1.83691 0.680753 0
M  V30 5732 H 535.969 0.457231 -0.590719 0
M  V30 5733 H 538.631 0.554893 -1.86834 0
M  V30 5734 H 537.727 1.9835 -2.40964 0
M  V30 5735 N 538.028 1.39524 0.732853 0
M  V30 5736 C 538.978 1.34905 1.83806 0
M  V30 5737 C 539.962 0.229546 1.59254 0
M  V30 5738 O 541.154 0.467255 1.70721 0
M  V30 5739 C 538.283 1.19699 3.21756 0
M  V30 5740 C 537.369 2.36359 3.5213 0
M  V30 5741 N 537.76 3.61834 3.53426 0
M  V30 5742 C 536.058 2.29363 3.82503 0
M  V30 5743 C 536.759 4.38992 3.81655 0
M  V30 5744 N 535.735 3.68606 3.99538 0
M  V30 5745 H 539.537 2.29882 1.83116 0
M  V30 5746 H 537.051 1.33051 0.931194 0
M  V30 5747 H 539.048 1.14472 4.00876 0
M  V30 5748 H 537.708 0.256739 3.23683 0
M  V30 5749 H 538.719 3.95228 3.34686 0
M  V30 5750 H 535.396 1.43612 3.92023 0
M  V30 5751 H 536.786 5.47763 3.89108 0
M  V30 5752 N 539.506 -0.963266 1.24736 0
M  V30 5753 C 540.469 -2.04013 1.04457 0
M  V30 5754 C 541.469 -1.608 0.000335555 0
M  V30 5755 O 542.659 -1.72515 0.241719 0
M  V30 5756 C 539.791 -3.35858 0.584162 0
M  V30 5757 H 540.984 -2.23436 2.00041 0
M  V30 5758 H 538.537 -1.13914 1.07021 0
M  V30 5759 H 539.272 -3.22128 -0.374673 0
M  V30 5760 H 539.057 -3.68568 1.3379 0
M  V30 5761 H 540.547 -4.1502 0.463451 0
M  V30 5762 N 540.985 -1.06182 -1.16461 0
M  V30 5763 C 541.948 -0.675723 -2.19013 0
M  V30 5764 C 542.948 0.277963 -1.58379 0
M  V30 5765 O 544.138 0.0604962 -1.74095 0
M  V30 5766 C 541.27 0.00591459 -3.40899 0
M  V30 5767 H 542.463 -1.58353 -2.54685 0
M  V30 5768 H 540.016 -0.856908 -1.30716 0
M  V30 5769 H 540.751 0.92652 -3.10783 0
M  V30 5770 H 540.536 -0.67984 -3.86161 0
M  V30 5771 H 542.026 0.26181 -4.16778 0
M  V30 5772 N 542.463 1.3308 -0.844243 0
M  V30 5773 C 543.874 1.7992 -0.498566 0
M  V30 5774 C 544.225 1.69808 0.982834 0
M  V30 5775 O 543.35 1.25051 1.7661 0
M  V30 5776 C 543.945 3.26677 -0.898204 0
M  V30 5777 C 542.504 3.71513 -0.604583 0
M  V30 5778 C 541.651 2.54393 -1.10362 0
M  V30 5779 H 544.602 1.20526 -1.03244 0
M  V30 5780 H 544.623 3.79918 -0.21039 0
M  V30 5781 H 544.135 3.34004 -1.97643 0
M  V30 5782 H 542.236 3.69708 0.46335 0
M  V30 5783 H 542.349 4.64755 -1.16358 0
M  V30 5784 H 540.713 2.49246 -0.524273 0
M  V30 5785 H 541.496 2.6448 -2.18873 0
M  V30 5786 N 543.941 0.601185 1.45683 0
M  V30 5787 C 545.169 0.100054 2.06658 0
M  V30 5788 C 545.584 -1.21285 1.44691 0
M  V30 5789 O 544.941 -1.73735 0.558772 0
M  V30 5790 C 544.992 -0.0528579 3.61461 0
M  V30 5791 O 544.713 1.20809 4.21114 0
M  V30 5792 C 546.214 -0.586193 4.39407 0
M  V30 5793 H 543.434 0.065905 0.667756 0
M  V30 5794 H 545.978 0.827101 1.87028 0
M  V30 5795 H 544.133 -0.730203 3.80456 0
M  V30 5796 H 544.547 1.03368 5.14213 0
M  V30 5797 H 546.021 -0.642297 5.4825 0
M  V30 5798 H 546.498 -1.60713 4.0874 0
M  V30 5799 H 547.104 0.0568935 4.25262 0
M  V30 5800 N 545.419 -1.53889 0.339982 0
M  V30 5801 C 546.367 -2.26391 -0.533822 0
M  V30 5802 C 547.361 -1.28404 -1.10493 0
M  V30 5803 O 548.567 -1.46124 -1.05108 0
M  V30 5804 H 544.942 -0.727385 -0.190828 0
M  V30 5805 H 546.913 -2.98233 0.0997484 0
M  V30 5806 C 545.662 -3.04707 -1.67479 0
M  V30 5807 H 544.985 -3.79934 -1.2446 0
M  V30 5808 H 546.425 -3.58657 -2.26144 0
M  V30 5809 C 544.884 -2.13989 -2.60212 0
M  V30 5810 O 545.414 -1.73361 -3.62366 0
M  V30 5811 N 543.62 -1.79141 -2.28816 0
M  V30 5812 H 543.167 -2.12378 -1.45785 0
M  V30 5813 H 543.125 -1.18725 -2.91121 0
M  V30 5814 N 546.897 -0.0685191 -1.57451 0
M  V30 5815 C 548.143 0.602239 -1.93652 0
M  V30 5816 C 548.476 1.6946 -0.948526 0
M  V30 5817 O 547.751 1.94487 0.022782 0
M  V30 5818 C 548.034 1.18223 -3.4014 0
M  V30 5819 C 547.887 0.0967431 -4.49696 0
M  V30 5820 C 549.206 2.08872 -3.87377 0
M  V30 5821 H 546.325 0.217453 -0.70419 0
M  V30 5822 H 548.967 -0.133821 -1.89528 0
M  V30 5823 H 547.117 1.80953 -3.43785 0
M  V30 5824 H 548.789 -0.536155 -4.58174 0
M  V30 5825 H 547.032 -0.573063 -4.29998 0
M  V30 5826 H 547.703 0.542894 -5.49324 0
M  V30 5827 H 550.179 1.56081 -3.85717 0
M  V30 5828 H 549.055 2.46389 -4.90493 0
M  V30 5829 H 549.316 2.99572 -3.25129 0
M  V30 5830 N 548.375 1.56261 0.205012 0
M  V30 5831 C 549.621 1.80306 0.9283 0
M  V30 5832 C 549.954 0.640932 1.83319 0
M  V30 5833 O 549.229 -0.359032 1.91158 0
M  V30 5834 C 549.512 3.14547 1.75306 0
M  V30 5835 C 549.365 4.41236 0.873562 0
M  V30 5836 C 550.684 3.45382 2.72762 0
M  V30 5837 H 547.803 0.655929 0.336044 0
M  V30 5838 H 550.445 1.88984 0.196211 0
M  V30 5839 H 548.595 3.0728 2.37721 0
M  V30 5840 H 550.267 4.60539 0.264887 0
M  V30 5841 H 548.51 4.33427 0.179773 0
M  V30 5842 H 549.181 5.31639 1.48541 0
M  V30 5843 H 551.657 3.52884 2.20481 0
M  V30 5844 H 550.533 4.40449 3.2756 0
M  V30 5845 H 550.794 2.68377 3.51321 0
M  V30 5846 N 549.853 -0.472356 1.50355 0
M  V30 5847 C 550.763 -1.59637 1.7191 0
M  V30 5848 C 551.779 -1.63247 0.602195 0
M  V30 5849 O 552.955 -1.81139 0.880369 0
M  V30 5850 C 550.02 -2.9586 1.80742 0
M  V30 5851 C 549.081 -3.02649 3.04471 0
M  V30 5852 C 548.314 -4.32374 3.12872 0
M  V30 5853 O 548.537 -5.22807 2.28099 0
M  V30 5854 O 547.471 -4.44728 4.05587 0
M  V30 5855 H 551.297 -1.44373 2.67189 0
M  V30 5856 H 548.882 -0.651717 1.34436 0
M  V30 5857 H 550.764 -3.7677 1.88739 0
M  V30 5858 H 549.439 -3.11325 0.88647 0
M  V30 5859 H 548.346 -2.20821 3.01975 0
M  V30 5860 H 549.679 -2.92119 3.9614 0
M  V30 5861 N 551.331 -1.39911 -0.725443 0
M  V30 5862 C 552.279 -1.39552 -1.86086 0
M  V30 5863 C 553.273 -0.277334 -1.67114 0
M  V30 5864 O 554.479 -0.447865 -1.74339 0
M  V30 5865 H 550.854 -0.435993 -0.612711 0
M  V30 5866 H 552.825 -2.35305 -1.83505 0
M  V30 5867 C 551.574 -1.26529 -3.2386 0
M  V30 5868 H 550.897 -2.11845 -3.3906 0
M  V30 5869 H 552.337 -1.30336 -4.03471 0
M  V30 5870 C 550.796 0.0254168 -3.3689 0
M  V30 5871 O 551.326 0.992048 -3.89257 0
M  V30 5872 N 549.532 0.0916528 -2.90455 0
M  V30 5873 H 549.079 -0.695675 -2.48028 0
M  V30 5874 H 549.037 0.954745 -2.99553 0
M  V30 5875 N 552.809 0.956637 -1.25245 0
M  V30 5876 C 554.22 1.51569 -1.09012 0
M  V30 5877 C 554.571 1.93322 0.334813 0
M  V30 5878 O 553.696 1.78421 1.22454 0
M  V30 5879 C 554.291 2.75444 -1.97271 0
M  V30 5880 C 552.85 3.27669 -1.8523 0
M  V30 5881 C 551.997 2.00517 -1.91542 0
M  V30 5882 H 554.948 0.773746 -1.3856 0
M  V30 5883 H 554.969 3.4919 -1.51151 0
M  V30 5884 H 554.481 2.45024 -3.00973 0
M  V30 5885 H 552.582 3.62914 -0.844045 0
M  V30 5886 H 552.695 3.9582 -2.69932 0
M  V30 5887 H 551.059 2.15727 -1.35404 0
M  V30 5888 H 551.842 1.72448 -2.96844 0
M  V30 5889 N 554.287 1.06798 1.15896 0
M  V30 5890 C 555.217 0.704677 2.22613 0
M  V30 5891 C 556.198 -0.305252 1.67339 0
M  V30 5892 O 557.383 -0.179247 1.93371 0
M  V30 5893 C 554.513 0.0957325 3.47168 0
M  V30 5894 C 553.467 1.0322 4.15367 0
M  V30 5895 C 552.793 0.286293 5.33933 0
M  V30 5896 C 554.093 2.36341 4.65768 0
M  V30 5897 H 555.787 1.59688 2.53259 0
M  V30 5898 H 553.333 0.769257 1.21731 0
M  V30 5899 H 555.286 -0.170333 4.21056 0
M  V30 5900 H 554.01 -0.831516 3.15838 0
M  V30 5901 H 552.669 1.28309 3.43413 0
M  V30 5902 H 552.317 -0.644237 4.98857 0
M  V30 5903 H 552.017 0.910436 5.80504 0
M  V30 5904 H 553.541 0.0278938 6.10594 0
M  V30 5905 H 554.955 2.1561 5.31211 0
M  V30 5906 H 553.352 2.94299 5.2298 0
M  V30 5907 H 554.422 2.99047 3.81705 0
M  V30 5908 N 555.766 -1.3263 0.851289 0
M  V30 5909 C 557.177 -1.79653 0.5081 0
M  V30 5910 C 557.528 -1.70327 -0.973815 0
M  V30 5911 O 556.653 -1.25986 -1.75944 0
M  V30 5912 C 557.248 -3.26196 0.915515 0
M  V30 5913 C 555.807 -3.71187 0.624277 0
M  V30 5914 C 554.954 -2.53804 1.11709 0
M  V30 5915 H 557.905 -1.19976 1.03882 0
M  V30 5916 H 557.926 -3.79801 0.230535 0
M  V30 5917 H 557.438 -3.32952 1.99411 0
M  V30 5918 H 555.539 -3.69948 -0.443737 0
M  V30 5919 H 555.652 -4.64132 1.18821 0
M  V30 5920 H 554.016 -2.48964 0.537484 0
M  V30 5921 H 554.799 -2.63315 2.20272 0
M  V30 5922 N 557.244 -0.608902 -1.45362 0
M  V30 5923 C 558.154 0.110969 -2.34337 0
M  V30 5924 C 559.17 0.859007 -1.51318 0
M  V30 5925 O 560.346 0.816296 -1.84116 0
M  V30 5926 C 557.411 1.09494 -3.28956 0
M  V30 5927 C 556.472 0.348718 -4.27881 0
M  V30 5928 C 555.705 1.28582 -5.17979 0
M  V30 5929 O 555.928 2.52369 -5.11533 0
M  V30 5930 O 554.862 0.782172 -5.96796 0
M  V30 5931 H 558.688 -0.620258 -2.97299 0
M  V30 5932 H 556.273 -0.36916 -1.44767 0
M  V30 5933 H 558.155 1.66163 -3.87257 0
M  V30 5934 H 556.83 1.80717 -2.68557 0
M  V30 5935 H 555.737 -0.260465 -3.73192 0
M  V30 5936 H 557.07 -0.323049 -4.91139 0
M  V30 5937 N 558.722 1.53707 -0.348139 0
M  V30 5938 C 559.95 2.05406 0.248224 0
M  V30 5939 C 560.365 1.22282 1.43849 0
M  V30 5940 O 559.722 0.259244 1.80649 0
M  V30 5941 C 559.773 3.55446 0.658793 0
M  V30 5942 O 559.494 4.35417 -0.484149 0
M  V30 5943 C 560.995 4.23335 1.31539 0
M  V30 5944 H 558.215 0.669344 0.0471075 0
M  V30 5945 H 560.759 1.98257 -0.501456 0
M  V30 5946 H 558.914 3.62803 1.35841 0
M  V30 5947 H 559.328 5.24268 -0.155949 0
M  V30 5948 H 560.802 5.29692 1.55338 0
M  V30 5949 H 561.279 3.75967 2.27036 0
M  V30 5950 H 561.885 4.20184 0.657683 0
M  V30 5951 N 560.2 0.0768682 1.57412 0
M  V30 5952 C 561.477 -0.632359 1.85096 0
M  V30 5953 C 561.857 -1.87479 0.9703 0
M  V30 5954 O 561.205 -2.28469 0.0379062 0
M  V30 5955 C 561.415 -0.965174 3.35388 0
M  V30 5956 C 562.763 -1.33648 4.03018 0
M  V30 5957 O 563.787 -1.05675 3.40164 0
M  V30 5958 O 562.646 -1.85959 5.13889 0
M  V30 5959 H 559.74 -0.314574 0.764835 0
M  V30 5960 H 562.286 0.108184 1.69355 0
M  V30 5961 H 561.058 -0.0829745 3.91212 0
M  V30 5962 H 560.681 -1.76231 3.5641 0
M  V30 5963 N 561.678 -1.56367 -0.196722 0
M  V30 5964 C 562.903 -1.84991 -0.937714 0
M  V30 5965 C 563.328 -0.660244 -1.76132 0
M  V30 5966 O 562.686 0.390967 -1.77034 0
M  V30 5967 C 562.734 -3.11828 -1.81096 0
M  V30 5968 O 561.838 -2.92266 -2.90955 0
M  V30 5969 H 561.179 -0.609193 -0.264159 0
M  V30 5970 H 563.709 -2.03595 -0.202529 0
M  V30 5971 H 563.719 -3.42579 -2.21594 0
M  V30 5972 H 562.394 -3.98037 -1.2058 0
M  V30 5973 H 560.971 -2.72809 -2.54224 0
M  V30 5974 N 563.156 0.464375 -1.50603 0
M  V30 5975 C 564.088 1.57916 -1.66118 0
M  V30 5976 C 565.101 1.53497 -0.54246 0
M  V30 5977 O 566.29 1.58763 -0.815877 0
M  V30 5978 C 563.39 2.96809 -1.63577 0
M  V30 5979 C 562.563 3.26026 -2.91592 0
M  V30 5980 C 561.622 4.44506 -2.81604 0
M  V30 5981 O 560.648 4.44484 -3.55559 0
M  V30 5982 N 561.85 5.46549 -1.95614 0
M  V30 5983 H 564.615 1.45022 -2.62276 0
M  V30 5984 H 562.176 0.652903 -1.48151 0
M  V30 5985 H 564.168 3.74048 -1.54499 0
M  V30 5986 H 562.738 3.03438 -0.751262 0
M  V30 5987 H 561.958 2.37337 -3.14746 0
M  V30 5988 H 563.246 3.42361 -3.76386 0
M  V30 5989 H 562.644 5.49391 -1.34854 0
M  V30 5990 H 561.201 6.22746 -1.92435 0
M  V30 5991 N 564.634 1.40294 0.718013 0
M  V30 5992 C 566.045 1.34289 1.29705 0
M  V30 5993 C 566.396 0.0152228 1.96194 0
M  V30 5994 O 565.521 -0.88682 1.97394 0
M  V30 5995 C 566.116 2.43219 2.3586 0
M  V30 5996 C 564.675 2.40682 2.89394 0
M  V30 5997 C 563.822 2.24223 1.63154 0
M  V30 5998 H 566.773 1.50135 0.514312 0
M  V30 5999 H 566.794 2.10986 3.16647 0
M  V30 6000 H 566.306 3.39836 1.87439 0
M  V30 6001 H 564.407 1.47756 3.42051 0
M  V30 6002 H 564.52 3.36177 3.41353 0
M  V30 6003 H 562.884 1.71696 1.88129 0
M  V30 6004 H 563.667 3.22834 1.16761 0
M  V30 6005 N 566.112 -0.949982 1.2575 0
M  V30 6006 C 567.361 -1.68956 1.10168 0
M  V30 6007 C 567.674 -1.92327 -0.356309 0
M  V30 6008 O 568.88 -2.64026 -0.632657 0
M  V30 6009 C 567.336 -3.04196 1.92336 0
M  V30 6010 C 566.944 -2.88603 3.42655 0
M  V30 6011 C 568.688 -3.81904 1.85336 0
M  V30 6012 C 566.595 -4.19262 4.17101 0
M  V30 6013 H 565.525 -0.633645 0.408668 0
M  V30 6014 H 568.176 -1.05719 1.49986 0
M  V30 6015 H 566.558 -3.68363 1.45344 0
M  V30 6016 H 567.732 -2.3334 3.97353 0
M  V30 6017 H 566.047 -2.24345 3.50796 0
M  V30 6018 H 568.644 -4.78688 2.38248 0
M  V30 6019 H 568.987 -4.08099 0.822226 0
M  V30 6020 H 569.52 -3.24495 2.30104 0
M  V30 6021 H 566.259 -3.98254 5.20648 0
M  V30 6022 H 565.779 -4.74273 3.67186 0
M  V30 6023 H 567.458 -4.87775 4.25071 0
M  V30 6024 N 567.59 -1.07411 -1.15328 0
M  V30 6025 C 569.001 -0.820261 -1.67716 0
M  V30 6026 C 569.352 0.654539 -1.8496 0
M  V30 6027 O 568.477 1.50664 -1.55337 0
M  V30 6028 C 569.072 -1.48242 -3.04647 0
M  V30 6029 C 567.631 -1.27606 -3.5411 0
M  V30 6030 C 566.778 -1.5517 -2.29821 0
M  V30 6031 H 569.729 -1.23608 -0.995332 0
M  V30 6032 H 569.75 -0.903984 -3.69606 0
M  V30 6033 H 569.262 -2.55578 -2.92064 0
M  V30 6034 H 567.363 -0.222948 -3.71932 0
M  V30 6035 H 567.476 -1.99667 -4.35511 0
M  V30 6036 H 565.84 -0.972747 -2.35393 0
M  V30 6037 H 566.623 -2.63689 -2.19824 0
M  V30 6038 N 569.068 1.32177 -0.85831 0
M  V30 6039 C 570.479 1.79381 -0.517621 0
M  V30 6040 C 570.83 1.70841 0.964769 0
M  V30 6041 O 569.955 1.26917 1.75274 0
M  V30 6042 C 570.55 3.25706 -0.932801 0
M  V30 6043 C 569.109 3.70851 -0.643953 0
M  V30 6044 C 568.256 2.53208 -1.13054 0
M  V30 6045 H 571.207 1.19424 -1.04516 0
M  V30 6046 H 571.228 3.79673 -0.250674 0
M  V30 6047 H 570.74 3.31889 -2.01174 0
M  V30 6048 H 568.841 3.70178 0.424112 0
M  V30 6049 H 568.954 4.63495 -1.21281 0
M  V30 6050 H 567.318 2.48676 -0.550679 0
M  V30 6051 H 568.101 2.62143 -2.21666 0
M  V30 6052 N 570.547 0.616602 1.45037 0
M  V30 6053 C 571.772 0.120192 2.07051 0
M  V30 6054 C 572.197 -1.19008 1.45666 0
M  V30 6055 O 571.555 -1.7267 0.552692 0
M  V30 6056 C 571.603 0.00354901 3.606 0
M  V30 6057 O 570.707 -1.04431 3.98958 0
M  V30 6058 H 570.048 0.0781599 0.659384 0
M  V30 6059 H 572.578 0.849167 1.86146 0
M  V30 6060 H 572.588 -0.191754 4.07549 0
M  V30 6061 H 571.263 0.960239 4.04663 0
M  V30 6062 H 569.84 -0.824749 3.63665 0
M  V30 6063 N 572.025 -1.5352 0.356285 0
M  V30 6064 C 573.273 -2.00719 -0.235837 0
M  V30 6065 C 573.594 -1.24551 -1.5004 0
M  V30 6066 O 572.864 -0.356185 -1.92635 0
M  V30 6067 H 571.444 -0.741542 -0.0901366 0
M  V30 6068 H 574.106 -1.88887 0.480378 0
M  V30 6069 H 573.202 -3.08551 -0.469357 0
M  V30 6070 N 573.503 -0.0852151 -1.57369 0
M  V30 6071 C 574.751 0.579658 -1.93609 0
M  V30 6072 C 575.072 1.69332 -0.967043 0
M  V30 6073 O 574.342 1.95892 -0.0174215 0
M  V30 6074 H 572.922 0.217113 -0.714752 0
M  V30 6075 H 575.584 -0.146226 -1.94351 0
M  V30 6076 H 574.68 0.996276 -2.95771 0
M  V30 6077 N 574.981 1.5647 0.188427 0
M  V30 6078 C 576.392 1.70864 0.752494 0
M  V30 6079 C 576.743 0.692905 1.83557 0
M  V30 6080 O 575.868 -0.149307 2.15884 0
M  V30 6081 C 576.463 3.09789 1.37173 0
M  V30 6082 C 575.022 3.25925 1.88281 0
M  V30 6083 C 574.169 2.66817 0.755259 0
M  V30 6084 H 577.12 1.58657 -0.0367408 0
M  V30 6085 H 577.141 3.07489 2.24122 0
M  V30 6086 H 576.653 3.83693 0.583219 0
M  V30 6087 H 574.754 2.56948 2.6983 0
M  V30 6088 H 574.867 4.33498 2.04001 0
M  V30 6089 H 573.231 2.2617 1.17128 0
M  V30 6090 H 574.014 3.43294 -0.0211237 0
M  V30 6091 N 576.459 -0.456382 1.50847 0
M  V30 6092 C 577.706 -1.20736 1.62571 0
M  V30 6093 C 578.034 -1.9163 0.332904 0
M  V30 6094 O 577.289 -1.8343 -0.682058 0
M  V30 6095 C 577.588 -2.26336 2.76599 0
M  V30 6096 C 577.254 -1.7259 4.16562 0
M  V30 6097 C 575.916 -1.57654 4.54641 0
M  V30 6098 C 578.268 -1.32877 5.03977 0
M  V30 6099 C 575.596 -1.0145 5.77862 0
M  V30 6100 C 577.948 -0.7811 6.27759 0
M  V30 6101 C 576.612 -0.618488 6.64628 0
M  V30 6102 H 575.882 -0.441803 0.594888 0
M  V30 6103 H 578.529 -0.501169 1.84826 0
M  V30 6104 H 576.834 -3.0292 2.48489 0
M  V30 6105 H 578.531 -2.84227 2.82871 0
M  V30 6106 H 575.121 -1.85187 3.86528 0
M  V30 6107 H 579.305 -1.43245 4.75179 0
M  V30 6108 H 574.561 -0.876109 6.0509 0
M  V30 6109 H 578.735 -0.464783 6.94847 0
M  V30 6110 H 576.362 -0.180838 7.59985 0
M  V30 6111 N 577.937 -1.40673 -0.710563 0
M  V30 6112 C 579.162 -1.42741 -1.50465 0
M  V30 6113 C 579.587 -0.0302116 -1.88076 0
M  V30 6114 O 578.945 0.962945 -1.53613 0
M  V30 6115 C 578.993 -2.32873 -2.75322 0
M  V30 6116 O 578.097 -1.77544 -3.72226 0
M  V30 6117 H 577.438 -0.485056 -0.45345 0
M  V30 6118 H 579.968 -1.84961 -0.874681 0
M  V30 6119 H 579.978 -2.48233 -3.23797 0
M  V30 6120 H 578.653 -3.34401 -2.47283 0
M  V30 6121 H 577.23 -1.71556 -3.31093 0
M  V30 6122 N 579.415 0.9433 -1.26252 0
M  V30 6123 C 580.325 2.07532 -1.09397 0
M  V30 6124 C 581.341 1.73977 -0.0280449 0
M  V30 6125 O 582.517 2.00067 -0.231337 0
M  V30 6126 C 579.582 3.39002 -0.726523 0
M  V30 6127 C 578.643 3.86353 -1.87163 0
M  V30 6128 C 577.876 5.11549 -1.52162 0
M  V30 6129 O 578.099 5.68834 -0.422385 0
M  V30 6130 O 577.033 5.53889 -2.35565 0
M  V30 6131 H 580.859 2.24658 -2.04359 0
M  V30 6132 H 578.444 1.05988 -1.05295 0
M  V30 6133 H 580.326 4.18 -0.534236 0
M  V30 6134 H 579.001 3.2312 0.193721 0
M  V30 6135 H 577.908 3.0831 -2.11886 0
M  V30 6136 H 579.241 4.06752 -2.77152 0
M  V30 6137 N 580.893 1.08022 1.14757 0
M  V30 6138 C 582.304 0.829144 1.67279 0
M  V30 6139 C 582.655 -0.644721 1.85305 0
M  V30 6140 O 581.78 -1.49838 1.56133 0
M  V30 6141 C 582.375 1.49855 3.03857 0
M  V30 6142 C 580.934 1.29482 3.53428 0
M  V30 6143 C 580.081 1.56386 2.28995 0
M  V30 6144 H 583.032 1.24134 0.988762 0
M  V30 6145 H 583.053 0.923572 3.69121 0
M  V30 6146 H 582.565 2.57123 2.90705 0
M  V30 6147 H 580.666 0.242669 3.71809 0
M  V30 6148 H 580.779 2.01974 4.34446 0
M  V30 6149 H 579.143 0.985217 2.34874 0
M  V30 6150 H 579.926 2.64851 2.18423 0
M  V30 6151 N 582.371 -1.3172 0.865308 0
M  V30 6152 C 583.303 -2.27545 0.274906 0
M  V30 6153 C 584.316 -1.52887 -0.559413 0
M  V30 6154 O 585.505 -1.74361 -0.382166 0
M  V30 6155 C 582.605 -3.33006 -0.629286 0
M  V30 6156 C 581.778 -4.37063 0.171553 0
M  V30 6157 C 580.837 -5.22044 -0.660052 0
M  V30 6158 O 579.863 -5.69129 -0.0897527 0
M  V30 6159 N 581.065 -5.45946 -1.97289 0
M  V30 6160 H 583.83 -2.78848 1.09836 0
M  V30 6161 H 581.391 -1.44693 0.726331 0
M  V30 6162 H 583.383 -3.86772 -1.19121 0
M  V30 6163 H 581.953 -2.81782 -1.35342 0
M  V30 6164 H 581.173 -3.83436 0.914919 0
M  V30 6165 H 582.461 -5.03662 0.721235 0
M  V30 6166 H 581.859 -5.0944 -2.45942 0
M  V30 6167 H 580.416 -6.02665 -2.4827 0
M  V30 6168 N 583.85 -0.624285 -1.44708 0
M  V30 6169 C 585.096 -0.126051 -2.02107 0
M  V30 6170 C 585.425 1.2496 -1.49048 0
M  V30 6171 O 584.68 1.84163 -0.662005 0
M  V30 6172 C 584.979 -0.0546353 -3.57358 0
M  V30 6173 C 584.644 -1.36815 -4.29642 0
M  V30 6174 C 583.307 -1.72792 -4.49106 0
M  V30 6175 C 585.659 -2.23549 -4.70824 0
M  V30 6176 C 582.986 -2.95222 -5.07012 0
M  V30 6177 C 585.339 -3.45243 -5.30085 0
M  V30 6178 C 584.003 -3.81452 -5.47769 0
M  V30 6179 H 583.273 -0.0461252 -0.739563 0
M  V30 6180 H 585.92 -0.809236 -1.73562 0
M  V30 6181 H 584.225 0.711891 -3.85278 0
M  V30 6182 H 585.922 0.347282 -3.99493 0
M  V30 6183 H 582.512 -1.07817 -4.14817 0
M  V30 6184 H 586.696 -1.9705 -4.55505 0
M  V30 6185 H 581.952 -3.23361 -5.18891 0
M  V30 6186 H 586.125 -4.12689 -5.60946 0
M  V30 6187 H 583.753 -4.76403 -5.92405 0
M  V30 6188 N 585.328 1.53329 -0.364422 0
M  V30 6189 C 586.278 2.22472 0.499024 0
M  V30 6190 C 587.262 1.21952 1.0496 0
M  V30 6191 O 588.454 1.47405 0.979836 0
M  V30 6192 C 585.583 3.01659 1.6388 0
M  V30 6193 C 584.669 4.09555 1.10116 0
M  V30 6194 N 585.06 5.04988 0.286414 0
M  V30 6195 C 583.358 4.2424 1.37608 0
M  V30 6196 C 584.059 5.81699 -0.00781682 0
M  V30 6197 N 583.035 5.40394 0.589494 0
M  V30 6198 H 586.837 2.93611 -0.130284 0
M  V30 6199 H 584.351 1.61483 -0.172377 0
M  V30 6200 H 586.348 3.4971 2.26954 0
M  V30 6201 H 585.008 2.32051 2.27118 0
M  V30 6202 H 586.019 5.17847 -0.0742839 0
M  V30 6203 H 582.696 3.65858 2.01133 0
M  V30 6204 H 584.086 6.68587 -0.666394 0
M  V30 6205 N 586.806 0.0935595 1.57322 0
M  V30 6206 C 587.754 -0.883457 2.15169 0
M  V30 6207 C 588.748 -1.29324 1.09415 0
M  V30 6208 O 589.954 -1.26795 1.27762 0
M  V30 6209 H 586.329 -0.302923 0.688289 0
M  V30 6210 H 588.3 -0.370845 2.96087 0
M  V30 6211 C 587.049 -2.13345 2.74552 0
M  V30 6212 H 586.372 -1.82702 3.55612 0
M  V30 6213 H 587.812 -2.7977 3.18598 0
M  V30 6214 C 586.271 -2.90646 1.70371 0
M  V30 6215 O 586.801 -3.85133 1.14173 0
M  V30 6216 N 585.007 -2.54157 1.40899 0
M  V30 6217 H 584.554 -1.77391 1.86789 0
M  V30 6218 H 584.512 -3.06178 0.714301 0
M  V30 6219 N 588.284 -1.56567 -0.180126 0
M  V30 6220 C 589.532 -1.81133 -0.896392 0
M  V30 6221 C 589.853 -0.669114 -1.83161 0
M  V30 6222 O 589.123 0.311616 -1.93406 0
M  V30 6223 H 587.703 -0.668172 -0.333999 0
M  V30 6224 H 590.365 -1.94048 -0.182051 0
M  V30 6225 H 589.461 -2.74854 -1.47857 0
M  V30 6226 N 589.762 0.448376 -1.51087 0
M  V30 6227 C 590.672 1.56882 -1.74428 0
M  V30 6228 C 591.688 1.62268 -0.62809 0
M  V30 6229 O 592.864 1.79716 -0.909075 0
M  V30 6230 C 589.929 2.92947 -1.85426 0
M  V30 6231 C 588.99 2.97766 -3.09247 0
M  V30 6232 C 588.223 4.27341 -3.19711 0
M  V30 6233 O 588.446 5.19112 -2.36387 0
M  V30 6234 O 587.38 4.38219 -4.12611 0
M  V30 6235 H 591.206 1.40104 -2.69452 0
M  V30 6236 H 588.791 0.630247 -1.35456 0
M  V30 6237 H 590.673 3.73719 -1.94709 0
M  V30 6238 H 589.348 3.09876 -0.935887 0
M  V30 6239 H 588.255 2.15989 -3.0545 0
M  V30 6240 H 589.588 2.8578 -4.00738 0
M  V30 6241 N 591.24 1.41047 0.703093 0
M  V30 6242 C 592.465 1.43537 1.49706 0
M  V30 6243 C 592.89 0.0401853 1.88057 0
M  V30 6244 O 592.248 -0.954785 1.54122 0
M  V30 6245 C 592.296 2.3433 2.74084 0
M  V30 6246 O 591.4 1.79515 3.71279 0
M  V30 6247 H 590.741 0.487454 0.450871 0
M  V30 6248 H 593.271 1.85422 0.86486 0
M  V30 6249 H 593.281 2.49947 3.22476 0
M  V30 6250 H 591.956 3.35708 2.45506 0
M  V30 6251 H 590.533 1.7331 3.30179 0
M  V30 6252 N 592.718 -0.936591 1.26751 0
M  V30 6253 C 593.628 -2.06949 1.10496 0
M  V30 6254 C 594.644 -1.7396 0.037271 0
M  V30 6255 O 595.82 -1.99941 0.241944 0
M  V30 6256 C 592.885 -3.38612 0.744491 0
M  V30 6257 C 591.946 -3.85355 1.89209 0
M  V30 6258 C 591.179 -5.10735 1.54873 0
M  V30 6259 O 591.402 -5.68602 0.452546 0
M  V30 6260 O 590.336 -5.52632 2.38499 0
M  V30 6261 H 594.162 -2.23571 2.05547 0
M  V30 6262 H 591.747 -1.05428 1.05855 0
M  V30 6263 H 593.629 -4.17711 0.556396 0
M  V30 6264 H 592.304 -3.23218 -0.176582 0
M  V30 6265 H 591.211 -3.07182 2.13518 0
M  V30 6266 H 592.544 -4.05277 2.79305 0
M  V30 6267 N 594.196 -1.08629 -1.14182 0
M  V30 6268 C 595.106 -0.730126 -2.22949 0
M  V30 6269 C 596.122 0.26436 -1.7198 0
M  V30 6270 O 597.298 0.107742 -2.01112 0
M  V30 6271 C 594.363 -0.147227 -3.46387 0
M  V30 6272 C 593.424 -1.19662 -4.12286 0
M  V30 6273 C 592.657 -0.641437 -5.29831 0
M  V30 6274 O 592.88 0.538351 -5.67854 0
M  V30 6275 O 591.814 -1.39257 -5.85569 0
M  V30 6276 H 595.64 -1.63753 -2.55771 0
M  V30 6277 H 593.225 -0.860118 -1.22157 0
M  V30 6278 H 595.107 0.174923 -4.21037 0
M  V30 6279 H 593.782 0.733304 -3.15285 0
M  V30 6280 H 592.689 -1.57133 -3.395 0
M  V30 6281 H 594.022 -2.0495 -4.475 0
M  V30 6282 N 595.674 1.31259 -0.872281 0
M  V30 6283 C 596.899 2.0133 -0.498099 0
M  V30 6284 C 597.324 1.65031 0.902568 0
M  V30 6285 O 596.682 0.860164 1.59596 0
M  V30 6286 C 596.73 3.54411 -0.665205 0
M  V30 6287 O 595.834 4.11347 0.294473 0
M  V30 6288 H 595.175 0.633844 -0.197832 0
M  V30 6289 H 597.705 1.67402 -1.17633 0
M  V30 6290 H 597.715 4.04147 -0.559373 0
M  V30 6291 H 596.39 3.80171 -1.68651 0
M  V30 6292 H 594.967 3.72624 0.143403 0
M  V30 6293 N 597.152 0.631951 1.44375 0
M  V30 6294 C 598.102 -0.0943862 2.27805 0
M  V30 6295 C 599.086 -0.815359 1.38711 0
M  V30 6296 O 600.278 -0.701331 1.62513 0
M  V30 6297 C 597.407 -1.07472 3.26044 0
M  V30 6298 C 596.493 -0.353329 4.22626 0
M  V30 6299 N 596.884 0.618512 5.02004 0
M  V30 6300 C 595.182 -0.597662 4.41977 0
M  V30 6301 C 595.883 1.0448 5.7224 0
M  V30 6302 N 594.859 0.383413 5.42246 0
M  V30 6303 H 598.661 0.651672 2.86584 0
M  V30 6304 H 596.175 0.45752 1.55822 0
M  V30 6305 H 598.172 -1.60969 3.84571 0
M  V30 6306 H 596.832 -1.82107 2.68825 0
M  V30 6307 H 597.843 0.996356 5.08226 0
M  V30 6308 H 594.52 -1.32682 3.95856 0
M  V30 6309 H 595.91 1.84773 6.45994 0
M  V30 6310 N 598.631 -1.53133 0.372548 0
M  V30 6311 C 599.541 -2.29671 -0.478379 0
M  V30 6312 C 600.557 -1.35913 -1.08644 0
M  V30 6313 O 601.733 -1.68975 -1.09588 0
M  V30 6314 C 598.798 -3.07625 -1.599 0
M  V30 6315 C 597.859 -4.17061 -1.01776 0
M  V30 6316 C 597.092 -4.91289 -2.08497 0
M  V30 6317 O 597.315 -4.65442 -3.29727 0
M  V30 6318 O 596.249 -5.7705 -1.71164 0
M  V30 6319 H 600.075 -3.03355 0.144649 0
M  V30 6320 H 597.66 -1.48773 0.136729 0
M  V30 6321 H 599.542 -3.56281 -2.25038 0
M  V30 6322 H 598.217 -2.3677 -2.2073 0
M  V30 6323 H 597.124 -3.72641 -0.330098 0
M  V30 6324 H 598.457 -4.90102 -0.453915 0
M  V30 6325 N 600.109 -0.101901 -1.5727 0
M  V30 6326 C 601.041 0.884723 -2.11436 0
M  V30 6327 C 602.054 1.24149 -1.05314 0
M  V30 6328 O 603.243 1.19341 -1.3274 0
M  V30 6329 C 600.343 2.19179 -2.58484 0
M  V30 6330 C 599.516 2.00933 -3.88516 0
M  V30 6331 C 598.575 3.15213 -4.2134 0
M  V30 6332 O 597.601 2.88877 -4.90448 0
M  V30 6333 N 598.803 4.41174 -3.77288 0
M  V30 6334 H 601.568 0.422058 -2.96713 0
M  V30 6335 H 599.129 0.0830128 -1.61687 0
M  V30 6336 H 601.121 2.94593 -2.77484 0
M  V30 6337 H 599.691 2.56847 -1.7818 0
M  V30 6338 H 598.911 1.09809 -3.78597 0
M  V30 6339 H 600.199 1.86026 -4.73573 0
M  V30 6340 H 599.597 4.6545 -3.21516 0
M  V30 6341 H 598.154 5.13515 -4.01429 0
M  V30 6342 N 601.587 1.56661 0.17182 0
M  V30 6343 C 602.834 1.81965 0.888529 0
M  V30 6344 C 603.162 0.6789 1.82267 0
M  V30 6345 O 602.417 -0.333875 1.92831 0
M  V30 6346 C 602.716 3.13435 1.71736 0
M  V30 6347 C 602.382 4.41159 0.932184 0
M  V30 6348 C 601.044 4.75851 0.715481 0
M  V30 6349 C 603.396 5.19803 0.381387 0
M  V30 6350 C 600.724 5.86666 -0.063126 0
M  V30 6351 C 603.076 6.31433 -0.384129 0
M  V30 6352 C 601.74 6.64692 -0.611637 0
M  V30 6353 H 601.01 0.665859 0.325136 0
M  V30 6354 H 603.657 1.90884 0.153495 0
M  V30 6355 H 601.962 2.99857 2.52177 0
M  V30 6356 H 603.659 3.30224 2.27493 0
M  V30 6357 H 600.249 4.13947 1.11112 0
M  V30 6358 H 604.433 4.93396 0.536148 0
M  V30 6359 H 599.689 6.10892 -0.249136 0
M  V30 6360 H 603.863 6.91577 -0.818185 0
M  V30 6361 H 601.49 7.50398 -1.21684 0
M  V30 6362 N 603.065 -0.440357 1.51323 0
M  V30 6363 C 603.995 -1.54174 1.75364 0
M  V30 6364 C 604.976 -1.59039 0.603375 0
M  V30 6365 O 606.161 -1.74815 0.845774 0
M  V30 6366 C 603.291 -2.92277 1.87593 0
M  V30 6367 C 602.245 -3.02274 3.03009 0
M  V30 6368 C 601.571 -4.42327 3.00418 0
M  V30 6369 C 602.871 -2.76634 4.43024 0
M  V30 6370 H 604.565 -1.34307 2.67585 0
M  V30 6371 H 602.111 -0.644678 1.28763 0
M  V30 6372 H 604.064 -3.69284 2.02995 0
M  V30 6373 H 602.788 -3.13369 0.920179 0
M  V30 6374 H 601.447 -2.27706 2.87307 0
M  V30 6375 H 601.095 -4.60382 2.02626 0
M  V30 6376 H 600.795 -4.49946 3.77918 0
M  V30 6377 H 602.319 -5.21312 3.17909 0
M  V30 6378 H 603.733 -3.43376 4.59093 0
M  V30 6379 H 602.13 -2.95666 5.22208 0
M  V30 6380 H 603.2 -1.72262 4.5327 0
M  V30 6381 N 604.543 -1.41418 -0.695603 0
M  V30 6382 C 605.49 -1.43264 -1.80954 0
M  V30 6383 C 606.46 -0.287016 -1.63601 0
M  V30 6384 O 607.645 -0.488054 -1.84452 0
M  V30 6385 C 604.785 -1.32054 -3.18835 0
M  V30 6386 C 603.898 -2.56485 -3.4762 0
M  V30 6387 C 603.033 -2.3757 -4.75115 0
M  V30 6388 C 602.072 -3.57477 -4.96867 0
M  V30 6389 N 601.209 -3.37632 -6.15588 0
M  V30 6390 H 606.049 -2.38467 -1.78711 0
M  V30 6391 H 603.586 -1.18415 -0.872715 0
M  V30 6392 H 605.544 -1.23558 -3.98484 0
M  V30 6393 H 604.174 -0.404592 -3.20254 0
M  V30 6394 H 603.226 -2.75432 -2.62376 0
M  V30 6395 H 604.538 -3.45678 -3.59594 0
M  V30 6396 H 603.692 -2.2654 -5.62818 0
M  V30 6397 H 602.431 -1.45834 -4.65386 0
M  V30 6398 H 601.436 -3.68961 -4.07612 0
M  V30 6399 H 602.661 -4.50167 -5.08455 0
M  V30 6400 H 600.607 -2.48596 -6.07072 0
M  V30 6401 H 600.524 -4.20401 -6.2833 0
M  V30 6402 H 601.792 -3.30375 -7.06026 0
M  V30 6403 N 606.021 0.929856 -1.27246 0
M  V30 6404 C 606.984 2.01172 -1.09829 0
M  V30 6405 C 607.984 1.60743 -0.0429687 0
M  V30 6406 O 609.174 1.71813 -0.287373 0
M  V30 6407 C 606.306 3.34191 -0.673003 0
M  V30 6408 H 607.499 2.18054 -2.05895 0
M  V30 6409 H 605.052 1.11036 -1.10003 0
M  V30 6410 H 605.787 3.23009 0.289134 0
M  V30 6411 H 605.572 3.64892 -1.43515 0
M  V30 6412 H 607.062 4.13646 -0.573323 0
M  V30 6413 N 607.499 1.09233 1.13605 0
M  V30 6414 C 608.429 0.751738 2.21068 0
M  V30 6415 C 609.41 -0.269688 1.67948 0
M  V30 6416 O 610.595 -0.13819 1.93708 0
M  V30 6417 C 607.725 0.16935 3.46887 0
M  V30 6418 C 606.679 1.12007 4.13084 0
M  V30 6419 C 606.005 0.399483 5.33206 0
M  V30 6420 C 607.305 2.46168 4.6065 0
M  V30 6421 H 608.999 1.65024 2.49815 0
M  V30 6422 H 606.545 0.794905 1.20072 0
M  V30 6423 H 608.498 -0.0809824 4.21322 0
M  V30 6424 H 607.222 -0.764335 3.1753 0
M  V30 6425 H 605.881 1.35564 3.40614 0
M  V30 6426 H 605.529 -0.538277 5.00112 0
M  V30 6427 H 605.229 1.03337 5.78442 0
M  V30 6428 H 606.753 0.157403 6.10397 0
M  V30 6429 H 608.167 2.26829 5.26518 0
M  V30 6430 H 606.564 3.05326 5.1662 0
M  V30 6431 H 607.634 3.07076 3.75276 0
M  V30 6432 N 608.977 -1.30795 0.87923 0
M  V30 6433 C 609.909 -2.27241 0.299025 0
M  V30 6434 C 610.922 -1.53472 -0.543166 0
M  V30 6435 O 612.111 -1.74756 -0.363651 0
M  V30 6436 C 609.211 -3.33655 -0.593931 0
M  V30 6437 C 608.384 -4.36857 0.2179 0
M  V30 6438 C 607.443 -5.22715 -0.604646 0
M  V30 6439 O 606.469 -5.69192 -0.0293838 0
M  V30 6440 N 607.671 -5.48008 -1.91488 0
M  V30 6441 H 610.436 -2.77667 1.12788 0
M  V30 6442 H 607.997 -1.43914 0.741637 0
M  V30 6443 H 609.989 -3.88013 -1.15012 0
M  V30 6444 H 608.559 -2.83202 -1.32346 0
M  V30 6445 H 607.779 -3.82444 0.955536 0
M  V30 6446 H 609.067 -5.02869 0.774614 0
M  V30 6447 H 608.465 -5.1202 -2.40525 0
M  V30 6448 H 607.022 -6.05264 -2.41864 0
M  V30 6449 N 610.455 -0.639598 -1.44038 0
M  V30 6450 C 611.403 0.0723409 -2.32487 0
M  V30 6451 C 612.397 0.827129 -1.47834 0
M  V30 6452 O 613.603 0.73907 -1.64127 0
M  V30 6453 H 609.978 0.0421696 -0.750817 0
M  V30 6454 H 611.949 -0.691593 -2.90275 0
M  V30 6455 C 610.698 1.03452 -3.31953 0
M  V30 6456 H 610.021 0.46315 -3.97108 0
M  V30 6457 H 611.461 1.502 -3.96505 0
M  V30 6458 C 609.92 2.12392 -2.61518 0
M  V30 6459 O 610.45 3.2059 -2.42044 0
M  V30 6460 N 608.656 1.88563 -2.21116 0
M  V30 6461 H 608.203 1.00577 -2.37154 0
M  V30 6462 H 608.161 2.61651 -1.74316 0
M  V30 6463 N 611.933 1.52934 -0.380664 0
M  V30 6464 C 612.896 2.24809 0.446473 0
M  V30 6465 C 613.896 1.26133 0.997347 0
M  V30 6466 O 615.086 1.50297 0.880714 0
M  V30 6467 C 612.218 2.99649 1.62553 0
M  V30 6468 H 613.411 2.99343 -0.182677 0
M  V30 6469 H 610.964 1.55736 -0.132618 0
M  V30 6470 H 611.699 2.29395 2.29235 0
M  V30 6471 H 611.484 3.72066 1.23732 0
M  V30 6472 H 612.974 3.54246 2.21133 0
M  V30 6473 N 613.412 0.11024 1.57214 0
M  V30 6474 C 614.658 -0.550684 1.9518 0
M  V30 6475 C 614.991 -1.66885 0.993122 0
M  V30 6476 O 614.266 -1.94479 0.0287907 0
M  V30 6477 C 614.549 -1.09163 3.43155 0
M  V30 6478 C 614.402 0.0225198 4.49794 0
M  V30 6479 C 615.721 -1.98527 3.92778 0
M  V30 6480 H 612.84 -0.198706 0.709708 0
M  V30 6481 H 615.482 0.184024 1.89107 0
M  V30 6482 H 613.632 -1.71775 3.48462 0
M  V30 6483 H 615.304 0.657443 4.56591 0
M  V30 6484 H 613.547 0.686868 4.28328 0
M  V30 6485 H 614.218 -0.39706 5.5057 0
M  V30 6486 H 616.694 -1.458 3.8972 0
M  V30 6487 H 615.57 -2.33298 4.96853 0
M  V30 6488 H 615.831 -2.90846 3.32958 0
M  V30 6489 N 614.89 -1.56749 -0.16351 0
M  V30 6490 C 616.118 -1.86577 -0.894233 0
M  V30 6491 C 616.533 -0.696543 -1.75481 0
M  V30 6492 O 615.89 0.334161 -1.79415 0
M  V30 6493 C 615.941 -3.15508 -1.76456 0
M  V30 6494 O 615.662 -4.27926 -0.938685 0
M  V30 6495 C 617.163 -3.58737 -2.60428 0
M  V30 6496 H 614.383 -0.618829 -0.259405 0
M  V30 6497 H 616.927 -2.03863 -0.161259 0
M  V30 6498 H 615.082 -3.00025 -2.45079 0
M  V30 6499 H 615.496 -5.01546 -1.53465 0
M  V30 6500 H 616.97 -4.51832 -3.17099 0
M  V30 6501 H 617.447 -2.83229 -3.35675 0
M  V30 6502 H 618.053 -3.76858 -1.97125 0
M  V30 6503 N 616.368 0.432326 -1.51554 0
M  V30 6504 C 617.596 1.20364 -1.68286 0
M  V30 6505 C 618.011 1.84888 -0.38233 0
M  V30 6506 O 617.368 1.70924 0.639627 0
M  V30 6507 C 617.419 2.28398 -2.80208 0
M  V30 6508 O 617.14 1.66512 -4.05223 0
M  V30 6509 C 618.641 3.18584 -3.08251 0
M  V30 6510 H 615.861 0.36259 -0.564596 0
M  V30 6511 H 618.405 0.511647 -1.97996 0
M  V30 6512 H 616.56 2.93305 -2.53083 0
M  V30 6513 H 616.974 2.37951 -4.67418 0
M  V30 6514 H 618.448 3.90511 -3.90135 0
M  V30 6515 H 618.925 3.79628 -2.2086 0
M  V30 6516 H 619.531 2.59372 -3.37055 0
M  V30 6517 N 617.846 1.41785 0.688094 0
M  V30 6518 C 619.093 1.41544 1.44816 0
M  V30 6519 C 619.421 0.0271746 1.94481 0
M  V30 6520 O 618.676 -0.962235 1.7041 0
M  V30 6521 C 618.975 2.37532 2.67046 0
M  V30 6522 C 618.641 3.84209 2.35996 0
M  V30 6523 C 617.303 4.24165 2.27239 0
M  V30 6524 C 619.655 4.76785 2.10536 0
M  V30 6525 C 616.983 5.54695 1.91128 0
M  V30 6526 C 619.335 6.07644 1.75931 0
M  V30 6527 C 617.999 6.46613 1.65675 0
M  V30 6528 H 617.269 0.517945 0.529919 0
M  V30 6529 H 619.916 1.74635 0.785797 0
M  V30 6530 H 618.221 1.9772 3.38251 0
M  V30 6531 H 619.918 2.34615 3.25203 0
M  V30 6532 H 616.508 3.52567 2.4371 0
M  V30 6533 H 620.692 4.46714 2.16242 0
M  V30 6534 H 615.948 5.83762 1.81746 0
M  V30 6535 H 620.122 6.78874 1.55252 0
M  V30 6536 H 617.749 7.47668 1.37463 0
M  V30 6537 N 619.324 -0.923095 1.27737 0
M  V30 6538 C 620.57 -1.67375 1.14514 0
M  V30 6539 C 620.903 -1.91751 -0.307424 0
M  V30 6540 O 620.178 -1.51119 -1.22447 0
M  V30 6541 C 620.461 -3.03745 1.9342 0
M  V30 6542 C 620.314 -2.86581 3.46686 0
M  V30 6543 C 621.633 -4.04144 1.74228 0
M  V30 6544 H 618.752 -0.607427 0.417374 0
M  V30 6545 H 621.394 -1.07089 1.56946 0
M  V30 6546 H 619.544 -3.55204 1.5736 0
M  V30 6547 H 621.216 -2.42203 3.92601 0
M  V30 6548 H 619.459 -2.21829 3.72793 0
M  V30 6549 H 620.13 -3.83381 3.97143 0
M  V30 6550 H 622.606 -3.61712 2.05678 0
M  V30 6551 H 621.482 -4.97543 2.31824 0
M  V30 6552 H 621.743 -4.36661 0.691373 0
M  V30 6553 N 620.802 -1.09834 -1.13024 0
M  V30 6554 C 621.75 -0.736283 -2.20639 0
M  V30 6555 C 622.744 0.264725 -1.67319 0
M  V30 6556 O 623.95 0.125745 -1.7956 0
M  V30 6557 H 620.325 -0.220136 -0.719058 0
M  V30 6558 H 622.296 -1.65295 -2.48436 0
M  V30 6559 C 621.045 -0.177544 -3.47246 0
M  V30 6560 H 620.368 -0.939009 -3.88616 0
M  V30 6561 H 621.808 0.0378007 -4.23983 0
M  V30 6562 C 620.267 1.08824 -3.1884 0
M  V30 6563 O 620.797 2.1708 -3.37993 0
M  V30 6564 N 619.003 1.00442 -2.7269 0
M  V30 6565 H 618.55 0.123383 -2.57304 0
M  V30 6566 H 618.508 1.85206 -2.5406 0
M  V30 6567 N 622.28 1.30327 -0.886154 0
M  V30 6568 C 623.696 1.48676 -0.580323 0
M  V30 6569 C 623.896 1.81189 0.881639 0
M  V30 6570 O 622.952 1.90021 1.66278 0
M  V30 6571 C 624.265 2.60932 -1.49449 0
M  V30 6572 C 625.813 2.74812 -1.49824 0
M  V30 6573 C 626.288 3.90183 -2.39836 0
M  V30 6574 N 627.779 3.97495 -2.37806 0
M  V30 6575 C 628.514 4.86078 -3.04165 0
M  V30 6576 N 628.01 5.79448 -3.79753 0
M  V30 6577 N 629.803 4.79456 -2.93391 0
M  V30 6578 H 621.954 1.07495 -1.8319 0
M  V30 6579 H 624.217 0.532661 -0.784204 0
M  V30 6580 H 623.923 2.43731 -2.5355 0
M  V30 6581 H 623.797 3.57437 -1.20494 0
M  V30 6582 H 626.184 2.91418 -0.464731 0
M  V30 6583 H 626.265 1.78924 -1.82811 0
M  V30 6584 H 625.909 3.74334 -3.43273 0
M  V30 6585 H 625.839 4.85411 -2.04166 0
M  V30 6586 H 628.33 3.30703 -1.82877 0
M  V30 6587 H 628.643 6.43805 -4.27475 0
M  V30 6588 H 626.988 5.79376 -3.8386 0
M  V30 6589 H 630.179 4.05494 -2.33864 0
M  V30 6590 H 630.352 5.48283 -3.45383 0
M  V30 6591 N 623.758 0.647228 1.43697 0
M  V30 6592 C 624.691 -0.097646 2.27991 0
M  V30 6593 C 625.669 -0.83571 1.3948 0
M  V30 6594 O 626.853 -0.836509 1.68922 0
M  V30 6595 C 623.98 -1.14484 3.18765 0
M  V30 6596 C 623.026 -0.505503 4.23494 0
M  V30 6597 S 623.859 0.716471 5.30685 0
M  V30 6598 C 625.015 -0.330339 6.25028 0
M  V30 6599 H 625.248 0.617417 2.90818 0
M  V30 6600 H 622.781 0.435881 1.4812 0
M  V30 6601 H 624.739 -1.74403 3.7161 0
M  V30 6602 H 623.4 -1.83219 2.55127 0
M  V30 6603 H 622.593 -1.29473 4.87086 0
M  V30 6604 H 622.195 0.0194377 3.73995 0
M  V30 6605 H 624.487 -1.19828 6.66819 0
M  V30 6606 H 625.43 0.270409 7.07583 0
M  V30 6607 H 625.838 -0.663459 5.60588 0
M  V30 6608 N 625.236 -1.5273 0.388769 0
M  V30 6609 C 626.183 -2.26437 -0.446639 0
M  V30 6610 C 627.153 -1.28025 -1.05824 0
M  V30 6611 O 628.338 -1.56852 -1.08637 0
M  V30 6612 C 625.478 -3.07407 -1.56828 0
M  V30 6613 C 624.591 -4.20747 -0.979589 0
M  V30 6614 C 623.726 -4.89113 -2.07224 0
M  V30 6615 C 622.765 -5.94447 -1.45942 0
M  V30 6616 N 621.902 -6.56411 -2.49135 0
M  V30 6617 H 626.742 -2.97404 0.18837 0
M  V30 6618 H 624.279 -1.46727 0.104725 0
M  V30 6619 H 626.237 -3.52642 -2.22934 0
M  V30 6620 H 624.867 -2.3865 -2.17361 0
M  V30 6621 H 623.919 -3.7983 -0.208151 0
M  V30 6622 H 625.231 -4.9637 -0.491747 0
M  V30 6623 H 624.385 -5.3765 -2.81101 0
M  V30 6624 H 623.124 -4.13013 -2.59368 0
M  V30 6625 H 622.129 -5.4525 -0.705894 0
M  V30 6626 H 623.354 -6.7248 -0.945932 0
M  V30 6627 H 621.3 -5.83152 -3.00449 0
M  V30 6628 H 621.217 -7.27645 -2.05105 0
M  V30 6629 H 622.485 -7.09592 -3.22644 0
M  V30 6630 N 626.714 -0.118576 -1.57153 0
M  V30 6631 C 627.939 0.550582 -1.99958 0
M  V30 6632 C 628.364 1.59458 -0.997736 0
M  V30 6633 O 627.722 1.81274 0.0306269 0
M  V30 6634 C 627.77 1.15379 -3.41643 0
M  V30 6635 O 626.874 2.26932 -3.44348 0
M  V30 6636 H 626.215 0.137567 -0.649593 0
M  V30 6637 H 628.745 -0.206926 -2.03551 0
M  V30 6638 H 628.755 1.48942 -3.79843 0
M  V30 6639 H 627.43 0.389087 -4.14076 0
M  V30 6640 H 626.007 1.94812 -3.17967 0
M  V30 6641 N 628.193 1.56834 0.155195 0
M  V30 6642 C 629.141 1.98584 1.21107 0
M  V30 6643 C 630.135 0.876987 1.44932 0
M  V30 6644 O 631.341 1.06215 1.45322 0
M  V30 6645 H 627.716 0.632039 0.407469 0
M  V30 6646 H 629.687 2.86561 0.832195 0
M  V30 6647 C 628.436 2.37555 2.53895 0
M  V30 6648 H 627.759 3.22428 2.3639 0
M  V30 6649 H 629.199 2.70598 3.26424 0
M  V30 6650 C 627.658 1.22507 3.13837 0
M  V30 6651 O 628.188 0.521388 3.98302 0
M  V30 6652 N 626.394 0.991444 2.73164 0
M  V30 6653 H 625.941 1.56544 2.04577 0
M  V30 6654 H 625.899 0.223546 3.13604 0
M  V30 6655 N 629.671 -0.424282 1.51781 0
M  V30 6656 C 630.621 -1.51464 1.70419 0
M  V30 6657 C 631.605 -1.50911 0.558094 0
M  V30 6658 O 632.797 -1.57143 0.814552 0
M  V30 6659 C 629.926 -2.89539 1.84451 0
M  V30 6660 C 629.012 -2.94798 3.04886 0
M  V30 6661 N 629.403 -2.69778 4.27848 0
M  V30 6662 C 627.701 -3.25962 3.04408 0
M  V30 6663 C 628.402 -2.81216 5.09208 0
M  V30 6664 N 627.378 -3.13447 4.44131 0
M  V30 6665 H 631.18 -1.30892 2.63144 0
M  V30 6666 H 628.694 -0.631783 1.49607 0
M  V30 6667 H 630.691 -3.67998 1.95917 0
M  V30 6668 H 629.351 -3.11121 0.929168 0
M  V30 6669 H 630.362 -2.44458 4.56575 0
M  V30 6670 H 627.039 -3.53236 2.22555 0
M  V30 6671 H 628.429 -2.65715 6.17127 0
M  V30 6672 N 631.149 -1.42148 -0.680565 0
M  V30 6673 C 632.082 -1.39602 -1.80517 0
M  V30 6674 C 633.06 -0.261098 -1.6049 0
M  V30 6675 O 634.244 -0.450404 -1.8304 0
M  V30 6676 C 631.371 -1.18134 -3.1743 0
M  V30 6677 C 630.417 -2.34543 -3.56219 0
M  V30 6678 S 631.25 -3.97063 -3.59306 0
M  V30 6679 C 632.406 -3.77926 -4.98921 0
M  V30 6680 H 632.639 -2.3477 -1.82402 0
M  V30 6681 H 630.172 -1.28851 -0.850691 0
M  V30 6682 H 632.13 -1.06434 -3.96462 0
M  V30 6683 H 630.791 -0.245611 -3.13138 0
M  V30 6684 H 629.984 -2.15255 -4.55721 0
M  V30 6685 H 629.586 -2.42728 -2.84533 0
M  V30 6686 H 631.878 -3.3856 -5.86842 0
M  V30 6687 H 632.821 -4.77084 -5.23256 0
M  V30 6688 H 633.229 -3.10904 -4.71167 0
M  V30 6689 N 632.627 0.916307 -1.28225 0
M  V30 6690 C 634.043 1.19425 -1.05876 0
M  V30 6691 C 634.243 2.005 0.2005 0
M  V30 6692 O 633.299 2.35806 0.902873 0
M  V30 6693 C 634.612 1.93133 -2.30478 0
M  V30 6694 C 636.16 2.06026 -2.35632 0
M  V30 6695 C 636.635 2.83141 -3.59994 0
M  V30 6696 N 638.126 2.90704 -3.60618 0
M  V30 6697 C 638.861 3.50865 -4.53521 0
M  V30 6698 N 638.357 4.12327 -5.56739 0
M  V30 6699 N 640.15 3.48379 -4.41122 0
M  V30 6700 H 632.301 0.37496 -2.09064 0
M  V30 6701 H 634.564 0.228531 -0.920042 0
M  V30 6702 H 634.27 1.40985 -3.22205 0
M  V30 6703 H 634.144 2.93696 -2.36691 0
M  V30 6704 H 636.531 2.57355 -1.44404 0
M  V30 6705 H 636.612 1.04647 -2.33415 0
M  V30 6706 H 636.256 2.32492 -4.51564 0
M  V30 6707 H 636.186 3.84829 -3.59464 0
M  V30 6708 H 638.677 2.47034 -2.85977 0
M  V30 6709 H 638.99 4.56205 -6.23776 0
M  V30 6710 H 637.335 4.10839 -5.60568 0
M  V30 6711 H 640.526 2.99572 -3.59686 0
M  V30 6712 H 640.699 3.94974 -5.13712 0
M  V30 6713 N 634.105 1.10431 1.1244 0
M  V30 6714 C 635.353 0.845045 1.83585 0
M  V30 6715 C 635.674 -0.631168 1.84503 0
M  V30 6716 O 634.944 -1.45825 1.30813 0
M  V30 6717 H 633.524 0.309628 0.679809 0
M  V30 6718 H 636.186 1.39458 1.36153 0
M  V30 6719 H 635.282 1.20786 2.8778 0
M  V30 6720 N 635.583 -1.29855 0.893053 0
M  V30 6721 C 636.999 -1.48366 0.588199 0
M  V30 6722 C 637.199 -1.81654 -0.872018 0
M  V30 6723 O 636.255 -1.909 -1.65268 0
M  V30 6724 C 637.568 -2.60136 1.5083 0
M  V30 6725 C 639.116 -2.74014 1.51279 0
M  V30 6726 C 639.591 -3.88905 2.41902 0
M  V30 6727 N 641.082 -3.96228 2.39911 0
M  V30 6728 C 641.817 -4.84458 3.06738 0
M  V30 6729 N 641.313 -5.77426 3.8282 0
M  V30 6730 N 643.106 -4.77894 2.95929 0
M  V30 6731 H 635.257 -1.06522 1.83757 0
M  V30 6732 H 637.52 -0.528495 0.787018 0
M  V30 6733 H 637.226 -2.42383 2.54839 0
M  V30 6734 H 637.1 -3.56793 1.22388 0
M  V30 6735 H 639.487 -2.91167 0.480179 0
M  V30 6736 H 639.568 -1.77952 1.83757 0
M  V30 6737 H 639.212 -3.72508 3.45253 0
M  V30 6738 H 639.142 -4.84322 2.06737 0
M  V30 6739 H 641.633 -3.29728 1.84629 0
M  V30 6740 H 641.946 -6.41529 4.30883 0
M  V30 6741 H 640.291 -5.77332 3.86927 0
M  V30 6742 H 643.482 -4.04248 2.36012 0
M  V30 6743 H 643.655 -5.46444 3.48286 0
M  V30 6744 N 637.061 -0.65484 -1.43351 0
M  V30 6745 C 638.286 -0.175046 -2.0666 0
M  V30 6746 C 638.711 1.15104 -1.4877 0
M  V30 6747 O 638.069 1.71144 -0.598279 0
M  V30 6748 C 638.117 -0.0991544 -3.60464 0
M  V30 6749 O 637.221 0.938169 -4.01587 0
M  V30 6750 H 636.562 -0.0956148 -0.65708 0
M  V30 6751 H 639.092 -0.898222 -1.83829 0
M  V30 6752 H 639.102 0.083632 -4.07914 0
M  V30 6753 H 637.777 -1.06719 -4.01975 0
M  V30 6754 H 636.354 0.72804 -3.65724 0
M  V30 6755 N 638.539 1.52521 -0.396863 0
M  V30 6756 C 639.788 2.00857 0.184184 0
M  V30 6757 C 640.101 1.28733 1.47265 0
M  V30 6758 O 641.307 1.67821 2.13421 0
M  V30 6759 C 639.763 3.57901 0.378787 0
M  V30 6760 C 639.371 4.38931 -0.896873 0
M  V30 6761 C 641.115 4.14504 0.915789 0
M  V30 6762 C 639.022 5.87591 -0.670133 0
M  V30 6763 H 637.952 0.750496 0.0726055 0
M  V30 6764 H 640.603 1.75965 -0.520425 0
M  V30 6765 H 638.985 3.79072 1.14543 0
M  V30 6766 H 640.159 4.29524 -1.66872 0
M  V30 6767 H 638.474 3.93586 -1.35938 0
M  V30 6768 H 641.071 5.23236 1.10126 0
M  V30 6769 H 641.414 3.71076 1.88701 0
M  V30 6770 H 641.947 3.97253 0.208523 0
M  V30 6771 H 638.686 6.35355 -1.61257 0
M  V30 6772 H 638.206 5.99767 0.0626368 0
M  V30 6773 H 639.885 6.46268 -0.307577 0
M  V30 6774 N 640.017 0.126909 1.57088 0
M  V30 6775 C 641.245 -0.53667 1.99819 0
M  V30 6776 C 641.66 -1.5972 1.00673 0
M  V30 6777 O 641.017 -1.825 0.000747365 0
M  V30 6778 C 641.068 -1.15563 3.42531 0
M  V30 6779 O 640.789 -0.137483 4.37884 0
M  V30 6780 C 642.29 -1.90176 4.00435 0
M  V30 6781 H 639.51 -0.141443 0.655923 0
M  V30 6782 H 642.054 0.215578 2.03361 0
M  V30 6783 H 640.209 -1.85861 3.39904 0
M  V30 6784 H 640.623 -0.588229 5.21191 0
M  V30 6785 H 642.097 -2.28801 5.02349 0
M  V30 6786 H 642.574 -2.78002 3.40017 0
M  V30 6787 H 643.18 -1.24623 4.06632 0
M  V30 6788 N 641.495 -1.56914 -0.146875 0
M  V30 6789 C 642.443 -1.99224 -1.20053 0
M  V30 6790 C 643.437 -0.884661 -1.44465 0
M  V30 6791 O 644.643 -1.06984 -1.44756 0
M  V30 6792 H 641.018 -0.634191 -0.404112 0
M  V30 6793 H 642.989 -2.86998 -0.816987 0
M  V30 6794 C 641.738 -2.38899 -2.52632 0
M  V30 6795 H 641.061 -3.23677 -2.34677 0
M  V30 6796 H 642.501 -2.72326 -3.24984 0
M  V30 6797 C 640.96 -1.2417 -3.13183 0
M  V30 6798 O 641.49 -0.542503 -3.9802 0
M  V30 6799 N 639.696 -1.00592 -2.72635 0
M  V30 6800 H 639.243 -1.57627 -2.03744 0
M  V30 6801 H 639.201 -0.240174 -3.13481 0
M  V30 6802 N 642.974 0.416227 -1.52004 0
M  V30 6803 C 644.251 1.17637 -1.56272 0
M  V30 6804 C 644.631 2.08352 -0.339493 0
M  V30 6805 O 643.979 2.1833 0.674124 0
M  V30 6806 C 644.189 1.95986 -2.88774 0
M  V30 6807 C 645.537 2.52299 -3.41512 0
M  V30 6808 O 646.561 2.06174 -2.90467 0
M  V30 6809 O 645.42 3.3648 -4.30631 0
M  V30 6810 H 642.514 0.536726 -0.629169 0
M  V30 6811 H 645.06 0.423583 -1.64329 0
M  V30 6812 H 643.832 1.29487 -3.69254 0
M  V30 6813 H 643.455 2.78285 -2.83978 0
M  V30 6814 N 644.452 1.42507 0.673017 0
M  V30 6815 C 645.677 1.4668 1.46627 0
M  V30 6816 C 646.102 0.080066 1.8793 0
M  V30 6817 O 645.46 -0.921879 1.56112 0
M  V30 6818 C 645.508 2.40091 2.69051 0
M  V30 6819 O 644.612 1.8735 3.67387 0
M  V30 6820 H 643.953 0.496908 0.44043 0
M  V30 6821 H 646.483 1.87215 0.825334 0
M  V30 6822 H 646.493 2.56731 3.17101 0
M  V30 6823 H 645.168 3.4084 2.3833 0
M  V30 6824 H 643.745 1.80274 3.26429 0
M  V30 6825 N 645.93 -0.909495 1.28709 0
M  V30 6826 C 646.893 -1.99399 1.13016 0
M  V30 6827 C 647.893 -1.60654 0.068536 0
M  V30 6828 O 649.083 -1.71334 0.314671 0
M  V30 6829 C 646.215 -3.33078 0.726085 0
M  V30 6830 H 647.408 -2.14751 2.09338 0
M  V30 6831 H 644.961 -1.09272 1.11756 0
M  V30 6832 H 645.696 -3.23428 -0.23771 0
M  V30 6833 H 645.481 -3.62562 1.49302 0
M  V30 6834 H 646.971 -4.12681 0.639058 0
M  V30 6835 N 647.408 -1.11026 -1.11852 0
M  V30 6836 C 648.654 -0.857729 -1.83768 0
M  V30 6837 C 648.987 0.615143 -1.842 0
M  V30 6838 O 648.262 1.45391 -1.29196 0
M  V30 6839 C 648.545 -1.41453 -3.31154 0
M  V30 6840 C 648.398 -2.95471 -3.39142 0
M  V30 6841 C 649.717 -1.0619 -4.27097 0
M  V30 6842 H 646.836 -0.313044 -0.667212 0
M  V30 6843 H 649.478 -1.37443 -1.31185 0
M  V30 6844 H 647.628 -0.975052 -3.76065 0
M  V30 6845 H 649.3 -3.4799 -3.02821 0
M  V30 6846 H 647.543 -3.31759 -2.79497 0
M  V30 6847 H 648.214 -3.29515 -4.42859 0
M  V30 6848 H 650.69 -1.44122 -3.90344 0
M  V30 6849 H 649.566 -1.47832 -5.28618 0
M  V30 6850 H 649.827 0.0278912 -4.42091 0
M  V30 6851 N 648.886 1.2938 -0.899927 0
M  V30 6852 C 649.816 2.30144 -0.39446 0
M  V30 6853 C 650.797 1.61611 0.530639 0
M  V30 6854 O 651.982 1.89119 0.441319 0
M  V30 6855 C 649.112 3.45229 0.37868 0
M  V30 6856 C 648.066 4.25564 -0.456012 0
M  V30 6857 C 647.392 5.32848 0.444637 0
M  V30 6858 C 648.692 4.93651 -1.70605 0
M  V30 6859 H 650.386 2.72673 -1.23653 0
M  V30 6860 H 647.932 1.31086 -0.596034 0
M  V30 6861 H 649.885 4.14797 0.743037 0
M  V30 6862 H 648.609 3.01545 1.25453 0
M  V30 6863 H 647.268 3.57704 -0.802704 0
M  V30 6864 H 646.916 4.85408 1.31863 0
M  V30 6865 H 646.616 5.87497 -0.110154 0
M  V30 6866 H 648.14 6.05268 0.805182 0
M  V30 6867 H 649.554 5.55655 -1.41141 0
M  V30 6868 H 647.951 5.58233 -2.20217 0
M  V30 6869 H 649.021 4.18926 -2.4419 0
M  V30 6870 N 650.364 0.662433 1.43002 0
M  V30 6871 C 651.589 0.186003 2.06564 0
M  V30 6872 C 652.014 -1.14314 1.49379 0
M  V30 6873 O 651.372 -1.70824 0.607346 0
M  V30 6874 C 651.42 0.118269 3.60406 0
M  V30 6875 O 650.524 -0.916859 4.02079 0
M  V30 6876 H 649.865 0.0990981 0.656563 0
M  V30 6877 H 652.395 0.907958 1.8335 0
M  V30 6878 H 652.405 -0.0619981 4.07953 0
M  V30 6879 H 651.08 1.08849 4.01403 0
M  V30 6880 H 649.657 -0.708635 3.66105 0
M  V30 6881 N 651.842 -1.52309 0.404946 0
M  V30 6882 C 652.772 -2.29805 -0.41376 0
M  V30 6883 C 653.753 -1.3384 -1.0498 0
M  V30 6884 O 654.938 -1.62745 -1.05961 0
M  V30 6885 C 652.068 -3.11639 -1.53292 0
M  V30 6886 C 651.022 -4.15616 -1.02211 0
M  V30 6887 C 650.348 -4.8577 -2.23455 0
M  V30 6888 C 651.648 -5.2224 -0.0790725 0
M  V30 6889 H 653.342 -2.98493 0.232878 0
M  V30 6890 H 650.888 -1.43552 0.113441 0
M  V30 6891 H 652.841 -3.64618 -2.11262 0
M  V30 6892 H 651.565 -2.40712 -2.20738 0
M  V30 6893 H 650.224 -3.63641 -0.46484 0
M  V30 6894 H 649.872 -4.11376 -2.89445 0
M  V30 6895 H 649.572 -5.56058 -1.89929 0
M  V30 6896 H 651.096 -5.4156 -2.82038 0
M  V30 6897 H 652.51 -5.70485 -0.567438 0
M  V30 6898 H 650.907 -5.99867 0.167167 0
M  V30 6899 H 651.977 -4.77078 0.867447 0
M  V30 6900 N 653.32 -0.135238 -1.57019 0
M  V30 6901 C 654.567 0.518794 -1.95742 0
M  V30 6902 C 654.895 1.65642 -1.01947 0
M  V30 6903 O 654.15 1.95645 -0.0464016 0
M  V30 6904 C 654.449 1.07694 -3.40788 0
M  V30 6905 C 654.115 0.058992 -4.50861 0
M  V30 6906 C 652.777 -0.220872 -4.80693 0
M  V30 6907 C 655.129 -0.633856 -5.17331 0
M  V30 6908 C 652.457 -1.19959 -5.74305 0
M  V30 6909 C 654.809 -1.60131 -6.11997 0
M  V30 6910 C 653.473 -1.889 -6.40213 0
M  V30 6911 H 652.743 0.18984 -0.716269 0
M  V30 6912 H 655.39 -0.219581 -1.90237 0
M  V30 6913 H 653.695 1.89241 -3.43067 0
M  V30 6914 H 655.392 1.59137 -3.68071 0
M  V30 6915 H 651.982 0.287304 -4.27636 0
M  V30 6916 H 656.166 -0.430823 -4.94427 0
M  V30 6917 H 651.422 -1.42905 -5.94465 0
M  V30 6918 H 655.596 -2.14376 -6.62583 0
M  V30 6919 H 653.223 -2.64891 -7.12556 0
M  V30 6920 N 654.798 1.5699 0.138552 0
M  V30 6921 C 655.73 1.95515 1.1961 0
M  V30 6922 C 656.743 0.852002 1.38726 0
M  V30 6923 O 657.932 1.13038 1.38147 0
M  V30 6924 C 655.032 2.2213 2.55952 0
M  V30 6925 C 654.205 3.53424 2.57702 0
M  V30 6926 C 653.264 3.6848 3.75645 0
M  V30 6927 O 652.29 4.4079 3.60129 0
M  V30 6928 N 653.492 3.05777 4.93438 0
M  V30 6929 H 656.257 2.86838 0.868557 0
M  V30 6930 H 653.818 1.58542 0.328033 0
M  V30 6931 H 655.81 2.29435 3.33379 0
M  V30 6932 H 654.38 1.3703 2.80965 0
M  V30 6933 H 653.6 3.57484 1.6613 0
M  V30 6934 H 654.888 4.39759 2.55909 0
M  V30 6935 H 654.286 2.46961 5.08947 0
M  V30 6936 H 652.843 3.18631 5.6861 0
M  V30 6937 N 656.276 -0.40816 1.52223 0
M  V30 6938 C 657.501 -1.18127 1.70472 0
M  V30 6939 C 657.926 -1.83491 0.41384 0
M  V30 6940 O 657.284 -1.70047 -0.628778 0
M  V30 6941 C 657.332 -2.21935 2.84213 0
M  V30 6942 O 656.436 -3.28099 2.4985 0
M  V30 6943 H 655.777 -0.344781 0.56747 0
M  V30 6944 H 658.307 -0.478328 1.9893 0
M  V30 6945 H 658.317 -2.66248 3.09153 0
M  V30 6946 H 656.992 -1.73744 3.7787 0
M  V30 6947 H 655.569 -2.89058 2.35584 0
M  V30 6948 N 657.755 -1.42862 -0.66545 0
M  V30 6949 C 659.004 -1.43119 -1.42126 0
M  V30 6950 C 659.317 -0.0545297 -1.95524 0
M  V30 6951 O 660.523 0.0654747 -2.71421 0
M  V30 6952 C 658.979 -2.51797 -2.5715 0
M  V30 6953 C 658.587 -3.95514 -2.10411 0
M  V30 6954 C 660.331 -2.61233 -3.346 0
M  V30 6955 C 658.238 -4.95682 -3.22573 0
M  V30 6956 H 657.168 -0.532349 -0.533966 0
M  V30 6957 H 659.819 -1.68806 -0.719506 0
M  V30 6958 H 658.201 -2.19292 -3.29738 0
M  V30 6959 H 659.375 -4.3742 -1.44915 0
M  V30 6960 H 657.69 -3.90012 -1.45874 0
M  V30 6961 H 660.287 -3.33248 -4.18151 0
M  V30 6962 H 660.63 -1.65896 -3.81817 0
M  V30 6963 H 661.163 -2.9298 -2.69087 0
M  V30 6964 H 657.902 -5.92529 -2.80338 0
M  V30 6965 H 657.422 -4.58399 -3.86821 0
M  V30 6966 H 659.101 -5.17828 -3.87896 0
M  V30 6967 N 659.233 0.902656 -1.29189 0
M  V30 6968 C 660.181 2.0278 -1.13943 0
M  V30 6969 C 661.175 1.69308 -0.055787 0
M  V30 6970 O 662.381 1.78707 -0.215371 0
M  V30 6971 H 658.756 0.664595 -0.351877 0
M  V30 6972 H 660.727 2.12778 -2.09208 0
M  V30 6973 C 659.476 3.37657 -0.82966 0
M  V30 6974 H 658.799 3.63913 -1.65551 0
M  V30 6975 H 660.239 4.17078 -0.762998 0
M  V30 6976 C 658.698 3.33648 0.466991 0
M  V30 6977 O 659.228 3.72886 1.49395 0
M  V30 6978 N 657.434 2.86745 0.471761 0
M  V30 6979 H 656.981 2.55009 -0.364406 0
M  V30 6980 H 656.939 2.84446 1.33933 0
M  V30 6981 N 660.711 1.11618 1.11262 0
M  V30 6982 C 661.959 0.864469 1.82678 0
M  V30 6983 C 662.28 -0.611564 1.85162 0
M  V30 6984 O 661.55 -1.44429 1.32352 0
M  V30 6985 H 660.13 0.316821 0.676486 0
M  V30 6986 H 662.792 1.40894 1.34666 0
M  V30 6987 H 661.888 1.23832 2.86482 0
M  V30 6988 N 662.189 -1.289 0.906776 0
M  V30 6989 C 663.122 -2.25737 0.334362 0
M  V30 6990 C 664.1 -1.52745 -0.557474 0
M  V30 6991 O 665.284 -1.81673 -0.502697 0
M  V30 6992 C 662.411 -3.34642 -0.522716 0
M  V30 6993 C 661.457 -4.25424 0.302777 0
M  V30 6994 S 662.29 -5.07629 1.70508 0
M  V30 6995 C 663.446 -6.20031 0.855118 0
M  V30 6996 H 663.679 -2.73941 1.15514 0
M  V30 6997 H 661.212 -1.37233 0.707573 0
M  V30 6998 H 663.17 -3.97845 -1.01141 0
M  V30 6999 H 661.831 -2.85119 -1.31781 0
M  V30 7000 H 661.024 -5.02767 -0.352257 0
M  V30 7001 H 660.626 -3.66908 0.724873 0
M  V30 7002 H 662.918 -6.77451 0.0816418 0
M  V30 7003 H 663.861 -6.89767 1.60087 0
M  V30 7004 H 664.269 -5.63035 0.406375 0
M  V30 7005 N 663.667 -0.670007 -1.42649 0
M  V30 7006 C 664.617 0.0339546 -2.27975 0
M  V30 7007 C 665.601 0.778295 -1.40824 0
M  V30 7008 O 666.793 0.657997 -1.64315 0
M  V30 7009 C 663.922 0.987899 -3.28779 0
M  V30 7010 C 663.008 0.241153 -4.23414 0
M  V30 7011 N 663.399 -0.751392 -5.00188 0
M  V30 7012 C 661.697 0.480269 -4.43407 0
M  V30 7013 C 662.398 -1.19615 -5.69269 0
M  V30 7014 N 661.374 -0.527045 -5.41039 0
M  V30 7015 H 665.176 -0.727425 -2.84756 0
M  V30 7016 H 662.69 -0.498673 -1.54554 0
M  V30 7017 H 664.687 1.50716 -3.88703 0
M  V30 7018 H 663.347 1.74916 -2.73559 0
M  V30 7019 H 664.358 -1.13075 -5.05405 0
M  V30 7020 H 661.035 1.2214 -3.99234 0
M  V30 7021 H 662.425 -2.01836 -6.40868 0
M  V30 7022 N 665.145 1.52092 -0.413018 0
M  V30 7023 C 666.556 1.86617 0.0556967 0
M  V30 7024 C 666.907 1.33156 1.44097 0
M  V30 7025 O 666.032 0.672417 2.05688 0
M  V30 7026 C 666.627 3.38628 0.107844 0
M  V30 7027 C 665.186 3.72778 0.520904 0
M  V30 7028 C 664.333 2.75649 -0.302109 0
M  V30 7029 H 667.284 1.45663 -0.629919 0
M  V30 7030 H 667.305 3.69152 0.922324 0
M  V30 7031 H 666.817 3.77508 -0.900506 0
M  V30 7032 H 664.918 3.39478 1.53575 0
M  V30 7033 H 665.031 4.7838 0.262591 0
M  V30 7034 H 663.395 2.53603 0.236115 0
M  V30 7035 H 664.178 3.17369 -1.30888 0
M  V30 7036 N 666.623 0.143563 1.56945 0
M  V30 7037 C 667.555 -0.828353 2.13708 0
M  V30 7038 C 668.568 -1.21313 1.08568 0
M  V30 7039 O 669.757 -1.1578 1.35857 0
M  V30 7040 C 666.857 -2.12248 2.64204 0
M  V30 7041 C 666.03 -1.90561 3.93707 0
M  V30 7042 C 665.089 -3.03931 4.29549 0
M  V30 7043 O 664.115 -2.75772 4.97934 0
M  V30 7044 N 665.317 -4.31016 3.88852 0
M  V30 7045 H 668.082 -0.343242 2.97728 0
M  V30 7046 H 665.643 -0.0401152 1.6185 0
M  V30 7047 H 667.635 -2.87132 2.85197 0
M  V30 7048 H 666.205 -2.52033 1.84928 0
M  V30 7049 H 665.425 -0.997327 3.81375 0
M  V30 7050 H 666.713 -1.73405 4.78339 0
M  V30 7051 H 666.111 -4.56762 3.33743 0
M  V30 7052 H 664.668 -5.02691 4.14903 0
M  V30 7053 N 668.101 -1.57061 -0.130224 0
M  V30 7054 C 669.031 -2.02552 -1.16168 0
M  V30 7055 C 670.012 -0.907971 -1.4384 0
M  V30 7056 O 671.197 -1.17693 -1.54473 0
M  V30 7057 C 668.327 -2.42035 -2.49071 0
M  V30 7058 C 667.281 -3.5713 -2.35886 0
M  V30 7059 C 666.607 -3.82478 -3.7365 0
M  V30 7060 C 667.907 -4.89236 -1.8288 0
M  V30 7061 H 669.601 -2.8897 -0.783359 0
M  V30 7062 H 667.147 -1.39021 -0.375376 0
M  V30 7063 H 669.1 -2.72462 -3.21469 0
M  V30 7064 H 667.824 -1.52573 -2.88771 0
M  V30 7065 H 666.483 -3.26895 -1.65938 0
M  V30 7066 H 666.131 -2.9024 -4.10816 0
M  V30 7067 H 665.831 -4.59944 -3.65685 0
M  V30 7068 H 667.355 -4.15347 -4.47571 0
M  V30 7069 H 668.769 -5.18272 -2.45085 0
M  V30 7070 H 667.166 -5.70624 -1.85763 0
M  V30 7071 H 668.236 -4.78494 -0.785571 0
M  V30 7072 N 669.579 0.400081 -1.52437 0
M  V30 7073 C 670.509 1.4947 -1.7939 0
M  V30 7074 C 671.49 1.57383 -0.645329 0
M  V30 7075 O 672.675 1.72511 -0.891826 0
M  V30 7076 C 669.805 2.87201 -1.95276 0
M  V30 7077 C 668.759 2.94134 -3.10917 0
M  V30 7078 C 668.085 4.34207 -3.1204 0
M  V30 7079 C 669.385 2.64791 -4.50203 0
M  V30 7080 H 671.079 1.27165 -2.71052 0
M  V30 7081 H 668.625 0.610312 -1.30427 0
M  V30 7082 H 670.578 3.63772 -2.12715 0
M  V30 7083 H 669.302 3.10819 -1.00294 0
M  V30 7084 H 667.961 2.20009 -2.93243 0
M  V30 7085 H 667.609 4.54848 -2.14761 0
M  V30 7086 H 667.309 4.39768 -3.89715 0
M  V30 7087 H 668.833 5.127 -3.31619 0
M  V30 7088 H 670.247 3.31083 -4.68035 0
M  V30 7089 H 668.644 2.81717 -5.29864 0
M  V30 7090 H 669.714 1.60184 -4.57678 0
M  V30 7091 N 671.057 1.43213 0.657864 0
M  V30 7092 C 671.967 1.50448 1.80007 0
M  V30 7093 C 672.983 0.39191 1.69529 0
M  V30 7094 O 674.159 0.645349 1.90781 0
M  V30 7095 C 671.224 1.42062 3.16258 0
M  V30 7096 C 670.285 2.63951 3.38568 0
M  V30 7097 C 669.518 2.55956 4.68318 0
M  V30 7098 O 669.741 1.60473 5.47361 0
M  V30 7099 O 668.675 3.46378 4.92245 0
M  V30 7100 H 672.501 2.4689 1.76858 0
M  V30 7101 H 670.086 1.25163 0.81576 0
M  V30 7102 H 671.968 1.3981 3.97531 0
M  V30 7103 H 670.643 0.487524 3.20008 0
M  V30 7104 H 669.55 2.71776 2.57077 0
M  V30 7105 H 670.883 3.56217 3.39662 0
M  V30 7106 N 672.536 -0.895792 1.29666 0
M  V30 7107 C 673.466 -2.01673 1.17688 0
M  V30 7108 C 674.447 -1.69955 0.0701317 0
M  V30 7109 O 675.632 -1.9258 0.250289 0
M  V30 7110 C 672.762 -3.36568 0.856681 0
M  V30 7111 C 671.716 -3.82509 1.92017 0
M  V30 7112 C 671.042 -5.14574 1.4532 0
M  V30 7113 C 672.342 -4.02409 3.32963 0
M  V30 7114 H 674.036 -2.11953 2.11463 0
M  V30 7115 H 671.582 -1.01839 1.01807 0
M  V30 7116 H 673.535 -4.14498 0.759577 0
M  V30 7117 H 672.259 -3.26391 -0.116763 0
M  V30 7118 H 670.918 -3.068 2.00673 0
M  V30 7119 H 670.566 -5.00815 0.468325 0
M  V30 7120 H 670.266 -5.46283 2.16447 0
M  V30 7121 H 671.79 -5.9504 1.36968 0
M  V30 7122 H 673.204 -4.70808 3.27127 0
M  V30 7123 H 671.601 -4.45478 4.02082 0
M  V30 7124 H 672.671 -3.06616 3.75652 0
M  V30 7125 N 674.014 -1.12206 -1.10668 0
M  V30 7126 C 674.944 -0.810086 -2.18997 0
M  V30 7127 C 675.925 0.225065 -1.68604 0
M  V30 7128 O 677.11 0.086783 -1.94006 0
M  V30 7129 C 674.24 -0.261262 -3.46316 0
M  V30 7130 C 673.194 -1.2292 -4.09969 0
M  V30 7131 C 672.52 -0.540713 -5.31959 0
M  V30 7132 C 673.82 -2.58295 -4.53962 0
M  V30 7133 H 675.514 -1.7159 -2.45352 0
M  V30 7134 H 673.06 -0.82646 -1.17922 0
M  V30 7135 H 675.013 -0.0307522 -4.21389 0
M  V30 7136 H 673.737 0.679879 -3.19445 0
M  V30 7137 H 672.396 -1.44548 -3.369 0
M  V30 7138 H 672.044 0.405492 -5.01363 0
M  V30 7139 H 671.744 -1.18637 -5.75499 0
M  V30 7140 H 673.268 -0.319184 -6.09765 0
M  V30 7141 H 674.682 -2.40709 -5.20319 0
M  V30 7142 H 673.079 -3.18916 -5.08343 0
M  V30 7143 H 674.149 -3.16918 -3.67002 0
M  V30 7144 N 675.492 1.28418 -0.913599 0
M  V30 7145 C 676.44 2.29272 -0.392037 0
M  V30 7146 C 677.434 1.61344 0.516198 0
M  V30 7147 O 678.64 1.75557 0.39746 0
M  V30 7148 H 675.015 0.744178 -0.108178 0
M  V30 7149 H 676.986 2.70691 -1.25574 0
M  V30 7150 C 675.735 3.45905 0.352815 0
M  V30 7151 H 675.058 3.98378 -0.336848 0
M  V30 7152 H 676.498 4.18473 0.682398 0
M  V30 7153 C 674.957 2.98572 1.56065 0
M  V30 7154 O 675.487 3.01033 2.65974 0
M  V30 7155 N 673.693 2.54235 1.40759 0
M  V30 7156 H 673.24 2.52432 0.513403 0
M  V30 7157 H 673.198 2.22925 2.21702 0
M  V30 7158 N 676.97 0.677563 1.42291 0
M  V30 7159 C 677.902 -0.0380218 2.29168 0
M  V30 7160 C 678.915 -0.762714 1.43828 0
M  V30 7161 O 680.104 -0.616413 1.67519 0
M  V30 7162 C 677.204 -1.07761 3.21311 0
M  V30 7163 C 676.377 -0.42618 4.35319 0
M  V30 7164 C 675.436 -1.36592 5.08162 0
M  V30 7165 O 674.462 -0.865174 5.62586 0
M  V30 7166 N 675.664 -2.69909 5.13935 0
M  V30 7167 H 678.429 0.707766 2.91223 0
M  V30 7168 H 675.99 0.52219 1.53247 0
M  V30 7169 H 677.982 -1.70761 3.6691 0
M  V30 7170 H 676.552 -1.72511 2.60689 0
M  V30 7171 H 675.772 0.383385 3.92331 0
M  V30 7172 H 677.06 0.0275277 5.08793 0
M  V30 7173 H 676.458 -3.13129 4.71134 0
M  V30 7174 H 675.015 -3.2815 5.6317 0
M  V30 7175 N 678.448 -1.51871 0.421078 0
M  V30 7176 C 679.378 -2.30231 -0.389363 0
M  V30 7177 C 680.359 -1.34946 -1.03555 0
M  V30 7178 O 681.544 -1.63859 -1.04229 0
M  V30 7179 C 678.674 -3.13247 -1.49979 0
M  V30 7180 C 677.628 -4.16677 -0.977966 0
M  V30 7181 C 676.954 -4.88112 -2.1829 0
M  V30 7182 C 678.254 -5.22295 -0.0236775 0
M  V30 7183 H 679.948 -2.98229 0.264524 0
M  V30 7184 H 677.494 -1.43424 0.12866 0
M  V30 7185 H 679.447 -3.66838 -2.07383 0
M  V30 7186 H 678.171 -2.4304 -2.18173 0
M  V30 7187 H 676.83 -3.64114 -0.426245 0
M  V30 7188 H 676.478 -4.14423 -2.85066 0
M  V30 7189 H 676.178 -5.58041 -1.84021 0
M  V30 7190 H 677.702 -5.44521 -2.76278 0
M  V30 7191 H 679.116 -5.71055 -0.506899 0
M  V30 7192 H 677.513 -5.99656 0.230782 0
M  V30 7193 H 678.583 -4.76131 0.917999 0
M  V30 7194 N 679.926 -0.151884 -1.56866 0
M  V30 7195 C 681.203 0.543328 -1.87902 0
M  V30 7196 C 681.583 1.82636 -1.05864 0
M  V30 7197 O 680.931 2.28028 -0.146868 0
M  V30 7198 C 681.141 0.804056 -3.39611 0
M  V30 7199 C 682.489 1.14267 -4.08935 0
M  V30 7200 O 683.513 0.893248 -3.44818 0
M  V30 7201 O 682.372 1.61229 -5.22176 0
M  V30 7202 H 679.466 0.277724 -0.778973 0
M  V30 7203 H 682.012 -0.188862 -1.68646 0
M  V30 7204 H 680.784 -0.103772 -3.91162 0
M  V30 7205 H 680.407 1.59025 -3.64413 0
M  V30 7206 N 681.404 1.57128 0.121893 0
M  V30 7207 C 682.314 2.03425 1.16857 0
M  V30 7208 C 683.33 0.954108 1.45509 0
M  V30 7209 O 684.506 1.26541 1.56682 0
M  V30 7210 C 681.571 2.42685 2.47599 0
M  V30 7211 C 680.632 3.64767 2.2637 0
M  V30 7212 C 679.865 4.02145 3.50878 0
M  V30 7213 O 680.088 3.39897 4.58068 0
M  V30 7214 O 679.022 4.95262 3.42051 0
M  V30 7215 H 682.848 2.92825 0.80544 0
M  V30 7216 H 680.433 1.45654 0.332477 0
M  V30 7217 H 682.315 2.68684 3.24634 0
M  V30 7218 H 680.99 1.56432 2.83392 0
M  V30 7219 H 679.897 3.43922 1.47203 0
M  V30 7220 H 681.23 4.51716 1.95482 0
M  V30 7221 N 682.882 -0.391992 1.52647 0
M  V30 7222 C 684.298 -0.731848 1.41831 0
M  V30 7223 C 684.498 -1.9423 0.536361 0
M  V30 7224 O 683.554 -2.52499 0.00866571 0
M  V30 7225 C 684.867 -0.969743 2.84634 0
M  V30 7226 C 686.415 -1.0714 2.94092 0
M  V30 7227 C 686.89 -1.34195 4.37899 0
M  V30 7228 N 688.381 -1.41023 4.41211 0
M  V30 7229 C 689.116 -1.63616 5.49561 0
M  V30 7230 N 688.612 -1.83699 6.68002 0
M  V30 7231 N 690.405 -1.65771 5.371 0
M  V30 7232 H 682.556 0.404547 2.08512 0
M  V30 7233 H 684.819 0.11879 0.940528 0
M  V30 7234 H 684.525 -0.152465 3.51369 0
M  V30 7235 H 684.399 -1.88523 3.26709 0
M  V30 7236 H 686.786 -1.87925 2.27526 0
M  V30 7237 H 686.867 -0.133887 2.55449 0
M  V30 7238 H 686.511 -0.539207 5.0503 0
M  V30 7239 H 686.441 -2.29226 4.74092 0
M  V30 7240 H 688.932 -1.27223 3.55841 0
M  V30 7241 H 689.245 -2.00437 7.46354 0
M  V30 7242 H 687.59 -1.8093 6.71036 0
M  V30 7243 H 690.781 -1.4963 4.43541 0
M  V30 7244 H 690.954 -1.83038 6.21612 0
M  V30 7245 N 684.36 -1.4356 -0.65026 0
M  V30 7246 C 685.776 -1.27025 -0.966269 0
M  V30 7247 C 685.976 -0.192117 -2.00582 0
M  V30 7248 O 685.032 0.428459 -2.48838 0
M  V30 7249 C 686.345 -2.63556 -1.44772 0
M  V30 7250 C 687.893 -2.71111 -1.56421 0
M  V30 7251 C 688.368 -4.08067 -2.07956 0
M  V30 7252 N 689.859 -4.10146 -2.15254 0
M  V30 7253 C 690.594 -5.12952 -2.56258 0
M  V30 7254 N 690.09 -6.26129 -2.96537 0
M  V30 7255 N 691.883 -5.00306 -2.56224 0
M  V30 7256 H 684.034 -2.12367 0.0375758 0
M  V30 7257 H 686.297 -0.946894 -0.0457782 0
M  V30 7258 H 686.003 -3.43429 -0.758271 0
M  V30 7259 H 685.877 -2.89152 -2.42221 0
M  V30 7260 H 688.264 -1.91569 -2.24467 0
M  V30 7261 H 688.345 -2.49277 -0.573967 0
M  V30 7262 H 687.989 -4.88077 -1.40511 0
M  V30 7263 H 687.919 -4.27266 -3.07817 0
M  V30 7264 H 690.41 -3.28453 -1.86887 0
M  V30 7265 H 690.723 -7.00403 -3.26582 0
M  V30 7266 H 689.068 -6.29597 -2.94334 0
M  V30 7267 H 692.259 -4.10952 -2.24135 0
M  V30 7268 H 692.432 -5.80553 -2.87857 0
M  V30 7269 N 685.838 0.888903 -1.30139 0
M  V30 7270 C 686.768 2.01046 -1.18755 0
M  V30 7271 C 687.749 1.69916 -0.0791438 0
M  V30 7272 O 688.934 1.92445 -0.260498 0
M  V30 7273 C 686.064 3.36109 -0.874518 0
M  V30 7274 C 685.018 3.81486 -1.94043 0
M  V30 7275 C 684.344 5.13796 -1.48047 0
M  V30 7276 C 685.644 4.00637 -3.35093 0
M  V30 7277 H 687.338 2.10828 -2.12584 0
M  V30 7278 H 684.884 1.01298 -1.02346 0
M  V30 7279 H 686.837 4.14089 -0.781548 0
M  V30 7280 H 685.561 3.26449 0.0994519 0
M  V30 7281 H 684.22 3.05731 -2.02297 0
M  V30 7282 H 683.868 5.0056 -0.494878 0
M  V30 7283 H 683.568 5.45127 -2.19341 0
M  V30 7284 H 685.092 5.94305 -1.40121 0
M  V30 7285 H 686.506 4.69067 -3.2962 0
M  V30 7286 H 684.903 4.43339 -4.04438 0
M  V30 7287 H 685.973 3.0462 -3.77273 0
M  V30 7288 N 687.317 1.12792 1.10072 0
M  V30 7289 C 688.547 0.907189 1.85617 0
M  V30 7290 C 688.955 -0.547181 1.81115 0
M  V30 7291 O 688.298 -1.39024 1.20075 0
M  V30 7292 C 688.36 1.30872 3.34832 0
M  V30 7293 C 688.024 2.77516 3.6309 0
M  V30 7294 C 689.021 3.75696 3.59373 0
M  V30 7295 C 686.706 3.14513 3.91646 0
M  V30 7296 C 688.7 5.08888 3.83812 0
M  V30 7297 C 686.387 4.47886 4.15742 0
M  V30 7298 C 687.385 5.44882 4.11816 0
M  V30 7299 O 687.073 6.7585 4.35295 0
M  V30 7300 H 686.805 0.323855 0.593375 0
M  V30 7301 H 689.359 1.50262 1.40038 0
M  V30 7302 H 687.589 0.656518 3.81086 0
M  V30 7303 H 689.278 1.06153 3.91773 0
M  V30 7304 H 690.044 3.48458 3.37345 0
M  V30 7305 H 685.923 2.39622 3.93831 0
M  V30 7306 H 689.467 5.84586 3.80663 0
M  V30 7307 H 685.364 4.74851 4.37249 0
M  V30 7308 H 686.132 6.81853 4.52791 0
M  V30 7309 N 688.795 -1.27931 0.920396 0
M  V30 7310 C 690.025 -1.98516 0.572256 0
M  V30 7311 C 690.433 -1.68912 -0.852375 0
M  V30 7312 O 689.776 -0.94203 -1.57707 0
M  V30 7313 C 689.838 -3.5243 0.709485 0
M  V30 7314 C 689.502 -4.0564 2.10489 0
M  V30 7315 C 690.499 -4.1897 3.07831 0
M  V30 7316 C 688.184 -4.40168 2.41986 0
M  V30 7317 C 690.178 -4.66093 4.34783 0
M  V30 7318 C 687.865 -4.86983 3.69176 0
M  V30 7319 C 688.863 -4.99903 4.65388 0
M  V30 7320 O 688.551 -5.45694 5.90316 0
M  V30 7321 H 688.283 -0.64047 0.216274 0
M  V30 7322 H 690.837 -1.6393 1.23758 0
M  V30 7323 H 689.067 -3.86698 -0.0129263 0
M  V30 7324 H 690.756 -4.04233 0.367474 0
M  V30 7325 H 691.522 -3.92562 2.84816 0
M  V30 7326 H 687.401 -4.29358 1.67846 0
M  V30 7327 H 690.945 -4.76092 5.09884 0
M  V30 7328 H 686.842 -5.12832 3.92012 0
M  V30 7329 H 687.61 -5.63965 5.932 0
M  V30 7330 N 690.273 -0.685099 -1.4193 0
M  V30 7331 C 691.183 -0.013404 -2.34596 0
M  V30 7332 C 692.199 0.777589 -1.55658 0
M  V30 7333 O 693.375 0.717553 -1.88184 0
M  V30 7334 C 690.44 0.919031 -3.34297 0
M  V30 7335 C 689.501 0.121417 -4.29128 0
M  V30 7336 C 688.734 1.00944 -5.24067 0
M  V30 7337 O 688.957 2.24898 -5.24192 0
M  V30 7338 O 687.891 0.464724 -6.00103 0
M  V30 7339 H 691.717 -0.776978 -2.93593 0
M  V30 7340 H 689.302 -0.445379 -1.42607 0
M  V30 7341 H 691.184 1.45402 -3.9552 0
M  V30 7342 H 689.859 1.66228 -2.77759 0
M  V30 7343 H 688.766 -0.45792 -3.71287 0
M  V30 7344 H 690.099 -0.582937 -4.88736 0
M  V30 7345 N 691.751 1.51645 -0.429126 0
M  V30 7346 C 692.999 2.01616 0.139802 0
M  V30 7347 C 693.32 1.31568 1.43927 0
M  V30 7348 O 692.59 0.447688 1.90716 0
M  V30 7349 H 691.17 0.744998 0.054654 0
M  V30 7350 H 693.832 1.8638 -0.569952 0
M  V30 7351 H 692.928 3.10439 0.321609 0
M  V30 7352 N 693.229 0.160201 1.56784 0
M  V30 7353 C 694.159 -0.770264 2.2043 0
M  V30 7354 C 695.14 -1.24736 1.15651 0
M  V30 7355 O 696.325 -1.30253 1.44041 0
M  V30 7356 C 693.455 -2.00427 2.83631 0
M  V30 7357 C 692.409 -1.66345 3.94352 0
M  V30 7358 C 691.735 -2.97119 4.4455 0
M  V30 7359 C 693.035 -0.899972 5.14488 0
M  V30 7360 H 694.729 -0.239783 2.98438 0
M  V30 7361 H 692.275 -0.113891 1.43549 0
M  V30 7362 H 694.228 -2.66012 3.26827 0
M  V30 7363 H 692.952 -2.5587 2.02973 0
M  V30 7364 H 691.611 -1.03133 3.51794 0
M  V30 7365 H 691.259 -3.5058 3.60698 0
M  V30 7366 H 690.959 -2.75073 5.19238 0
M  V30 7367 H 692.483 -3.63753 4.90425 0
M  V30 7368 H 693.897 -1.45818 5.54446 0
M  V30 7369 H 692.294 -0.778968 5.95023 0
M  V30 7370 H 693.364 0.105827 4.84785 0
M  V30 7371 N 694.707 -1.5719 -0.113559 0
M  V30 7372 C 695.639 -1.97393 -1.16484 0
M  V30 7373 C 696.652 -0.873964 -1.37352 0
M  V30 7374 O 697.841 -1.15222 -1.36331 0
M  V30 7375 C 694.941 -2.26174 -2.52386 0
M  V30 7376 C 694.114 -3.57479 -2.52046 0
M  V30 7377 C 693.173 -3.74409 -3.69735 0
M  V30 7378 O 692.199 -4.46463 -3.53071 0
M  V30 7379 N 693.401 -3.13588 -4.88511 0
M  V30 7380 H 696.166 -2.88184 -0.822814 0
M  V30 7381 H 693.727 -1.59044 -0.302769 0
M  V30 7382 H 695.719 -2.3471 -3.29687 0
M  V30 7383 H 694.289 -1.41483 -2.7875 0
M  V30 7384 H 693.509 -3.60081 -1.60421 0
M  V30 7385 H 694.797 -4.43775 -2.48881 0
M  V30 7386 H 694.195 -2.55026 -5.04953 0
M  V30 7387 H 692.752 -3.27637 -5.63469 0
M  V30 7388 N 696.185 0.383891 -1.52853 0
M  V30 7389 C 697.462 1.14296 -1.58732 0
M  V30 7390 C 697.842 2.07585 -0.383611 0
M  V30 7391 O 697.19 2.1971 0.627661 0
M  V30 7392 C 697.4 1.89816 -2.92867 0
M  V30 7393 C 698.748 2.44998 -3.46787 0
M  V30 7394 O 699.772 1.99966 -2.94774 0
M  V30 7395 O 698.631 3.2727 -4.37672 0
M  V30 7396 H 695.725 0.52326 -0.640413 0
M  V30 7397 H 698.271 0.388631 -1.6519 0
M  V30 7398 H 697.043 1.21626 -3.71918 0
M  V30 7399 H 696.666 2.72199 -2.89816 0
M  V30 7400 N 697.663 1.43903 0.642637 0
M  V30 7401 C 698.61 1.49881 1.75512 0
M  V30 7402 C 699.58 0.347538 1.62423 0
M  V30 7403 O 700.765 0.556177 1.82514 0
M  V30 7404 C 697.905 1.43797 3.13714 0
M  V30 7405 C 697.018 2.6921 3.37861 0
M  V30 7406 C 696.153 2.5504 4.6597 0
M  V30 7407 C 695.192 3.75671 4.83257 0
M  V30 7408 N 694.329 3.60247 6.02633 0
M  V30 7409 H 699.169 2.44935 1.69737 0
M  V30 7410 H 696.706 1.21572 0.828165 0
M  V30 7411 H 698.664 1.38262 3.93624 0
M  V30 7412 H 697.294 0.523173 3.18532 0
M  V30 7413 H 696.346 2.8498 2.51973 0
M  V30 7414 H 697.658 3.58786 3.46517 0
M  V30 7415 H 696.812 2.47273 5.54023 0
M  V30 7416 H 695.551 1.63006 4.59653 0
M  V30 7417 H 694.556 3.83836 3.93637 0
M  V30 7418 H 695.781 4.68728 4.91397 0
M  V30 7419 H 693.727 2.70955 5.97427 0
M  V30 7420 H 693.644 4.43431 6.12295 0
M  V30 7421 H 694.912 3.56351 6.93278 0
M  V30 7422 N 699.141 -0.881989 1.30609 0
M  V30 7423 C 700.071 -2.00413 1.1982 0
M  V30 7424 C 701.052 -1.69871 0.0881538 0
M  V30 7425 O 702.237 -1.92304 0.2707 0
M  V30 7426 C 699.367 -3.35641 0.89233 0
M  V30 7427 C 698.321 -3.80451 1.96064 0
M  V30 7428 C 697.647 -5.13003 1.5077 0
M  V30 7429 C 698.947 -3.98855 3.37213 0
M  V30 7430 H 700.641 -2.09698 2.13699 0
M  V30 7431 H 698.187 -1.00754 1.02882 0
M  V30 7432 H 700.14 -4.13669 0.803497 0
M  V30 7433 H 698.864 -3.26497 -0.0821381 0
M  V30 7434 H 697.523 -3.04654 2.03916 0
M  V30 7435 H 697.171 -5.0029 0.521417 0
M  V30 7436 H 696.871 -5.43956 2.22229 0
M  V30 7437 H 698.395 -5.93554 1.43271 0
M  V30 7438 H 699.809 -4.67312 3.32103 0
M  V30 7439 H 698.206 -4.41188 4.06784 0
M  V30 7440 H 699.276 -3.02614 3.78883 0
M  V30 7441 N 700.619 -1.13374 -1.09472 0
M  V30 7442 C 701.582 -0.813639 -2.14272 0
M  V30 7443 C 702.582 0.176677 -1.59826 0
M  V30 7444 O 703.772 -0.0503441 -1.74127 0
M  V30 7445 C 700.904 -0.210897 -3.40247 0
M  V30 7446 H 702.097 -1.74229 -2.44099 0
M  V30 7447 H 699.65 -0.938304 -1.25002 0
M  V30 7448 H 700.385 0.726998 -3.16046 0
M  V30 7449 H 700.17 -0.924048 -3.81056 0
M  V30 7450 H 701.66 -0.00377603 -4.176 0
M  V30 7451 N 702.098 1.27442 -0.927168 0
M  V30 7452 C 703.03 2.25975 -0.383158 0
M  V30 7453 C 704.043 1.55382 0.485832 0
M  V30 7454 O 705.232 1.75986 0.298541 0
M  V30 7455 C 702.332 3.35629 0.469688 0
M  V30 7456 C 701.505 4.35747 -0.379886 0
M  V30 7457 C 700.564 5.24598 0.410227 0
M  V30 7458 O 699.59 5.68909 -0.181888 0
M  V30 7459 N 700.792 5.54737 1.71017 0
M  V30 7460 H 703.557 2.7329 -1.23015 0
M  V30 7461 H 701.118 1.41063 -0.794539 0
M  V30 7462 H 703.11 3.92015 1.00532 0
M  V30 7463 H 701.68 2.87919 1.21744 0
M  V30 7464 H 700.9 3.78634 -1.09682 0
M  V30 7465 H 702.188 4.99648 -0.960717 0
M  V30 7466 H 701.586 5.20594 2.21356 0
M  V30 7467 H 700.143 6.13824 2.19234 0
M  V30 7468 N 703.576 0.692616 1.41565 0
M  V30 7469 C 704.825 0.219452 2.00503 0
M  V30 7470 C 705.138 -1.18683 1.55479 0
M  V30 7471 O 706.344 -1.75731 2.06956 0
M  V30 7472 C 704.8 0.341451 3.58277 0
M  V30 7473 C 704.408 1.75291 4.12283 0
M  V30 7474 C 706.152 -0.0720899 4.24439 0
M  V30 7475 C 704.059 1.82673 5.62481 0
M  V30 7476 H 702.989 0.0782874 0.749925 0
M  V30 7477 H 705.64 0.860386 1.62079 0
M  V30 7478 H 704.022 -0.367683 3.94289 0
M  V30 7479 H 705.196 2.49057 3.87695 0
M  V30 7480 H 703.511 2.11587 3.58636 0
M  V30 7481 H 706.108 -0.0373385 5.34687 0
M  V30 7482 H 706.451 -1.11034 4.0122 0
M  V30 7483 H 706.984 0.586663 3.9345 0
M  V30 7484 H 703.723 2.84539 5.90523 0
M  V30 7485 H 703.243 1.13288 5.89004 0
M  V30 7486 H 704.922 1.58827 6.27203 0
M  V30 7487 N 705.054 -1.51416 0.437162 0
M  V30 7488 C 706.47 -1.59349 0.0894459 0
M  V30 7489 C 706.67 -1.44809 -1.40116 0
M  V30 7490 O 705.726 -1.28924 -2.17106 0
M  V30 7491 C 707.039 -2.9446 0.609398 0
M  V30 7492 C 708.587 -3.07769 0.569824 0
M  V30 7493 C 709.062 -4.45404 1.06675 0
M  V30 7494 N 710.553 -4.51723 1.02473 0
M  V30 7495 C 711.288 -5.56544 1.3801 0
M  V30 7496 N 710.784 -6.68784 1.80831 0
M  V30 7497 N 712.577 -5.46901 1.29828 0
M  V30 7498 H 704.728 -1.59112 1.40703 0
M  V30 7499 H 706.991 -0.750031 0.579791 0
M  V30 7500 H 706.697 -3.1047 1.65231 0
M  V30 7501 H 706.571 -3.77184 0.0342236 0
M  V30 7502 H 708.958 -2.91428 -0.464107 0
M  V30 7503 H 709.039 -2.26885 1.1814 0
M  V30 7504 H 708.683 -4.62492 2.09914 0
M  V30 7505 H 708.613 -5.24827 0.431712 0
M  V30 7506 H 711.104 -3.71165 0.710258 0
M  V30 7507 H 711.417 -7.44787 2.06185 0
M  V30 7508 H 709.762 -6.69992 1.84757 0
M  V30 7509 H 712.953 -4.581 0.962397 0
M  V30 7510 H 713.126 -6.2848 1.57851 0
M  V30 7511 N 706.532 -0.168513 -1.56696 0
M  V30 7512 C 707.809 0.523367 -1.88468 0
M  V30 7513 C 708.189 1.81503 -1.07796 0
M  V30 7514 O 707.537 2.27859 -0.171045 0
M  V30 7515 C 707.747 0.767991 -3.40445 0
M  V30 7516 C 709.095 1.09924 -4.10124 0
M  V30 7517 O 710.119 0.856625 -3.45746 0
M  V30 7518 O 708.978 1.55681 -5.23856 0
M  V30 7519 H 706.072 0.269447 -0.781874 0
M  V30 7520 H 708.618 -0.206739 -1.68436 0
M  V30 7521 H 707.39 -0.145254 -3.9103 0
M  V30 7522 H 707.013 1.55151 -3.66079 0
M  V30 7523 N 708.01 1.57248 0.105221 0
M  V30 7524 C 708.973 2.00388 1.11252 0
M  V30 7525 C 709.973 0.89594 1.33527 0
M  V30 7526 O 711.163 1.16166 1.29811 0
M  V30 7527 C 708.295 2.35589 2.46395 0
M  V30 7528 H 709.488 2.90591 0.741424 0
M  V30 7529 H 707.041 1.52332 0.349956 0
M  V30 7530 H 707.776 1.4831 2.884 0
M  V30 7531 H 707.561 3.16408 2.31578 0
M  V30 7532 H 709.051 2.69658 3.18864 0
M  V30 7533 N 709.488 -0.375779 1.53054 0
M  V30 7534 C 710.904 -0.716764 1.426 0
M  V30 7535 C 711.104 -1.93651 0.556931 0
M  V30 7536 O 710.16 -2.52475 0.0354461 0
M  V30 7537 C 711.473 -0.939499 2.85646 0
M  V30 7538 C 713.021 -1.04015 2.95212 0
M  V30 7539 C 713.496 -1.29543 4.39298 0
M  V30 7540 N 714.987 -1.36335 4.42682 0
M  V30 7541 C 715.722 -1.57778 5.51266 0
M  V30 7542 N 715.218 -1.76604 6.69913 0
M  V30 7543 N 717.011 -1.60065 5.38828 0
M  V30 7544 H 709.162 0.42664 2.08071 0
M  V30 7545 H 711.425 0.128758 0.939215 0
M  V30 7546 H 711.131 -0.115189 3.51511 0
M  V30 7547 H 711.005 -1.85048 3.2869 0
M  V30 7548 H 713.392 -1.85501 2.29507 0
M  V30 7549 H 713.473 -0.106785 2.55577 0
M  V30 7550 H 713.117 -0.485611 5.05573 0
M  V30 7551 H 713.047 -2.24184 4.76497 0
M  V30 7552 H 715.538 -1.23441 3.5717 0
M  V30 7553 H 715.851 -1.9251 7.48438 0
M  V30 7554 H 714.196 -1.73802 6.72917 0
M  V30 7555 H 717.387 -1.44917 4.45103 0
M  V30 7556 H 717.56 -1.76435 6.23518 0
M  V30 7557 N 710.966 -1.44241 -0.634997 0
M  V30 7558 C 712.214 -1.46531 -1.39187 0
M  V30 7559 C 712.535 -0.0976441 -1.94755 0
M  V30 7560 O 711.805 0.869528 -1.75545 0
M  V30 7561 H 710.385 -0.539544 -0.516625 0
M  V30 7562 H 713.047 -1.79989 -0.747655 0
M  V30 7563 H 712.143 -2.18848 -2.22513 0
M  V30 7564 N 712.444 0.87505 -1.31075 0
M  V30 7565 C 713.407 1.96333 -1.18263 0
M  V30 7566 C 714.407 1.60416 -0.111106 0
M  V30 7567 O 715.597 1.7044 -0.359987 0
M  V30 7568 C 712.729 3.31036 -0.81414 0
M  V30 7569 H 713.922 2.09125 -2.14958 0
M  V30 7570 H 711.475 1.06271 -1.14614 0
M  V30 7571 H 712.21 3.23944 0.151875 0
M  V30 7572 H 711.995 3.58476 -1.58862 0
M  V30 7573 H 713.485 4.10842 -0.748249 0
M  V30 7574 N 713.922 1.13953 1.08869 0
M  V30 7575 C 714.852 0.844824 2.17681 0
M  V30 7576 C 715.833 -0.198213 1.68941 0
M  V30 7577 O 717.018 -0.0559073 1.9412 0
M  V30 7578 C 714.148 0.316325 3.45856 0
M  V30 7579 C 713.102 1.29426 4.07962 0
M  V30 7580 C 712.428 0.625275 5.31031 0
M  V30 7581 C 713.728 2.65484 4.49795 0
M  V30 7582 H 715.422 1.75471 2.42591 0
M  V30 7583 H 712.968 0.845116 1.16592 0
M  V30 7584 H 714.921 0.0977876 4.21287 0
M  V30 7585 H 713.645 -0.628972 3.20486 0
M  V30 7586 H 712.304 1.49889 3.34558 0
M  V30 7587 H 711.952 -0.325678 5.01945 0
M  V30 7588 H 711.652 1.27777 5.73539 0
M  V30 7589 H 713.176 0.416152 6.0918 0
M  V30 7590 H 714.59 2.48957 5.16424 0
M  V30 7591 H 712.987 3.26963 5.03205 0
M  V30 7592 H 714.057 3.22717 3.61914 0
M  V30 7593 N 715.4 -1.26948 0.933913 0
M  V30 7594 C 716.625 -1.98724 0.593589 0
M  V30 7595 C 717.05 -1.6915 -0.822801 0
M  V30 7596 O 716.408 -0.93533 -1.5531 0
M  V30 7597 C 716.456 -3.50834 0.833542 0
M  V30 7598 O 715.56 -4.12284 -0.0978788 0
M  V30 7599 H 714.901 -0.623683 0.227849 0
M  V30 7600 H 717.431 -1.61599 1.25486 0
M  V30 7601 H 717.441 -4.01018 0.75156 0
M  V30 7602 H 716.116 -3.71691 1.86597 0
M  V30 7603 H 714.693 -3.72884 0.0345443 0
M  V30 7604 N 716.879 -0.700114 -1.41195 0
M  V30 7605 C 717.842 -0.0465706 -2.29153 0
M  V30 7606 C 718.842 0.703302 -1.44604 0
M  V30 7607 O 720.032 0.537513 -1.657 0
M  V30 7608 C 717.164 0.944324 -3.2756 0
M  V30 7609 H 718.357 -0.821064 -2.88442 0
M  V30 7610 H 715.91 -0.463869 -1.49258 0
M  V30 7611 H 716.645 1.74642 -2.73259 0
M  V30 7612 H 716.43 0.409701 -3.89954 0
M  V30 7613 H 717.92 1.39925 -3.9346 0
M  V30 7614 N 718.357 1.51182 -0.445186 0
M  V30 7615 C 719.287 2.30821 0.352686 0
M  V30 7616 C 720.268 1.36576 1.01395 0
M  V30 7617 O 721.453 1.65497 1.01609 0
M  V30 7618 C 718.583 3.15593 1.44976 0
M  V30 7619 C 717.537 4.1818 0.911553 0
M  V30 7620 C 716.863 4.91523 2.10497 0
M  V30 7621 C 718.163 5.22266 -0.059418 0
M  V30 7622 H 719.857 2.97771 -0.311936 0
M  V30 7623 H 717.403 1.43201 -0.151461 0
M  V30 7624 H 719.356 3.70091 2.01521 0
M  V30 7625 H 718.08 2.4648 2.14278 0
M  V30 7626 H 716.739 3.64746 0.368264 0
M  V30 7627 H 716.387 4.18906 2.78437 0
M  V30 7628 H 716.087 5.60898 1.7512 0
M  V30 7629 H 717.611 5.48847 2.6758 0
M  V30 7630 H 719.025 5.71789 0.415985 0
M  V30 7631 H 717.422 5.99213 -0.326152 0
M  V30 7632 H 718.492 4.7461 -0.993631 0
M  V30 7633 N 719.835 0.176821 1.56605 0
M  V30 7634 C 721.251 -0.179278 1.5859 0
M  V30 7635 C 721.451 -1.62433 1.19238 0
M  V30 7636 O 720.507 -2.35665 0.906552 0
M  V30 7637 C 721.82 0.106524 3.00511 0
M  V30 7638 C 723.368 0.0451731 3.12967 0
M  V30 7639 C 723.843 0.304038 4.5699 0
M  V30 7640 N 725.334 0.252008 4.62514 0
M  V30 7641 C 726.069 0.426404 5.71812 0
M  V30 7642 N 725.565 0.660155 6.89648 0
M  V30 7643 N 727.358 0.361926 5.60934 0
M  V30 7644 H 719.509 1.12001 1.8047 0
M  V30 7645 H 721.772 0.445679 0.836704 0
M  V30 7646 H 721.478 1.10778 3.33798 0
M  V30 7647 H 721.352 -0.599337 3.72408 0
M  V30 7648 H 723.739 -0.946662 2.79504 0
M  V30 7649 H 723.82 0.78383 2.43495 0
M  V30 7650 H 723.464 1.29311 4.91163 0
M  V30 7651 H 723.394 -0.455294 5.24628 0
M  V30 7652 H 725.885 0.0772102 3.77821 0
M  V30 7653 H 726.198 0.782529 7.68828 0
M  V30 7654 H 724.543 0.696835 6.91498 0
M  V30 7655 H 727.734 0.17986 4.67754 0
M  V30 7656 H 727.907 0.501263 6.46058 0
M  V30 7657 N 721.313 -1.57302 -0.09688 0
M  V30 7658 C 722.223 -2.05258 -1.13606 0
M  V30 7659 C 723.239 -0.977137 -1.43972 0
M  V30 7660 O 724.415 -1.29018 -1.54649 0
M  V30 7661 C 721.48 -2.46593 -2.43706 0
M  V30 7662 C 720.541 -3.68322 -2.20538 0
M  V30 7663 C 719.774 -4.07676 -3.44435 0
M  V30 7664 O 719.997 -3.47141 -4.52603 0
M  V30 7665 O 718.931 -5.00641 -3.34129 0
M  V30 7666 H 722.757 -2.94069 -0.758752 0
M  V30 7667 H 720.342 -1.46164 -0.309263 0
M  V30 7668 H 722.224 -2.73814 -3.20318 0
M  V30 7669 H 720.899 -1.6092 -2.80867 0
M  V30 7670 H 719.806 -3.4622 -1.41713 0
M  V30 7671 H 721.139 -4.54769 -1.88271 0
M  V30 7672 N 722.791 0.367657 -1.53252 0
M  V30 7673 C 723.701 1.47415 -1.82499 0
M  V30 7674 C 724.717 1.58711 -0.713222 0
M  V30 7675 O 725.893 1.74644 -1.00306 0
M  V30 7676 C 722.958 2.82706 -2.00694 0
M  V30 7677 C 722.019 2.80955 -3.24596 0
M  V30 7678 C 721.252 4.09793 -3.41914 0
M  V30 7679 O 721.475 5.05852 -2.63572 0
M  V30 7680 O 720.409 4.15731 -4.3526 0
M  V30 7681 H 724.235 1.25624 -2.765 0
M  V30 7682 H 721.82 0.557559 -1.38606 0
M  V30 7683 H 723.702 3.62873 -2.14246 0
M  V30 7684 H 722.377 3.04479 -1.09883 0
M  V30 7685 H 721.284 1.99494 -3.16469 0
M  V30 7686 H 722.617 2.64136 -4.15323 0
M  V30 7687 N 724.269 1.44576 0.627338 0
M  V30 7688 C 725.219 1.48168 1.73293 0
M  V30 7689 C 726.203 0.347045 1.57113 0
M  V30 7690 O 727.395 0.592605 1.66785 0
M  V30 7691 C 724.524 1.43236 3.11991 0
M  V30 7692 C 723.61 2.61828 3.33627 0
M  V30 7693 N 724.001 3.87053 3.25612 0
M  V30 7694 C 722.299 2.57104 3.64436 0
M  V30 7695 C 723 4.66093 3.48041 0
M  V30 7696 N 721.976 3.97228 3.71095 0
M  V30 7697 H 725.778 2.42832 1.6556 0
M  V30 7698 H 723.292 1.39592 0.829934 0
M  V30 7699 H 725.289 1.43893 3.91281 0
M  V30 7700 H 723.949 0.496133 3.20887 0
M  V30 7701 H 724.96 4.18966 3.04447 0
M  V30 7702 H 721.637 1.72295 3.8029 0
M  V30 7703 H 723.027 5.75117 3.47404 0
M  V30 7704 N 725.747 -0.868086 1.31537 0
M  V30 7705 C 727.163 -1.15414 1.10235 0
M  V30 7706 C 727.363 -2.01106 -0.125947 0
M  V30 7707 O 726.419 -2.38994 -0.814734 0
M  V30 7708 C 727.732 -1.84445 2.37488 0
M  V30 7709 C 729.28 -1.97139 2.43116 0
M  V30 7710 C 729.755 -2.69585 3.70254 0
M  V30 7711 N 731.246 -2.77119 3.71159 0
M  V30 7712 C 731.981 -3.33791 4.6623 0
M  V30 7713 N 731.477 -3.9138 5.71659 0
M  V30 7714 N 733.27 -3.31767 4.53747 0
M  V30 7715 H 725.421 -0.297109 2.10312 0
M  V30 7716 H 727.684 -0.194227 0.92789 0
M  V30 7717 H 727.39 -1.2893 3.27215 0
M  V30 7718 H 727.264 -2.84709 2.47428 0
M  V30 7719 H 729.651 -2.51818 1.53856 0
M  V30 7720 H 729.732 -0.95912 2.37138 0
M  V30 7721 H 729.376 -2.15572 4.59881 0
M  V30 7722 H 729.306 -3.71223 3.73499 0
M  V30 7723 H 731.797 -2.3625 2.94948 0
M  V30 7724 H 732.11 -4.3274 6.40278 0
M  V30 7725 H 730.455 -3.8975 5.7543 0
M  V30 7726 H 733.646 -2.86016 3.70557 0
M  V30 7727 H 733.819 -3.75636 5.28017 0
M  V30 7728 N 727.225 -1.14528 -1.08264 0
M  V30 7729 C 728.135 -0.84728 -2.18765 0
M  V30 7730 C 729.151 0.172826 -1.7314 0
M  V30 7731 O 730.327 0.000985336 -2.014 0
M  V30 7732 C 727.392 -0.330633 -3.4512 0
M  V30 7733 C 726.453 -1.41348 -4.05363 0
M  V30 7734 C 725.686 -0.921387 -5.25686 0
M  V30 7735 O 725.909 0.236587 -5.69909 0
M  V30 7736 O 724.843 -1.70101 -5.77364 0
M  V30 7737 H 728.669 -1.7708 -2.46731 0
M  V30 7738 H 726.254 -0.923661 -1.17426 0
M  V30 7739 H 728.136 -0.0485053 -4.21372 0
M  V30 7740 H 726.811 0.565147 -3.18728 0
M  V30 7741 H 725.718 -1.74908 -3.30693 0
M  V30 7742 H 727.051 -2.28383 -4.36007 0
M  V30 7743 N 728.703 1.26451 -0.940633 0
M  V30 7744 C 729.65 2.264 -0.448497 0
M  V30 7745 C 730.62 1.5866 0.491546 0
M  V30 7746 O 731.805 1.86389 0.407874 0
M  V30 7747 C 728.945 3.43956 0.280715 0
M  V30 7748 C 728.058 4.26374 -0.694937 0
M  V30 7749 C 727.193 5.31171 0.0554186 0
M  V30 7750 C 726.232 6.05266 -0.912091 0
M  V30 7751 N 725.369 7.01833 -0.193524 0
M  V30 7752 H 730.209 2.67869 -1.30576 0
M  V30 7753 H 727.746 1.31707 -0.655112 0
M  V30 7754 H 729.704 4.10941 0.71994 0
M  V30 7755 H 728.334 3.03403 1.10212 0
M  V30 7756 H 727.386 3.59183 -1.25267 0
M  V30 7757 H 728.698 4.77748 -1.43382 0
M  V30 7758 H 727.852 6.04166 0.553951 0
M  V30 7759 H 726.591 4.80634 0.827183 0
M  V30 7760 H 725.596 5.31099 -1.42175 0
M  V30 7761 H 726.821 6.57893 -1.68385 0
M  V30 7762 H 724.767 6.53607 0.559758 0
M  V30 7763 H 724.684 7.50957 -0.871744 0
M  V30 7764 H 725.952 7.78983 0.283932 0
M  V30 7765 N 730.181 0.707592 1.40822 0
M  V30 7766 C 731.111 0.0644925 2.33411 0
M  V30 7767 C 732.092 -0.754205 1.52466 0
M  V30 7768 O 733.277 -0.704749 1.80961 0
M  V30 7769 C 730.407 -0.863865 3.36385 0
M  V30 7770 C 729.361 -0.15138 4.27732 0
M  V30 7771 C 728.687 -1.19491 5.21177 0
M  V30 7772 C 729.987 0.989607 5.12839 0
M  V30 7773 H 731.681 0.837829 2.87438 0
M  V30 7774 H 729.227 0.404346 1.38207 0
M  V30 7775 H 731.18 -1.32309 4.0009 0
M  V30 7776 H 729.904 -1.66901 2.80734 0
M  V30 7777 H 728.563 0.287937 3.65467 0
M  V30 7778 H 728.211 -1.9929 4.61836 0
M  V30 7779 H 727.911 -0.723123 5.83134 0
M  V30 7780 H 729.435 -1.6544 5.8776 0
M  V30 7781 H 730.849 0.610114 5.70044 0
M  V30 7782 H 729.246 1.38926 5.83798 0
M  V30 7783 H 730.316 1.82389 4.49291 0
M  V30 7784 N 731.66 -1.50943 0.453197 0
M  V30 7785 C 733.076 -1.59245 0.106342 0
M  V30 7786 C 733.276 -1.46287 -1.38572 0
M  V30 7787 O 732.332 -1.31219 -2.15726 0
M  V30 7788 C 733.645 -2.93797 0.640595 0
M  V30 7789 C 735.193 -3.07148 0.602435 0
M  V30 7790 C 735.668 -4.44247 1.11393 0
M  V30 7791 N 737.159 -4.50611 1.07258 0
M  V30 7792 C 737.894 -5.55049 1.43905 0
M  V30 7793 N 737.39 -6.66828 1.87914 0
M  V30 7794 N 739.183 -5.45494 1.35621 0
M  V30 7795 H 731.334 -1.5761 1.42382 0
M  V30 7796 H 733.597 -0.74384 0.587713 0
M  V30 7797 H 733.303 -3.087 1.68515 0
M  V30 7798 H 733.177 -3.77127 0.0742272 0
M  V30 7799 H 735.564 -2.91903 -0.433171 0
M  V30 7800 H 735.645 -2.25619 1.20539 0
M  V30 7801 H 735.289 -4.60239 2.14808 0
M  V30 7802 H 735.219 -5.2434 0.487353 0
M  V30 7803 H 737.71 -3.70391 0.749585 0
M  V30 7804 H 738.023 -7.42558 2.14072 0
M  V30 7805 H 736.368 -6.67995 1.91853 0
M  V30 7806 H 739.559 -4.57053 1.01093 0
M  V30 7807 H 739.732 -6.2677 1.64508 0
M  V30 7808 N 733.138 -0.185124 -1.56509 0
M  V30 7809 C 734.554 0.170865 -1.58683 0
M  V30 7810 C 734.754 1.61799 -1.20098 0
M  V30 7811 O 733.81 2.35181 -0.919038 0
M  V30 7812 C 735.123 -0.122459 -3.00451 0
M  V30 7813 C 736.671 -0.0617699 -3.12939 0
M  V30 7814 C 737.146 -0.328269 -4.56822 0
M  V30 7815 N 738.637 -0.276533 -4.62374 0
M  V30 7816 C 739.372 -0.456722 -5.71578 0
M  V30 7817 N 738.868 -0.69672 -6.89288 0
M  V30 7818 N 740.661 -0.391669 -5.60734 0
M  V30 7819 H 732.812 -1.12956 -1.79874 0
M  V30 7820 H 735.075 -0.45011 -0.834329 0
M  V30 7821 H 734.781 -1.12546 -3.33206 0
M  V30 7822 H 734.655 0.579578 -3.72721 0
M  V30 7823 H 737.042 0.931826 -2.80002 0
M  V30 7824 H 737.123 -0.796732 -2.43076 0
M  V30 7825 H 736.767 -1.31914 -4.9047 0
M  V30 7826 H 736.697 0.427465 -5.24862 0
M  V30 7827 H 739.188 -0.0972458 -3.77775 0
M  V30 7828 H 739.501 -0.823291 -7.68402 0
M  V30 7829 H 737.846 -0.733497 -6.91119 0
M  V30 7830 H 741.037 -0.204663 -4.67652 0
M  V30 7831 H 741.21 -0.535518 -6.45783 0
M  V30 7832 N 734.616 1.57351 0.0885366 0
M  V30 7833 C 735.579 2.01557 1.09121 0
M  V30 7834 C 736.579 0.910052 1.3257 0
M  V30 7835 O 737.769 1.17537 1.28572 0
M  V30 7836 C 734.901 2.38189 2.43883 0
M  V30 7837 H 736.094 2.91361 0.710562 0
M  V30 7838 H 733.647 1.52694 0.333779 0
M  V30 7839 H 734.382 1.5136 2.86811 0
M  V30 7840 H 734.167 3.18846 2.28209 0
M  V30 7841 H 735.657 2.73025 3.15986 0
M  V30 7842 N 736.094 -0.359525 1.53444 0
M  V30 7843 C 737.057 -1.42357 1.7963 0
M  V30 7844 C 738.057 -1.46319 0.666884 0
M  V30 7845 O 739.247 -1.46974 0.935113 0
M  V30 7846 C 736.379 -2.81425 1.92387 0
M  V30 7847 H 737.572 -1.20409 2.74666 0
M  V30 7848 H 735.125 -0.593007 1.44614 0
M  V30 7849 H 735.86 -3.08679 0.994384 0
M  V30 7850 H 735.645 -2.79947 2.74539 0
M  V30 7851 H 737.135 -3.5847 2.14218 0
M  V30 7852 N 737.572 -1.44907 -0.619662 0
M  V30 7853 C 738.482 -1.55168 -1.75955 0
M  V30 7854 C 739.498 -0.43672 -1.6843 0
M  V30 7855 O 740.674 -0.695704 -1.89002 0
M  V30 7856 C 737.739 -1.50397 -3.12381 0
M  V30 7857 C 736.8 -2.72835 -3.31451 0
M  V30 7858 C 736.033 -2.68283 -4.61368 0
M  V30 7859 O 736.256 -1.74929 -5.42914 0
M  V30 7860 O 735.19 -3.59308 -4.82889 0
M  V30 7861 H 739.016 -2.51493 -1.7025 0
M  V30 7862 H 736.601 -1.27282 -0.782289 0
M  V30 7863 H 738.483 -1.50301 -3.93685 0
M  V30 7864 H 737.158 -0.572197 -3.18603 0
M  V30 7865 H 736.065 -2.78496 -2.49781 0
M  V30 7866 H 737.398 -3.65098 -3.30098 0
M  V30 7867 N 739.05 0.861098 -1.31996 0
M  V30 7868 C 739.96 2.00154 -1.22374 0
M  V30 7869 C 740.976 1.73447 -0.138631 0
M  V30 7870 O 742.152 1.98191 -0.358104 0
M  V30 7871 C 739.217 3.33696 -0.940645 0
M  V30 7872 C 738.278 3.73668 -2.11355 0
M  V30 7873 C 737.511 5.00837 -1.84386 0
M  V30 7874 O 737.734 5.64996 -0.783287 0
M  V30 7875 O 736.668 5.37787 -2.70313 0
M  V30 7876 H 740.494 2.11207 -2.18233 0
M  V30 7877 H 738.079 0.990768 -1.11822 0
M  V30 7878 H 739.961 4.13756 -0.798987 0
M  V30 7879 H 738.636 3.23698 -0.0121636 0
M  V30 7880 H 737.543 2.94211 -2.31065 0
M  V30 7881 H 738.876 3.88303 -3.02459 0
M  V30 7882 N 740.528 1.15101 1.07655 0
M  V30 7883 C 741.491 0.847625 2.12951 0
M  V30 7884 C 742.491 -0.151227 1.60087 0
M  V30 7885 O 743.681 0.0780399 1.74025 0
M  V30 7886 C 740.813 0.265 3.39868 0
M  V30 7887 H 742.006 1.7809 2.41296 0
M  V30 7888 H 739.559 0.958072 1.23494 0
M  V30 7889 H 740.294 -0.676625 3.17163 0
M  V30 7890 H 740.079 0.984554 3.79538 0
M  V30 7891 H 741.569 0.0702121 4.17541 0
M  V30 7892 N 742.006 -1.2595 0.947325 0
M  V30 7893 C 742.916 -2.29883 0.468079 0
M  V30 7894 C 743.932 -1.67783 -0.460975 0
M  V30 7895 O 745.108 -1.98526 -0.339006 0
M  V30 7896 C 742.173 -3.45773 -0.253315 0
M  V30 7897 C 741.234 -4.23337 0.713054 0
M  V30 7898 C 740.467 -5.33694 0.025993 0
M  V30 7899 O 740.69 -5.57853 -1.18978 0
M  V30 7900 O 739.624 -5.97724 0.70782 0
M  V30 7901 H 743.45 -2.72952 1.33156 0
M  V30 7902 H 741.035 -1.31263 0.713468 0
M  V30 7903 H 742.917 -4.16209 -0.659423 0
M  V30 7904 H 741.592 -3.04721 -1.09209 0
M  V30 7905 H 740.499 -3.55359 1.16923 0
M  V30 7906 H 741.832 -4.68154 1.51963 0
M  V30 7907 N 743.484 -0.715051 -1.40445 0
M  V30 7908 C 744.9 -0.388555 -1.54798 0
M  V30 7909 C 745.1 1.10271 -1.68649 0
M  V30 7910 O 744.156 1.88875 -1.67578 0
M  V30 7911 C 745.469 -1.15414 -2.77669 0
M  V30 7912 C 747.017 -1.14039 -2.91486 0
M  V30 7913 C 747.492 -1.88812 -4.1727 0
M  V30 7914 N 748.983 -1.85878 -4.24268 0
M  V30 7915 C 749.718 -2.40558 -5.20499 0
M  V30 7916 N 749.214 -3.03791 -6.22642 0
M  V30 7917 N 751.007 -2.30703 -5.12574 0
M  V30 7918 H 743.158 -1.68201 -1.297 0
M  V30 7919 H 745.421 -0.710915 -0.627139 0
M  V30 7920 H 745.127 -2.20853 -2.7371 0
M  V30 7921 H 745.001 -0.745412 -3.69761 0
M  V30 7922 H 747.388 -0.0941996 -2.9495 0
M  V30 7923 H 747.469 -1.58834 -2.00513 0
M  V30 7924 H 747.113 -2.93422 -4.14568 0
M  V30 7925 H 747.043 -1.41438 -5.0725 0
M  V30 7926 H 749.534 -1.39794 -3.51093 0
M  V30 7927 H 749.847 -3.43032 -6.92495 0
M  V30 7928 H 748.192 -3.07875 -6.23087 0
M  V30 7929 H 751.383 -1.80961 -4.31707 0
M  V30 7930 H 751.556 -2.73618 -5.87398 0
M  V30 7931 N 744.962 1.50701 -0.461195 0
M  V30 7932 C 745.894 2.26124 0.374244 0
M  V30 7933 C 746.907 1.31064 0.965715 0
M  V30 7934 O 748.096 1.56647 0.855801 0
M  V30 7935 C 745.196 3.01996 1.5379 0
M  V30 7936 C 744.369 4.24336 1.06101 0
M  V30 7937 C 743.428 4.82585 2.09756 0
M  V30 7938 O 742.454 5.43775 1.68219 0
M  V30 7939 N 743.656 4.68712 3.42475 0
M  V30 7940 H 746.421 2.9846 -0.2723 0
M  V30 7941 H 743.982 1.59256 -0.291415 0
M  V30 7942 H 745.974 3.37846 2.22806 0
M  V30 7943 H 744.544 2.32521 2.08933 0
M  V30 7944 H 743.764 3.93707 0.197085 0
M  V30 7945 H 745.052 5.03678 0.720156 0
M  V30 7946 H 744.45 4.20026 3.78938 0
M  V30 7947 H 743.007 5.08858 4.07317 0
M  V30 7948 N 746.441 0.193421 1.56409 0
M  V30 7949 C 747.857 -0.162447 1.58771 0
M  V30 7950 C 748.057 -1.6116 1.20954 0
M  V30 7951 O 747.113 -2.3469 0.931497 0
M  V30 7952 C 748.426 0.138391 3.00381 0
M  V30 7953 C 749.974 0.0783649 3.12902 0
M  V30 7954 C 750.449 0.352491 4.56642 0
M  V30 7955 N 751.94 0.30105 4.62221 0
M  V30 7956 C 752.675 0.487028 5.71328 0
M  V30 7957 N 752.171 0.733265 6.88909 0
M  V30 7958 N 753.964 0.4214 5.60518 0
M  V30 7959 H 746.115 1.13909 1.79272 0
M  V30 7960 H 748.378 0.454528 0.83193 0
M  V30 7961 H 748.084 1.14312 3.32604 0
M  V30 7962 H 747.958 -0.559804 3.73023 0
M  V30 7963 H 750.345 -0.916963 2.80492 0
M  V30 7964 H 750.426 0.809611 2.4265 0
M  V30 7965 H 750.07 1.34513 4.89764 0
M  V30 7966 H 750 -0.399624 5.25081 0
M  V30 7967 H 752.491 0.117279 3.77718 0
M  V30 7968 H 752.804 0.86403 7.67955 0
M  V30 7969 H 751.149 0.770138 6.9072 0
M  V30 7970 H 754.34 0.229461 4.67537 0
M  V30 7971 H 754.513 0.569758 6.4549 0
M  V30 7972 N 747.919 -1.57396 -0.0801906 0
M  V30 7973 C 748.851 -1.9982 -1.12271 0
M  V30 7974 C 749.864 -0.902902 -1.35468 0
M  V30 7975 O 751.053 -1.18088 -1.33856 0
M  V30 7976 C 748.153 -2.31476 -2.47532 0
M  V30 7977 C 747.326 -3.62745 -2.44407 0
M  V30 7978 C 746.385 -3.82168 -3.6171 0
M  V30 7979 O 745.411 -4.53852 -3.43522 0
M  V30 7980 N 746.613 -3.2388 -4.81749 0
M  V30 7981 H 749.378 -2.89864 -0.761501 0
M  V30 7982 H 746.939 -1.5965 -0.268965 0
M  V30 7983 H 748.931 -2.4165 -3.24634 0
M  V30 7984 H 747.501 -1.47364 -2.75686 0
M  V30 7985 H 746.721 -3.63403 -1.52747 0
M  V30 7986 H 748.009 -4.48954 -2.39412 0
M  V30 7987 H 747.407 -2.6568 -4.9943 0
M  V30 7988 H 745.964 -3.39515 -5.56392 0
M  V30 7989 N 749.397 0.351382 -1.53633 0
M  V30 7990 C 750.646 1.08988 -1.69719 0
M  V30 7991 C 750.959 1.90043 -0.462948 0
M  V30 7992 O 752.165 2.66769 -0.504613 0
M  V30 7993 C 750.621 1.98691 -3.00083 0
M  V30 7994 C 750.229 1.22881 -4.30818 0
M  V30 7995 C 751.973 2.72446 -3.25536 0
M  V30 7996 C 749.88 2.11568 -5.52262 0
M  V30 7997 H 748.81 0.410588 -0.632403 0
M  V30 7998 H 751.461 0.349886 -1.80133 0
M  V30 7999 H 749.843 2.76478 -2.83506 0
M  V30 8000 H 751.017 0.500582 -4.58073 0
M  V30 8001 H 749.332 0.60928 -4.11918 0
M  V30 8002 H 751.929 3.39055 -4.13456 0
M  V30 8003 H 752.272 3.38588 -2.42206 0
M  V30 8004 H 752.805 2.01735 -3.42852 0
M  V30 8005 H 749.544 1.4998 -6.38111 0
M  V30 8006 H 749.064 2.82201 -5.29266 0
M  V30 8007 H 750.743 2.70802 -5.87601 0
M  V30 8008 N 750.875 1.45233 0.611969 0
M  V30 8009 C 751.807 1.49575 1.73666 0
M  V30 8010 C 752.82 0.386987 1.58134 0
M  V30 8011 O 754.009 0.653804 1.66095 0
M  V30 8012 C 751.109 1.33223 3.11617 0
M  V30 8013 C 750.282 2.57694 3.5343 0
M  V30 8014 C 749.341 2.35962 4.70328 0
M  V30 8015 O 748.367 3.09553 4.77667 0
M  V30 8016 N 749.569 1.40243 5.63305 0
M  V30 8017 H 752.334 2.46539 1.70407 0
M  V30 8018 H 749.895 1.40917 0.79712 0
M  V30 8019 H 751.887 1.16502 3.87569 0
M  V30 8020 H 750.457 0.44551 3.09409 0
M  V30 8021 H 749.677 2.8956 2.67486 0
M  V30 8022 H 750.965 3.40441 3.78124 0
M  V30 8023 H 750.363 0.795023 5.60086 0
M  V30 8024 H 748.92 1.29496 6.38807 0
M  V30 8025 N 752.353 -0.854086 1.3245 0
M  V30 8026 C 753.283 -1.97827 1.24044 0
M  V30 8027 C 754.264 -1.69646 0.124166 0
M  V30 8028 O 755.449 -1.91687 0.31143 0
M  V30 8029 C 752.579 -3.33673 0.963324 0
M  V30 8030 C 751.533 -3.76207 2.04089 0
M  V30 8031 C 750.859 -5.0969 1.61618 0
M  V30 8032 C 752.159 -3.91612 3.45597 0
M  V30 8033 H 753.853 -2.05118 2.18099 0
M  V30 8034 H 751.399 -0.985489 1.04996 0
M  V30 8035 H 753.352 -4.11871 0.891061 0
M  V30 8036 H 752.076 -3.26597 -0.0128649 0
M  V30 8037 H 750.735 -3.0026 2.10332 0
M  V30 8038 H 750.383 -4.99072 0.627418 0
M  V30 8039 H 750.083 -5.3912 2.33717 0
M  V30 8040 H 751.607 -5.90381 1.55829 0
M  V30 8041 H 753.021 -4.60163 3.4194 0
M  V30 8042 H 751.418 -4.3246 4.16051 0
M  V30 8043 H 752.488 -2.9451 3.85217 0
M  V30 8044 N 753.831 -1.1567 -1.07043 0
M  V30 8045 C 754.794 -0.858906 -2.12498 0
M  V30 8046 C 755.794 0.142735 -1.60165 0
M  V30 8047 O 756.984 -0.0872678 -1.73981 0
M  V30 8048 C 754.116 -0.283021 -3.39723 0
M  V30 8049 H 755.309 -1.79368 -2.40348 0
M  V30 8050 H 752.862 -0.964608 -1.22984 0
M  V30 8051 H 753.597 0.659796 -3.17517 0
M  V30 8052 H 753.382 -1.00467 -3.7901 0
M  V30 8053 H 754.872 -0.0923543 -4.17498 0
M  V30 8054 N 755.309 1.25446 -0.953992 0
M  V30 8055 C 756.241 2.25111 -0.431004 0
M  V30 8056 C 757.254 1.56377 0.452764 0
M  V30 8057 O 758.443 1.76579 0.261144 0
M  V30 8058 C 755.543 3.3655 0.39839 0
M  V30 8059 C 754.716 4.34843 -0.472229 0
M  V30 8060 C 753.775 5.25351 0.29886 0
M  V30 8061 O 752.801 5.68396 -0.302522 0
M  V30 8062 N 754.003 5.5824 1.59211 0
M  V30 8063 H 756.768 2.70619 -1.28785 0
M  V30 8064 H 754.329 1.39346 -0.824281 0
M  V30 8065 H 756.321 3.94059 0.921941 0
M  V30 8066 H 754.891 2.90436 1.15609 0
M  V30 8067 H 754.111 3.76222 -1.17689 0
M  V30 8068 H 755.399 4.97497 -1.06648 0
M  V30 8069 H 754.797 5.25172 2.10264 0
M  V30 8070 H 753.354 6.18336 2.06164 0
M  V30 8071 N 756.787 0.722489 1.40064 0
M  V30 8072 C 757.734 0.0743738 2.3068 0
M  V30 8073 C 758.704 -0.743004 1.48555 0
M  V30 8074 O 759.889 -0.705536 1.77276 0
M  V30 8075 C 757.029 -0.836292 3.34814 0
M  V30 8076 C 756.142 -0.00764663 4.31999 0
M  V30 8077 C 755.277 -0.918428 5.232 0
M  V30 8078 C 754.316 -0.0842838 6.12042 0
M  V30 8079 N 753.453 -0.950316 6.95639 0
M  V30 8080 H 758.293 0.852794 2.85537 0
M  V30 8081 H 755.83 0.432222 1.40607 0
M  V30 8082 H 757.788 -1.3786 3.93765 0
M  V30 8083 H 756.418 -1.58082 2.81443 0
M  V30 8084 H 755.47 0.651928 3.74772 0
M  V30 8085 H 756.782 0.63786 4.94705 0
M  V30 8086 H 755.936 -1.52902 5.87116 0
M  V30 8087 H 754.675 -1.59774 4.60786 0
M  V30 8088 H 753.68 0.5392 5.4715 0
M  V30 8089 H 754.905 0.591628 6.76518 0
M  V30 8090 H 752.851 -1.61515 6.35806 0
M  V30 8091 H 752.768 -0.361004 7.55138 0
M  V30 8092 H 754.036 -1.54687 7.63997 0
M  V30 8093 N 758.265 -1.50454 0.469181 0
M  V30 8094 C 759.195 -2.31353 -0.31592 0
M  V30 8095 C 760.176 -1.38172 -0.992094 0
M  V30 8096 O 761.361 -1.67093 -0.989633 0
M  V30 8097 C 758.491 -3.1786 -1.39937 0
M  V30 8098 C 757.445 -4.19578 -0.844909 0
M  V30 8099 C 756.771 -4.9481 -2.0265 0
M  V30 8100 C 758.071 -5.22106 0.142499 0
M  V30 8101 H 759.765 -2.97237 0.359269 0
M  V30 8102 H 757.311 -1.42942 0.174224 0
M  V30 8103 H 759.264 -3.7325 -1.95607 0
M  V30 8104 H 757.988 -2.49858 -2.1033 0
M  V30 8105 H 756.647 -3.65285 -0.310189 0
M  V30 8106 H 756.295 -4.23282 -2.71737 0
M  V30 8107 H 755.995 -5.63613 -1.66174 0
M  V30 8108 H 757.519 -5.53035 -2.58815 0
M  V30 8109 H 758.933 -5.72378 -0.324966 0
M  V30 8110 H 757.33 -5.98618 0.421441 0
M  V30 8111 H 758.4 -4.7297 1.06901 0
M  V30 8112 N 759.743 -0.201713 -1.56304 0
M  V30 8113 C 760.653 0.728296 -2.23009 0
M  V30 8114 C 761.669 1.22945 -1.23128 0
M  V30 8115 O 762.845 1.27523 -1.55884 0
M  V30 8116 C 759.91 1.92792 -2.88153 0
M  V30 8117 C 758.971 1.47068 -4.03323 0
M  V30 8118 C 758.204 2.61312 -4.65351 0
M  V30 8119 O 758.427 3.7896 -4.26317 0
M  V30 8120 O 757.361 2.33646 -5.54701 0
M  V30 8121 H 761.187 0.190166 -3.03104 0
M  V30 8122 H 758.772 0.0278725 -1.49374 0
M  V30 8123 H 760.654 2.6289 -3.29343 0
M  V30 8124 H 759.329 2.45452 -2.11033 0
M  V30 8125 H 758.236 0.738299 -3.66742 0
M  V30 8126 H 759.569 0.990666 -4.82127 0
M  V30 8127 N 761.222 1.57436 0.0718424 0
M  V30 8128 C 762.471 1.86431 0.769826 0
M  V30 8129 C 762.784 0.794355 1.78744 0
M  V30 8130 O 763.99 0.972148 2.53499 0
M  V30 8131 C 762.446 3.307 1.42006 0
M  V30 8132 C 762.054 4.45824 0.441017 0
M  V30 8133 C 763.798 3.68894 2.10041 0
M  V30 8134 C 761.705 5.81134 1.09717 0
M  V30 8135 H 760.635 0.695474 0.291259 0
M  V30 8136 H 763.286 1.83485 0.0231224 0
M  V30 8137 H 761.668 3.28257 2.21502 0
M  V30 8138 H 762.842 4.59659 -0.32413 0
M  V30 8139 H 761.157 4.16181 -0.134886 0
M  V30 8140 H 763.754 4.67281 2.59908 0
M  V30 8141 H 764.097 2.98692 2.89981 0
M  V30 8142 H 764.63 3.73326 1.37376 0
M  V30 8143 H 761.369 6.54628 0.338095 0
M  V30 8144 H 760.889 5.711 1.83317 0
M  V30 8145 H 762.568 6.26468 1.617 0
M  V30 8146 N 762.7 -0.34323 1.53817 0
M  V30 8147 C 763.633 -1.44472 1.76644 0
M  V30 8148 C 764.611 -1.50498 0.615556 0
M  V30 8149 O 765.795 -1.6821 0.850751 0
M  V30 8150 C 762.922 -2.82705 1.86536 0
M  V30 8151 C 761.968 -2.94302 3.08688 0
M  V30 8152 S 762.801 -2.60739 4.67735 0
M  V30 8153 C 763.957 -4.01079 4.80506 0
M  V30 8154 H 764.19 -1.24893 2.69794 0
M  V30 8155 H 761.723 -0.538915 1.4469 0
M  V30 8156 H 763.681 -3.62342 1.92921 0
M  V30 8157 H 762.342 -2.9958 0.943975 0
M  V30 8158 H 761.535 -3.95593 3.12286 0
M  V30 8159 H 761.137 -2.22614 3.00531 0
M  V30 8160 H 763.429 -4.95603 4.61935 0
M  V30 8161 H 764.372 -4.02475 5.82597 0
M  V30 8162 H 764.78 -3.89119 4.08958 0
M  V30 8163 N 764.178 -1.45556 -0.604258 0
M  V30 8164 C 765.594 -1.30035 -0.925368 0
M  V30 8165 C 765.794 -0.255833 -1.99869 0
M  V30 8166 O 764.85 0.349076 -2.50075 0
M  V30 8167 C 766.163 -2.68028 -1.36314 0
M  V30 8168 C 767.711 -2.75951 -1.47717 0
M  V30 8169 C 768.186 -4.14476 -1.94868 0
M  V30 8170 N 769.677 -4.16787 -2.02097 0
M  V30 8171 C 770.412 -5.20845 -2.39809 0
M  V30 8172 N 769.908 -6.35246 -2.76467 0
M  V30 8173 N 771.701 -5.08204 -2.40177 0
M  V30 8174 H 763.852 -2.1214 0.10512 0
M  V30 8175 H 766.115 -0.947871 -0.0156303 0
M  V30 8176 H 765.821 -3.45667 -0.648628 0
M  V30 8177 H 765.695 -2.96711 -2.329 0
M  V30 8178 H 768.082 -1.98613 -2.18258 0
M  V30 8179 H 768.163 -2.50977 -0.494371 0
M  V30 8180 H 767.807 -4.923 -1.24912 0
M  V30 8181 H 767.737 -4.36843 -2.94068 0
M  V30 8182 H 770.228 -3.34233 -1.76343 0
M  V30 8183 H 770.541 -7.10438 -3.04134 0
M  V30 8184 H 768.886 -6.38642 -2.74155 0
M  V30 8185 H 772.077 -4.17874 -2.10947 0
M  V30 8186 H 772.25 -5.89417 -2.69242 0
M  V30 8187 N 765.656 0.84705 -1.32902 0
M  V30 8188 C 766.588 1.96308 -1.18304 0
M  V30 8189 C 767.601 1.62386 -0.116082 0
M  V30 8190 O 768.79 1.74713 -0.365751 0
M  V30 8191 C 765.89 3.29556 -0.790305 0
M  V30 8192 C 765.063 3.91668 -1.94717 0
M  V30 8193 C 764.122 5.0326 -1.53674 0
M  V30 8194 O 763.148 5.22847 -2.24989 0
M  V30 8195 N 764.35 5.78852 -0.437075 0
M  V30 8196 H 767.115 2.09369 -2.14441 0
M  V30 8197 H 764.676 1.02233 -1.25539 0
M  V30 8198 H 766.668 4.01624 -0.49799 0
M  V30 8199 H 765.238 3.12497 0.0801286 0
M  V30 8200 H 764.458 3.12292 -2.40557 0
M  V30 8201 H 765.746 4.299 -2.72146 0
M  V30 8202 H 765.144 5.65484 0.156316 0
M  V30 8203 H 763.701 6.51479 -0.204399 0
M  V30 8204 N 767.134 1.16236 1.06428 0
M  V30 8205 C 768.081 0.86769 2.13869 0
M  V30 8206 C 769.051 -0.183298 1.65086 0
M  V30 8207 O 770.236 -0.0488002 1.90738 0
M  V30 8208 C 767.376 0.373427 3.43074 0
M  V30 8209 C 766.489 1.48708 4.05598 0
M  V30 8210 C 765.624 0.947977 5.22673 0
M  V30 8211 C 764.663 2.03793 5.77178 0
M  V30 8212 N 763.8 1.51451 6.85571 0
M  V30 8213 H 768.64 1.78781 2.38414 0
M  V30 8214 H 766.177 0.891892 1.16977 0
M  V30 8215 H 768.135 0.0685035 4.17144 0
M  V30 8216 H 766.765 -0.509752 3.1875 0
M  V30 8217 H 765.817 1.908 3.29089 0
M  V30 8218 H 767.129 2.30964 4.42105 0
M  V30 8219 H 766.283 0.596154 6.03764 0
M  V30 8220 H 765.022 0.0947081 4.87608 0
M  V30 8221 H 764.027 2.39847 4.94726 0
M  V30 8222 H 765.252 2.89514 6.14295 0
M  V30 8223 H 763.198 0.683755 6.52427 0
M  V30 8224 H 763.115 2.27325 7.21013 0
M  V30 8225 H 764.383 1.19123 7.70344 0
M  V30 8226 N 768.612 -1.24939 0.960631 0
M  V30 8227 C 769.559 -2.25658 0.484459 0
M  V30 8228 C 770.529 -1.59422 -0.466242 0
M  V30 8229 O 771.714 -1.87015 -0.378169 0
M  V30 8230 C 768.854 -3.44359 -0.225958 0
M  V30 8231 C 767.967 -4.25214 0.762682 0
M  V30 8232 C 767.102 -5.31192 0.0290931 0
M  V30 8233 C 766.141 -6.03739 1.00827 0
M  V30 8234 N 765.278 -7.01437 0.305155 0
M  V30 8235 H 770.118 -2.65758 1.34821 0
M  V30 8236 H 767.655 -1.30648 0.675983 0
M  V30 8237 H 769.613 -4.12035 -0.654472 0
M  V30 8238 H 768.243 -3.05118 -1.05371 0
M  V30 8239 H 767.295 -3.57144 1.30966 0
M  V30 8240 H 768.607 -4.75406 1.50964 0
M  V30 8241 H 767.761 -6.04971 -0.457763 0
M  V30 8242 H 766.5 -4.81889 -0.750614 0
M  V30 8243 H 765.505 -5.2877 1.50607 0
M  V30 8244 H 766.73 -6.55131 1.7883 0
M  V30 8245 H 764.676 -6.54415 -0.455704 0
M  V30 8246 H 764.593 -7.49475 0.991104 0
M  V30 8247 H 765.861 -7.79336 -0.159966 0
M  V30 8248 N 770.09 -0.729906 -1.39679 0
M  V30 8249 C 771.022 -0.0470588 -2.29152 0
M  V30 8250 C 772.035 0.708808 -1.4656 0
M  V30 8251 O 773.224 0.553815 -1.69691 0
M  V30 8252 C 770.324 0.957612 -3.25089 0
M  V30 8253 C 769.497 0.264321 -4.36601 0
M  V30 8254 C 768.556 1.17638 -5.12882 0
M  V30 8255 O 767.582 0.655777 -5.6541 0
M  V30 8256 N 768.784 2.50649 -5.23598 0
M  V30 8257 H 771.549 -0.815364 -2.88395 0
M  V30 8258 H 769.11 -0.578707 -1.51204 0
M  V30 8259 H 771.102 1.57026 -3.72995 0
M  V30 8260 H 769.672 1.62716 -2.66912 0
M  V30 8261 H 768.892 -0.528732 -3.90638 0
M  V30 8262 H 770.18 -0.216344 -5.0834 0
M  V30 8263 H 769.578 2.95427 -4.82431 0
M  V30 8264 H 768.135 3.07022 -5.74961 0
M  V30 8265 N 771.568 1.50203 -0.477153 0
M  V30 8266 C 772.478 2.32421 0.319027 0
M  V30 8267 C 773.494 1.43075 0.990233 0
M  V30 8268 O 774.67 1.76123 0.976873 0
M  V30 8269 C 771.735 3.17909 1.38328 0
M  V30 8270 C 770.796 4.23082 0.728036 0
M  V30 8271 C 770.029 5.04484 1.74158 0
M  V30 8272 O 770.252 4.8705 2.96881 0
M  V30 8273 O 769.186 5.8747 1.31006 0
M  V30 8274 H 773.012 3.01638 -0.353281 0
M  V30 8275 H 770.597 1.47478 -0.238891 0
M  V30 8276 H 772.479 3.70937 1.9996 0
M  V30 8277 H 771.154 2.51413 2.03895 0
M  V30 8278 H 770.061 3.7403 0.07261 0
M  V30 8279 H 771.394 4.92065 0.115216 0
M  V30 8280 N 773.046 0.209999 1.56195 0
M  V30 8281 C 774.276 -0.429373 2.02089 0
M  V30 8282 C 774.684 -1.54703 1.0892 0
M  V30 8283 O 774.027 -1.83485 0.0889535 0
M  V30 8284 C 774.089 -1.03266 3.44349 0
M  V30 8285 C 773.753 -0.0518873 4.56971 0
M  V30 8286 C 774.75 0.744249 5.14545 0
M  V30 8287 C 772.435 0.0635185 5.0226 0
M  V30 8288 C 774.429 1.64261 6.15871 0
M  V30 8289 C 772.116 0.965423 6.03426 0
M  V30 8290 C 773.114 1.75352 6.60106 0
M  V30 8291 O 772.802 2.64029 7.59305 0
M  V30 8292 H 772.534 -0.110604 0.66689 0
M  V30 8293 H 775.088 0.320436 2.02885 0
M  V30 8294 H 773.318 -1.83134 3.40586 0
M  V30 8295 H 775.007 -1.57823 3.73961 0
M  V30 8296 H 775.773 0.665476 4.80413 0
M  V30 8297 H 771.652 -0.539762 4.57829 0
M  V30 8298 H 775.196 2.25819 6.60039 0
M  V30 8299 H 771.093 1.04526 6.36981 0
M  V30 8300 H 771.861 2.57974 7.76783 0
M  V30 8301 N 774.524 -1.57472 -0.0634922 0
M  V30 8302 C 775.454 -2.07297 -1.07473 0
M  V30 8303 C 776.435 -0.968162 -1.39859 0
M  V30 8304 O 777.62 -1.24139 -1.49343 0
M  V30 8305 C 774.75 -2.52381 -2.38581 0
M  V30 8306 C 773.704 -3.66813 -2.20526 0
M  V30 8307 C 773.03 -3.97982 -3.57092 0
M  V30 8308 C 774.33 -4.96553 -1.61965 0
M  V30 8309 H 776.024 -2.92033 -0.660092 0
M  V30 8310 H 773.57 -1.40488 -0.316074 0
M  V30 8311 H 775.523 -2.85852 -3.09624 0
M  V30 8312 H 774.247 -1.64684 -2.8204 0
M  V30 8313 H 772.906 -3.33639 -1.51924 0
M  V30 8314 H 772.554 -3.07403 -3.98136 0
M  V30 8315 H 772.254 -4.7504 -3.45848 0
M  V30 8316 H 773.778 -4.33956 -4.29552 0
M  V30 8317 H 775.192 -5.28201 -2.22883 0
M  V30 8318 H 773.589 -5.7799 -1.61394 0
M  V30 8319 H 774.659 -4.81396 -0.581918 0
M  V30 8320 N 776.003 0.335068 -1.53997 0
M  V30 8321 C 776.913 1.43511 -1.85585 0
M  V30 8322 C 777.929 1.57162 -0.746726 0
M  V30 8323 O 779.105 1.72477 -1.03988 0
M  V30 8324 C 776.17 2.78386 -2.06646 0
M  V30 8325 C 775.231 2.74007 -3.30483 0
M  V30 8326 C 774.464 4.02449 -3.50529 0
M  V30 8327 O 774.687 5.00147 -2.74242 0
M  V30 8328 O 773.621 4.06405 -4.4398 0
M  V30 8329 H 777.447 1.19731 -2.79102 0
M  V30 8330 H 775.032 0.528033 -1.39758 0
M  V30 8331 H 776.914 3.58247 -2.21894 0
M  V30 8332 H 775.589 3.0208 -1.16317 0
M  V30 8333 H 774.496 1.92736 -3.2063 0
M  V30 8334 H 775.829 2.55267 -4.20832 0
M  V30 8335 N 777.481 1.45874 0.596531 0
M  V30 8336 C 778.727 1.5069 1.35722 0
M  V30 8337 C 779.06 0.152506 1.936 0
M  V30 8338 O 778.335 -0.834411 1.75692 0
M  V30 8339 C 778.618 2.59474 2.4969 0
M  V30 8340 C 778.471 4.04396 1.96937 0
M  V30 8341 C 779.79 2.64451 3.51787 0
M  V30 8342 H 776.909 0.548611 0.492133 0
M  V30 8343 H 779.551 1.77741 0.671428 0
M  V30 8344 H 777.701 2.36539 3.08191 0
M  V30 8345 H 779.373 4.38576 1.43 0
M  V30 8346 H 777.616 4.14529 1.27859 0
M  V30 8347 H 778.287 4.76218 2.79143 0
M  V30 8348 H 780.763 2.85031 3.03145 0
M  V30 8349 H 779.639 3.42411 4.29006 0
M  V30 8350 H 779.9 1.69965 4.08123 0
M  V30 8351 N 778.959 -0.83999 1.33349 0
M  V30 8352 C 779.891 -1.95678 1.19344 0
M  V30 8353 C 780.904 -1.62322 0.124692 0
M  V30 8354 O 782.093 -1.74516 0.375012 0
M  V30 8355 C 779.193 -3.29133 0.807771 0
M  V30 8356 C 778.366 -3.9063 1.96792 0
M  V30 8357 C 777.425 -5.02438 1.56341 0
M  V30 8358 O 776.451 -5.21646 2.27759 0
M  V30 8359 N 777.653 -5.78612 0.467767 0
M  V30 8360 H 780.418 -2.08229 2.15548 0
M  V30 8361 H 777.979 -1.01566 1.26079 0
M  V30 8362 H 779.971 -4.01355 0.519282 0
M  V30 8363 H 778.541 -3.12535 -0.063555 0
M  V30 8364 H 777.761 -3.11011 2.4221 0
M  V30 8365 H 779.049 -4.2845 2.74422 0
M  V30 8366 H 778.447 -5.65559 -0.126324 0
M  V30 8367 H 777.004 -6.51362 0.238945 0
M  V30 8368 N 780.437 -1.16799 -1.0581 0
M  V30 8369 C 781.853 -0.913935 -1.30841 0
M  V30 8370 C 782.053 0.430439 -1.96849 0
M  V30 8371 O 781.109 1.16885 -2.23817 0
M  V30 8372 C 782.422 -2.06662 -2.18429 0
M  V30 8373 C 783.97 -2.10294 -2.31831 0
M  V30 8374 C 784.445 -3.2493 -3.22776 0
M  V30 8375 N 785.936 -3.24678 -3.30361 0
M  V30 8376 C 786.671 -4.10021 -4.00837 0
M  V30 8377 N 786.167 -5.05461 -4.73795 0
M  V30 8378 N 787.96 -3.97991 -3.96937 0
M  V30 8379 H 780.111 -2.03343 -0.613613 0
M  V30 8380 H 782.374 -0.88754 -0.333133 0
M  V30 8381 H 782.08 -3.03791 -1.77211 0
M  V30 8382 H 781.954 -2.01233 -3.19038 0
M  V30 8383 H 784.341 -1.13754 -2.72294 0
M  V30 8384 H 784.422 -2.19786 -1.30873 0
M  V30 8385 H 784.066 -4.21731 -2.83028 0
M  V30 8386 H 783.996 -3.12674 -4.23725 0
M  V30 8387 H 786.487 -2.55573 -2.78372 0
M  V30 8388 H 786.8 -5.66989 -5.25113 0
M  V30 8389 H 785.145 -5.09436 -4.72758 0
M  V30 8390 H 788.336 -3.2273 -3.39062 0
M  V30 8391 H 788.509 -4.64722 -4.51594 0
M  V30 8392 N 781.915 1.24427 -0.967243 0
M  V30 8393 C 782.847 2.24641 -0.454856 0
M  V30 8394 C 783.86 1.56849 0.436152 0
M  V30 8395 O 785.049 1.76846 0.242401 0
M  V30 8396 C 782.149 3.36954 0.362672 0
M  V30 8397 C 781.322 4.34318 -0.518324 0
M  V30 8398 C 780.381 5.25638 0.243122 0
M  V30 8399 O 779.407 5.68043 -0.362791 0
M  V30 8400 N 780.609 5.59897 1.53282 0
M  V30 8401 H 783.374 2.69238 -1.31648 0
M  V30 8402 H 780.935 1.38464 -0.839015 0
M  V30 8403 H 782.927 3.95014 0.880094 0
M  V30 8404 H 781.497 2.91646 1.12522 0
M  V30 8405 H 780.717 3.74953 -1.21672 0
M  V30 8406 H 782.005 4.96338 -1.11919 0
M  V30 8407 H 781.403 5.27373 2.04682 0
M  V30 8408 H 779.96 6.20488 1.99594 0
M  V30 8409 N 783.393 0.737304 1.3929 0
M  V30 8410 C 784.323 0.113988 2.33222 0
M  V30 8411 C 785.304 -0.721695 1.54031 0
M  V30 8412 O 786.489 -0.666206 1.82415 0
M  V30 8413 C 783.619 -0.792319 3.38141 0
M  V30 8414 C 782.573 -0.0606178 4.27957 0
M  V30 8415 C 781.899 -1.08409 5.23595 0
M  V30 8416 C 783.199 1.09817 5.10625 0
M  V30 8417 H 784.893 0.898611 2.85596 0
M  V30 8418 H 782.439 0.433571 1.37318 0
M  V30 8419 H 784.392 -1.23793 4.02807 0
M  V30 8420 H 783.116 -1.60908 2.84211 0
M  V30 8421 H 781.775 0.365393 3.64775 0
M  V30 8422 H 781.423 -1.89449 4.6596 0
M  V30 8423 H 781.123 -0.599269 5.84536 0
M  V30 8424 H 782.647 -1.52936 5.91137 0
M  V30 8425 H 784.061 0.730892 5.68622 0
M  V30 8426 H 782.458 1.51278 5.80719 0
M  V30 8427 H 783.528 1.91878 4.45321 0
M  V30 8428 N 784.871 -1.49948 0.485112 0
M  V30 8429 C 785.834 -2.27351 -0.290546 0
M  V30 8430 C 786.834 -1.32704 -0.908087 0
M  V30 8431 O 788.024 -1.56007 -0.775085 0
M  V30 8432 C 785.156 -3.10135 -1.41524 0
M  V30 8433 H 786.349 -2.97374 0.388454 0
M  V30 8434 H 783.902 -1.54453 0.239586 0
M  V30 8435 H 784.637 -2.44641 -2.12888 0
M  V30 8436 H 784.422 -3.79705 -0.978074 0
M  V30 8437 H 785.912 -3.68638 -1.96204 0
M  V30 8438 N 786.349 -0.21828 -1.56081 0
M  V30 8439 C 787.598 0.414644 -1.97392 0
M  V30 8440 C 787.911 1.61132 -1.10887 0
M  V30 8441 O 789.117 2.31355 -1.42082 0
M  V30 8442 C 787.573 0.789099 -3.51143 0
M  V30 8443 C 787.181 -0.384578 -4.46346 0
M  V30 8444 C 788.925 1.38781 -4.01173 0
M  V30 8445 C 786.832 0.0121288 -5.91399 0
M  V30 8446 H 785.762 0.158691 -0.737111 0
M  V30 8447 H 788.413 -0.313974 -1.80794 0
M  V30 8448 H 786.795 1.57505 -3.6333 0
M  V30 8449 H 787.969 -1.16212 -4.45905 0
M  V30 8450 H 786.284 -0.896306 -4.06639 0
M  V30 8451 H 788.881 1.69746 -5.07041 0
M  V30 8452 H 789.224 2.30245 -3.46833 0
M  V30 8453 H 789.757 0.665364 -3.92196 0
M  V30 8454 H 786.496 -0.868917 -6.49715 0
M  V30 8455 H 786.016 0.754053 -5.95041 0
M  V30 8456 H 787.695 0.439949 -6.45502 0
M  V30 8457 N 787.827 1.57504 0.0551401 0
M  V30 8458 C 788.759 2.0158 1.09078 0
M  V30 8459 C 789.772 0.92434 1.34014 0
M  V30 8460 O 790.961 1.20202 1.31961 0
M  V30 8461 C 788.061 2.35385 2.43818 0
M  V30 8462 C 787.234 3.66588 2.38605 0
M  V30 8463 C 786.293 3.87874 3.55585 0
M  V30 8464 O 785.319 4.59259 3.36258 0
M  V30 8465 N 786.521 3.31503 4.76536 0
M  V30 8466 H 789.286 2.91039 0.71529 0
M  V30 8467 H 786.847 1.60058 0.243532 0
M  V30 8468 H 788.839 2.46784 3.20749 0
M  V30 8469 H 787.409 1.51731 2.73307 0
M  V30 8470 H 786.629 3.65787 1.46947 0
M  V30 8471 H 787.917 4.52706 2.32239 0
M  V30 8472 H 787.315 2.73592 4.9514 0
M  V30 8473 H 785.872 3.48324 5.50921 0
M  V30 8474 N 789.305 -0.326896 1.54172 0
M  V30 8475 C 790.721 -0.671034 1.44808 0
M  V30 8476 C 790.921 -1.91781 0.618258 0
M  V30 8477 O 789.977 -2.52235 0.115751 0
M  V30 8478 C 791.29 -0.848147 2.88491 0
M  V30 8479 C 792.838 -0.945702 2.98371 0
M  V30 8480 C 793.313 -1.15501 4.43197 0
M  V30 8481 N 794.804 -1.22183 4.46795 0
M  V30 8482 C 795.539 -1.4016 5.56006 0
M  V30 8483 N 795.035 -1.55202 6.75192 0
M  V30 8484 N 796.828 -1.42841 5.43648 0
M  V30 8485 H 788.979 0.49262 2.06608 0
M  V30 8486 H 791.242 0.158574 0.934643 0
M  V30 8487 H 790.948 -0.00329969 3.517 0
M  V30 8488 H 790.822 -1.74497 3.34411 0
M  V30 8489 H 793.209 -1.78106 2.35292 0
M  V30 8490 H 793.29 -0.0254215 2.55787 0
M  V30 8491 H 792.934 -0.324521 5.06862 0
M  V30 8492 H 792.864 -2.08911 4.83388 0
M  V30 8493 H 795.355 -1.12016 3.60917 0
M  V30 8494 H 795.668 -1.68601 7.54184 0
M  V30 8495 H 794.013 -1.52306 6.78106 0
M  V30 8496 H 797.204 -1.30683 4.49488 0
M  V30 8497 H 797.377 -1.56509 6.28816 0
M  V30 8498 N 790.784 -1.46188 -0.588786 0
M  V30 8499 C 791.714 -1.59148 -1.70863 0
M  V30 8500 C 792.695 -0.442083 -1.64255 0
M  V30 8501 O 793.88 -0.667575 -1.82365 0
M  V30 8502 C 791.01 -1.5757 -3.09498 0
M  V30 8503 C 789.964 -2.71418 -3.30932 0
M  V30 8504 C 789.29 -2.549 -4.70032 0
M  V30 8505 C 790.59 -4.1329 -3.19356 0
M  V30 8506 H 792.284 -2.52889 -1.60274 0
M  V30 8507 H 789.83 -1.21707 -0.769638 0
M  V30 8508 H 791.783 -1.65231 -3.87655 0
M  V30 8509 H 790.507 -0.603705 -3.20972 0
M  V30 8510 H 789.166 -2.63216 -2.55172 0
M  V30 8511 H 788.814 -1.55797 -4.78264 0
M  V30 8512 H 788.514 -3.31257 -4.85327 0
M  V30 8513 H 790.038 -2.64443 -5.50366 0
M  V30 8514 H 791.452 -4.22636 -3.87365 0
M  V30 8515 H 789.849 -4.90187 -3.46175 0
M  V30 8516 H 790.919 -4.33874 -2.16522 0
M  V30 8517 N 792.262 0.832906 -1.33792 0
M  V30 8518 C 793.194 1.95042 -1.2038 0
M  V30 8519 C 794.207 1.62253 -0.133299 0
M  V30 8520 O 795.396 1.74315 -0.384261 0
M  V30 8521 C 792.496 3.287 -0.825215 0
M  V30 8522 C 791.669 3.89581 -1.98861 0
M  V30 8523 C 790.728 5.01602 -1.59003 0
M  V30 8524 O 789.754 5.20431 -2.30522 0
M  V30 8525 N 790.956 5.78356 -0.498446 0
M  V30 8526 H 793.721 2.07083 -2.16649 0
M  V30 8527 H 791.282 1.00896 -1.26616 0
M  V30 8528 H 793.274 4.01074 -0.540559 0
M  V30 8529 H 791.844 3.12565 0.0469796 0
M  V30 8530 H 791.064 3.09723 -2.43856 0
M  V30 8531 H 792.352 4.26989 -2.76691 0
M  V30 8532 H 791.75 5.65618 0.0963297 0
M  V30 8533 H 790.307 6.51226 -0.273485 0
M  V30 8534 N 793.74 1.17359 1.05189 0
M  V30 8535 C 794.65 0.904984 2.16442 0
M  V30 8536 C 795.666 -0.12686 1.73537 0
M  V30 8537 O 796.842 0.0524127 2.01332 0
M  V30 8538 C 793.907 0.422019 3.44122 0
M  V30 8539 C 792.968 1.52045 4.01473 0
M  V30 8540 C 792.201 1.06044 5.23059 0
M  V30 8541 O 792.424 -0.0854023 5.70336 0
M  V30 8542 O 791.358 1.85349 5.72651 0
M  V30 8543 H 795.184 1.8356 2.41949 0
M  V30 8544 H 792.769 0.95447 1.14936 0
M  V30 8545 H 794.651 0.160208 4.21095 0
M  V30 8546 H 793.326 -0.480444 3.20115 0
M  V30 8547 H 792.233 1.83615 3.25939 0
M  V30 8548 H 793.566 2.39863 4.29798 0
M  V30 8549 N 795.218 -1.23913 0.973828 0
M  V30 8550 C 796.15 -2.24397 0.466763 0
M  V30 8551 C 797.163 -1.57078 -0.427828 0
M  V30 8552 O 798.352 -1.76973 -0.233019 0
M  V30 8553 C 795.452 -3.37141 -0.344798 0
M  V30 8554 C 794.625 -4.34037 0.541349 0
M  V30 8555 C 793.684 -5.2576 -0.215243 0
M  V30 8556 O 792.71 -5.67842 0.39291 0
M  V30 8557 N 793.912 -5.60702 -1.5031 0
M  V30 8558 H 796.677 -2.68536 1.33074 0
M  V30 8559 H 794.238 -1.38017 0.846346 0
M  V30 8560 H 796.23 -3.95476 -0.859133 0
M  V30 8561 H 794.8 -2.92239 -1.10974 0
M  V30 8562 H 794.02 -3.74302 1.23659 0
M  V30 8563 H 795.308 -4.95738 1.1455 0
M  V30 8564 H 794.706 -5.28451 -2.01882 0
M  V30 8565 H 793.263 -6.21538 -1.96301 0
M  V30 8566 N 796.696 -0.74468 -1.38897 0
M  V30 8567 C 797.606 -0.112892 -2.34328 0
M  V30 8568 C 798.622 0.71087 -1.58816 0
M  V30 8569 O 799.798 0.637092 -1.91058 0
M  V30 8570 C 796.863 0.776417 -3.37894 0
M  V30 8571 C 795.924 -0.0606999 -4.29257 0
M  V30 8572 C 795.157 0.786258 -5.27877 0
M  V30 8573 O 795.38 2.02463 -5.33259 0
M  V30 8574 O 794.314 0.209781 -6.01534 0
M  V30 8575 H 798.14 -0.900801 -2.90033 0
M  V30 8576 H 795.725 -0.505462 -1.4059 0
M  V30 8577 H 797.607 1.28496 -4.01331 0
M  V30 8578 H 796.282 1.54297 -2.84559 0
M  V30 8579 H 795.189 -0.614984 -3.69011 0
M  V30 8580 H 796.522 -0.789702 -4.85824 0
M  V30 8581 N 798.174 1.49689 -0.493057 0
M  V30 8582 C 799.121 2.28976 0.28959 0
M  V30 8583 C 800.091 1.35011 0.967536 0
M  V30 8584 O 801.276 1.63964 0.975736 0
M  V30 8585 C 798.416 3.1748 1.35279 0
M  V30 8586 C 797.529 4.26496 0.687418 0
M  V30 8587 C 796.664 5.02226 1.73038 0
M  V30 8588 C 795.703 6.03089 1.04645 0
M  V30 8589 N 794.84 6.72014 2.03325 0
M  V30 8590 H 799.68 2.954 -0.392798 0
M  V30 8591 H 797.217 1.45657 -0.205554 0
M  V30 8592 H 799.175 3.67162 1.98111 0
M  V30 8593 H 797.805 2.53057 2.00405 0
M  V30 8594 H 796.857 3.80362 -0.0540001 0
M  V30 8595 H 798.169 4.98578 0.14864 0
M  V30 8596 H 797.323 5.55737 2.43395 0
M  V30 8597 H 796.062 4.29899 2.303 0
M  V30 8598 H 795.067 5.48817 0.328606 0
M  V30 8599 H 796.292 6.77398 0.480428 0
M  V30 8600 H 794.238 6.02464 2.59564 0
M  V30 8601 H 794.155 7.40046 1.54492 0
M  V30 8602 H 795.423 7.30133 2.72995 0
M  V30 8603 N 799.652 0.226554 1.55963 0
M  V30 8604 C 800.562 -0.692725 2.24139 0
M  V30 8605 C 801.578 -1.20971 1.25068 0
M  V30 8606 O 802.754 -1.25027 1.57893 0
M  V30 8607 C 799.819 -1.88183 2.91184 0
M  V30 8608 C 798.88 -1.40633 4.05612 0
M  V30 8609 C 798.113 -2.53875 4.6945 0
M  V30 8610 O 798.336 -3.72129 4.32292 0
M  V30 8611 O 797.27 -2.24792 5.58348 0
M  V30 8612 H 801.096 -0.141921 3.03368 0
M  V30 8613 H 798.681 -0.0041049 1.49399 0
M  V30 8614 H 800.563 -2.57617 3.33484 0
M  V30 8615 H 799.238 -2.42064 2.14911 0
M  V30 8616 H 798.145 -0.67986 3.67871 0
M  V30 8617 H 799.478 -0.913838 4.83642 0
M  V30 8618 N 801.13 -1.57531 -0.0467866 0
M  V30 8619 C 802.546 -1.54451 -0.402107 0
M  V30 8620 C 802.746 -0.950275 -1.77685 0
M  V30 8621 O 801.802 -0.563602 -2.4613 0
M  V30 8622 C 803.115 -2.9899 -0.320212 0
M  V30 8623 C 804.663 -3.10452 -0.398588 0
M  V30 8624 C 805.138 -4.56689 -0.346335 0
M  V30 8625 N 806.629 -4.6142 -0.405666 0
M  V30 8626 C 807.364 -5.72087 -0.387845 0
M  V30 8627 N 806.86 -6.92045 -0.32336 0
M  V30 8628 N 808.653 -5.60404 -0.436263 0
M  V30 8629 H 800.804 -1.94515 0.853087 0
M  V30 8630 H 803.067 -0.891397 0.322669 0
M  V30 8631 H 802.773 -3.46124 0.623794 0
M  V30 8632 H 802.647 -3.60164 -1.1208 0
M  V30 8633 H 805.034 -2.63276 -1.33302 0
M  V30 8634 H 805.115 -2.52142 0.431026 0
M  V30 8635 H 804.759 -5.04527 0.584356 0
M  V30 8636 H 804.689 -5.12889 -1.19382 0
M  V30 8637 H 807.18 -3.75105 -0.458737 0
M  V30 8638 H 807.493 -7.7216 -0.314375 0
M  V30 8639 H 805.838 -6.94396 -0.28967 0
M  V30 8640 H 809.029 -4.65586 -0.48451 0
M  V30 8641 H 809.202 -6.46645 -0.418907 0
M  V30 8642 N 802.608 0.318715 -1.54344 0
M  V30 8643 C 803.54 1.41364 -1.80413 0
M  V30 8644 C 804.553 1.47627 -0.686294 0
M  V30 8645 O 805.742 1.50264 -0.963486 0
M  V30 8646 C 802.842 2.79867 -1.91123 0
M  V30 8647 C 802.015 2.96749 -3.21339 0
M  V30 8648 C 801.074 4.15642 -3.22689 0
M  V30 8649 O 800.1 4.08571 -3.96306 0
M  V30 8650 N 801.302 5.25416 -2.46817 0
M  V30 8651 H 804.067 1.19363 -2.74905 0
M  V30 8652 H 801.628 0.508722 -1.537 0
M  V30 8653 H 803.62 3.57619 -1.89448 0
M  V30 8654 H 802.19 2.94896 -1.03706 0
M  V30 8655 H 801.41 2.06257 -3.35934 0
M  V30 8656 H 802.698 3.04927 -4.07304 0
M  V30 8657 H 802.096 5.34037 -1.86605 0
M  V30 8658 H 800.653 6.01569 -2.50915 0
M  V30 8659 N 804.086 1.46499 0.581025 0
M  V30 8660 C 805.019 1.51706 1.70472 0
M  V30 8661 C 805.997 0.371036 1.5831 0
M  V30 8662 O 807.181 0.575426 1.79502 0
M  V30 8663 C 804.308 1.3972 3.08538 0
M  V30 8664 C 803.354 2.58525 3.39215 0
M  V30 8665 S 804.187 4.20872 3.311 0
M  V30 8666 C 805.343 4.11398 4.71702 0
M  V30 8667 H 805.576 2.46777 1.65796 0
M  V30 8668 H 803.109 1.34405 0.759908 0
M  V30 8669 H 805.067 1.33492 3.88188 0
M  V30 8670 H 803.728 0.460742 3.10702 0
M  V30 8671 H 802.921 2.46137 4.3981 0
M  V30 8672 H 802.523 2.61752 2.67136 0
M  V30 8673 H 804.815 3.78182 5.62125 0
M  V30 8674 H 805.758 5.11997 4.89147 0
M  V30 8675 H 806.166 3.42624 4.48631 0
M  V30 8676 N 805.565 -0.825799 1.34232 0
M  V30 8677 C 806.981 -1.11848 1.13851 0
M  V30 8678 C 807.181 -2.01405 -0.0619031 0
M  V30 8679 O 806.237 -2.41465 -0.738287 0
M  V30 8680 C 807.55 -1.76797 2.43235 0
M  V30 8681 C 809.098 -1.89304 2.49265 0
M  V30 8682 C 809.573 -2.57669 3.78643 0
M  V30 8683 N 811.064 -2.65171 3.79788 0
M  V30 8684 C 811.799 -3.1879 4.76614 0
M  V30 8685 N 811.295 -3.72995 5.83821 0
M  V30 8686 N 813.088 -3.17164 4.64073 0
M  V30 8687 H 805.239 -0.230049 2.11151 0
M  V30 8688 H 807.502 -0.164609 0.9336 0
M  V30 8689 H 807.208 -1.18455 3.31152 0
M  V30 8690 H 807.082 -2.76693 2.56361 0
M  V30 8691 H 809.469 -2.46796 1.6179 0
M  V30 8692 H 809.55 -0.883191 2.4007 0
M  V30 8693 H 809.194 -2.00833 4.66507 0
M  V30 8694 H 809.124 -3.59152 3.8512 0
M  V30 8695 H 811.615 -2.26746 3.02315 0
M  V30 8696 H 811.928 -4.12151 6.53721 0
M  V30 8697 H 810.273 -3.71246 5.87538 0
M  V30 8698 H 813.464 -2.74082 3.79469 0
M  V30 8699 H 813.637 -3.58647 5.397 0
M  V30 8700 N 807.043 -1.17915 -1.04565 0
M  V30 8701 C 807.973 -0.925033 -2.14395 0
M  V30 8702 C 808.954 0.135375 -1.6956 0
M  V30 8703 O 810.139 -0.0161774 -1.94193 0
M  V30 8704 C 807.269 -0.444469 -3.44444 0
M  V30 8705 C 806.223 -1.44478 -4.02877 0
M  V30 8706 C 805.549 -0.821933 -5.28345 0
M  V30 8707 C 806.849 -2.81995 -4.39632 0
M  V30 8708 H 808.543 -1.84354 -2.35911 0
M  V30 8709 H 806.089 -0.887806 -1.13375 0
M  V30 8710 H 808.042 -0.254078 -4.20633 0
M  V30 8711 H 806.766 0.509592 -3.226 0
M  V30 8712 H 805.425 -1.62203 -3.28764 0
M  V30 8713 H 805.073 0.139161 -5.02807 0
M  V30 8714 H 804.773 -1.48976 -5.68401 0
M  V30 8715 H 806.297 -0.641959 -6.07216 0
M  V30 8716 H 807.711 -2.67952 -5.06828 0
M  V30 8717 H 806.108 -3.45414 -4.90723 0
M  V30 8718 H 807.178 -3.35927 -3.49687 0
M  V30 8719 N 808.521 1.23394 -0.980386 0
M  V30 8720 C 809.431 2.28561 -0.528864 0
M  V30 8721 C 810.447 1.68946 0.416329 0
M  V30 8722 O 811.623 1.99355 0.286251 0
M  V30 8723 C 808.688 3.46323 0.16155 0
M  V30 8724 C 807.749 4.21297 -0.825044 0
M  V30 8725 C 806.982 5.33437 -0.167483 0
M  V30 8726 O 807.205 5.60812 1.04146 0
M  V30 8727 O 806.139 5.95637 -0.866047 0
M  V30 8728 H 809.965 2.69326 -1.40346 0
M  V30 8729 H 807.55 1.29325 -0.748019 0
M  V30 8730 H 809.432 4.17811 0.548841 0
M  V30 8731 H 808.107 3.0751 1.01092 0
M  V30 8732 H 807.014 3.52134 -1.26303 0
M  V30 8733 H 808.347 4.6396 -1.64322 0
M  V30 8734 N 809.999 0.752036 1.385 0
M  V30 8735 C 810.931 0.0835089 2.29048 0
M  V30 8736 C 811.944 -0.685402 1.47669 0
M  V30 8737 O 813.133 -0.526748 1.70551 0
M  V30 8738 C 810.233 -0.905772 3.26572 0
M  V30 8739 C 809.406 -0.194828 4.36966 0
M  V30 8740 C 808.465 -1.09464 5.14688 0
M  V30 8741 O 807.491 -0.565743 5.66381 0
M  V30 8742 N 808.693 -2.42287 5.2752 0
M  V30 8743 H 811.458 0.861142 2.87062 0
M  V30 8744 H 809.019 0.602689 1.50264 0
M  V30 8745 H 811.011 -1.51072 3.75446 0
M  V30 8746 H 809.581 -1.58449 2.69467 0
M  V30 8747 H 808.801 0.590812 3.89747 0
M  V30 8748 H 810.089 0.297189 5.07931 0
M  V30 8749 H 809.487 -2.87715 4.8707 0
M  V30 8750 H 808.044 -2.97836 5.79773 0
M  V30 8751 N 811.477 -1.49425 0.500989 0
M  V30 8752 C 812.409 -2.27037 -0.314159 0
M  V30 8753 C 813.422 -1.33578 -0.930626 0
M  V30 8754 O 814.611 -1.58861 -0.813968 0
M  V30 8755 C 811.711 -3.05968 -1.45729 0
M  V30 8756 C 810.884 -4.27 -0.948135 0
M  V30 8757 C 809.943 -4.87977 -1.96888 0
M  V30 8758 O 808.969 -5.48044 -1.53743 0
M  V30 8759 N 810.171 -4.77627 -3.29928 0
M  V30 8760 H 812.936 -2.97634 0.351336 0
M  V30 8761 H 810.497 -1.58427 0.333536 0
M  V30 8762 H 812.489 -3.43634 -2.1377 0
M  V30 8763 H 811.059 -2.37978 -2.02695 0
M  V30 8764 H 810.279 -3.94091 -0.0926311 0
M  V30 8765 H 811.567 -5.0541 -0.586362 0
M  V30 8766 H 810.965 -4.29926 -3.67669 0
M  V30 8767 H 809.522 -5.19478 -3.93682 0
M  V30 8768 N 812.955 -0.234822 -1.55841 0
M  V30 8769 C 813.902 0.6698 -2.20867 0
M  V30 8770 C 814.872 1.18042 -1.16856 0
M  V30 8771 O 816.057 1.23709 -1.45261 0
M  V30 8772 C 813.197 1.86646 -2.90271 0
M  V30 8773 C 812.31 1.39351 -4.08908 0
M  V30 8774 C 811.445 2.54878 -4.66059 0
M  V30 8775 C 810.484 2.04384 -5.76969 0
M  V30 8776 N 809.621 3.13233 -6.28355 0
M  V30 8777 H 814.461 0.10858 -2.97802 0
M  V30 8778 H 811.998 0.041836 -1.4704 0
M  V30 8779 H 813.956 2.56926 -3.28702 0
M  V30 8780 H 812.586 2.40035 -2.15831 0
M  V30 8781 H 811.638 0.585173 -3.75872 0
M  V30 8782 H 812.95 0.983356 -4.89011 0
M  V30 8783 H 812.104 3.33219 -5.07001 0
M  V30 8784 H 810.843 2.99188 -3.85146 0
M  V30 8785 H 809.848 1.24509 -5.35516 0
M  V30 8786 H 811.073 1.61057 -6.59725 0
M  V30 8787 H 809.019 3.57 -5.50352 0
M  V30 8788 H 808.936 2.76511 -7.03618 0
M  V30 8789 H 810.204 3.91669 -6.73955 0
M  V30 8790 N 814.433 1.57553 0.0384317 0
M  V30 8791 C 815.365 2.02726 1.06934 0
M  V30 8792 C 816.378 0.938502 1.33026 0
M  V30 8793 O 817.567 1.21595 1.30678 0
M  V30 8794 C 814.667 2.37958 2.41308 0
M  V30 8795 C 813.84 3.69098 2.34703 0
M  V30 8796 C 812.899 3.91623 3.51451 0
M  V30 8797 O 811.925 4.628 3.31368 0
M  V30 8798 N 813.127 3.36538 4.72993 0
M  V30 8799 H 815.892 2.91781 0.684381 0
M  V30 8800 H 813.453 1.60307 0.226542 0
M  V30 8801 H 815.445 2.50172 3.18113 0
M  V30 8802 H 814.015 1.54621 2.71682 0
M  V30 8803 H 813.235 3.67325 1.43059 0
M  V30 8804 H 814.523 4.55144 2.27424 0
M  V30 8805 H 813.921 2.78828 4.92211 0
M  V30 8806 H 812.478 3.54148 5.47195 0
M  V30 8807 N 815.911 -0.310526 1.54511 0
M  V30 8808 C 817.139 -1.06611 1.77318 0
M  V30 8809 C 817.554 -1.81265 0.528043 0
M  V30 8810 O 816.911 -1.75466 -0.50178 0
M  V30 8811 C 816.962 -2.05409 2.97472 0
M  V30 8812 O 816.683 -1.33785 4.17173 0
M  V30 8813 C 818.184 -2.93082 3.32593 0
M  V30 8814 H 815.404 -0.316578 0.591624 0
M  V30 8815 H 817.948 -0.352691 2.01436 0
M  V30 8816 H 816.103 -2.72266 2.7559 0
M  V30 8817 H 816.517 -2.00055 4.84849 0
M  V30 8818 H 817.991 -3.58274 4.19933 0
M  V30 8819 H 818.468 -3.60877 2.50329 0
M  V30 8820 H 819.074 -2.31768 3.566 0
M  V30 8821 N 817.389 -1.46805 -0.573248 0
M  V30 8822 C 818.635 -1.5283 -1.33307 0
M  V30 8823 C 818.968 -0.183287 -1.93333 0
M  V30 8824 O 818.243 0.806354 -1.76998 0
M  V30 8825 C 818.526 -2.63414 -2.45531 0
M  V30 8826 C 818.379 -4.07478 -1.90478 0
M  V30 8827 C 819.698 -2.70014 -3.47535 0
M  V30 8828 H 816.817 -0.556371 -0.483343 0
M  V30 8829 H 819.459 -1.78787 -0.643066 0
M  V30 8830 H 817.609 -2.41412 -3.04389 0
M  V30 8831 H 819.281 -4.40795 -1.36004 0
M  V30 8832 H 817.524 -4.16511 -1.21248 0
M  V30 8833 H 818.195 -4.80598 -2.71531 0
M  V30 8834 H 820.671 -2.89817 -2.98572 0
M  V30 8835 H 819.547 -3.49192 -4.23504 0
M  V30 8836 H 819.808 -1.76436 -4.05367 0
M  V30 8837 N 818.867 0.818669 -1.34668 0
M  V30 8838 C 819.799 1.93754 -1.22442 0
M  V30 8839 C 820.812 1.62103 -0.150501 0
M  V30 8840 O 822.001 1.73898 -0.402728 0
M  V30 8841 C 819.101 3.27806 -0.860031 0
M  V30 8842 C 818.274 3.8745 -2.02981 0
M  V30 8843 C 817.333 4.99887 -1.64314 0
M  V30 8844 O 816.359 5.17957 -2.36029 0
M  V30 8845 N 817.561 5.77795 -0.55976 0
M  V30 8846 H 820.326 2.04773 -2.18833 0
M  V30 8847 H 817.887 0.995472 -1.27679 0
M  V30 8848 H 819.879 4.00478 -0.583068 0
M  V30 8849 H 818.449 3.12597 0.0138253 0
M  V30 8850 H 817.669 3.07119 -2.47127 0
M  V30 8851 H 818.957 4.2403 -2.81204 0
M  V30 8852 H 818.355 5.65688 0.0363329 0
M  V30 8853 H 816.912 6.50899 -0.342541 0
M  V30 8854 N 820.346 1.18468 1.03938 0
M  V30 8855 C 821.279 0.856251 2.11527 0
M  V30 8856 C 822.257 -0.182323 1.61575 0
M  V30 8857 O 823.441 -0.061 1.88401 0
M  V30 8858 C 820.568 0.279562 3.37544 0
M  V30 8859 C 819.614 1.29552 4.06348 0
M  V30 8860 S 820.447 2.85191 4.5324 0
M  V30 8861 C 821.603 2.29037 5.82489 0
M  V30 8862 H 821.836 1.76742 2.39059 0
M  V30 8863 H 819.369 1.01068 1.16725 0
M  V30 8864 H 821.327 -0.0466579 4.10473 0
M  V30 8865 H 819.988 -0.60975 3.08125 0
M  V30 8866 H 819.181 0.840922 4.96935 0
M  V30 8867 H 818.783 1.56804 3.39541 0
M  V30 8868 H 821.075 1.67376 6.565 0
M  V30 8869 H 822.018 3.17929 6.32714 0
M  V30 8870 H 822.426 1.72009 5.37655 0
M  V30 8871 N 821.824 -1.22873 0.986916 0
M  V30 8872 C 823.24 -1.43594 0.696633 0
M  V30 8873 C 823.44 -1.87622 -0.734869 0
M  V30 8874 O 822.496 -2.02633 -1.50652 0
M  V30 8875 C 823.809 -2.48231 1.69711 0
M  V30 8876 C 825.357 -2.62037 1.71188 0
M  V30 8877 C 825.832 -3.6989 2.70084 0
M  V30 8878 N 827.323 -3.77341 2.68641 0
M  V30 8879 C 828.058 -4.6037 3.41829 0
M  V30 8880 N 827.554 -5.47438 4.24598 0
M  V30 8881 N 829.347 -4.54626 3.30563 0
M  V30 8882 H 821.498 -0.925982 1.91153 0
M  V30 8883 H 823.761 -0.46866 0.824052 0
M  V30 8884 H 823.467 -2.22812 2.72117 0
M  V30 8885 H 823.341 -3.46731 1.48516 0
M  V30 8886 H 825.728 -2.86803 0.694837 0
M  V30 8887 H 825.809 -1.63831 1.96451 0
M  V30 8888 H 825.453 -3.45872 3.71934 0
M  V30 8889 H 825.383 -4.67652 2.42093 0
M  V30 8890 H 827.874 -3.15124 2.08578 0
M  V30 8891 H 828.187 -6.078 4.77283 0
M  V30 8892 H 826.532 -5.4704 4.28687 0
M  V30 8893 H 829.723 -3.85627 2.65347 0
M  V30 8894 H 829.896 -5.19103 3.8786 0
M  V30 8895 N 823.302 -0.75937 -1.38099 0
M  V30 8896 C 824.265 -0.14372 -2.28749 0
M  V30 8897 C 825.265 0.641338 -1.47457 0
M  V30 8898 O 826.455 0.466751 -1.67831 0
M  V30 8899 C 823.587 0.804545 -3.3127 0
M  V30 8900 H 824.78 -0.942663 -2.847 0
M  V30 8901 H 822.333 -0.526757 -1.47156 0
M  V30 8902 H 823.068 1.62895 -2.80421 0
M  V30 8903 H 822.853 0.243939 -3.9134 0
M  V30 8904 H 824.343 1.23111 -3.99041 0
M  V30 8905 N 824.78 1.49157 -0.508906 0
M  V30 8906 C 825.712 2.272 0.302115 0
M  V30 8907 C 826.725 1.3407 0.923529 0
M  V30 8908 O 827.914 1.5929 0.805532 0
M  V30 8909 C 825.014 3.06736 1.44105 0
M  V30 8910 C 824.187 4.27497 0.925477 0
M  V30 8911 C 823.246 4.89014 1.94297 0
M  V30 8912 O 822.272 5.48851 1.50834 0
M  V30 8913 N 823.474 4.7937 3.2739 0
M  V30 8914 H 826.239 2.97443 -0.367115 0
M  V30 8915 H 823.8 1.58248 -0.341933 0
M  V30 8916 H 825.792 3.44763 2.11944 0
M  V30 8917 H 824.362 2.3905 2.0143 0
M  V30 8918 H 823.582 3.94135 0.0717301 0
M  V30 8919 H 824.87 5.05714 0.55955 0
M  V30 8920 H 824.268 4.31869 3.65384 0
M  V30 8921 H 822.825 5.21559 3.90922 0
M  V30 8922 N 826.258 0.243083 1.55714 0
M  V30 8923 C 827.191 -0.698623 2.17243 0
M  V30 8924 C 828.169 -1.1756 1.12331 0
M  V30 8925 O 829.353 -1.25444 1.40699 0
M  V30 8926 C 826.48 -1.94901 2.77004 0
M  V30 8927 C 825.526 -1.61022 3.94936 0
M  V30 8928 S 826.359 -0.716173 5.30689 0
M  V30 8929 C 827.515 -1.97565 5.93901 0
M  V30 8930 H 827.748 -0.175724 2.9678 0
M  V30 8931 H 825.281 0.0275727 1.54375 0
M  V30 8932 H 827.239 -2.66687 3.12071 0
M  V30 8933 H 825.9 -2.44304 1.9742 0
M  V30 8934 H 825.093 -2.5398 4.35328 0
M  V30 8935 H 824.695 -0.972829 3.61126 0
M  V30 8936 H 826.987 -2.92333 6.11186 0
M  V30 8937 H 827.93 -1.61528 6.8943 0
M  V30 8938 H 828.338 -2.126 5.22935 0
M  V30 8939 N 827.736 -1.57571 -0.0300757 0
M  V30 8940 C 829.147 -1.77567 -0.576802 0
M  V30 8941 C 829.498 -0.874034 -1.75656 0
M  V30 8942 O 828.623 -0.0686124 -2.16291 0
M  V30 8943 C 829.218 -3.22016 -1.05315 0
M  V30 8944 C 827.777 -3.43212 -1.5454 0
M  V30 8945 C 826.924 -2.73061 -0.483033 0
M  V30 8946 H 829.875 -1.57483 0.196151 0
M  V30 8947 H 829.896 -3.28474 -1.92055 0
M  V30 8948 H 829.408 -3.87613 -0.194298 0
M  V30 8949 H 827.509 -2.82788 -2.42615 0
M  V30 8950 H 827.622 -4.5182 -1.5936 0
M  V30 8951 H 825.986 -2.36805 -0.937835 0
M  V30 8952 H 826.769 -3.4134 0.366341 0
M  V30 8953 N 829.214 0.302327 -1.54673 0
M  V30 8954 C 830.177 1.35592 -1.8479 0
M  V30 8955 C 831.177 1.43743 -0.72073 0
M  V30 8956 O 832.367 1.43402 -0.989017 0
M  V30 8957 C 829.499 2.74091 -2.02699 0
M  V30 8958 H 830.692 1.10132 -2.78946 0
M  V30 8959 H 828.245 0.538926 -1.46715 0
M  V30 8960 H 828.98 3.04775 -1.10826 0
M  V30 8961 H 828.765 2.69565 -2.8474 0
M  V30 8962 H 830.255 3.50272 -2.27374 0
M  V30 8963 N 830.692 1.47107 0.565454 0
M  V30 8964 C 831.939 1.53308 1.32299 0
M  V30 8965 C 832.267 0.1919 1.93551 0
M  V30 8966 O 831.522 -0.81435 1.77952 0
M  V30 8967 C 831.821 2.59309 2.45954 0
M  V30 8968 C 831.487 4.02827 2.02586 0
M  V30 8969 C 830.149 4.41897 1.90474 0
M  V30 8970 C 832.501 4.92913 1.6937 0
M  V30 8971 C 829.829 5.68898 1.4343 0
M  V30 8972 C 832.181 6.20368 1.238 0
M  V30 8973 C 830.845 6.58327 1.10278 0
M  V30 8974 H 830.115 0.560993 0.484116 0
M  V30 8975 H 832.762 1.80667 0.634965 0
M  V30 8976 H 831.067 2.25676 3.20277 0
M  V30 8977 H 832.764 2.61332 3.04149 0
M  V30 8978 H 829.354 3.71953 2.12952 0
M  V30 8979 H 833.538 4.63433 1.77605 0
M  V30 8980 H 828.794 5.97065 1.31618 0
M  V30 8981 H 832.968 6.89589 0.971586 0
M  V30 8982 H 830.595 7.56628 0.736027 0
M  V30 8983 N 832.17 -0.811516 1.35101 0
M  V30 8984 C 833.581 -1.38515 1.25182 0
M  V30 8985 C 833.932 -1.95846 -0.117883 0
M  V30 8986 O 833.057 -1.90925 -1.01866 0
M  V30 8987 C 833.652 -2.51813 2.26662 0
M  V30 8988 C 832.211 -3.05052 2.20499 0
M  V30 8989 C 831.358 -1.77987 2.12641 0
M  V30 8990 H 834.309 -0.614959 1.46301 0
M  V30 8991 H 834.33 -3.30228 1.89023 0
M  V30 8992 H 833.842 -2.10057 3.2634 0
M  V30 8993 H 831.943 -3.51285 1.24215 0
M  V30 8994 H 832.056 -3.63368 3.1225 0
M  V30 8995 H 830.42 -1.99342 1.5854 0
M  V30 8996 H 831.203 -1.38389 3.14171 0
M  V30 8997 N 833.648 -1.19017 -1.03309 0
M  V30 8998 C 834.578 -0.94772 -2.13402 0
M  V30 8999 C 835.559 0.117383 -1.69694 0
M  V30 9000 O 836.744 -0.0367733 -1.94165 0
M  V30 9001 C 833.874 -0.480977 -3.43953 0
M  V30 9002 C 832.828 -1.48743 -4.01322 0
M  V30 9003 C 832.154 -0.877924 -5.27443 0
M  V30 9004 C 833.454 -2.86642 -4.36616 0
M  V30 9005 H 835.148 -1.86846 -2.33942 0
M  V30 9006 H 832.694 -0.899781 -1.12427 0
M  V30 9007 H 834.647 -0.298677 -4.2034 0
M  V30 9008 H 833.371 0.475348 -3.23122 0
M  V30 9009 H 832.03 -1.65681 -3.27025 0
M  V30 9010 H 831.678 0.0858232 -5.02927 0
M  V30 9011 H 831.378 -1.54996 -5.66789 0
M  V30 9012 H 832.902 -0.706326 -6.06501 0
M  V30 9013 H 834.316 -2.73312 -5.03958 0
M  V30 9014 H 832.713 -3.50599 -4.87032 0
M  V30 9015 H 833.783 -3.39617 -3.46105 0
M  V30 9016 N 835.127 1.22348 -0.993418 0
M  V30 9017 C 836.538 1.72893 -0.704616 0
M  V30 9018 C 836.889 1.80095 0.778483 0
M  V30 9019 O 836.014 1.4476 1.60853 0
M  V30 9020 C 836.609 3.14 -1.27237 0
M  V30 9021 C 835.168 3.61949 -1.03294 0
M  V30 9022 C 834.315 2.39816 -1.39225 0
M  V30 9023 H 837.266 1.07688 -1.16572 0
M  V30 9024 H 837.287 3.74886 -0.651212 0
M  V30 9025 H 836.799 3.08727 -2.3518 0
M  V30 9026 H 834.9 3.72588 0.0298329 0
M  V30 9027 H 835.013 4.48051 -1.69668 0
M  V30 9028 H 833.377 2.41448 -0.810849 0
M  V30 9029 H 834.16 2.37203 -2.48172 0
M  V30 9030 N 836.605 0.766683 1.37694 0
M  V30 9031 C 837.835 0.339446 2.03792 0
M  V30 9032 C 838.243 -1.04153 1.57952 0
M  V30 9033 O 837.586 -1.67521 0.753826 0
M  V30 9034 C 837.648 0.29822 3.58261 0
M  V30 9035 C 837.312 1.62293 4.27212 0
M  V30 9036 C 838.309 2.57447 4.51682 0
M  V30 9037 C 835.994 1.89597 4.65143 0
M  V30 9038 C 837.988 3.78117 5.13134 0
M  V30 9039 C 835.675 3.10538 5.26317 0
M  V30 9040 C 836.673 4.04617 5.50249 0
M  V30 9041 O 836.361 5.23429 6.10145 0
M  V30 9042 H 836.093 0.140952 0.661142 0
M  V30 9043 H 838.647 1.04022 1.77111 0
M  V30 9044 H 836.877 -0.458897 3.83967 0
M  V30 9045 H 838.566 -0.101263 4.05774 0
M  V30 9046 H 839.332 2.37633 4.22795 0
M  V30 9047 H 835.211 1.17199 4.45854 0
M  V30 9048 H 838.755 4.51563 5.3173 0
M  V30 9049 H 834.652 3.3024 5.54628 0
M  V30 9050 H 835.42 5.24187 6.28626 0
M  V30 9051 N 838.083 -1.48885 0.516809 0
M  V30 9052 C 839.046 -2.27916 -0.242256 0
M  V30 9053 C 840.046 -1.34601 -0.879735 0
M  V30 9054 O 841.236 -1.57616 -0.74182 0
M  V30 9055 C 838.368 -3.13067 -1.34914 0
M  V30 9056 H 839.561 -2.96483 0.451444 0
M  V30 9057 H 837.114 -1.5391 0.272294 0
M  V30 9058 H 837.849 -2.49102 -2.07651 0
M  V30 9059 H 837.634 -3.81695 -0.897313 0
M  V30 9060 H 839.124 -3.72716 -1.88341 0
M  V30 9061 N 839.561 -0.251338 -1.55583 0
M  V30 9062 C 840.493 0.679167 -2.18906 0
M  V30 9063 C 841.506 1.13545 -1.16667 0
M  V30 9064 O 842.695 1.06146 -1.4351 0
M  V30 9065 C 839.795 1.93544 -2.78198 0
M  V30 9066 C 838.968 1.62987 -4.05899 0
M  V30 9067 C 838.027 2.73618 -4.49466 0
M  V30 9068 O 837.053 2.40815 -5.15749 0
M  V30 9069 N 838.255 4.03204 -4.1762 0
M  V30 9070 H 841.02 0.137328 -2.99385 0
M  V30 9071 H 838.581 -0.0714754 -1.61742 0
M  V30 9072 H 840.573 2.66804 -3.04299 0
M  V30 9073 H 839.143 2.38695 -2.0185 0
M  V30 9074 H 838.363 0.732237 -3.8734 0
M  V30 9075 H 839.651 1.40041 -4.89148 0
M  V30 9076 H 839.049 4.32686 -3.64416 0
M  V30 9077 H 837.606 4.72916 -4.48547 0
M  V30 9078 N 841.039 1.57585 0.0217189 0
M  V30 9079 C 841.969 2.10073 1.01939 0
M  V30 9080 C 842.95 1.0049 1.37243 0
M  V30 9081 O 844.135 1.28055 1.45999 0
M  V30 9082 C 841.265 2.58618 2.31806 0
M  V30 9083 C 840.219 3.72531 2.10724 0
M  V30 9084 C 839.545 4.07309 3.46415 0
M  V30 9085 C 840.845 5.00672 1.48743 0
M  V30 9086 H 842.539 2.9368 0.582432 0
M  V30 9087 H 840.085 1.41277 0.278715 0
M  V30 9088 H 842.038 2.9396 3.01936 0
M  V30 9089 H 840.762 1.72104 2.77575 0
M  V30 9090 H 839.421 3.37549 1.43025 0
M  V30 9091 H 839.069 3.17851 3.89846 0
M  V30 9092 H 838.769 4.84042 3.33132 0
M  V30 9093 H 840.293 4.45192 4.17895 0
M  V30 9094 H 841.707 5.33925 2.088 0
M  V30 9095 H 840.104 5.82065 1.46013 0
M  V30 9096 H 841.174 4.82769 0.45408 0
M  V30 9097 N 842.517 -0.29412 1.54831 0
M  V30 9098 C 843.449 -1.38476 1.82639 0
M  V30 9099 C 844.462 -1.46517 0.709694 0
M  V30 9100 O 845.651 -1.48712 0.987269 0
M  V30 9101 C 842.751 -2.76791 1.95551 0
M  V30 9102 C 841.924 -2.91599 3.26019 0
M  V30 9103 C 840.983 -4.10456 3.29261 0
M  V30 9104 O 840.009 -4.02214 4.02756 0
M  V30 9105 N 841.211 -5.21422 2.55145 0
M  V30 9106 H 843.976 -1.14974 2.76769 0
M  V30 9107 H 841.537 -0.484206 1.5449 0
M  V30 9108 H 843.529 -3.5456 1.95113 0
M  V30 9109 H 842.099 -2.93209 1.08384 0
M  V30 9110 H 841.319 -2.00886 3.39173 0
M  V30 9111 H 842.607 -2.98409 4.12104 0
M  V30 9112 H 842.005 -5.31 1.95078 0
M  V30 9113 H 840.562 -5.97501 2.60454 0
M  V30 9114 N 843.995 -1.47404 -0.557645 0
M  V30 9115 C 844.958 -1.59411 -1.64684 0
M  V30 9116 C 845.958 -0.469244 -1.53801 0
M  V30 9117 O 847.148 -0.734298 -1.57967 0
M  V30 9118 C 844.28 -1.5382 -3.04224 0
M  V30 9119 H 845.473 -2.56504 -1.55389 0
M  V30 9120 H 843.026 -1.35588 -0.777531 0
M  V30 9121 H 843.761 -0.581 -3.19053 0
M  V30 9122 H 843.546 -2.35456 -3.13533 0
M  V30 9123 H 845.036 -1.65358 -3.83466 0
M  V30 9124 N 845.473 0.80434 -1.35529 0
M  V30 9125 C 846.406 1.92222 -1.22987 0
M  V30 9126 C 847.384 1.62177 -0.117269 0
M  V30 9127 O 848.568 1.86321 -0.285761 0
M  V30 9128 C 845.695 3.26682 -0.894223 0
M  V30 9129 C 844.741 3.75674 -2.01919 0
M  V30 9130 S 845.574 3.93209 -3.6352 0
M  V30 9131 C 846.73 5.30568 -3.32037 0
M  V30 9132 H 846.963 2.02567 -2.1761 0
M  V30 9133 H 844.496 0.961961 -1.20771 0
M  V30 9134 H 846.454 4.04359 -0.707371 0
M  V30 9135 H 845.115 3.14082 0.0339729 0
M  V30 9136 H 844.308 4.73065 -1.73854 0
M  V30 9137 H 843.91 3.05001 -2.16449 0
M  V30 9138 H 846.202 6.14637 -2.85004 0
M  V30 9139 H 847.145 5.63628 -4.28636 0
M  V30 9140 H 847.553 4.96961 -2.6775 0
M  V30 9141 N 846.951 1.19563 1.02676 0
M  V30 9142 C 848.362 1.00158 1.57561 0
M  V30 9143 C 848.713 -0.444922 1.91089 0
M  V30 9144 O 847.838 -1.32466 1.71119 0
M  V30 9145 C 848.433 1.81181 2.86284 0
M  V30 9146 C 846.992 1.66171 3.37734 0
M  V30 9147 C 846.139 1.7975 2.11152 0
M  V30 9148 H 849.09 1.33904 0.85179 0
M  V30 9149 H 849.111 1.30916 3.57269 0
M  V30 9150 H 848.623 2.86454 2.6185 0
M  V30 9151 H 846.724 0.634927 3.6715 0
M  V30 9152 H 846.837 2.46832 4.10622 0
M  V30 9153 H 845.201 1.22833 2.23123 0
M  V30 9154 H 845.984 2.86487 1.89157 0
M  V30 9155 N 848.429 -1.21819 0.999893 0
M  V30 9156 C 849.392 -2.22227 0.561044 0
M  V30 9157 C 850.392 -1.56722 -0.359858 0
M  V30 9158 O 851.582 -1.73546 -0.150848 0
M  V30 9159 C 848.714 -3.40409 -0.182987 0
M  V30 9160 H 849.907 -2.62567 1.44909 0
M  V30 9161 H 847.46 -1.34991 0.78785 0
M  V30 9162 H 848.195 -3.05551 -1.08671 0
M  V30 9163 H 847.98 -3.89171 0.47833 0
M  V30 9164 H 849.47 -4.14856 -0.477952 0
M  V30 9165 N 849.908 -0.773975 -1.37286 0
M  V30 9166 C 850.871 -0.167974 -2.28584 0
M  V30 9167 C 851.871 0.625662 -1.48129 0
M  V30 9168 O 853.061 0.448924 -1.68316 0
M  V30 9169 C 850.193 0.769364 -3.32105 0
M  V30 9170 H 851.386 -0.972806 -2.83684 0
M  V30 9171 H 848.939 -0.542335 -1.46589 0
M  V30 9172 H 849.674 1.59912 -2.82132 0
M  V30 9173 H 849.459 0.202419 -3.91577 0
M  V30 9174 H 850.949 1.18872 -4.00324 0
M  V30 9175 N 851.386 1.48609 -0.524698 0
M  V30 9176 C 852.634 2.02097 0.0112991 0
M  V30 9177 C 852.955 1.40455 1.35268 0
M  V30 9178 O 852.225 0.56807 1.87483 0
M  V30 9179 H 850.805 0.746966 0.00716426 0
M  V30 9180 H 853.467 1.82378 -0.687329 0
M  V30 9181 H 852.563 3.11855 0.123531 0
M  V30 9182 N 852.864 0.259585 1.55447 0
M  V30 9183 C 854.112 -0.360893 1.98852 0
M  V30 9184 C 854.433 -1.57535 1.14924 0
M  V30 9185 O 853.703 -1.94485 0.235025 0
M  V30 9186 H 852.283 -0.136332 0.734454 0
M  V30 9187 H 854.945 0.361319 1.91522 0
M  V30 9188 H 854.041 -0.661388 3.05012 0
M  V30 9189 N 854.342 -1.57594 -0.0133615 0
M  V30 9190 C 855.588 -1.90262 -0.702019 0
M  V30 9191 C 855.921 -0.859219 -1.74158 0
M  V30 9192 O 855.196 0.123778 -1.94106 0
M  V30 9193 C 855.479 -3.3354 -1.35732 0
M  V30 9194 C 855.332 -4.48586 -0.330208 0
M  V30 9195 C 856.651 -3.76004 -2.28712 0
M  V30 9196 H 853.77 -0.691943 -0.253739 0
M  V30 9197 H 856.412 -1.89967 0.0351894 0
M  V30 9198 H 854.562 -3.33921 -1.98567 0
M  V30 9199 H 856.234 -4.6034 0.297433 0
M  V30 9200 H 854.477 -4.32394 0.348926 0
M  V30 9201 H 855.148 -5.45762 -0.827508 0
M  V30 9202 H 857.624 -3.77089 -1.75906 0
M  V30 9203 H 856.5 -4.77032 -2.71535 0
M  V30 9204 H 856.761 -3.09129 -3.16056 0
M  V30 9205 N 855.82 0.285905 -1.54985 0
M  V30 9206 C 856.75 1.35752 -1.89983 0
M  V30 9207 C 857.731 1.52163 -0.760295 0
M  V30 9208 O 858.916 1.65421 -1.01733 0
M  V30 9209 C 856.046 2.71925 -2.16042 0
M  V30 9210 C 855 2.70261 -3.31878 0
M  V30 9211 C 854.326 4.09864 -3.43388 0
M  V30 9212 C 855.626 2.30667 -4.68604 0
M  V30 9213 H 857.32 1.06709 -2.79738 0
M  V30 9214 H 854.866 0.511884 -1.34595 0
M  V30 9215 H 856.819 3.46992 -2.39113 0
M  V30 9216 H 855.543 3.02523 -1.23074 0
M  V30 9217 H 854.202 1.97651 -3.08755 0
M  V30 9218 H 853.85 4.37664 -2.47909 0
M  V30 9219 H 853.55 4.09648 -4.21262 0
M  V30 9220 H 855.074 4.86689 -3.68736 0
M  V30 9221 H 856.488 2.95453 -4.91305 0
M  V30 9222 H 854.885 2.41637 -5.49301 0
M  V30 9223 H 855.955 1.25793 -4.68299 0
M  V30 9224 N 857.298 1.47698 0.54982 0
M  V30 9225 C 858.528 1.58101 1.32995 0
M  V30 9226 C 858.936 0.232939 1.87761 0
M  V30 9227 O 858.279 -0.785058 1.6608 0
M  V30 9228 C 858.341 2.55228 2.53178 0
M  V30 9229 C 858.005 4.00756 2.19645 0
M  V30 9230 C 859.002 4.89025 1.76496 0
M  V30 9231 C 856.687 4.46147 2.30777 0
M  V30 9232 C 858.681 6.20707 1.44919 0
M  V30 9233 C 856.368 5.77856 1.98812 0
M  V30 9234 C 857.366 6.64957 1.55952 0
M  V30 9235 O 857.054 7.94217 1.24396 0
M  V30 9236 H 856.786 0.536362 0.411451 0
M  V30 9237 H 859.34 1.94092 0.67212 0
M  V30 9238 H 857.57 2.14319 3.21876 0
M  V30 9239 H 859.259 2.55678 3.15251 0
M  V30 9240 H 860.025 4.55201 1.67383 0
M  V30 9241 H 855.904 3.78552 2.63096 0
M  V30 9242 H 859.448 6.88649 1.11392 0
M  V30 9243 H 855.345 6.11219 2.0756 0
M  V30 9244 H 856.113 8.06789 1.37964 0
M  V30 9245 N 858.776 -0.797141 1.35954 0
M  V30 9246 C 859.708 -1.91782 1.25509 0
M  V30 9247 C 860.721 -1.61843 0.176271 0
M  V30 9248 O 861.91 -1.73235 0.430343 0
M  V30 9249 C 859.01 -3.26396 0.912073 0
M  V30 9250 C 858.183 -3.84171 2.0912 0
M  V30 9251 C 857.242 -4.9721 1.72246 0
M  V30 9252 O 856.268 -5.14136 2.44239 0
M  V30 9253 N 857.47 -5.76831 0.651611 0
M  V30 9254 H 860.235 -2.01266 2.22063 0
M  V30 9255 H 857.796 -0.975033 1.29247 0
M  V30 9256 H 859.788 -3.99499 0.646707 0
M  V30 9257 H 858.358 -3.12579 0.0359079 0
M  V30 9258 H 857.578 -3.03148 2.51982 0
M  V30 9259 H 858.866 -4.19503 2.87914 0
M  V30 9260 H 858.264 -5.65675 0.0536678 0
M  V30 9261 H 856.821 -6.50272 0.44605 0
M  V30 9262 N 860.254 -1.20106 -1.0204 0
M  V30 9263 C 861.665 -1.00992 -1.57027 0
M  V30 9264 C 862.016 0.434782 -1.91322 0
M  V30 9265 O 861.141 1.31557 -1.71819 0
M  V30 9266 C 861.736 -1.82697 -2.85319 0
M  V30 9267 C 860.295 -1.67959 -3.36848 0
M  V30 9268 C 859.442 -1.80868 -2.10195 0
M  V30 9269 H 862.393 -1.34354 -0.844676 0
M  V30 9270 H 862.414 -1.32809 -3.5657 0
M  V30 9271 H 861.926 -2.87839 -2.60328 0
M  V30 9272 H 860.027 -0.654389 -3.66809 0
M  V30 9273 H 860.14 -2.49006 -4.09308 0
M  V30 9274 H 858.504 -1.24015 -2.22469 0
M  V30 9275 H 859.287 -2.87486 -1.87635 0
M  V30 9276 N 861.732 1.21287 -1.00634 0
M  V30 9277 C 862.957 1.94925 -0.708441 0
M  V30 9278 C 863.382 1.73659 0.722783 0
M  V30 9279 O 862.74 1.02429 1.49593 0
M  V30 9280 C 862.788 3.45377 -1.03667 0
M  V30 9281 O 861.892 4.12153 -0.142661 0
M  V30 9282 H 861.233 0.609338 -0.263824 0
M  V30 9283 H 863.763 1.54008 -1.34695 0
M  V30 9284 H 863.773 3.95954 -0.984086 0
M  V30 9285 H 862.448 3.6018 -2.0795 0
M  V30 9286 H 861.025 3.72048 -0.251888 0
M  V30 9287 N 863.21 0.781244 1.36873 0
M  V30 9288 C 864.458 0.349198 1.9906 0
M  V30 9289 C 864.779 -1.0806 1.62321 0
M  V30 9290 O 864.049 -1.74351 0.893229 0
M  V30 9291 H 862.629 0.126126 0.736275 0
M  V30 9292 H 865.291 1.00148 1.67202 0
M  V30 9293 H 864.387 0.434451 3.09061 0
M  V30 9294 N 864.689 -1.48329 0.532571 0
M  V30 9295 C 866.1 -1.86469 0.0927749 0
M  V30 9296 C 866.451 -1.44186 -1.3306 0
M  V30 9297 O 865.576 -0.833741 -1.99694 0
M  V30 9298 C 866.171 -3.38414 0.161588 0
M  V30 9299 C 864.73 -3.75739 -0.223028 0
M  V30 9300 C 863.877 -2.72377 0.520199 0
M  V30 9301 H 866.828 -1.40197 0.743678 0
M  V30 9302 H 866.849 -3.75314 -0.626059 0
M  V30 9303 H 866.361 -3.69159 1.19765 0
M  V30 9304 H 864.462 -3.50608 -1.26113 0
M  V30 9305 H 864.575 -4.78954 0.118385 0
M  V30 9306 H 862.939 -2.54678 -0.0338425 0
M  V30 9307 H 863.722 -3.05965 1.55694 0
M  V30 9308 N 866.167 -0.267825 -1.55308 0
M  V30 9309 C 867.13 0.60965 -2.20943 0
M  V30 9310 C 868.13 1.0869 -1.18504 0
M  V30 9311 O 869.32 0.988248 -1.43455 0
M  V30 9312 C 866.452 1.84027 -2.86961 0
M  V30 9313 H 867.645 0.0366806 -2.99878 0
M  V30 9314 H 865.198 -0.0183941 -1.56289 0
M  V30 9315 H 865.933 2.45394 -2.1202 0
M  V30 9316 H 865.718 1.50605 -3.62023 0
M  V30 9317 H 867.208 2.46442 -3.37129 0
M  V30 9318 N 867.645 1.57599 0.00500368 0
M  V30 9319 C 868.87 1.95026 0.705663 0
M  V30 9320 C 869.295 0.869643 1.6679 0
M  V30 9321 O 868.653 -0.172659 1.80476 0
M  V30 9322 C 868.701 3.31545 1.4181 0
M  V30 9323 O 867.805 3.25495 2.53232 0
M  V30 9324 H 867.146 0.636808 0.188074 0
M  V30 9325 H 869.676 2.04547 -0.046696 0
M  V30 9326 H 869.686 3.66996 1.78265 0
M  V30 9327 H 868.361 4.09751 0.712543 0
M  V30 9328 H 866.938 3.01714 2.19142 0
M  V30 9329 N 869.123 -0.277682 1.55134 0
M  V30 9330 C 870.37 -1.0099 1.7552 0
M  V30 9331 C 870.698 -1.86452 0.553712 0
M  V30 9332 O 869.953 -1.90122 -0.463896 0
M  V30 9333 C 870.252 -1.92599 3.01065 0
M  V30 9334 C 869.918 -1.22926 4.3382 0
M  V30 9335 C 868.58 -1.03659 4.69902 0
M  V30 9336 C 870.932 -0.733071 5.16019 0
M  V30 9337 C 868.26 -0.334933 5.85743 0
M  V30 9338 C 870.612 -0.0450319 6.32584 0
M  V30 9339 C 869.276 0.159393 6.6731 0
M  V30 9340 H 868.546 -0.36955 0.642273 0
M  V30 9341 H 871.193 -0.282611 1.89403 0
M  V30 9342 H 869.498 -2.71934 2.82062 0
M  V30 9343 H 871.195 -2.49367 3.14034 0
M  V30 9344 H 867.785 -1.38933 4.05457 0
M  V30 9345 H 871.969 -0.869565 4.88623 0
M  V30 9346 H 867.225 -0.165783 6.11175 0
M  V30 9347 H 871.399 0.34723 6.95534 0
M  V30 9348 H 869.026 0.70507 7.56923 0
M  V30 9349 N 870.601 -1.47988 -0.541979 0
M  V30 9350 C 872.012 -1.49073 -1.12402 0
M  V30 9351 C 872.363 -0.253825 -1.94551 0
M  V30 9352 O 871.488 0.640056 -2.06718 0
M  V30 9353 C 872.083 -2.7011 -2.04514 0
M  V30 9354 C 870.642 -2.74105 -2.5796 0
M  V30 9355 C 869.789 -2.42409 -1.3466 0
M  V30 9356 H 872.74 -1.55277 -0.327818 0
M  V30 9357 H 872.761 -2.47946 -2.88623 0
M  V30 9358 H 872.273 -3.60117 -1.44697 0
M  V30 9359 H 870.374 -1.88276 -3.21532 0
M  V30 9360 H 870.487 -3.75213 -2.97913 0
M  V30 9361 H 868.851 -1.9331 -1.65841 0
M  V30 9362 H 869.634 -3.34642 -0.766133 0
M  V30 9363 N 872.079 0.78992 -1.36375 0
M  V30 9364 C 873.304 1.58389 -1.33895 0
M  V30 9365 C 873.729 1.8794 0.0774934 0
M  V30 9366 O 873.087 1.4785 1.0493 0
M  V30 9367 C 873.135 2.88201 -2.16732 0
M  V30 9368 O 872.239 3.81778 -1.55946 0
M  V30 9369 H 871.58 0.480471 -0.458305 0
M  V30 9370 H 874.11 0.979119 -1.79651 0
M  V30 9371 H 874.12 3.37475 -2.29292 0
M  V30 9372 H 872.795 2.66019 -3.19698 0
M  V30 9373 H 871.372 3.40371 -1.52323 0
M  V30 9374 N 873.557 1.20646 1.01402 0
M  V30 9375 C 874.785 1.04389 1.78635 0
M  V30 9376 C 875.2 -0.406771 1.84366 0
M  V30 9377 O 874.557 -1.28239 1.2985 0
M  V30 9378 C 874.608 1.62378 3.22979 0
M  V30 9379 O 874.329 3.01768 3.17597 0
M  V30 9380 C 875.83 1.5111 4.1675 0
M  V30 9381 H 873.05 0.367077 0.56169 0
M  V30 9382 H 875.594 1.59789 1.27624 0
M  V30 9383 H 873.749 1.11092 3.7113 0
M  V30 9384 H 874.163 3.29331 4.08217 0
M  V30 9385 H 875.637 1.96441 5.15863 0
M  V30 9386 H 876.114 0.464011 4.36742 0
M  V30 9387 H 876.72 2.01599 3.74483 0
M  V30 9388 N 875.035 -1.20752 1.01276 0
M  V30 9389 C 876.282 -1.90021 0.699887 0
M  V30 9390 C 876.61 -1.78604 -0.770113 0
M  V30 9391 O 875.865 -1.16195 -1.57471 0
M  V30 9392 C 876.164 -3.40808 1.07633 0
M  V30 9393 C 875.83 -3.72423 2.54189 0
M  V30 9394 C 874.492 -3.80762 2.94234 0
M  V30 9395 C 876.844 -3.87025 3.49086 0
M  V30 9396 C 874.172 -4.01158 4.28123 0
M  V30 9397 C 876.524 -4.0893 4.82658 0
M  V30 9398 C 875.188 -4.15498 5.22415 0
M  V30 9399 H 874.458 -0.695335 0.256107 0
M  V30 9400 H 877.105 -1.43096 1.27263 0
M  V30 9401 H 875.41 -3.89521 0.421944 0
M  V30 9402 H 877.107 -3.92693 0.811997 0
M  V30 9403 H 873.697 -3.66529 2.22158 0
M  V30 9404 H 877.881 -3.79942 3.19309 0
M  V30 9405 H 873.137 -4.04476 4.58486 0
M  V30 9406 H 877.311 -4.19172 5.56119 0
M  V30 9407 H 874.938 -4.31055 6.26176 0
M  V30 9408 N 876.513 -0.788492 -1.36457 0
M  V30 9409 C 877.738 -0.371224 -2.04051 0
M  V30 9410 C 878.163 1.004 -1.59064 0
M  V30 9411 O 877.521 1.64663 -0.758679 0
M  V30 9412 C 877.569 -0.442275 -3.57877 0
M  V30 9413 O 876.673 0.55113 -4.08701 0
M  V30 9414 H 876.014 -0.157808 -0.644975 0
M  V30 9415 H 878.544 -1.06935 -1.74431 0
M  V30 9416 H 878.554 -0.305548 -4.06854 0
M  V30 9417 H 877.229 -1.44547 -3.89973 0
M  V30 9418 H 875.806 0.37614 -3.70998 0
M  V30 9419 N 877.991 1.48044 -0.54043 0
M  V30 9420 C 879.402 1.86418 -0.102662 0
M  V30 9421 C 879.753 1.4489 1.32293 0
M  V30 9422 O 878.878 0.844319 1.99249 0
M  V30 9423 C 879.473 3.38324 -0.179533 0
M  V30 9424 C 878.032 3.75852 0.203098 0
M  V30 9425 C 877.179 2.72097 -0.534637 0
M  V30 9426 H 880.13 1.398 -0.751103 0
M  V30 9427 H 880.151 3.75641 0.606147 0
M  V30 9428 H 879.663 3.68518 -1.21721 0
M  V30 9429 H 877.764 3.51272 1.24252 0
M  V30 9430 H 877.877 4.78884 -0.143784 0
M  V30 9431 H 876.241 2.54692 0.0203358 0
M  V30 9432 H 877.024 3.05135 -1.57314 0
M  V30 9433 N 879.47 0.276058 1.55163 0
M  V30 9434 C 880.433 -0.597924 2.21263 0
M  V30 9435 C 881.433 -1.0806 1.19078 0
M  V30 9436 O 882.623 -0.980626 1.43977 0
M  V30 9437 C 879.755 -1.82503 2.87933 0
M  V30 9438 H 880.948 -0.0207769 2.99893 0
M  V30 9439 H 878.501 0.0266823 1.56277 0
M  V30 9440 H 879.236 -2.44266 2.13318 0
M  V30 9441 H 879.021 -1.48683 3.62816 0
M  V30 9442 H 880.511 -2.44651 3.38431 0
M  V30 9443 N 880.948 -1.576 0.00335426 0
M  V30 9444 C 882.196 -1.90336 -0.679446 0
M  V30 9445 C 882.517 -0.877777 -1.74127 0
M  V30 9446 O 881.787 0.0843585 -1.95718 0
M  V30 9447 H 880.367 -0.702509 -0.253948 0
M  V30 9448 H 883.029 -1.94848 0.0450731 0
M  V30 9449 H 882.125 -2.90197 -1.14857 0
M  V30 9450 N 882.426 0.269451 -1.5528 0
M  V30 9451 C 883.651 1.02299 -1.80415 0
M  V30 9452 C 884.076 1.7902 -0.577363 0
M  V30 9453 O 883.434 1.75018 0.473125 0
M  V30 9454 C 883.482 1.95445 -3.0304 0
M  V30 9455 O 882.586 3.04271 -2.78375 0
M  V30 9456 H 881.927 0.292289 -0.596207 0
M  V30 9457 H 884.457 0.297282 -2.02429 0
M  V30 9458 H 884.467 2.37333 -3.31869 0
M  V30 9459 H 883.142 1.39017 -3.91978 0
M  V30 9460 H 881.719 2.66673 -2.60653 0
M  V30 9461 N 883.904 1.48273 0.534124 0
M  V30 9462 C 885.15 1.56311 1.29208 0
M  V30 9463 C 885.483 0.234481 1.92779 0
M  V30 9464 O 884.758 -0.759143 1.79073 0
M  V30 9465 C 885.041 2.69831 2.3846 0
M  V30 9466 C 884.894 4.12385 1.79608 0
M  V30 9467 C 886.213 2.79133 3.40254 0
M  V30 9468 H 883.332 0.56899 0.468422 0
M  V30 9469 H 885.974 1.80429 0.595438 0
M  V30 9470 H 884.124 2.49397 2.97881 0
M  V30 9471 H 885.796 4.44246 1.24269 0
M  V30 9472 H 884.039 4.19579 1.10162 0
M  V30 9473 H 884.71 4.87629 2.58693 0
M  V30 9474 H 887.186 2.97632 2.90783 0
M  V30 9475 H 886.062 3.60298 4.14097 0
M  V30 9476 H 886.323 1.87122 4.00547 0
M  V30 9477 N 885.382 -0.782676 1.36792 0
M  V30 9478 C 886.292 -1.92679 1.33835 0
M  V30 9479 C 887.308 -1.72344 0.23952 0
M  V30 9480 O 888.484 -1.95766 0.473045 0
M  V30 9481 C 885.549 -3.27644 1.1336 0
M  V30 9482 C 884.61 -3.6071 2.32781 0
M  V30 9483 C 883.843 -4.89234 2.13273 0
M  V30 9484 O 884.066 -5.59468 1.11136 0
M  V30 9485 O 883 -5.21112 3.01208 0
M  V30 9486 H 886.826 -1.98124 2.30175 0
M  V30 9487 H 884.411 -0.923887 1.17408 0
M  V30 9488 H 886.293 -4.08394 1.03886 0
M  V30 9489 H 884.968 -3.23076 0.200868 0
M  V30 9490 H 883.875 -2.80238 2.47825 0
M  V30 9491 H 885.208 -3.70008 3.24584 0
M  V30 9492 N 886.86 -1.21182 -1.00761 0
M  V30 9493 C 888.108 -1.02543 -1.74153 0
M  V30 9494 C 888.429 0.442372 -1.89916 0
M  V30 9495 O 887.699 1.31927 -1.44818 0
M  V30 9496 H 886.279 -0.37644 -0.645214 0
M  V30 9497 H 888.941 -1.52446 -1.21434 0
M  V30 9498 H 888.037 -1.49122 -2.7417 0
M  V30 9499 N 888.338 1.20213 -1.01915 0
M  V30 9500 C 889.563 1.94163 -0.729076 0
M  V30 9501 C 889.988 1.74416 0.704323 0
M  V30 9502 O 889.346 1.0401 1.48498 0
M  V30 9503 C 889.394 3.44258 -1.07324 0
M  V30 9504 O 888.498 4.11979 -0.186367 0
M  V30 9505 H 887.839 0.606506 -0.270272 0
M  V30 9506 H 890.369 1.52571 -1.3632 0
M  V30 9507 H 890.379 3.94888 -1.02603 0
M  V30 9508 H 889.054 3.57954 -2.11759 0
M  V30 9509 H 887.631 3.7176 -0.291334 0
M  V30 9510 N 889.816 0.795718 1.36037 0
M  V30 9511 C 891.227 0.433379 1.816 0
M  V30 9512 C 891.578 -1.04341 1.66155 0
M  V30 9513 O 890.703 -1.81004 1.18603 0
M  V30 9514 C 891.298 0.77985 3.29703 0
M  V30 9515 C 889.857 0.470256 3.73451 0
M  V30 9516 C 889.004 1.01119 2.58206 0
M  V30 9517 H 891.955 0.988317 1.24169 0
M  V30 9518 H 891.976 0.0732898 3.80429 0
M  V30 9519 H 891.488 1.85473 3.40913 0
M  V30 9520 H 889.589 -0.596332 3.67797 0
M  V30 9521 H 889.702 0.995276 4.68648 0
M  V30 9522 H 888.066 0.434077 2.50974 0
M  V30 9523 H 888.849 2.09196 2.72198 0
M  V30 9524 N 891.294 -1.47756 0.548274 0
M  V30 9525 C 892.227 -2.26804 -0.252059 0
M  V30 9526 C 893.205 -1.3349 -0.928389 0
M  V30 9527 O 894.389 -1.6286 -0.949156 0
M  V30 9528 C 891.516 -3.10266 -1.35841 0
M  V30 9529 C 890.562 -4.1909 -0.791578 0
M  V30 9530 S 891.395 -5.34323 0.354878 0
M  V30 9531 C 892.551 -6.21348 -0.753511 0
M  V30 9532 H 892.784 -2.94336 0.418744 0
M  V30 9533 H 890.317 -1.50735 0.334413 0
M  V30 9534 H 892.275 -3.58925 -1.99207 0
M  V30 9535 H 890.936 -2.42112 -2.00101 0
M  V30 9536 H 890.129 -4.77183 -1.62212 0
M  V30 9537 H 889.731 -3.73266 -0.234274 0
M  V30 9538 H 892.023 -6.57156 -1.6478 0
M  V30 9539 H 892.966 -7.07788 -0.210141 0
M  V30 9540 H 893.374 -5.54797 -1.04216 0
M  V30 9541 N 892.772 -0.284283 -1.55015 0
M  V30 9542 C 893.722 0.613913 -2.19579 0
M  V30 9543 C 894.706 1.11153 -1.16335 0
M  V30 9544 O 895.898 1.05508 -1.42116 0
M  V30 9545 C 893.027 1.79329 -2.92739 0
M  V30 9546 C 892.113 1.31242 -4.03282 0
M  V30 9547 N 892.504 0.548344 -5.02819 0
M  V30 9548 C 890.802 1.5946 -4.1652 0
M  V30 9549 C 891.503 0.294358 -5.80955 0
M  V30 9550 N 890.479 0.869406 -5.36603 0
M  V30 9551 H 894.281 0.0224088 -2.93891 0
M  V30 9552 H 891.795 -0.0882619 -1.6216 0
M  V30 9553 H 893.792 2.44814 -3.37449 0
M  V30 9554 H 892.452 2.38865 -2.1994 0
M  V30 9555 H 893.463 0.194812 -5.17533 0
M  V30 9556 H 890.14 2.19866 -3.54916 0
M  V30 9557 H 891.53 -0.318195 -6.71146 0
M  V30 9558 N 894.251 1.57596 -0.0117121 0
M  V30 9559 C 895.499 1.90694 0.669342 0
M  V30 9560 C 895.82 0.886999 1.73659 0
M  V30 9561 O 895.09 -0.0739779 1.9576 0
M  V30 9562 H 893.67 0.703846 0.250219 0
M  V30 9563 H 896.332 1.94821 -0.0554057 0
M  V30 9564 H 895.428 2.90802 1.13316 0
M  V30 9565 N 895.729 -0.261212 1.5542 0
M  V30 9566 C 896.975 -0.992699 1.76843 0
M  V30 9567 C 897.308 -1.8551 0.574428 0
M  V30 9568 O 896.583 -1.89739 -0.427713 0
M  V30 9569 C 896.866 -1.86532 3.08022 0
M  V30 9570 C 896.719 -1.03206 4.378 0
M  V30 9571 C 898.038 -2.85036 3.35324 0
M  V30 9572 H 895.157 -0.359473 0.643388 0
M  V30 9573 H 897.799 -0.264214 1.88154 0
M  V30 9574 H 895.949 -2.48644 2.9851 0
M  V30 9575 H 897.621 -0.430743 4.59285 0
M  V30 9576 H 895.864 -0.335911 4.32497 0
M  V30 9577 H 896.535 -1.6761 5.25938 0
M  V30 9578 H 899.011 -2.3306 3.44706 0
M  V30 9579 H 897.887 -3.43226 4.28354 0
M  V30 9580 H 898.148 -3.60768 2.55537 0
M  V30 9581 N 897.207 -1.48554 -0.526253 0
M  V30 9582 C 898.437 -1.60197 -1.30463 0
M  V30 9583 C 898.845 -0.26278 -1.87366 0
M  V30 9584 O 898.188 0.758537 -1.67308 0
M  V30 9585 C 898.25 -2.59223 -2.49085 0
M  V30 9586 C 897.914 -4.04199 -2.13241 0
M  V30 9587 C 898.911 -4.91771 -1.68694 0
M  V30 9588 C 896.596 -4.49762 -2.2365 0
M  V30 9589 C 898.59 -6.22934 -1.35026 0
M  V30 9590 C 896.277 -5.80945 -1.89594 0
M  V30 9591 C 897.275 -6.67354 -1.45353 0
M  V30 9592 O 896.963 -7.96096 -1.11745 0
M  V30 9593 H 896.695 -0.54284 -0.402866 0
M  V30 9594 H 899.249 -1.95137 -0.641157 0
M  V30 9595 H 897.479 -2.19412 -3.18426 0
M  V30 9596 H 899.168 -2.60661 -3.11144 0
M  V30 9597 H 899.934 -4.57806 -1.6012 0
M  V30 9598 H 895.813 -3.8269 -2.5704 0
M  V30 9599 H 899.357 -6.90334 -1.00422 0
M  V30 9600 H 895.254 -6.14444 -1.9781 0
M  V30 9601 H 896.022 -8.08882 -1.25111 0
M  V30 9602 N 898.685 0.775411 -1.37205 0
M  V30 9603 C 899.618 1.8957 -1.27037 0
M  V30 9604 C 900.596 1.61891 -0.151643 0
M  V30 9605 O 901.78 1.85673 -0.325218 0
M  V30 9606 C 898.907 3.24712 -0.963316 0
M  V30 9607 C 897.953 3.71306 -2.09842 0
M  V30 9608 S 898.786 3.8541 -3.71778 0
M  V30 9609 C 899.942 5.23406 -3.43216 0
M  V30 9610 H 900.175 1.97905 -2.21857 0
M  V30 9611 H 897.708 0.936127 -1.22784 0
M  V30 9612 H 899.666 4.02768 -0.792983 0
M  V30 9613 H 898.327 3.14083 -0.0326561 0
M  V30 9614 H 897.52 4.69271 -1.83849 0
M  V30 9615 H 897.122 3.00341 -2.2287 0
M  V30 9616 H 899.414 6.08454 -2.97977 0
M  V30 9617 H 900.357 5.54409 -4.40495 0
M  V30 9618 H 900.765 4.9117 -2.78231 0
M  V30 9619 N 900.163 1.21714 1.00117 0
M  V30 9620 C 901.388 1.06357 1.78054 0
M  V30 9621 C 901.813 -0.382075 1.84179 0
M  V30 9622 O 901.171 -1.27575 1.28819 0
M  V30 9623 C 901.219 1.66982 3.19608 0
M  V30 9624 O 900.323 0.917892 4.02055 0
M  V30 9625 H 899.664 0.374074 0.548602 0
M  V30 9626 H 902.194 1.61338 1.25822 0
M  V30 9627 H 902.204 1.71363 3.70268 0
M  V30 9628 H 900.879 2.72185 3.14465 0
M  V30 9629 H 899.456 0.949473 3.6061 0
M  V30 9630 N 901.641 -1.19671 1.02551 0
M  V30 9631 C 902.573 -2.22215 0.561517 0
M  V30 9632 C 903.586 -1.58751 -0.360821 0
M  V30 9633 O 904.775 -1.77802 -0.157749 0
M  V30 9634 C 901.875 -3.383 -0.201494 0
M  V30 9635 C 901.048 -4.3135 0.724952 0
M  V30 9636 C 900.107 -5.26199 0.00794334 0
M  V30 9637 O 899.133 -5.65665 0.633398 0
M  V30 9638 N 900.335 -5.66573 -1.26394 0
M  V30 9639 H 903.1 -2.6265 1.44343 0
M  V30 9640 H 900.661 -1.34303 0.904122 0
M  V30 9641 H 902.653 -3.98764 -0.690625 0
M  V30 9642 H 901.223 -2.96683 -0.98479 0
M  V30 9643 H 900.443 -3.6872 1.39423 0
M  V30 9644 H 901.731 -4.90433 1.35472 0
M  V30 9645 H 901.129 -5.36538 -1.79287 0
M  V30 9646 H 899.686 -6.29304 -1.69763 0
M  V30 9647 N 903.119 -0.802921 -1.35613 0
M  V30 9648 C 904.53 -0.443004 -1.81368 0
M  V30 9649 C 904.881 1.03459 -1.66706 0
M  V30 9650 O 904.006 1.80372 -1.19561 0
M  V30 9651 C 904.601 -0.797324 -3.29284 0
M  V30 9652 C 903.16 -0.490055 -3.73196 0
M  V30 9653 C 902.307 -1.02487 -2.57666 0
M  V30 9654 H 905.258 -0.994888 -1.23643 0
M  V30 9655 H 905.279 -0.0934638 -3.80385 0
M  V30 9656 H 904.791 -1.87278 -3.39924 0
M  V30 9657 H 902.892 0.576818 -3.68108 0
M  V30 9658 H 903.005 -1.02012 -4.68114 0
M  V30 9659 H 901.369 -0.44738 -2.5074 0
M  V30 9660 H 902.152 -2.10636 -2.71085 0
M  V30 9661 N 904.597 1.47463 -0.556102 0
M  V30 9662 C 905.56 2.28478 0.181743 0
M  V30 9663 C 906.56 1.36886 0.843738 0
M  V30 9664 O 907.75 1.59527 0.69977 0
M  V30 9665 C 904.882 3.16534 1.26566 0
M  V30 9666 H 906.075 2.95182 -0.529892 0
M  V30 9667 H 903.628 1.53134 -0.313005 0
M  V30 9668 H 904.363 2.5452 2.00973 0
M  V30 9669 H 904.148 3.83939 0.795798 0
M  V30 9670 H 905.638 3.77579 1.78393 0
M  V30 9671 N 906.075 0.2925 1.54862 0
M  V30 9672 C 907.486 -0.201841 1.85606 0
M  V30 9673 C 907.837 -1.54093 1.21449 0
M  V30 9674 O 906.962 -2.10327 0.509079 0
M  V30 9675 C 907.557 -0.373011 3.3674 0
M  V30 9676 C 906.116 -0.811574 3.67547 0
M  V30 9677 C 905.263 0.0850583 2.7717 0
M  V30 9678 H 908.214 0.513774 1.50153 0
M  V30 9679 H 908.235 -1.20892 3.60785 0
M  V30 9680 H 907.747 0.601751 3.83407 0
M  V30 9681 H 905.848 -1.79719 3.26392 0
M  V30 9682 H 905.961 -0.636853 4.74848 0
M  V30 9683 H 904.325 -0.434224 2.50971 0
M  V30 9684 H 905.108 1.05602 3.26654 0
M  V30 9685 N 907.553 -1.57587 0.0200696 0
M  V30 9686 C 908.516 -2.08595 -0.949767 0
M  V30 9687 C 909.516 -0.999215 -1.25985 0
M  V30 9688 O 910.706 -1.26115 -1.2017 0
M  V30 9689 C 907.838 -2.54424 -2.26895 0
M  V30 9690 H 909.031 -2.95563 -0.508161 0
M  V30 9691 H 906.584 -1.54631 -0.227798 0
M  V30 9692 H 907.319 -1.70758 -2.75703 0
M  V30 9693 H 907.104 -3.3381 -2.05702 0
M  V30 9694 H 908.594 -2.94144 -2.96427 0
M  V30 9695 N 909.032 0.252966 -1.55557 0
M  V30 9696 C 909.995 1.29645 -1.8901 0
M  V30 9697 C 910.995 1.41378 -0.766096 0
M  V30 9698 O 912.185 1.40183 -1.03414 0
M  V30 9699 C 909.317 2.67504 -2.11316 0
M  V30 9700 H 910.51 1.01202 -2.82309 0
M  V30 9701 H 908.063 0.491977 -1.48355 0
M  V30 9702 H 908.798 3.01095 -1.20466 0
M  V30 9703 H 908.583 2.6037 -2.93172 0
M  V30 9704 H 910.073 3.42861 -2.38403 0
M  V30 9705 N 910.51 1.48831 0.518367 0
M  V30 9706 C 911.758 1.57128 1.27103 0
M  V30 9707 C 912.079 0.252098 1.93364 0
M  V30 9708 O 911.349 -0.727281 1.819 0
M  V30 9709 H 909.929 0.578891 0.472116 0
M  V30 9710 H 912.591 1.85361 0.602262 0
M  V30 9711 H 911.687 2.35838 2.04418 0
M  V30 9712 N 911.988 -0.768124 1.37614 0
M  V30 9713 C 913.399 -1.34462 1.29525 0
M  V30 9714 C 913.75 -1.96121 -0.0555168 0
M  V30 9715 O 912.875 -1.94069 -0.957406 0
M  V30 9716 C 913.47 -2.44475 2.34558 0
M  V30 9717 C 912.029 -2.97883 2.30093 0
M  V30 9718 C 911.176 -1.71131 2.18196 0
M  V30 9719 H 914.127 -0.568103 1.48183 0
M  V30 9720 H 914.148 -3.24047 1.99434 0
M  V30 9721 H 913.66 -1.99568 3.32858 0
M  V30 9722 H 911.761 -3.47156 1.35328 0
M  V30 9723 H 911.874 -3.53251 3.23652 0
M  V30 9724 H 910.238 -1.94197 1.64802 0
M  V30 9725 H 911.021 -1.28323 3.18415 0
M  V30 9726 N 913.466 -1.22244 -0.994698 0
M  V30 9727 C 914.696 -1.07062 -1.76695 0
M  V30 9728 C 915.104 0.381895 -1.85306 0
M  V30 9729 O 914.447 1.27648 -1.32105 0
M  V30 9730 C 914.509 -1.60487 -3.2169 0
M  V30 9731 C 914.173 -3.09079 -3.36629 0
M  V30 9732 C 915.17 -4.06526 -3.24088 0
M  V30 9733 C 912.855 -3.48497 -3.61739 0
M  V30 9734 C 914.849 -5.41377 -3.36437 0
M  V30 9735 C 912.536 -4.83498 -3.73729 0
M  V30 9736 C 913.534 -5.79747 -3.61086 0
M  V30 9737 O 913.222 -7.12297 -3.72678 0
M  V30 9738 H 912.954 -0.375963 -0.561807 0
M  V30 9739 H 915.508 -1.62259 -1.25941 0
M  V30 9740 H 913.738 -0.996957 -3.73628 0
M  V30 9741 H 915.427 -1.40994 -3.80625 0
M  V30 9742 H 916.193 -3.77415 -3.04602 0
M  V30 9743 H 912.072 -2.74106 -3.70657 0
M  V30 9744 H 915.616 -6.16485 -3.26485 0
M  V30 9745 H 911.513 -5.1229 -3.92721 0
M  V30 9746 H 912.281 -7.1985 -3.89562 0
M  V30 9747 N 914.944 1.19125 -1.03184 0
M  V30 9748 C 916.355 1.70564 -0.759264 0
M  V30 9749 C 916.706 1.8248 0.720794 0
M  V30 9750 O 915.831 1.49804 1.56166 0
M  V30 9751 C 916.426 3.09793 -1.37163 0
M  V30 9752 C 914.985 3.5848 -1.14757 0
M  V30 9753 C 914.132 2.35265 -1.46784 0
M  V30 9754 H 917.083 1.03925 -1.19939 0
M  V30 9755 H 917.104 3.72624 -0.77015 0
M  V30 9756 H 916.616 3.01088 -2.44882 0
M  V30 9757 H 914.717 3.72494 -0.0887182 0
M  V30 9758 H 914.83 4.42426 -1.83836 0
M  V30 9759 H 913.194 2.38747 -0.887254 0
M  V30 9760 H 913.977 2.29188 -2.55593 0
M  V30 9761 N 916.422 0.810101 1.35185 0
M  V30 9762 C 917.647 0.40364 2.03434 0
M  V30 9763 C 918.072 -0.97857 1.60641 0
M  V30 9764 O 917.43 -1.63435 0.784779 0
M  V30 9765 C 917.478 0.499154 3.57129 0
M  V30 9766 O 916.582 -0.486039 4.09526 0
M  V30 9767 H 915.923 0.168049 0.642383 0
M  V30 9768 H 918.453 1.09696 1.72708 0
M  V30 9769 H 918.463 0.370236 4.06317 0
M  V30 9770 H 917.138 1.50733 3.87624 0
M  V30 9771 H 915.715 -0.31707 3.7155 0
M  V30 9772 N 917.9 -1.47166 0.563914 0
M  V30 9773 C 918.833 -2.27058 -0.227989 0
M  V30 9774 C 919.811 -1.34468 -0.914179 0
M  V30 9775 O 920.995 -1.63857 -0.931829 0
M  V30 9776 C 918.122 -3.11689 -1.32543 0
M  V30 9777 C 917.168 -4.19906 -0.747084 0
M  V30 9778 S 918.001 -5.33916 0.41153 0
M  V30 9779 C 919.157 -6.22112 -0.687566 0
M  V30 9780 H 919.39 -2.93876 0.449939 0
M  V30 9781 H 916.923 -1.50372 0.350382 0
M  V30 9782 H 918.881 -3.61017 -1.95389 0
M  V30 9783 H 917.542 -2.44221 -1.97522 0
M  V30 9784 H 916.735 -4.78876 -1.57141 0
M  V30 9785 H 916.337 -3.73493 -0.194671 0
M  V30 9786 H 918.629 -6.58867 -1.578 0
M  V30 9787 H 919.572 -7.07971 -0.135058 0
M  V30 9788 H 919.98 -5.55871 -0.983255 0
M  V30 9789 N 919.378 -0.300708 -1.54705 0
M  V30 9790 C 920.789 0.191995 -1.8571 0
M  V30 9791 C 921.14 1.53447 -1.22264 0
M  V30 9792 O 920.265 2.10054 -0.520226 0
M  V30 9793 C 920.86 0.355148 -3.36933 0
M  V30 9794 C 919.419 0.792071 -3.67972 0
M  V30 9795 C 918.566 -0.099756 -2.77121 0
M  V30 9796 H 921.517 -0.521729 -1.49879 0
M  V30 9797 H 921.538 1.18977 -3.61421 0
M  V30 9798 H 921.05 -0.622075 -3.83082 0
M  V30 9799 H 919.151 1.77986 -3.27341 0
M  V30 9800 H 919.264 0.611661 -4.75179 0
M  V30 9801 H 917.628 0.420909 -2.51198 0
M  V30 9802 H 918.411 -1.07333 -3.2609 0
M  V30 9803 N 920.856 1.57574 -0.0284266 0
M  V30 9804 C 922.081 1.96479 0.664137 0
M  V30 9805 C 922.506 0.904826 1.64908 0
M  V30 9806 O 921.864 -0.134339 1.80802 0
M  V30 9807 C 921.912 3.34479 1.34745 0
M  V30 9808 O 921.016 3.30794 2.46271 0
M  V30 9809 H 920.357 0.640654 0.174524 0
M  V30 9810 H 922.887 2.04402 -0.0900729 0
M  V30 9811 H 922.897 3.70694 1.7044 0
M  V30 9812 H 921.572 4.1117 0.625468 0
M  V30 9813 H 920.149 3.06294 2.12693 0
M  V30 9814 N 922.334 -0.244713 1.55689 0
M  V30 9815 C 923.562 -0.989944 1.8168 0
M  V30 9816 C 923.977 -1.78863 0.604449 0
M  V30 9817 O 923.334 -1.77437 -0.426907 0
M  V30 9818 C 923.385 -1.92607 3.05916 0
M  V30 9819 O 923.106 -1.1597 4.22472 0
M  V30 9820 C 924.607 -2.78711 3.44724 0
M  V30 9821 H 921.827 -0.2912 0.604519 0
M  V30 9822 H 924.371 -0.266938 2.0275 0
M  V30 9823 H 922.526 -2.60333 2.8689 0
M  V30 9824 H 922.94 -1.79311 4.92898 0
M  V30 9825 H 924.414 -3.40141 4.34751 0
M  V30 9826 H 924.891 -3.49935 2.6541 0
M  V30 9827 H 925.497 -2.16435 3.66109 0
M  V30 9828 N 923.813 -1.49104 -0.510467 0
M  V30 9829 C 924.776 -1.64569 -1.59529 0
M  V30 9830 C 925.776 -0.517937 -1.5223 0
M  V30 9831 O 926.966 -0.784183 -1.55551 0
M  V30 9832 C 924.098 -1.6342 -2.99177 0
M  V30 9833 H 925.291 -2.61318 -1.4715 0
M  V30 9834 H 922.844 -1.37993 -0.734001 0
M  V30 9835 H 923.579 -0.68221 -3.17043 0
M  V30 9836 H 923.364 -2.45312 -3.05883 0
M  V30 9837 H 924.854 -1.77474 -3.78011 0
M  V30 9838 N 925.291 0.760815 -1.38019 0
M  V30 9839 C 926.254 1.85604 -1.34476 0
M  V30 9840 C 927.254 1.58897 -0.24666 0
M  V30 9841 O 928.444 1.66776 -0.50314 0
M  V30 9842 C 925.576 3.22945 -1.09176 0
M  V30 9843 H 926.769 1.90155 -2.31908 0
M  V30 9844 H 924.322 0.961746 -1.23208 0
M  V30 9845 H 925.057 3.24066 -0.123216 0
M  V30 9846 H 924.842 3.43723 -1.88672 0
M  V30 9847 H 926.332 4.03022 -1.09375 0
M  V30 9848 N 926.769 1.22769 0.988202 0
M  V30 9849 C 928.046 0.9635 1.70223 0
M  V30 9850 C 928.426 -0.520102 2.04593 0
M  V30 9851 O 927.774 -1.48934 1.73295 0
M  V30 9852 C 927.984 1.86583 2.94937 0
M  V30 9853 C 929.332 2.12469 3.67616 0
M  V30 9854 O 930.356 1.84069 3.04954 0
M  V30 9855 O 929.215 2.60595 4.80367 0
M  V30 9856 H 926.309 0.362737 0.743203 0
M  V30 9857 H 928.855 1.33776 1.04412 0
M  V30 9858 H 927.627 2.86913 2.66077 0
M  V30 9859 H 927.25 1.49344 3.68486 0
M  V30 9860 N 928.247 -1.18576 1.03814 0
M  V30 9861 C 929.658 -1.70159 0.768299 0
M  V30 9862 C 930.009 -1.8286 -0.711106 0
M  V30 9863 O 929.134 -1.5063 -1.55369 0
M  V30 9864 C 929.729 -3.09062 1.38804 0
M  V30 9865 C 928.288 -3.57866 1.16656 0
M  V30 9866 C 927.435 -2.34484 1.48029 0
M  V30 9867 H 930.386 -1.03287 1.20488 0
M  V30 9868 H 930.407 -3.72211 0.7899 0
M  V30 9869 H 929.919 -2.99785 2.46476 0
M  V30 9870 H 928.02 -3.72442 0.108471 0
M  V30 9871 H 928.133 -4.41445 1.8618 0
M  V30 9872 H 926.497 -2.38273 0.899902 0
M  V30 9873 H 927.28 -2.27829 2.56805 0
M  V30 9874 N 929.725 -0.817259 -1.34754 0
M  V30 9875 C 930.95 -0.414423 -2.03217 0
M  V30 9876 C 931.375 0.970037 -1.61158 0
M  V30 9877 O 930.733 1.63016 -0.793436 0
M  V30 9878 C 930.781 -0.518087 -3.56859 0
M  V30 9879 O 929.885 0.464314 -4.09778 0
M  V30 9880 H 929.226 -0.171454 -0.641482 0
M  V30 9881 H 931.756 -1.10611 -1.72123 0
M  V30 9882 H 931.766 -0.391779 -4.06115 0
M  V30 9883 H 930.441 -1.52786 -3.86819 0
M  V30 9884 H 929.018 0.297361 -3.71712 0
M  V30 9885 N 931.203 1.46865 -0.571711 0
M  V30 9886 C 932.136 2.27176 0.215944 0
M  V30 9887 C 933.114 1.34951 0.907035 0
M  V30 9888 O 934.298 1.64349 0.923127 0
M  V30 9889 C 931.425 3.12388 1.30888 0
M  V30 9890 C 930.471 4.20296 0.724804 0
M  V30 9891 S 931.304 5.33691 -0.439839 0
M  V30 9892 C 932.46 6.22468 0.654564 0
M  V30 9893 H 932.693 2.93633 -0.465518 0
M  V30 9894 H 930.226 1.50184 -0.358351 0
M  V30 9895 H 932.184 3.62049 1.93471 0
M  V30 9896 H 930.845 2.45265 1.96224 0
M  V30 9897 H 930.038 4.79703 1.54599 0
M  V30 9898 H 929.64 3.73591 0.174861 0
M  V30 9899 H 931.932 6.59694 1.54304 0
M  V30 9900 H 932.875 7.08033 0.0975111 0
M  V30 9901 H 933.283 5.56384 0.953762 0
M  V30 9902 N 932.681 0.308908 1.54543 0
M  V30 9903 C 933.927 -0.298478 2.00592 0
M  V30 9904 C 934.26 -1.52929 1.19692 0
M  V30 9905 O 933.535 -1.9254 0.27542 0
M  V30 9906 C 933.818 -0.647218 3.54236 0
M  V30 9907 C 933.671 0.593284 4.4587 0
M  V30 9908 C 934.99 -1.47064 4.14801 0
M  V30 9909 H 932.109 -0.107012 0.72919 0
M  V30 9910 H 934.751 0.422578 1.85241 0
M  V30 9911 H 932.901 -1.26153 3.67447 0
M  V30 9912 H 934.573 1.2317 4.44552 0
M  V30 9913 H 932.816 1.22501 4.16144 0
M  V30 9914 H 933.487 0.305018 5.51157 0
M  V30 9915 H 935.963 -0.951511 4.05075 0
M  V30 9916 H 934.839 -1.68343 5.22448 0
M  V30 9917 H 935.1 -2.4623 3.67183 0
M  V30 9918 N 934.159 -1.57557 0.0367827 0
M  V30 9919 C 935.384 -1.96828 -0.653707 0
M  V30 9920 C 935.809 -0.913559 -1.64425 0
M  V30 9921 O 935.167 0.124749 -1.8087 0
M  V30 9922 C 935.215 -3.35189 -1.32969 0
M  V30 9923 O 934.319 -3.32095 -2.44513 0
M  V30 9924 H 933.66 -0.64157 -0.171124 0
M  V30 9925 H 936.19 -2.04351 0.100912 0
M  V30 9926 H 936.2 -3.71593 -1.68472 0
M  V30 9927 H 934.875 -4.11496 -0.603654 0
M  V30 9928 H 933.452 -3.07418 -2.11065 0
M  V30 9929 N 935.637 0.236453 -1.55816 0
M  V30 9930 C 936.6 1.27633 -1.90375 0
M  V30 9931 C 937.6 1.40557 -0.781048 0
M  V30 9932 O 938.79 1.39078 -1.04895 0
M  V30 9933 C 935.922 2.65247 -2.14142 0
M  V30 9934 H 937.115 0.982019 -2.83366 0
M  V30 9935 H 934.668 0.476215 -1.48869 0
M  V30 9936 H 935.403 2.99801 -1.23653 0
M  V30 9937 H 935.188 2.57246 -2.95917 0
M  V30 9938 H 936.678 3.40313 -2.42026 0
M  V30 9939 N 937.115 1.49373 0.502552 0
M  V30 9940 C 938.345 1.62252 1.27898 0
M  V30 9941 C 938.753 0.292555 1.86924 0
M  V30 9942 O 938.096 -0.731823 1.68493 0
M  V30 9943 C 938.158 2.63153 2.4493 0
M  V30 9944 C 937.822 4.07541 2.06784 0
M  V30 9945 C 938.819 4.94392 1.60849 0
M  V30 9946 C 936.504 4.53263 2.16466 0
M  V30 9947 C 938.498 6.25003 1.25098 0
M  V30 9948 C 936.185 5.83888 1.80327 0
M  V30 9949 C 937.183 6.69582 1.34718 0
M  V30 9950 O 936.871 7.97773 0.990661 0
M  V30 9951 H 936.603 0.54918 0.394179 0
M  V30 9952 H 939.157 1.96132 0.610031 0
M  V30 9953 H 937.387 2.2445 3.14895 0
M  V30 9954 H 939.076 2.65578 3.06957 0
M  V30 9955 H 939.842 4.60296 1.52816 0
M  V30 9956 H 935.721 3.86731 2.50919 0
M  V30 9957 H 939.265 6.91844 0.894269 0
M  V30 9958 H 935.162 6.17513 1.8801 0
M  V30 9959 H 935.93 8.1077 1.12227 0
M  V30 9960 N 938.594 -0.753485 1.38421 0
M  V30 9961 C 939.527 -1.87525 1.30037 0
M  V30 9962 C 940.505 -1.6163 0.177379 0
M  V30 9963 O 941.689 -1.85132 0.354716 0
M  V30 9964 C 938.816 -3.23138 1.01485 0
M  V30 9965 C 937.862 -3.67921 2.15723 0
M  V30 9966 S 938.695 -3.79447 3.77863 0
M  V30 9967 C 939.851 -5.17879 3.51499 0
M  V30 9968 H 940.084 -1.94351 2.24978 0
M  V30 9969 H 937.617 -0.916475 1.24258 0
M  V30 9970 H 939.575 -4.01455 0.856959 0
M  V30 9971 H 938.236 -3.13991 0.0826199 0
M  V30 9972 H 937.429 -4.66287 1.91292 0
M  V30 9973 H 937.031 -2.96758 2.2762 0
M  V30 9974 H 939.323 -6.03636 3.0762 0
M  V30 9975 H 940.266 -5.47331 4.49259 0
M  V30 9976 H 940.674 -4.86681 2.8601 0
M  V30 9977 N 940.072 -1.23292 -0.981677 0
M  V30 9978 C 941.302 -1.0893 -1.7555 0
M  V30 9979 C 941.71 0.362219 -1.857 0
M  V30 9980 O 941.053 1.2624 -1.33451 0
M  V30 9981 C 941.115 -1.6389 -3.19969 0
M  V30 9982 C 940.779 -3.12632 -3.33332 0
M  V30 9983 C 941.776 -4.0994 -3.19758 0
M  V30 9984 C 939.461 -3.52314 -3.58022 0
M  V30 9985 C 941.455 -5.44915 -3.30676 0
M  V30 9986 C 939.142 -4.87434 -3.6858 0
M  V30 9987 C 940.14 -5.83544 -3.54916 0
M  V30 9988 O 939.828 -7.16209 -3.65102 0
M  V30 9989 H 939.56 -0.381901 -0.557788 0
M  V30 9990 H 942.114 -1.63586 -1.24213 0
M  V30 9991 H 940.344 -1.03653 -3.72549 0
M  V30 9992 H 942.033 -1.45023 -3.79108 0
M  V30 9993 H 942.799 -3.80625 -3.00582 0
M  V30 9994 H 938.678 -2.78022 -3.67729 0
M  V30 9995 H 942.222 -6.19913 -3.19928 0
M  V30 9996 H 938.119 -5.16426 -3.87265 0
M  V30 9997 H 938.887 -7.23941 -3.81905 0
M  V30 9998 N 941.55 1.18024 -1.04442 0
M  V30 9999 C 942.961 1.69749 -0.777312 0
M  V30 10000 C 943.312 1.83234 0.701399 0
M  V30 10001 O 942.437 1.51452 1.54568 0
M  V30 10002 C 943.032 3.08321 -1.40441 0
M  V30 10003 C 941.591 3.57243 -1.18553 0
M  V30 10004 C 940.738 2.33695 -1.49271 0
M  V30 10005 H 943.689 1.02647 -1.21035 0
M  V30 10006 H 943.71 3.71787 -0.809628 0
M  V30 10007 H 943.222 2.98474 -2.48062 0
M  V30 10008 H 941.323 3.72379 -0.128221 0
M  V30 10009 H 941.436 4.40451 -1.88519 0
M  V30 10010 H 939.8 2.37792 -0.912526 0
M  V30 10011 H 940.583 2.26464 -2.5801 0
M  V30 10012 N 943.028 0.824394 1.34319 0
M  V30 10013 C 943.991 0.252696 2.27803 0
M  V30 10014 C 944.991 -0.570254 1.50349 0
M  V30 10015 O 946.181 -0.386145 1.69866 0
M  V30 10016 C 943.313 -0.645575 3.34731 0
M  V30 10017 H 944.506 1.07742 2.79878 0
M  V30 10018 H 942.059 0.596367 1.44475 0
M  V30 10019 H 942.794 -1.4933 2.87873 0
M  V30 10020 H 942.579 -0.0569478 3.92059 0
M  V30 10021 H 944.069 -1.03933 4.0446 0
M  V30 10022 N 944.506 -1.46559 0.579492 0
M  V30 10023 C 945.754 -2.02 0.0637157 0
M  V30 10024 C 946.075 -1.45378 -1.29962 0
M  V30 10025 O 945.345 -0.637262 -1.85245 0
M  V30 10026 H 943.925 -0.746717 0.0205638 0
M  V30 10027 H 946.587 -1.79702 0.754544 0
M  V30 10028 H 945.683 -3.12099 -0.00770254 0
M  V30 10029 N 945.984 -0.3171 -1.54377 0
M  V30 10030 C 946.947 0.53905 -2.22771 0
M  V30 10031 C 947.947 1.04865 -1.21901 0
M  V30 10032 O 949.137 0.942108 -1.46526 0
M  V30 10033 C 946.269 1.74804 -2.92671 0
M  V30 10034 H 947.462 -0.0587417 -2.99842 0
M  V30 10035 H 945.015 -0.068107 -1.56152 0
M  V30 10036 H 945.75 2.38524 -2.1972 0
M  V30 10037 H 945.535 1.39011 -3.66631 0
M  V30 10038 H 947.025 2.35592 -3.44799 0
M  V30 10039 N 947.462 1.57535 -0.0451378 0
M  V30 10040 C 948.69 1.96761 0.639742 0
M  V30 10041 C 949.105 0.922405 1.64734 0
M  V30 10042 O 948.462 -0.0940535 1.82257 0
M  V30 10043 C 948.513 3.36066 1.33199 0
M  V30 10044 O 948.234 4.36579 0.364757 0
M  V30 10045 C 949.735 3.90015 2.1072 0
M  V30 10046 H 946.955 0.64769 0.175324 0
M  V30 10047 H 949.499 2.04206 -0.109651 0
M  V30 10048 H 947.654 3.2979 2.03266 0
M  V30 10049 H 948.068 5.17432 0.858168 0
M  V30 10050 H 949.542 4.89785 2.54586 0
M  V30 10051 H 950.019 3.25117 2.95288 0
M  V30 10052 H 950.625 3.99609 1.45577 0
M  V30 10053 N 948.94 -0.228186 1.55939 0
M  V30 10054 C 950.188 -0.951668 1.78291 0
M  V30 10055 C 950.509 -1.85132 0.612474 0
M  V30 10056 O 949.779 -1.92356 -0.370942 0
M  V30 10057 H 948.359 -0.354388 0.657585 0
M  V30 10058 H 951.021 -0.241635 1.93396 0
M  V30 10059 H 950.117 -1.56239 2.70177 0
M  V30 10060 N 950.418 -1.49637 -0.494624 0
M  V30 10061 C 951.381 -1.66252 -1.57775 0
M  V30 10062 C 952.381 -0.534054 -1.51672 0
M  V30 10063 O 953.571 -0.800637 -1.54711 0
M  V30 10064 C 950.703 -1.66584 -2.97426 0
M  V30 10065 H 951.896 -2.62864 -1.4437 0
M  V30 10066 H 949.449 -1.38764 -0.719323 0
M  V30 10067 H 950.184 -0.715798 -3.16302 0
M  V30 10068 H 949.969 -2.48543 -3.03264 0
M  V30 10069 H 951.459 -1.81474 -3.76108 0
M  V30 10070 N 951.896 0.746133 -1.38819 0
M  V30 10071 C 952.828 1.86991 -1.3254 0
M  V30 10072 C 953.841 1.61077 -0.236216 0
M  V30 10073 O 955.03 1.71518 -0.494341 0
M  V30 10074 C 952.13 3.22786 -1.03258 0
M  V30 10075 C 951.303 3.76145 -2.23234 0
M  V30 10076 C 950.362 4.90474 -1.90581 0
M  V30 10077 O 949.388 5.04717 -2.63153 0
M  V30 10078 N 950.59 5.74015 -0.86525 0
M  V30 10079 H 953.355 1.92885 -2.2938 0
M  V30 10080 H 950.916 0.926392 -1.32776 0
M  V30 10081 H 952.908 3.96824 -0.794533 0
M  V30 10082 H 951.478 3.12231 -0.151895 0
M  V30 10083 H 950.698 2.93587 -2.63059 0
M  V30 10084 H 951.986 4.08528 -3.03285 0
M  V30 10085 H 951.384 5.65086 -0.263577 0
M  V30 10086 H 949.941 6.48168 -0.687087 0
M  V30 10087 N 953.375 1.23811 0.975125 0
M  V30 10088 C 954.338 1.02505 2.05001 0
M  V30 10089 C 955.338 -0.0150084 1.60793 0
M  V30 10090 O 956.528 0.225246 1.72738 0
M  V30 10091 C 953.66 0.552087 3.364 0
M  V30 10092 H 954.853 1.979 2.25335 0
M  V30 10093 H 952.406 1.05929 1.1493 0
M  V30 10094 H 953.141 -0.405394 3.21756 0
M  V30 10095 H 952.926 1.30267 3.69828 0
M  V30 10096 H 954.416 0.423828 4.15444 0
M  V30 10097 N 954.853 -1.17469 1.05066 0
M  V30 10098 C 955.816 -2.19648 0.654793 0
M  V30 10099 C 956.816 -1.58107 -0.293063 0
M  V30 10100 O 958.006 -1.74029 -0.077106 0
M  V30 10101 C 955.138 -3.40878 -0.0384437 0
M  V30 10102 H 956.331 -2.56184 1.55915 0
M  V30 10103 H 953.884 -1.31528 0.844396 0
M  V30 10104 H 954.619 -3.09885 -0.956133 0
M  V30 10105 H 954.404 -3.86792 0.642961 0
M  V30 10106 H 955.894 -4.1651 -0.301568 0
M  V30 10107 N 956.331 -0.831506 -1.3388 0
M  V30 10108 C 957.742 -0.481375 -1.80388 0
M  V30 10109 C 958.093 0.998993 -1.68863 0
M  V30 10110 O 957.218 1.77795 -1.2336 0
M  V30 10111 C 957.813 -0.86699 -3.27519 0
M  V30 10112 C 956.372 -0.569105 -3.72073 0
M  V30 10113 C 955.519 -1.07929 -2.55434 0
M  V30 10114 H 958.47 -1.02089 -1.21505 0
M  V30 10115 H 958.491 -0.174128 -3.80101 0
M  V30 10116 H 958.003 -1.94447 -3.35875 0
M  V30 10117 H 956.104 0.498607 -3.69249 0
M  V30 10118 H 956.217 -1.11918 -4.65845 0
M  V30 10119 H 954.581 -0.500465 -2.49735 0
M  V30 10120 H 955.364 -2.16339 -2.66556 0
M  V30 10121 N 957.809 1.4625 -0.587256 0
M  V30 10122 C 958.741 2.28482 0.181256 0
M  V30 10123 C 959.754 1.38777 0.851163 0
M  V30 10124 O 960.943 1.63336 0.719963 0
M  V30 10125 C 958.043 3.13944 1.27643 0
M  V30 10126 C 957.216 4.31802 0.697569 0
M  V30 10127 C 956.275 4.98626 1.68102 0
M  V30 10128 O 955.301 5.56075 1.21529 0
M  V30 10129 N 956.503 4.96051 3.0152 0
M  V30 10130 H 959.268 2.95079 -0.524267 0
M  V30 10131 H 956.829 1.56213 -0.425336 0
M  V30 10132 H 958.821 3.55513 1.93371 0
M  V30 10133 H 957.391 2.49391 1.88475 0
M  V30 10134 H 956.611 3.93961 -0.137293 0
M  V30 10135 H 957.899 5.07969 0.290696 0
M  V30 10136 H 957.297 4.5063 3.41978 0
M  V30 10137 H 955.854 5.41547 3.62725 0
M  V30 10138 N 959.287 0.325282 1.54207 0
M  V30 10139 C 960.25 -0.527228 2.23054 0
M  V30 10140 C 961.25 -1.04217 1.22456 0
M  V30 10141 O 962.44 -0.934325 1.47024 0
M  V30 10142 C 959.572 -1.7325 2.93594 0
M  V30 10143 H 960.765 0.0746423 2.99807 0
M  V30 10144 H 958.318 0.0763872 1.56113 0
M  V30 10145 H 959.053 -2.37356 2.20981 0
M  V30 10146 H 958.838 -1.37065 3.67363 0
M  V30 10147 H 960.328 -2.3376 3.46043 0
M  V30 10148 N 960.765 -1.57509 0.0534917 0
M  V30 10149 C 961.697 -2.08616 -0.949322 0
M  V30 10150 C 962.71 -1.01446 -1.27328 0
M  V30 10151 O 963.899 -1.29007 -1.23367 0
M  V30 10152 C 960.999 -2.51622 -2.27024 0
M  V30 10153 C 960.172 -3.82154 -2.12785 0
M  V30 10154 C 959.231 -4.11448 -3.2802 0
M  V30 10155 O 958.257 -4.81333 -3.03822 0
M  V30 10156 N 959.459 -3.63543 -4.52567 0
M  V30 10157 H 962.224 -2.95275 -0.5131 0
M  V30 10158 H 959.785 -1.61355 -0.132693 0
M  V30 10159 H 961.777 -2.68293 -3.02986 0
M  V30 10160 H 960.347 -1.70198 -2.62205 0
M  V30 10161 H 959.567 -3.75041 -1.21399 0
M  V30 10162 H 960.855 -4.67629 -2.00501 0
M  V30 10163 H 960.253 -3.07051 -4.75117 0
M  V30 10164 H 958.81 -3.85448 -5.25617 0
M  V30 10165 N 962.243 0.219913 -1.56058 0
M  V30 10166 C 963.206 1.25606 -1.91718 0
M  V30 10167 C 964.206 1.39721 -0.795912 0
M  V30 10168 O 965.396 1.37958 -1.06364 0
M  V30 10169 C 962.528 2.62961 -2.16943 0
M  V30 10170 H 963.721 0.951909 -2.84392 0
M  V30 10171 H 961.274 0.460398 -1.49365 0
M  V30 10172 H 962.009 2.98472 -1.26826 0
M  V30 10173 H 961.794 2.54093 -2.98629 0
M  V30 10174 H 963.284 3.37727 -2.45622 0
M  V30 10175 N 963.721 1.49897 0.486681 0
M  V30 10176 C 964.969 1.59789 1.23742 0
M  V30 10177 C 965.29 0.293056 1.92785 0
M  V30 10178 O 964.56 -0.688534 1.83401 0
M  V30 10179 H 963.14 0.588775 0.459731 0
M  V30 10180 H 965.802 1.86597 0.562808 0
M  V30 10181 H 964.898 2.40121 1.9937 0
M  V30 10182 N 965.199 -0.738761 1.39212 0
M  V30 10183 C 966.61 -1.31684 1.32348 0
M  V30 10184 C 966.961 -1.96195 -0.0139041 0
M  V30 10185 O 966.086 -1.96056 -0.916025 0
M  V30 10186 C 966.681 -2.39444 2.39691 0
M  V30 10187 C 965.24 -2.92935 2.36359 0
M  V30 10188 C 964.387 -1.66465 2.21776 0
M  V30 10189 H 967.338 -0.536543 1.49355 0
M  V30 10190 H 967.359 -3.19744 2.06262 0
M  V30 10191 H 966.871 -1.92463 3.37016 0
M  V30 10192 H 964.972 -3.44207 1.42662 0
M  V30 10193 H 965.085 -3.46306 3.31073 0
M  V30 10194 H 963.449 -1.90657 1.68884 0
M  V30 10195 H 964.232 -1.21541 3.21065 0
M  V30 10196 N 966.677 -1.24326 -0.968545 0
M  V30 10197 C 967.905 -1.10947 -1.74638 0
M  V30 10198 C 968.32 0.338064 -1.85749 0
M  V30 10199 O 967.677 1.23331 -1.3452 0
M  V30 10200 C 967.728 -1.74254 -3.1673 0
M  V30 10201 O 967.449 -3.13347 -3.06178 0
M  V30 10202 C 968.95 -1.66473 -4.10855 0
M  V30 10203 H 966.17 -0.38767 -0.547679 0
M  V30 10204 H 968.714 -1.64415 -1.21605 0
M  V30 10205 H 966.869 -1.2479 -3.66751 0
M  V30 10206 H 967.283 -3.44255 -3.95713 0
M  V30 10207 H 968.757 -2.15452 -5.08217 0
M  V30 10208 H 969.234 -0.625785 -4.34719 0
M  V30 10209 H 969.84 -2.15359 -3.66743 0
M  V30 10210 N 968.156 1.1691 -1.05688 0
M  V30 10211 C 969.119 2.19297 -0.666433 0
M  V30 10212 C 970.119 1.5826 0.284674 0
M  V30 10213 O 971.309 1.74068 0.0678757 0
M  V30 10214 C 968.441 3.40894 0.0203656 0
M  V30 10215 H 969.634 2.55354 -1.57272 0
M  V30 10216 H 967.187 1.31078 -0.851359 0
M  V30 10217 H 967.922 3.10388 0.939686 0
M  V30 10218 H 967.707 3.86446 -0.663464 0
M  V30 10219 H 969.197 4.16664 0.279475 0
M  V30 10220 N 969.634 0.838594 1.33437 0
M  V30 10221 C 970.859 0.446701 2.02532 0
M  V30 10222 C 971.284 -0.944275 1.62681 0
M  V30 10223 O 970.642 -1.61733 0.81927 0
M  V30 10224 C 970.69 0.574794 3.55989 0
M  V30 10225 O 969.794 -0.399063 4.10465 0
M  V30 10226 H 969.135 0.181637 0.638674 0
M  V30 10227 H 971.665 1.13335 1.70342 0
M  V30 10228 H 971.675 0.456339 4.0544 0
M  V30 10229 H 970.35 1.58921 3.8434 0
M  V30 10230 H 968.927 -0.238187 3.72139 0
M  V30 10231 N 971.112 -1.45937 0.595003 0
M  V30 10232 C 972.523 -1.85908 0.171779 0
M  V30 10233 C 972.874 -1.497 -1.26824 0
M  V30 10234 O 971.999 -0.917688 -1.95978 0
M  V30 10235 C 972.594 -3.37425 0.304976 0
M  V30 10236 C 971.153 -3.76346 -0.0634635 0
M  V30 10237 C 970.3 -2.69926 0.635255 0
M  V30 10238 H 973.251 -1.36916 0.802471 0
M  V30 10239 H 973.272 -3.77632 -0.466313 0
M  V30 10240 H 972.784 -3.63747 1.35314 0
M  V30 10241 H 970.885 -3.55642 -1.11129 0
M  V30 10242 H 970.998 -4.78021 0.321419 0
M  V30 10243 H 969.362 -2.54592 0.0742054 0
M  V30 10244 H 970.145 -2.99086 1.68531 0
M  V30 10245 N 972.59 -0.333456 -1.54032 0
M  V30 10246 C 973.553 0.515392 -2.2333 0
M  V30 10247 C 974.553 1.03566 -1.23007 0
M  V30 10248 O 975.743 0.926514 -1.47517 0
M  V30 10249 C 972.875 1.7169 -2.94508 0
M  V30 10250 H 974.068 -0.0905407 -2.99763 0
M  V30 10251 H 971.621 -0.0846651 -1.56071 0
M  V30 10252 H 972.356 2.3618 -2.22237 0
M  V30 10253 H 972.141 1.35115 -3.68085 0
M  V30 10254 H 973.631 2.31922 -3.47278 0
M  V30 10255 N 974.068 1.57479 -0.061844 0
M  V30 10256 C 975.298 1.97142 0.61794 0
M  V30 10257 C 975.706 0.938533 1.64281 0
M  V30 10258 O 975.049 -0.084385 1.83506 0
M  V30 10259 C 975.111 3.33083 1.35263 0
M  V30 10260 C 974.775 4.54447 0.482372 0
M  V30 10261 C 975.772 5.1927 -0.255954 0
M  V30 10262 C 973.457 5.00623 0.410167 0
M  V30 10263 C 975.451 6.28612 -1.05481 0
M  V30 10264 C 973.138 6.09839 -0.392369 0
M  V30 10265 C 974.136 6.73696 -1.12354 0
M  V30 10266 O 973.824 7.80811 -1.91285 0
M  V30 10267 H 973.556 0.653497 0.172969 0
M  V30 10268 H 976.11 2.05002 -0.127781 0
M  V30 10269 H 974.34 3.21808 2.14421 0
M  V30 10270 H 976.029 3.5742 1.92368 0
M  V30 10271 H 976.795 4.84546 -0.209703 0
M  V30 10272 H 972.674 4.50704 0.968883 0
M  V30 10273 H 976.218 6.78385 -1.62602 0
M  V30 10274 H 972.115 6.43997 -0.44022 0
M  V30 10275 H 972.883 7.9764 -1.83611 0
M  V30 10276 N 975.546 -0.211634 1.56173 0
M  V30 10277 C 976.771 -0.955324 1.84088 0
M  V30 10278 C 977.196 -1.76754 0.643407 0
M  V30 10279 O 976.554 -1.76653 -0.407842 0
M  V30 10280 C 976.602 -1.84063 3.10085 0
M  V30 10281 O 975.706 -2.9373 2.89476 0
M  V30 10282 H 975.047 -0.26996 0.606645 0
M  V30 10283 H 977.577 -0.221947 2.03393 0
M  V30 10284 H 977.587 -2.24852 3.40449 0
M  V30 10285 H 976.262 -1.24373 3.96868 0
M  V30 10286 H 974.839 -2.56816 2.7037 0
M  V30 10287 N 977.024 -1.50153 -0.478725 0
M  V30 10288 C 978.249 -1.64776 -1.2595 0
M  V30 10289 C 978.674 -0.327794 -1.85222 0
M  V30 10290 O 978.032 0.707418 -1.66929 0
M  V30 10291 C 978.08 -2.73551 -2.34952 0
M  V30 10292 O 977.184 -2.34273 -3.39397 0
M  V30 10293 H 976.525 -0.550769 -0.370877 0
M  V30 10294 H 979.055 -1.96482 -0.570605 0
M  V30 10295 H 979.065 -2.96397 -2.8038 0
M  V30 10296 H 977.74 -3.69354 -1.91181 0
M  V30 10297 H 976.317 -2.21844 -2.99733 0
M  V30 10298 N 978.502 0.731368 -1.39602 0
M  V30 10299 C 979.732 1.51839 -1.40102 0
M  V30 10300 C 980.14 1.89199 0.00526634 0
M  V30 10301 O 979.483 1.54877 0.987874 0
M  V30 10302 C 979.545 2.83292 -2.21328 0
M  V30 10303 C 979.209 2.68345 -3.69919 0
M  V30 10304 C 980.206 2.36651 -4.62917 0
M  V30 10305 C 977.891 2.85102 -4.13548 0
M  V30 10306 C 979.885 2.21901 -5.97527 0
M  V30 10307 C 977.572 2.69971 -5.48233 0
M  V30 10308 C 978.57 2.38416 -6.40037 0
M  V30 10309 O 978.258 2.23383 -7.72241 0
M  V30 10310 H 977.99 0.475695 -0.480302 0
M  V30 10311 H 980.544 0.911096 -1.84087 0
M  V30 10312 H 978.774 3.46294 -1.72096 0
M  V30 10313 H 980.463 3.44928 -2.13961 0
M  V30 10314 H 981.229 2.23352 -4.3051 0
M  V30 10315 H 977.108 3.08655 -3.42423 0
M  V30 10316 H 980.652 1.97193 -6.69149 0
M  V30 10317 H 976.549 2.82849 -5.8023 0
M  V30 10318 H 977.317 2.38425 -7.83004 0
M  V30 10319 N 979.98 1.24838 0.961938 0
M  V30 10320 C 980.912 1.00369 2.06055 0
M  V30 10321 C 981.925 -0.0288583 1.62774 0
M  V30 10322 O 983.114 0.208853 1.77274 0
M  V30 10323 C 980.214 0.493953 3.35281 0
M  V30 10324 C 979.387 1.59097 4.07439 0
M  V30 10325 C 978.446 1.08288 5.14937 0
M  V30 10326 O 977.472 1.77577 5.40791 0
M  V30 10327 N 978.674 -0.0796836 5.80445 0
M  V30 10328 H 981.439 1.94962 2.27618 0
M  V30 10329 H 979 1.15945 1.12997 0
M  V30 10330 H 980.992 0.138675 4.04462 0
M  V30 10331 H 979.562 -0.357851 3.10545 0
M  V30 10332 H 978.782 2.11817 3.32456 0
M  V30 10333 H 980.07 2.32817 4.52409 0
M  V30 10334 H 979.468 -0.658827 5.6185 0
M  V30 10335 H 978.025 -0.376057 6.50714 0
M  V30 10336 N 981.458 -1.16348 1.06306 0
M  V30 10337 C 982.869 -1.68491 0.80422 0
M  V30 10338 C 983.22 -1.84327 -0.672159 0
M  V30 10339 O 982.345 -1.53892 -1.52139 0
M  V30 10340 C 982.94 -3.06048 1.45328 0
M  V30 10341 C 981.499 -3.55311 1.24221 0
M  V30 10342 C 980.646 -2.31291 1.5297 0
M  V30 10343 H 983.597 -1.00708 1.22652 0
M  V30 10344 H 983.618 -3.70451 0.868674 0
M  V30 10345 H 983.13 -2.9449 2.52779 0
M  V30 10346 H 981.231 -3.72128 0.187447 0
M  V30 10347 H 981.344 -4.37397 1.95502 0
M  V30 10348 H 979.708 -2.3631 0.950241 0
M  V30 10349 H 980.491 -2.22331 2.6158 0
M  V30 10350 N 982.937 -0.845659 -1.3299 0
M  V30 10351 C 984.165 -0.45835 -2.01759 0
M  V30 10352 C 984.58 0.94239 -1.63598 0
M  V30 10353 O 983.937 1.61353 -0.852738 0
M  V30 10354 C 983.988 -0.577311 -3.5686 0
M  V30 10355 O 983.709 -1.92287 -3.93646 0
M  V30 10356 C 985.21 -0.187839 -4.42902 0
M  V30 10357 H 982.43 -0.181165 -0.646081 0
M  V30 10358 H 984.974 -1.14011 -1.6977 0
M  V30 10359 H 983.129 0.0566146 -3.87359 0
M  V30 10360 H 983.543 -1.91322 -4.88361 0
M  V30 10361 H 985.017 -0.322105 -5.51059 0
M  V30 10362 H 985.494 0.870896 -4.30479 0
M  V30 10363 H 986.1 -0.796473 -4.17776 0
M  V30 10364 N 984.415 1.45619 -0.602734 0
M  V30 10365 C 985.826 1.85814 -0.181636 0
M  V30 10366 C 986.177 1.5037 1.26029 0
M  V30 10367 O 985.302 0.928068 1.95489 0
M  V30 10368 C 985.897 3.37258 -0.322866 0
M  V30 10369 C 984.456 3.76375 0.043504 0
M  V30 10370 C 983.603 2.69585 -0.649561 0
M  V30 10371 H 986.554 1.36489 -0.809721 0
M  V30 10372 H 986.575 3.77874 0.446279 0
M  V30 10373 H 986.087 3.63024 -1.37241 0
M  V30 10374 H 984.188 3.56226 1.09241 0
M  V30 10375 H 984.301 4.77843 -0.346765 0
M  V30 10376 H 982.665 2.54549 -0.087706 0
M  V30 10377 H 983.448 2.98188 -1.70115 0
M  V30 10378 N 985.893 0.34162 1.53853 0
M  V30 10379 C 987.121 -0.256929 2.05299 0
M  V30 10380 C 987.536 -1.44366 1.21671 0
M  V30 10381 O 986.893 -1.80758 0.251584 0
M  V30 10382 C 986.944 -0.673854 3.55164 0
M  V30 10383 O 986.665 0.465687 4.35618 0
M  V30 10384 C 988.166 -1.33332 4.22773 0
M  V30 10385 H 985.386 -0.0499445 0.669139 0
M  V30 10386 H 987.93 0.493048 1.98467 0
M  V30 10387 H 986.085 -1.37378 3.62224 0
M  V30 10388 H 986.499 0.133723 5.2433 0
M  V30 10389 H 987.973 -1.57582 5.29029 0
M  V30 10390 H 988.45 -2.28628 3.75001 0
M  V30 10391 H 989.056 -0.675489 4.19901 0
M  V30 10392 N 987.371 -1.57444 0.0701946 0
M  V30 10393 C 988.334 -2.11511 -0.882923 0
M  V30 10394 C 989.334 -1.03879 -1.22743 0
M  V30 10395 O 990.524 -1.29874 -1.16097 0
M  V30 10396 C 987.656 -2.61514 -2.18686 0
M  V30 10397 H 988.849 -2.9703 -0.413873 0
M  V30 10398 H 986.402 -1.55278 -0.178488 0
M  V30 10399 H 987.137 -1.79443 -2.70131 0
M  V30 10400 H 986.922 -3.40185 -1.94978 0
M  V30 10401 H 988.412 -3.03425 -2.86919 0
M  V30 10402 N 988.849 0.203349 -1.56283 0
M  V30 10403 C 990.097 0.923183 -1.79782 0
M  V30 10404 C 990.418 1.84134 -0.64185 0
M  V30 10405 O 989.688 1.92922 0.340292 0
M  V30 10406 H 988.268 0.343881 -0.66314 0
M  V30 10407 H 990.93 0.210837 -1.93756 0
M  V30 10408 H 990.026 1.51921 -2.72629 0
M  V30 10409 N 990.327 1.50405 0.470755 0
M  V30 10410 C 991.557 1.64928 1.24428 0
M  V30 10411 C 991.965 0.332139 1.86262 0
M  V30 10412 O 991.308 -0.695919 1.70008 0
M  V30 10413 C 991.37 2.6829 2.39293 0
M  V30 10414 C 991.034 4.11835 1.98093 0
M  V30 10415 C 992.031 4.97693 1.50326 0
M  V30 10416 C 989.716 4.57753 2.06803 0
M  V30 10417 C 991.71 6.27516 1.11813 0
M  V30 10418 C 989.397 5.87582 1.67902 0
M  V30 10419 C 990.395 6.72289 1.20485 0
M  V30 10420 O 990.083 7.99694 0.821219 0
M  V30 10421 H 989.815 0.557418 0.382442 0
M  V30 10422 H 992.369 1.97382 0.568292 0
M  V30 10423 H 990.599 2.31079 3.10063 0
M  V30 10424 H 992.288 2.7203 3.01255 0
M  V30 10425 H 993.054 4.63434 1.43018 0
M  V30 10426 H 988.933 3.91966 2.42659 0
M  V30 10427 H 992.477 6.93586 0.747317 0
M  V30 10428 H 988.374 6.21362 1.74869 0
M  V30 10429 H 989.142 8.12968 0.950038 0
M  V30 10430 N 991.805 -0.723954 1.39988 0
M  V30 10431 C 992.737 -1.84859 1.35498 0
M  V30 10432 C 993.75 -1.60681 0.261812 0
M  V30 10433 O 994.939 -1.7071 0.521566 0
M  V30 10434 C 992.039 -3.21103 1.08381 0
M  V30 10435 C 991.212 -3.72546 2.2919 0
M  V30 10436 C 990.271 -4.8738 1.9836 0
M  V30 10437 O 989.297 -5.00467 2.71149 0
M  V30 10438 N 990.499 -5.72566 0.956461 0
M  V30 10439 H 993.264 -1.89212 2.3242 0
M  V30 10440 H 990.825 -0.905152 1.34233 0
M  V30 10441 H 992.817 -3.9551 0.857564 0
M  V30 10442 H 991.387 -3.1195 0.201549 0
M  V30 10443 H 990.607 -2.89365 2.67697 0
M  V30 10444 H 991.895 -4.03652 3.09746 0
M  V30 10445 H 991.293 -5.64595 0.353444 0
M  V30 10446 H 989.85 -6.46993 0.790118 0
M  V30 10447 N 993.283 -1.25346 -0.955304 0
M  V30 10448 C 994.231 -1.05461 -2.07318 0
M  V30 10449 C 995.225 0.0142699 -1.69394 0
M  V30 10450 O 996.431 -0.141292 -1.79445 0
M  V30 10451 H 992.806 -0.324095 -0.678577 0
M  V30 10452 H 994.777 -2.00231 -2.21247 0
M  V30 10453 C 993.526 -0.689329 -3.40798 0
M  V30 10454 H 992.849 -1.50362 -3.70447 0
M  V30 10455 H 994.289 -0.589883 -4.19877 0
M  V30 10456 C 992.748 0.604556 -3.31431 0
M  V30 10457 O 993.278 1.64686 -3.6639 0
M  V30 10458 N 991.484 0.589927 -2.84549 0
M  V30 10459 H 991.031 -0.258647 -2.56298 0
M  V30 10460 H 990.989 1.4558 -2.78664 0
M  V30 10461 N 994.761 1.15782 -1.06922 0
M  V30 10462 C 996.007 1.86741 -0.790922 0
M  V30 10463 C 996.34 1.81863 0.681149 0
M  V30 10464 O 995.615 1.23871 1.49954 0
M  V30 10465 C 995.898 3.36038 -1.29422 0
M  V30 10466 C 995.751 3.49573 -2.83052 0
M  V30 10467 C 997.07 4.30647 -0.907239 0
M  V30 10468 H 994.189 0.678064 -0.288787 0
M  V30 10469 H 996.831 1.36054 -1.32624 0
M  V30 10470 H 994.981 3.79336 -0.838843 0
M  V30 10471 H 996.653 3.1517 -3.36847 0
M  V30 10472 H 994.896 2.91275 -3.21467 0
M  V30 10473 H 995.567 4.5445 -3.13335 0
M  V30 10474 H 998.043 3.95286 -1.29956 0
M  V30 10475 H 996.919 5.33604 -1.28679 0
M  V30 10476 H 997.18 4.41703 0.187251 0
M  V30 10477 N 996.239 0.8527 1.3254 0
M  V30 10478 C 997.202 0.300959 2.27215 0
M  V30 10479 C 998.202 -0.538235 1.51525 0
M  V30 10480 O 999.392 -0.350027 1.70647 0
M  V30 10481 C 996.524 -0.574428 3.36025 0
M  V30 10482 H 997.717 1.13655 2.77529 0
M  V30 10483 H 995.27 0.626878 1.43178 0
M  V30 10484 H 996.005 -1.43191 2.90976 0
M  V30 10485 H 995.79 0.0262265 3.92091 0
M  V30 10486 H 997.28 -0.9533 4.06573 0
M  V30 10487 N 997.718 -1.45297 0.610449 0
M  V30 10488 C 998.943 -2.07101 0.111414 0
M  V30 10489 C 999.368 -1.45161 -1.19625 0
M  V30 10490 O 998.726 -0.545368 -1.72903 0
M  V30 10491 C 998.774 -3.60598 -0.0117372 0
M  V30 10492 O 997.878 -3.98512 -1.06122 0
M  V30 10493 H 997.219 -0.659709 0.075364 0
M  V30 10494 H 999.749 -1.86504 0.841269 0
M  V30 10495 H 999.759 -4.07464 -0.209028 0
M  V30 10496 H 998.434 -4.05067 0.943076 0
M  V30 10497 H 997.011 -3.63312 -0.840158 0
M  V30 10498 N 999.196 -0.349774 -1.5367 0
M  V30 10499 C 1000.13 0.538575 -2.22782 0
M  V30 10500 C 1001.14 1.05896 -1.23652 0
M  V30 10501 O 1002.33 0.968045 -1.4997 0
M  V30 10502 C 999.43 1.7546 -2.89943 0
M  V30 10503 C 998.603 1.36843 -4.15443 0
M  V30 10504 C 997.662 2.4448 -4.65957 0
M  V30 10505 O 996.688 2.07528 -5.3002 0
M  V30 10506 N 997.89 3.75829 -4.42417 0
M  V30 10507 H 1000.65 -0.053348 -2.99653 0
M  V30 10508 H 998.216 -0.174193 -1.6096 0
M  V30 10509 H 1000.21 2.46911 -3.20651 0
M  V30 10510 H 998.778 2.25375 -2.16622 0
M  V30 10511 H 997.998 0.484421 -3.91212 0
M  V30 10512 H 999.286 1.0865 -4.97064 0
M  V30 10513 H 998.684 4.08635 -3.91196 0
M  V30 10514 H 997.241 4.43432 -4.77714 0
M  V30 10515 N 1000.67 1.57404 -0.0785433 0
M  V30 10516 C 1001.64 2.11977 0.871693 0
M  V30 10517 C 1002.64 1.04529 1.2219 0
M  V30 10518 O 1003.83 1.30488 1.15406 0
M  V30 10519 C 1000.96 2.6267 2.17296 0
M  V30 10520 H 1002.15 2.97246 0.398115 0
M  V30 10521 H 999.705 1.5537 0.170251 0
M  V30 10522 H 1000.44 1.80873 2.69175 0
M  V30 10523 H 1000.22 3.41214 1.93171 0
M  V30 10524 H 1001.71 3.04943 2.85306 0
M  V30 10525 N 1002.15 -0.195058 1.56388 0
M  V30 10526 C 1003.56 -0.75973 1.70543 0
M  V30 10527 C 1003.91 -1.83849 0.685118 0
M  V30 10528 O 1003.04 -2.15819 -0.158457 0
M  V30 10529 C 1003.63 -1.38485 3.09204 0
M  V30 10530 C 1002.19 -1.89661 3.25124 0
M  V30 10531 C 1001.34 -0.766563 2.66494 0
M  V30 10532 H 1004.29 0.0300148 1.58672 0
M  V30 10533 H 1004.31 -2.25424 3.06536 0
M  V30 10534 H 1003.82 -0.599479 3.83442 0
M  V30 10535 H 1001.92 -2.70917 2.55802 0
M  V30 10536 H 1002.04 -2.05837 4.32629 0
M  V30 10537 H 1000.4 -1.18086 2.25672 0
M  V30 10538 H 1001.18 0.00657102 3.43299 0
M  V30 10539 N 1003.63 -1.50653 -0.462772 0
M  V30 10540 C 1004.56 -1.66286 -1.5774 0
M  V30 10541 C 1005.57 -0.544094 -1.53439 0
M  V30 10542 O 1006.76 -0.817566 -1.58676 0
M  V30 10543 C 1003.86 -1.63893 -2.96635 0
M  V30 10544 C 1003.04 -2.91939 -3.25716 0
M  V30 10545 C 1002.1 -2.82076 -4.44206 0
M  V30 10546 O 1001.12 -3.56032 -4.44106 0
M  V30 10547 N 1002.32 -1.96196 -5.4634 0
M  V30 10548 H 1005.09 -2.6243 -1.44742 0
M  V30 10549 H 1002.65 -1.48221 -0.651326 0
M  V30 10550 H 1004.64 -1.54897 -3.73884 0
M  V30 10551 H 1003.21 -0.75449 -3.03358 0
M  V30 10552 H 1002.43 -3.14998 -2.37002 0
M  V30 10553 H 1003.72 -3.7675 -3.4196 0
M  V30 10554 H 1003.12 -1.35439 -5.49247 0
M  V30 10555 H 1001.67 -1.93097 -6.2254 0
M  V30 10556 N 1005.11 0.71652 -1.4037 0
M  V30 10557 C 1006.33 1.51069 -1.42102 0
M  V30 10558 C 1006.76 1.88087 -0.0222387 0
M  V30 10559 O 1006.12 1.53204 0.969448 0
M  V30 10560 C 1006.16 2.76307 -2.31704 0
M  V30 10561 O 1005.27 3.72975 -1.75964 0
M  V30 10562 H 1004.61 0.455502 -0.483129 0
M  V30 10563 H 1007.14 0.882514 -1.84588 0
M  V30 10564 H 1007.15 3.24846 -2.46859 0
M  V30 10565 H 1005.82 2.48698 -3.3335 0
M  V30 10566 H 1004.4 3.31818 -1.70151 0
M  V30 10567 N 1006.59 1.25851 0.948643 0
M  V30 10568 C 1007.52 1.09248 2.06367 0
M  V30 10569 C 1008.5 -0.000205168 1.701 0
M  V30 10570 O 1009.68 0.170442 1.93451 0
M  V30 10571 C 1006.81 0.716777 3.39823 0
M  V30 10572 C 1005.77 1.76036 3.90122 0
M  V30 10573 C 1005.09 1.23918 5.20143 0
M  V30 10574 C 1006.39 3.16039 4.15833 0
M  V30 10575 H 1008.09 2.02518 2.20515 0
M  V30 10576 H 1005.63 0.975093 1.05962 0
M  V30 10577 H 1007.59 0.587531 4.17284 0
M  V30 10578 H 1006.31 -0.251626 3.25629 0
M  V30 10579 H 1004.97 1.87815 3.14835 0
M  V30 10580 H 1004.62 0.260836 5.02323 0
M  V30 10581 H 1004.32 1.93673 5.54765 0
M  V30 10582 H 1005.84 1.12245 6.00194 0
M  V30 10583 H 1007.25 3.0738 4.83933 0
M  V30 10584 H 1005.65 3.83317 4.61723 0
M  V30 10585 H 1006.72 3.62652 3.21887 0
M  V30 10586 N 1008.06 -1.15214 1.07534 0
M  V30 10587 C 1009.48 -1.67628 0.822045 0
M  V30 10588 C 1009.83 -1.8503 -0.652571 0
M  V30 10589 O 1008.95 -1.55497 -1.50498 0
M  V30 10590 C 1009.55 -3.04489 1.48566 0
M  V30 10591 C 1008.11 -3.53974 1.27983 0
M  V30 10592 C 1007.25 -2.29656 1.55414 0
M  V30 10593 H 1010.2 -0.994016 1.23713 0
M  V30 10594 H 1010.22 -3.69509 0.907916 0
M  V30 10595 H 1009.74 -2.91792 2.55888 0
M  V30 10596 H 1007.84 -3.71908 0.226906 0
M  V30 10597 H 1007.95 -4.35298 2.0013 0
M  V30 10598 H 1006.31 -2.35289 0.975251 0
M  V30 10599 H 1007.1 -2.19544 2.63923 0
M  V30 10600 N 1009.54 -0.859717 -1.32086 0
M  V30 10601 C 1010.51 -0.313005 -2.27053 0
M  V30 10602 C 1011.51 0.530191 -1.51808 0
M  V30 10603 O 1012.7 0.340972 -1.7083 0
M  V30 10604 C 1009.83 0.5566 -3.36325 0
M  V30 10605 H 1011.02 -1.15125 -2.76923 0
M  V30 10606 H 1008.57 -0.634463 -1.42843 0
M  V30 10607 H 1009.31 1.41645 -2.91731 0
M  V30 10608 H 1009.09 -0.0470197 -3.92072 0
M  V30 10609 H 1010.58 0.931725 -4.07073 0
M  V30 10610 N 1011.02 1.44971 -0.618145 0
M  V30 10611 C 1012.27 2.01372 -0.115004 0
M  V30 10612 C 1012.58 1.49104 1.26599 0
M  V30 10613 O 1013.79 1.97549 1.86244 0
M  V30 10614 C 1012.24 3.59567 -0.154883 0
M  V30 10615 C 1011.85 4.20832 -1.53639 0
M  V30 10616 C 1013.6 4.23491 0.292468 0
M  V30 10617 C 1011.5 5.7121 -1.53208 0
M  V30 10618 H 1010.43 0.752979 -0.0392267 0
M  V30 10619 H 1013.08 1.66329 -0.775032 0
M  V30 10620 H 1011.47 3.91847 0.572001 0
M  V30 10621 H 1012.64 4.00109 -2.28582 0
M  V30 10622 H 1010.96 3.69143 -1.92672 0
M  V30 10623 H 1013.55 5.33771 0.315032 0
M  V30 10624 H 1013.9 3.9491 1.31725 0
M  V30 10625 H 1014.43 3.95967 -0.381493 0
M  V30 10626 H 1011.17 6.04506 -2.53481 0
M  V30 10627 H 1010.69 5.94094 -0.825387 0
M  V30 10628 H 1012.37 6.34606 -1.26032 0
M  V30 10629 N 1012.5 0.357919 1.53482 0
M  V30 10630 C 1013.72 -0.237769 2.06033 0
M  V30 10631 C 1014.15 -1.42292 1.23023 0
M  V30 10632 O 1013.51 -1.79604 0.247427 0
M  V30 10633 C 1013.55 -0.616806 3.55286 0
M  V30 10634 O 1012.66 -1.71503 3.75047 0
M  V30 10635 H 1012 -0.0364322 0.663 0
M  V30 10636 H 1014.53 0.516301 1.97979 0
M  V30 10637 H 1014.54 -0.88996 3.98175 0
M  V30 10638 H 1013.21 0.249825 4.15149 0
M  V30 10639 H 1011.79 -1.43803 3.44057 0
M  V30 10640 N 1013.98 -1.5736 0.0868897 0
M  V30 10641 C 1014.91 -2.10582 -0.904858 0
M  V30 10642 C 1015.92 -1.04124 -1.25148 0
M  V30 10643 O 1017.11 -1.31595 -1.20603 0
M  V30 10644 C 1014.21 -2.56381 -2.21635 0
M  V30 10645 C 1013.38 -3.86581 -2.04631 0
M  V30 10646 C 1012.44 -4.18313 -3.19219 0
M  V30 10647 O 1011.47 -4.87669 -2.93544 0
M  V30 10648 N 1012.67 -3.73061 -4.44754 0
M  V30 10649 H 1015.44 -2.96297 -0.450352 0
M  V30 10650 H 1013 -1.616 -0.0984376 0
M  V30 10651 H 1014.99 -2.7466 -2.97227 0
M  V30 10652 H 1013.56 -1.75721 -2.58536 0
M  V30 10653 H 1012.78 -3.77532 -1.13417 0
M  V30 10654 H 1014.07 -4.71777 -1.90537 0
M  V30 10655 H 1013.46 -3.1706 -4.68497 0
M  V30 10656 H 1012.02 -3.96511 -5.17322 0
M  V30 10657 N 1015.45 0.186762 -1.56489 0
M  V30 10658 C 1016.87 0.750675 -1.70944 0
M  V30 10659 C 1017.22 1.83483 -0.694858 0
M  V30 10660 O 1016.34 2.159 0.147009 0
M  V30 10661 C 1016.94 1.36843 -3.09934 0
M  V30 10662 C 1015.5 1.87934 -3.26125 0
M  V30 10663 C 1014.64 0.75242 -2.66897 0
M  V30 10664 H 1017.59 -0.0384292 -1.58653 0
M  V30 10665 H 1017.61 2.23795 -3.07727 0
M  V30 10666 H 1017.13 0.579135 -3.83755 0
M  V30 10667 H 1015.23 2.69556 -2.57235 0
M  V30 10668 H 1015.34 2.0354 -4.33715 0
M  V30 10669 H 1013.7 1.16888 -2.26295 0
M  V30 10670 H 1014.49 -0.0247769 -3.43291 0
M  V30 10671 N 1016.93 1.50896 0.454776 0
M  V30 10672 C 1018.34 1.55372 1.0352 0
M  V30 10673 C 1018.69 0.366822 1.9274 0
M  V30 10674 O 1017.82 -0.518444 2.10098 0
M  V30 10675 C 1018.41 2.81574 1.88418 0
M  V30 10676 C 1016.97 2.88679 2.4154 0
M  V30 10677 C 1016.12 2.49847 1.20298 0
M  V30 10678 H 1019.07 1.56924 0.236729 0
M  V30 10679 H 1019.09 2.64352 2.73676 0
M  V30 10680 H 1018.6 3.67941 1.23455 0
M  V30 10681 H 1016.71 2.06702 3.10008 0
M  V30 10682 H 1016.82 3.91944 2.7553 0
M  V30 10683 H 1015.18 2.02651 1.54288 0
M  V30 10684 H 1015.97 3.3854 0.569723 0
M  V30 10685 N 1018.41 -0.709066 1.40748 0
M  V30 10686 C 1019.34 -1.83412 1.37451 0
M  V30 10687 C 1020.36 -1.60394 0.27884 0
M  V30 10688 O 1021.54 -1.70147 0.539642 0
M  V30 10689 C 1018.64 -3.19935 1.1178 0
M  V30 10690 C 1017.82 -3.70095 2.33128 0
M  V30 10691 C 1016.88 -4.85249 2.03518 0
M  V30 10692 O 1015.9 -4.97563 2.76442 0
M  V30 10693 N 1017.1 -5.7152 1.01714 0
M  V30 10694 H 1019.87 -1.86736 2.34414 0
M  V30 10695 H 1017.43 -0.890863 1.35186 0
M  V30 10696 H 1019.42 -3.94578 0.899464 0
M  V30 10697 H 1017.99 -3.11718 0.234624 0
M  V30 10698 H 1017.21 -2.8651 2.70751 0
M  V30 10699 H 1018.5 -4.00344 3.1401 0
M  V30 10700 H 1017.9 -5.64188 0.413307 0
M  V30 10701 H 1016.46 -6.46119 0.858696 0
M  V30 10702 N 1019.89 -1.26353 -0.941956 0
M  V30 10703 C 1021.11 -1.14731 -1.72776 0
M  V30 10704 C 1021.54 0.293766 -1.85792 0
M  V30 10705 O 1020.9 1.21284 -1.34759 0
M  V30 10706 C 1020.95 -1.82041 -3.11277 0
M  V30 10707 O 1020.05 -1.10867 -3.97218 0
M  V30 10708 H 1019.39 -0.399823 -0.53013 0
M  V30 10709 H 1021.92 -1.67157 -1.17981 0
M  V30 10710 H 1021.93 -1.88834 -3.61671 0
M  V30 10711 H 1020.61 -2.86879 -3.0112 0
M  V30 10712 H 1019.18 -1.12044 -3.55669 0
M  V30 10713 N 1021.37 1.14642 -1.08144 0
M  V30 10714 C 1022.59 1.90025 -0.830972 0
M  V30 10715 C 1023.02 1.77904 0.610879 0
M  V30 10716 O 1022.38 1.11735 1.42776 0
M  V30 10717 C 1022.42 3.38085 -1.25422 0
M  V30 10718 O 1021.53 4.10412 -0.404486 0
M  V30 10719 H 1020.87 0.591327 -0.302041 0
M  V30 10720 H 1023.4 1.4513 -1.44216 0
M  V30 10721 H 1023.41 3.88894 -1.23391 0
M  V30 10722 H 1022.08 3.46226 -2.30435 0
M  V30 10723 H 1020.66 3.69693 -0.487987 0
M  V30 10724 N 1022.85 0.866709 1.31628 0
M  V30 10725 C 1024.07 0.49039 2.01004 0
M  V30 10726 C 1024.49 -0.916244 1.65077 0
M  V30 10727 O 1023.85 -1.59975 0.8783 0
M  V30 10728 C 1023.9 0.634011 3.55897 0
M  V30 10729 O 1023.62 1.98525 3.90537 0
M  V30 10730 C 1025.12 0.258277 4.42547 0
M  V30 10731 H 1022.34 0.191421 0.643117 0
M  V30 10732 H 1024.88 1.16698 1.67934 0
M  V30 10733 H 1023.04 0.00501801 3.874 0
M  V30 10734 H 1023.45 1.99067 4.85255 0
M  V30 10735 H 1024.93 0.409733 5.50477 0
M  V30 10736 H 1025.4 -0.802301 4.3181 0
M  V30 10737 H 1026.01 0.862837 4.16456 0
M  V30 10738 N 1024.32 -1.44642 0.625825 0
M  V30 10739 C 1025.26 -2.27821 -0.131481 0
M  V30 10740 C 1026.23 -1.38224 -0.856324 0
M  V30 10741 O 1027.42 -1.67662 -0.861493 0
M  V30 10742 C 1024.55 -3.1703 -1.19204 0
M  V30 10743 C 1023.59 -4.22697 -0.568315 0
M  V30 10744 S 1024.42 -5.3169 0.637612 0
M  V30 10745 C 1025.58 -6.24468 -0.423088 0
M  V30 10746 H 1025.81 -2.91703 0.574177 0
M  V30 10747 H 1023.35 -1.4875 0.413844 0
M  V30 10748 H 1025.3 -3.6898 -1.79901 0
M  V30 10749 H 1023.97 -2.52379 -1.86986 0
M  V30 10750 H 1023.16 -4.8511 -1.36689 0
M  V30 10751 H 1022.76 -3.73983 -0.0360843 0
M  V30 10752 H 1025.05 -6.64967 -1.29713 0
M  V30 10753 H 1026 -7.07907 0.165338 0
M  V30 10754 H 1026.4 -5.59541 -0.746606 0
M  V30 10755 N 1025.8 -0.366053 -1.5329 0
M  V30 10756 C 1027.05 0.223051 -2.00865 0
M  V30 10757 C 1027.37 1.49244 -1.25504 0
M  V30 10758 O 1026.64 1.92404 -0.368444 0
M  V30 10759 H 1025.22 0.085413 -0.742101 0
M  V30 10760 H 1027.88 -0.492396 -1.88578 0
M  V30 10761 H 1026.98 0.449701 -3.08843 0
M  V30 10762 N 1027.28 1.57312 -0.0952337 0
M  V30 10763 C 1028.51 1.98409 0.575984 0
M  V30 10764 C 1028.92 0.973168 1.62253 0
M  V30 10765 O 1028.26 -0.0454416 1.83644 0
M  V30 10766 C 1028.32 3.35877 1.28167 0
M  V30 10767 C 1027.99 4.55368 0.385868 0
M  V30 10768 C 1028.98 5.1861 -0.366041 0
M  V30 10769 C 1026.67 5.0138 0.303885 0
M  V30 10770 C 1028.66 6.26233 -1.18791 0
M  V30 10771 C 1026.35 6.0887 -0.521637 0
M  V30 10772 C 1027.35 6.71161 -1.26618 0
M  V30 10773 O 1027.04 7.76577 -2.07804 0
M  V30 10774 H 1026.77 0.657018 0.159068 0
M  V30 10775 H 1029.32 2.04685 -0.171237 0
M  V30 10776 H 1027.55 3.26284 2.07547 0
M  V30 10777 H 1029.24 3.6142 1.84744 0
M  V30 10778 H 1030.01 4.83993 -0.312435 0
M  V30 10779 H 1025.89 4.52657 0.873065 0
M  V30 10780 H 1029.43 6.74784 -1.76955 0
M  V30 10781 H 1025.33 6.42918 -0.576722 0
M  V30 10782 H 1026.09 7.93566 -2.00489 0
M  V30 10783 N 1028.76 -0.17846 1.56586 0
M  V30 10784 C 1029.69 -1.2496 1.90946 0
M  V30 10785 C 1030.67 -1.43136 0.771424 0
M  V30 10786 O 1031.85 -1.58258 1.02405 0
M  V30 10787 C 1028.98 -2.61368 2.15417 0
M  V30 10788 C 1028.03 -2.59969 3.3811 0
M  V30 10789 S 1028.86 -2.09756 4.9271 0
M  V30 10790 C 1030.01 -3.47956 5.20267 0
M  V30 10791 H 1030.25 -0.956287 2.815 0
M  V30 10792 H 1027.78 -0.382709 1.49582 0
M  V30 10793 H 1029.74 -3.39882 2.30197 0
M  V30 10794 H 1028.4 -2.87903 1.25582 0
M  V30 10795 H 1027.59 -3.60309 3.52411 0
M  V30 10796 H 1027.19 -1.89547 3.2241 0
M  V30 10797 H 1029.49 -4.43914 5.11807 0
M  V30 10798 H 1030.43 -3.38536 6.21932 0
M  V30 10799 H 1030.84 -3.43637 4.47855 0
M  V30 10800 N 1030.24 -1.51135 -0.446768 0
M  V30 10801 C 1031.48 -1.63013 -1.19461 0
M  V30 10802 C 1031.8 -0.344067 -1.91941 0
M  V30 10803 O 1031.07 0.639666 -1.85162 0
M  V30 10804 H 1029.65 -0.600757 -0.443959 0
M  V30 10805 H 1032.32 -1.88024 -0.513137 0
M  V30 10806 H 1031.41 -2.45322 -1.92933 0
M  V30 10807 N 1031.71 0.701592 -1.41122 0
M  V30 10808 C 1032.94 1.49553 -1.43696 0
M  V30 10809 C 1033.36 1.88053 -0.0421865 0
M  V30 10810 O 1032.72 1.54223 0.953144 0
M  V30 10811 C 1032.77 2.73834 -2.34622 0
M  V30 10812 O 1031.87 3.71088 -1.7991 0
M  V30 10813 H 1031.21 0.450352 -0.487933 0
M  V30 10814 H 1033.74 0.862886 -1.85514 0
M  V30 10815 H 1033.75 3.22209 -2.5029 0
M  V30 10816 H 1032.43 2.45149 -3.35969 0
M  V30 10817 H 1031.01 3.29994 -1.73661 0
M  V30 10818 N 1033.19 1.2685 0.935242 0
M  V30 10819 C 1034.12 1.04717 2.0388 0
M  V30 10820 C 1035.14 0.00567507 1.62799 0
M  V30 10821 O 1036.33 0.246408 1.76791 0
M  V30 10822 C 1033.43 0.56496 3.34158 0
M  V30 10823 C 1032.6 1.67704 4.03973 0
M  V30 10824 C 1031.66 1.19186 5.12524 0
M  V30 10825 O 1030.68 1.89008 5.36903 0
M  V30 10826 N 1031.89 0.0434554 5.80484 0
M  V30 10827 H 1034.65 1.99746 2.23431 0
M  V30 10828 H 1032.21 1.18316 1.10512 0
M  V30 10829 H 1034.2 0.224436 4.04077 0
M  V30 10830 H 1032.77 -0.291899 3.11234 0
M  V30 10831 H 1031.99 2.18821 3.27889 0
M  V30 10832 H 1033.28 2.42361 4.47368 0
M  V30 10833 H 1032.68 -0.539502 5.63122 0
M  V30 10834 H 1031.24 -0.237946 6.51366 0
M  V30 10835 N 1034.67 -1.14067 1.0875 0
M  V30 10836 C 1035.9 -1.89582 0.841038 0
M  V30 10837 C 1036.32 -1.78226 -0.601436 0
M  V30 10838 O 1035.68 -1.12491 -1.42181 0
M  V30 10839 C 1035.73 -3.37415 1.27213 0
M  V30 10840 O 1034.83 -4.10191 0.426246 0
M  V30 10841 H 1034.17 -0.589716 0.305173 0
M  V30 10842 H 1036.7 -1.44364 1.44984 0
M  V30 10843 H 1036.71 -3.88234 1.25451 0
M  V30 10844 H 1035.39 -3.44999 2.32268 0
M  V30 10845 H 1033.96 -3.69429 0.507585 0
M  V30 10846 N 1036.15 -0.873678 -1.31166 0
M  V30 10847 C 1037.39 -0.487178 -1.96861 0
M  V30 10848 C 1037.73 0.95887 -1.68877 0
M  V30 10849 O 1037 1.6758 -0.987279 0
M  V30 10850 C 1037.29 -0.74925 -3.52219 0
M  V30 10851 C 1037.14 -2.2451 -3.89763 0
M  V30 10852 C 1038.46 -0.218194 -4.39559 0
M  V30 10853 H 1035.58 -0.178477 -0.715063 0
M  V30 10854 H 1038.22 -1.0956 -1.55231 0
M  V30 10855 H 1036.37 -0.231403 -3.8781 0
M  V30 10856 H 1038.04 -2.83049 -3.64254 0
M  V30 10857 H 1036.28 -2.71621 -3.38237 0
M  V30 10858 H 1036.95 -2.37911 -4.98099 0
M  V30 10859 H 1039.43 -0.661274 -4.10812 0
M  V30 10860 H 1038.31 -0.430983 -5.47205 0
M  V30 10861 H 1038.57 0.880056 -4.33252 0
M  V30 10862 N 1037.63 1.44308 -0.633487 0
M  V30 10863 C 1038.85 2.06897 -0.144347 0
M  V30 10864 C 1039.28 1.47045 1.173 0
M  V30 10865 O 1038.63 0.572806 1.72013 0
M  V30 10866 C 1038.68 3.60571 -0.0456324 0
M  V30 10867 O 1037.79 4.0015 0.997682 0
M  V30 10868 H 1037.13 0.658427 -0.0858499 0
M  V30 10869 H 1039.66 1.85142 -0.870833 0
M  V30 10870 H 1039.67 4.07745 0.144178 0
M  V30 10871 H 1038.34 4.03515 -1.0074 0
M  V30 10872 H 1036.92 3.64603 0.782252 0
M  V30 10873 N 1039.1 0.374177 1.53094 0
M  V30 10874 C 1040.04 -0.511995 2.22382 0
M  V30 10875 C 1041.02 -1.07617 1.2189 0
M  V30 10876 O 1042.2 -1.13068 1.50824 0
M  V30 10877 C 1039.33 -1.70724 2.92525 0
M  V30 10878 C 1038.37 -1.26972 4.07161 0
M  V30 10879 S 1039.21 -0.263835 5.3485 0
M  V30 10880 C 1040.36 -1.46521 6.08508 0
M  V30 10881 H 1040.59 0.0764311 2.97202 0
M  V30 10882 H 1038.13 0.158307 1.53586 0
M  V30 10883 H 1040.09 -2.39279 3.3355 0
M  V30 10884 H 1038.75 -2.26693 2.17414 0
M  V30 10885 H 1037.94 -2.16172 4.55286 0
M  V30 10886 H 1037.54 -0.663273 3.68072 0
M  V30 10887 H 1039.83 -2.39483 6.33762 0
M  V30 10888 H 1040.78 -1.02517 7.0064 0
M  V30 10889 H 1041.18 -1.67516 5.39072 0
M  V30 10890 N 1040.58 -1.57259 0.103575 0
M  V30 10891 C 1041.83 -1.94272 -0.557024 0
M  V30 10892 C 1042.15 -0.986739 -1.68192 0
M  V30 10893 O 1041.42 -0.0402818 -1.95859 0
M  V30 10894 H 1040 -0.717237 -0.208757 0
M  V30 10895 H 1042.66 -1.94167 0.168898 0
M  V30 10896 H 1041.76 -2.96914 -0.961691 0
M  V30 10897 N 1042.06 0.170153 -1.56679 0
M  V30 10898 C 1043.29 0.900826 -1.85927 0
M  V30 10899 C 1043.7 1.76285 -0.687033 0
M  V30 10900 O 1043.04 1.80276 0.353029 0
M  V30 10901 C 1043.1 1.82723 -3.096 0
M  V30 10902 C 1042.77 1.14469 -4.42432 0
M  V30 10903 C 1043.76 0.509598 -5.17396 0
M  V30 10904 C 1041.45 1.1411 -4.89167 0
M  V30 10905 C 1043.44 -0.119976 -6.37287 0
M  V30 10906 C 1041.13 0.507703 -6.08987 0
M  V30 10907 C 1042.13 -0.121731 -6.82892 0
M  V30 10908 O 1041.82 -0.74514 -8.00439 0
M  V30 10909 H 1041.55 0.267087 -0.621 0
M  V30 10910 H 1044.1 0.17474 -2.04655 0
M  V30 10911 H 1042.33 2.59367 -2.8682 0
M  V30 10912 H 1044.02 2.42784 -3.25285 0
M  V30 10913 H 1044.79 0.504341 -4.82371 0
M  V30 10914 H 1040.67 1.62043 -4.31582 0
M  V30 10915 H 1044.21 -0.611872 -6.94911 0
M  V30 10916 H 1040.11 0.510548 -6.43478 0
M  V30 10917 H 1040.88 -0.644506 -8.15959 0
M  V30 10918 N 1043.54 1.5137 0.438746 0
M  V30 10919 C 1044.47 1.68774 1.55074 0
M  V30 10920 C 1045.48 0.568436 1.52554 0
M  V30 10921 O 1046.67 0.842707 1.57355 0
M  V30 10922 C 1043.77 1.68592 2.9399 0
M  V30 10923 C 1042.95 2.97084 3.2103 0
M  V30 10924 C 1042 2.89108 4.39663 0
M  V30 10925 O 1041.03 3.63052 4.38385 0
M  V30 10926 N 1042.23 2.04863 5.4315 0
M  V30 10927 H 1045 2.647 1.40549 0
M  V30 10928 H 1042.56 1.49238 0.627663 0
M  V30 10929 H 1044.55 1.60826 3.71372 0
M  V30 10930 H 1043.12 0.802657 3.02119 0
M  V30 10931 H 1042.34 3.18729 2.3196 0
M  V30 10932 H 1043.63 3.82143 3.35923 0
M  V30 10933 H 1043.03 1.4416 5.47023 0
M  V30 10934 H 1041.58 2.02977 6.1939 0
M  V30 10935 N 1045.02 -0.694098 1.41492 0
M  V30 10936 C 1046.43 -1.27407 1.36471 0
M  V30 10937 C 1046.78 -1.9614 0.0485209 0
M  V30 10938 O 1045.9 -1.98871 -0.853188 0
M  V30 10939 C 1046.5 -2.31698 2.47188 0
M  V30 10940 C 1045.06 -2.85268 2.45559 0
M  V30 10941 C 1044.2 -1.59325 2.2696 0
M  V30 10942 H 1047.16 -0.488756 1.50986 0
M  V30 10943 H 1047.18 -3.1302 2.1633 0
M  V30 10944 H 1046.69 -1.81644 3.42968 0
M  V30 10945 H 1044.79 -3.39494 1.5354 0
M  V30 10946 H 1044.9 -3.35598 3.41922 0
M  V30 10947 H 1043.27 -1.85188 1.74864 0
M  V30 10948 H 1044.05 -1.11265 3.24769 0
M  V30 10949 N 1046.49 -1.27344 -0.928501 0
M  V30 10950 C 1047.72 -1.16278 -1.70772 0
M  V30 10951 C 1048.13 0.283131 -1.8707 0
M  V30 10952 O 1047.48 1.20466 -1.38685 0
M  V30 10953 C 1047.54 -1.77313 -3.1273 0
M  V30 10954 C 1047.2 -3.26488 -3.19773 0
M  V30 10955 C 1048.2 -4.23133 -3.02083 0
M  V30 10956 C 1045.88 -3.67182 -3.42757 0
M  V30 10957 C 1047.88 -5.5845 -3.07267 0
M  V30 10958 C 1045.56 -5.02629 -3.47574 0
M  V30 10959 C 1046.56 -5.98072 -3.29847 0
M  V30 10960 O 1046.25 -7.3105 -3.34397 0
M  V30 10961 H 1045.98 -0.405215 -0.541089 0
M  V30 10962 H 1048.54 -1.68707 -1.17163 0
M  V30 10963 H 1046.77 -1.19361 -3.67818 0
M  V30 10964 H 1048.46 -1.60972 -3.72616 0
M  V30 10965 H 1049.22 -3.93031 -2.84168 0
M  V30 10966 H 1045.1 -2.93369 -3.55606 0
M  V30 10967 H 1048.64 -6.32924 -2.93348 0
M  V30 10968 H 1044.54 -5.32387 -3.65013 0
M  V30 10969 H 1045.31 -7.39488 -3.50857 0
M  V30 10970 N 1047.97 1.13488 -1.09353 0
M  V30 10971 C 1048.92 2.20949 -0.726923 0
M  V30 10972 C 1049.91 1.67205 0.271816 0
M  V30 10973 O 1051.12 1.79505 0.133356 0
M  V30 10974 H 1047.5 0.719985 -0.217086 0
M  V30 10975 H 1049.47 2.49134 -1.6424 0
M  V30 10976 C 1048.22 3.47319 -0.162822 0
M  V30 10977 H 1047.54 3.89011 -0.922527 0
M  V30 10978 H 1048.98 4.23963 0.0557734 0
M  V30 10979 C 1047.44 3.18376 1.10175 0
M  V30 10980 O 1047.97 3.3707 2.18511 0
M  V30 10981 N 1046.17 2.72262 1.01597 0
M  V30 10982 H 1045.72 2.5725 0.134289 0
M  V30 10983 H 1045.68 2.53272 1.86281 0
M  V30 10984 N 1049.45 0.880621 1.30701 0
M  V30 10985 C 1050.38 0.288813 2.26365 0
M  V30 10986 C 1051.36 -0.588135 1.51591 0
M  V30 10987 O 1052.55 -0.539197 1.80624 0
M  V30 10988 C 1049.67 -0.590032 3.33521 0
M  V30 10989 C 1048.72 0.217003 4.25948 0
M  V30 10990 S 1049.55 1.60246 5.10961 0
M  V30 10991 C 1050.71 0.730023 6.21628 0
M  V30 10992 H 1050.94 1.09971 2.76213 0
M  V30 10993 H 1048.47 0.67978 1.3863 0
M  V30 10994 H 1050.43 -1.09136 3.95727 0
M  V30 10995 H 1049.09 -1.37498 2.82406 0
M  V30 10996 H 1048.29 -0.453481 5.01956 0
M  V30 10997 H 1047.89 0.650803 3.68294 0
M  V30 10998 H 1050.18 -0.0548644 6.77478 0
M  V30 10999 H 1051.12 1.46157 6.92852 0
M  V30 11000 H 1051.53 0.292854 5.6374 0
M  V30 11001 N 1050.93 -1.4397 0.641131 0
M  V30 11002 C 1051.86 -2.28997 -0.0963315 0
M  V30 11003 C 1052.87 -1.4184 -0.799071 0
M  V30 11004 O 1054.06 -1.65896 -0.658846 0
M  V30 11005 C 1051.16 -3.18465 -1.15903 0
M  V30 11006 C 1050.34 -4.34093 -0.536828 0
M  V30 11007 C 1049.4 -5.04522 -1.4948 0
M  V30 11008 O 1048.42 -5.60202 -1.00807 0
M  V30 11009 N 1049.62 -5.06899 -2.82901 0
M  V30 11010 H 1052.39 -2.9293 0.633422 0
M  V30 11011 H 1049.95 -1.54527 0.48302 0
M  V30 11012 H 1051.94 -3.62445 -1.80044 0
M  V30 11013 H 1050.51 -2.56214 -1.79089 0
M  V30 11014 H 1049.73 -3.9318 0.283414 0
M  V30 11015 H 1051.02 -5.08698 -0.101966 0
M  V30 11016 H 1050.42 -4.63012 -3.25017 0
M  V30 11017 H 1048.97 -5.54637 -3.42376 0
M  V30 11018 N 1052.41 -0.382291 -1.52893 0
M  V30 11019 C 1053.36 0.471187 -2.27778 0
M  V30 11020 C 1054.35 1.0691 -1.31402 0
M  V30 11021 O 1055.56 1.01038 -1.48967 0
M  V30 11022 H 1051.93 0.170696 -0.732371 0
M  V30 11023 H 1053.9 -0.181954 -2.97845 0
M  V30 11024 C 1052.65 1.59012 -3.09209 0
M  V30 11025 H 1051.97 1.13935 -3.83222 0
M  V30 11026 H 1053.41 2.16167 -3.64757 0
M  V30 11027 C 1051.87 2.54212 -2.21084 0
M  V30 11028 O 1052.4 3.57447 -1.83288 0
M  V30 11029 N 1050.61 2.23789 -1.85383 0
M  V30 11030 H 1050.16 1.39872 -2.16318 0
M  V30 11031 H 1050.11 2.87737 -1.26708 0
M  V30 11032 N 1053.89 1.57202 -0.111913 0
M  V30 11033 C 1054.82 2.17957 0.837683 0
M  V30 11034 C 1055.8 1.1176 1.28233 0
M  V30 11035 O 1056.98 1.39967 1.34621 0
M  V30 11036 C 1054.11 2.77333 2.09054 0
M  V30 11037 C 1053.07 3.8905 1.78393 0
M  V30 11038 C 1052.39 4.35203 3.10649 0
M  V30 11039 C 1053.69 5.11477 1.05775 0
M  V30 11040 H 1055.39 2.9756 0.331441 0
M  V30 11041 H 1052.93 1.43131 0.157979 0
M  V30 11042 H 1054.88 3.18492 2.75936 0
M  V30 11043 H 1053.61 1.95009 2.6199 0
M  V30 11044 H 1052.27 3.48456 1.13903 0
M  V30 11045 H 1051.92 3.49747 3.61506 0
M  V30 11046 H 1051.62 5.10534 2.9091 0
M  V30 11047 H 1053.14 4.79007 3.78661 0
M  V30 11048 H 1054.55 5.497 1.62798 0
M  V30 11049 H 1052.95 5.92346 0.961573 0
M  V30 11050 H 1054.02 4.84881 0.043297 0
M  V30 11051 N 1055.36 -0.161842 1.56767 0
M  V30 11052 C 1056.3 -1.22927 1.9226 0
M  V30 11053 C 1057.27 -1.42309 0.786562 0
M  V30 11054 O 1058.46 -1.57163 1.04078 0
M  V30 11055 C 1055.59 -2.59069 2.18177 0
M  V30 11056 C 1054.63 -2.56368 3.40849 0
M  V30 11057 S 1055.46 -2.04518 4.94907 0
M  V30 11058 C 1056.62 -3.42418 5.23928 0
M  V30 11059 H 1056.85 -0.926377 2.82499 0
M  V30 11060 H 1054.39 -0.366822 1.49979 0
M  V30 11061 H 1056.34 -3.37421 2.33789 0
M  V30 11062 H 1055.01 -2.86554 1.28629 0
M  V30 11063 H 1054.2 -3.56551 3.56213 0
M  V30 11064 H 1053.8 -1.86116 3.24402 0
M  V30 11065 H 1056.09 -4.38461 5.16486 0
M  V30 11066 H 1057.04 -3.3192 6.25487 0
M  V30 11067 H 1057.44 -3.38868 4.51474 0
M  V30 11068 N 1056.84 -1.516 -0.430713 0
M  V30 11069 C 1058.07 -1.68414 -1.20185 0
M  V30 11070 C 1058.48 -0.384297 -1.84847 0
M  V30 11071 O 1057.84 0.637808 -1.70992 0
M  V30 11072 C 1057.89 -2.80451 -2.28099 0
M  V30 11073 O 1057.61 -4.05399 -1.66081 0
M  V30 11074 C 1059.11 -3.0859 -3.18256 0
M  V30 11075 H 1056.33 -0.564982 -0.361989 0
M  V30 11076 H 1058.88 -1.9805 -0.50954 0
M  V30 11077 H 1057.03 -2.53395 -2.93036 0
M  V30 11078 H 1057.45 -4.67671 -2.37453 0
M  V30 11079 H 1058.92 -3.9055 -3.90096 0
M  V30 11080 H 1059.4 -2.21264 -3.79393 0
M  V30 11081 H 1060 -3.37331 -2.59014 0
M  V30 11082 N 1058.32 0.686584 -1.41858 0
M  V30 11083 C 1059.55 1.47519 -1.45072 0
M  V30 11084 C 1059.96 1.88709 -0.0585868 0
M  V30 11085 O 1059.32 1.57373 0.924116 0
M  V30 11086 C 1059.37 2.73195 -2.36742 0
M  V30 11087 O 1059.09 2.33736 -3.70539 0
M  V30 11088 C 1060.59 3.66861 -2.48854 0
M  V30 11089 H 1057.81 0.454307 -0.493808 0
M  V30 11090 H 1060.36 0.844612 -1.86243 0
M  V30 11091 H 1058.51 3.32468 -1.98856 0
M  V30 11092 H 1058.93 3.14809 -4.19518 0
M  V30 11093 H 1060.4 4.51801 -3.17143 0
M  V30 11094 H 1060.88 4.11961 -1.52265 0
M  V30 11095 H 1061.48 3.13486 -2.87414 0
M  V30 11096 N 1059.8 1.27835 0.921735 0
M  V30 11097 C 1060.73 1.136 2.04003 0
M  V30 11098 C 1061.71 0.0358756 1.70062 0
M  V30 11099 O 1062.89 0.211438 1.93046 0
M  V30 11100 C 1060.02 0.788697 3.38226 0
M  V30 11101 C 1058.98 1.84272 3.863 0
M  V30 11102 C 1058.3 1.34923 5.17397 0
M  V30 11103 C 1059.6 3.24788 4.09035 0
M  V30 11104 H 1061.3 2.07149 2.1617 0
M  V30 11105 H 1058.84 0.997349 1.0387 0
M  V30 11106 H 1060.8 0.675911 4.15944 0
M  V30 11107 H 1059.52 -0.182499 3.2609 0
M  V30 11108 H 1058.18 1.94451 3.1078 0
M  V30 11109 H 1057.83 0.367328 5.01657 0
M  V30 11110 H 1057.53 2.05397 5.50532 0
M  V30 11111 H 1059.05 1.24951 5.97678 0
M  V30 11112 H 1060.47 3.17575 4.77304 0
M  V30 11113 H 1058.86 3.93025 4.53488 0
M  V30 11114 H 1059.93 3.69398 3.14122 0
M  V30 11115 N 1061.28 -1.12907 1.09954 0
M  V30 11116 C 1062.69 -1.65847 0.857417 0
M  V30 11117 C 1063.04 -1.86372 -0.613176 0
M  V30 11118 O 1062.16 -1.58654 -1.47166 0
M  V30 11119 C 1062.76 -3.01269 1.54991 0
M  V30 11120 C 1061.32 -3.51179 1.35462 0
M  V30 11121 C 1060.46 -2.26307 1.60251 0
M  V30 11122 H 1063.41 -0.96755 1.25794 0
M  V30 11123 H 1063.44 -3.675 0.986091 0
M  V30 11124 H 1062.95 -2.86299 2.6202 0
M  V30 11125 H 1061.05 -3.71343 0.305742 0
M  V30 11126 H 1061.16 -4.30955 2.09318 0
M  V30 11127 H 1059.53 -2.33167 1.02494 0
M  V30 11128 H 1060.31 -2.13896 2.68521 0
M  V30 11129 N 1062.75 -0.88754 -1.30232 0
M  V30 11130 C 1063.98 -0.521562 -2.00735 0
M  V30 11131 C 1064.4 0.883247 -1.66073 0
M  V30 11132 O 1063.76 1.58581 -0.878731 0
M  V30 11133 C 1063.81 -0.706521 -3.53611 0
M  V30 11134 O 1062.91 0.246447 -4.11663 0
M  V30 11135 H 1062.25 -0.205216 -0.631492 0
M  V30 11136 H 1064.78 -1.19579 -1.66018 0
M  V30 11137 H 1064.79 -0.606501 -4.03467 0
M  V30 11138 H 1063.47 -1.73076 -3.78177 0
M  V30 11139 H 1062.05 0.0999062 -3.72766 0
M  V30 11140 N 1064.23 1.43628 -0.648757 0
M  V30 11141 C 1065.16 2.29045 0.0841858 0
M  V30 11142 C 1066.18 1.42262 0.791537 0
M  V30 11143 O 1067.37 1.66243 0.650039 0
M  V30 11144 C 1064.47 3.19075 1.14212 0
M  V30 11145 C 1063.64 4.34372 0.513799 0
M  V30 11146 C 1062.7 5.05307 1.46803 0
M  V30 11147 O 1061.72 5.60729 0.978346 0
M  V30 11148 N 1062.93 5.08393 2.80209 0
M  V30 11149 H 1065.69 2.9259 -0.648948 0
M  V30 11150 H 1063.25 1.54268 -0.491209 0
M  V30 11151 H 1065.24 3.63395 1.78119 0
M  V30 11152 H 1063.81 2.57161 1.77728 0
M  V30 11153 H 1063.03 3.93024 -0.304262 0
M  V30 11154 H 1064.32 5.08745 0.0749871 0
M  V30 11155 H 1063.72 4.64729 3.22557 0
M  V30 11156 H 1062.28 5.56445 3.3943 0
M  V30 11157 N 1065.71 0.390394 1.52688 0
M  V30 11158 C 1066.99 -0.249068 1.94008 0
M  V30 11159 C 1067.37 -1.64263 1.32593 0
M  V30 11160 O 1066.72 -2.23086 0.494448 0
M  V30 11161 C 1066.93 -0.274318 3.4792 0
M  V30 11162 C 1068.27 -0.502743 4.21613 0
M  V30 11163 O 1069.3 -0.35448 3.54432 0
M  V30 11164 O 1068.16 -0.79334 5.40711 0
M  V30 11165 H 1065.25 -0.155116 0.812323 0
M  V30 11166 H 1067.8 0.44498 1.63762 0
M  V30 11167 H 1066.57 0.701766 3.84956 0
M  V30 11168 H 1066.19 -1.01324 3.84473 0
M  V30 11169 N 1067.19 -1.57141 0.120249 0
M  V30 11170 C 1068.15 -2.14213 -0.815185 0
M  V30 11171 C 1069.15 -1.07731 -1.19376 0
M  V30 11172 O 1070.34 -1.33502 -1.11906 0
M  V30 11173 C 1067.47 -2.68339 -2.10255 0
M  V30 11174 H 1068.67 -2.98197 -0.319166 0
M  V30 11175 H 1066.22 -1.55767 -0.128997 0
M  V30 11176 H 1066.95 -1.87946 -2.64285 0
M  V30 11177 H 1066.74 -3.46216 -1.84057 0
M  V30 11178 H 1068.23 -3.124 -2.77121 0
M  V30 11179 N 1068.67 0.153526 -1.5685 0
M  V30 11180 C 1069.89 0.886343 -1.87507 0
M  V30 11181 C 1070.32 1.74244 -0.708565 0
M  V30 11182 O 1069.67 1.78045 0.341997 0
M  V30 11183 C 1069.72 1.72428 -3.16703 0
M  V30 11184 O 1068.83 2.82784 -3.00178 0
M  V30 11185 H 1068.17 0.247259 -0.616246 0
M  V30 11186 H 1070.7 0.146306 -2.04076 0
M  V30 11187 H 1070.71 2.12062 -3.4856 0
M  V30 11188 H 1069.38 1.09558 -4.01211 0
M  V30 11189 H 1067.96 2.46604 -2.79716 0
M  V30 11190 N 1070.14 1.51827 0.422667 0
M  V30 11191 C 1071.07 1.77152 1.52117 0
M  V30 11192 C 1072.06 0.621895 1.58324 0
M  V30 11193 O 1073.24 0.866118 1.73816 0
M  V30 11194 C 1070.37 1.90991 2.90068 0
M  V30 11195 C 1069.32 3.06516 2.98717 0
M  V30 11196 C 1068.65 3.05559 4.38791 0
M  V30 11197 C 1069.95 4.46223 2.71445 0
M  V30 11198 H 1071.64 2.69135 1.31175 0
M  V30 11199 H 1069.19 1.29507 0.629607 0
M  V30 11200 H 1071.14 2.07291 3.6689 0
M  V30 11201 H 1069.87 0.956688 3.12274 0
M  V30 11202 H 1068.53 2.89945 2.24338 0
M  V30 11203 H 1068.17 2.07985 4.57986 0
M  V30 11204 H 1067.87 3.83144 4.45505 0
M  V30 11205 H 1069.4 3.23971 5.17566 0
M  V30 11206 H 1070.81 4.63069 3.37994 0
M  V30 11207 H 1069.21 5.25623 2.89552 0
M  V30 11208 H 1070.28 4.5525 1.6696 0
M  V30 11209 N 1071.62 -0.679052 1.4222 0
M  V30 11210 C 1073.03 -1.25953 1.37815 0
M  V30 11211 C 1073.38 -1.96077 0.0693215 0
M  V30 11212 O 1072.51 -1.99765 -0.832047 0
M  V30 11213 C 1073.1 -2.29063 2.49631 0
M  V30 11214 C 1071.66 -2.82647 2.48571 0
M  V30 11215 C 1070.81 -1.56909 2.28637 0
M  V30 11216 H 1073.76 -0.472714 1.51496 0
M  V30 11217 H 1073.78 -3.10708 2.19638 0
M  V30 11218 H 1073.29 -1.77996 3.44876 0
M  V30 11219 H 1071.4 -3.37846 1.57132 0
M  V30 11220 H 1071.51 -3.31952 3.45463 0
M  V30 11221 H 1069.87 -1.83323 1.76819 0
M  V30 11222 H 1070.66 -1.07814 3.25931 0
M  V30 11223 N 1073.1 -1.28322 -0.914942 0
M  V30 11224 C 1074.51 -1.13937 -1.47903 0
M  V30 11225 C 1074.86 0.271072 -1.94318 0
M  V30 11226 O 1073.99 1.16522 -1.8235 0
M  V30 11227 C 1074.58 -2.06221 -2.68809 0
M  V30 11228 C 1073.14 -1.95903 -3.21402 0
M  V30 11229 C 1072.29 -1.98031 -1.94111 0
M  V30 11230 H 1075.24 -1.41029 -0.727772 0
M  V30 11231 H 1075.26 -1.6255 -3.44031 0
M  V30 11232 H 1074.77 -3.08866 -2.34997 0
M  V30 11233 H 1072.87 -0.962907 -3.59943 0
M  V30 11234 H 1072.99 -2.82799 -3.86732 0
M  V30 11235 H 1071.35 -1.42423 -2.11158 0
M  V30 11236 H 1072.13 -3.02354 -1.62595 0
M  V30 11237 N 1074.58 1.12322 -1.10551 0
M  V30 11238 C 1075.51 2.17819 -0.713263 0
M  V30 11239 C 1076.52 1.6086 0.250604 0
M  V30 11240 O 1077.71 1.78466 0.0348909 0
M  V30 11241 C 1074.81 3.38885 -0.0320325 0
M  V30 11242 C 1073.99 4.25332 -1.02038 0
M  V30 11243 C 1073.04 5.24895 -0.370412 0
M  V30 11244 O 1072.07 5.59958 -1.02157 0
M  V30 11245 N 1073.27 5.73934 0.870633 0
M  V30 11246 H 1076.04 2.52083 -1.62094 0
M  V30 11247 H 1073.6 1.27755 -0.994492 0
M  V30 11248 H 1075.59 4.02574 0.414285 0
M  V30 11249 H 1074.16 3.02762 0.778072 0
M  V30 11250 H 1073.38 3.5824 -1.64492 0
M  V30 11251 H 1074.67 4.79936 -1.68936 0
M  V30 11252 H 1074.07 5.47614 1.419 0
M  V30 11253 H 1072.62 6.39504 1.26008 0
M  V30 11254 N 1076.06 0.894434 1.2976 0
M  V30 11255 C 1076.99 0.325525 2.26877 0
M  V30 11256 C 1078 -0.525218 1.54095 0
M  V30 11257 O 1079.19 -0.343231 1.75169 0
M  V30 11258 C 1076.29 -0.554952 3.34325 0
M  V30 11259 C 1075.46 0.268868 4.36573 0
M  V30 11260 C 1074.52 -0.543601 5.23385 0
M  V30 11261 O 1073.55 0.0370454 5.69188 0
M  V30 11262 N 1074.75 -1.85079 5.50205 0
M  V30 11263 H 1077.52 1.16021 2.76332 0
M  V30 11264 H 1075.08 0.758382 1.43039 0
M  V30 11265 H 1077.07 -1.10476 3.89329 0
M  V30 11266 H 1075.64 -1.29031 2.84727 0
M  V30 11267 H 1074.86 1.0001 3.81302 0
M  V30 11268 H 1076.15 0.833248 5.01931 0
M  V30 11269 H 1075.54 -2.34533 5.14792 0
M  V30 11270 H 1074.1 -2.34784 6.08046 0
M  V30 11271 N 1077.53 -1.43282 0.656365 0
M  V30 11272 C 1078.95 -1.85012 0.250475 0
M  V30 11273 C 1079.3 -1.54944 -1.20361 0
M  V30 11274 O 1078.42 -0.999983 -1.9191 0
M  V30 11275 C 1079.02 -3.35827 0.447815 0
M  V30 11276 C 1077.58 -3.76277 0.0962151 0
M  V30 11277 C 1076.72 -2.66988 0.749168 0
M  V30 11278 H 1079.67 -1.3339 0.85982 0
M  V30 11279 H 1079.69 -3.7927 -0.305726 0
M  V30 11280 H 1079.21 -3.5768 1.5062 0
M  V30 11281 H 1077.31 -3.60035 -0.959449 0
M  V30 11282 H 1077.42 -4.76227 0.523875 0
M  V30 11283 H 1075.78 -2.54048 0.18212 0
M  V30 11284 H 1076.57 -2.91669 1.81064 0
M  V30 11285 N 1079.01 -0.398486 -1.52479 0
M  V30 11286 C 1080.24 0.180295 -2.05812 0
M  V30 11287 C 1080.65 1.40301 -1.26934 0
M  V30 11288 O 1079.99 1.81039 -0.311544 0
M  V30 11289 C 1080.06 0.60601 -3.54355 0
M  V30 11290 C 1079.72 -0.504508 -4.54207 0
M  V30 11291 C 1080.72 -1.36478 -5.01667 0
M  V30 11292 C 1078.4 -0.674161 -4.97755 0
M  V30 11293 C 1080.4 -2.37975 -5.91309 0
M  V30 11294 C 1078.08 -1.69246 -5.87196 0
M  V30 11295 C 1079.08 -2.54367 -6.33866 0
M  V30 11296 O 1078.77 -3.54454 -7.21538 0
M  V30 11297 H 1078.5 0.0286396 -0.675393 0
M  V30 11298 H 1081.06 -0.564912 -1.97479 0
M  V30 11299 H 1079.29 1.40334 -3.60338 0
M  V30 11300 H 1080.97 1.1115 -3.90385 0
M  V30 11301 H 1081.74 -1.24506 -4.68746 0
M  V30 11302 H 1077.62 -0.0213029 -4.60995 0
M  V30 11303 H 1081.16 -3.0445 -6.27659 0
M  V30 11304 H 1077.06 -1.81252 -6.1953 0
M  V30 11305 H 1077.83 -3.50571 -7.39623 0
M  V30 11306 N 1080.49 1.57075 -0.12858 0
M  V30 11307 C 1081.74 1.94695 0.526952 0
M  V30 11308 C 1082.05 1.01482 1.67215 0
M  V30 11309 O 1083.26 1.28606 2.39108 0
M  V30 11310 C 1081.72 3.4605 0.988801 0
M  V30 11311 C 1081.32 4.47816 -0.128457 0
M  V30 11312 C 1083.07 3.92572 1.61517 0
M  V30 11313 C 1080.97 5.9036 0.350628 0
M  V30 11314 H 1079.9 0.726819 0.200623 0
M  V30 11315 H 1082.56 1.82295 -0.209972 0
M  V30 11316 H 1080.94 3.53718 1.78043 0
M  V30 11317 H 1082.11 4.51826 -0.904976 0
M  V30 11318 H 1080.43 4.11103 -0.662075 0
M  V30 11319 H 1083.02 4.96493 1.98491 0
M  V30 11320 H 1083.37 3.33085 2.49721 0
M  V30 11321 H 1083.9 3.87744 0.888768 0
M  V30 11322 H 1080.64 6.53624 -0.495592 0
M  V30 11323 H 1080.16 5.89749 1.09342 0
M  V30 11324 H 1081.84 6.41926 0.808717 0
M  V30 11325 N 1081.97 -0.145205 1.5693 0
M  V30 11326 C 1082.93 -1.16316 1.97492 0
M  V30 11327 C 1083.93 -1.35764 0.861668 0
M  V30 11328 O 1085.12 -1.32726 1.12825 0
M  V30 11329 C 1082.25 -2.52311 2.29242 0
M  V30 11330 H 1083.45 -0.815138 2.8861 0
M  V30 11331 H 1081 -0.38861 1.51392 0
M  V30 11332 H 1081.74 -2.92081 1.40922 0
M  V30 11333 H 1081.52 -2.39555 3.10412 0
M  V30 11334 H 1083.01 -3.25624 2.61456 0
M  V30 11335 N 1083.45 -1.52049 -0.414609 0
M  V30 11336 C 1084.7 -1.65511 -1.15977 0
M  V30 11337 C 1085.02 -0.384703 -1.91168 0
M  V30 11338 O 1084.29 0.600247 -1.86477 0
M  V30 11339 H 1082.87 -0.610039 -0.431116 0
M  V30 11340 H 1085.53 -1.8907 -0.473139 0
M  V30 11341 H 1084.62 -2.4936 -1.87686 0
M  V30 11342 N 1084.93 0.6715 -1.42579 0
M  V30 11343 C 1085.86 1.79703 -1.42266 0
M  V30 11344 C 1086.87 1.59599 -0.321268 0
M  V30 11345 O 1088.06 1.68657 -0.584564 0
M  V30 11346 C 1085.16 3.16859 -1.20224 0
M  V30 11347 C 1084.33 3.63783 -2.42859 0
M  V30 11348 C 1083.39 4.79683 -2.16312 0
M  V30 11349 O 1082.42 4.90058 -2.89537 0
M  V30 11350 N 1083.62 5.68622 -1.16831 0
M  V30 11351 H 1086.38 1.80455 -2.39282 0
M  V30 11352 H 1083.95 0.854708 -1.375 0
M  V30 11353 H 1085.94 3.92054 -1.00376 0
M  V30 11354 H 1084.51 3.10987 -0.317188 0
M  V30 11355 H 1083.73 2.7923 -2.78252 0
M  V30 11356 H 1085.02 3.91877 -3.24514 0
M  V30 11357 H 1084.41 5.62894 -0.562746 0
M  V30 11358 H 1082.97 6.43615 -1.0297 0
M  V30 11359 N 1086.4 1.28806 0.908124 0
M  V30 11360 C 1087.34 1.09018 2.01613 0
M  V30 11361 C 1088.35 0.0402059 1.6275 0
M  V30 11362 O 1089.54 0.283853 1.76229 0
M  V30 11363 C 1086.64 0.635712 3.32884 0
M  V30 11364 C 1085.81 1.76235 4.00325 0
M  V30 11365 C 1084.87 1.3003 5.09881 0
M  V30 11366 O 1083.9 2.00354 5.32773 0
M  V30 11367 N 1085.1 0.166575 5.80261 0
M  V30 11368 H 1087.86 2.0444 2.19144 0
M  V30 11369 H 1085.42 1.20633 1.07978 0
M  V30 11370 H 1087.42 0.310097 4.0351 0
M  V30 11371 H 1085.99 -0.225816 3.11783 0
M  V30 11372 H 1085.21 2.25727 3.23173 0
M  V30 11373 H 1086.49 2.51796 4.42127 0
M  V30 11374 H 1085.89 -0.419934 5.64139 0
M  V30 11375 H 1084.45 -0.0997281 6.51724 0
M  V30 11376 N 1087.88 -1.11734 1.11145 0
M  V30 11377 C 1089.29 -1.64928 0.874959 0
M  V30 11378 C 1089.64 -1.87012 -0.593375 0
M  V30 11379 O 1088.77 -1.60206 -1.45475 0
M  V30 11380 C 1089.36 -2.99608 1.58178 0
M  V30 11381 C 1087.92 -3.49723 1.39179 0
M  V30 11382 C 1087.07 -2.24595 1.62642 0
M  V30 11383 H 1090.02 -0.954154 1.26813 0
M  V30 11384 H 1090.04 -3.66434 1.02501 0
M  V30 11385 H 1089.55 -2.83504 2.65042 0
M  V30 11386 H 1087.65 -3.70998 0.345111 0
M  V30 11387 H 1087.77 -4.28711 2.13878 0
M  V30 11388 H 1086.13 -2.32067 1.04961 0
M  V30 11389 H 1086.91 -2.11036 2.70774 0
M  V30 11390 N 1089.36 -0.901303 -1.29284 0
M  V30 11391 C 1090.29 -0.32479 -2.25877 0
M  V30 11392 C 1091.27 0.563944 -1.52507 0
M  V30 11393 O 1092.45 0.510393 -1.81459 0
M  V30 11394 C 1089.58 0.536897 -3.34418 0
M  V30 11395 C 1088.63 -0.28474 -4.25548 0
M  V30 11396 S 1089.46 -1.68355 -5.08347 0
M  V30 11397 C 1090.62 -0.828826 -6.20388 0
M  V30 11398 H 1090.85 -1.14352 -2.74428 0
M  V30 11399 H 1088.38 -0.701749 -1.37531 0
M  V30 11400 H 1090.34 1.02827 -3.97413 0
M  V30 11401 H 1089 1.32988 -2.84558 0
M  V30 11402 H 1088.19 0.373566 -5.02614 0
M  V30 11403 H 1087.8 -0.709313 -3.67212 0
M  V30 11404 H 1090.09 -0.0529234 -6.77479 0
M  V30 11405 H 1091.03 -1.57161 -6.90439 0
M  V30 11406 H 1091.44 -0.382503 -5.63203 0
M  V30 11407 N 1090.84 1.42931 -0.663954 0
M  V30 11408 C 1092.07 2.05729 -0.189532 0
M  V30 11409 C 1092.48 1.49914 1.15423 0
M  V30 11410 O 1091.82 0.629324 1.72584 0
M  V30 11411 C 1091.88 3.59482 -0.0354748 0
M  V30 11412 C 1091.54 4.37935 -1.30622 0
M  V30 11413 C 1092.54 4.69297 -2.23733 0
M  V30 11414 C 1090.23 4.77761 -1.5508 0
M  V30 11415 C 1092.22 5.39407 -3.39586 0
M  V30 11416 C 1089.91 5.47613 -2.71224 0
M  V30 11417 C 1090.91 5.7836 -3.63302 0
M  V30 11418 O 1090.59 6.46783 -4.77417 0
M  V30 11419 H 1090.33 0.669678 -0.0922342 0
M  V30 11420 H 1092.88 1.84243 -0.907943 0
M  V30 11421 H 1091.11 3.79584 0.738412 0
M  V30 11422 H 1092.8 4.03947 0.397679 0
M  V30 11423 H 1093.56 4.39038 -2.06084 0
M  V30 11424 H 1089.44 4.53229 -0.842863 0
M  V30 11425 H 1092.99 5.63323 -4.11476 0
M  V30 11426 H 1088.88 5.77289 -2.88804 0
M  V30 11427 H 1089.65 6.6527 -4.76821 0
M  V30 11428 N 1092.32 0.406567 1.52266 0
M  V30 11429 C 1093.25 -0.45552 2.24628 0
M  V30 11430 C 1094.26 -1.01234 1.27497 0
M  V30 11431 O 1095.45 -0.911718 1.5346 0
M  V30 11432 C 1092.55 -1.64578 2.96256 0
M  V30 11433 C 1091.72 -1.2133 4.20235 0
M  V30 11434 C 1090.78 -2.27018 4.7471 0
M  V30 11435 O 1089.81 -1.87714 5.37357 0
M  V30 11436 N 1091.01 -3.5915 4.56061 0
M  V30 11437 H 1093.77 0.164525 2.99248 0
M  V30 11438 H 1091.34 0.233812 1.60203 0
M  V30 11439 H 1093.33 -2.3484 3.29594 0
M  V30 11440 H 1091.9 -2.1718 2.24837 0
M  V30 11441 H 1091.12 -0.338892 3.92741 0
M  V30 11442 H 1092.41 -0.901268 5.00754 0
M  V30 11443 H 1091.8 -3.93834 4.06092 0
M  V30 11444 H 1090.36 -4.25397 4.93843 0
M  V30 11445 N 1093.79 -1.57004 0.136909 0
M  V30 11446 C 1094.73 -2.13355 -0.837405 0
M  V30 11447 C 1095.74 -1.08053 -1.21772 0
M  V30 11448 O 1096.93 -1.35365 -1.16355 0
M  V30 11449 C 1094.03 -2.63302 -2.13366 0
M  V30 11450 C 1093.2 -3.92896 -1.92228 0
M  V30 11451 C 1092.26 -4.28257 -3.05749 0
M  V30 11452 O 1091.29 -4.96761 -2.7788 0
M  V30 11453 N 1092.49 -3.87021 -4.3266 0
M  V30 11454 H 1095.25 -2.9758 -0.35586 0
M  V30 11455 H 1092.81 -1.61832 -0.0469758 0
M  V30 11456 H 1094.81 -2.83977 -2.88339 0
M  V30 11457 H 1093.38 -1.83858 -2.52814 0
M  V30 11458 H 1092.6 -3.80949 -1.01349 0
M  V30 11459 H 1093.88 -4.776 -1.75431 0
M  V30 11460 H 1093.28 -3.31804 -4.58173 0
M  V30 11461 H 1091.84 -4.12768 -5.04446 0
M  V30 11462 N 1095.27 0.136881 -1.57004 0
M  V30 11463 C 1096.21 1.19853 -1.94192 0
M  V30 11464 C 1097.18 1.4104 -0.809103 0
M  V30 11465 O 1098.37 1.55487 -1.06565 0
M  V30 11466 C 1095.49 2.55565 -2.22271 0
M  V30 11467 C 1094.54 2.50913 -3.44884 0
M  V30 11468 S 1095.37 1.96619 -4.98098 0
M  V30 11469 C 1096.53 3.34039 -5.2931 0
M  V30 11470 H 1096.76 0.881316 -2.83937 0
M  V30 11471 H 1094.3 0.342915 -1.50544 0
M  V30 11472 H 1096.25 3.33659 -2.39127 0
M  V30 11473 H 1094.91 2.84472 -1.33172 0
M  V30 11474 H 1094.11 3.50839 -3.6184 0
M  V30 11475 H 1093.71 1.80932 -3.27322 0
M  V30 11476 H 1096 4.30189 -5.23397 0
M  V30 11477 H 1096.94 3.21927 -6.30689 0
M  V30 11478 H 1097.35 3.31642 -4.56808 0
M  V30 11479 N 1096.75 1.52266 0.40654 0
M  V30 11480 C 1097.71 1.75168 1.47814 0
M  V30 11481 C 1098.71 0.621575 1.48301 0
M  V30 11482 O 1099.9 0.889476 1.4978 0
M  V30 11483 C 1097.04 1.83642 2.87208 0
M  V30 11484 H 1098.23 2.70834 1.28798 0
M  V30 11485 H 1095.78 1.42722 0.637196 0
M  V30 11486 H 1096.52 0.898994 3.1159 0
M  V30 11487 H 1096.3 2.65801 2.88257 0
M  V30 11488 H 1097.79 2.03093 3.64888 0
M  V30 11489 N 1098.23 -0.663929 1.42933 0
M  V30 11490 C 1099.64 -1.24484 1.39143 0
M  V30 11491 C 1099.99 -1.95993 0.0901142 0
M  V30 11492 O 1099.12 -2.00636 -0.810812 0
M  V30 11493 C 1099.71 -2.26402 2.52047 0
M  V30 11494 C 1098.27 -2.79995 2.51555 0
M  V30 11495 C 1097.42 -1.54475 2.30289 0
M  V30 11496 H 1100.37 -0.456619 1.51989 0
M  V30 11497 H 1100.39 -3.08361 2.22921 0
M  V30 11498 H 1099.9 -1.74328 3.46744 0
M  V30 11499 H 1098 -3.36161 1.60707 0
M  V30 11500 H 1098.11 -3.2827 3.48964 0
M  V30 11501 H 1096.48 -1.81437 1.78753 0
M  V30 11502 H 1097.26 -1.04351 3.27056 0
M  V30 11503 N 1099.71 -1.29285 -0.901281 0
M  V30 11504 C 1100.93 -1.20169 -1.69039 0
M  V30 11505 C 1101.36 0.234509 -1.86632 0
M  V30 11506 O 1100.71 1.16935 -1.38549 0
M  V30 11507 C 1100.76 -1.91852 -3.05328 0
M  V30 11508 O 1099.87 -1.23448 -3.9349 0
M  V30 11509 H 1099.21 -0.416486 -0.517141 0
M  V30 11510 H 1101.74 -1.70826 -1.12603 0
M  V30 11511 H 1101.75 -2.00244 -3.5548 0
M  V30 11512 H 1100.42 -2.96313 -2.91841 0
M  V30 11513 H 1099 -1.23303 -3.51924 0
M  V30 11514 N 1101.18 1.11143 -1.11736 0
M  V30 11515 C 1102.43 1.82586 -0.866412 0
M  V30 11516 C 1102.75 1.85227 0.609593 0
M  V30 11517 O 1102.02 1.32505 1.44288 0
M  V30 11518 H 1100.6 0.676149 -0.31754 0
M  V30 11519 H 1103.27 1.34516 -1.41037 0
M  V30 11520 H 1102.36 2.8635 -1.24136 0
M  V30 11521 N 1102.66 0.908147 1.28804 0
M  V30 11522 C 1103.91 0.53734 1.94826 0
M  V30 11523 C 1104.23 -0.920962 1.71882 0
M  V30 11524 O 1103.5 -1.65043 1.05534 0
M  V30 11525 H 1102.08 0.195729 0.720902 0
M  V30 11526 H 1104.74 1.15628 1.56895 0
M  V30 11527 H 1103.84 0.727052 3.03513 0
M  V30 11528 N 1104.14 -1.42577 0.671525 0
M  V30 11529 C 1105.55 -1.84736 0.270084 0
M  V30 11530 C 1105.9 -1.56212 -1.18711 0
M  V30 11531 O 1105.03 -1.02028 -1.90838 0
M  V30 11532 C 1105.62 -3.35334 0.483409 0
M  V30 11533 C 1104.18 -3.76154 0.136119 0
M  V30 11534 C 1103.33 -2.66179 0.777444 0
M  V30 11535 H 1106.28 -1.3247 0.873919 0
M  V30 11536 H 1106.3 -3.79573 -0.265483 0
M  V30 11537 H 1105.81 -3.56063 1.54405 0
M  V30 11538 H 1103.91 -3.61033 -0.921209 0
M  V30 11539 H 1104.03 -4.75645 0.574356 0
M  V30 11540 H 1102.39 -2.53841 0.209055 0
M  V30 11541 H 1103.17 -2.89732 1.84148 0
M  V30 11542 N 1105.62 -0.414636 -1.52048 0
M  V30 11543 C 1107.03 0.0537107 -1.86623 0
M  V30 11544 C 1107.38 1.43955 -1.3331 0
M  V30 11545 O 1106.51 2.05616 -0.674606 0
M  V30 11546 C 1107.1 0.104241 -3.3864 0
M  V30 11547 C 1105.66 0.516936 -3.72833 0
M  V30 11548 C 1104.81 -0.305042 -2.75617 0
M  V30 11549 H 1107.76 -0.631469 -1.45596 0
M  V30 11550 H 1107.78 0.918395 -3.6925 0
M  V30 11551 H 1107.29 -0.904523 -3.77412 0
M  V30 11552 H 1105.39 1.53214 -3.39641 0
M  V30 11553 H 1105.5 0.2575 -4.78408 0
M  V30 11554 H 1103.87 0.233416 -2.53628 0
M  V30 11555 H 1104.65 -1.31226 -3.1723 0
M  V30 11556 N 1107.1 1.56929 -0.145233 0
M  V30 11557 C 1108.03 2.13796 0.826078 0
M  V30 11558 C 1109.04 1.08697 1.21197 0
M  V30 11559 O 1110.23 1.3598 1.15635 0
M  V30 11560 C 1107.33 2.6443 2.11967 0
M  V30 11561 C 1106.5 3.9391 1.90142 0
M  V30 11562 C 1105.56 4.29872 3.03474 0
M  V30 11563 O 1104.59 4.98227 2.75242 0
M  V30 11564 N 1105.79 3.8931 4.30602 0
M  V30 11565 H 1108.56 2.97764 0.340073 0
M  V30 11566 H 1106.12 1.61854 0.0383928 0
M  V30 11567 H 1108.11 2.85502 2.86829 0
M  V30 11568 H 1106.68 1.85196 2.51836 0
M  V30 11569 H 1105.9 3.81481 0.993268 0
M  V30 11570 H 1107.19 4.78523 1.72896 0
M  V30 11571 H 1106.58 3.34229 4.56407 0
M  V30 11572 H 1105.14 4.15438 5.0225 0
M  V30 11573 N 1108.58 -0.128553 1.57075 0
M  V30 11574 C 1109.51 -1.18362 1.96273 0
M  V30 11575 C 1110.52 -1.3818 0.860818 0
M  V30 11576 O 1111.71 -1.37424 1.13916 0
M  V30 11577 C 1108.81 -2.54533 2.23755 0
M  V30 11578 C 1107.98 -2.55446 3.55058 0
M  V30 11579 C 1107.04 -3.73291 3.70864 0
M  V30 11580 O 1106.07 -3.57315 4.43074 0
M  V30 11581 N 1107.27 -4.91481 3.08912 0
M  V30 11582 H 1110.03 -0.850276 2.87385 0
M  V30 11583 H 1107.6 -0.317931 1.58748 0
M  V30 11584 H 1109.59 -3.31912 2.31553 0
M  V30 11585 H 1108.16 -2.80087 1.38816 0
M  V30 11586 H 1107.38 -1.6385 3.58534 0
M  V30 11587 H 1108.67 -2.53104 4.4138 0
M  V30 11588 H 1108.06 -5.07364 2.50196 0
M  V30 11589 H 1106.62 -5.6657 3.22245 0
M  V30 11590 N 1110.05 -1.5248 -0.398459 0
M  V30 11591 C 1110.99 -1.72826 -1.50545 0
M  V30 11592 C 1112 -0.608683 -1.50993 0
M  V30 11593 O 1113.19 -0.88413 -1.55066 0
M  V30 11594 C 1110.29 -1.76327 -2.89417 0
M  V30 11595 C 1109.46 -3.05491 -3.1304 0
M  V30 11596 C 1108.52 -3.00663 -4.31843 0
M  V30 11597 O 1107.55 -3.74548 -4.28605 0
M  V30 11598 N 1108.75 -2.19191 -5.37527 0
M  V30 11599 H 1111.51 -2.68333 -1.33482 0
M  V30 11600 H 1109.07 -1.5085 -0.587875 0
M  V30 11601 H 1111.07 -1.70616 -3.66977 0
M  V30 11602 H 1109.64 -0.882476 -2.99885 0
M  V30 11603 H 1108.86 -3.24767 -2.23428 0
M  V30 11604 H 1110.14 -3.90915 -3.25673 0
M  V30 11605 H 1109.54 -1.58613 -5.43009 0
M  V30 11606 H 1108.1 -2.19328 -6.1379 0
M  V30 11607 N 1111.53 0.65634 -1.43283 0
M  V30 11608 C 1112.94 1.23744 -1.39801 0
M  V30 11609 C 1113.29 1.95942 -0.100507 0
M  V30 11610 O 1112.42 2.01063 0.800161 0
M  V30 11611 C 1113.01 2.25062 -2.53244 0
M  V30 11612 C 1111.57 2.78657 -2.53036 0
M  V30 11613 C 1110.72 1.53251 -2.31105 0
M  V30 11614 H 1113.67 0.448553 -1.52229 0
M  V30 11615 H 1113.69 3.07174 -2.24553 0
M  V30 11616 H 1113.2 1.72487 -3.47664 0
M  V30 11617 H 1111.3 3.35304 -1.62487 0
M  V30 11618 H 1111.42 3.26414 -3.507 0
M  V30 11619 H 1109.78 1.80487 -1.79713 0
M  V30 11620 H 1110.56 1.02615 -3.27605 0
M  V30 11621 N 1113.01 1.29761 0.894412 0
M  V30 11622 C 1114.42 1.16275 1.46072 0
M  V30 11623 C 1114.77 -0.240123 1.94725 0
M  V30 11624 O 1113.9 -1.13606 1.84181 0
M  V30 11625 C 1114.49 2.10471 2.65494 0
M  V30 11626 C 1113.05 2.00992 3.18244 0
M  V30 11627 C 1112.2 2.01094 1.90936 0
M  V30 11628 H 1115.15 1.42169 0.705243 0
M  V30 11629 H 1115.17 1.68003 3.41402 0
M  V30 11630 H 1114.68 3.12566 2.30053 0
M  V30 11631 H 1112.78 1.02005 3.58365 0
M  V30 11632 H 1112.9 2.88916 3.82184 0
M  V30 11633 H 1111.26 1.45764 2.08866 0
M  V30 11634 H 1112.04 3.04902 1.57764 0
M  V30 11635 N 1114.49 -1.10549 1.12324 0
M  V30 11636 C 1115.73 -1.82755 0.879117 0
M  V30 11637 C 1116.07 -1.84905 -0.593604 0
M  V30 11638 O 1115.34 -1.30884 -1.43873 0
M  V30 11639 C 1115.62 -3.29481 1.45308 0
M  V30 11640 C 1115.48 -3.3567 2.99408 0
M  V30 11641 C 1116.8 -4.25828 1.11167 0
M  V30 11642 H 1113.92 -0.663513 0.32081 0
M  V30 11643 H 1116.56 -1.29572 1.38965 0
M  V30 11644 H 1114.71 -3.74902 1.01887 0
M  V30 11645 H 1116.38 -2.98739 3.515 0
M  V30 11646 H 1114.62 -2.75606 3.34998 0
M  V30 11647 H 1115.29 -4.38983 3.34661 0
M  V30 11648 H 1117.77 -3.88635 1.48667 0
M  V30 11649 H 1116.65 -5.26857 1.53991 0
M  V30 11650 H 1116.91 -4.42094 0.0237046 0
M  V30 11651 N 1115.97 -0.914965 -1.28321 0
M  V30 11652 C 1116.93 -0.409024 -2.25521 0
M  V30 11653 C 1117.93 0.465327 -1.5392 0
M  V30 11654 O 1119.12 0.26821 -1.72123 0
M  V30 11655 C 1116.25 0.413452 -3.38383 0
M  V30 11656 H 1117.44 -1.26767 -2.71791 0
M  V30 11657 H 1115 -0.694477 -1.40024 0
M  V30 11658 H 1115.73 1.29145 -2.97476 0
M  V30 11659 H 1115.52 -0.213268 -3.9152 0
M  V30 11660 H 1117.01 0.758232 -4.10659 0
M  V30 11661 N 1117.44 1.42219 -0.679077 0
M  V30 11662 C 1118.38 2.29172 0.035583 0
M  V30 11663 C 1119.39 1.43909 0.761183 0
M  V30 11664 O 1120.58 1.67584 0.61463 0
M  V30 11665 C 1117.68 3.21426 1.07419 0
M  V30 11666 C 1116.85 4.35364 0.421547 0
M  V30 11667 C 1115.91 5.08307 1.36051 0
M  V30 11668 O 1114.94 5.62678 0.859186 0
M  V30 11669 N 1116.14 5.14222 2.69362 0
M  V30 11670 H 1118.9 2.91147 -0.710865 0
M  V30 11671 H 1116.46 1.53192 -0.523821 0
M  V30 11672 H 1118.46 3.67091 1.70371 0
M  V30 11673 H 1117.03 2.60873 1.72233 0
M  V30 11674 H 1116.25 3.9229 -0.387559 0
M  V30 11675 H 1117.53 5.08789 -0.0329421 0
M  V30 11676 H 1116.93 4.71467 3.12627 0
M  V30 11677 H 1115.49 5.63519 3.27551 0
M  V30 11678 N 1118.92 0.422693 1.51826 0
M  V30 11679 C 1119.85 -0.43167 2.25098 0
M  V30 11680 C 1120.87 -0.998758 1.28564 0
M  V30 11681 O 1122.06 -0.89539 1.54418 0
M  V30 11682 C 1119.16 -1.61426 2.97985 0
M  V30 11683 C 1118.33 -1.16866 4.21499 0
M  V30 11684 C 1117.39 -2.2197 4.77091 0
M  V30 11685 O 1116.41 -1.82004 5.39317 0
M  V30 11686 N 1117.62 -3.54293 4.59844 0
M  V30 11687 H 1120.38 0.196255 2.99057 0
M  V30 11688 H 1117.94 0.25079 1.59946 0
M  V30 11689 H 1119.93 -2.31331 3.32066 0
M  V30 11690 H 1118.5 -2.14783 2.27128 0
M  V30 11691 H 1117.72 -0.297217 3.93078 0
M  V30 11692 H 1119.01 -0.848106 5.01682 0
M  V30 11693 H 1118.41 -3.89505 4.10247 0
M  V30 11694 H 1116.97 -4.20135 4.98327 0
M  V30 11695 N 1120.4 -1.5685 0.153553 0
M  V30 11696 C 1121.81 -1.83074 -0.36618 0
M  V30 11697 C 1122.16 -1.07257 -1.64288 0
M  V30 11698 O 1121.29 -0.319925 -2.14022 0
M  V30 11699 C 1121.88 -3.32086 -0.671142 0
M  V30 11700 C 1120.44 -3.58868 -1.13537 0
M  V30 11701 C 1119.59 -2.76827 -0.161887 0
M  V30 11702 H 1122.54 -1.54129 0.378139 0
M  V30 11703 H 1122.56 -3.48598 -1.52512 0
M  V30 11704 H 1122.07 -3.8724 0.258234 0
M  V30 11705 H 1120.17 -3.09107 -2.08047 0
M  V30 11706 H 1120.29 -4.67299 -1.05682 0
M  V30 11707 H 1118.65 -2.46112 -0.6558 0
M  V30 11708 H 1119.43 -3.34755 0.761195 0
M  V30 11709 N 1121.88 0.120221 -1.57141 0
M  V30 11710 C 1122.81 1.1732 -1.96898 0
M  V30 11711 C 1123.82 1.37722 -0.868134 0
M  V30 11712 O 1125.01 1.36818 -1.14643 0
M  V30 11713 C 1122.11 2.53343 -2.25102 0
M  V30 11714 C 1121.28 2.53559 -3.56408 0
M  V30 11715 C 1120.34 3.71319 -3.72838 0
M  V30 11716 O 1119.37 3.54961 -4.44962 0
M  V30 11717 N 1120.57 4.89836 -3.11514 0
M  V30 11718 H 1123.34 0.835023 -2.87832 0
M  V30 11719 H 1120.9 0.309508 -1.58914 0
M  V30 11720 H 1122.89 3.30679 -2.3331 0
M  V30 11721 H 1121.46 2.79347 -1.403 0
M  V30 11722 H 1120.68 1.61946 -3.59398 0
M  V30 11723 H 1121.97 2.5076 -4.42716 0
M  V30 11724 H 1121.37 5.0603 -2.52884 0
M  V30 11725 H 1119.92 5.64853 -3.25246 0
M  V30 11726 N 1123.36 1.52689 0.390367 0
M  V30 11727 C 1124.32 1.76726 1.45947 0
M  V30 11728 C 1125.32 0.637269 1.47633 0
M  V30 11729 O 1126.51 0.905312 1.48828 0
M  V30 11730 C 1123.64 1.86678 2.85244 0
M  V30 11731 H 1124.83 2.72185 1.25918 0
M  V30 11732 H 1122.39 1.4339 0.622023 0
M  V30 11733 H 1123.12 0.931991 3.10619 0
M  V30 11734 H 1122.91 2.68843 2.85422 0
M  V30 11735 H 1124.4 2.06952 3.62713 0
M  V30 11736 N 1124.83 -0.648732 1.43629 0
M  V30 11737 C 1125.77 -1.77417 1.45107 0
M  V30 11738 C 1126.78 -1.59067 0.346618 0
M  V30 11739 O 1127.97 -1.67705 0.611322 0
M  V30 11740 C 1125.07 -3.14906 1.25249 0
M  V30 11741 C 1124.24 -3.59874 2.48616 0
M  V30 11742 C 1123.3 -4.76181 2.23916 0
M  V30 11743 O 1122.33 -4.8539 2.97296 0
M  V30 11744 N 1123.53 -5.66691 1.25862 0
M  V30 11745 H 1126.29 -1.76626 2.42123 0
M  V30 11746 H 1123.85 -0.832725 1.38843 0
M  V30 11747 H 1125.85 -3.90408 1.06601 0
M  V30 11748 H 1124.42 -3.10443 0.366623 0
M  V30 11749 H 1123.64 -2.74768 2.82659 0
M  V30 11750 H 1124.92 -3.86665 3.30708 0
M  V30 11751 H 1124.32 -5.61927 0.652227 0
M  V30 11752 H 1122.88 -6.41895 1.13196 0
M  V30 11753 N 1126.31 -1.30234 -0.887518 0
M  V30 11754 C 1127.56 -1.18675 -1.63587 0
M  V30 11755 C 1127.88 0.259342 -1.93268 0
M  V30 11756 O 1127.15 1.17523 -1.56733 0
M  V30 11757 H 1125.73 -0.436224 -0.606397 0
M  V30 11758 H 1128.39 -1.63326 -1.06351 0
M  V30 11759 H 1127.49 -1.74575 -2.58708 0
M  V30 11760 N 1127.79 1.09952 -1.12909 0
M  V30 11761 C 1129.2 1.63516 -0.901087 0
M  V30 11762 C 1129.55 1.87932 0.563547 0
M  V30 11763 O 1128.68 1.625 1.42908 0
M  V30 11764 C 1129.27 2.97054 -1.62924 0
M  V30 11765 C 1127.83 3.47464 -1.44725 0
M  V30 11766 C 1126.98 2.21979 -1.66194 0
M  V30 11767 H 1129.93 0.933858 -1.28315 0
M  V30 11768 H 1129.95 3.64757 -1.08318 0
M  V30 11769 H 1129.46 2.79251 -2.69519 0
M  V30 11770 H 1127.56 3.70402 -0.40409 0
M  V30 11771 H 1127.68 4.25254 -2.20671 0
M  V30 11772 H 1126.04 2.30368 -1.0864 0
M  V30 11773 H 1126.82 2.06702 -2.74097 0
M  V30 11774 N 1129.27 0.921757 1.27833 0
M  V30 11775 C 1130.68 0.604496 1.76643 0
M  V30 11776 C 1131.03 -0.880294 1.75343 0
M  V30 11777 O 1130.16 -1.68875 1.35315 0
M  V30 11778 C 1130.75 1.09055 3.20768 0
M  V30 11779 C 1129.31 0.824066 3.67268 0
M  V30 11780 C 1128.46 1.25269 2.47392 0
M  V30 11781 H 1131.41 1.10217 1.14184 0
M  V30 11782 H 1131.43 0.435558 3.77999 0
M  V30 11783 H 1130.94 2.17122 3.21682 0
M  V30 11784 H 1129.04 -0.243055 3.71806 0
M  V30 11785 H 1129.15 1.43743 4.57028 0
M  V30 11786 H 1127.52 0.671313 2.45694 0
M  V30 11787 H 1128.3 2.34188 2.5102 0
M  V30 11788 N 1130.75 -1.41857 0.686609 0
M  V30 11789 C 1131.71 -2.29187 0.0247022 0
M  V30 11790 C 1132.71 -1.43926 -0.717069 0
M  V30 11791 O 1133.9 -1.65179 -0.5533 0
M  V30 11792 C 1131.03 -3.26644 -0.975537 0
M  V30 11793 H 1132.22 -2.89212 0.793503 0
M  V30 11794 H 1129.78 -1.49694 0.449605 0
M  V30 11795 H 1130.51 -2.7158 -1.77242 0
M  V30 11796 H 1130.3 -3.89545 -0.446892 0
M  V30 11797 H 1131.79 -3.92107 -1.43673 0
M  V30 11798 N 1132.22 -0.430739 -1.51599 0
M  V30 11799 C 1133.16 0.419726 -2.25324 0
M  V30 11800 C 1134.17 0.991925 -1.29092 0
M  V30 11801 O 1135.36 0.887188 -1.54891 0
M  V30 11802 C 1132.46 1.59844 -2.98836 0
M  V30 11803 C 1131.63 1.14629 -4.22112 0
M  V30 11804 C 1130.69 2.19437 -4.78261 0
M  V30 11805 O 1129.72 1.79141 -5.40275 0
M  V30 11806 N 1130.92 3.51849 -4.61717 0
M  V30 11807 H 1133.68 -0.212112 -2.98948 0
M  V30 11808 H 1131.24 -0.259269 -1.59811 0
M  V30 11809 H 1133.24 2.29567 -3.33288 0
M  V30 11810 H 1131.81 2.13575 -2.28264 0
M  V30 11811 H 1131.03 0.276367 -3.9323 0
M  V30 11812 H 1132.31 0.821488 -5.02124 0
M  V30 11813 H 1131.71 3.87324 -4.12306 0
M  V30 11814 H 1130.27 4.17486 -5.00548 0
M  V30 11815 N 1133.7 1.56767 -0.161869 0
M  V30 11816 C 1134.95 1.96206 0.484537 0
M  V30 11817 C 1135.27 1.04848 1.64414 0
M  V30 11818 O 1134.54 0.112946 1.95574 0
M  V30 11819 H 1133.12 0.724491 0.181994 0
M  V30 11820 H 1135.78 1.93406 -0.240845 0
M  V30 11821 H 1134.88 3.00279 0.85083 0
M  V30 11822 N 1135.18 -0.111886 1.57202 0
M  V30 11823 C 1136.41 -0.836317 1.89791 0
M  V30 11824 C 1136.83 -1.72304 0.754513 0
M  V30 11825 O 1136.19 -1.78889 -0.294672 0
M  V30 11826 C 1136.24 -1.63971 3.21164 0
M  V30 11827 O 1135.34 -2.74726 3.0757 0
M  V30 11828 H 1134.68 -0.230833 0.622585 0
M  V30 11829 H 1137.21 -0.0921478 2.04392 0
M  V30 11830 H 1137.22 -2.02746 3.54059 0
M  V30 11831 H 1135.9 -0.98882 4.03974 0
M  V30 11832 H 1134.47 -2.39101 2.86156 0
M  V30 11833 N 1136.66 -1.52894 -0.382264 0
M  V30 11834 C 1137.57 -1.81084 -1.4915 0
M  V30 11835 C 1138.58 -0.698045 -1.59384 0
M  V30 11836 O 1139.76 -0.98635 -1.75594 0
M  V30 11837 C 1136.83 -1.97987 -2.84608 0
M  V30 11838 C 1135.89 -3.219 -2.8404 0
M  V30 11839 C 1135.12 -3.37988 -4.13037 0
M  V30 11840 O 1135.34 -2.58733 -5.08344 0
M  V30 11841 O 1134.28 -4.31273 -4.19866 0
M  V30 11842 H 1138.1 -2.75289 -1.28257 0
M  V30 11843 H 1135.69 -1.38068 -0.57076 0
M  V30 11844 H 1137.57 -2.10773 -3.64901 0
M  V30 11845 H 1136.24 -1.06972 -3.05514 0
M  V30 11846 H 1135.15 -3.14551 -2.02505 0
M  V30 11847 H 1136.48 -4.12783 -2.68087 0
M  V30 11848 N 1138.14 0.641106 -1.43971 0
M  V30 11849 C 1139.1 1.73539 -1.49723 0
M  V30 11850 C 1140.1 1.56235 -0.380438 0
M  V30 11851 O 1141.29 1.61912 -0.642673 0
M  V30 11852 C 1138.42 3.1253 -1.36153 0
M  V30 11853 H 1139.62 1.69816 -2.47189 0
M  V30 11854 H 1137.17 0.853867 -1.30915 0
M  V30 11855 H 1137.9 3.21856 -0.39742 0
M  V30 11856 H 1137.69 3.26496 -2.17124 0
M  V30 11857 H 1139.18 3.92303 -1.43138 0
M  V30 11858 N 1139.62 1.30703 0.880598 0
M  V30 11859 C 1140.55 1.1327 1.99255 0
M  V30 11860 C 1141.56 0.0747186 1.62628 0
M  V30 11861 O 1142.75 0.321169 1.75587 0
M  V30 11862 C 1139.85 0.706179 3.31461 0
M  V30 11863 C 1139.02 1.84687 3.96497 0
M  V30 11864 C 1138.08 1.40817 5.07008 0
M  V30 11865 O 1137.11 2.1161 5.28403 0
M  V30 11866 N 1138.31 0.289619 5.79777 0
M  V30 11867 H 1141.07 2.09043 2.14759 0
M  V30 11868 H 1138.64 1.22896 1.05395 0
M  V30 11869 H 1140.63 0.395617 4.02762 0
M  V30 11870 H 1139.2 -0.159631 3.12192 0
M  V30 11871 H 1138.42 2.32531 3.18312 0
M  V30 11872 H 1139.71 2.61117 4.36687 0
M  V30 11873 H 1139.1 -0.300177 5.64903 0
M  V30 11874 H 1137.66 0.0385346 6.51789 0
M  V30 11875 N 1141.09 -1.09351 1.1349 0
M  V30 11876 C 1142.02 -2.18037 0.835588 0
M  V30 11877 C 1143 -1.68856 -0.205373 0
M  V30 11878 O 1144.19 -1.94094 -0.0641357 0
M  V30 11879 C 1141.32 -3.45987 0.301661 0
M  V30 11880 C 1140.27 -4.08507 1.27696 0
M  V30 11881 C 1139.6 -5.31292 0.602758 0
M  V30 11882 C 1140.9 -4.50916 2.63575 0
M  V30 11883 H 1142.59 -2.43332 1.74441 0
M  V30 11884 H 1140.14 -1.1695 0.840166 0
M  V30 11885 H 1142.09 -4.21324 0.079928 0
M  V30 11886 H 1140.82 -3.20217 -0.642552 0
M  V30 11887 H 1139.48 -3.3519 1.4847 0
M  V30 11888 H 1139.12 -5.01802 -0.346953 0
M  V30 11889 H 1138.82 -5.74075 1.25345 0
M  V30 11890 H 1140.35 -6.09351 0.390325 0
M  V30 11891 H 1141.76 -5.17474 2.46765 0
M  V30 11892 H 1140.16 -5.04586 3.24827 0
M  V30 11893 H 1141.23 -3.63279 3.2118 0
M  V30 11894 N 1142.57 -0.928524 -1.27343 0
M  V30 11895 C 1143.82 -0.565207 -1.93619 0
M  V30 11896 C 1144.13 0.897988 -1.73769 0
M  V30 11897 O 1145.34 1.37012 -2.34393 0
M  V30 11898 C 1143.8 -0.960052 -3.46859 0
M  V30 11899 C 1143.4 -2.44399 -3.75464 0
M  V30 11900 C 1145.15 -0.668026 -4.19211 0
M  V30 11901 C 1143.05 -2.77819 -5.22083 0
M  V30 11902 H 1141.98 -0.207665 -0.724839 0
M  V30 11903 H 1144.64 -1.12945 -1.44623 0
M  V30 11904 H 1143.02 -0.324454 -3.94669 0
M  V30 11905 H 1144.19 -3.12756 -3.38408 0
M  V30 11906 H 1142.51 -2.70799 -3.16317 0
M  V30 11907 H 1145.1 -0.894207 -5.2717 0
M  V30 11908 H 1145.45 0.394788 -4.14424 0
M  V30 11909 H 1145.98 -1.26276 -3.77226 0
M  V30 11910 H 1142.72 -3.83013 -5.3196 0
M  V30 11911 H 1142.24 -2.14112 -5.60282 0
M  V30 11912 H 1143.92 -2.65607 -5.89968 0
M  V30 11913 N 1144.05 1.41491 -0.694123 0
M  V30 11914 C 1145.27 2.06099 -0.23197 0
M  V30 11915 C 1145.7 1.51888 1.10958 0
M  V30 11916 O 1145.06 0.645247 1.69429 0
M  V30 11917 C 1145.11 3.60053 -0.198522 0
M  V30 11918 O 1144.21 4.04021 0.827067 0
M  V30 11919 H 1143.55 0.654193 -0.113699 0
M  V30 11920 H 1146.08 1.81282 -0.948575 0
M  V30 11921 H 1146.09 4.0799 -0.0288904 0
M  V30 11922 H 1144.77 3.98879 -1.17764 0
M  V30 11923 H 1143.34 3.67593 0.626908 0
M  V30 11924 N 1145.53 0.438773 1.51369 0
M  V30 11925 C 1146.77 -0.127213 2.021 0
M  V30 11926 C 1147.1 -1.42587 1.32284 0
M  V30 11927 O 1146.36 -1.90986 0.426949 0
M  V30 11928 C 1146.66 -0.39186 3.55245 0
M  V30 11929 C 1146.32 0.821158 4.4336 0
M  V30 11930 C 1144.98 1.15381 4.67162 0
M  V30 11931 C 1147.34 1.6303 4.95046 0
M  V30 11932 C 1144.66 2.29626 5.39897 0
M  V30 11933 C 1147.02 2.76376 5.69033 0
M  V30 11934 C 1145.68 3.10094 5.91099 0
M  V30 11935 H 1144.95 -0.0465505 0.739536 0
M  V30 11936 H 1147.6 0.586261 1.82305 0
M  V30 11937 H 1145.9 -1.18724 3.73379 0
M  V30 11938 H 1147.6 -0.843228 3.92034 0
M  V30 11939 H 1144.19 0.551946 4.25031 0
M  V30 11940 H 1148.37 1.38651 4.76539 0
M  V30 11941 H 1143.63 2.56062 5.55196 0
M  V30 11942 H 1147.8 3.39442 6.08072 0
M  V30 11943 H 1145.43 3.98731 6.47238 0
M  V30 11944 N 1147.01 -1.56678 0.170181 0
M  V30 11945 C 1148.28 -1.88524 -0.521362 0
M  V30 11946 C 1148.66 -1.07989 -1.81388 0
M  V30 11947 O 1148.01 -0.17347 -2.27841 0
M  V30 11948 C 1148.22 -3.40527 -0.764367 0
M  V30 11949 C 1149.57 -4.10241 -1.09487 0
M  V30 11950 O 1150.59 -3.45837 -0.852945 0
M  V30 11951 O 1149.45 -5.24022 -1.55124 0
M  V30 11952 H 1146.55 -0.782161 -0.268614 0
M  V30 11953 H 1149.09 -1.68414 0.208531 0
M  V30 11954 H 1147.86 -3.91015 0.149416 0
M  V30 11955 H 1147.49 -3.66244 -1.54762 0
M  V30 11956 O 1148.52 -0.0322817 -1.61468 0
M  V30 11957 H 1149.21 0.579838 -1.84818 0
M  V30 END ATOM
M  V30 BEGIN BOND
M  V30 END BOND
M  V30 END CTAB
M  END
$$$$
