drugbank_target|O14957 Cytochrome b-c1 complex subunit 10 (DB04799; DB07401; DB07763; DB07778; DB08330; DB08453; DB08690)
 OpenBabel12092120423D

938955  0  0  0  0  0  0  0  0999 V2000
   -0.9080    1.9825   -0.1171 H   0  0  0  0  0 15  0  0  0  0  0  0
    0.0000    1.5760    0.0000 N   0  0  0  0  0 15  0  0  0  0  0  0
    0.9330    2.0387    1.0253 C   0  0  0  0  0 15  0  0  0  0  0  0
    1.9110    0.9285    1.3348 C   0  0  0  0  0 15  0  0  0  0  0  0
    3.0950    1.1967    1.4564 O   0  0  0  0  0 15  0  0  0  0  0  0
    0.2220    2.4363    2.3529 C   0  0  0  0  0 15  0  0  0  0  0  0
   -0.7320    3.6537    2.2001 C   0  0  0  0  0 15  0  0  0  0  0  0
    0.1010    5.1329    1.5261 S   0  0  0  0  0 15  0  0  0  0  0  0
    1.2570    5.5632    2.8680 C   0  0  0  0  0 15  0  0  0  0  0  0
    1.4900    2.9052    0.6314 H   0  0  0  0  0 15  0  0  0  0  0  0
   -0.9770    1.5295    0.2109 H   0  0  0  0  0 15  0  0  0  0  0  0
    0.9810    2.6720    3.1163 H   0  0  0  0  0 15  0  0  0  0  0  0
   -0.3580    1.5738    2.7183 H   0  0  0  0  0 15  0  0  0  0  0  0
   -1.1650    3.9094    3.1809 H   0  0  0  0  0 15  0  0  0  0  0  0
   -1.5630    3.4180    1.5182 H   0  0  0  0  0 15  0  0  0  0  0  0
    0.7290    5.5878    3.8310 H   0  0  0  0  0 15  0  0  0  0  0  0
    1.6720    6.5627    2.6593 H   0  0  0  0  0 15  0  0  0  0  0  0
    2.0800    4.8389    2.9071 H   0  0  0  0  0 15  0  0  0  0  0  0
    1.4781   -0.2728    1.5522 N   0  0  0  0  0 15  0  0  0  0  0  0
    2.7241   -1.0058    1.7610 C   0  0  0  0  0 15  0  0  0  0  0  0
    3.0571   -1.8593    0.5606 C   0  0  0  0  0 15  0  0  0  0  0  0
    2.3321   -1.8942   -0.4418 O   0  0  0  0  0 15  0  0  0  0  0  0
    2.6151   -1.8882    3.0663 C   0  0  0  0  0 15  0  0  0  0  0  0
    2.4681   -1.0646    4.3702 C   0  0  0  0  0 15  0  0  0  0  0  0
    3.7871   -2.8752    3.3320 C   0  0  0  0  0 15  0  0  0  0  0  0
    0.9061   -0.3642    0.6407 H   0  0  0  0  0 15  0  0  0  0  0  0
    3.5481   -0.2782    1.8795 H   0  0  0  0  0 15  0  0  0  0  0  0
    1.6981   -2.5086    2.9665 H   0  0  0  0  0 15  0  0  0  0  0  0
    3.3701   -0.4649    4.5895 H   0  0  0  0  0 15  0  0  0  0  0  0
    1.6131   -0.3680    4.3224 H   0  0  0  0  0 15  0  0  0  0  0  0
    2.2841   -1.7151    5.2468 H   0  0  0  0  0 15  0  0  0  0  0  0
    4.7601   -2.3561    3.4296 H   0  0  0  0  0 15  0  0  0  0  0  0
    3.6361   -3.4640    4.2579 H   0  0  0  0  0 15  0  0  0  0  0  0
    3.8971   -3.6266    2.5285 H   0  0  0  0  0 15  0  0  0  0  0  0
    2.9562   -1.4816   -0.5373 N   0  0  0  0  0 15  0  0  0  0  0  0
    4.1842   -1.5945   -1.3184 C   0  0  0  0  0 15  0  0  0  0  0  0
    4.5992   -0.2521   -1.8711 C   0  0  0  0  0 15  0  0  0  0  0  0
    3.9562    0.7576   -1.6603 O   0  0  0  0  0 15  0  0  0  0  0  0
    4.0072   -2.6355   -2.4744 C   0  0  0  0  0 15  0  0  0  0  0  0
    3.7282   -3.9258   -1.9445 O   0  0  0  0  0 15  0  0  0  0  0  0
    5.2292   -2.8521   -3.3937 C   0  0  0  0  0 15  0  0  0  0  0  0
    2.4492   -0.5379   -0.4012 H   0  0  0  0  0 15  0  0  0  0  0  0
    4.9932   -1.9393   -0.6489 H   0  0  0  0  0 15  0  0  0  0  0  0
    3.1482   -2.3195   -3.1029 H   0  0  0  0  0 15  0  0  0  0  0  0
    3.5622   -4.4963   -2.7006 H   0  0  0  0  0 15  0  0  0  0  0  0
    5.0362   -3.6186   -4.1684 H   0  0  0  0  0 15  0  0  0  0  0  0
    5.5132   -1.9376   -3.9415 H   0  0  0  0  0 15  0  0  0  0  0  0
    6.1192   -3.1809   -2.8231 H   0  0  0  0  0 15  0  0  0  0  0  0
    4.4343    0.7856   -1.3662 N   0  0  0  0  0 15  0  0  0  0  0  0
    5.8503    1.0842   -1.1712 C   0  0  0  0  0 15  0  0  0  0  0  0
    6.0503    2.0150    0.0021 C   0  0  0  0  0 15  0  0  0  0  0  0
    5.1063    2.4355    0.6663 O   0  0  0  0  0 15  0  0  0  0  0  0
    6.4193    1.6950   -2.4838 C   0  0  0  0  0 15  0  0  0  0  0  0
    7.9673    1.8182   -2.5477 C   0  0  0  0  0 15  0  0  0  0  0  0
    8.4423    2.4631   -3.8613 C   0  0  0  0  0 15  0  0  0  0  0  0
    9.9333    2.5378   -3.8749 N   0  0  0  0  0 15  0  0  0  0  0  0
   10.6683    3.0450   -4.8587 C   0  0  0  0  0 15  0  0  0  0  0  0
   10.1643    3.5550   -5.9464 N   0  0  0  0  0 15  0  0  0  0  0  0
   11.9573    3.0325   -4.7328 N   0  0  0  0  0 15  0  0  0  0  0  0
    4.1083    0.1673   -2.1174 H   0  0  0  0  0 15  0  0  0  0  0  0
    6.3713    0.1368   -0.9381 H   0  0  0  0  0 15  0  0  0  0  0  0
    6.0773    1.0857   -3.3452 H   0  0  0  0  0 15  0  0  0  0  0  0
    5.9513    2.6896   -2.6446 H   0  0  0  0  0 15  0  0  0  0  0  0
    8.3383    2.4188   -1.6904 H   0  0  0  0  0 15  0  0  0  0  0  0
    8.4193    0.8115   -2.4259 H   0  0  0  0  0 15  0  0  0  0  0  0
    8.0633    1.8689   -4.7226 H   0  0  0  0  0 15  0  0  0  0  0  0
    7.9933    3.4756   -3.9561 H   0  0  0  0  0 15  0  0  0  0  0  0
   10.4843    2.1767   -3.0891 H   0  0  0  0  0 15  0  0  0  0  0  0
   10.7973    3.9256   -6.6567 H   0  0  0  0  0 15  0  0  0  0  0  0
    9.1423    3.5364   -5.9830 H   0  0  0  0  0 15  0  0  0  0  0  0
   12.3333    2.6270   -3.8744 H   0  0  0  0  0 15  0  0  0  0  0  0
   12.5063    3.4247   -5.5011 H   0  0  0  0  0 15  0  0  0  0  0  0
    5.9124    1.2097    1.0102 N   0  0  0  0  0 15  0  0  0  0  0  0
    7.1594    1.0237    1.7472 C   0  0  0  0  0 15  0  0  0  0  0  0
    7.4874   -0.4434    1.8938 C   0  0  0  0  0 15  0  0  0  0  0  0
    6.7424   -1.3453    1.4212 O   0  0  0  0  0 15  0  0  0  0  0  0
    7.0414    1.6600    3.1651 C   0  0  0  0  0 15  0  0  0  0  0  0
    6.7074    3.1583    3.2181 C   0  0  0  0  0 15  0  0  0  0  0  0
    5.3694    3.5672    3.2296 C   0  0  0  0  0 15  0  0  0  0  0  0
    7.7214    4.1182    3.1946 C   0  0  0  0  0 15  0  0  0  0  0  0
    5.0494    4.9211    3.1945 C   0  0  0  0  0 15  0  0  0  0  0  0
    7.4014    5.4716    3.1749 C   0  0  0  0  0 15  0  0  0  0  0  0
    6.0654    5.8745    3.1695 C   0  0  0  0  0 15  0  0  0  0  0  0
    5.3354    0.3746    0.6393 H   0  0  0  0  0 15  0  0  0  0  0  0
    7.9824    1.5048    1.1843 H   0  0  0  0  0 15  0  0  0  0  0  0
    6.2874    1.1017    3.7599 H   0  0  0  0  0 15  0  0  0  0  0  0
    7.9844    1.4912    3.7224 H   0  0  0  0  0 15  0  0  0  0  0  0
    4.5744    2.8326    3.2165 H   0  0  0  0  0 15  0  0  0  0  0  0
    8.7584    3.8126    3.1774 H   0  0  0  0  0 15  0  0  0  0  0  0
    4.0144    5.2258    3.1737 H   0  0  0  0  0 15  0  0  0  0  0  0
    8.1884    6.2127    3.1463 H   0  0  0  0  0 15  0  0  0  0  0  0
    5.8154    6.9233    3.1398 H   0  0  0  0  0 15  0  0  0  0  0  0
    7.3905   -1.2043    1.0166 N   0  0  0  0  0 15  0  0  0  0  0  0
    8.3205   -2.2547    0.6072 C   0  0  0  0  0 15  0  0  0  0  0  0
    9.3015   -1.6585   -0.3777 C   0  0  0  0  0 15  0  0  0  0  0  0
   10.4865   -1.9241   -0.2631 O   0  0  0  0  0 15  0  0  0  0  0  0
    7.6165   -3.4726   -0.0553 C   0  0  0  0  0 15  0  0  0  0  0  0
    6.5705   -4.1946    0.8506 C   0  0  0  0  0 15  0  0  0  0  0  0
    5.8965   -5.3467    0.0539 C   0  0  0  0  0 15  0  0  0  0  0  0
    7.1965   -4.7560    2.1587 C   0  0  0  0  0 15  0  0  0  0  0  0
    8.8905   -2.5996    1.4853 H   0  0  0  0  0 15  0  0  0  0  0  0
    6.4365   -1.2496    0.7156 H   0  0  0  0  0 15  0  0  0  0  0  0
    8.3895   -4.1992   -0.3532 H   0  0  0  0  0 15  0  0  0  0  0  0
    7.1135   -3.1192   -0.9680 H   0  0  0  0  0 15  0  0  0  0  0  0
    5.7725   -3.4867    1.1326 H   0  0  0  0  0 15  0  0  0  0  0  0
    5.4205   -4.9558   -0.8605 H   0  0  0  0  0 15  0  0  0  0  0  0
    5.1205   -5.8391    0.6572 H   0  0  0  0  0 15  0  0  0  0  0  0
    6.6445   -6.1014   -0.2376 H   0  0  0  0  0 15  0  0  0  0  0  0
    8.0585   -5.4008    1.9231 H   0  0  0  0  0 15  0  0  0  0  0  0
    6.4555   -5.3528    2.7128 H   0  0  0  0  0 15  0  0  0  0  0  0
    7.5255   -3.9435    2.8217 H   0  0  0  0  0 15  0  0  0  0  0  0
    8.8686   -0.7928   -1.3621 N   0  0  0  0  0 15  0  0  0  0  0  0
   10.1166   -0.3661   -1.9876 C   0  0  0  0  0 15  0  0  0  0  0  0
   10.4376    1.0668   -1.6323 C   0  0  0  0  0 15  0  0  0  0  0  0
    9.7076    1.7359   -0.9080 O   0  0  0  0  0 15  0  0  0  0  0  0
    8.2876   -0.1324   -0.7352 H   0  0  0  0  0 15  0  0  0  0  0  0
   10.9496   -1.0156   -1.6635 H   0  0  0  0  0 15  0  0  0  0  0  0
   10.0456   -0.4606   -3.0868 H   0  0  0  0  0 15  0  0  0  0  0  0
   10.3467    1.4787   -0.5451 N   0  0  0  0  0 15  0  0  0  0  0  0
   11.7577    1.8638   -0.1086 C   0  0  0  0  0 15  0  0  0  0  0  0
   12.1087    1.4531    1.3183 C   0  0  0  0  0 15  0  0  0  0  0  0
   11.2337    0.8506    1.9898 O   0  0  0  0  0 15  0  0  0  0  0  0
   11.8287    3.3827   -0.1903 C   0  0  0  0  0 15  0  0  0  0  0  0
   10.3877    3.7591    0.1912 C   0  0  0  0  0 15  0  0  0  0  0  0
    9.5347    2.7193   -0.5433 C   0  0  0  0  0 15  0  0  0  0  0  0
   12.4857    1.3956   -0.7555 H   0  0  0  0  0 15  0  0  0  0  0  0
   12.5067    3.7583    0.5942 H   0  0  0  0  0 15  0  0  0  0  0  0
   12.0187    3.6813   -1.2289 H   0  0  0  0  0 15  0  0  0  0  0  0
   10.1197    3.5167    1.2314 H   0  0  0  0  0 15  0  0  0  0  0  0
   10.2327    4.7884   -0.1590 H   0  0  0  0  0 15  0  0  0  0  0  0
    8.5967    2.5470    0.0122 H   0  0  0  0  0 15  0  0  0  0  0  0
    9.3797    3.0463   -1.5828 H   0  0  0  0  0 15  0  0  0  0  0  0
   11.8248    0.2810    1.5507 N   0  0  0  0  0 15  0  0  0  0  0  0
   13.2408   -0.0730    1.5943 C   0  0  0  0  0 15  0  0  0  0  0  0
   13.4408   -1.5411    1.2982 C   0  0  0  0  0 15  0  0  0  0  0  0
   12.4968   -2.2909    1.0619 O   0  0  0  0  0 15  0  0  0  0  0  0
   13.8098    0.3069    2.9913 C   0  0  0  0  0 15  0  0  0  0  0  0
   15.3578    0.2540    3.1197 C   0  0  0  0  0 15  0  0  0  0  0  0
   15.8328    0.6085    4.5394 C   0  0  0  0  0 15  0  0  0  0  0  0
   17.3238    0.5602    4.5980 N   0  0  0  0  0 15  0  0  0  0  0  0
   18.0588    0.8072    5.6769 C   0  0  0  0  0 15  0  0  0  0  0  0
   17.5548    1.1191    6.8370 N   0  0  0  0  0 15  0  0  0  0  0  0
   19.3478    0.7356    5.5727 N   0  0  0  0  0 15  0  0  0  0  0  0
   11.4988    1.2380    1.7259 H   0  0  0  0  0 15  0  0  0  0  0  0
   13.7618    0.5005    0.8051 H   0  0  0  0  0 15  0  0  0  0  0  0
   13.4678    1.3282    3.2566 H   0  0  0  0  0 15  0  0  0  0  0  0
   13.3418   -0.3494    3.7558 H   0  0  0  0  0 15  0  0  0  0  0  0
   15.7288   -0.7579    2.8520 H   0  0  0  0  0 15  0  0  0  0  0  0
   15.8098    0.9446    2.3772 H   0  0  0  0  0 15  0  0  0  0  0  0
   15.4538    1.6181    4.8143 H   0  0  0  0  0 15  0  0  0  0  0  0
   15.3838   -0.1040    5.2650 H   0  0  0  0  0 15  0  0  0  0  0  0
   17.8748    0.3293    3.7646 H   0  0  0  0  0 15  0  0  0  0  0  0
   18.1878    1.2941    7.6189 H   0  0  0  0  0 15  0  0  0  0  0  0
   16.5328    1.1570    6.8530 H   0  0  0  0  0 15  0  0  0  0  0  0
   19.7238    0.4918    4.6551 H   0  0  0  0  0 15  0  0  0  0  0  0
   19.8968    0.9315    6.4127 H   0  0  0  0  0 15  0  0  0  0  0  0
   13.3029   -1.5760    0.0084 N   0  0  0  0  0 15  0  0  0  0  0  0
   14.5329   -1.9493   -0.6845 C   0  0  0  0  0 15  0  0  0  0  0  0
   14.9409   -0.8822   -1.6737 C   0  0  0  0  0 15  0  0  0  0  0  0
   14.2839    0.1466   -1.8311 O   0  0  0  0  0 15  0  0  0  0  0  0
   14.3459   -3.2830   -1.4649 C   0  0  0  0  0 15  0  0  0  0  0  0
   14.0099   -4.5255   -0.6363 C   0  0  0  0  0 15  0  0  0  0  0  0
   15.0069   -5.1984    0.0796 C   0  0  0  0  0 15  0  0  0  0  0  0
   12.6919   -4.9894   -0.5798 C   0  0  0  0  0 15  0  0  0  0  0  0
   14.6859   -6.3183    0.8408 C   0  0  0  0  0 15  0  0  0  0  0  0
   12.3729   -6.1082    0.1852 C   0  0  0  0  0 15  0  0  0  0  0  0
   13.3709   -6.7712    0.8942 C   0  0  0  0  0 15  0  0  0  0  0  0
   13.0589   -7.8685    1.6467 O   0  0  0  0  0 15  0  0  0  0  0  0
   12.7909   -0.6472   -0.1950 H   0  0  0  0  0 15  0  0  0  0  0  0
   15.3449   -2.0532    0.0581 H   0  0  0  0  0 15  0  0  0  0  0  0
   13.5749   -3.1435   -2.2522 H   0  0  0  0  0 15  0  0  0  0  0  0
   15.2639   -3.5069   -2.0439 H   0  0  0  0  0 15  0  0  0  0  0  0
   16.0299   -4.8498    0.0451 H   0  0  0  0  0 15  0  0  0  0  0  0
   11.9089   -4.4716   -1.1213 H   0  0  0  0  0 15  0  0  0  0  0  0
   15.4529   -6.8351    1.3948 H   0  0  0  0  0 15  0  0  0  0  0  0
   11.3499   -6.4512    0.2214 H   0  0  0  0  0 15  0  0  0  0  0  0
   12.1179   -8.0341    1.5643 H   0  0  0  0  0 15  0  0  0  0  0  0
   14.7810    0.2645   -1.5536 N   0  0  0  0  0 15  0  0  0  0  0  0
   16.1970    0.6122   -1.4739 C   0  0  0  0  0 15  0  0  0  0  0  0
   16.3970    1.8913   -0.6950 C   0  0  0  0  0 15  0  0  0  0  0  0
   15.4530    2.5156   -0.2173 O   0  0  0  0  0 15  0  0  0  0  0  0
   16.7660    0.7312   -2.9167 C   0  0  0  0  0 15  0  0  0  0  0  0
   18.3140    0.8247   -3.0194 C   0  0  0  0  0 15  0  0  0  0  0  0
   18.7890    0.9755   -4.4749 C   0  0  0  0  0 15  0  0  0  0  0  0
   20.2800    1.0408   -4.5135 N   0  0  0  0  0 15  0  0  0  0  0  0
   21.0150    1.1765   -5.6120 C   0  0  0  0  0 15  0  0  0  0  0  0
   20.5110    1.2787   -6.8090 N   0  0  0  0  0 15  0  0  0  0  0  0
   22.3040    1.2082   -5.4896 N   0  0  0  0  0 15  0  0  0  0  0  0
   14.4550   -0.5755   -2.0446 H   0  0  0  0  0 15  0  0  0  0  0  0
   16.7180   -0.1961   -0.9275 H   0  0  0  0  0 15  0  0  0  0  0  0
   16.4240   -0.1384   -3.5143 H   0  0  0  0  0 15  0  0  0  0  0  0
   16.2980    1.6088   -3.4117 H   0  0  0  0  0 15  0  0  0  0  0  0
   18.6850    1.6848   -2.4228 H   0  0  0  0  0 15  0  0  0  0  0  0
   18.7660   -0.0776   -2.5568 H   0  0  0  0  0 15  0  0  0  0  0  0
   18.4100    0.1201   -5.0776 H   0  0  0  0  0 15  0  0  0  0  0  0
   18.3400    1.8927   -4.9141 H   0  0  0  0  0 15  0  0  0  0  0  0
   20.8310    0.9738   -3.6514 H   0  0  0  0  0 15  0  0  0  0  0  0
   21.1440    1.3808   -7.6036 H   0  0  0  0  0 15  0  0  0  0  0  0
   19.4890    1.2486   -6.8369 H   0  0  0  0  0 15  0  0  0  0  0  0
   22.6800    1.1247   -4.5439 H   0  0  0  0  0 15  0  0  0  0  0  0
   22.8530    1.3105   -6.3461 H   0  0  0  0  0 15  0  0  0  0  0  0
   16.2591    1.4844    0.5294 N   0  0  0  0  0 15  0  0  0  0  0  0
   17.1691    1.6569    1.6608 C   0  0  0  0  0 15  0  0  0  0  0  0
   18.1851    0.5394    1.6543 C   0  0  0  0  0 15  0  0  0  0  0  0
   19.3611    0.8106    1.8437 O   0  0  0  0  0 15  0  0  0  0  0  0
   16.4261    1.6932    3.0254 C   0  0  0  0  0 15  0  0  0  0  0  0
   15.4871    2.9269    3.1405 C   0  0  0  0  0 15  0  0  0  0  0  0
   14.7201    2.9614    4.4400 C   0  0  0  0  0 15  0  0  0  0  0  0
   14.9431    2.0797    5.3113 O   0  0  0  0  0 15  0  0  0  0  0  0
   13.8771    3.8831    4.5989 O   0  0  0  0  0 15  0  0  0  0  0  0
   17.7031    2.6148    1.5447 H   0  0  0  0  0 15  0  0  0  0  0  0
   15.2881    1.3185    0.7026 H   0  0  0  0  0 15  0  0  0  0  0  0
   17.1701    1.7422    3.8370 H   0  0  0  0  0 15  0  0  0  0  0  0
   15.8451    0.7670    3.1448 H   0  0  0  0  0 15  0  0  0  0  0  0
   14.7521    2.9332    2.3219 H   0  0  0  0  0 15  0  0  0  0  0  0
   16.0851    3.8470    3.0703 H   0  0  0  0  0 15  0  0  0  0  0  0
   17.7372   -0.7783    1.3704 N   0  0  0  0  0 15  0  0  0  0  0  0
   18.6672   -1.9055    1.3496 C   0  0  0  0  0 15  0  0  0  0  0  0
   19.6482   -1.6868    0.2193 C   0  0  0  0  0 15  0  0  0  0  0  0
   20.8332   -1.8963    0.4186 O   0  0  0  0  0 15  0  0  0  0  0  0
   17.9632   -3.2773    1.1493 C   0  0  0  0  0 15  0  0  0  0  0  0
   16.9172   -3.6415    2.2490 C   0  0  0  0  0 15  0  0  0  0  0  0
   16.2432   -4.9981    1.9000 C   0  0  0  0  0 15  0  0  0  0  0  0
   17.5432   -3.7158    3.6705 C   0  0  0  0  0 15  0  0  0  0  0  0
   19.2372   -1.9254    2.2928 H   0  0  0  0  0 15  0  0  0  0  0  0
   16.7832   -0.9249    1.1037 H   0  0  0  0  0 15  0  0  0  0  0  0
   18.7362   -4.0622    1.1210 H   0  0  0  0  0 15  0  0  0  0  0  0
   17.4602   -3.2615    0.1706 H   0  0  0  0  0 15  0  0  0  0  0  0
   16.1192   -2.8797    2.2687 H   0  0  0  0  0 15  0  0  0  0  0  0
   15.7672   -4.9476    0.9068 H   0  0  0  0  0 15  0  0  0  0  0  0
   15.4672   -5.2514    2.6363 H   0  0  0  0  0 15  0  0  0  0  0  0
   16.9912   -5.8069    1.8875 H   0  0  0  0  0 15  0  0  0  0  0  0
   18.4052   -4.4023    3.6725 H   0  0  0  0  0 15  0  0  0  0  0  0
   16.8022   -4.0840    4.3969 H   0  0  0  0  0 15  0  0  0  0  0  0
   17.8722   -2.7240    4.0115 H   0  0  0  0  0 15  0  0  0  0  0  0
   19.2153   -1.2150   -1.0038 N   0  0  0  0  0 15  0  0  0  0  0  0
   20.4613   -1.0345   -1.7443 C   0  0  0  0  0 15  0  0  0  0  0  0
   20.7943    0.4308   -1.8936 C   0  0  0  0  0 15  0  0  0  0  0  0
   20.0693    1.3196   -1.4289 O   0  0  0  0  0 15  0  0  0  0  0  0
   20.3523   -1.7338   -3.1562 C   0  0  0  0  0 15  0  0  0  0  0  0
   20.2053   -3.2743   -3.0840 C   0  0  0  0  0 15  0  0  0  0  0  0
   21.5243   -1.4773   -4.1456 C   0  0  0  0  0 15  0  0  0  0  0  0
   18.6433   -0.3772   -0.6331 H   0  0  0  0  0 15  0  0  0  0  0  0
   21.2853   -1.4969   -1.1701 H   0  0  0  0  0 15  0  0  0  0  0  0
   19.4353   -1.3406   -3.6464 H   0  0  0  0  0 15  0  0  0  0  0  0
   21.1073   -3.7612   -2.6708 H   0  0  0  0  0 15  0  0  0  0  0  0
   19.3503   -3.5767   -2.4547 H   0  0  0  0  0 15  0  0  0  0  0  0
   20.0213   -3.7152   -4.0826 H   0  0  0  0  0 15  0  0  0  0  0  0
   22.4973   -1.8186   -3.7425 H   0  0  0  0  0 15  0  0  0  0  0  0
   21.3733   -1.9917   -5.1149 H   0  0  0  0  0 15  0  0  0  0  0  0
   21.6343   -0.4076   -4.4022 H   0  0  0  0  0 15  0  0  0  0  0  0
   20.6934    1.1989   -1.0230 N   0  0  0  0  0 15  0  0  0  0  0  0
   21.6404    2.2290   -0.5987 C   0  0  0  0  0 15  0  0  0  0  0  0
   22.6104    1.6159    0.3845 C   0  0  0  0  0 15  0  0  0  0  0  0
   23.7954    1.8870    0.2825 O   0  0  0  0  0 15  0  0  0  0  0  0
   20.9354    3.4506    0.0504 C   0  0  0  0  0 15  0  0  0  0  0  0
   20.0484    4.2078   -0.9781 C   0  0  0  0  0 15  0  0  0  0  0  0
   19.1834    5.3036   -0.2993 C   0  0  0  0  0 15  0  0  0  0  0  0
   18.2224    5.9783   -1.3142 C   0  0  0  0  0 15  0  0  0  0  0  0
   17.3594    6.9898   -0.6617 N   0  0  0  0  0 15  0  0  0  0  0  0
   22.1994    2.5855   -1.4817 H   0  0  0  0  0 15  0  0  0  0  0  0
   19.7364    1.2704   -0.7416 H   0  0  0  0  0 15  0  0  0  0  0  0
   21.6944    4.1483    0.4440 H   0  0  0  0  0 15  0  0  0  0  0  0
   20.3244    3.1008    0.8971 H   0  0  0  0  0 15  0  0  0  0  0  0
   19.3764    3.5002   -1.4897 H   0  0  0  0  0 15  0  0  0  0  0  0
   20.6884    4.6711   -1.7496 H   0  0  0  0  0 15  0  0  0  0  0  0
   19.8424    6.0652    0.1493 H   0  0  0  0  0 15  0  0  0  0  0  0
   18.5814    4.8508    0.5044 H   0  0  0  0  0 15  0  0  0  0  0  0
   17.5864    5.2042   -1.7732 H   0  0  0  0  0 15  0  0  0  0  0  0
   18.8114    6.4518   -2.1193 H   0  0  0  0  0 15  0  0  0  0  0  0
   16.7574    6.5589    0.1221 H   0  0  0  0  0 15  0  0  0  0  0  0
   16.6744    7.4346   -1.3712 H   0  0  0  0  0 15  0  0  0  0  0  0
   17.9424    7.7914   -0.2368 H   0  0  0  0  0 15  0  0  0  0  0  0
   22.1715    0.8000    1.3578 N   0  0  0  0  0 15  0  0  0  0  0  0
   23.1195    0.1939    2.3179 C   0  0  0  0  0 15  0  0  0  0  0  0
   24.1135   -0.6527    1.5632 C   0  0  0  0  0 15  0  0  0  0  0  0
   25.3195   -0.5466    1.7150 O   0  0  0  0  0 15  0  0  0  0  0  0
   21.6945    0.0439    0.7507 H   0  0  0  0  0 15  0  0  0  0  0  0
   23.6655    1.0188    2.8047 H   0  0  0  0  0 15  0  0  0  0  0  0
   22.4145   -0.6483    3.4160 C   0  0  0  0  0 15  0  0  0  0  0  0
   21.7375   -0.0062    3.9980 H   0  0  0  0  0 15  0  0  0  0  0  0
   23.1775   -1.0390    4.1107 H   0  0  0  0  0 15  0  0  0  0  0  0
   21.6365   -1.8111    2.8408 C   0  0  0  0  0 15  0  0  0  0  0  0
   22.1665   -2.9082    2.7710 O   0  0  0  0  0 15  0  0  0  0  0  0
   20.3725   -1.6206    2.4122 N   0  0  0  0  0 15  0  0  0  0  0  0
   19.9195   -0.7281    2.4710 H   0  0  0  0  0 15  0  0  0  0  0  0
   19.8775   -2.4001    2.0308 H   0  0  0  0  0 15  0  0  0  0  0  0
   23.6496   -1.4758    0.5530 N   0  0  0  0  0 15  0  0  0  0  0  0
   24.8956   -2.0337    0.0356 C   0  0  0  0  0 15  0  0  0  0  0  0
   25.2506   -1.4202   -1.2980 C   0  0  0  0  0 15  0  0  0  0  0  0
   24.5436   -0.5649   -1.8308 O   0  0  0  0  0 15  0  0  0  0  0  0
   24.7376   -3.5720   -0.1197 C   0  0  0  0  0 15  0  0  0  0  0  0
   24.5666   -4.3347    1.1973 C   0  0  0  0  0 15  0  0  0  0  0  0
   23.3366   -4.7353    1.7635 C   0  0  0  0  0 15  0  0  0  0  0  0
   25.5346   -4.6887    2.1135 C   0  0  0  0  0 15  0  0  0  0  0  0
   23.5166   -5.3443    3.0210 N   0  0  0  0  0 15  0  0  0  0  0  0
   24.8876   -5.3002    3.2168 C   0  0  0  0  0 15  0  0  0  0  0  0
   26.9426   -4.5079    2.1140 C   0  0  0  0  0 15  0  0  0  0  0  0
   25.6456   -5.7501    4.3215 C   0  0  0  0  0 15  0  0  0  0  0  0
   27.6716   -4.9678    3.2088 C   0  0  0  0  0 15  0  0  0  0  0  0
   27.0336   -5.5798    4.2993 C   0  0  0  0  0 15  0  0  0  0  0  0
   23.1326   -0.7801    0.0551 H   0  0  0  0  0 15  0  0  0  0  0  0
   25.7166   -1.8012    0.7393 H   0  0  0  0  0 15  0  0  0  0  0  0
   23.8876   -3.8023   -0.7926 H   0  0  0  0  0 15  0  0  0  0  0  0
   25.6196   -3.9963   -0.6388 H   0  0  0  0  0 15  0  0  0  0  0  0
   22.3746   -4.5535    1.3020 H   0  0  0  0  0 15  0  0  0  0  0  0
   22.7986   -5.6942    3.6618 H   0  0  0  0  0 15  0  0  0  0  0  0
   27.4406   -4.0284    1.2837 H   0  0  0  0  0 15  0  0  0  0  0  0
   25.1586   -6.2196    5.1594 H   0  0  0  0  0 15  0  0  0  0  0  0
   28.7446   -4.8457    3.2199 H   0  0  0  0  0 15  0  0  0  0  0  0
   27.6246   -5.9292    5.1324 H   0  0  0  0  0 15  0  0  0  0  0  0
   25.1277   -0.2892   -1.5492 N   0  0  0  0  0 15  0  0  0  0  0  0
   26.3737    0.3240   -2.0020 C   0  0  0  0  0 15  0  0  0  0  0  0
   26.7067    1.5444   -1.1774 C   0  0  0  0  0 15  0  0  0  0  0  0
   25.9817    1.9288   -0.2509 O   0  0  0  0  0 15  0  0  0  0  0  0
   26.2647    0.6923   -3.5338 C   0  0  0  0  0 15  0  0  0  0  0  0
   26.1177   -0.5365   -4.4659 C   0  0  0  0  0 15  0  0  0  0  0  0
   27.4367    1.5233   -4.1289 C   0  0  0  0  0 15  0  0  0  0  0  0
   24.5557    0.1163   -0.7278 H   0  0  0  0  0 15  0  0  0  0  0  0
   27.1977   -0.3990   -1.8576 H   0  0  0  0  0 15  0  0  0  0  0  0
   25.3477    1.3082   -3.6581 H   0  0  0  0  0 15  0  0  0  0  0  0
   27.0197   -1.1750   -4.4608 H   0  0  0  0  0 15  0  0  0  0  0  0
   25.2627   -1.1719   -4.1767 H   0  0  0  0  0 15  0  0  0  0  0  0
   25.9337   -0.2348   -5.5150 H   0  0  0  0  0 15  0  0  0  0  0  0
   28.4097    1.0030   -4.0383 H   0  0  0  0  0 15  0  0  0  0  0  0
   27.2857    1.7498   -5.2026 H   0  0  0  0  0 15  0  0  0  0  0  0
   27.5467    2.5089   -3.6402 H   0  0  0  0  0 15  0  0  0  0  0  0
   26.6058    1.5759   -0.0167 N   0  0  0  0  0 15  0  0  0  0  0  0
   28.0168    1.7920    0.5238 C   0  0  0  0  0 15  0  0  0  0  0  0
   28.3678    0.9258    1.7298 C   0  0  0  0  0 15  0  0  0  0  0  0
   27.4928    0.1328    2.1599 O   0  0  0  0  0 15  0  0  0  0  0  0
   28.0878    3.2500    0.9571 C   0  0  0  0  0 15  0  0  0  0  0  0
   26.6468    3.4765    1.4428 C   0  0  0  0  0 15  0  0  0  0  0  0
   25.7938    2.7437    0.4018 C   0  0  0  0  0 15  0  0  0  0  0  0
   28.7448    1.5683   -0.2428 H   0  0  0  0  0 15  0  0  0  0  0  0
   28.7658    3.3403    1.8222 H   0  0  0  0  0 15  0  0  0  0  0  0
   28.2778    3.8802    0.0791 H   0  0  0  0  0 15  0  0  0  0  0  0
   26.3788    2.8987    2.3411 H   0  0  0  0  0 15  0  0  0  0  0  0
   26.4918    4.5635    1.4588 H   0  0  0  0  0 15  0  0  0  0  0  0
   24.8558    2.3949    0.8671 H   0  0  0  0  0 15  0  0  0  0  0  0
   25.6388    3.4010   -0.4675 H   0  0  0  0  0 15  0  0  0  0  0  0
   28.0839   -0.2563    1.5550 N   0  0  0  0  0 15  0  0  0  0  0  0
   29.3119   -1.0034    1.8094 C   0  0  0  0  0 15  0  0  0  0  0  0
   29.7269   -1.7931    0.5911 C   0  0  0  0  0 15  0  0  0  0  0  0
   29.0839   -1.7711   -0.4401 O   0  0  0  0  0 15  0  0  0  0  0  0
   29.1349   -1.9488    3.0448 C   0  0  0  0  0 15  0  0  0  0  0  0
   28.8559   -1.1911    4.2160 O   0  0  0  0  0 15  0  0  0  0  0  0
   30.3569   -2.8127    3.4264 C   0  0  0  0  0 15  0  0  0  0  0  0
   27.5769   -0.2957    0.6023 H   0  0  0  0  0 15  0  0  0  0  0  0
   30.1209   -0.2820    2.0255 H   0  0  0  0  0 15  0  0  0  0  0  0
   28.2759   -2.6246    2.8495 H   0  0  0  0  0 15  0  0  0  0  0  0
   28.6899   -1.8297    4.9155 H   0  0  0  0  0 15  0  0  0  0  0  0
   30.1639   -3.4336    4.3221 H   0  0  0  0  0 15  0  0  0  0  0  0
   30.6409   -3.5190    2.6280 H   0  0  0  0  0 15  0  0  0  0  0  0
   31.2469   -2.1915    3.6449 H   0  0  0  0  0 15  0  0  0  0  0  0
   29.5620   -1.4872   -0.5215 N   0  0  0  0  0 15  0  0  0  0  0  0
   30.5250   -1.6338   -1.6075 C   0  0  0  0  0 15  0  0  0  0  0  0
   31.5250   -0.5066   -1.5261 C   0  0  0  0  0 15  0  0  0  0  0  0
   32.7150   -0.7726   -1.5613 O   0  0  0  0  0 15  0  0  0  0  0  0
   29.8470   -1.6119   -3.0038 C   0  0  0  0  0 15  0  0  0  0  0  0
   31.0400   -2.6022   -1.4909 H   0  0  0  0  0 15  0  0  0  0  0  0
   28.5930   -1.3744   -0.7442 H   0  0  0  0  0 15  0  0  0  0  0  0
   29.3280   -0.6586   -3.1754 H   0  0  0  0  0 15  0  0  0  0  0  0
   29.1130   -2.4303   -3.0770 H   0  0  0  0  0 15  0  0  0  0  0  0
   30.6030   -1.7466   -3.7932 H   0  0  0  0  0 15  0  0  0  0  0  0
   31.0401    0.7711   -1.3745 N   0  0  0  0  0 15  0  0  0  0  0  0
   32.2701    1.5579   -1.3570 C   0  0  0  0  0 15  0  0  0  0  0  0
   32.6781    1.8911    0.0595 C   0  0  0  0  0 15  0  0  0  0  0  0
   32.0211    1.5198    1.0318 O   0  0  0  0  0 15  0  0  0  0  0  0
   32.0831    2.8951   -2.1312 C   0  0  0  0  0 15  0  0  0  0  0  0
   31.7471    2.7883   -3.6208 C   0  0  0  0  0 15  0  0  0  0  0  0
   32.7441    2.4981   -4.5595 C   0  0  0  0  0 15  0  0  0  0  0  0
   30.4291    2.9683   -4.0521 C   0  0  0  0  0 15  0  0  0  0  0  0
   32.4231    2.3892   -5.9093 C   0  0  0  0  0 15  0  0  0  0  0  0
   30.1101    2.8556   -5.4028 C   0  0  0  0  0 15  0  0  0  0  0  0
   31.1081    2.5665   -6.3295 C   0  0  0  0  0 15  0  0  0  0  0  0
   30.7961    2.4541   -7.6553 O   0  0  0  0  0 15  0  0  0  0  0  0
   30.5281    0.4893   -0.4665 H   0  0  0  0  0 15  0  0  0  0  0  0
   33.0821    0.9634   -1.8140 H   0  0  0  0  0 15  0  0  0  0  0  0
   31.3121    3.5108   -1.6211 H   0  0  0  0  0 15  0  0  0  0  0  0
   33.0011    3.5091   -2.0399 H   0  0  0  0  0 15  0  0  0  0  0  0
   33.7671    2.3559   -4.2394 H   0  0  0  0  0 15  0  0  0  0  0  0
   29.6461    3.1834   -3.3344 H   0  0  0  0  0 15  0  0  0  0  0  0
   33.1901    2.1628   -6.6323 H   0  0  0  0  0 15  0  0  0  0  0  0
   29.0871    2.9935   -5.7189 H   0  0  0  0  0 15  0  0  0  0  0  0
   29.8551    2.6075   -7.7585 H   0  0  0  0  0 15  0  0  0  0  0  0
   32.5182    1.2203    0.9973 N   0  0  0  0  0 15  0  0  0  0  0  0
   33.7462    1.0684    1.7718 C   0  0  0  0  0 15  0  0  0  0  0  0
   34.1612   -0.3813    1.8491 C   0  0  0  0  0 15  0  0  0  0  0  0
   33.5182   -1.2644    1.3161 O   0  0  0  0  0 15  0  0  0  0  0  0
   33.5692    1.6681    3.2071 C   0  0  0  0  0 15  0  0  0  0  0  0
   33.2902    3.0612    3.1341 O   0  0  0  0  0 15  0  0  0  0  0  0
   34.7912    1.5684    4.1463 C   0  0  0  0  0 15  0  0  0  0  0  0
   32.0112    0.3748    0.5566 H   0  0  0  0  0 15  0  0  0  0  0  0
   34.5552    1.6153    1.2541 H   0  0  0  0  0 15  0  0  0  0  0  0
   32.7102    1.1620    3.6956 H   0  0  0  0  0 15  0  0  0  0  0  0
   33.1242    3.3493    4.0364 H   0  0  0  0  0 15  0  0  0  0  0  0
   34.5982    2.0353    5.1311 H   0  0  0  0  0 15  0  0  0  0  0  0
   35.0752    0.5242    4.3606 H   0  0  0  0  0 15  0  0  0  0  0  0
   35.6812    2.0674    3.7167 H   0  0  0  0  0 15  0  0  0  0  0  0
   33.9963   -1.1934    1.0293 N   0  0  0  0  0 15  0  0  0  0  0  0
   35.2423   -1.8958    0.7368 C   0  0  0  0  0 15  0  0  0  0  0  0
   35.5973   -1.7815   -0.7267 C   0  0  0  0  0 15  0  0  0  0  0  0
   34.8903   -1.1633   -1.5224 O   0  0  0  0  0 15  0  0  0  0  0  0
   35.0843   -3.3929    1.1232 C   0  0  0  0  0 15  0  0  0  0  0  0
   34.9133   -3.6530    2.6227 C   0  0  0  0  0 15  0  0  0  0  0  0
   33.6833   -3.8330    3.2925 C   0  0  0  0  0 15  0  0  0  0  0  0
   35.8813   -3.6682    3.6048 C   0  0  0  0  0 15  0  0  0  0  0  0
   33.8633   -3.9694    4.6830 N   0  0  0  0  0 15  0  0  0  0  0  0
   35.2343   -3.8604    4.8516 C   0  0  0  0  0 15  0  0  0  0  0  0
   37.2893   -3.4985    3.5427 C   0  0  0  0  0 15  0  0  0  0  0  0
   35.9923   -3.9004    6.0437 C   0  0  0  0  0 15  0  0  0  0  0  0
   38.0183   -3.5513    4.7290 C   0  0  0  0  0 15  0  0  0  0  0  0
   37.3803   -3.7483    5.9639 C   0  0  0  0  0 15  0  0  0  0  0  0
   33.4793   -0.7129    0.3215 H   0  0  0  0  0 15  0  0  0  0  0  0
   36.0633   -1.4343    1.3167 H   0  0  0  0  0 15  0  0  0  0  0  0
   34.2343   -3.8417    0.5715 H   0  0  0  0  0 15  0  0  0  0  0  0
   35.9663   -3.9705    0.7829 H   0  0  0  0  0 15  0  0  0  0  0  0
   32.7213   -3.8221    2.7966 H   0  0  0  0  0 15  0  0  0  0  0  0
   33.1453   -4.0761    5.4054 H   0  0  0  0  0 15  0  0  0  0  0  0
   37.7873   -3.3357    2.5979 H   0  0  0  0  0 15  0  0  0  0  0  0
   35.5053   -4.0511    6.9922 H   0  0  0  0  0 15  0  0  0  0  0  0
   39.0913   -3.4329    4.6973 H   0  0  0  0  0 15  0  0  0  0  0  0
   37.9713   -3.7879    6.8665 H   0  0  0  0  0 15  0  0  0  0  0  0
   35.4744   -0.8072   -1.3536 N   0  0  0  0  0 15  0  0  0  0  0  0
   36.7224   -0.3871   -1.9836 C   0  0  0  0  0 15  0  0  0  0  0  0
   37.0434    1.0494   -1.6435 C   0  0  0  0  0 15  0  0  0  0  0  0
   36.3134    1.7261   -0.9263 O   0  0  0  0  0 15  0  0  0  0  0  0
   34.8934   -0.1402   -0.7337 H   0  0  0  0  0 15  0  0  0  0  0  0
   37.5554   -1.0332   -1.6526 H   0  0  0  0  0 15  0  0  0  0  0  0
   36.6514   -0.4934   -3.0818 H   0  0  0  0  0 15  0  0  0  0  0  0
   36.9525    1.4729   -0.5608 N   0  0  0  0  0 15  0  0  0  0  0  0
   37.9155    2.2853    0.1745 C   0  0  0  0  0 15  0  0  0  0  0  0
   38.9155    1.3715    0.8394 C   0  0  0  0  0 15  0  0  0  0  0  0
   40.1055    1.5975    0.6947 O   0  0  0  0  0 15  0  0  0  0  0  0
   37.2375    3.1693    1.2556 C   0  0  0  0  0 15  0  0  0  0  0  0
   38.4305    2.9501   -0.5393 H   0  0  0  0  0 15  0  0  0  0  0  0
   35.9835    1.5303   -0.3179 H   0  0  0  0  0 15  0  0  0  0  0  0
   36.7185    2.5516    2.0016 H   0  0  0  0  0 15  0  0  0  0  0  0
   36.5035    3.8419    0.7836 H   0  0  0  0  0 15  0  0  0  0  0  0
   37.9935    3.7814    1.7719 H   0  0  0  0  0 15  0  0  0  0  0  0
   38.4306    0.2974    1.5477 N   0  0  0  0  0 15  0  0  0  0  0  0
   39.6766   -0.3134    2.0036 C   0  0  0  0  0 15  0  0  0  0  0  0
   40.0096   -1.5381    1.1855 C   0  0  0  0  0 15  0  0  0  0  0  0
   39.2846   -1.9274    0.2611 O   0  0  0  0  0 15  0  0  0  0  0  0
   39.5676   -0.6735    3.5375 C   0  0  0  0  0 15  0  0  0  0  0  0
   39.4206    0.5601    4.4630 C   0  0  0  0  0 15  0  0  0  0  0  0
   40.7396   -1.5014    4.1370 C   0  0  0  0  0 15  0  0  0  0  0  0
   37.8586   -0.1124    0.7284 H   0  0  0  0  0 15  0  0  0  0  0  0
   40.5006    0.4088    1.8555 H   0  0  0  0  0 15  0  0  0  0  0  0
   38.6506   -1.2888    3.6650 H   0  0  0  0  0 15  0  0  0  0  0  0
   40.3226    1.1986    4.4546 H   0  0  0  0  0 15  0  0  0  0  0  0
   38.5656    1.1941    4.1704 H   0  0  0  0  0 15  0  0  0  0  0  0
   39.2366    0.2641    5.5137 H   0  0  0  0  0 15  0  0  0  0  0  0
   41.7126   -0.9816    4.0436 H   0  0  0  0  0 15  0  0  0  0  0  0
   40.5886   -1.7222    5.2118 H   0  0  0  0  0 15  0  0  0  0  0  0
   40.8496   -2.4895    3.6534 H   0  0  0  0  0 15  0  0  0  0  0  0
   39.9087   -1.5758    0.0251 N   0  0  0  0  0 15  0  0  0  0  0  0
   41.1567   -1.9125   -0.6532 C   0  0  0  0  0 15  0  0  0  0  0  0
   41.4777   -0.9017   -1.7290 C   0  0  0  0  0 15  0  0  0  0  0  0
   40.7477    0.0574   -1.9582 O   0  0  0  0  0 15  0  0  0  0  0  0
   39.3277   -0.7059   -0.2442 H   0  0  0  0  0 15  0  0  0  0  0  0
   41.9897   -1.9477    0.0719 H   0  0  0  0  0 15  0  0  0  0  0  0
   41.0857   -2.9175   -1.1085 H   0  0  0  0  0 15  0  0  0  0  0  0
   41.3868    0.2480   -1.5564 N   0  0  0  0  0 15  0  0  0  0  0  0
   42.3498    1.2904   -1.8942 C   0  0  0  0  0 15  0  0  0  0  0  0
   43.3498    1.4113   -0.7706 C   0  0  0  0  0 15  0  0  0  0  0  0
   44.5398    1.3985   -1.0386 O   0  0  0  0  0 15  0  0  0  0  0  0
   41.6718    2.6683   -2.1216 C   0  0  0  0  0 15  0  0  0  0  0  0
   42.8648    1.0031   -2.8263 H   0  0  0  0  0 15  0  0  0  0  0  0
   40.4178    0.4873   -1.4851 H   0  0  0  0  0 15  0  0  0  0  0  0
   41.1528    3.0071   -1.2142 H   0  0  0  0  0 15  0  0  0  0  0  0
   40.9378    2.5944   -2.9400 H   0  0  0  0  0 15  0  0  0  0  0  0
   42.4278    3.4210   -2.3949 H   0  0  0  0  0 15  0  0  0  0  0  0
   42.8649    1.4899    0.5136 N   0  0  0  0  0 15  0  0  0  0  0  0
   44.1109    1.5808    1.2704 C   0  0  0  0  0 15  0  0  0  0  0  0
   44.4439    0.2610    1.9244 C   0  0  0  0  0 15  0  0  0  0  0  0
   43.7189   -0.7344    1.8010 O   0  0  0  0  0 15  0  0  0  0  0  0
   44.0019    2.7309    2.3472 C   0  0  0  0  0 15  0  0  0  0  0  0
   43.8549    4.1482    1.7391 C   0  0  0  0  0 15  0  0  0  0  0  0
   45.1739    2.8380    3.3637 C   0  0  0  0  0 15  0  0  0  0  0  0
   42.2929    0.5754    0.4605 H   0  0  0  0  0 15  0  0  0  0  0  0
   44.9349    1.8123    0.5705 H   0  0  0  0  0 15  0  0  0  0  0  0
   43.0849    2.5348    2.9442 H   0  0  0  0  0 15  0  0  0  0  0  0
   44.7569    4.4592    1.1814 H   0  0  0  0  0 15  0  0  0  0  0  0
   42.9999    4.2106    1.0437 H   0  0  0  0  0 15  0  0  0  0  0  0
   43.6709    4.9115    2.5195 H   0  0  0  0  0 15  0  0  0  0  0  0
   46.1469    3.0161    2.8665 H   0  0  0  0  0 15  0  0  0  0  0  0
   45.0229    3.6597    4.0909 H   0  0  0  0  0 15  0  0  0  0  0  0
   45.2839    1.9262    3.9793 H   0  0  0  0  0 15  0  0  0  0  0  0
   44.3430   -0.7638    1.3786 N   0  0  0  0  0 15  0  0  0  0  0  0
   45.5910   -1.5196    1.3324 C   0  0  0  0  0 15  0  0  0  0  0  0
   45.9120   -1.9484   -0.0802 C   0  0  0  0  0 15  0  0  0  0  0  0
   45.1820   -1.6689   -1.0258 O   0  0  0  0  0 15  0  0  0  0  0  0
   43.7620   -0.5636    0.4902 H   0  0  0  0  0 15  0  0  0  0  0  0
   46.4240   -0.9085    1.7243 H   0  0  0  0  0 15  0  0  0  0  0  0
   45.5200   -2.4152    1.9767 H   0  0  0  0  0 15  0  0  0  0  0  0
   45.8211   -1.2256   -0.9908 N   0  0  0  0  0 15  0  0  0  0  0  0
   46.7511   -1.0218   -2.0996 C   0  0  0  0  0 15  0  0  0  0  0  0
   47.7321    0.0579   -1.7000 C   0  0  0  0  0 15  0  0  0  0  0  0
   48.9171   -0.1047   -1.9392 O   0  0  0  0  0 15  0  0  0  0  0  0
   46.0471   -0.6010   -3.4206 C   0  0  0  0  0 15  0  0  0  0  0  0
   45.0011   -1.6269   -3.9587 C   0  0  0  0  0 15  0  0  0  0  0  0
   44.3271   -1.0619   -5.2405 C   0  0  0  0  0 15  0  0  0  0  0  0
   45.6271   -3.0174   -4.2632 C   0  0  0  0  0 15  0  0  0  0  0  0
   47.3211   -1.9492   -2.2726 H   0  0  0  0  0 15  0  0  0  0  0  0
   44.8671   -0.9386   -1.0921 H   0  0  0  0  0 15  0  0  0  0  0  0
   46.8201   -0.4456   -4.1904 H   0  0  0  0  0 15  0  0  0  0  0  0
   45.5441    0.3620   -3.2459 H   0  0  0  0  0 15  0  0  0  0  0  0
   44.2031   -1.7702   -3.2103 H   0  0  0  0  0 15  0  0  0  0  0  0
   43.8511   -0.0902   -5.0292 H   0  0  0  0  0 15  0  0  0  0  0  0
   43.5511   -1.7473   -5.6102 H   0  0  0  0  0 15  0  0  0  0  0  0
   45.0751   -0.9181   -6.0366 H   0  0  0  0  0 15  0  0  0  0  0  0
   46.4891   -2.9078   -4.9409 H   0  0  0  0  0 15  0  0  0  0  0  0
   44.8861   -3.6742   -4.7447 H   0  0  0  0  0 15  0  0  0  0  0  0
   45.9561   -3.5152   -3.3401 H   0  0  0  0  0 15  0  0  0  0  0  0
   47.2992    1.1880   -1.0356 N   0  0  0  0  0 15  0  0  0  0  0  0
   48.5452    1.8893   -0.7371 C   0  0  0  0  0 15  0  0  0  0  0  0
   48.8782    1.7984    0.7330 C   0  0  0  0  0 15  0  0  0  0  0  0
   48.1532    1.1953    1.5344 O   0  0  0  0  0 15  0  0  0  0  0  0
   48.4362    3.3961   -1.1975 C   0  0  0  0  0 15  0  0  0  0  0  0
   48.2892    3.5754   -2.7292 C   0  0  0  0  0 15  0  0  0  0  0  0
   49.6082    4.3307   -0.7835 C   0  0  0  0  0 15  0  0  0  0  0  0
   46.7272    0.6861   -0.2692 H   0  0  0  0  0 15  0  0  0  0  0  0
   49.3692    1.3980   -1.2867 H   0  0  0  0  0 15  0  0  0  0  0  0
   47.5192    3.8158   -0.7299 H   0  0  0  0  0 15  0  0  0  0  0  0
   49.1912    3.2469   -3.2768 H   0  0  0  0  0 15  0  0  0  0  0  0
   47.4342    3.0036   -3.1299 H   0  0  0  0  0 15  0  0  0  0  0  0
   48.1052    4.6324   -3.0019 H   0  0  0  0  0 15  0  0  0  0  0  0
   50.5812    3.9885   -1.1858 H   0  0  0  0  0 15  0  0  0  0  0  0
   49.4572    5.3707   -1.1334 H   0  0  0  0  0 15  0  0  0  0  0  0
   49.7182    4.4099    0.3137 H   0  0  0  0  0 15  0  0  0  0  0  0
   48.7773    0.8144    1.3493 N   0  0  0  0  0 15  0  0  0  0  0  0
   50.0233    0.4082    1.9926 C   0  0  0  0  0 15  0  0  0  0  0  0
   50.3783   -1.0154    1.6342 C   0  0  0  0  0 15  0  0  0  0  0  0
   49.6713   -1.6961    0.8913 O   0  0  0  0  0 15  0  0  0  0  0  0
   49.8653    0.5378    3.5333 C   0  0  0  0  0 15  0  0  0  0  0  0
   49.6943    1.9724    4.0414 C   0  0  0  0  0 15  0  0  0  0  0  0
   48.4643    2.6025    4.3313 C   0  0  0  0  0 15  0  0  0  0  0  0
   50.6623    2.9380    4.2212 C   0  0  0  0  0 15  0  0  0  0  0  0
   48.6443    3.9504    4.6991 N   0  0  0  0  0 15  0  0  0  0  0  0
   50.0153    4.1348    4.6199 C   0  0  0  0  0 15  0  0  0  0  0  0
   52.0703    2.9053    4.0435 C   0  0  0  0  0 15  0  0  0  0  0  0
   50.7733    5.3033    4.8595 C   0  0  0  0  0 15  0  0  0  0  0  0
   52.7993    4.0659    4.2946 C   0  0  0  0  0 15  0  0  0  0  0  0
   52.1613    5.2502    4.6961 C   0  0  0  0  0 15  0  0  0  0  0  0
   48.2603    0.1973    0.7567 H   0  0  0  0  0 15  0  0  0  0  0  0
   50.8443    1.0573    1.6349 H   0  0  0  0  0 15  0  0  0  0  0  0
   49.0153   -0.0814    3.8831 H   0  0  0  0  0 15  0  0  0  0  0  0
   50.7473    0.1054    4.0456 H   0  0  0  0  0 15  0  0  0  0  0  0
   47.5023    2.1154    4.2373 H   0  0  0  0  0 15  0  0  0  0  0  0
   47.9263    4.6445    4.9256 H   0  0  0  0  0 15  0  0  0  0  0  0
   52.5683    2.0012    3.7244 H   0  0  0  0  0 15  0  0  0  0  0  0
   50.2863    6.2131    5.1672 H   0  0  0  0  0 15  0  0  0  0  0  0
   53.8723    4.0545    4.1726 H   0  0  0  0  0 15  0  0  0  0  0  0
   52.7523    6.1333    4.8867 H   0  0  0  0  0 15  0  0  0  0  0  0
   50.2554   -1.4699    0.5686 N   0  0  0  0  0 15  0  0  0  0  0  0
   51.2184   -2.2862   -0.1624 C   0  0  0  0  0 15  0  0  0  0  0  0
   52.2184   -1.3760   -0.8321 C   0  0  0  0  0 15  0  0  0  0  0  0
   53.4084   -1.6011   -0.6862 O   0  0  0  0  0 15  0  0  0  0  0  0
   50.5404   -3.1760   -1.2388 C   0  0  0  0  0 15  0  0  0  0  0  0
   51.7334   -2.9472    0.5549 H   0  0  0  0  0 15  0  0  0  0  0  0
   49.2864   -1.5286    0.3260 H   0  0  0  0  0 15  0  0  0  0  0  0
   50.0214   -2.5621   -1.9881 H   0  0  0  0  0 15  0  0  0  0  0  0
   49.8064   -3.8460   -0.7632 H   0  0  0  0  0 15  0  0  0  0  0  0
   51.2964   -3.7908   -1.7519 H   0  0  0  0  0 15  0  0  0  0  0  0
   51.7335   -0.3056   -1.5461 N   0  0  0  0  0 15  0  0  0  0  0  0
   52.9615    0.3048   -2.0464 C   0  0  0  0  0 15  0  0  0  0  0  0
   53.3765    1.4717   -1.1827 C   0  0  0  0  0 15  0  0  0  0  0  0
   52.7335    1.8130   -0.2093 O   0  0  0  0  0 15  0  0  0  0  0  0
   52.7845    0.7566   -3.5349 C   0  0  0  0  0 15  0  0  0  0  0  0
   52.5055   -0.3639   -4.3659 O   0  0  0  0  0 15  0  0  0  0  0  0
   54.0065    1.4316   -4.1955 C   0  0  0  0  0 15  0  0  0  0  0  0
   51.2265    0.0655   -0.6678 H   0  0  0  0  0 15  0  0  0  0  0  0
   53.7705   -0.4466   -1.9956 H   0  0  0  0  0 15  0  0  0  0  0  0
   51.9255    1.4579   -3.5892 H   0  0  0  0  0 15  0  0  0  0  0  0
   52.3395   -0.0113   -5.2450 H   0  0  0  0  0 15  0  0  0  0  0  0
   53.8135    1.6989   -5.2521 H   0  0  0  0  0 15  0  0  0  0  0  0
   54.2905    2.3732   -3.6956 H   0  0  0  0  0 15  0  0  0  0  0  0
   54.8965    0.7733   -4.1821 H   0  0  0  0  0 15  0  0  0  0  0  0
   53.2116    1.5756   -0.0334 N   0  0  0  0  0 15  0  0  0  0  0  0
   54.4886    1.8328    0.6832 C   0  0  0  0  0 15  0  0  0  0  0  0
   54.8686    0.9182    1.9008 C   0  0  0  0  0 15  0  0  0  0  0  0
   54.2166   -0.0251    2.2849 O   0  0  0  0  0 15  0  0  0  0  0  0
   54.4266    3.3260    1.0573 C   0  0  0  0  0 15  0  0  0  0  0  0
   55.7746    3.9918    1.4471 C   0  0  0  0  0 15  0  0  0  0  0  0
   56.7986    3.3712    1.1502 O   0  0  0  0  0 15  0  0  0  0  0  0
   55.6576    5.0857    2.0006 O   0  0  0  0  0 15  0  0  0  0  0  0
   52.7516    0.7559    0.3355 H   0  0  0  0  0 15  0  0  0  0  0  0
   55.2976    1.6959   -0.0614 H   0  0  0  0  0 15  0  0  0  0  0  0
   54.0696    3.9083    0.1908 H   0  0  0  0  0 15  0  0  0  0  0  0
   53.6926    3.5141    1.8599 H   0  0  0  0  0 15  0  0  0  0  0  0
   54.6897   -0.2398    1.5577 N   0  0  0  0  0 15  0  0  0  0  0  0
   55.9357   -0.9639    1.7911 C   0  0  0  0  0 15  0  0  0  0  0  0
   56.2907   -1.8269    0.6035 C   0  0  0  0  0 15  0  0  0  0  0  0
   55.5837   -1.8731   -0.4030 O   0  0  0  0  0 15  0  0  0  0  0  0
   55.7777   -1.8520    3.0567 C   0  0  0  0  0 15  0  0  0  0  0  0
   55.6067   -1.0765    4.3663 C   0  0  0  0  0 15  0  0  0  0  0  0
   54.3767   -0.7787    4.9926 C   0  0  0  0  0 15  0  0  0  0  0  0
   56.5747   -0.4506    5.1232 C   0  0  0  0  0 15  0  0  0  0  0  0
   54.5567    0.0201    6.1390 N   0  0  0  0  0 15  0  0  0  0  0  0
   55.9277    0.2124    6.1964 C   0  0  0  0  0 15  0  0  0  0  0  0
   57.9827   -0.3618    4.9658 C   0  0  0  0  0 15  0  0  0  0  0  0
   56.6857    0.9558    7.1292 C   0  0  0  0  0 15  0  0  0  0  0  0
   58.7117    0.3680    5.9025 C   0  0  0  0  0 15  0  0  0  0  0  0
   58.0737    1.0197    6.9698 C   0  0  0  0  0 15  0  0  0  0  0  0
   54.1727   -0.3336    0.7073 H   0  0  0  0  0 15  0  0  0  0  0  0
   56.7567   -0.2364    1.9326 H   0  0  0  0  0 15  0  0  0  0  0  0
   54.9277   -2.5515    2.9284 H   0  0  0  0  0 15  0  0  0  0  0  0
   56.6597   -2.5123    3.1728 H   0  0  0  0  0 15  0  0  0  0  0  0
   53.4147   -1.0923    4.6083 H   0  0  0  0  0 15  0  0  0  0  0  0
   53.8387    0.4078    6.7577 H   0  0  0  0  0 15  0  0  0  0  0  0
   58.4807   -0.8513    4.1414 H   0  0  0  0  0 15  0  0  0  0  0  0
   56.1987    1.4568    7.9486 H   0  0  0  0  0 15  0  0  0  0  0  0
   59.7847    0.4375    5.8015 H   0  0  0  0  0 15  0  0  0  0  0  0
   58.6647    1.5754    7.6821 H   0  0  0  0  0 15  0  0  0  0  0  0
   56.1678   -1.4927   -0.5057 N   0  0  0  0  0 15  0  0  0  0  0  0
   57.5838   -1.3592   -0.8365 C   0  0  0  0  0 15  0  0  0  0  0  0
   57.7838   -0.3887   -1.9772 C   0  0  0  0  0 15  0  0  0  0  0  0
   56.8398    0.1813   -2.5185 O   0  0  0  0  0 15  0  0  0  0  0  0
   58.1528   -2.7653   -1.1811 C   0  0  0  0  0 15  0  0  0  0  0  0
   59.7008   -2.8520   -1.2896 C   0  0  0  0  0 15  0  0  0  0  0  0
   60.1758   -4.2656   -1.6676 C   0  0  0  0  0 15  0  0  0  0  0  0
   61.6668   -4.2935   -1.7382 N   0  0  0  0  0 15  0  0  0  0  0  0
   62.4018   -5.3569   -2.0450 C   0  0  0  0  0 15  0  0  0  0  0  0
   61.8978   -6.5229   -2.3344 N   0  0  0  0  0 15  0  0  0  0  0  0
   63.6908   -5.2311   -2.0571 N   0  0  0  0  0 15  0  0  0  0  0  0
   55.8418   -2.1096    0.2465 H   0  0  0  0  0 15  0  0  0  0  0  0
   58.1048   -0.9468    0.0477 H   0  0  0  0  0 15  0  0  0  0  0  0
   57.8108   -3.4923   -0.4164 H   0  0  0  0  0 15  0  0  0  0  0  0
   57.6848   -3.1160   -2.1257 H   0  0  0  0  0 15  0  0  0  0  0  0
   60.0718   -2.1274   -2.0451 H   0  0  0  0  0 15  0  0  0  0  0  0
   60.1528   -2.5372   -0.3257 H   0  0  0  0  0 15  0  0  0  0  0  0
   59.7968   -4.9954   -0.9177 H   0  0  0  0  0 15  0  0  0  0  0  0
   59.7268   -4.5550   -2.6425 H   0  0  0  0  0 15  0  0  0  0  0  0
   62.2178   -3.4526   -1.5364 H   0  0  0  0  0 15  0  0  0  0  0  0
   62.5308   -7.2916   -2.5602 H   0  0  0  0  0 15  0  0  0  0  0  0
   60.8758   -6.5552   -2.3090 H   0  0  0  0  0 15  0  0  0  0  0  0
   64.0668   -4.3103   -1.8258 H   0  0  0  0  0 15  0  0  0  0  0  0
   64.2398   -6.0608   -2.2929 H   0  0  0  0  0 15  0  0  0  0  0  0
   57.6459    0.7564   -1.3826 N   0  0  0  0  0 15  0  0  0  0  0  0
   58.5759    1.8837   -1.3798 C   0  0  0  0  0 15  0  0  0  0  0  0
   59.5569    1.6831   -0.2461 C   0  0  0  0  0 15  0  0  0  0  0  0
   60.7419    1.8894   -0.4487 O   0  0  0  0  0 15  0  0  0  0  0  0
   57.8719    3.2586   -1.2012 C   0  0  0  0  0 15  0  0  0  0  0  0
   56.8259    3.6052   -2.3067 C   0  0  0  0  0 15  0  0  0  0  0  0
   56.1519    4.9672   -1.9792 C   0  0  0  0  0 15  0  0  0  0  0  0
   57.4519    3.6569   -3.7292 C   0  0  0  0  0 15  0  0  0  0  0  0
   59.1459    1.8887   -2.3231 H   0  0  0  0  0 15  0  0  0  0  0  0
   56.6919    0.9073   -1.1182 H   0  0  0  0  0 15  0  0  0  0  0  0
   58.6449    4.0438   -1.1855 H   0  0  0  0  0 15  0  0  0  0  0  0
   57.3689    3.2584   -0.2225 H   0  0  0  0  0 15  0  0  0  0  0  0
   56.0279    2.8432   -2.3142 H   0  0  0  0  0 15  0  0  0  0  0  0
   55.6759    4.9325   -0.9854 H   0  0  0  0  0 15  0  0  0  0  0  0
   55.3759    5.2088   -2.7196 H   0  0  0  0  0 15  0  0  0  0  0  0
   56.8999    5.7762   -1.9796 H   0  0  0  0  0 15  0  0  0  0  0  0
   58.3139    4.3433   -3.7421 H   0  0  0  0  0 15  0  0  0  0  0  0
   56.7109    4.0136   -4.4613 H   0  0  0  0  0 15  0  0  0  0  0  0
   57.7809    2.6599   -4.0544 H   0  0  0  0  0 15  0  0  0  0  0  0
   59.1240    1.2308    0.9843 N   0  0  0  0  0 15  0  0  0  0  0  0
   60.3730    1.0547    1.7193 C   0  0  0  0  0 15  0  0  0  0  0  0
   60.6860   -0.4092    1.9127 C   0  0  0  0  0 15  0  0  0  0  0  0
   61.8920   -0.7052    2.6218 O   0  0  0  0  0 15  0  0  0  0  0  0
   60.3480    1.8387    3.0938 C   0  0  0  0  0 15  0  0  0  0  0  0
   59.9560    3.3457    2.9794 C   0  0  0  0  0 15  0  0  0  0  0  0
   61.7000    1.7473    3.8687 C   0  0  0  0  0 15  0  0  0  0  0  0
   59.6070    4.0538    4.3060 C   0  0  0  0  0 15  0  0  0  0  0  0
   58.5370    0.3910    0.6447 H   0  0  0  0  0 15  0  0  0  0  0  0
   61.1880    1.4701    1.0982 H   0  0  0  0  0 15  0  0  0  0  0  0
   59.5700    1.3513    3.7223 H   0  0  0  0  0 15  0  0  0  0  0  0
   60.7440    3.9077    2.4421 H   0  0  0  0  0 15  0  0  0  0  0  0
   59.0590    3.4448    2.3393 H   0  0  0  0  0 15  0  0  0  0  0  0
   61.6560    2.2496    4.8508 H   0  0  0  0  0 15  0  0  0  0  0  0
   61.9990    0.7094    4.1021 H   0  0  0  0  0 15  0  0  0  0  0  0
   62.5320    2.2107    3.3072 H   0  0  0  0  0 15  0  0  0  0  0  0
   59.2710    5.0947    4.1246 H   0  0  0  0  0 15  0  0  0  0  0  0
   58.7910    3.5397    4.8422 H   0  0  0  0  0 15  0  0  0  0  0  0
   60.4700    4.1146    4.9931 H   0  0  0  0  0 15  0  0  0  0  0  0
   60.6021   -1.1825    1.0419 N   0  0  0  0  0 15  0  0  0  0  0  0
   61.5321   -2.2413    0.6549 C   0  0  0  0  0 15  0  0  0  0  0  0
   62.5131   -1.6662   -0.3425 C   0  0  0  0  0 15  0  0  0  0  0  0
   63.6981   -1.9292   -0.2223 O   0  0  0  0  0 15  0  0  0  0  0  0
   60.8281   -3.4730    0.0184 C   0  0  0  0  0 15  0  0  0  0  0  0
   59.7821   -4.1756    0.9394 C   0  0  0  0  0 15  0  0  0  0  0  0
   59.1081   -5.3444    0.1673 C   0  0  0  0  0 15  0  0  0  0  0  0
   60.4081   -4.7092    2.2591 C   0  0  0  0  0 15  0  0  0  0  0  0
   62.1021   -2.5675    1.5401 H   0  0  0  0  0 15  0  0  0  0  0  0
   59.6481   -1.2341    0.7419 H   0  0  0  0  0 15  0  0  0  0  0  0
   61.6011   -4.2057   -0.2641 H   0  0  0  0  0 15  0  0  0  0  0  0
   60.3251   -3.1391   -0.9017 H   0  0  0  0  0 15  0  0  0  0  0  0
   58.9841   -3.4619    1.2063 H   0  0  0  0  0 15  0  0  0  0  0  0
   58.6321   -4.9730   -0.7552 H   0  0  0  0  0 15  0  0  0  0  0  0
   58.3321   -5.8239    0.7809 H   0  0  0  0  0 15  0  0  0  0  0  0
   59.8561   -6.1050   -0.1081 H   0  0  0  0  0 15  0  0  0  0  0  0
   61.2701   -5.3588    2.0372 H   0  0  0  0  0 15  0  0  0  0  0  0
   59.6671   -5.2941    2.8258 H   0  0  0  0  0 15  0  0  0  0  0  0
   60.7371   -3.8827    2.9047 H   0  0  0  0  0 15  0  0  0  0  0  0
   62.0802   -0.8215   -1.3449 N   0  0  0  0  0 15  0  0  0  0  0  0
   63.3572   -0.3316   -1.9277 C   0  0  0  0  0 15  0  0  0  0  0  0
   63.7372    1.1809   -1.7498 C   0  0  0  0  0 15  0  0  0  0  0  0
   63.0852    1.9873   -1.1277 O   0  0  0  0  0 15  0  0  0  0  0  0
   63.2952   -0.7594   -3.4064 C   0  0  0  0  0 15  0  0  0  0  0  0
   64.6432   -0.7574   -4.1779 C   0  0  0  0  0 15  0  0  0  0  0  0
   65.6672   -0.7019   -3.4922 O   0  0  0  0  0 15  0  0  0  0  0  0
   64.5262   -0.8294   -5.4017 O   0  0  0  0  0 15  0  0  0  0  0  0
   61.6202   -0.0903   -0.8221 H   0  0  0  0  0 15  0  0  0  0  0  0
   64.1662   -0.9062   -1.4348 H   0  0  0  0  0 15  0  0  0  0  0  0
   62.9382   -1.8012   -3.4738 H   0  0  0  0  0 15  0  0  0  0  0  0
   62.5612   -0.1604   -3.9728 H   0  0  0  0  0 15  0  0  0  0  0  0
   63.5583    1.4668   -0.5764 N   0  0  0  0  0 15  0  0  0  0  0  0
   64.8043    2.0329   -0.0679 C   0  0  0  0  0 15  0  0  0  0  0  0
   65.1593    1.4406    1.2753 C   0  0  0  0  0 15  0  0  0  0  0  0
   64.4523    0.5940    1.8216 O   0  0  0  0  0 15  0  0  0  0  0  0
   64.6463    3.5734    0.0629 C   0  0  0  0  0 15  0  0  0  0  0  0
   64.4753    4.3151   -1.2661 C   0  0  0  0  0 15  0  0  0  0  0  0
   63.2453    4.7066   -1.8386 C   0  0  0  0  0 15  0  0  0  0  0  0
   65.4433    4.6544   -2.1878 C   0  0  0  0  0 15  0  0  0  0  0  0
   63.4253    5.2955   -3.1056 N   0  0  0  0  0 15  0  0  0  0  0  0
   64.7963    5.2484   -3.3007 C   0  0  0  0  0 15  0  0  0  0  0  0
   66.8513    4.4737   -2.1854 C   0  0  0  0  0 15  0  0  0  0  0  0
   65.5543    5.6806   -4.4124 C   0  0  0  0  0 15  0  0  0  0  0  0
   67.5803    4.9161   -3.2874 C   0  0  0  0  0 15  0  0  0  0  0  0
   66.9423    5.5107   -4.3875 C   0  0  0  0  0 15  0  0  0  0  0  0
   63.0413    0.7791   -0.0675 H   0  0  0  0  0 15  0  0  0  0  0  0
   65.6253    1.7892   -0.7679 H   0  0  0  0  0 15  0  0  0  0  0  0
   63.7963    3.8144    0.7320 H   0  0  0  0  0 15  0  0  0  0  0  0
   65.5283    4.0059    0.5751 H   0  0  0  0  0 15  0  0  0  0  0  0
   62.2833    4.5322   -1.3742 H   0  0  0  0  0 15  0  0  0  0  0  0
   62.7073    5.6352   -3.7519 H   0  0  0  0  0 15  0  0  0  0  0  0
   67.3493    4.0075   -1.3476 H   0  0  0  0  0 15  0  0  0  0  0  0
   65.0673    6.1367   -5.2577 H   0  0  0  0  0 15  0  0  0  0  0  0
   68.6533    4.7939   -3.2966 H   0  0  0  0  0 15  0  0  0  0  0  0
   67.5333    5.8468   -5.2261 H   0  0  0  0  0 15  0  0  0  0  0  0
   65.0364    0.3138    1.5444 N   0  0  0  0  0 15  0  0  0  0  0  0
   66.2824   -0.2921    2.0069 C   0  0  0  0  0 15  0  0  0  0  0  0
   66.6154   -1.5255    1.2018 C   0  0  0  0  0 15  0  0  0  0  0  0
   65.8904   -1.9245    0.2815 O   0  0  0  0  0 15  0  0  0  0  0  0
   66.1734   -0.6360    3.5444 C   0  0  0  0  0 15  0  0  0  0  0  0
   66.0264    0.6074    4.4568 C   0  0  0  0  0 15  0  0  0  0  0  0
   67.3454   -1.4575    4.1527 C   0  0  0  0  0 15  0  0  0  0  0  0
   64.4644   -0.1047    0.7295 H   0  0  0  0  0 15  0  0  0  0  0  0
   67.1064    0.4285    1.8511 H   0  0  0  0  0 15  0  0  0  0  0  0
   65.2564   -1.2499    3.6785 H   0  0  0  0  0 15  0  0  0  0  0  0
   66.9284    1.2458    4.4416 H   0  0  0  0  0 15  0  0  0  0  0  0
   65.1714    1.2382    4.1575 H   0  0  0  0  0 15  0  0  0  0  0  0
   65.8424    0.3225    5.5106 H   0  0  0  0  0 15  0  0  0  0  0  0
   68.3184   -0.9386    4.0537 H   0  0  0  0  0 15  0  0  0  0  0  0
   67.1944   -1.6668    5.2298 H   0  0  0  0  0 15  0  0  0  0  0  0
   67.4554   -2.4506    3.6796 H   0  0  0  0  0 15  0  0  0  0  0  0
   66.5145   -1.5754    0.0418 N   0  0  0  0  0 15  0  0  0  0  0  0
   67.9255   -1.8001   -0.4953 C   0  0  0  0  0 15  0  0  0  0  0  0
   68.2765   -0.9532   -1.7149 C   0  0  0  0  0 15  0  0  0  0  0  0
   67.4015   -0.1671   -2.1575 O   0  0  0  0  0 15  0  0  0  0  0  0
   67.9965   -3.2648   -0.9053 C   0  0  0  0  0 15  0  0  0  0  0  0
   66.5555   -3.4990   -1.3873 C   0  0  0  0  0 15  0  0  0  0  0  0
   65.7025   -2.7498   -0.3581 C   0  0  0  0  0 15  0  0  0  0  0  0
   68.6535   -1.5643    0.2677 H   0  0  0  0  0 15  0  0  0  0  0  0
   68.6745   -3.3689   -1.7688 H   0  0  0  0  0 15  0  0  0  0  0  0
   68.1865   -3.8810   -0.0174 H   0  0  0  0  0 15  0  0  0  0  0  0
   66.2875   -2.9355   -2.2947 H   0  0  0  0  0 15  0  0  0  0  0  0
   66.4005   -4.5861   -1.3860 H   0  0  0  0  0 15  0  0  0  0  0  0
   64.7645   -2.4083   -0.8289 H   0  0  0  0  0 15  0  0  0  0  0  0
   65.5475   -3.3931    0.5216 H   0  0  0  0  0 15  0  0  0  0  0  0
   67.9926    0.2315   -1.5589 N   0  0  0  0  0 15  0  0  0  0  0  0
   69.2226    0.9731   -1.8225 C   0  0  0  0  0 15  0  0  0  0  0  0
   69.6306    1.7885   -0.6173 C   0  0  0  0  0 15  0  0  0  0  0  0
   68.9736    1.7875    0.4235 O   0  0  0  0  0 15  0  0  0  0  0  0
   69.0356    1.9473   -3.0219 C   0  0  0  0  0 15  0  0  0  0  0  0
   68.6996    1.3174   -4.3760 C   0  0  0  0  0 15  0  0  0  0  0  0
   69.6966    0.7122   -5.1500 C   0  0  0  0  0 15  0  0  0  0  0  0
   67.3816    1.3322   -4.8431 C   0  0  0  0  0 15  0  0  0  0  0  0
   69.3756    0.1302   -6.3727 C   0  0  0  0  0 15  0  0  0  0  0  0
   67.0626    0.7463   -6.0653 C   0  0  0  0  0 15  0  0  0  0  0  0
   68.0606    0.1463   -6.8284 C   0  0  0  0  0 15  0  0  0  0  0  0
   67.7486   -0.4305   -8.0275 O   0  0  0  0  0 15  0  0  0  0  0  0
   67.4806    0.2913   -0.6100 H   0  0  0  0  0 15  0  0  0  0  0  0
   70.0346    0.2549   -2.0381 H   0  0  0  0  0 15  0  0  0  0  0  0
   68.2646    2.7042   -2.7642 H   0  0  0  0  0 15  0  0  0  0  0  0
   69.9536    2.5536   -3.1551 H   0  0  0  0  0 15  0  0  0  0  0  0
   70.7196    0.6932   -4.8002 H   0  0  0  0  0 15  0  0  0  0  0  0
   66.5986    1.7885   -4.2489 H   0  0  0  0  0 15  0  0  0  0  0  0
   70.1426   -0.3387   -6.9678 H   0  0  0  0  0 15  0  0  0  0  0  0
   66.0396    0.7627   -6.4098 H   0  0  0  0  0 15  0  0  0  0  0  0
   66.8076   -0.3238   -8.1786 H   0  0  0  0  0 15  0  0  0  0  0  0
   69.4707    1.4953    0.4978 N   0  0  0  0  0 15  0  0  0  0  0  0
   70.7197    1.5843    1.2484 C   0  0  0  0  0 15  0  0  0  0  0  0
   71.0327    0.2776    1.9362 C   0  0  0  0  0 15  0  0  0  0  0  0
   72.2387    0.2452    2.7039 O   0  0  0  0  0 15  0  0  0  0  0  0
   70.6947    2.7954    2.2669 C   0  0  0  0  0 15  0  0  0  0  0  0
   70.3027    4.1697    1.6383 C   0  0  0  0  0 15  0  0  0  0  0  0
   72.0467    2.9776    3.0255 C   0  0  0  0  0 15  0  0  0  0  0  0
   69.9537    5.2930    2.6381 C   0  0  0  0  0 15  0  0  0  0  0  0
   68.8837    0.5899    0.4696 H   0  0  0  0  0 15  0  0  0  0  0  0
   71.5347    1.7592    0.5219 H   0  0  0  0  0 15  0  0  0  0  0  0
   69.9167    2.5554    3.0251 H   0  0  0  0  0 15  0  0  0  0  0  0
   71.0907    4.5112    0.9397 H   0  0  0  0  0 15  0  0  0  0  0  0
   69.4057    4.0413    1.0034 H   0  0  0  0  0 15  0  0  0  0  0  0
   72.0027    3.7886    3.7732 H   0  0  0  0  0 15  0  0  0  0  0  0
   72.3457    2.0845    3.6035 H   0  0  0  0  0 15  0  0  0  0  0  0
   72.8787    3.2181    2.3384 H   0  0  0  0  0 15  0  0  0  0  0  0
   69.6177    6.2069    2.1078 H   0  0  0  0  0 15  0  0  0  0  0  0
   69.1377    4.9961    3.3189 H   0  0  0  0  0 15  0  0  0  0  0  0
   70.8167    5.5877    3.2617 H   0  0  0  0  0 15  0  0  0  0  0  0
   70.9488   -0.7491    1.3866 N   0  0  0  0  0 15  0  0  0  0  0  0
   71.8968   -1.8843    1.3637 C   0  0  0  0  0 15  0  0  0  0  0  0
   72.8908   -1.6756    0.2489 C   0  0  0  0  0 15  0  0  0  0  0  0
   74.0968   -1.7507    0.4182 O   0  0  0  0  0 15  0  0  0  0  0  0
   70.4718   -0.6200    0.4255 H   0  0  0  0  0 15  0  0  0  0  0  0
   72.4428   -1.8747    2.3216 H   0  0  0  0  0 15  0  0  0  0  0  0
   71.1918   -3.2596    1.2101 C   0  0  0  0  0 15  0  0  0  0  0  0
   70.5148   -3.4261    2.0606 H   0  0  0  0  0 15  0  0  0  0  0  0
   71.9548   -4.0562    1.2347 H   0  0  0  0  0 15  0  0  0  0  0  0
   70.4138   -3.3680   -0.0826 C   0  0  0  0  0 15  0  0  0  0  0  0
   70.9438   -3.8752   -1.0580 O   0  0  0  0  0 15  0  0  0  0  0  0
   69.1498   -2.9026   -0.1409 N   0  0  0  0  0 15  0  0  0  0  0  0
   68.6968   -2.4917    0.6535 H   0  0  0  0  0 15  0  0  0  0  0  0
   68.6548   -2.9789   -1.0055 H   0  0  0  0  0 15  0  0  0  0  0  0
   72.4269   -1.2360   -0.9778 N   0  0  0  0  0 15  0  0  0  0  0  0
   73.6749   -1.0676   -1.7160 C   0  0  0  0  0 15  0  0  0  0  0  0
   73.9959    0.3959   -1.9094 C   0  0  0  0  0 15  0  0  0  0  0  0
   73.2659    1.2836   -1.4799 O   0  0  0  0  0 15  0  0  0  0  0  0
   71.8459   -0.3921   -0.6358 H   0  0  0  0  0 15  0  0  0  0  0  0
   74.5079   -1.5536   -1.1768 H   0  0  0  0  0 15  0  0  0  0  0  0
   73.6039   -1.5576   -2.7045 H   0  0  0  0  0 15  0  0  0  0  0  0
   73.9050    1.1769   -1.0482 N   0  0  0  0  0 15  0  0  0  0  0  0
   74.8520    2.2158   -0.6458 C   0  0  0  0  0 15  0  0  0  0  0  0
   75.8220    1.6237    0.3502 C   0  0  0  0  0 15  0  0  0  0  0  0
   77.0070    1.8925    0.2424 O   0  0  0  0  0 15  0  0  0  0  0  0
   74.1470    3.4509   -0.0228 C   0  0  0  0  0 15  0  0  0  0  0  0
   73.2600    4.1861   -1.0671 C   0  0  0  0  0 15  0  0  0  0  0  0
   72.3950    5.2960   -0.4118 C   0  0  0  0  0 15  0  0  0  0  0  0
   71.4340    5.9490   -1.4407 C   0  0  0  0  0 15  0  0  0  0  0  0
   70.5710    6.9741   -0.8098 N   0  0  0  0  0 15  0  0  0  0  0  0
   75.4110    2.5535   -1.5362 H   0  0  0  0  0 15  0  0  0  0  0  0
   72.9480    1.2544   -0.7684 H   0  0  0  0  0 15  0  0  0  0  0  0
   74.9060    4.1568    0.3559 H   0  0  0  0  0 15  0  0  0  0  0  0
   73.5360    3.1192    0.8311 H   0  0  0  0  0 15  0  0  0  0  0  0
   72.5880    3.4678   -1.5636 H   0  0  0  0  0 15  0  0  0  0  0  0
   73.9000    4.6329   -1.8483 H   0  0  0  0  0 15  0  0  0  0  0  0
   73.0540    6.0670    0.0207 H   0  0  0  0  0 15  0  0  0  0  0  0
   71.7930    4.8605    0.4014 H   0  0  0  0  0 15  0  0  0  0  0  0
   70.7980    5.1654   -1.8832 H   0  0  0  0  0 15  0  0  0  0  0  0
   72.0230    6.4054   -2.2557 H   0  0  0  0  0 15  0  0  0  0  0  0
   69.9690    6.5600   -0.0170 H   0  0  0  0  0 15  0  0  0  0  0  0
   69.8860    7.4039   -1.5286 H   0  0  0  0  0 15  0  0  0  0  0  0
   71.1540    7.7846   -0.4020 H   0  0  0  0  0 15  0  0  0  0  0  0
   75.3831    0.8287    1.3406 N   0  0  0  0  0 15  0  0  0  0  0  0
   76.6301    0.4195    1.9811 C   0  0  0  0  0 15  0  0  0  0  0  0
   76.9581   -1.0189    1.6568 C   0  0  0  0  0 15  0  0  0  0  0  0
   76.2131   -1.7254    0.9235 O   0  0  0  0  0 15  0  0  0  0  0  0
   76.5121    0.5752    3.5274 C   0  0  0  0  0 15  0  0  0  0  0  0
   76.1781    1.9801    4.0510 C   0  0  0  0  0 15  0  0  0  0  0  0
   74.8401    2.3644    4.1910 C   0  0  0  0  0 15  0  0  0  0  0  0
   77.1921    2.8982    4.3319 C   0  0  0  0  0 15  0  0  0  0  0  0
   74.5201    3.6601    4.5854 C   0  0  0  0  0 15  0  0  0  0  0  0
   76.8721    4.1886    4.7407 C   0  0  0  0  0 15  0  0  0  0  0  0
   75.5361    4.5726    4.8628 C   0  0  0  0  0 15  0  0  0  0  0  0
   74.8061    0.1535    0.7249 H   0  0  0  0  0 15  0  0  0  0  0  0
   77.4531    1.0537    1.5990 H   0  0  0  0  0 15  0  0  0  0  0  0
   75.7581   -0.1424    3.9154 H   0  0  0  0  0 15  0  0  0  0  0  0
   77.4551    0.2391    4.0029 H   0  0  0  0  0 15  0  0  0  0  0  0
   74.0451    1.6716    3.9466 H   0  0  0  0  0 15  0  0  0  0  0  0
   78.2291    2.6137    4.2190 H   0  0  0  0  0 15  0  0  0  0  0  0
   73.4851    3.9558    4.6618 H   0  0  0  0  0 15  0  0  0  0  0  0
   77.6591    4.9009    4.9476 H   0  0  0  0  0 15  0  0  0  0  0  0
   75.2861    5.5771    5.1659 H   0  0  0  0  0 15  0  0  0  0  0  0
   76.8612   -1.4637    0.5841 N   0  0  0  0  0 15  0  0  0  0  0  0
   77.8082   -2.3032   -0.1483 C   0  0  0  0  0 15  0  0  0  0  0  0
   78.7782   -1.4070   -0.8827 C   0  0  0  0  0 15  0  0  0  0  0  0
   79.9632   -1.6965   -0.8731 O   0  0  0  0  0 15  0  0  0  0  0  0
   77.1032   -3.2520   -1.1551 C   0  0  0  0  0 15  0  0  0  0  0  0
   76.2162   -4.2991   -0.4239 C   0  0  0  0  0 15  0  0  0  0  0  0
   75.3512   -5.1191   -1.4184 C   0  0  0  0  0 15  0  0  0  0  0  0
   74.3902   -6.0838   -0.6737 C   0  0  0  0  0 15  0  0  0  0  0  0
   73.5272   -6.8324   -1.6163 N   0  0  0  0  0 15  0  0  0  0  0  0
   78.3672   -2.9243    0.5736 H   0  0  0  0  0 15  0  0  0  0  0  0
   75.9042   -1.4412    0.2947 H   0  0  0  0  0 15  0  0  0  0  0  0
   77.8622   -3.7865   -1.7517 H   0  0  0  0  0 15  0  0  0  0  0  0
   76.4922   -2.6490   -1.8447 H   0  0  0  0  0 15  0  0  0  0  0  0
   75.5442   -3.7931    0.2877 H   0  0  0  0  0 15  0  0  0  0  0  0
   76.8562   -4.9855    0.1581 H   0  0  0  0  0 15  0  0  0  0  0  0
   76.0102   -5.6965   -2.0877 H   0  0  0  0  0 15  0  0  0  0  0  0
   74.7492   -4.4324   -2.0344 H   0  0  0  0  0 15  0  0  0  0  0  0
   73.7542   -5.4980    0.0094 H   0  0  0  0  0 15  0  0  0  0  0  0
   74.9792   -6.7907   -0.0631 H   0  0  0  0  0 15  0  0  0  0  0  0
   72.9252   -6.1728   -2.2204 H   0  0  0  0  0 15  0  0  0  0  0  0
   72.8422   -7.4814   -1.0871 H   0  0  0  0  0 15  0  0  0  0  0  0
   74.1102   -7.4553   -2.2760 H   0  0  0  0  0 15  0  0  0  0  0  0
   78.3393   -0.3220   -1.5428 N   0  0  0  0  0 15  0  0  0  0  0  0
   79.2863    0.5447   -2.2428 C   0  0  0  0  0 15  0  0  0  0  0  0
   80.2563    1.1129   -1.2330 C   0  0  0  0  0 15  0  0  0  0  0  0
   81.4413    1.1535   -1.5198 O   0  0  0  0  0 15  0  0  0  0  0  0
   78.5813    1.7004   -3.0030 C   0  0  0  0  0 15  0  0  0  0  0  0
   77.6943    1.1616   -4.1609 C   0  0  0  0  0 15  0  0  0  0  0  0
   76.8293    2.2829   -4.7964 C   0  0  0  0  0 15  0  0  0  0  0  0
   75.8683    1.7165   -5.8754 C   0  0  0  0  0 15  0  0  0  0  0  0
   75.0053    2.7744   -6.4496 N   0  0  0  0  0 15  0  0  0  0  0  0
   79.8453   -0.0589   -2.9794 H   0  0  0  0  0 15  0  0  0  0  0  0
   77.3823   -0.0408   -1.4704 H   0  0  0  0  0 15  0  0  0  0  0  0
   79.3403    2.3805   -3.4262 H   0  0  0  0  0 15  0  0  0  0  0  0
   77.9703    2.2753   -2.2897 H   0  0  0  0  0 15  0  0  0  0  0  0
   77.0223    0.3731   -3.7857 H   0  0  0  0  0 15  0  0  0  0  0  0
   78.3343    0.7071   -4.9376 H   0  0  0  0  0 15  0  0  0  0  0  0
   77.4883    3.0421   -5.2492 H   0  0  0  0  0 15  0  0  0  0  0  0
   76.2273    2.7708   -4.0135 H   0  0  0  0  0 15  0  0  0  0  0  0
   75.2323    0.9423   -5.4167 H   0  0  0  0  0 15  0  0  0  0  0  0
   76.4573    1.2374   -6.6773 H   0  0  0  0  0 15  0  0  0  0  0  0
   74.4033    3.2552   -5.6954 H   0  0  0  0  0 15  0  0  0  0  0  0
   74.3203    2.3655   -7.1804 H   0  0  0  0  0 15  0  0  0  0  0  0
   75.5883    3.5319   -6.9489 H   0  0  0  0  0 15  0  0  0  0  0  0
   79.8174    1.5752   -0.0501 N   0  0  0  0  0 15  0  0  0  0  0  0
   81.0944    1.8400    0.6637 C   0  0  0  0  0 15  0  0  0  0  0  0
   81.4744    0.9383    1.8910 C   0  0  0  0  0 15  0  0  0  0  0  0
   80.8224   -0.0009    2.2850 O   0  0  0  0  0 15  0  0  0  0  0  0
   81.0324    3.3370    1.0220 C   0  0  0  0  0 15  0  0  0  0  0  0
   82.3804    4.0069    1.4047 C   0  0  0  0  0 15  0  0  0  0  0  0
   83.4044    3.3832    1.1143 O   0  0  0  0  0 15  0  0  0  0  0  0
   82.2634    5.1066    1.9465 O   0  0  0  0  0 15  0  0  0  0  0  0
   79.3574    0.7594    0.3275 H   0  0  0  0  0 15  0  0  0  0  0  0
   81.9034    1.6951   -0.0794 H   0  0  0  0  0 15  0  0  0  0  0  0
   80.6754    3.9101    0.1494 H   0  0  0  0  0 15  0  0  0  0  0  0
   80.2984    3.5337    1.8226 H   0  0  0  0  0 15  0  0  0  0  0  0
   81.2955   -0.2232    1.5601 N   0  0  0  0  0 15  0  0  0  0  0  0
   82.2435   -1.2963    1.9313 C   0  0  0  0  0 15  0  0  0  0  0  0
   83.2375   -1.4861    0.8131 C   0  0  0  0  0 15  0  0  0  0  0  0
   84.4435   -1.4980    0.9980 O   0  0  0  0  0 15  0  0  0  0  0  0
   80.8185   -0.4346    0.6137 H   0  0  0  0  0 15  0  0  0  0  0  0
   82.7895   -0.9560    2.8267 H   0  0  0  0  0 15  0  0  0  0  0  0
   81.5385   -2.6398    2.2629 C   0  0  0  0  0 15  0  0  0  0  0  0
   80.8615   -2.5018    3.1185 H   0  0  0  0  0 15  0  0  0  0  0  0
   82.3015   -3.3788    2.5615 H   0  0  0  0  0 15  0  0  0  0  0  0
   80.7605   -3.1887    1.0875 C   0  0  0  0  0 15  0  0  0  0  0  0
   81.2905   -4.0019    0.3477 O   0  0  0  0  0 15  0  0  0  0  0  0
   79.4965   -2.7722    0.8717 N   0  0  0  0  0 15  0  0  0  0  0  0
   79.0435   -2.1119    1.4750 H   0  0  0  0  0 15  0  0  0  0  0  0
   79.0015   -3.1428    0.0870 H   0  0  0  0  0 15  0  0  0  0  0  0
   82.8125   -1.5724   -0.3687 O   0  0  0  0  0 15  0  0  0  0  0  0
   83.5035   -1.6469   -1.0196 H   0  0  0  0  0 15  0  0  0  0  0  0
M  END
$$$$
