drugbank_target|O14980 Exportin-1 (DB11942)
 OpenBabel12092121203D

  0  0  0     0  0            999 V3000
M  V30 BEGIN CTAB
M  V30 COUNTS 17384 17566 0 0 0
M  V30 BEGIN ATOM
M  V30 1 H -0.908 1.98254 -0.117106 0
M  V30 2 N 0 1.576 0 0
M  V30 3 C 0.933 2.03868 1.02534 0
M  V30 4 C 1.911 0.928543 1.3348 0
M  V30 5 O 3.095 1.19667 1.45644 0
M  V30 6 C 0.222 2.43627 2.35294 0
M  V30 7 C -0.732 3.65373 2.2001 0
M  V30 8 S 0.101 5.13292 1.52614 0
M  V30 9 C 1.257 5.56322 2.86805 0
M  V30 10 H 1.49 2.90518 0.631377 0
M  V30 11 H -0.977 1.52953 0.210867 0
M  V30 12 H 0.981 2.67203 3.11629 0
M  V30 13 H -0.358 1.57376 2.7183 0
M  V30 14 H -1.165 3.90944 3.18086 0
M  V30 15 H -1.563 3.418 1.51819 0
M  V30 16 H 0.729 5.58782 3.83104 0
M  V30 17 H 1.672 6.56266 2.65933 0
M  V30 18 H 2.08 4.83886 2.90714 0
M  V30 19 N 1.4781 -0.272755 1.55222 0
M  V30 20 C 2.8891 -0.84378 1.66545 0
M  V30 21 C 3.2401 -1.87035 0.592641 0
M  V30 22 O 2.3651 -2.14761 -0.265818 0
M  V30 23 C 2.9601 -1.53723 3.01918 0
M  V30 24 C 1.5191 -2.05628 3.15268 0
M  V30 25 C 0.6661 -0.898424 2.62343 0
M  V30 26 H 3.6171 -0.0490998 1.58624 0
M  V30 27 H 3.6381 -2.40421 2.94921 0
M  V30 28 H 3.1501 -0.78983 3.79978 0
M  V30 29 H 1.2511 -2.83329 2.41983 0
M  V30 30 H 1.3641 -2.27142 4.21833 0
M  V30 31 H -0.2719 -1.29186 2.19506 0
M  V30 32 H 0.5111 -0.164528 3.42906 0
M  V30 33 N 2.9562 -1.48159 -0.537278 0
M  V30 34 C 3.9192 -1.61665 -1.62472 0
M  V30 35 C 4.9192 -0.490395 -1.5314 0
M  V30 36 O 6.1092 -0.755998 -1.5694 0
M  V30 37 C 3.2412 -1.57997 -3.02076 0
M  V30 38 H 4.4342 -2.58621 -1.51839 0
M  V30 39 H 1.9872 -1.36647 -0.758771 0
M  V30 40 H 2.7222 -0.624913 -3.18222 0
M  V30 41 H 2.5072 -2.39755 -3.10258 0
M  V30 42 H 3.9972 -1.70627 -3.81151 0
M  V30 43 N 4.4343 0.785586 -1.36625 0
M  V30 44 C 5.6833 1.53883 -1.30396 0
M  V30 45 C 5.9963 1.95271 0.113452 0
M  V30 46 O 7.2023 2.69858 0.298142 0
M  V30 47 C 5.6583 2.77808 -2.28802 0
M  V30 48 C 5.2663 2.43574 -3.75999 0
M  V30 49 C 7.0103 3.55783 -2.31558 0
M  V30 50 C 4.9173 3.63919 -4.66173 0
M  V30 51 H 3.8473 0.577678 -0.484566 0
M  V30 52 H 6.4983 0.861705 -1.62009 0
M  V30 53 H 4.8803 3.47339 -1.90188 0
M  V30 54 H 6.0543 1.81916 -4.23371 0
M  V30 55 H 4.3693 1.78803 -3.76056 0
M  V30 56 H 6.9663 4.45205 -2.96137 0
M  V30 57 H 7.3093 3.94644 -1.3252 0
M  V30 58 H 7.8423 2.93235 -2.68809 0
M  V30 59 H 4.5813 3.3015 -5.66287 0
M  V30 60 H 4.1013 4.2473 -4.23515 0
M  V30 61 H 5.7803 4.30901 -4.82632 0
M  V30 62 N 5.9124 1.20967 1.01018 0
M  V30 63 C 6.8454 0.907578 2.09376 0
M  V30 64 C 7.8234 -0.142868 1.61971 0
M  V30 65 O 9.0074 -0.0150391 1.88494 0
M  V30 66 C 6.1344 0.361791 3.36762 0
M  V30 67 C 5.1804 1.39423 4.03068 0
M  V30 68 S 6.0134 2.96159 4.4615 0
M  V30 69 C 7.1694 2.43173 5.7673 0
M  V30 70 H 7.4024 1.82519 2.34678 0
M  V30 71 H 4.9354 1.03884 1.14225 0
M  V30 72 H 6.8934 0.0534523 4.10465 0
M  V30 73 H 5.5544 -0.53443 3.0952 0
M  V30 74 H 4.7474 0.961853 4.94737 0
M  V30 75 H 4.3494 1.65038 3.35617 0
M  V30 76 H 6.6414 1.83335 6.52223 0
M  V30 77 H 7.5844 3.33264 6.24773 0
M  V30 78 H 7.9924 1.85069 5.33301 0
M  V30 79 N 7.3905 -1.2043 1.01659 0
M  V30 80 C 8.6185 -1.93777 0.725132 0
M  V30 81 C 9.0335 -1.74772 -0.714166 0
M  V30 82 O 8.3905 -1.06169 -1.4844 0
M  V30 83 C 8.4415 -3.45876 1.05129 0
M  V30 84 O 8.1625 -3.6426 2.43406 0
M  V30 85 C 9.6635 -4.36368 0.780891 0
M  V30 86 H 6.8835 -0.615901 0.266284 0
M  V30 87 H 9.4275 -1.52922 1.35776 0
M  V30 88 H 7.5825 -3.8461 0.464065 0
M  V30 89 H 7.9965 -4.58246 2.55169 0
M  V30 90 H 9.4705 -5.41743 1.05918 0
M  V30 91 H 9.9475 -4.38275 -0.284937 0
M  V30 92 H 10.5535 -4.03296 1.35027 0
M  V30 93 N 8.8686 -0.792821 -1.36206 0
M  V30 94 C 9.8016 -0.139422 -2.27774 0
M  V30 95 C 10.7796 0.68649 -1.47398 0
M  V30 96 O 11.9636 0.656738 -1.7669 0
M  V30 97 C 9.0906 0.807947 -3.28922 0
M  V30 98 C 8.1366 0.0633999 -4.26453 0
M  V30 99 S 8.9696 -1.26319 -5.20388 0
M  V30 100 C 10.1256 -0.31991 -6.25082 0
M  V30 101 H 10.3586 -0.915809 -2.82843 0
M  V30 102 H 7.8916 -0.587203 -1.42798 0
M  V30 103 H 9.8496 1.34908 -3.87699 0
M  V30 104 H 8.5106 1.55761 -2.72759 0
M  V30 105 H 7.7036 0.782386 -4.9789 0
M  V30 106 H 7.3056 -0.407352 -3.71775 0
M  V30 107 H 9.5976 0.499985 -6.75653 0
M  V30 108 H 10.5406 -1.00307 -7.00959 0
M  V30 109 H 10.9486 0.0782694 -5.64446 0
M  V30 110 N 10.3467 1.47872 -0.545128 0
M  V30 111 C 11.2767 2.32661 0.197793 0
M  V30 112 C 12.2577 1.43041 0.920504 0
M  V30 113 O 13.4427 1.71912 0.90333 0
M  V30 114 C 10.5727 3.24569 1.23582 0
M  V30 115 C 9.5267 4.23333 0.630323 0
M  V30 116 C 8.8527 5.0448 1.77211 0
M  V30 117 C 10.1527 5.20704 -0.407974 0
M  V30 118 H 11.8467 2.95024 -0.510045 0
M  V30 119 H 9.3927 1.4187 -0.246731 0
M  V30 120 H 11.3457 3.8272 1.76362 0
M  V30 121 H 10.0697 2.60236 1.97344 0
M  V30 122 H 8.7287 3.6639 0.123922 0
M  V30 123 H 8.3767 4.36561 2.49847 0
M  V30 124 H 8.0767 5.71339 1.37281 0
M  V30 125 H 9.6007 5.65487 2.3034 0
M  V30 126 H 11.0147 5.7329 0.033305 0
M  V30 127 H 9.4117 5.95699 -0.725486 0
M  V30 128 H 10.4817 4.66917 -1.30828 0
M  V30 129 N 11.8248 0.280983 1.55075 0
M  V30 130 C 12.7878 -0.590896 2.21452 0
M  V30 131 C 13.7878 -1.07682 1.19421 0
M  V30 132 O 14.9778 -0.97605 1.44288 0
M  V30 133 C 12.1098 -1.81587 2.88511 0
M  V30 134 H 13.3028 -0.0112554 2.99898 0
M  V30 135 H 10.8558 0.0316438 1.56268 0
M  V30 136 H 11.5908 -2.43587 2.14093 0
M  V30 137 H 11.3758 -1.4753 3.63287 0
M  V30 138 H 12.8658 -2.43575 3.39206 0
M  V30 139 N 13.3029 -1.57598 0.00835791 0
M  V30 140 C 14.5799 -1.82172 -0.712235 0
M  V30 141 C 14.9599 -0.887873 -1.9152 0
M  V30 142 O 14.3079 0.06146 -2.28417 0
M  V30 143 C 14.5179 -3.30875 -1.11008 0
M  V30 144 C 15.8659 -3.96826 -1.51044 0
M  V30 145 O 16.8899 -3.35248 -1.20364 0
M  V30 146 O 15.7489 -5.05318 -2.08125 0
M  V30 147 H 12.8429 -0.750435 -0.347529 0
M  V30 148 H 15.3889 -1.69665 0.0344523 0
M  V30 149 H 14.1609 -3.90481 -0.252982 0
M  V30 150 H 13.7839 -3.48412 -1.9156 0
M  V30 151 N 14.781 0.264519 -1.55364 0
M  V30 152 C 15.731 1.32966 -1.85214 0
M  V30 153 C 16.715 1.44306 -0.711653 0
M  V30 154 O 17.907 1.47844 -0.973192 0
M  V30 155 C 15.036 2.68839 -2.13495 0
M  V30 156 C 14.122 2.61575 -3.33825 0
M  V30 157 N 14.513 2.23933 -4.53528 0
M  V30 158 C 12.811 2.92621 -3.36584 0
M  V30 159 C 13.512 2.26868 -5.35636 0
M  V30 160 N 12.488 2.65677 -4.74254 0
M  V30 161 H 16.29 1.02884 -2.75304 0
M  V30 162 H 13.804 0.473157 -1.55354 0
M  V30 163 H 15.801 3.45685 -2.33039 0
M  V30 164 H 14.461 2.99802 -1.24694 0
M  V30 165 H 15.472 1.95769 -4.79474 0
M  V30 166 H 12.149 3.2824 -2.58002 0
M  V30 167 H 13.539 2.00254 -6.41364 0
M  V30 168 N 16.2591 1.48442 0.529413 0
M  V30 169 C 17.2221 1.62524 1.61612 0
M  V30 170 C 18.2221 0.498509 1.52877 0
M  V30 171 O 19.4121 0.76431 1.56537 0
M  V30 172 C 16.5441 1.59597 3.01233 0
M  V30 173 H 17.7371 2.59423 1.50465 0
M  V30 174 H 15.2901 1.37047 0.751514 0
M  V30 175 H 16.0251 0.641781 3.17886 0
M  V30 176 H 15.8101 2.41397 3.08982 0
M  V30 177 H 17.3001 1.72646 3.80241 0
M  V30 178 N 17.7372 -0.778329 1.37039 0
M  V30 179 C 18.7002 -1.87301 1.32102 0
M  V30 180 C 19.7002 -1.59198 0.226405 0
M  V30 181 O 20.8902 -1.67403 0.481861 0
M  V30 182 C 18.0222 -3.24309 1.05055 0
M  V30 183 H 19.2152 -1.93093 2.29467 0
M  V30 184 H 16.7682 -0.977358 1.21973 0
M  V30 185 H 17.5032 -3.24196 0.0819373 0
M  V30 186 H 17.2882 -3.46098 1.84279 0
M  V30 187 H 18.7782 -4.04382 1.04234 0
M  V30 188 N 19.2153 -1.21501 -1.00376 0
M  V30 189 C 20.6313 -0.972629 -1.26539 0
M  V30 190 C 20.8313 0.340257 -1.98606 0
M  V30 191 O 19.8873 1.06561 -2.28913 0
M  V30 192 C 21.2003 -2.16404 -2.08781 0
M  V30 193 C 22.7483 -2.20643 -2.22004 0
M  V30 194 C 23.2233 -3.39306 -3.07629 0
M  V30 195 N 24.7143 -3.39401 -3.15217 0
M  V30 196 C 25.4493 -4.27867 -3.81729 0
M  V30 197 N 24.9453 -5.26533 -4.5026 0
M  V30 198 N 26.7383 -4.15672 -3.78382 0
M  V30 199 H 18.8893 -2.05929 -0.520281 0
M  V30 200 H 21.1523 -0.901803 -0.292328 0
M  V30 201 H 20.8583 -3.11554 -1.63178 0
M  V30 202 H 20.7323 -2.15567 -3.09533 0
M  V30 203 H 23.1193 -1.26048 -2.66825 0
M  V30 204 H 23.2003 -2.25523 -1.20718 0
M  V30 205 H 22.8443 -4.34195 -2.63509 0
M  V30 206 H 22.7743 -3.31665 -4.09031 0
M  V30 207 H 25.2653 -2.67997 -2.66432 0
M  V30 208 H 25.5783 -5.90337 -4.98721 0
M  V30 209 H 23.9233 -5.30457 -4.49044 0
M  V30 210 H 27.1143 -3.3785 -3.23998 0
M  V30 211 H 27.2873 -4.84825 -4.2994 0
M  V30 212 N 20.6934 1.19889 -1.02296 0
M  V30 213 C 21.6254 2.22334 -0.556787 0
M  V30 214 C 22.6384 1.58674 0.364199 0
M  V30 215 O 23.8274 1.77768 0.161533 0
M  V30 216 C 20.9274 3.38257 0.208694 0
M  V30 217 C 20.1004 4.31504 -0.71577 0
M  V30 218 C 19.1594 5.262 0.00325597 0
M  V30 219 O 18.1854 5.65798 -0.621357 0
M  V30 220 N 19.3874 5.66303 1.27599 0
M  V30 221 H 22.1524 2.62957 -1.43784 0
M  V30 222 H 19.7134 1.34495 -0.901261 0
M  V30 223 H 21.7054 3.98616 0.699111 0
M  V30 224 H 20.2754 2.96472 0.991102 0
M  V30 225 H 19.4954 3.69016 -1.38638 0
M  V30 226 H 20.7834 4.9072 -1.34428 0
M  V30 227 H 20.1814 5.36155 1.80429 0
M  V30 228 H 18.7384 6.28942 1.71102 0
M  V30 229 N 22.1715 0.800033 1.35784 0
M  V30 230 C 23.1015 0.220184 2.3246 0
M  V30 231 C 24.0825 -0.65073 1.57161 0
M  V30 232 O 25.2675 -0.582359 1.85263 0
M  V30 233 C 22.3975 -0.637353 3.41402 0
M  V30 234 C 21.3515 0.134531 4.27789 0
M  V30 235 C 20.6775 -0.844285 5.27992 0
M  V30 236 C 21.9775 1.32979 5.05088 0
M  V30 237 H 23.6715 1.02787 2.81203 0
M  V30 238 H 21.2175 0.495717 1.35199 0
M  V30 239 H 23.1705 -1.05302 4.08031 0
M  V30 240 H 21.8945 -1.47785 2.91251 0
M  V30 241 H 20.5535 0.531296 3.6273 0
M  V30 242 H 20.2015 -1.68011 4.74111 0
M  V30 243 H 19.9015 -0.332184 5.8666 0
M  V30 244 H 21.4255 -1.2583 5.97494 0
M  V30 245 H 22.8395 0.98934 5.64699 0
M  V30 246 H 21.2365 1.77593 5.7322 0
M  V30 247 H 22.3065 2.11978 4.36111 0
M  V30 248 N 23.6496 -1.47581 0.552962 0
M  V30 249 C 24.5796 -2.32762 -0.185451 0
M  V30 250 C 25.5606 -1.43527 -0.912905 0
M  V30 251 O 26.7456 -1.72388 -0.894201 0
M  V30 252 C 23.8756 -3.25219 -1.21859 0
M  V30 253 C 22.8296 -4.23661 -0.607864 0
M  V30 254 C 22.1556 -5.05413 -1.74533 0
M  V30 255 C 23.4556 -5.20481 0.435582 0
M  V30 256 H 25.1496 -2.94749 0.525684 0
M  V30 257 H 22.6956 -1.41738 0.254251 0
M  V30 258 H 24.6486 -3.8365 -1.7433 0
M  V30 259 H 23.3726 -2.61279 -1.95961 0
M  V30 260 H 22.0316 -3.66451 -0.104489 0
M  V30 261 H 21.6796 -4.3788 -2.47529 0
M  V30 262 H 21.3796 -5.72059 -1.34249 0
M  V30 263 H 22.9036 -5.66701 -2.27338 0
M  V30 264 H 24.3176 -5.733 -0.00290157 0
M  V30 265 H 22.7146 -5.95305 0.757067 0
M  V30 266 H 23.7846 -4.66217 1.33303 0
M  V30 267 N 25.1277 -0.289203 -1.54924 0
M  V30 268 C 26.4047 0.376032 -1.91951 0
M  V30 269 C 26.7847 1.72622 -1.21511 0
M  V30 270 O 26.1327 2.25853 -0.346767 0
M  V30 271 C 26.3427 0.502378 -3.45365 0
M  V30 272 C 27.6907 0.778741 -4.17398 0
M  V30 273 O 28.7147 0.586647 -3.51336 0
M  V30 274 O 27.5737 1.14698 -5.34328 0
M  V30 275 H 24.6677 0.208167 -0.800372 0
M  V30 276 H 27.2137 -0.336394 -1.66332 0
M  V30 277 H 25.9857 -0.447255 -3.88736 0
M  V30 278 H 25.6087 1.26373 -3.76982 0
M  V30 279 N 26.6058 1.57591 -0.0167156 0
M  V30 280 C 27.8528 1.91283 0.664597 0
M  V30 281 C 28.1808 0.891949 1.72842 0
M  V30 282 O 27.4358 -0.100931 1.9544 0
M  V30 283 C 27.7348 3.3172 1.33029 0
M  V30 284 C 27.4008 4.4914 0.398047 0
M  V30 285 C 26.0628 4.80992 0.141421 0
M  V30 286 C 28.4148 5.20634 -0.242825 0
M  V30 287 C 25.7428 5.81703 -0.764092 0
M  V30 288 C 28.0948 6.22311 -1.13632 0
M  V30 289 C 26.7588 6.52611 -1.40196 0
M  V30 290 H 26.0288 0.699956 0.243193 0
M  V30 291 H 28.6758 1.9135 -0.0758267 0
M  V30 292 H 26.9808 3.27856 2.14517 0
M  V30 293 H 28.6778 3.55055 1.86379 0
M  V30 294 H 25.2678 4.24262 0.608238 0
M  V30 295 H 29.4518 4.96267 -0.0576019 0
M  V30 296 H 24.7078 6.03532 -0.977732 0
M  V30 297 H 28.8818 6.76834 -1.63917 0
M  V30 298 H 26.5088 7.30467 -2.10529 0
M  V30 299 N 28.0839 -0.256276 1.55502 0
M  V30 300 C 29.3089 -1.00766 1.81276 0
M  V30 301 C 29.7339 -1.78524 0.59252 0
M  V30 302 O 29.0919 -1.75413 -0.45827 0
M  V30 303 C 29.1399 -1.92869 3.04687 0
M  V30 304 O 28.2439 -3.019 2.80945 0
M  V30 305 H 27.5849 -0.287224 0.598664 0
M  V30 306 H 30.1149 -0.280109 2.02674 0
M  V30 307 H 30.1249 -2.34511 3.33869 0
M  V30 308 H 28.7999 -1.35689 3.93143 0
M  V30 309 H 27.3769 -2.64454 2.62904 0
M  V30 310 N 29.562 -1.4872 -0.521534 0
M  V30 311 C 30.494 -1.59968 -1.64143 0
M  V30 312 C 31.507 -0.483463 -1.55456 0
M  V30 313 O 32.696 -0.75467 -1.61762 0
M  V30 314 C 29.796 -1.52127 -3.02838 0
M  V30 315 C 28.969 -2.78932 -3.36921 0
M  V30 316 C 28.028 -2.64428 -4.54933 0
M  V30 317 O 27.054 -3.38331 -4.57735 0
M  V30 318 N 28.256 -1.74606 -5.53618 0
M  V30 319 H 31.021 -2.56548 -1.54929 0
M  V30 320 H 28.582 -1.45551 -0.708988 0
M  V30 321 H 30.574 -1.40106 -3.79674 0
M  V30 322 H 29.144 -0.634868 -3.06085 0
M  V30 323 H 28.364 -3.05455 -2.4918 0
M  V30 324 H 29.652 -3.63041 -3.56481 0
M  V30 325 H 29.05 -1.13782 -5.54139 0
M  V30 326 H 27.607 -1.6852 -6.29638 0
M  V30 327 N 31.0401 0.771051 -1.3745 0
M  V30 328 C 31.9871 1.88435 -1.3327 0
M  V30 329 C 32.9571 1.64914 -0.198136 0
M  V30 330 O 34.1421 1.86821 -0.387606 0
M  V30 331 C 31.2821 3.25509 -1.14622 0
M  V30 332 C 30.3951 3.60979 -2.37314 0
M  V30 333 C 29.5301 4.87265 -2.11533 0
M  V30 334 C 28.5691 5.15469 -3.30088 0
M  V30 335 N 27.7061 6.32944 -3.03853 0
M  V30 336 H 32.5461 1.91344 -2.28455 0
M  V30 337 H 30.0831 0.935466 -1.13523 0
M  V30 338 H 32.0411 4.04582 -1.01831 0
M  V30 339 H 30.6711 3.21974 -0.230837 0
M  V30 340 H 29.7231 2.76885 -2.60842 0
M  V30 341 H 31.0351 3.77759 -3.25729 0
M  V30 342 H 30.1891 5.74244 -1.95777 0
M  V30 343 H 28.9281 4.7259 -1.20457 0
M  V30 344 H 27.9331 4.26966 -3.46382 0
M  V30 345 H 29.1581 5.32052 -4.22016 0
M  V30 346 H 27.1041 6.19625 -2.15407 0
M  V30 347 H 27.0211 6.50143 -3.85812 0
M  V30 348 H 28.2891 7.22857 -2.91716 0
M  V30 349 N 32.5182 1.22032 0.997298 0
M  V30 350 C 33.4482 1.01065 2.10495 0
M  V30 351 C 34.4292 -0.0669542 1.69968 0
M  V30 352 O 35.6142 0.0943987 1.9397 0
M  V30 353 C 32.7442 0.582874 3.42374 0
M  V30 354 C 31.6982 1.60592 3.96729 0
M  V30 355 C 31.0242 1.03412 5.24605 0
M  V30 356 C 32.3242 2.99478 4.27914 0
M  V30 357 H 34.0182 1.93708 2.28292 0
M  V30 358 H 31.5642 0.932761 1.09707 0
M  V30 359 H 33.5172 0.423332 4.19268 0
M  V30 360 H 32.2412 -0.379213 3.24391 0
M  V30 361 H 30.9002 1.75316 3.21963 0
M  V30 362 H 30.5482 0.063518 5.0296 0
M  V30 363 H 30.2482 1.71754 5.61938 0
M  V30 364 H 31.7722 0.886066 6.04137 0
M  V30 365 H 33.1862 2.88153 4.95622 0
M  V30 366 H 31.5832 3.64903 4.76409 0
M  V30 367 H 32.6532 3.49742 3.3587 0
M  V30 368 N 33.9963 -1.19345 1.0293 0
M  V30 369 C 35.2733 -1.84811 0.640642 0
M  V30 370 C 35.6533 -1.91855 -0.88062 0
M  V30 371 O 35.0013 -1.43587 -1.7775 0
M  V30 372 C 35.2113 -3.23755 1.30321 0
M  V30 373 C 36.5593 -3.99912 1.42673 0
M  V30 374 O 37.5833 -3.33155 1.26041 0
M  V30 375 O 36.4423 -5.19494 1.6967 0
M  V30 376 H 33.5363 -0.796443 0.222726 0
M  V30 377 H 36.0823 -1.26831 1.12748 0
M  V30 378 H 34.8543 -3.13466 2.34211 0
M  V30 379 H 34.4773 -3.89381 0.804261 0
M  V30 380 N 35.4744 -0.807222 -1.35358 0
M  V30 381 C 36.7234 -0.384376 -1.98004 0
M  V30 382 C 37.0364 1.0543 -1.64754 0
M  V30 383 O 38.2424 1.58029 -2.20769 0
M  V30 384 C 36.6984 -0.636326 -3.5423 0
M  V30 385 C 36.3064 -2.08759 -3.96388 0
M  V30 386 C 38.0504 -0.278869 -4.23583 0
M  V30 387 C 35.9574 -2.28525 -5.45463 0
M  V30 388 H 34.8874 -0.139986 -0.740891 0
M  V30 389 H 37.5384 -0.991369 -1.54415 0
M  V30 390 H 35.9204 0.0406256 -3.95979 0
M  V30 391 H 37.0944 -2.8024 -3.6579 0
M  V30 392 H 35.4094 -2.40497 -3.39926 0
M  V30 393 H 38.0064 -0.404599 -5.33167 0
M  V30 394 H 38.3494 0.775012 -4.09022 0
M  V30 395 H 38.8824 -0.909764 -3.87257 0
M  V30 396 H 35.6214 -3.32361 -5.64992 0
M  V30 397 H 35.1414 -1.61569 -5.77629 0
M  V30 398 H 36.8204 -2.10109 -6.11934 0
M  V30 399 N 36.9525 1.47285 -0.560781 0
M  V30 400 C 37.9005 2.31756 0.197942 0
M  V30 401 C 38.8945 1.43146 0.905854 0
M  V30 402 O 40.1005 1.59891 0.826733 0
M  V30 403 H 36.4755 0.747438 0.0827049 0
M  V30 404 H 38.4465 2.9359 -0.533629 0
M  V30 405 C 37.1955 3.25874 1.21249 0
M  V30 406 H 36.5185 3.94023 0.67719 0
M  V30 407 H 37.9585 3.87803 1.71419 0
M  V30 408 C 36.4175 2.49651 2.26221 0
M  V30 409 O 36.9475 2.24355 3.33208 0
M  V30 410 N 35.1535 2.10597 2.00243 0
M  V30 411 H 34.7005 2.31369 1.13252 0
M  V30 412 H 34.6585 1.59913 2.70694 0
M  V30 413 N 38.4306 0.297415 1.54768 0
M  V30 414 C 39.3606 -0.573494 2.26348 0
M  V30 415 C 40.3416 -1.14085 1.26169 0
M  V30 416 O 41.5266 -1.17086 1.54934 0
M  V30 417 C 38.6566 -1.74716 3.00153 0
M  V30 418 C 37.6106 -1.31032 4.07449 0
M  V30 419 C 36.9366 -2.56887 4.68949 0
M  V30 420 C 38.2366 -0.444183 5.20408 0
M  V30 421 H 39.9306 0.0235131 2.99391 0
M  V30 422 H 37.4766 0.0127488 1.43994 0
M  V30 423 H 39.4296 -2.3625 3.48947 0
M  V30 424 H 38.1536 -2.37035 2.24682 0
M  V30 425 H 36.8126 -0.718066 3.59499 0
M  V30 426 H 36.4606 -3.17512 3.90122 0
M  V30 427 H 36.1606 -2.2836 5.41411 0
M  V30 428 H 37.6846 -3.19229 5.20505 0
M  V30 429 H 39.0986 -0.9651 5.65118 0
M  V30 430 H 37.4956 -0.252846 5.99567 0
M  V30 431 H 38.5656 0.531609 4.81977 0
M  V30 432 N 39.9087 -1.5758 0.0250728 0
M  V30 433 C 40.8387 -2.13007 -0.956575 0
M  V30 434 C 41.8197 -1.0452 -1.342 0
M  V30 435 O 43.0047 -1.32332 -1.42133 0
M  V30 436 C 40.1347 -2.65386 -2.24026 0
M  V30 437 C 39.0887 -3.78623 -1.99571 0
M  V30 438 C 38.4147 -4.17414 -3.3417 0
M  V30 439 C 39.7147 -5.04867 -1.33814 0
M  V30 440 H 41.4087 -2.9528 -0.494991 0
M  V30 441 H 38.9547 -1.42042 -0.236651 0
M  V30 442 H 40.9077 -3.02794 -2.93076 0
M  V30 443 H 39.6317 -1.80268 -2.72343 0
M  V30 444 H 38.2907 -3.41646 -1.32941 0
M  V30 445 H 37.9387 -3.29284 -3.80238 0
M  V30 446 H 37.6387 -4.93719 -3.18615 0
M  V30 447 H 39.1627 -4.57402 -4.04495 0
M  V30 448 H 40.5767 -5.39888 -1.92857 0
M  V30 449 H 38.9737 -5.86144 -1.28669 0
M  V30 450 H 40.0437 -4.83904 -0.310561 0
M  V30 451 N 41.3868 0.248026 -1.55636 0
M  V30 452 C 42.6638 0.998988 -1.68165 0
M  V30 453 C 43.0438 2.03409 -0.564621 0
M  V30 454 O 42.3918 2.24378 0.432076 0
M  V30 455 C 42.6018 1.63334 -3.0842 0
M  V30 456 C 43.9498 2.13562 -3.66983 0
M  V30 457 O 44.9738 1.73277 -3.11213 0
M  V30 458 O 43.8328 2.87526 -4.64749 0
M  V30 459 H 40.9268 0.464933 -0.683935 0
M  V30 460 H 43.4728 0.241902 -1.67967 0
M  V30 461 H 42.2448 0.884583 -3.8117 0
M  V30 462 H 41.8678 2.45666 -3.12624 0
M  V30 463 N 42.8649 1.48995 0.513639 0
M  V30 464 C 43.8129 1.65199 1.63744 0
M  V30 465 C 44.8069 0.51809 1.61283 0
M  V30 466 O 46.0129 0.697335 1.65943 0
M  V30 467 H 42.3879 0.52069 0.542574 0
M  V30 468 H 44.3589 2.59552 1.47226 0
M  V30 469 C 43.1079 1.72409 3.01945 0
M  V30 470 H 42.4309 2.59029 3.04539 0
M  V30 471 H 43.8709 1.87785 3.80148 0
M  V30 472 C 42.3299 0.46618 3.33659 0
M  V30 473 O 42.8599 -0.413744 3.99564 0
M  V30 474 N 41.0659 0.332931 2.88687 0
M  V30 475 H 40.6129 1.04996 2.35231 0
M  V30 476 H 40.5709 -0.507665 3.10274 0
M  V30 477 N 44.343 -0.763751 1.37857 0
M  V30 478 C 45.589 -1.52483 1.33704 0
M  V30 479 C 45.922 -1.94051 -0.0759612 0
M  V30 480 O 45.197 -1.64675 -1.03501 0
M  V30 481 C 45.48 -2.78441 2.28348 0
M  V30 482 C 45.333 -2.43075 3.78463 0
M  V30 483 C 46.652 -3.80415 2.21298 0
M  V30 484 H 43.771 -0.553169 0.487005 0
M  V30 485 H 46.413 -0.875562 1.68624 0
M  V30 486 H 44.563 -3.33842 1.987 0
M  V30 487 H 46.235 -1.93527 4.18742 0
M  V30 488 H 44.478 -1.75666 3.96641 0
M  V30 489 H 45.149 -3.33149 4.40132 0
M  V30 490 H 47.625 -3.34527 2.47449 0
M  V30 491 H 46.501 -4.66257 2.89647 0
M  V30 492 H 46.762 -4.25262 1.20849 0
M  V30 493 N 45.8211 -1.22559 -0.990812 0
M  V30 494 C 47.0671 -1.05297 -1.73322 0
M  V30 495 C 47.4001 0.410655 -1.89808 0
M  V30 496 O 46.6751 1.30439 -1.44277 0
M  V30 497 C 46.9581 -1.76713 -3.13759 0
M  V30 498 C 46.8111 -3.30684 -3.04907 0
M  V30 499 C 48.1301 -1.52121 -4.12974 0
M  V30 500 H 45.2491 -0.38392 -0.629106 0
M  V30 501 H 47.8911 -1.50926 -1.15418 0
M  V30 502 H 46.0411 -1.37924 -3.63193 0
M  V30 503 H 47.7131 -3.7893 -2.63077 0
M  V30 504 H 45.9561 -3.60253 -2.41661 0
M  V30 505 H 46.6271 -3.75833 -4.04294 0
M  V30 506 H 49.1031 -1.85819 -3.72304 0
M  V30 507 H 47.9791 -2.04582 -5.0935 0
M  V30 508 H 48.2401 -0.454257 -4.3976 0
M  V30 509 N 47.2992 1.18797 -1.03562 0
M  V30 510 C 48.2472 2.24297 -0.615905 0
M  V30 511 C 49.2412 1.65643 0.354808 0
M  V30 512 O 50.4472 1.78618 0.22265 0
M  V30 513 H 46.8222 0.729909 -0.180934 0
M  V30 514 H 48.7932 2.5701 -1.5162 0
M  V30 515 C 47.5422 3.47698 0.0104735 0
M  V30 516 H 46.8652 3.93125 -0.727509 0
M  V30 517 H 48.3052 4.23159 0.266995 0
M  V30 518 C 46.7642 3.12489 1.25905 0
M  V30 519 O 47.2942 3.25761 2.35038 0
M  V30 520 N 45.5002 2.6686 1.15039 0
M  V30 521 H 45.0472 2.56261 0.262328 0
M  V30 522 H 45.0052 2.43674 1.98672 0
M  V30 523 N 48.7773 0.814389 1.34928 0
M  V30 524 C 50.0173 0.404165 2.00364 0
M  V30 525 C 50.3813 -1.01166 1.63185 0
M  V30 526 O 51.5823 -1.52431 2.21401 0
M  V30 527 C 49.8533 0.590718 3.52484 0
M  V30 528 S 51.4123 0.272075 4.37956 0
M  V30 529 H 48.2303 0.15311 0.694319 0
M  V30 530 H 50.8323 1.05834 1.64376 0
M  V30 531 H 49.5363 1.62099 3.77031 0
M  V30 532 H 49.0673 -0.0785013 3.93322 0
M  V30 533 H 51.0823 -0.917405 4.87645 0
M  V30 534 N 50.2554 -1.46986 0.568584 0
M  V30 535 C 51.1854 -2.32946 -0.160753 0
M  V30 536 C 52.1664 -1.44487 -0.897631 0
M  V30 537 O 53.3514 -1.73327 -0.875867 0
M  V30 538 C 50.4814 -3.26494 -1.18403 0
M  V30 539 C 49.4354 -4.24282 -0.562895 0
M  V30 540 C 48.7614 -5.07236 -1.69163 0
M  V30 541 C 50.0614 -5.19989 0.490761 0
M  V30 542 H 51.7554 -2.94175 0.556916 0
M  V30 543 H 49.3014 -1.4146 0.26927 0
M  V30 544 H 51.2544 -3.85477 -1.70251 0
M  V30 545 H 49.9784 -2.63343 -1.93179 0
M  V30 546 H 48.6374 -3.66541 -0.0656164 0
M  V30 547 H 48.2854 -4.4048 -2.42871 0
M  V30 548 H 47.9854 -5.7345 -1.28174 0
M  V30 549 H 49.5094 -5.6908 -2.21314 0
M  V30 550 H 50.9234 -5.73271 0.0579047 0
M  V30 551 H 49.3204 -5.94469 0.820165 0
M  V30 552 H 50.3904 -4.64777 1.3824 0
M  V30 553 N 51.7335 -0.305618 -1.54608 0
M  V30 554 C 52.9635 0.304333 -2.04346 0
M  V30 555 C 53.3715 1.47715 -1.18224 0
M  V30 556 O 52.7145 1.82591 -0.201577 0
M  V30 557 C 52.7765 0.819031 -3.50046 0
M  V30 558 C 52.4405 -0.22912 -4.56425 0
M  V30 559 C 53.4375 -1.05914 -5.08997 0
M  V30 560 C 51.1225 -0.372148 -5.0092 0
M  V30 561 C 53.1165 -2.01809 -6.04609 0
M  V30 562 C 50.8035 -1.33454 -5.9635 0
M  V30 563 C 51.8015 -2.15599 -6.48079 0
M  V30 564 O 51.4895 -3.10205 -7.41639 0
M  V30 565 H 51.2215 0.0693996 -0.672428 0
M  V30 566 H 53.7755 -0.444548 -2.00532 0
M  V30 567 H 52.0055 1.61852 -3.51199 0
M  V30 568 H 53.6945 1.34537 -3.82955 0
M  V30 569 H 54.4605 -0.959538 -4.75413 0
M  V30 570 H 50.3395 0.257304 -4.60281 0
M  V30 571 H 53.8835 -2.65966 -6.44909 0
M  V30 572 H 49.7805 -1.43485 -6.29351 0
M  V30 573 H 50.5485 -3.05237 -7.59455 0
M  V30 574 N 53.2116 1.57565 -0.0334293 0
M  V30 575 C 54.1616 2.06978 0.956237 0
M  V30 576 C 55.1456 0.971193 1.28283 0
M  V30 577 O 56.3376 1.23471 1.26822 0
M  V30 578 C 53.4666 2.60393 2.23719 0
M  V30 579 C 52.5526 3.7719 1.93877 0
M  V30 580 N 52.9436 4.87639 1.34321 0
M  V30 581 C 51.2416 3.85758 2.23845 0
M  V30 582 C 51.9426 5.68825 1.21709 0
M  V30 583 N 50.9186 5.1587 1.71404 0
M  V30 584 H 54.7206 2.89773 0.490815 0
M  V30 585 H 52.2346 1.61492 0.171478 0
M  V30 586 H 54.2316 2.94088 2.95496 0
M  V30 587 H 52.8916 1.79031 2.70884 0
M  V30 588 H 53.9026 5.07803 1.01767 0
M  V30 589 H 50.5796 3.1531 2.73653 0
M  V30 590 H 51.9696 6.67631 0.75621 0
M  V30 591 N 54.6897 -0.239769 1.55765 0
M  V30 592 C 55.9377 -0.964892 1.77579 0
M  V30 593 C 56.2587 -1.85582 0.598699 0
M  V30 594 O 55.5287 -1.92075 -0.385226 0
M  V30 595 H 54.1087 -0.359265 0.654933 0
M  V30 596 H 56.7707 -0.256001 1.93211 0
M  V30 597 H 55.8667 -1.58243 2.69009 0
M  V30 598 N 56.1678 -1.49265 -0.50573 0
M  V30 599 C 57.0778 -1.68312 -1.63427 0
M  V30 600 C 58.0938 -0.565682 -1.64548 0
M  V30 601 O 59.2698 -0.839801 -1.83055 0
M  V30 602 C 56.3348 -1.74107 -2.99813 0
M  V30 603 C 55.3958 -2.97653 -3.09356 0
M  V30 604 C 54.6288 -3.03163 -4.39236 0
M  V30 605 O 54.8518 -2.16396 -5.27758 0
M  V30 606 O 53.7858 -3.9558 -4.53652 0
M  V30 607 H 57.6118 -2.63907 -1.50289 0
M  V30 608 H 55.1968 -1.32951 -0.681502 0
M  V30 609 H 57.0788 -1.803 -3.80881 0
M  V30 610 H 55.7538 -0.816901 -3.13223 0
M  V30 611 H 54.6608 -2.96981 -2.27493 0
M  V30 612 H 55.9938 -3.89535 -3.00871 0
M  V30 613 N 57.6459 0.756429 -1.3826 0
M  V30 614 C 58.8939 1.51248 -1.34047 0
M  V30 615 C 59.2149 1.94875 0.0698372 0
M  V30 616 O 58.4849 1.67436 1.01696 0
M  V30 617 H 57.0649 0.561018 -0.493222 0
M  V30 618 H 59.7269 0.899347 -1.7291 0
M  V30 619 H 58.8229 2.40472 -1.98947 0
M  V30 620 N 59.124 1.23083 0.984299 0
M  V30 621 C 60.087 1.00979 2.05757 0
M  V30 622 C 61.087 -0.0269573 1.60777 0
M  V30 623 O 62.277 0.212403 1.729 0
M  V30 624 C 59.409 0.527072 3.36801 0
M  V30 625 H 60.602 1.9622 2.26799 0
M  V30 626 H 58.155 1.05072 1.15714 0
M  V30 627 H 58.89 -0.429294 3.21446 0
M  V30 628 H 58.675 1.27515 3.70786 0
M  V30 629 H 60.165 0.392942 4.15747 0
M  V30 630 N 60.6021 -1.18246 1.0419 0
M  V30 631 C 61.5341 -2.2142 0.592088 0
M  V30 632 C 62.5471 -1.59233 -0.338909 0
M  V30 633 O 63.7361 -1.78002 -0.133231 0
M  V30 634 C 60.8361 -3.38546 -0.154854 0
M  V30 635 C 60.0091 -4.3031 0.784328 0
M  V30 636 C 59.0681 -5.26138 0.0804583 0
M  V30 637 O 58.0941 -5.64738 0.711292 0
M  V30 638 N 59.2961 -5.68261 -1.18574 0
M  V30 639 H 62.0611 -2.60636 1.47949 0
M  V30 640 H 59.6221 -1.33044 0.922544 0
M  V30 641 H 61.6141 -3.99678 -0.635606 0
M  V30 642 H 60.1841 -2.98012 -0.943811 0
M  V30 643 H 59.4041 -3.66764 1.44491 0
M  V30 644 H 60.6921 -4.8852 1.42218 0
M  V30 645 H 60.0901 -5.38957 -1.71876 0
M  V30 646 H 58.6471 -6.31584 -1.61074 0
M  V30 647 N 62.0802 -0.821533 -1.34494 0
M  V30 648 C 63.0122 -0.199946 -2.28326 0
M  V30 649 C 64.0252 0.609377 -1.50965 0
M  V30 650 O 65.2142 0.439285 -1.7301 0
M  V30 651 C 62.3142 0.738431 -3.30757 0
M  V30 652 C 61.4872 -0.0277632 -4.37391 0
M  V30 653 C 60.5462 0.831332 -5.19591 0
M  V30 654 O 59.5722 0.276822 -5.68526 0
M  V30 655 N 60.7742 2.15132 -5.39165 0
M  V30 656 H 63.5392 -1.00609 -2.82308 0
M  V30 657 H 61.1002 -0.678366 -1.47003 0
M  V30 658 H 63.0922 1.31773 -3.82646 0
M  V30 659 H 61.6622 1.44533 -2.7718 0
M  V30 660 H 60.8822 -0.788359 -3.86236 0
M  V30 661 H 62.1702 -0.555251 -5.05761 0
M  V30 662 H 61.5682 2.62559 -5.01078 0
M  V30 663 H 60.1252 2.6795 -5.94177 0
M  V30 664 N 63.5583 1.46682 -0.576371 0
M  V30 665 C 64.9743 1.57822 -0.237562 0
M  V30 666 C 65.1743 1.57237 1.26011 0
M  V30 667 O 64.2303 1.48596 2.04146 0
M  V30 668 C 65.5433 2.87499 -0.881168 0
M  V30 669 C 67.0913 3.01119 -0.85417 0
M  V30 670 C 67.5663 4.33524 -1.4772 0
M  V30 671 N 69.0573 4.40207 -1.44125 0
M  V30 672 C 69.7923 5.4126 -1.89276 0
M  V30 673 N 69.2883 6.49021 -2.42371 0
M  V30 674 N 71.0813 5.32422 -1.80231 0
M  V30 675 H 63.2323 1.45306 -1.54919 0
M  V30 676 H 65.4953 0.692733 -0.647167 0
M  V30 677 H 65.2013 2.9372 -1.93447 0
M  V30 678 H 65.0753 3.75224 -0.385592 0
M  V30 679 H 67.4623 2.94485 0.190491 0
M  V30 680 H 67.5433 2.14887 -1.3877 0
M  V30 681 H 67.1873 4.40916 -2.52103 0
M  V30 682 H 67.1173 5.1852 -0.918947 0
M  V30 683 H 69.6083 3.62931 -1.05307 0
M  V30 684 H 69.9213 7.2233 -2.74698 0
M  V30 685 H 68.2663 6.49858 -2.46393 0
M  V30 686 H 71.4573 4.47137 -1.38514 0
M  V30 687 H 71.6303 6.11034 -2.15735 0
M  V30 688 N 65.0364 0.313813 1.54444 0
M  V30 689 C 65.9694 -0.598866 2.20202 0
M  V30 690 C 66.9474 -1.12318 1.17573 0
M  V30 691 O 68.1314 -1.18899 1.46271 0
M  V30 692 C 65.2584 -1.82071 2.85601 0
M  V30 693 C 64.3044 -1.42851 4.01865 0
M  V30 694 S 65.1374 -0.473512 5.33402 0
M  V30 695 C 66.2934 -1.70286 6.0229 0
M  V30 696 H 66.5264 -0.0402532 2.97273 0
M  V30 697 H 64.0594 0.0979165 1.54089 0
M  V30 698 H 66.0174 -2.52184 3.23904 0
M  V30 699 H 64.6784 -2.3505 2.08351 0
M  V30 700 H 63.8714 -2.33871 4.46453 0
M  V30 701 H 63.4734 -0.807198 3.65185 0
M  V30 702 H 65.7654 -2.64168 6.23876 0
M  V30 703 H 66.7084 -1.29932 6.96077 0
M  V30 704 H 67.1164 -1.88541 5.32083 0
M  V30 705 N 66.5145 -1.57545 0.0417849 0
M  V30 706 C 67.4775 -2.09885 -0.92093 0
M  V30 707 C 68.4775 -1.01648 -1.24596 0
M  V30 708 O 69.6675 -1.27759 -1.1842 0
M  V30 709 C 66.7995 -2.57527 -2.23367 0
M  V30 710 H 67.9925 -2.96236 -0.467382 0
M  V30 711 H 65.5455 -1.5493 -0.206467 0
M  V30 712 H 66.2805 -1.74542 -2.73323 0
M  V30 713 H 66.0655 -3.36613 -2.01083 0
M  V30 714 H 67.5555 -2.98201 -2.92346 0
M  V30 715 N 67.9926 0.231505 -1.5589 0
M  V30 716 C 68.9246 1.31006 -1.8807 0
M  V30 717 C 69.9376 1.43539 -0.768145 0
M  V30 718 O 71.1266 1.44614 -1.04638 0
M  V30 719 C 68.2266 2.68688 -2.06543 0
M  V30 720 C 67.3996 2.78228 -3.37502 0
M  V30 721 C 66.4586 3.96857 -3.4553 0
M  V30 722 O 65.4846 3.85662 -4.18633 0
M  V30 723 N 66.6866 5.1072 -2.75944 0
M  V30 724 H 69.4516 1.03731 -2.81176 0
M  V30 725 H 67.0126 0.421573 -1.56315 0
M  V30 726 H 69.0046 3.46412 -2.09239 0
M  V30 727 H 67.5746 2.88605 -1.20109 0
M  V30 728 H 66.7946 1.87059 -3.46991 0
M  V30 729 H 68.0826 2.81564 -4.23791 0
M  V30 730 H 67.4806 5.2271 -2.16311 0
M  V30 731 H 66.0376 5.86523 -2.84314 0
M  V30 732 N 69.4707 1.49531 0.497807 0
M  V30 733 C 70.3807 1.69176 1.62532 0
M  V30 734 C 71.3967 0.5744 1.64246 0
M  V30 735 O 72.5727 0.849497 1.82608 0
M  V30 736 C 69.6377 1.75695 2.98885 0
M  V30 737 C 68.6987 2.9929 3.07773 0
M  V30 738 C 67.9317 3.05488 4.37622 0
M  V30 739 O 68.1547 2.19192 5.26603 0
M  V30 740 O 67.0887 3.9798 4.51548 0
M  V30 741 H 70.9147 2.647 1.48887 0
M  V30 742 H 68.4997 1.3331 0.674441 0
M  V30 743 H 70.3817 1.82317 3.79919 0
M  V30 744 H 69.0567 0.8335 3.12785 0
M  V30 745 H 67.9637 2.98183 2.25915 0
M  V30 746 H 69.2967 3.91125 2.98801 0
M  V30 747 N 70.9488 -0.749086 1.3866 0
M  V30 748 C 72.1948 -1.51056 1.35314 0
M  V30 749 C 72.5278 -1.94121 -0.0553751 0
M  V30 750 O 71.8028 -1.65763 -1.01749 0
M  V30 751 C 72.0858 -2.76003 2.31288 0
M  V30 752 C 71.9388 -2.39047 3.8102 0
M  V30 753 C 73.2578 -3.78046 2.2532 0
M  V30 754 H 70.3768 -0.547972 0.492844 0
M  V30 755 H 73.0188 -0.857628 1.69543 0
M  V30 756 H 71.1688 -3.31716 2.02229 0
M  V30 757 H 72.8408 -1.89074 4.20771 0
M  V30 758 H 71.0838 -1.71449 3.98482 0
M  V30 759 H 71.7548 -3.28462 4.4364 0
M  V30 760 H 74.2308 -3.31884 2.50983 0
M  V30 761 H 73.1068 -4.63159 2.94576 0
M  V30 762 H 73.3678 -4.23957 1.25352 0
M  V30 763 N 72.4269 -1.23603 -0.977757 0
M  V30 764 C 73.3569 -1.04401 -2.0886 0
M  V30 765 C 74.3379 0.0399052 -1.70053 0
M  V30 766 O 75.5229 -0.125246 -1.93796 0
M  V30 767 C 72.6529 -0.637269 -3.41403 0
M  V30 768 C 71.6069 -1.66883 -3.94124 0
M  V30 769 C 70.9329 -1.11745 -5.22893 0
M  V30 770 C 72.2329 -3.06247 -4.23096 0
M  V30 771 H 73.9269 -1.97316 -2.25182 0
M  V30 772 H 71.4729 -0.950096 -1.08209 0
M  V30 773 H 73.4259 -0.48998 -4.18542 0
M  V30 774 H 72.1499 0.327557 -3.24953 0
M  V30 775 H 70.8089 -1.80416 -3.19133 0
M  V30 776 H 70.4569 -0.143527 -5.02795 0
M  V30 777 H 70.1569 -1.80672 -5.59134 0
M  V30 778 H 71.6809 -0.982067 -6.02651 0
M  V30 779 H 73.0949 -2.96001 -4.90975 0
M  V30 780 H 71.4919 -3.72436 -4.70544 0
M  V30 781 H 72.5619 -3.55041 -3.30263 0
M  V30 782 N 73.905 1.17692 -1.04816 0
M  V30 783 C 75.133 1.91786 -0.776254 0
M  V30 784 C 75.548 1.76604 0.667577 0
M  V30 785 O 74.905 1.10067 1.45573 0
M  V30 786 C 74.956 3.42967 -1.14263 0
M  V30 787 O 74.677 3.57678 -2.52978 0
M  V30 788 C 76.178 4.34144 -0.896311 0
M  V30 789 H 73.398 0.608624 -0.282519 0
M  V30 790 H 75.942 1.49268 -1.39783 0
M  V30 791 H 74.097 3.83245 -0.565874 0
M  V30 792 H 74.511 4.51319 -2.67229 0
M  V30 793 H 75.985 5.38744 -1.20244 0
M  V30 794 H 76.462 4.38876 0.168636 0
M  V30 795 H 77.068 3.99574 -1.45672 0
M  V30 796 N 75.3831 0.828654 1.34056 0
M  V30 797 C 76.3331 0.226828 2.26869 0
M  V30 798 C 77.3171 -0.612243 1.48796 0
M  V30 799 O 78.5091 -0.465884 1.70759 0
M  V30 800 C 75.6381 -0.605654 3.37915 0
M  V30 801 C 74.7241 0.244361 4.23395 0
M  V30 802 N 75.1151 1.31815 4.88322 0
M  V30 803 C 73.4131 0.0296616 4.4599 0
M  V30 804 C 74.1141 1.83895 5.51867 0
M  V30 805 N 73.0901 1.14196 5.3147 0
M  V30 806 H 76.8921 1.04811 2.74576 0
M  V30 807 H 74.4061 0.67205 1.47842 0
M  V30 808 H 76.4031 -1.05302 4.03382 0
M  V30 809 H 75.0631 -1.42504 2.91758 0
M  V30 810 H 76.0741 1.70099 4.8917 0
M  V30 811 H 72.7511 -0.757097 4.10578 0
M  V30 812 H 74.1411 2.7376 6.136 0
M  V30 813 N 76.8612 -1.46375 0.584142 0
M  V30 814 C 77.7912 -2.33103 -0.136037 0
M  V30 815 C 78.7722 -1.45431 -0.882255 0
M  V30 816 O 79.9572 -1.74246 -0.857434 0
M  V30 817 C 77.0872 -3.27731 -1.14933 0
M  V30 818 C 76.0412 -4.24855 -0.517862 0
M  V30 819 C 75.3672 -5.09001 -1.63773 0
M  V30 820 C 76.6672 -5.19439 0.545886 0
M  V30 821 H 78.3612 -2.93568 0.588086 0
M  V30 822 H 75.9072 -1.41166 0.284259 0
M  V30 823 H 77.8602 -3.87261 -1.66153 0
M  V30 824 H 76.5842 -2.65377 -1.90375 0
M  V30 825 H 75.2432 -3.6659 -0.0267361 0
M  V30 826 H 74.8912 -4.43031 -2.38185 0
M  V30 827 H 74.5912 -5.74777 -1.22085 0
M  V30 828 H 76.1152 -5.71396 -2.15266 0
M  V30 829 H 77.5292 -5.73177 0.118704 0
M  V30 830 H 75.9262 -5.93566 0.88317 0
M  V30 831 H 76.9962 -4.63285 1.43162 0
M  V30 832 N 78.3393 -0.321999 -1.54275 0
M  V30 833 C 79.2863 0.544664 -2.24281 0
M  V30 834 C 80.2563 1.1129 -1.23303 0
M  V30 835 O 81.4413 1.15354 -1.51981 0
M  V30 836 C 78.5813 1.70045 -3.00298 0
M  V30 837 C 77.6943 1.16159 -4.1609 0
M  V30 838 C 76.8293 2.28293 -4.79641 0
M  V30 839 C 75.8683 1.71648 -5.8754 0
M  V30 840 N 75.0053 2.77438 -6.44959 0
M  V30 841 H 79.8453 -0.0588907 -2.97942 0
M  V30 842 H 77.3823 -0.0408345 -1.47043 0
M  V30 843 H 79.3403 2.38054 -3.42616 0
M  V30 844 H 77.9703 2.27531 -2.28975 0
M  V30 845 H 77.0223 0.373092 -3.78566 0
M  V30 846 H 78.3343 0.707087 -4.93763 0
M  V30 847 H 77.4883 3.0421 -5.2492 0
M  V30 848 H 76.2273 2.77079 -4.01346 0
M  V30 849 H 75.2323 0.942282 -5.41665 0
M  V30 850 H 76.4573 1.23741 -6.67731 0
M  V30 851 H 74.4033 3.25519 -5.69538 0
M  V30 852 H 74.3203 2.36547 -7.1804 0
M  V30 853 H 75.5883 3.53189 -6.94894 0
M  V30 854 N 79.8174 1.5752 -0.0501392 0
M  V30 855 C 80.7274 2.14952 0.939827 0
M  V30 856 C 81.7434 1.10706 1.34239 0
M  V30 857 O 82.9194 1.42869 1.41952 0
M  V30 858 C 79.9844 2.68232 2.19665 0
M  V30 859 C 79.0454 3.87272 1.85253 0
M  V30 860 C 78.2784 4.38002 3.04943 0
M  V30 861 O 78.5014 3.87811 4.18281 0
M  V30 862 O 77.4354 5.29602 2.86017 0
M  V30 863 H 81.2614 2.9986 0.481392 0
M  V30 864 H 78.8464 1.4841 0.171699 0
M  V30 865 H 80.7284 3.02475 2.93406 0
M  V30 866 H 79.4034 1.86395 2.64648 0
M  V30 867 H 78.3104 3.5792 1.0883 0
M  V30 868 H 79.6434 4.70336 1.4507 0
M  V30 869 N 81.2955 -0.223234 1.56011 0
M  V30 870 C 82.2455 -1.28008 1.88674 0
M  V30 871 C 83.2295 -1.42369 0.749663 0
M  V30 872 O 84.4215 -1.45212 1.01205 0
M  V30 873 C 81.5505 -2.63084 2.20548 0
M  V30 874 C 80.6365 -2.52632 3.40643 0
M  V30 875 N 81.0275 -2.11829 4.59306 0
M  V30 876 C 79.3255 -2.83594 3.44224 0
M  V30 877 C 80.0265 -2.12587 5.41463 0
M  V30 878 N 79.0025 -2.5301 4.81131 0
M  V30 879 H 82.8045 -0.955487 2.77935 0
M  V30 880 H 80.3185 -0.431801 1.56554 0
M  V30 881 H 82.3155 -3.39385 2.42122 0
M  V30 882 H 80.9755 -2.96391 1.32599 0
M  V30 883 H 81.9865 -1.82988 4.84496 0
M  V30 884 H 78.6635 -3.21284 2.66614 0
M  V30 885 H 80.0535 -1.83179 6.46448 0
M  V30 886 N 82.7736 -1.49793 -0.48987 0
M  V30 887 C 84.1846 -1.52914 -1.07118 0
M  V30 888 C 84.5356 -0.321738 -1.93544 0
M  V30 889 O 83.6606 0.567338 -2.08831 0
M  V30 890 C 84.2556 -2.771 -1.94938 0
M  V30 891 C 82.8146 -2.82963 -2.48212 0
M  V30 892 C 81.9616 -2.46972 -1.26096 0
M  V30 893 H 84.9126 -1.56329 -0.273289 0
M  V30 894 H 84.9336 -2.57892 -2.79771 0
M  V30 895 H 84.4456 -3.64959 -1.32009 0
M  V30 896 H 82.5466 -1.99411 -3.14748 0
M  V30 897 H 82.6596 -3.85406 -2.84603 0
M  V30 898 H 81.0236 -1.98994 -1.58976 0
M  V30 899 H 81.8066 -3.37118 -0.648581 0
M  V30 900 N 84.2517 0.741722 -1.39055 0
M  V30 901 C 85.5287 1.49252 -1.26425 0
M  V30 902 C 85.9087 2.10705 0.129144 0
M  V30 903 O 85.2567 1.98045 1.13976 0
M  V30 904 C 85.4667 2.54934 -2.38347 0
M  V30 905 C 86.8147 3.21506 -2.77343 0
M  V30 906 O 87.8387 2.65245 -2.37747 0
M  V30 907 O 86.6977 4.23294 -3.45665 0
M  V30 908 H 83.7917 0.662451 -0.495064 0
M  V30 909 H 86.3377 0.776121 -1.50912 0
M  V30 910 H 85.1097 2.07857 -3.31529 0
M  V30 911 H 84.7327 3.34141 -2.15489 0
M  V30 912 N 85.7298 1.2412 0.971189 0
M  V30 913 C 86.6928 1.03156 2.04674 0
M  V30 914 C 87.6928 -0.00990322 1.60797 0
M  V30 915 O 88.8828 0.230729 1.72665 0
M  V30 916 C 86.0148 0.562765 3.36223 0
M  V30 917 H 87.2078 1.98614 2.24705 0
M  V30 918 H 84.7608 1.06293 1.14593 0
M  V30 919 H 85.4958 -0.395176 3.21883 0
M  V30 920 H 85.2808 1.31441 3.69413 0
M  V30 921 H 86.7708 0.437015 4.15307 0
M  V30 922 N 87.2079 -1.17134 1.05439 0
M  V30 923 C 88.4539 -1.87979 0.776872 0
M  V30 924 C 88.8089 -1.7965 -0.688751 0
M  V30 925 O 88.1019 -1.19535 -1.4974 0
M  V30 926 C 88.2959 -3.36833 1.19491 0
M  V30 927 C 88.1249 -3.59653 2.69963 0
M  V30 928 C 86.8949 -3.76234 3.37307 0
M  V30 929 C 89.0929 -3.59091 3.68182 0
M  V30 930 N 87.0749 -3.86922 4.76618 0
M  V30 931 C 88.4459 -3.75659 4.93235 0
M  V30 932 C 90.5009 -3.42255 3.61616 0
M  V30 933 C 89.2039 -3.77133 6.12506 0
M  V30 934 C 91.2299 -3.45018 4.8033 0
M  V30 935 C 90.5919 -3.62096 6.04207 0
M  V30 936 H 86.6909 -0.705876 0.336546 0
M  V30 937 H 89.2749 -1.40602 1.34682 0
M  V30 938 H 87.4459 -3.82873 0.652884 0
M  V30 939 H 89.1779 -3.95305 0.866966 0
M  V30 940 H 85.9329 -3.76193 2.87708 0
M  V30 941 H 86.3569 -3.96055 5.49062 0
M  V30 942 H 90.9989 -3.27986 2.66805 0
M  V30 943 H 88.7169 -3.90186 7.07659 0
M  V30 944 H 92.3029 -3.33246 4.76905 0
M  V30 945 H 91.1829 -3.64142 6.94529 0
M  V30 946 N 88.686 -0.835752 -1.33615 0
M  V30 947 C 89.914 -0.443344 -2.02094 0
M  V30 948 C 90.329 0.954522 -1.62894 0
M  V30 949 O 89.686 1.61982 -0.840723 0
M  V30 950 C 89.737 -0.550775 -3.5728 0
M  V30 951 O 89.458 -1.89356 -3.95065 0
M  V30 952 C 90.959 -0.154919 -4.43029 0
M  V30 953 H 88.179 -0.176359 -0.647409 0
M  V30 954 H 90.723 -1.12746 -1.70612 0
M  V30 955 H 88.878 0.0853997 -3.87306 0
M  V30 956 H 89.292 -1.87687 -4.89769 0
M  V30 957 H 90.766 -0.281144 -5.51284 0
M  V30 958 H 91.243 0.902863 -4.2982 0
M  V30 959 H 91.849 -0.765404 -4.18356 0
M  V30 960 N 90.1641 1.46063 -0.591896 0
M  V30 961 C 91.5801 1.57561 -0.254288 0
M  V30 962 C 91.7801 1.58565 1.24336 0
M  V30 963 O 90.8361 1.50753 2.02558 0
M  V30 964 C 92.1491 2.86549 -0.911611 0
M  V30 965 C 93.6971 3.00197 -0.886059 0
M  V30 966 C 94.1721 4.31933 -1.5231 0
M  V30 967 N 95.6631 4.38654 -1.48786 0
M  V30 968 C 96.3981 5.39222 -1.95006 0
M  V30 969 N 95.8941 6.46414 -2.49241 0
M  V30 970 N 97.6871 5.3048 -1.85868 0
M  V30 971 H 89.8381 1.43655 -1.56451 0
M  V30 972 H 92.1011 0.68583 -0.654478 0
M  V30 973 H 91.8071 2.91651 -1.96551 0
M  V30 974 H 91.6811 3.74794 -0.425368 0
M  V30 975 H 94.0681 2.9467 0.159246 0
M  V30 976 H 94.1491 2.13403 -1.41041 0
M  V30 977 H 93.7931 4.38217 -2.56765 0
M  V30 978 H 93.7231 5.17516 -0.973891 0
M  V30 979 H 96.2141 3.61793 -1.09151 0
M  V30 980 H 96.5271 7.19376 -2.82344 0
M  V30 981 H 94.8721 6.47208 -2.53272 0
M  V30 982 H 98.0631 4.45643 -1.43248 0
M  V30 983 H 98.2361 6.08711 -2.22204 0
M  V30 984 N 91.6422 0.330177 1.54103 0
M  V30 985 C 92.8882 -0.270806 2.00984 0
M  V30 986 C 93.2212 -1.51265 1.21789 0
M  V30 987 O 92.4962 -1.92142 0.301927 0
M  V30 988 C 92.7792 -0.598339 3.55094 0
M  V30 989 C 92.6322 0.654674 4.4501 0
M  V30 990 C 93.9512 -1.41334 4.16789 0
M  V30 991 H 91.0702 -0.0969531 0.730595 0
M  V30 992 H 93.7122 0.448066 1.84641 0
M  V30 993 H 91.8622 -1.21078 3.69151 0
M  V30 994 H 93.5342 1.29285 4.42813 0
M  V30 995 H 91.7772 1.28224 4.14416 0
M  V30 996 H 92.4482 0.380944 5.50684 0
M  V30 997 H 94.9242 -0.895597 4.06347 0
M  V30 998 H 93.8002 -1.61127 5.24718 0
M  V30 999 H 94.0612 -2.41146 3.70541 0
M  V30 1000 N 93.1203 -1.57491 0.0584922 0
M  V30 1001 C 94.3973 -1.84346 -0.653918 0
M  V30 1002 C 94.7773 -0.948355 -1.88599 0
M  V30 1003 O 94.1253 -0.0112403 -2.28497 0
M  V30 1004 C 94.3353 -3.34239 -1.00425 0
M  V30 1005 C 95.6833 -4.01431 -1.38342 0
M  V30 1006 O 96.7073 -3.38907 -1.09637 0
M  V30 1007 O 95.5663 -5.11683 -1.91943 0
M  V30 1008 H 92.6603 -0.761112 -0.323478 0
M  V30 1009 H 95.2063 -1.6947 0.0884125 0
M  V30 1010 H 93.9783 -3.91089 -0.128625 0
M  V30 1011 H 93.6013 -3.54329 -1.80378 0
M  V30 1012 N 94.5984 0.214957 -1.56127 0
M  V30 1013 C 95.8264 0.955092 -1.83536 0
M  V30 1014 C 96.2414 1.77677 -0.638472 0
M  V30 1015 O 95.5984 1.78219 0.392968 0
M  V30 1016 C 95.6494 1.86734 -3.09536 0
M  V30 1017 O 95.3704 1.07887 -4.24608 0
M  V30 1018 C 96.8714 2.72082 -3.4998 0
M  V30 1019 H 94.0914 0.279611 -0.609966 0
M  V30 1020 H 96.6354 0.228197 -2.03223 0
M  V30 1021 H 94.7904 2.5481 -2.91806 0
M  V30 1022 H 95.2044 1.69872 -4.9623 0
M  V30 1023 H 96.6784 3.31782 -4.41163 0
M  V30 1024 H 97.1554 3.44806 -2.7204 0
M  V30 1025 H 97.7614 2.09409 -3.70173 0
M  V30 1026 N 96.0765 1.50051 0.48192 0
M  V30 1027 C 97.3255 1.59741 1.23149 0
M  V30 1028 C 97.6385 0.298163 1.93314 0
M  V30 1029 O 98.8445 0.273835 2.70116 0
M  V30 1030 C 97.3005 2.81926 2.23708 0
M  V30 1031 C 96.9085 4.18685 1.59396 0
M  V30 1032 C 98.6525 3.00956 2.99375 0
M  V30 1033 C 96.5595 5.3207 2.58178 0
M  V30 1034 H 95.4895 0.594838 0.46334 0
M  V30 1035 H 98.1405 1.76467 0.503169 0
M  V30 1036 H 96.5225 2.58736 2.99786 0
M  V30 1037 H 97.6965 4.52088 0.891811 0
M  V30 1038 H 96.0115 4.05171 0.960503 0
M  V30 1039 H 98.6085 3.82836 3.73283 0
M  V30 1040 H 98.9515 2.12258 3.58123 0
M  V30 1041 H 99.4845 3.24277 2.30411 0
M  V30 1042 H 96.2235 6.22888 2.04184 0
M  V30 1043 H 95.7435 5.03098 3.26577 0
M  V30 1044 H 97.4225 5.62196 3.20225 0
M  V30 1045 N 97.5546 -0.734337 1.39446 0
M  V30 1046 C 98.4846 -1.86155 1.40955 0
M  V30 1047 C 99.4656 -1.67898 0.272827 0
M  V30 1048 O 100.651 -1.88207 0.478743 0
M  V30 1049 C 97.7806 -3.23912 1.25294 0
M  V30 1050 C 96.7346 -3.56808 2.36373 0
M  V30 1051 C 96.0606 -4.93508 2.058 0
M  V30 1052 C 97.3606 -3.59713 3.78687 0
M  V30 1053 H 99.0546 -1.8515 2.35287 0
M  V30 1054 H 96.6006 -0.889367 1.13253 0
M  V30 1055 H 98.5536 -4.02443 1.2497 0
M  V30 1056 H 97.2776 -3.25446 0.274308 0
M  V30 1057 H 95.9366 -2.80606 2.35914 0
M  V30 1058 H 95.5846 -4.91623 1.06374 0
M  V30 1059 H 95.2846 -5.16486 2.80208 0
M  V30 1060 H 96.8086 -5.74396 2.07128 0
M  V30 1061 H 98.2226 -4.2832 3.81071 0
M  V30 1062 H 96.6196 -3.94209 4.52459 0
M  V30 1063 H 97.6896 -2.59504 4.09617 0
M  V30 1064 N 99.0327 -1.24633 -0.964593 0
M  V30 1065 C 99.9427 -1.05859 -2.09359 0
M  V30 1066 C 100.959 0.00148855 -1.74 0
M  V30 1067 O 102.135 -0.197346 -2.00431 0
M  V30 1068 C 99.1997 -0.668879 -3.40187 0
M  V30 1069 C 98.2607 -1.80578 -3.89474 0
M  V30 1070 C 97.4937 -1.43457 -5.14058 0
M  V30 1071 O 97.7167 -0.325775 -5.69469 0
M  V30 1072 O 96.6507 -2.2613 -5.57807 0
M  V30 1073 H 100.477 -2.00516 -2.28094 0
M  V30 1074 H 98.0617 -1.03481 -1.0776 0
M  V30 1075 H 99.9437 -0.463211 -4.18846 0
M  V30 1076 H 98.6187 0.248536 -3.22744 0
M  V30 1077 H 97.5257 -2.06623 -3.11862 0
M  V30 1078 H 98.8587 -2.70208 -4.11398 0
M  V30 1079 N 100.511 1.16574 -1.06058 0
M  V30 1080 C 101.758 1.87047 -0.775873 0
M  V30 1081 C 102.086 1.81562 0.697534 0
M  V30 1082 O 101.341 1.22445 1.52662 0
M  V30 1083 C 101.64 3.36195 -1.21275 0
M  V30 1084 C 101.306 3.6188 -2.68986 0
M  V30 1085 C 99.9678 3.68599 -3.09335 0
M  V30 1086 C 102.32 3.72648 -3.64394 0
M  V30 1087 C 99.6478 3.83584 -4.43937 0
M  V30 1088 C 102 3.89154 -4.98741 0
M  V30 1089 C 100.664 3.94114 -5.3873 0
M  V30 1090 H 99.9338 0.684452 -0.283912 0
M  V30 1091 H 102.581 1.37853 -1.32925 0
M  V30 1092 H 100.886 3.87505 -0.578528 0
M  V30 1093 H 102.583 3.89103 -0.969542 0
M  V30 1094 H 99.1728 3.57281 -2.36744 0
M  V30 1095 H 103.357 3.66769 -3.34356 0
M  V30 1096 H 98.6128 3.85677 -4.74409 0
M  V30 1097 H 102.787 3.96427 -5.72554 0
M  V30 1098 H 100.414 4.05478 -6.43033 0
M  V30 1099 N 101.989 0.842826 1.3317 0
M  V30 1100 C 103.214 0.453129 2.02389 0
M  V30 1101 C 103.639 -0.939105 1.6298 0
M  V30 1102 O 102.997 -1.61472 0.8244 0
M  V30 1103 C 103.045 0.586094 3.55805 0
M  V30 1104 O 102.149 -0.386029 4.10589 0
M  V30 1105 H 101.49 0.183664 0.638094 0
M  V30 1106 H 104.02 1.13875 1.69981 0
M  V30 1107 H 104.03 0.469209 4.05293 0
M  V30 1108 H 102.705 1.6014 3.83833 0
M  V30 1109 H 101.282 -0.226371 3.72212 0
M  V30 1110 N 103.467 -1.45747 0.599634 0
M  V30 1111 C 104.399 -2.28628 -0.161879 0
M  V30 1112 C 105.412 -1.39494 -0.839367 0
M  V30 1113 O 106.601 -1.63941 -0.706089 0
M  V30 1114 C 103.701 -3.15014 -1.24976 0
M  V30 1115 C 102.874 -4.32378 -0.660935 0
M  V30 1116 C 101.933 -5.00033 -1.63869 0
M  V30 1117 O 100.959 -5.57085 -1.1681 0
M  V30 1118 N 102.161 -4.98589 -2.97303 0
M  V30 1119 H 104.926 -2.94624 0.549265 0
M  V30 1120 H 102.487 -1.55847 0.438565 0
M  V30 1121 H 104.479 -3.5714 -1.9035 0
M  V30 1122 H 103.049 -2.5098 -1.86354 0
M  V30 1123 H 102.269 -3.9383 0.170688 0
M  V30 1124 H 103.557 -5.08197 -0.247619 0
M  V30 1125 H 102.955 -4.53514 -3.38145 0
M  V30 1126 H 101.512 -5.44603 -3.58121 0
M  V30 1127 N 104.945 -0.338344 -1.53925 0
M  V30 1128 C 105.893 0.536231 -2.26335 0
M  V30 1129 C 106.887 1.1063 -1.28286 0
M  V30 1130 O 108.093 1.05264 -1.46012 0
M  V30 1131 H 104.468 0.191602 -0.727181 0
M  V30 1132 H 106.439 -0.0965747 -2.98244 0
M  V30 1133 C 105.188 1.67803 -3.04528 0
M  V30 1134 H 104.511 1.24864 -3.79801 0
M  V30 1135 H 105.951 2.26526 -3.58416 0
M  V30 1136 C 104.41 2.60439 -2.13712 0
M  V30 1137 O 104.94 3.6255 -1.72975 0
M  V30 1138 N 103.146 2.29006 -1.78898 0
M  V30 1139 H 102.693 1.46011 -2.12223 0
M  V30 1140 H 102.651 2.91248 -1.18416 0
M  V30 1141 N 106.423 1.57458 -0.0668435 0
M  V30 1142 C 107.356 2.08033 0.93795 0
M  V30 1143 C 108.334 0.984321 1.29421 0
M  V30 1144 O 109.518 1.25736 1.40437 0
M  V30 1145 C 106.645 2.53388 2.24749 0
M  V30 1146 C 105.691 3.74376 2.04315 0
M  V30 1147 S 106.524 5.19303 1.30706 0
M  V30 1148 C 107.68 5.67986 2.62951 0
M  V30 1149 H 107.913 2.92935 0.50759 0
M  V30 1150 H 105.446 1.5371 0.145804 0
M  V30 1151 H 107.404 2.8018 3.00016 0
M  V30 1152 H 106.065 1.68763 2.64911 0
M  V30 1153 H 105.258 4.04083 3.01218 0
M  V30 1154 H 104.86 3.47931 1.37186 0
M  V30 1155 H 107.152 5.74528 3.5906 0
M  V30 1156 H 108.095 6.66955 2.3786 0
M  V30 1157 H 108.503 4.95781 2.69929 0
M  V30 1158 N 107.901 -0.206675 1.56239 0
M  V30 1159 C 108.849 -1.27571 1.94495 0
M  V30 1160 C 109.843 -1.47737 0.828862 0
M  V30 1161 O 111.049 -1.48735 1.0138 0
M  V30 1162 H 107.424 -0.428029 0.6183 0
M  V30 1163 H 109.395 -0.925961 2.8367 0
M  V30 1164 C 108.144 -2.61568 2.29079 0
M  V30 1165 H 107.467 -2.46863 3.14482 0
M  V30 1166 H 108.907 -3.35144 2.5972 0
M  V30 1167 C 107.366 -3.17695 1.12123 0
M  V30 1168 O 107.896 -3.99801 0.390153 0
M  V30 1169 N 106.102 -2.76276 0.901097 0
M  V30 1170 H 105.649 -2.09613 1.49733 0
M  V30 1171 H 105.607 -3.1417 0.120319 0
M  V30 1172 N 109.379 -1.50304 -0.473955 0
M  V30 1173 C 110.607 -1.64902 -1.24959 0
M  V30 1174 C 111.022 -0.331198 -1.85872 0
M  V30 1175 O 110.379 0.68652 -1.69095 0
M  V30 1176 C 110.43 -2.73803 -2.36038 0
M  V30 1177 O 110.151 -4.00477 -1.77624 0
M  V30 1178 C 111.652 -2.99349 -3.26964 0
M  V30 1179 H 108.872 -0.554383 -0.378022 0
M  V30 1180 H 111.416 -1.9651 -0.566054 0
M  V30 1181 H 109.571 -2.44898 -3.00173 0
M  V30 1182 H 109.985 -4.60678 -2.5075 0
M  V30 1183 H 111.459 -3.79217 -4.01121 0
M  V30 1184 H 111.936 -2.10307 -3.85574 0
M  V30 1185 H 112.542 -3.29774 -2.68569 0
M  V30 1186 N 110.857 0.726932 -1.39834 0
M  V30 1187 C 111.804 1.841 -1.39197 0
M  V30 1188 C 112.774 1.642 -0.250502 0
M  V30 1189 O 113.959 1.85494 -0.446846 0
M  V30 1190 C 111.099 3.21697 -1.24919 0
M  V30 1191 C 110.212 3.53247 -2.48678 0
M  V30 1192 C 109.347 4.80289 -2.26928 0
M  V30 1193 C 108.386 5.04707 -3.4632 0
M  V30 1194 N 107.523 6.22956 -3.23836 0
M  V30 1195 H 112.363 1.83979 -2.34427 0
M  V30 1196 H 109.9 0.898876 -1.16442 0
M  V30 1197 H 111.858 4.01137 -1.1465 0
M  V30 1198 H 110.488 3.21076 -0.333153 0
M  V30 1199 H 109.54 2.68447 -2.69519 0
M  V30 1200 H 110.852 3.67205 -3.37582 0
M  V30 1201 H 110.006 5.67725 -2.13947 0
M  V30 1202 H 108.745 4.68519 -1.35431 0
M  V30 1203 H 107.75 4.1573 -3.5979 0
M  V30 1204 H 108.975 5.18357 -4.38729 0
M  V30 1205 H 106.921 6.12459 -2.35011 0
M  V30 1206 H 106.838 6.37539 -4.063 0
M  V30 1207 H 108.106 7.1321 -3.14566 0
M  V30 1208 N 112.336 1.25143 0.95797 0
M  V30 1209 C 113.566 1.12261 1.73439 0
M  V30 1210 C 113.974 -0.326715 1.86358 0
M  V30 1211 O 113.317 -1.2367 1.35836 0
M  V30 1212 C 113.379 1.69966 3.16784 0
M  V30 1213 C 113.043 3.18936 3.27305 0
M  V30 1214 C 114.04 4.15968 3.11877 0
M  V30 1215 C 111.725 3.59083 3.51234 0
M  V30 1216 C 113.719 5.51126 3.20217 0
M  V30 1217 C 111.406 4.9438 3.5921 0
M  V30 1218 C 112.404 5.90211 3.43716 0
M  V30 1219 O 112.092 7.23046 3.51368 0
M  V30 1220 H 111.824 0.392476 0.550399 0
M  V30 1221 H 114.378 1.65927 1.21068 0
M  V30 1222 H 112.608 1.10744 3.70503 0
M  V30 1223 H 114.297 1.52232 3.76272 0
M  V30 1224 H 115.063 3.86292 2.93264 0
M  V30 1225 H 110.942 2.84989 3.62356 0
M  V30 1226 H 114.486 6.25905 3.0804 0
M  V30 1227 H 110.383 5.23723 3.77339 0
M  V30 1228 H 111.151 7.31097 3.6802 0
M  V30 1229 N 113.814 -1.1601 1.06675 0
M  V30 1230 C 115.044 -1.90251 0.805497 0
M  V30 1231 C 115.452 -1.77891 -0.64431 0
M  V30 1232 O 114.795 -1.12383 -1.45313 0
M  V30 1233 C 114.857 -3.41419 1.12576 0
M  V30 1234 C 114.521 -3.77564 2.57477 0
M  V30 1235 C 115.518 -3.79161 3.55715 0
M  V30 1236 C 113.203 -4.08079 2.92877 0
M  V30 1237 C 115.197 -4.10767 4.8739 0
M  V30 1238 C 112.884 -4.39351 4.24751 0
M  V30 1239 C 113.882 -4.40675 5.21818 0
M  V30 1240 O 113.57 -4.71202 6.51325 0
M  V30 1241 H 113.302 -0.610018 0.291297 0
M  V30 1242 H 115.856 -1.47958 1.4247 0
M  V30 1243 H 114.086 -3.84079 0.449503 0
M  V30 1244 H 115.775 -3.9694 0.84814 0
M  V30 1245 H 116.541 -3.55693 3.29708 0
M  V30 1246 H 112.42 -4.06211 2.17976 0
M  V30 1247 H 115.964 -4.11715 5.63148 0
M  V30 1248 H 111.861 -4.62285 4.50514 0
M  V30 1249 H 112.629 -4.88996 6.56373 0
M  V30 1250 N 115.292 -0.849877 -1.32721 0
M  V30 1251 C 116.54 -0.450032 -1.97026 0
M  V30 1252 C 116.861 0.996604 -1.67609 0
M  V30 1253 O 116.131 1.6958 -0.980786 0
M  V30 1254 H 114.711 -0.163426 -0.728904 0
M  V30 1255 H 117.373 -1.08526 -1.6189 0
M  V30 1256 H 116.469 -0.591146 -3.0645 0
M  V30 1257 N 116.77 1.45427 -0.607355 0
M  V30 1258 C 117.7 2.3329 0.0989352 0
M  V30 1259 C 118.681 1.46816 0.859007 0
M  V30 1260 O 119.866 1.75588 0.829604 0
M  V30 1261 C 116.996 3.29518 1.09705 0
M  V30 1262 C 115.95 4.25626 0.450206 0
M  V30 1263 C 115.276 5.11542 1.55655 0
M  V30 1264 C 116.576 5.18505 -0.628455 0
M  V30 1265 H 118.27 2.92595 -0.634716 0
M  V30 1266 H 115.816 1.40696 -0.306681 0
M  V30 1267 H 117.769 3.89855 1.59971 0
M  V30 1268 H 116.493 2.68372 1.86129 0
M  V30 1269 H 115.152 3.66586 -0.0315886 0
M  V30 1270 H 114.8 4.46765 2.31107 0
M  V30 1271 H 114.5 5.76647 1.12925 0
M  V30 1272 H 116.024 5.74748 2.06148 0
M  V30 1273 H 117.438 5.72916 -0.209877 0
M  V30 1274 H 115.835 5.92085 -0.977489 0
M  V30 1275 H 116.905 4.60948 -1.50514 0
M  V30 1276 N 118.248 0.346503 1.53744 0
M  V30 1277 C 119.18 -0.543316 2.22667 0
M  V30 1278 C 120.193 -1.06159 1.23427 0
M  V30 1279 O 121.382 -0.971235 1.49764 0
M  V30 1280 C 118.482 -1.76076 2.89569 0
M  V30 1281 C 117.655 -1.37727 4.15151 0
M  V30 1282 C 116.714 -2.45471 4.65436 0
M  V30 1283 O 115.74 -2.08655 5.29577 0
M  V30 1284 N 116.942 -3.7677 4.41616 0
M  V30 1285 H 119.707 0.0469703 2.99663 0
M  V30 1286 H 117.268 0.170766 1.60997 0
M  V30 1287 H 119.26 -2.47593 3.20125 0
M  V30 1288 H 117.83 -2.25835 2.16142 0
M  V30 1289 H 117.05 -0.492746 3.91108 0
M  V30 1290 H 118.338 -1.09708 4.96832 0
M  V30 1291 H 117.736 -4.09467 3.90325 0
M  V30 1292 H 116.293 -4.44448 4.7677 0
M  V30 1293 N 119.726 -1.57421 0.075193 0
M  V30 1294 C 120.975 -1.92794 -0.592731 0
M  V30 1295 C 121.288 -0.957478 -1.70563 0
M  V30 1296 O 122.494 -1.20417 -2.43335 0
M  V30 1297 C 120.95 -3.42495 -1.10569 0
M  V30 1298 C 120.558 -4.47994 -0.0236121 0
M  V30 1299 C 122.302 -3.86864 -1.74748 0
M  V30 1300 C 120.209 -5.88829 -0.550803 0
M  V30 1301 H 119.139 -0.719591 -0.225177 0
M  V30 1302 H 121.79 -1.82902 0.147978 0
M  V30 1303 H 120.172 -3.47471 -1.89947 0
M  V30 1304 H 121.346 -4.54637 0.751099 0
M  V30 1305 H 119.661 -4.13113 0.522159 0
M  V30 1306 H 122.258 -4.8947 -2.15229 0
M  V30 1307 H 122.601 -3.24417 -2.60882 0
M  V30 1308 H 123.134 -3.84504 -1.01986 0
M  V30 1309 H 119.873 -6.54929 0.273457 0
M  V30 1310 H 119.393 -5.85698 -1.29296 0
M  V30 1311 H 121.072 -6.38811 -1.02613 0
M  V30 1312 N 121.204 0.198386 -1.56346 0
M  V30 1313 C 122.134 1.24865 -1.9731 0
M  V30 1314 C 123.115 1.47651 -0.844576 0
M  V30 1315 O 124.3 1.59444 -1.10866 0
M  V30 1316 C 121.43 2.59358 -2.30977 0
M  V30 1317 C 120.384 2.5119 -3.46537 0
M  V30 1318 C 119.71 3.89926 -3.65871 0
M  V30 1319 C 121.01 2.03977 -4.80823 0
M  V30 1320 H 122.704 0.908252 -2.85291 0
M  V30 1321 H 120.25 0.435462 -1.37258 0
M  V30 1322 H 122.203 3.33011 -2.58228 0
M  V30 1323 H 120.927 2.95132 -1.39874 0
M  V30 1324 H 119.586 1.79993 -3.19371 0
M  V30 1325 H 119.234 4.23046 -2.72105 0
M  V30 1326 H 118.934 3.85336 -4.4361 0
M  V30 1327 H 120.458 4.65205 -3.95495 0
M  V30 1328 H 121.872 2.67386 -5.07127 0
M  V30 1329 H 120.269 2.10397 -5.62008 0
M  V30 1330 H 121.339 0.992861 -4.74626 0
M  V30 1331 N 122.682 1.50554 0.465978 0
M  V30 1332 C 123.592 1.72585 1.58907 0
M  V30 1333 C 124.608 0.60911 1.6299 0
M  V30 1334 O 125.784 0.88804 1.80765 0
M  V30 1335 C 122.849 1.81995 2.95091 0
M  V30 1336 C 121.91 3.05751 3.01355 0
M  V30 1337 C 121.143 3.14702 4.31043 0
M  V30 1338 O 121.366 2.30313 5.21835 0
M  V30 1339 O 120.3 4.07468 4.43005 0
M  V30 1340 H 124.126 2.67799 1.43239 0
M  V30 1341 H 121.711 1.34711 0.646013 0
M  V30 1342 H 123.593 1.90335 3.75966 0
M  V30 1343 H 122.268 0.899659 3.10947 0
M  V30 1344 H 121.175 3.02908 2.19539 0
M  V30 1345 H 122.508 3.97375 2.90437 0
M  V30 1346 N 124.16 -0.719506 1.40217 0
M  V30 1347 C 125.108 -1.85493 1.40339 0
M  V30 1348 C 126.102 -1.66995 0.284415 0
M  V30 1349 O 127.308 -1.74148 0.455252 0
M  V30 1350 H 123.683 -0.610857 0.438586 0
M  V30 1351 H 125.654 -1.82506 2.36081 0
M  V30 1352 C 124.403 -3.23321 1.27901 0
M  V30 1353 H 123.726 -3.38159 2.1328 0
M  V30 1354 H 125.166 -4.02914 1.32045 0
M  V30 1355 C 123.625 -3.36898 -0.0111355 0
M  V30 1356 O 124.155 -3.89674 -0.975538 0
M  V30 1357 N 122.361 -2.90492 -0.0793393 0
M  V30 1358 H 121.908 -2.47731 0.706183 0
M  V30 1359 H 121.866 -2.99955 -0.942038 0
M  V30 1360 N 125.638 -1.25649 -0.95132 0
M  V30 1361 C 126.884 -1.10757 -1.69884 0
M  V30 1362 C 127.217 0.350061 -1.91019 0
M  V30 1363 O 126.492 1.25783 -1.48354 0
M  V30 1364 C 126.775 -1.86606 -3.07978 0
M  V30 1365 C 126.628 -3.40217 -2.94232 0
M  V30 1366 C 127.947 -1.65182 -4.07925 0
M  V30 1367 H 125.066 -0.40374 -0.616574 0
M  V30 1368 H 127.708 -1.54521 -1.10558 0
M  V30 1369 H 125.858 -1.49409 -3.58621 0
M  V30 1370 H 127.53 -3.87108 -2.50889 0
M  V30 1371 H 125.773 -3.67759 -2.30078 0
M  V30 1372 H 126.444 -3.88505 -3.92133 0
M  V30 1373 H 128.92 -1.9757 -3.66204 0
M  V30 1374 H 127.796 -2.20683 -5.02583 0
M  V30 1375 H 128.057 -0.593933 -4.38092 0
M  V30 1376 N 127.117 1.15442 -1.07289 0
M  V30 1377 C 128.366 1.85557 -0.790669 0
M  V30 1378 C 128.679 1.83186 0.685739 0
M  V30 1379 O 129.885 2.48977 1.0827 0
M  V30 1380 C 128.341 3.33038 -1.36433 0
M  V30 1381 C 127.949 3.43856 -2.8717 0
M  V30 1382 C 129.693 4.0834 -1.1601 0
M  V30 1383 C 127.6 4.85482 -3.3773 0
M  V30 1384 H 126.53 0.695122 -0.292098 0
M  V30 1385 H 129.181 1.30219 -1.29287 0
M  V30 1386 H 127.563 3.88043 -0.789864 0
M  V30 1387 H 128.737 2.98961 -3.50655 0
M  V30 1388 H 127.052 2.81998 -3.06376 0
M  V30 1389 H 129.649 5.12859 -1.51262 0
M  V30 1390 H 129.992 4.16182 -0.0991007 0
M  V30 1391 H 130.525 3.59603 -1.70089 0
M  V30 1392 H 127.264 4.82823 -4.43353 0
M  V30 1393 H 126.784 5.30961 -2.78999 0
M  V30 1394 H 128.463 5.54335 -3.33648 0
M  V30 1395 N 128.595 0.856903 1.32268 0
M  V30 1396 C 129.542 0.301172 2.28827 0
M  V30 1397 C 130.512 -0.593104 1.5515 0
M  V30 1398 O 131.697 -0.527537 1.83362 0
M  V30 1399 C 128.837 -0.502523 3.41422 0
M  V30 1400 C 127.95 0.417797 4.29975 0
M  V30 1401 C 127.085 -0.398749 5.29701 0
M  V30 1402 C 126.124 0.518827 6.09897 0
M  V30 1403 N 125.261 -0.260674 7.01616 0
M  V30 1404 H 130.101 1.12983 2.75751 0
M  V30 1405 H 127.638 0.568582 1.35667 0
M  V30 1406 H 129.596 -0.984141 4.05426 0
M  V30 1407 H 128.226 -1.29599 2.95642 0
M  V30 1408 H 127.278 1.01781 3.66531 0
M  V30 1409 H 128.59 1.12191 4.86019 0
M  V30 1410 H 127.744 -0.943435 5.9932 0
M  V30 1411 H 126.483 -1.13622 4.7428 0
M  V30 1412 H 125.488 1.07538 5.39181 0
M  V30 1413 H 126.713 1.25495 6.67404 0
M  V30 1414 H 124.659 -0.981198 6.4862 0
M  V30 1415 H 124.576 0.384364 7.55022 0
M  V30 1416 H 125.844 -0.787014 7.75517 0
M  V30 1417 N 130.073 -1.45103 0.615059 0
M  V30 1418 C 131.301 -2.06553 0.11977 0
M  V30 1419 C 131.716 -1.45842 -1.19898 0
M  V30 1420 O 131.073 -0.575325 -1.73194 0
M  V30 1421 C 131.124 -3.61495 -0.018364 0
M  V30 1422 O 130.845 -4.19942 1.24822 0
M  V30 1423 C 132.346 -4.39947 -0.544237 0
M  V30 1424 H 129.566 -0.667096 0.0722739 0
M  V30 1425 H 132.11 -1.8623 0.84491 0
M  V30 1426 H 130.265 -3.81135 -0.693865 0
M  V30 1427 H 130.679 -5.13204 1.0827 0
M  V30 1428 H 132.153 -5.48838 -0.589953 0
M  V30 1429 H 132.63 -4.10255 -1.56805 0
M  V30 1430 H 133.236 -4.25188 0.0974703 0
M  V30 1431 N 131.551 -0.354651 -1.53558 0
M  V30 1432 C 132.967 -0.00315426 -1.596 0
M  V30 1433 C 133.167 1.47741 -1.37021 0
M  V30 1434 O 132.223 2.23759 -1.16996 0
M  V30 1435 C 133.536 -0.44929 -2.97325 0
M  V30 1436 C 135.084 -0.402578 -3.104 0
M  V30 1437 C 135.559 -0.824355 -4.5052 0
M  V30 1438 N 137.05 -0.778979 -4.56603 0
M  V30 1439 C 137.785 -1.07715 -5.63192 0
M  V30 1440 N 137.281 -1.44405 -6.77583 0
M  V30 1441 N 139.074 -1.00066 -5.53121 0
M  V30 1442 H 131.225 -1.31893 -1.66487 0
M  V30 1443 H 133.488 -0.538388 -0.780284 0
M  V30 1444 H 133.194 -1.48202 -3.1895 0
M  V30 1445 H 133.068 0.169772 -3.76818 0
M  V30 1446 H 135.455 0.621004 -2.88492 0
M  V30 1447 H 135.536 -1.05699 -2.32941 0
M  V30 1448 H 135.18 -1.846 -4.73165 0
M  V30 1449 H 135.11 -0.147304 -5.26394 0
M  V30 1450 H 137.601 -0.508528 -3.74463 0
M  V30 1451 H 137.914 -1.65612 -7.54846 0
M  V30 1452 H 136.259 -1.4826 -6.79002 0
M  V30 1453 H 139.45 -0.713293 -4.62633 0
M  V30 1454 H 139.623 -1.23638 -6.36096 0
M  V30 1455 N 133.029 1.57378 -0.0835403 0
M  V30 1456 C 134.275 1.95025 0.577664 0
M  V30 1457 C 134.63 0.964049 1.66505 0
M  V30 1458 O 133.923 -0.0118235 1.91596 0
M  V30 1459 C 134.117 3.37063 1.1884 0
M  V30 1460 C 133.946 4.49409 0.16171 0
M  V30 1461 C 132.716 5.04642 -0.257756 0
M  V30 1462 C 134.914 5.10722 -0.605634 0
M  V30 1463 N 132.896 6.00537 -1.27393 0
M  V30 1464 C 134.267 6.02225 -1.47395 0
M  V30 1465 C 136.322 4.93501 -0.660418 0
M  V30 1466 C 135.025 6.78355 -2.39221 0
M  V30 1467 C 137.051 5.70283 -1.56623 0
M  V30 1468 C 136.413 6.61444 -2.4222 0
M  V30 1469 H 132.512 0.760512 0.182058 0
M  V30 1470 H 135.096 1.94013 -0.163419 0
M  V30 1471 H 133.267 3.3879 1.89936 0
M  V30 1472 H 134.999 3.61917 1.81103 0
M  V30 1473 H 131.754 4.73428 0.127702 0
M  V30 1474 H 132.178 6.53184 -1.77987 0
M  V30 1475 H 136.82 4.22798 -0.0128221 0
M  V30 1476 H 134.538 7.48327 -3.05011 0
M  V30 1477 H 138.124 5.58976 -1.61361 0
M  V30 1478 H 137.004 7.1982 -3.11174 0
M  V30 1479 N 134.507 -0.190092 1.56449 0
M  V30 1480 C 135.454 -1.23557 1.94942 0
M  V30 1481 C 136.424 -1.44972 0.810696 0
M  V30 1482 O 137.609 -1.58023 1.06927 0
M  V30 1483 C 134.749 -2.57416 2.2985 0
M  V30 1484 C 133.862 -2.43537 3.5681 0
M  V30 1485 C 132.997 -3.70134 3.81017 0
M  V30 1486 C 132.036 -3.51109 5.01387 0
M  V30 1487 N 131.173 -4.6973 5.21822 0
M  V30 1488 H 136.013 -0.900304 2.84075 0
M  V30 1489 H 133.55 -0.43318 1.40577 0
M  V30 1490 H 135.508 -3.35409 2.48106 0
M  V30 1491 H 134.138 -2.88975 1.43852 0
M  V30 1492 H 133.19 -1.56816 3.46573 0
M  V30 1493 H 134.502 -2.25415 4.4496 0
M  V30 1494 H 133.656 -4.56566 3.9954 0
M  V30 1495 H 132.395 -3.91215 2.91207 0
M  V30 1496 H 131.4 -2.63063 4.82782 0
M  V30 1497 H 132.625 -3.31468 5.9271 0
M  V30 1498 H 130.571 -4.91065 4.34961 0
M  V30 1499 H 130.488 -4.54452 6.0416 0
M  V30 1500 H 131.756 -5.57499 5.44808 0
M  V30 1501 N 135.985 -1.50799 -0.457987 0
M  V30 1502 C 137.234 -1.6168 -1.20593 0
M  V30 1503 C 137.547 -0.32888 -1.92815 0
M  V30 1504 O 138.753 -0.316773 -2.69646 0
M  V30 1505 C 137.209 -2.8545 -2.19195 0
M  V30 1506 C 136.817 -4.21168 -1.52715 0
M  V30 1507 C 138.561 -3.05681 -2.94549 0
M  V30 1508 C 136.468 -5.3611 -2.4968 0
M  V30 1509 H 135.398 -0.602134 -0.453818 0
M  V30 1510 H 138.049 -1.77245 -0.475031 0
M  V30 1511 H 136.431 -2.63472 -2.95632 0
M  V30 1512 H 137.605 -4.53449 -0.819775 0
M  V30 1513 H 135.92 -4.06648 -0.895922 0
M  V30 1514 H 138.517 -3.88727 -3.67145 0
M  V30 1515 H 138.86 -2.17929 -3.54701 0
M  V30 1516 H 139.393 -3.27901 -2.25223 0
M  V30 1517 H 136.132 -6.26057 -1.94249 0
M  V30 1518 H 135.652 -5.0823 -3.18532 0
M  V30 1519 H 137.331 -5.6722 -3.11241 0
M  V30 1520 N 137.463 0.71206 -1.40597 0
M  V30 1521 C 138.393 1.83889 -1.43899 0
M  V30 1522 C 139.374 1.67442 -0.299504 0
M  V30 1523 O 140.559 1.87421 -0.508624 0
M  V30 1524 C 137.689 3.21877 -1.30431 0
M  V30 1525 C 136.643 3.53002 -2.42019 0
M  V30 1526 C 135.969 4.90172 -2.13626 0
M  V30 1527 C 137.269 3.53643 -3.84362 0
M  V30 1528 H 138.963 1.81383 -2.38203 0
M  V30 1529 H 136.509 0.871237 -1.14654 0
M  V30 1530 H 138.462 4.00404 -1.31357 0
M  V30 1531 H 137.186 3.24968 -0.326049 0
M  V30 1532 H 135.845 2.76818 -2.40349 0
M  V30 1533 H 135.493 4.89869 -1.14182 0
M  V30 1534 H 135.193 5.11962 -2.88389 0
M  V30 1535 H 136.717 5.71028 -2.1624 0
M  V30 1536 H 138.131 4.22203 -3.87837 0
M  V30 1537 H 136.528 3.86961 -4.58673 0
M  V30 1538 H 137.598 2.52954 -4.13693 0
M  V30 1539 N 138.941 1.26152 0.944643 0
M  V30 1540 C 140.352 1.10454 1.50522 0
M  V30 1541 C 140.703 -0.31635 1.93633 0
M  V30 1542 O 139.828 -1.20746 1.79581 0
M  V30 1543 C 140.423 1.99891 2.73549 0
M  V30 1544 C 138.982 1.88348 3.25886 0
M  V30 1545 C 138.129 1.93447 1.9868 0
M  V30 1546 H 141.08 1.39292 0.760489 0
M  V30 1547 H 141.101 1.54477 3.47732 0
M  V30 1548 H 140.613 3.03297 2.42141 0
M  V30 1549 H 138.714 0.878636 3.62092 0
M  V30 1550 H 138.827 2.73696 3.93227 0
M  V30 1551 H 137.191 1.37456 2.14425 0
M  V30 1552 H 137.974 2.98476 1.69607 0
M  V30 1553 N 140.419 -1.14872 1.07899 0
M  V30 1554 C 141.835 -1.37776 0.805606 0
M  V30 1555 C 142.035 -1.92743 -0.587555 0
M  V30 1556 O 141.091 -2.13678 -1.34528 0
M  V30 1557 C 142.404 -2.34361 1.88402 0
M  V30 1558 C 143.952 -2.48012 1.90942 0
M  V30 1559 C 144.427 -3.47893 2.97883 0
M  V30 1560 N 145.918 -3.55433 2.97021 0
M  V30 1561 C 146.653 -4.32553 3.76412 0
M  V30 1562 N 146.149 -5.12959 4.65666 0
M  V30 1563 N 147.942 -4.27697 3.64735 0
M  V30 1564 H 140.093 -0.775365 1.97742 0
M  V30 1565 H 142.356 -0.403521 0.857831 0
M  V30 1566 H 142.062 -2.01098 2.88535 0
M  V30 1567 H 141.936 -3.34206 1.74889 0
M  V30 1568 H 144.323 -2.8057 0.914579 0
M  V30 1569 H 144.404 -1.48147 2.08534 0
M  V30 1570 H 144.048 -3.16069 3.97571 0
M  V30 1571 H 143.978 -4.47527 2.77538 0
M  V30 1572 H 146.469 -2.98048 2.32326 0
M  V30 1573 H 146.782 -5.69065 5.22862 0
M  V30 1574 H 145.127 -5.12245 4.69712 0
M  V30 1575 H 148.318 -3.63949 2.94378 0
M  V30 1576 H 148.491 -4.8755 4.26848 0
M  V30 1577 N 141.898 -0.863906 -1.31812 0
M  V30 1578 C 142.846 -0.30422 -2.30602 0
M  V30 1579 C 143.84 0.577419 -1.59255 0
M  V30 1580 O 145.046 0.464194 -1.73912 0
M  V30 1581 H 141.421 -0.0796877 -0.747766 0
M  V30 1582 H 143.392 -1.15148 -2.75288 0
M  V30 1583 C 142.141 0.484617 -3.44306 0
M  V30 1584 H 141.464 -0.18451 -3.99374 0
M  V30 1585 H 142.904 0.841664 -4.15562 0
M  V30 1586 C 141.363 1.6735 -2.92396 0
M  V30 1587 O 141.893 2.77273 -2.90659 0
M  V30 1588 N 140.099 1.50362 -2.48676 0
M  V30 1589 H 139.646 0.609402 -2.50288 0
M  V30 1590 H 139.604 2.30051 -2.14299 0
M  V30 1591 N 143.376 1.44774 -0.622745 0
M  V30 1592 C 144.308 2.28856 0.125485 0
M  V30 1593 C 145.321 1.40811 0.817069 0
M  V30 1594 O 146.51 1.65044 0.679918 0
M  V30 1595 C 143.61 3.16963 1.19949 0
M  V30 1596 C 142.783 4.33374 0.592064 0
M  V30 1597 C 141.842 5.02577 1.55893 0
M  V30 1598 O 140.868 5.58873 1.07933 0
M  V30 1599 N 142.07 5.03256 2.89334 0
M  V30 1600 H 144.835 2.93713 -0.596068 0
M  V30 1601 H 142.396 1.55129 -0.463303 0
M  V30 1602 H 144.388 3.60123 1.84644 0
M  V30 1603 H 142.958 2.53913 1.82337 0
M  V30 1604 H 142.178 3.93509 -0.233322 0
M  V30 1605 H 143.466 5.08527 0.166738 0
M  V30 1606 H 142.864 4.58836 3.30887 0
M  V30 1607 H 141.421 5.50232 3.49412 0
M  V30 1608 N 144.854 0.36279 1.53368 0
M  V30 1609 C 146.094 -0.227882 2.03126 0
M  V30 1610 C 146.458 -1.4622 1.24434 0
M  V30 1611 O 147.659 -2.12831 1.64184 0
M  V30 1612 C 145.93 -0.515427 3.53664 0
M  V30 1613 S 147.489 -1.08017 4.25297 0
M  V30 1614 H 144.307 -0.0665377 0.70788 0
M  V30 1615 H 146.909 0.50501 1.88865 0
M  V30 1616 H 145.613 0.390436 4.08539 0
M  V30 1617 H 145.144 -1.27747 3.72081 0
M  V30 1618 H 147.159 -2.36462 4.36234 0
M  V30 1619 N 146.332 -1.57332 0.0918853 0
M  V30 1620 C 147.242 -2.17368 -0.882505 0
M  V30 1621 C 148.258 -1.14226 -1.31257 0
M  V30 1622 O 149.434 -1.46582 -1.38115 0
M  V30 1623 C 146.499 -2.73962 -2.12476 0
M  V30 1624 C 145.56 -3.92048 -1.7492 0
M  V30 1625 C 144.793 -4.45933 -2.93223 0
M  V30 1626 O 145.016 -3.98764 -4.07852 0
M  V30 1627 O 143.95 -5.36999 -2.71875 0
M  V30 1628 H 147.776 -3.01031 -0.40172 0
M  V30 1629 H 145.361 -1.48813 -0.132291 0
M  V30 1630 H 147.243 -3.10147 -2.85283 0
M  V30 1631 H 145.918 -1.93347 -2.59613 0
M  V30 1632 H 144.825 -3.6068 -0.993025 0
M  V30 1633 H 146.158 -4.74017 -1.32548 0
M  V30 1634 N 147.81 0.181792 -1.56548 0
M  V30 1635 C 149.058 0.89832 -1.81038 0
M  V30 1636 C 149.379 1.83232 -0.667164 0
M  V30 1637 O 148.649 1.93372 0.313673 0
M  V30 1638 H 147.229 0.33471 -0.667816 0
M  V30 1639 H 149.891 0.184116 -1.94028 0
M  V30 1640 H 148.987 1.4815 -2.74696 0
M  V30 1641 N 149.288 1.51039 0.449983 0
M  V30 1642 C 150.537 1.62317 1.19733 0
M  V30 1643 C 150.85 0.339101 1.92638 0
M  V30 1644 O 152.056 0.331069 2.69474 0
M  V30 1645 C 150.512 2.86608 2.17678 0
M  V30 1646 C 150.12 4.21972 1.50479 0
M  V30 1647 C 151.864 3.07239 2.92924 0
M  V30 1648 C 149.771 5.37426 2.46834 0
M  V30 1649 H 148.701 0.604532 0.450619 0
M  V30 1650 H 151.352 1.77494 0.465625 0
M  V30 1651 H 149.734 2.65037 2.94231 0
M  V30 1652 H 150.908 4.53878 0.795716 0
M  V30 1653 H 149.223 4.07117 0.874344 0
M  V30 1654 H 151.82 3.90668 3.65079 0
M  V30 1655 H 152.163 2.19807 3.5354 0
M  V30 1656 H 152.696 3.29091 2.23481 0
M  V30 1657 H 149.435 6.27079 1.90926 0
M  V30 1658 H 148.955 5.09912 3.15832 0
M  V30 1659 H 150.634 5.68862 3.08228 0
M  V30 1660 N 150.766 -0.704594 1.40972 0
M  V30 1661 C 151.713 -1.81862 1.42109 0
M  V30 1662 C 152.683 -1.63781 0.276593 0
M  V30 1663 O 153.868 -1.84759 0.4763 0
M  V30 1664 C 151.008 -3.19669 1.30022 0
M  V30 1665 C 150.121 -3.49246 2.54267 0
M  V30 1666 C 149.256 -4.76618 2.3454 0
M  V30 1667 C 148.295 -4.99133 3.54306 0
M  V30 1668 N 147.432 -6.17726 3.33706 0
M  V30 1669 H 152.272 -1.80226 2.37324 0
M  V30 1670 H 149.809 -0.880238 1.17857 0
M  V30 1671 H 151.767 -3.99263 1.21018 0
M  V30 1672 H 150.397 -3.20506 0.384192 0
M  V30 1673 H 149.449 -2.64125 2.73756 0
M  V30 1674 H 150.761 -3.61788 3.43381 0
M  V30 1675 H 149.915 -5.64249 2.22952 0
M  V30 1676 H 148.654 -4.66305 1.42867 0
M  V30 1677 H 147.659 -4.09953 3.66359 0
M  V30 1678 H 148.884 -5.11311 4.4692 0
M  V30 1679 H 146.83 -6.08642 2.44725 0
M  V30 1680 H 146.747 -6.30995 4.16391 0
M  V30 1681 H 148.015 -7.08115 3.25873 0
M  V30 1682 N 152.244 -1.26651 -0.937939 0
M  V30 1683 C 153.191 -1.0849 -2.03712 0
M  V30 1684 C 154.161 0.011033 -1.66096 0
M  V30 1685 O 155.346 -0.149353 -1.90215 0
M  V30 1686 C 152.486 -0.72735 -3.37348 0
M  V30 1687 C 151.599 -1.89986 -3.87981 0
M  V30 1688 C 150.734 -1.48513 -5.10017 0
M  V30 1689 C 149.773 -2.62575 -5.5292 0
M  V30 1690 N 148.91 -2.21762 -6.66158 0
M  V30 1691 H 153.75 -2.02551 -2.18579 0
M  V30 1692 H 151.287 -1.00844 -1.07093 0
M  V30 1693 H 153.245 -0.50092 -4.14182 0
M  V30 1694 H 151.875 0.176298 -3.22318 0
M  V30 1695 H 150.927 -2.23913 -3.07518 0
M  V30 1696 H 152.239 -2.75586 -4.15757 0
M  V30 1697 H 151.393 -1.21934 -5.94321 0
M  V30 1698 H 150.132 -0.60009 -4.83994 0
M  V30 1699 H 149.137 -2.8988 -4.67172 0
M  V30 1700 H 150.362 -3.51685 -5.80943 0
M  V30 1701 H 148.308 -1.35696 -6.41812 0
M  V30 1702 H 148.225 -3.00903 -6.93537 0
M  V30 1703 H 149.493 -1.98403 -7.53828 0
M  V30 1704 N 153.722 1.14298 -1.08507 0
M  V30 1705 C 154.952 1.88945 -0.835663 0
M  V30 1706 C 155.36 1.78894 0.615928 0
M  V30 1707 O 154.703 1.1468 1.43506 0
M  V30 1708 C 154.765 3.39585 -1.17994 0
M  V30 1709 C 154.429 3.7342 -2.63451 0
M  V30 1710 C 155.426 3.73454 -3.61702 0
M  V30 1711 C 153.111 4.03368 -2.99332 0
M  V30 1712 C 155.105 4.02961 -4.93864 0
M  V30 1713 C 152.792 4.32538 -4.31687 0
M  V30 1714 C 153.79 4.32318 -5.28763 0
M  V30 1715 O 153.478 4.6078 -6.58739 0
M  V30 1716 H 153.21 0.605307 -0.300965 0
M  V30 1717 H 155.764 1.45673 -1.44806 0
M  V30 1718 H 153.994 3.83315 -0.51055 0
M  V30 1719 H 155.683 3.9554 -0.911182 0
M  V30 1720 H 156.449 3.50403 -3.35325 0
M  V30 1721 H 152.328 4.02692 -2.24411 0
M  V30 1722 H 155.872 4.02704 -5.69627 0
M  V30 1723 H 151.769 4.55059 -4.57812 0
M  V30 1724 H 152.537 4.78492 -6.64069 0
M  V30 1725 N 155.201 0.870884 1.31352 0
M  V30 1726 C 156.447 0.482987 1.96965 0
M  V30 1727 C 156.78 -0.962462 1.68672 0
M  V30 1728 O 156.055 -1.6779 0.98371 0
M  V30 1729 C 156.338 0.741752 3.52378 0
M  V30 1730 C 156.191 2.2368 3.9024 0
M  V30 1731 C 157.51 0.208838 4.39604 0
M  V30 1732 H 154.629 0.176955 0.715441 0
M  V30 1733 H 157.271 1.09229 1.55464 0
M  V30 1734 H 155.421 0.223149 3.87859 0
M  V30 1735 H 157.093 2.82273 3.64856 0
M  V30 1736 H 155.336 2.70901 3.38814 0
M  V30 1737 H 156.007 2.3685 4.98604 0
M  V30 1738 H 158.483 0.652529 4.10952 0
M  V30 1739 H 157.359 0.419336 5.47296 0
M  V30 1740 H 157.62 -0.889275 4.33064 0
M  V30 1741 N 156.679 -1.44442 0.630414 0
M  V30 1742 C 157.925 -2.02351 0.134816 0
M  V30 1743 C 158.258 -1.4947 -1.23986 0
M  V30 1744 O 157.533 -0.678475 -1.82283 0
M  V30 1745 C 157.816 -3.59898 0.120707 0
M  V30 1746 C 157.669 -4.23063 1.52767 0
M  V30 1747 C 158.988 -4.36585 -0.555127 0
M  V30 1748 H 156.107 -0.73527 0.0504646 0
M  V30 1749 H 158.749 -1.72022 0.806751 0
M  V30 1750 H 156.899 -3.85868 -0.451477 0
M  V30 1751 H 158.571 -4.08202 2.14869 0
M  V30 1752 H 156.814 -3.80586 2.08175 0
M  V30 1753 H 157.485 -5.32071 1.46984 0
M  V30 1754 H 159.961 -4.16044 -0.0685429 0
M  V30 1755 H 158.837 -5.46294 -0.534185 0
M  V30 1756 H 159.098 -4.11138 -1.62535 0
M  V30 1757 N 158.157 -0.370918 -1.53173 0
M  V30 1758 C 159.405 0.216673 -2.00935 0
M  V30 1759 C 159.726 1.48845 -1.25977 0
M  V30 1760 O 158.996 1.92286 -0.374551 0
M  V30 1761 H 157.576 0.0830565 -0.742368 0
M  V30 1762 H 160.238 -0.49838 -1.8842 0
M  V30 1763 H 159.334 0.439893 -3.08984 0
M  V30 1764 N 159.635 1.57281 -0.100228 0
M  V30 1765 C 160.565 2.17328 0.853857 0
M  V30 1766 C 161.546 1.10804 1.2906 0
M  V30 1767 O 162.731 1.38963 1.35657 0
M  V30 1768 C 159.861 2.75772 2.11109 0
M  V30 1769 C 158.815 3.87713 1.81279 0
M  V30 1770 C 158.141 4.32882 3.13874 0
M  V30 1771 C 159.441 5.10677 1.09574 0
M  V30 1772 H 161.135 2.97305 0.353545 0
M  V30 1773 H 158.681 1.43009 0.168612 0
M  V30 1774 H 160.634 3.16433 2.78296 0
M  V30 1775 H 159.358 1.93057 2.63432 0
M  V30 1776 H 158.017 3.476 1.16489 0
M  V30 1777 H 157.665 3.47051 3.64095 0
M  V30 1778 H 157.365 5.08358 2.94696 0
M  V30 1779 H 158.889 4.7618 3.82211 0
M  V30 1780 H 160.303 5.48474 1.66879 0
M  V30 1781 H 158.7 5.91615 1.00557 0
M  V30 1782 H 159.77 4.84835 0.0793299 0
M  V30 1783 N 161.113 -0.173488 1.56642 0
M  V30 1784 C 162.362 -0.888758 1.81063 0
M  V30 1785 C 162.675 -1.83506 0.67712 0
M  V30 1786 O 163.881 -2.59254 0.806206 0
M  V30 1787 C 162.337 -1.63091 3.20826 0
M  V30 1788 C 161.945 -0.728357 4.4204 0
M  V30 1789 C 163.689 -2.33454 3.54541 0
M  V30 1790 C 161.596 -1.47062 5.72823 0
M  V30 1791 H 160.526 -0.335618 0.675186 0
M  V30 1792 H 163.177 -0.141712 1.82952 0
M  V30 1793 H 161.559 -2.42263 3.13248 0
M  V30 1794 H 162.733 0.0262449 4.60793 0
M  V30 1795 H 161.048 -0.134492 4.16183 0
M  V30 1796 H 163.645 -2.89578 4.49498 0
M  V30 1797 H 163.988 -3.08687 2.79317 0
M  V30 1798 H 164.521 -1.61227 3.63663 0
M  V30 1799 H 161.26 -0.760658 6.51072 0
M  V30 1800 H 160.78 -2.1986 5.58052 0
M  V30 1801 H 162.459 -2.01868 6.14702 0
M  V30 1802 N 162.591 -1.51276 -0.441967 0
M  V30 1803 C 163.84 -1.6295 -1.18871 0
M  V30 1804 C 164.153 -0.349312 -1.92456 0
M  V30 1805 O 165.359 -0.345355 -2.69295 0
M  V30 1806 C 163.815 -2.87759 -2.16155 0
M  V30 1807 C 163.423 -4.22764 -1.48239 0
M  V30 1808 C 165.167 -3.08788 -2.91291 0
M  V30 1809 C 163.074 -5.38728 -2.4398 0
M  V30 1810 H 162.004 -0.606913 -0.447406 0
M  V30 1811 H 164.655 -1.77739 -0.456205 0
M  V30 1812 H 163.037 -2.66593 -2.92821 0
M  V30 1813 H 164.211 -4.54293 -0.771635 0
M  V30 1814 H 162.526 -4.07575 -0.852741 0
M  V30 1815 H 165.123 -3.92599 -3.63002 0
M  V30 1816 H 165.466 -2.21679 -3.5237 0
M  V30 1817 H 165.999 -3.30272 -2.21733 0
M  V30 1818 H 162.738 -6.28082 -1.87598 0
M  V30 1819 H 162.258 -5.1158 -3.13123 0
M  V30 1820 H 163.937 -5.70489 -3.05207 0
M  V30 1821 N 164.069 0.697108 -1.41344 0
M  V30 1822 C 165.016 1.81106 -1.43071 0
M  V30 1823 C 165.986 1.63632 -0.285275 0
M  V30 1824 O 167.171 1.84504 -0.486091 0
M  V30 1825 C 164.311 3.18975 -1.31715 0
M  V30 1826 C 163.424 3.47892 -2.56115 0
M  V30 1827 C 162.559 4.75367 -2.37064 0
M  V30 1828 C 161.598 4.97247 -3.56948 0
M  V30 1829 N 160.735 6.15947 -3.36977 0
M  V30 1830 H 165.575 1.78965 -2.38276 0
M  V30 1831 H 163.112 0.873975 -1.18322 0
M  V30 1832 H 165.07 3.98615 -1.23133 0
M  V30 1833 H 163.7 3.20297 -0.401183 0
M  V30 1834 H 162.752 2.62669 -2.75153 0
M  V30 1835 H 164.064 3.59962 -3.45295 0
M  V30 1836 H 163.218 5.63059 -2.25941 0
M  V30 1837 H 161.957 4.65541 -1.45338 0
M  V30 1838 H 160.962 4.08004 -3.68527 0
M  V30 1839 H 162.187 5.08934 -4.49626 0
M  V30 1840 H 160.133 6.07336 -2.47949 0
M  V30 1841 H 160.05 6.28777 -4.19732 0
M  V30 1842 H 161.318 7.06377 -3.29623 0
M  V30 1843 N 165.547 1.27147 0.931209 0
M  V30 1844 C 166.775 1.16082 1.71267 0
M  V30 1845 C 167.19 -0.282772 1.8667 0
M  V30 1846 O 166.547 -1.19283 1.38122 0
M  V30 1847 C 166.598 1.8358 3.11417 0
M  V30 1848 O 166.319 3.22299 2.96741 0
M  V30 1849 C 167.82 1.78597 4.05732 0
M  V30 1850 H 165.04 0.403758 0.535929 0
M  V30 1851 H 167.584 1.67953 1.16671 0
M  V30 1852 H 165.739 1.35623 3.62885 0
M  V30 1853 H 166.153 3.55851 3.85319 0
M  V30 1854 H 167.627 2.30444 5.01597 0
M  V30 1855 H 168.104 0.754564 4.3267 0
M  V30 1856 H 168.71 2.26152 3.60188 0
M  V30 1857 N 167.025 -1.13721 1.09112 0
M  V30 1858 C 168.25 -1.89314 0.847053 0
M  V30 1859 C 168.675 -1.78416 -0.595774 0
M  V30 1860 O 168.033 -1.12942 -1.41823 0
M  V30 1861 C 168.081 -3.3701 1.28284 0
M  V30 1862 O 167.185 -4.10054 0.439267 0
M  V30 1863 H 166.526 -0.588745 0.307044 0
M  V30 1864 H 169.056 -1.43902 1.45442 0
M  V30 1865 H 169.066 -3.87834 1.26683 0
M  V30 1866 H 167.741 -3.4426 2.33363 0
M  V30 1867 H 166.318 -3.69266 0.519312 0
M  V30 1868 N 168.503 -0.877838 -1.30888 0
M  V30 1869 C 169.728 -0.506629 -2.01117 0
M  V30 1870 C 170.153 0.895564 -1.65412 0
M  V30 1871 O 169.511 1.5923 -0.866922 0
M  V30 1872 C 169.559 -0.680223 -3.54126 0
M  V30 1873 O 168.663 0.277033 -4.11468 0
M  V30 1874 H 168.004 -0.200518 -0.633 0
M  V30 1875 H 170.534 -1.18342 -1.66902 0
M  V30 1876 H 170.544 -0.5765 -4.03907 0
M  V30 1877 H 169.219 -1.70261 -3.79452 0
M  V30 1878 H 167.796 0.127606 -3.72682 0
M  V30 1879 N 169.982 1.44106 -0.638065 0
M  V30 1880 C 171.259 1.95453 -0.0759321 0
M  V30 1881 C 171.639 1.57984 1.40015 0
M  V30 1882 O 170.987 0.857361 2.11806 0
M  V30 1883 C 171.197 3.47655 -0.306132 0
M  V30 1884 C 172.545 4.24114 -0.203008 0
M  V30 1885 O 173.569 3.55405 -0.237871 0
M  V30 1886 O 172.428 5.46381 -0.113827 0
M  V30 1887 H 169.522 0.826797 0.0183332 0
M  V30 1888 H 172.068 1.54122 -0.710251 0
M  V30 1889 H 170.84 3.68 -1.3301 0
M  V30 1890 H 170.463 3.95949 0.361991 0
M  V30 1891 N 171.46 0.379036 1.52974 0
M  V30 1892 C 172.871 -0.0972525 1.86447 0
M  V30 1893 C 173.222 -1.47027 1.29914 0
M  V30 1894 O 172.347 -2.07135 0.626433 0
M  V30 1895 C 172.942 -0.183248 3.38304 0
M  V30 1896 C 171.501 -0.603812 3.71525 0
M  V30 1897 C 170.648 0.240632 2.76254 0
M  V30 1898 H 173.599 0.597316 1.4703 0
M  V30 1899 H 173.62 -1.00432 3.67006 0
M  V30 1900 H 173.132 0.816191 3.79421 0
M  V30 1901 H 171.233 -1.61099 3.35973 0
M  V30 1902 H 171.346 -0.369086 4.77676 0
M  V30 1903 H 169.71 -0.292548 2.53014 0
M  V30 1904 H 170.493 1.23786 3.20206 0
M  V30 1905 N 172.938 -1.57226 0.108567 0
M  V30 1906 C 174.166 -1.99179 -0.559954 0
M  V30 1907 C 174.581 -0.988022 -1.60884 0
M  V30 1908 O 173.938 0.0205512 -1.82488 0
M  V30 1909 C 173.989 -3.41159 -1.19552 0
M  V30 1910 O 173.71 -4.37694 -0.188577 0
M  V30 1911 C 175.211 -3.98188 -1.94837 0
M  V30 1912 H 172.431 -0.654228 -0.149088 0
M  V30 1913 H 174.975 -2.03598 0.19183 0
M  V30 1914 H 173.13 -3.37711 -1.89815 0
M  V30 1915 H 173.544 -5.20469 -0.649014 0
M  V30 1916 H 175.018 -4.99644 -2.34648 0
M  V30 1917 H 175.495 -3.3675 -2.81951 0
M  V30 1918 H 176.101 -4.0515 -1.2936 0
M  V30 1919 N 174.416 0.165178 -1.56732 0
M  V30 1920 C 175.656 0.887231 -1.8414 0
M  V30 1921 C 176.02 1.79159 -0.690353 0
M  V30 1922 O 177.221 2.55172 -0.845032 0
M  V30 1923 C 175.492 1.65674 -3.16681 0
M  V30 1924 S 177.051 2.42671 -3.6559 0
M  V30 1925 H 173.869 0.297042 -0.645978 0
M  V30 1926 H 176.471 0.148439 -1.94936 0
M  V30 1927 H 175.175 0.983507 -3.98441 0
M  V30 1928 H 174.706 2.43679 -3.08843 0
M  V30 1929 H 176.721 3.67499 -3.33406 0
M  V30 1930 N 175.894 1.51508 0.433938 0
M  V30 1931 C 177.14 1.64588 1.18484 0
M  V30 1932 C 177.473 0.362666 1.90784 0
M  V30 1933 O 176.748 -0.637892 1.83742 0
M  V30 1934 C 177.031 2.85149 2.19913 0
M  V30 1935 C 176.884 4.23456 1.51674 0
M  V30 1936 C 178.203 3.01227 3.20858 0
M  V30 1937 H 175.322 0.598994 0.429389 0
M  V30 1938 H 177.964 1.84002 0.473647 0
M  V30 1939 H 176.114 2.68729 2.80566 0
M  V30 1940 H 177.786 4.51552 0.943322 0
M  V30 1941 H 176.029 4.25998 0.819035 0
M  V30 1942 H 176.7 5.03812 2.2556 0
M  V30 1943 H 179.176 3.16382 2.70263 0
M  V30 1944 H 178.052 3.87141 3.89118 0
M  V30 1945 H 178.313 2.13447 3.8716 0
M  V30 1946 N 177.372 -0.689602 1.41712 0
M  V30 1947 C 178.282 -1.83314 1.46401 0
M  V30 1948 C 179.298 -1.7036 0.35405 0
M  V30 1949 O 180.474 -1.92171 0.602692 0
M  V30 1950 C 177.539 -3.19344 1.34982 0
M  V30 1951 C 176.6 -3.44363 2.56344 0
M  V30 1952 C 175.833 -4.73904 2.45461 0
M  V30 1953 O 176.056 -5.508 1.48241 0
M  V30 1954 O 174.99 -4.99839 3.35328 0
M  V30 1955 H 178.816 -1.82314 2.42889 0
M  V30 1956 H 176.401 -0.843438 1.23315 0
M  V30 1957 H 178.283 -4.00547 1.3092 0
M  V30 1958 H 176.958 -3.21014 0.41612 0
M  V30 1959 H 175.865 -2.63067 2.65982 0
M  V30 1960 H 177.198 -3.47512 3.48563 0
M  V30 1961 N 178.85 -1.27639 -0.924453 0
M  V30 1962 C 179.797 -1.10644 -2.0255 0
M  V30 1963 C 180.767 -0.00658438 -1.66099 0
M  V30 1964 O 181.952 -0.16952 -1.90045 0
M  V30 1965 C 179.092 -0.76309 -3.36557 0
M  V30 1966 C 178.205 -1.94091 -3.85944 0
M  V30 1967 C 177.34 -1.53914 -5.08413 0
M  V30 1968 C 176.379 -2.68425 -5.50104 0
M  V30 1969 N 175.516 -2.28815 -6.63768 0
M  V30 1970 H 180.356 -2.04858 -2.16419 0
M  V30 1971 H 177.893 -1.01974 -1.06017 0
M  V30 1972 H 179.851 -0.544822 -4.13627 0
M  V30 1973 H 178.481 0.142102 -3.22487 0
M  V30 1974 H 177.533 -2.27162 -3.05125 0
M  V30 1975 H 178.845 -2.7998 -4.12811 0
M  V30 1976 H 177.999 -1.28231 -5.92994 0
M  V30 1977 H 176.738 -0.651391 -4.8333 0
M  V30 1978 H 175.743 -2.94819 -4.64071 0
M  V30 1979 H 176.968 -3.57826 -5.7718 0
M  V30 1980 H 174.914 -1.42495 -6.40337 0
M  V30 1981 H 174.831 -3.08242 -6.90306 0
M  V30 1982 H 176.099 -2.06387 -7.51681 0
M  V30 1983 N 180.328 1.1314 -1.09713 0
M  V30 1984 C 181.238 2.22242 -0.751367 0
M  V30 1985 C 182.254 1.72224 0.247938 0
M  V30 1986 O 183.43 2.01205 0.0885463 0
M  V30 1987 C 180.495 3.46231 -0.180274 0
M  V30 1988 C 179.556 4.11125 -1.2359 0
M  V30 1989 C 178.789 5.29195 -0.691966 0
M  V30 1990 O 179.012 5.68342 0.48414 0
M  V30 1991 O 177.946 5.84214 -1.44838 0
M  V30 1992 H 181.772 2.54197 -1.66186 0
M  V30 1993 H 179.357 1.21331 -0.871735 0
M  V30 1994 H 181.239 4.21185 0.134739 0
M  V30 1995 H 179.914 3.1597 0.703185 0
M  V30 1996 H 178.821 3.37985 -1.60366 0
M  V30 1997 H 180.154 4.45524 -2.09211 0
M  V30 1998 N 181.806 0.884767 1.30421 0
M  V30 1999 C 182.753 0.349642 2.28136 0
M  V30 2000 C 183.723 -0.560061 1.56373 0
M  V30 2001 O 184.908 -0.488524 1.8444 0
M  V30 2002 C 182.048 -0.42999 3.42411 0
M  V30 2003 C 181.161 0.508907 4.28992 0
M  V30 2004 C 180.296 -0.286301 5.30428 0
M  V30 2005 C 179.335 0.648079 6.08659 0
M  V30 2006 N 178.472 -0.111792 7.02011 0
M  V30 2007 H 183.312 1.18807 2.73293 0
M  V30 2008 H 180.849 0.597231 1.3443 0
M  V30 2009 H 182.807 -0.897923 4.07423 0
M  V30 2010 H 181.437 -1.23299 2.98324 0
M  V30 2011 H 180.489 1.09533 3.64289 0
M  V30 2012 H 181.801 1.22475 4.8353 0
M  V30 2013 H 180.955 -0.816098 6.01186 0
M  V30 2014 H 179.694 -1.03536 4.76583 0
M  V30 2015 H 178.699 1.18951 5.36778 0
M  V30 2016 H 179.924 1.39623 6.64592 0
M  V30 2017 H 177.87 -0.843395 6.50556 0
M  V30 2018 H 177.787 0.544429 7.54037 0
M  V30 2019 H 179.055 -0.622339 7.77012 0
M  V30 2020 N 183.284 -1.43765 0.645699 0
M  V30 2021 C 184.53 -2.02197 0.156271 0
M  V30 2022 C 184.863 -1.50776 -1.22393 0
M  V30 2023 O 184.138 -0.697771 -1.81553 0
M  V30 2024 C 184.421 -3.59749 0.158872 0
M  V30 2025 C 184.274 -4.21419 1.57245 0
M  V30 2026 C 185.593 -4.37149 -0.50879 0
M  V30 2027 H 182.712 -0.734694 0.0582602 0
M  V30 2028 H 185.354 -1.71157 0.824951 0
M  V30 2029 H 183.504 -3.86325 -0.410525 0
M  V30 2030 H 185.176 -4.059 2.19186 0
M  V30 2031 H 183.419 -3.78356 2.122 0
M  V30 2032 H 184.09 -5.30482 1.52619 0
M  V30 2033 H 186.566 -4.16093 -0.024412 0
M  V30 2034 H 185.442 -5.4683 -0.476213 0
M  V30 2035 H 185.703 -4.12839 -1.58165 0
M  V30 2036 N 184.763 -0.387143 -1.52771 0
M  V30 2037 C 185.993 0.195585 -2.05672 0
M  V30 2038 C 186.401 1.41241 -1.25887 0
M  V30 2039 O 185.744 1.81265 -0.298081 0
M  V30 2040 C 185.806 0.632327 -3.53895 0
M  V30 2041 C 185.47 -0.470739 -4.54569 0
M  V30 2042 C 186.467 -1.32746 -5.02667 0
M  V30 2043 C 184.152 -0.637151 -4.98243 0
M  V30 2044 C 186.146 -2.33574 -5.93061 0
M  V30 2045 C 183.833 -1.64877 -5.88438 0
M  V30 2046 C 184.831 -2.49649 -6.35739 0
M  V30 2047 O 184.519 -3.49082 -7.24153 0
M  V30 2048 H 184.251 0.033658 -0.675162 0
M  V30 2049 H 186.805 -0.550221 -1.97893 0
M  V30 2050 H 185.035 1.43008 -3.59285 0
M  V30 2051 H 186.724 1.14048 -3.89548 0
M  V30 2052 H 187.49 -1.21019 -4.69659 0
M  V30 2053 H 183.369 0.0129567 -4.60998 0
M  V30 2054 H 186.913 -2.99777 -6.29904 0
M  V30 2055 H 182.81 -1.76643 -6.2086 0
M  V30 2056 H 183.578 -3.45065 -7.42208 0
M  V30 2057 N 186.241 1.57166 -0.116904 0
M  V30 2058 C 187.49 1.94298 0.541407 0
M  V30 2059 C 187.803 1.00236 1.67964 0
M  V30 2060 O 189.009 1.26826 2.40057 0
M  V30 2061 C 187.465 3.45306 1.01449 0
M  V30 2062 C 187.073 4.47899 -0.0951738 0
M  V30 2063 C 188.817 3.91361 1.6443 0
M  V30 2064 C 186.724 5.90083 0.394491 0
M  V30 2065 H 185.654 0.725308 0.206019 0
M  V30 2066 H 188.305 1.82446 -0.196419 0
M  V30 2067 H 186.687 3.52385 1.80667 0
M  V30 2068 H 187.861 4.52486 -0.871374 0
M  V30 2069 H 186.176 4.11583 -0.631505 0
M  V30 2070 H 188.773 4.95004 2.02176 0
M  V30 2071 H 189.116 3.3122 2.52189 0
M  V30 2072 H 189.649 3.87073 0.917559 0
M  V30 2073 H 186.388 6.53974 -0.447004 0
M  V30 2074 H 185.908 5.88921 1.13722 0
M  V30 2075 H 187.587 6.41307 0.856399 0
M  V30 2076 N 187.719 -0.156864 1.56817 0
M  V30 2077 C 188.967 -0.869404 1.82444 0
M  V30 2078 C 189.288 -1.82147 0.69623 0
M  V30 2079 O 188.558 -1.93847 -0.28287 0
M  V30 2080 H 187.138 -0.324043 0.673056 0
M  V30 2081 H 189.8 -0.153224 1.94297 0
M  V30 2082 H 188.896 -1.43761 2.77019 0
M  V30 2083 N 189.197 -1.51736 -0.425897 0
M  V30 2084 C 190.144 -1.73875 -1.51776 0
M  V30 2085 C 191.114 -0.580702 -1.55618 0
M  V30 2086 O 192.299 -0.81641 -1.72451 0
M  V30 2087 C 189.439 -1.88012 -2.89388 0
M  V30 2088 C 188.552 -3.15606 -2.94986 0
M  V30 2089 C 187.687 -3.20271 -4.23793 0
M  V30 2090 C 186.726 -4.42134 -4.23302 0
M  V30 2091 N 185.863 -4.44284 -5.43651 0
M  V30 2092 H 190.703 -2.67071 -1.32201 0
M  V30 2093 H 188.24 -1.32351 -0.642008 0
M  V30 2094 H 190.198 -1.9419 -3.69251 0
M  V30 2095 H 188.828 -0.98213 -3.07496 0
M  V30 2096 H 187.88 -3.18681 -2.07717 0
M  V30 2097 H 189.192 -4.05486 -2.90486 0
M  V30 2098 H 188.346 -3.25428 -5.12036 0
M  V30 2099 H 187.085 -2.28299 -4.30965 0
M  V30 2100 H 186.09 -4.3714 -3.3345 0
M  V30 2101 H 187.315 -5.35382 -4.17783 0
M  V30 2102 H 185.261 -3.55188 -5.51523 0
M  V30 2103 H 185.178 -5.27988 -5.41078 0
M  V30 2104 H 186.446 -4.53649 -6.33895 0
M  V30 2105 N 190.675 0.682077 -1.42076 0
M  V30 2106 C 191.605 1.80796 -1.47767 0
M  V30 2107 C 192.586 1.6677 -0.334954 0
M  V30 2108 O 193.771 1.863 -0.548264 0
M  V30 2109 C 190.901 3.19038 -1.37229 0
M  V30 2110 C 189.855 3.47789 -2.49453 0
M  V30 2111 C 189.181 4.8553 -2.23975 0
M  V30 2112 C 190.481 3.45411 -3.91776 0
M  V30 2113 H 192.175 1.7629 -2.41997 0
M  V30 2114 H 189.721 0.846721 -1.16476 0
M  V30 2115 H 191.674 3.97528 -1.39821 0
M  V30 2116 H 190.398 3.24204 -0.394907 0
M  V30 2117 H 189.057 2.71657 -2.46166 0
M  V30 2118 H 188.705 4.87337 -1.24547 0
M  V30 2119 H 188.405 5.0573 -2.99184 0
M  V30 2120 H 189.929 5.66312 -2.28304 0
M  V30 2121 H 191.343 4.13882 -3.96705 0
M  V30 2122 H 189.74 3.77145 -4.66778 0
M  V30 2123 H 190.81 2.44122 -4.18966 0
M  V30 2124 N 192.153 1.28127 0.917671 0
M  V30 2125 C 193.101 1.11569 2.04096 0
M  V30 2126 C 194.095 0.0360242 1.69362 0
M  V30 2127 O 195.301 0.194501 1.78946 0
M  V30 2128 H 191.676 0.344097 0.668656 0
M  V30 2129 H 193.647 2.06711 2.15205 0
M  V30 2130 C 192.396 0.790197 3.38602 0
M  V30 2131 H 191.719 1.61293 3.6582 0
M  V30 2132 H 193.159 0.714271 4.1794 0
M  V30 2133 C 191.618 -0.505897 3.3308 0
M  V30 2134 O 192.148 -1.53736 3.71117 0
M  V30 2135 N 190.354 -0.505193 2.86175 0
M  V30 2136 H 189.901 0.334621 2.55417 0
M  V30 2137 H 189.859 -1.37243 2.82863 0
M  V30 2138 N 193.631 -1.12557 1.10312 0
M  V30 2139 C 194.564 -2.1737 0.694674 0
M  V30 2140 C 195.542 -1.59745 -0.303373 0
M  V30 2141 O 196.726 -1.87408 -0.202578 0
M  V30 2142 C 193.853 -3.38691 0.0248052 0
M  V30 2143 C 192.899 -4.14943 0.986121 0
M  V30 2144 S 193.732 -4.73413 2.50281 0
M  V30 2145 C 194.888 -5.9807 1.84562 0
M  V30 2146 H 195.121 -2.5168 1.58255 0
M  V30 2147 H 192.654 -1.23998 0.919992 0
M  V30 2148 H 194.612 -4.08959 -0.355361 0
M  V30 2149 H 193.273 -3.02664 -0.839851 0
M  V30 2150 H 192.466 -5.01854 0.464651 0
M  V30 2151 H 192.068 -3.50377 1.30813 0
M  V30 2152 H 194.36 -6.67232 1.17507 0
M  V30 2153 H 195.303 -6.54841 2.69423 0
M  V30 2154 H 195.711 -5.49073 1.31069 0
M  V30 2155 N 195.109 -0.891671 -1.2995 0
M  V30 2156 C 196.358 -0.509521 -1.95158 0
M  V30 2157 C 196.671 0.947388 -1.71125 0
M  V30 2158 O 197.877 1.43669 -2.30372 0
M  V30 2159 C 196.333 -0.860315 -3.49466 0
M  V30 2160 C 195.941 -2.33545 -3.8231 0
M  V30 2161 C 197.685 -0.547687 -4.20952 0
M  V30 2162 C 195.592 -2.62752 -5.29826 0
M  V30 2163 H 194.522 -0.18682 -0.730489 0
M  V30 2164 H 197.173 -1.08756 -1.47798 0
M  V30 2165 H 195.555 -0.211285 -3.95436 0
M  V30 2166 H 196.729 -3.02936 -3.47227 0
M  V30 2167 H 195.044 -2.61629 -3.23944 0
M  V30 2168 H 197.641 -0.742854 -5.29515 0
M  V30 2169 H 197.984 0.51332 -4.13123 0
M  V30 2170 H 198.517 -1.1542 -3.80688 0
M  V30 2171 H 195.256 -3.6762 -5.42712 0
M  V30 2172 H 194.776 -1.97977 -5.66185 0
M  V30 2173 H 196.455 -2.48601 -5.97333 0
M  V30 2174 N 196.587 1.43421 -0.653314 0
M  V30 2175 C 197.517 2.33487 0.0246656 0
M  V30 2176 C 198.498 1.49475 0.811863 0
M  V30 2177 O 199.683 1.78139 0.773322 0
M  V30 2178 C 196.813 3.32841 0.99166 0
M  V30 2179 C 195.767 4.26842 0.314568 0
M  V30 2180 C 195.093 5.16236 1.39302 0
M  V30 2181 C 196.393 5.16243 -0.793095 0
M  V30 2182 H 198.087 2.90427 -0.727481 0
M  V30 2183 H 195.633 1.39649 -0.351287 0
M  V30 2184 H 197.586 3.94747 1.47487 0
M  V30 2185 H 196.31 2.74158 1.77497 0
M  V30 2186 H 194.969 3.663 -0.148199 0
M  V30 2187 H 194.617 4.53891 2.16776 0
M  V30 2188 H 194.317 5.79948 0.945223 0
M  V30 2189 H 195.841 5.81015 1.87759 0
M  V30 2190 H 197.255 5.71958 -0.392039 0
M  V30 2191 H 195.652 5.88676 -1.16536 0
M  V30 2192 H 196.722 4.55927 -1.65103 0
M  V30 2193 N 198.065 0.39524 1.52563 0
M  V30 2194 C 199.311 -0.185318 2.01952 0
M  V30 2195 C 199.644 -1.45964 1.28095 0
M  V30 2196 O 198.919 -1.90689 0.38315 0
M  V30 2197 C 199.202 -0.447193 3.57312 0
M  V30 2198 C 199.055 0.842828 4.41833 0
M  V30 2199 C 200.374 -1.23529 4.22408 0
M  V30 2200 H 197.493 -0.0658788 0.73405 0
M  V30 2201 H 200.135 0.525975 1.82575 0
M  V30 2202 H 198.285 -1.05312 3.73954 0
M  V30 2203 H 199.957 1.4795 4.36931 0
M  V30 2204 H 198.2 1.45686 4.08605 0
M  V30 2205 H 198.871 0.614165 5.48573 0
M  V30 2206 H 201.347 -0.722445 4.0978 0
M  V30 2207 H 200.223 -1.38727 5.3108 0
M  V30 2208 H 200.484 -2.25213 3.80436 0
M  V30 2209 N 199.544 -1.57102 0.125237 0
M  V30 2210 C 200.476 -2.12726 -0.853237 0
M  V30 2211 C 201.489 -1.07145 -1.22571 0
M  V30 2212 O 202.678 -1.34497 -1.17358 0
M  V30 2213 C 199.778 -2.61709 -2.15317 0
M  V30 2214 C 198.951 -3.91456 -1.95143 0
M  V30 2215 C 198.01 -4.25973 -3.08923 0
M  V30 2216 O 197.036 -4.94682 -2.81564 0
M  V30 2217 N 198.238 -3.83795 -4.35524 0
M  V30 2218 H 201.003 -2.97307 -0.377964 0
M  V30 2219 H 198.564 -1.61792 -0.0590011 0
M  V30 2220 H 200.556 -2.81826 -2.90441 0
M  V30 2221 H 199.126 -1.81974 -2.54174 0
M  V30 2222 H 198.346 -3.80185 -1.04177 0
M  V30 2223 H 199.634 -4.76283 -1.78976 0
M  V30 2224 H 199.032 -3.2839 -4.60626 0
M  V30 2225 H 197.589 -4.09008 -5.07499 0
M  V30 2226 N 201.022 0.148545 -1.56898 0
M  V30 2227 C 202.271 0.85984 -1.82454 0
M  V30 2228 C 202.584 1.82406 -0.706229 0
M  V30 2229 O 203.79 2.57938 -0.847349 0
M  V30 2230 C 202.246 1.57967 -3.2338 0
M  V30 2231 C 201.854 0.65794 -4.43142 0
M  V30 2232 C 203.598 2.27784 -3.58211 0
M  V30 2233 C 201.505 1.3793 -5.75091 0
M  V30 2234 H 200.435 0.324834 -0.68044 0
M  V30 2235 H 203.086 0.112588 -1.83154 0
M  V30 2236 H 201.468 2.37249 -3.17063 0
M  V30 2237 H 202.642 -0.0995497 -4.60692 0
M  V30 2238 H 200.957 0.0682643 -4.16344 0
M  V30 2239 H 203.554 2.8239 -4.54048 0
M  V30 2240 H 203.897 3.04204 -2.84193 0
M  V30 2241 H 204.43 1.55421 -3.66182 0
M  V30 2242 H 201.169 0.656982 -6.52199 0
M  V30 2243 H 200.689 2.10954 -5.61479 0
M  V30 2244 H 202.368 1.92063 -6.17835 0
M  V30 2245 N 202.5 1.5196 0.417844 0
M  V30 2246 C 203.43 1.77634 1.51554 0
M  V30 2247 C 204.411 0.626918 1.58126 0
M  V30 2248 O 205.596 0.871632 1.7354 0
M  V30 2249 C 202.726 1.91911 2.8946 0
M  V30 2250 C 201.68 3.07463 2.97743 0
M  V30 2251 C 201.006 3.06951 4.37819 0
M  V30 2252 C 202.306 4.47082 2.70027 0
M  V30 2253 H 204 2.6955 1.3032 0
M  V30 2254 H 201.546 1.29706 0.625492 0
M  V30 2255 H 203.499 2.08455 3.6623 0
M  V30 2256 H 202.223 0.966598 3.11969 0
M  V30 2257 H 200.882 2.90656 2.23416 0
M  V30 2258 H 200.53 2.09438 4.57323 0
M  V30 2259 H 200.23 3.84556 4.44286 0
M  V30 2260 H 201.754 3.25613 5.16535 0
M  V30 2261 H 203.168 4.6414 3.36522 0
M  V30 2262 H 201.565 5.2654 2.87881 0
M  V30 2263 H 202.635 4.55777 1.65514 0
M  V30 2264 N 203.978 -0.674533 1.42435 0
M  V30 2265 C 204.925 -1.78807 1.45934 0
M  V30 2266 C 205.895 -1.63157 0.311271 0
M  V30 2267 O 207.08 -1.83707 0.515383 0
M  V30 2268 C 204.22 -3.16839 1.36773 0
M  V30 2269 C 203.333 -3.43774 2.61617 0
M  V30 2270 C 202.468 -4.71536 2.44597 0
M  V30 2271 C 201.507 -4.91505 3.64814 0
M  V30 2272 N 200.644 -6.10508 3.46734 0
M  V30 2273 H 205.484 -1.75151 2.41093 0
M  V30 2274 H 203.021 -0.85504 1.19697 0
M  V30 2275 H 204.979 -3.96606 1.29459 0
M  V30 2276 H 203.609 -3.19619 0.452089 0
M  V30 2277 H 202.661 -2.58259 2.79297 0
M  V30 2278 H 203.973 -3.54423 3.50978 0
M  V30 2279 H 203.127 -5.59393 2.3487 0
M  V30 2280 H 201.866 -4.6317 1.52726 0
M  V30 2281 H 200.871 -4.0209 3.74972 0
M  V30 2282 H 202.096 -5.01716 4.57665 0
M  V30 2283 H 200.042 -6.03315 2.5758 0
M  V30 2284 H 199.959 -6.2202 4.29682 0
M  V30 2285 H 201.227 -7.01044 3.40819 0
M  V30 2286 N 205.456 -1.28612 -0.910864 0
M  V30 2287 C 206.388 -1.08589 -2.01844 0
M  V30 2288 C 207.401 -0.0367419 -1.62759 0
M  V30 2289 O 208.59 -0.280101 -1.76289 0
M  V30 2290 C 205.69 -0.628626 -3.33019 0
M  V30 2291 C 204.863 -1.75382 -4.00699 0
M  V30 2292 C 203.922 -1.28945 -5.10156 0
M  V30 2293 O 202.948 -1.9922 -5.33198 0
M  V30 2294 N 204.15 -0.154224 -5.80295 0
M  V30 2295 H 206.915 -2.03973 -2.19579 0
M  V30 2296 H 204.476 -1.20403 -1.08234 0
M  V30 2297 H 206.468 -0.301508 -4.03575 0
M  V30 2298 H 205.038 0.232451 -3.11735 0
M  V30 2299 H 204.258 -2.25039 -3.23653 0
M  V30 2300 H 205.546 -2.50854 -4.42662 0
M  V30 2301 H 204.944 0.43194 -5.64049 0
M  V30 2302 H 203.501 0.113599 -6.51701 0
M  V30 2303 N 206.934 1.1197 -1.10907 0
M  V30 2304 C 207.844 2.21433 -0.774896 0
M  V30 2305 C 208.86 1.72478 0.229657 0
M  V30 2306 O 210.036 2.01288 0.0672008 0
M  V30 2307 C 207.101 3.4602 -0.216986 0
M  V30 2308 C 206.162 4.09791 -1.27944 0
M  V30 2309 C 205.395 5.28431 -0.748055 0
M  V30 2310 O 205.618 5.68823 0.423833 0
M  V30 2311 O 204.552 5.82644 -1.51027 0
M  V30 2312 H 208.378 2.5242 -1.68873 0
M  V30 2313 H 205.963 1.20399 -0.884555 0
M  V30 2314 H 207.845 4.21304 0.090059 0
M  V30 2315 H 206.52 3.16698 0.669633 0
M  V30 2316 H 205.427 3.36265 -1.63941 0
M  V30 2317 H 206.76 4.4328 -2.13925 0
M  V30 2318 N 208.412 0.89855 1.29475 0
M  V30 2319 C 209.658 0.534065 1.96263 0
M  V30 2320 C 210.013 -0.909415 1.69551 0
M  V30 2321 O 209.306 -1.63596 0.997349 0
M  V30 2322 C 209.5 0.761398 3.49195 0
M  V30 2323 C 209.329 2.22542 3.90775 0
M  V30 2324 C 208.099 2.87264 4.15701 0
M  V30 2325 C 210.297 3.20051 4.02581 0
M  V30 2326 N 208.279 4.24121 4.4384 0
M  V30 2327 C 209.65 4.42023 4.34759 0
M  V30 2328 C 211.705 3.15657 3.85052 0
M  V30 2329 C 210.408 5.60161 4.51235 0
M  V30 2330 C 212.434 4.33078 4.02737 0
M  V30 2331 C 211.796 5.5382 4.35273 0
M  V30 2332 H 207.895 0.245013 0.742625 0
M  V30 2333 H 210.479 1.15912 1.56437 0
M  V30 2334 H 208.65 0.165732 3.88046 0
M  V30 2335 H 210.382 0.362462 4.03074 0
M  V30 2336 H 207.137 2.38064 4.09417 0
M  V30 2337 H 207.561 4.94839 4.6202 0
M  V30 2338 H 212.203 2.23396 3.58962 0
M  V30 2339 H 209.921 6.52913 4.76162 0
M  V30 2340 H 213.507 4.31163 3.90628 0
M  V30 2341 H 212.387 6.43166 4.48672 0
M  V30 2342 N 209.89 -1.43072 0.660911 0
M  V30 2343 C 211.301 -1.84932 0.256348 0
M  V30 2344 C 211.652 -1.55325 -1.19868 0
M  V30 2345 O 210.777 -1.00607 -1.91591 0
M  V30 2346 C 211.372 -3.35684 0.458475 0
M  V30 2347 C 209.931 -3.76245 0.108161 0
M  V30 2348 C 209.078 -2.66749 0.757641 0
M  V30 2349 H 212.029 -1.33116 0.864051 0
M  V30 2350 H 212.05 -3.79365 -0.293683 0
M  V30 2351 H 211.562 -3.572 1.51755 0
M  V30 2352 H 209.663 -3.60338 -0.948014 0
M  V30 2353 H 209.776 -4.76058 0.538992 0
M  V30 2354 H 208.14 -2.53989 0.190185 0
M  V30 2355 H 208.923 -2.91092 1.81989 0
M  V30 2356 N 211.368 -0.403325 -1.52352 0
M  V30 2357 C 212.315 0.425011 -2.26853 0
M  V30 2358 C 213.285 1.04598 -1.29029 0
M  V30 2359 O 214.47 1.07135 -1.57882 0
M  V30 2360 C 211.61 1.53888 -3.08889 0
M  V30 2361 C 210.723 0.939396 -4.21663 0
M  V30 2362 C 209.858 2.02547 -4.91068 0
M  V30 2363 C 208.897 1.40263 -5.95813 0
M  V30 2364 N 208.034 2.4286 -6.58759 0
M  V30 2365 H 212.874 -0.21674 -2.97211 0
M  V30 2366 H 210.411 -0.118722 -1.4662 0
M  V30 2367 H 212.369 2.19558 -3.54753 0
M  V30 2368 H 210.999 2.15074 -2.40714 0
M  V30 2369 H 210.051 0.171898 -3.80011 0
M  V30 2370 H 211.363 0.44436 -4.96817 0
M  V30 2371 H 210.517 2.75958 -5.40308 0
M  V30 2372 H 209.256 2.55415 -4.15469 0
M  V30 2373 H 208.261 0.653833 -5.45898 0
M  V30 2374 H 209.486 0.881719 -6.73352 0
M  V30 2375 H 207.432 2.94871 -5.85992 0
M  V30 2376 H 207.349 1.98152 -7.2957 0
M  V30 2377 H 208.617 3.15858 -7.12639 0
M  V30 2378 N 212.846 1.57033 -0.133567 0
M  V30 2379 C 213.796 2.12641 0.822671 0
M  V30 2380 C 214.78 1.05081 1.21847 0
M  V30 2381 O 215.972 1.31287 1.18713 0
M  V30 2382 C 213.101 2.74094 2.06706 0
M  V30 2383 C 212.187 3.88757 1.69497 0
M  V30 2384 N 212.578 4.95194 1.03037 0
M  V30 2385 C 210.876 3.99213 1.98859 0
M  V30 2386 C 211.577 5.75414 0.852873 0
M  V30 2387 N 210.553 5.25726 1.3825 0
M  V30 2388 H 214.355 2.92308 0.305537 0
M  V30 2389 H 211.869 1.62256 0.0684276 0
M  V30 2390 H 213.866 3.12285 2.76195 0
M  V30 2391 H 212.526 1.95896 2.5895 0
M  V30 2392 H 213.537 5.13247 0.692669 0
M  V30 2393 H 210.214 3.32075 2.53047 0
M  V30 2394 H 211.604 6.71089 0.330091 0
M  V30 2395 N 214.325 -0.140222 1.56975 0
M  V30 2396 C 215.571 -0.848084 1.84876 0
M  V30 2397 C 215.926 -1.78481 0.718481 0
M  V30 2398 O 215.219 -1.89497 -0.283093 0
M  V30 2399 C 215.413 -1.65386 3.16832 0
M  V30 2400 C 215.242 -0.79665 4.42587 0
M  V30 2401 C 214.012 -0.459648 5.03205 0
M  V30 2402 C 216.21 -0.12389 5.14151 0
M  V30 2403 N 214.192 0.410446 6.12526 0
M  V30 2404 C 215.563 0.606064 6.17031 0
M  V30 2405 C 217.618 -0.0452654 4.97879 0
M  V30 2406 C 216.321 1.40723 7.054 0
M  V30 2407 C 218.347 0.742658 5.86718 0
M  V30 2408 C 217.709 1.46087 6.89085 0
M  V30 2409 H 213.808 -0.287946 0.727056 0
M  V30 2410 H 216.392 -0.11304 1.94372 0
M  V30 2411 H 214.563 -2.36009 3.08471 0
M  V30 2412 H 216.295 -2.30541 3.32615 0
M  V30 2413 H 213.05 -0.797006 4.66846 0
M  V30 2414 H 213.474 0.836716 6.7181 0
M  V30 2415 H 218.116 -0.586184 4.18717 0
M  V30 2416 H 215.834 1.95938 7.83986 0
M  V30 2417 H 219.42 0.805574 5.76196 0
M  V30 2418 H 218.3 2.06077 7.56639 0
M  V30 2419 N 215.803 -1.52179 -0.40978 0
M  V30 2420 C 217.214 -1.58377 -0.988615 0
M  V30 2421 C 217.565 -0.423879 -1.91566 0
M  V30 2422 O 216.69 0.455844 -2.11544 0
M  V30 2423 C 217.285 -2.87044 -1.79976 0
M  V30 2424 C 215.844 -2.95722 -2.32863 0
M  V30 2425 C 214.991 -2.53309 -1.12828 0
M  V30 2426 H 217.942 -1.57558 -0.190039 0
M  V30 2427 H 217.963 -2.7236 -2.65707 0
M  V30 2428 H 217.475 -3.71444 -1.12478 0
M  V30 2429 H 215.576 -2.15814 -3.03735 0
M  V30 2430 H 215.689 -3.99951 -2.63773 0
M  V30 2431 H 214.053 -2.07142 -1.48204 0
M  V30 2432 H 214.836 -3.40082 -0.46897 0
M  V30 2433 N 217.281 0.66697 -1.42791 0
M  V30 2434 C 218.509 1.45505 -1.47091 0
M  V30 2435 C 218.924 1.8861 -0.0845873 0
M  V30 2436 O 218.281 1.58632 0.90234 0
M  V30 2437 C 218.332 2.69906 -2.40485 0
M  V30 2438 O 218.053 2.28608 -3.73725 0
M  V30 2439 C 219.554 3.63396 -2.53886 0
M  V30 2440 H 216.774 0.447459 -0.500022 0
M  V30 2441 H 219.318 0.818866 -1.8739 0
M  V30 2442 H 217.473 3.29696 -2.03419 0
M  V30 2443 H 217.887 3.08997 -4.23817 0
M  V30 2444 H 219.361 4.47387 -3.2334 0
M  V30 2445 H 219.838 4.09824 -1.57927 0
M  V30 2446 H 220.444 3.09495 -2.91706 0
M  V30 2447 N 218.759 1.29093 0.90403 0
M  V30 2448 C 220.006 1.16813 1.65411 0
M  V30 2449 C 220.334 -0.28128 1.92455 0
M  V30 2450 O 219.589 -1.22006 1.53013 0
M  V30 2451 C 219.888 1.92224 3.01305 0
M  V30 2452 C 219.554 3.41968 2.93885 0
M  V30 2453 C 218.216 3.82807 2.91569 0
M  V30 2454 C 220.568 4.37409 2.83413 0
M  V30 2455 C 217.896 5.1741 2.76594 0
M  V30 2456 C 220.248 5.72097 2.69977 0
M  V30 2457 C 218.912 6.12199 2.66024 0
M  V30 2458 H 218.182 0.42745 0.605283 0
M  V30 2459 H 220.829 1.59981 1.05254 0
M  V30 2460 H 219.134 1.41635 3.65304 0
M  V30 2461 H 220.831 1.80131 3.58265 0
M  V30 2462 H 217.421 3.09504 2.96488 0
M  V30 2463 H 221.605 4.06813 2.84283 0
M  V30 2464 H 216.861 5.47596 2.71935 0
M  V30 2465 H 221.035 6.45704 2.60844 0
M  V30 2466 H 218.662 7.16448 2.54178 0
M  V30 2467 N 220.237 -1.11381 1.11499 0
M  V30 2468 C 221.486 -1.82494 0.858993 0
M  V30 2469 C 221.799 -1.85605 -0.617278 0
M  V30 2470 O 223.005 -2.52824 -0.989552 0
M  V30 2471 C 221.461 -3.27745 1.48699 0
M  V30 2472 C 221.069 -3.32961 2.99735 0
M  V30 2473 C 222.813 -4.03754 1.31085 0
M  V30 2474 C 220.72 -4.72612 3.55516 0
M  V30 2475 H 219.65 -0.683802 0.317696 0
M  V30 2476 H 222.301 -1.25331 1.34031 0
M  V30 2477 H 220.683 -3.84844 0.933339 0
M  V30 2478 H 221.857 -2.85741 3.61509 0
M  V30 2479 H 220.172 -2.70433 3.16631 0
M  V30 2480 H 222.769 -5.06891 1.70192 0
M  V30 2481 H 223.112 -4.15527 0.253496 0
M  V30 2482 H 223.645 -3.53043 1.83318 0
M  V30 2483 H 220.384 -4.66036 4.60967 0
M  V30 2484 H 219.904 -5.2024 2.98513 0
M  V30 2485 H 221.583 -5.4157 3.53992 0
M  V30 2486 N 221.715 -0.905404 -1.28997 0
M  V30 2487 C 222.94 -0.549175 -1.99997 0
M  V30 2488 C 223.365 0.860276 -1.67275 0
M  V30 2489 O 222.723 1.57355 -0.900502 0
M  V30 2490 C 222.771 -0.755185 -3.52604 0
M  V30 2491 O 221.875 0.189692 -4.11964 0
M  V30 2492 H 221.216 -0.213899 -0.628604 0
M  V30 2493 H 223.746 -1.21856 -1.64354 0
M  V30 2494 H 223.756 -0.662045 -4.02593 0
M  V30 2495 H 222.431 -1.78271 -3.75755 0
M  V30 2496 H 221.008 0.0485257 -3.72868 0
M  V30 2497 N 223.193 1.4272 -0.668489 0
M  V30 2498 C 224.47 1.95248 -0.117373 0
M  V30 2499 C 224.85 1.60919 1.36632 0
M  V30 2500 O 224.198 0.902095 2.09939 0
M  V30 2501 C 224.408 3.46927 -0.379806 0
M  V30 2502 C 225.756 4.23588 -0.292923 0
M  V30 2503 O 226.78 3.5482 -0.313204 0
M  V30 2504 O 225.639 5.46017 -0.229697 0
M  V30 2505 H 222.733 0.827 0.00079152 0
M  V30 2506 H 225.279 1.52581 -0.742783 0
M  V30 2507 H 224.051 3.65096 -1.40786 0
M  V30 2508 H 223.674 3.96627 0.277923 0
M  V30 2509 N 224.671 0.411399 1.52136 0
M  V30 2510 C 225.92 -0.165009 2.01024 0
M  V30 2511 C 226.233 -1.4603 1.30133 0
M  V30 2512 O 227.439 -2.1181 1.69849 0
M  V30 2513 C 225.895 -0.344618 3.58246 0
M  V30 2514 C 225.503 0.938716 4.38055 0
M  V30 2515 C 227.247 -0.876195 4.15359 0
M  V30 2516 C 225.154 0.726172 5.86925 0
M  V30 2517 H 224.084 -0.0654407 0.751155 0
M  V30 2518 H 226.735 0.537192 1.75461 0
M  V30 2519 H 225.117 -1.10921 3.80148 0
M  V30 2520 H 226.291 1.70963 4.27912 0
M  V30 2521 H 224.606 1.39688 3.92271 0
M  V30 2522 H 227.203 -1.05128 5.24263 0
M  V30 2523 H 227.546 -1.85152 3.7286 0
M  V30 2524 H 228.079 -0.170607 3.97434 0
M  V30 2525 H 224.818 1.67312 6.33788 0
M  V30 2526 H 224.338 -0.00540283 5.998 0
M  V30 2527 H 226.017 0.369231 6.45946 0
M  V30 2528 N 226.149 -1.5696 0.141893 0
M  V30 2529 C 227.395 -1.9625 -0.511248 0
M  V30 2530 C 227.728 -1.02654 -1.64851 0
M  V30 2531 O 227.003 -0.0679676 -1.94381 0
M  V30 2532 C 227.286 -3.45285 -1.02227 0
M  V30 2533 C 227.139 -4.49658 0.113138 0
M  V30 2534 C 228.458 -3.96698 -1.90574 0
M  V30 2535 H 225.577 -0.713567 -0.184367 0
M  V30 2536 H 228.219 -1.88698 0.222087 0
M  V30 2537 H 226.369 -3.51852 -1.64719 0
M  V30 2538 H 228.041 -4.55174 0.749302 0
M  V30 2539 H 226.284 -4.26857 0.773026 0
M  V30 2540 H 226.955 -5.51258 -0.286053 0
M  V30 2541 H 229.431 -3.92578 -1.37918 0
M  V30 2542 H 228.307 -5.01453 -2.2324 0
M  V30 2543 H 228.568 -3.3875 -2.84079 0
M  V30 2544 N 227.627 0.131896 -1.57047 0
M  V30 2545 C 228.875 0.840269 -1.83804 0
M  V30 2546 C 229.196 1.81017 -0.72512 0
M  V30 2547 O 228.466 1.94272 0.251995 0
M  V30 2548 H 227.046 0.313294 -0.678127 0
M  V30 2549 H 229.708 0.122294 -1.94516 0
M  V30 2550 H 228.804 1.39335 -2.79271 0
M  V30 2551 N 229.106 1.52395 0.401703 0
M  V30 2552 C 230.069 1.75636 1.47257 0
M  V30 2553 C 231.069 0.62628 1.48103 0
M  V30 2554 O 232.259 0.894227 1.49497 0
M  V30 2555 C 229.391 1.84553 2.86624 0
M  V30 2556 H 230.584 2.71241 1.27938 0
M  V30 2557 H 228.137 1.42923 0.632662 0
M  V30 2558 H 228.872 0.908882 3.11303 0
M  V30 2559 H 228.657 2.66715 2.87412 0
M  V30 2560 H 230.147 2.04251 3.64241 0
M  V30 2561 N 230.584 -0.659388 1.43143 0
M  V30 2562 C 231.809 -1.45221 1.48073 0
M  V30 2563 C 232.234 -1.87845 0.097995 0
M  V30 2564 O 231.592 -1.56985 -0.90694 0
M  V30 2565 C 231.64 -2.66748 2.42647 0
M  V30 2566 O 230.744 -3.65583 1.90848 0
M  V30 2567 H 230.085 -0.435669 0.501088 0
M  V30 2568 H 232.615 -0.807432 1.87994 0
M  V30 2569 H 232.625 -3.14637 2.59745 0
M  V30 2570 H 231.3 -2.35067 3.43098 0
M  V30 2571 H 229.877 -3.24693 1.83381 0
M  V30 2572 N 232.062 -1.29571 -0.897171 0
M  V30 2573 C 233.478 -1.07637 -1.17841 0
M  V30 2574 C 233.678 0.170713 -2.00776 0
M  V30 2575 O 232.734 0.867768 -2.3712 0
M  V30 2576 C 234.047 -2.3332 -1.8969 0
M  V30 2577 C 235.595 -2.38664 -2.02505 0
M  V30 2578 C 236.07 -3.64157 -2.77765 0
M  V30 2579 N 237.561 -3.64894 -2.85318 0
M  V30 2580 C 238.296 -4.58679 -3.44094 0
M  V30 2581 N 237.792 -5.62799 -4.04017 0
M  V30 2582 N 239.585 -4.46245 -3.41793 0
M  V30 2583 H 231.736 -2.09598 -0.343883 0
M  V30 2584 H 233.999 -0.923333 -0.214848 0
M  V30 2585 H 233.705 -3.24262 -1.36187 0
M  V30 2586 H 233.579 -2.41025 -2.9015 0
M  V30 2587 H 235.966 -1.48208 -2.55183 0
M  V30 2588 H 236.047 -2.34943 -1.01171 0
M  V30 2589 H 235.691 -4.54965 -2.25763 0
M  V30 2590 H 235.621 -3.65137 -3.7945 0
M  V30 2591 H 238.112 -2.89613 -2.42761 0
M  V30 2592 H 238.425 -6.3048 -4.46895 0
M  V30 2593 H 236.77 -5.66605 -4.02472 0
M  V30 2594 H 239.961 -3.64094 -2.94199 0
M  V30 2595 H 240.134 -5.19518 -3.87304 0
M  V30 2596 N 233.54 1.10788 -1.12088 0
M  V30 2597 C 234.768 1.86461 -0.896651 0
M  V30 2598 C 235.183 1.80492 0.553912 0
M  V30 2599 O 234.54 1.19102 1.38278 0
M  V30 2600 C 234.591 3.35006 -1.35843 0
M  V30 2601 O 234.312 3.40866 -2.75213 0
M  V30 2602 C 235.813 4.27565 -1.1706 0
M  V30 2603 H 233.033 0.589425 -0.320654 0
M  V30 2604 H 235.577 1.40076 -1.48993 0
M  V30 2605 H 233.732 3.7887 -0.808458 0
M  V30 2606 H 234.146 4.33411 -2.9539 0
M  V30 2607 H 235.62 5.30007 -1.54263 0
M  V30 2608 H 236.097 4.3906 -0.110814 0
M  V30 2609 H 236.703 3.89501 -1.70789 0
M  V30 2610 N 235.018 0.912232 1.28515 0
M  V30 2611 C 236.243 0.559774 1.99703 0
M  V30 2612 C 236.668 -0.851393 1.67729 0
M  V30 2613 O 236.026 -1.56875 0.908834 0
M  V30 2614 C 236.074 0.773874 3.52198 0
M  V30 2615 O 235.178 -0.167842 4.12058 0
M  V30 2616 H 234.519 0.21723 0.627461 0
M  V30 2617 H 237.049 1.22725 1.63706 0
M  V30 2618 H 237.059 0.683386 4.02236 0
M  V30 2619 H 235.734 1.80261 3.74805 0
M  V30 2620 H 234.311 -0.0287509 3.72889 0
M  V30 2621 N 236.496 -1.42363 0.676048 0
M  V30 2622 C 237.406 -2.346 -0.00153389 0
M  V30 2623 C 238.422 -1.5516 -0.787485 0
M  V30 2624 O 239.598 -1.87723 -0.729521 0
M  V30 2625 C 236.663 -3.33705 -0.940298 0
M  V30 2626 C 235.724 -4.29042 -0.148739 0
M  V30 2627 C 234.957 -5.23413 -1.04279 0
M  V30 2628 O 235.18 -5.22749 -2.28232 0
M  V30 2629 O 234.114 -5.99795 -0.502925 0
M  V30 2630 H 237.94 -2.94082 0.758268 0
M  V30 2631 H 235.525 -1.42888 0.436289 0
M  V30 2632 H 237.407 -3.94586 -1.47917 0
M  V30 2633 H 236.082 -2.76695 -1.67993 0
M  V30 2634 H 234.989 -3.71571 0.43427 0
M  V30 2635 H 236.322 -4.89097 0.551805 0
M  V30 2636 N 237.974 -0.419461 -1.51915 0
M  V30 2637 C 239.199 0.154572 -2.06823 0
M  V30 2638 C 239.624 1.3722 -1.28656 0
M  V30 2639 O 238.982 1.78461 -0.319583 0
M  V30 2640 C 239.03 0.473172 -3.57482 0
M  V30 2641 O 238.134 1.56255 -3.81652 0
M  V30 2642 H 237.475 0.0096924 -0.663929 0
M  V30 2643 H 240.005 -0.595642 -1.95738 0
M  V30 2644 H 240.015 0.728825 -4.01438 0
M  V30 2645 H 238.69 -0.416873 -4.13805 0
M  V30 2646 H 237.267 1.29825 -3.49571 0
M  V30 2647 N 239.452 1.56882 -0.150215 0
M  V30 2648 C 240.382 2.19935 0.784284 0
M  V30 2649 C 241.363 1.14854 1.25469 0
M  V30 2650 O 242.548 1.43209 1.31168 0
M  V30 2651 C 239.678 2.82349 2.02229 0
M  V30 2652 C 238.632 3.93285 1.68853 0
M  V30 2653 C 237.958 4.42649 2.99944 0
M  V30 2654 C 239.258 5.13904 0.932714 0
M  V30 2655 H 240.952 2.9828 0.258781 0
M  V30 2656 H 238.498 1.43473 0.123029 0
M  V30 2657 H 240.451 3.25126 2.68088 0
M  V30 2658 H 239.175 2.0134 2.57157 0
M  V30 2659 H 237.834 3.5113 1.05371 0
M  V30 2660 H 237.482 3.58458 3.52869 0
M  V30 2661 H 237.182 5.17476 2.78374 0
M  V30 2662 H 238.706 4.88099 3.66868 0
M  V30 2663 H 240.12 5.53506 1.49345 0
M  V30 2664 H 238.517 5.94515 0.81684 0
M  V30 2665 H 239.587 4.84842 -0.0749568 0
M  V30 2666 N 240.93 -0.123565 1.57115 0
M  V30 2667 C 242.17 -0.838097 1.86428 0
M  V30 2668 C 242.534 -1.77266 0.737611 0
M  V30 2669 O 243.735 -2.52842 0.912389 0
M  V30 2670 C 242.006 -1.57219 3.20962 0
M  V30 2671 S 243.565 -2.32893 3.71896 0
M  V30 2672 H 240.383 -0.279811 0.653626 0
M  V30 2673 H 242.985 -0.0967034 1.95261 0
M  V30 2674 H 241.689 -0.877522 4.00909 0
M  V30 2675 H 241.22 -2.35405 3.15195 0
M  V30 2676 H 243.235 -3.5853 3.43032 0
M  V30 2677 N 242.408 -1.52605 -0.393616 0
M  V30 2678 C 243.34 -1.73303 -1.49995 0
M  V30 2679 C 244.353 -0.613473 -1.50799 0
M  V30 2680 O 245.542 -0.889049 -1.54784 0
M  V30 2681 C 242.642 -1.77245 -2.88855 0
M  V30 2682 C 241.815 -3.06483 -3.12069 0
M  V30 2683 C 240.874 -3.02033 -4.30886 0
M  V30 2684 O 239.9 -3.75907 -4.27414 0
M  V30 2685 N 241.102 -2.20897 -5.36828 0
M  V30 2686 H 243.867 -2.68756 -1.32629 0
M  V30 2687 H 241.428 -1.51036 -0.583083 0
M  V30 2688 H 243.42 -1.7178 -3.66434 0
M  V30 2689 H 241.99 -0.891993 -2.99603 0
M  V30 2690 H 241.21 -3.25474 -2.22396 0
M  V30 2691 H 242.498 -3.91947 -3.2443 0
M  V30 2692 H 241.896 -1.60336 -5.42502 0
M  V30 2693 H 240.453 -2.21275 -6.13091 0
M  V30 2694 N 243.887 0.651787 -1.4349 0
M  V30 2695 C 244.835 1.78586 -1.49029 0
M  V30 2696 C 245.829 1.65448 -0.363767 0
M  V30 2697 O 247.035 1.71777 -0.537821 0
M  V30 2698 H 243.41 0.589236 -0.467231 0
M  V30 2699 H 245.381 1.71035 -2.44519 0
M  V30 2700 C 244.13 3.16851 -1.43181 0
M  V30 2701 H 243.453 3.27598 -2.29171 0
M  V30 2702 H 244.893 3.96156 -1.51118 0
M  V30 2703 C 243.352 3.36568 -0.149616 0
M  V30 2704 O 243.882 3.93885 0.788509 0
M  V30 2705 N 242.088 2.90539 -0.0593484 0
M  V30 2706 H 241.635 2.4408 -0.823575 0
M  V30 2707 H 241.593 3.04108 0.797853 0
M  V30 2708 N 245.365 1.30045 0.890287 0
M  V30 2709 C 246.313 1.15873 2.01683 0
M  V30 2710 C 247.307 0.0719403 1.69247 0
M  V30 2711 O 248.513 0.232414 1.78493 0
M  V30 2712 H 244.888 0.358203 0.661207 0
M  V30 2713 H 246.859 2.11229 2.10772 0
M  V30 2714 C 245.608 0.861842 3.36849 0
M  V30 2715 H 244.931 1.69016 3.62317 0
M  V30 2716 H 246.371 0.802762 4.16331 0
M  V30 2717 C 244.83 -0.435132 3.34078 0
M  V30 2718 O 245.36 -1.4583 3.74295 0
M  V30 2719 N 243.566 -0.444377 2.87182 0
M  V30 2720 H 243.113 0.388723 2.5465 0
M  V30 2721 H 243.071 -1.31213 2.85711 0
M  V30 2722 N 246.843 -1.10192 1.12674 0
M  V30 2723 C 247.776 -2.15847 0.740625 0
M  V30 2724 C 248.754 -1.60352 -0.269421 0
M  V30 2725 O 249.938 -1.87796 -0.16278 0
M  V30 2726 C 247.065 -3.38562 0.096641 0
M  V30 2727 C 246.111 -4.12758 1.07391 0
M  V30 2728 S 246.944 -4.67997 2.60267 0
M  V30 2729 C 248.1 -5.94021 1.97206 0
M  V30 2730 H 248.333 -2.48266 1.63558 0
M  V30 2731 H 245.866 -1.22019 0.946087 0
M  V30 2732 H 247.824 -4.09621 -0.268535 0
M  V30 2733 H 246.485 -3.04377 -0.775462 0
M  V30 2734 H 245.678 -5.00755 0.570997 0
M  V30 2735 H 245.28 -3.47523 1.38216 0
M  V30 2736 H 247.572 -6.64589 1.31634 0
M  V30 2737 H 248.515 -6.48979 2.83253 0
M  V30 2738 H 248.923 -5.46169 1.42686 0
M  V30 2739 N 248.321 -0.919034 -1.28029 0
M  V30 2740 C 249.567 -0.555757 -1.95036 0
M  V30 2741 C 249.9 0.899198 -1.72128 0
M  V30 2742 O 249.175 1.64023 -1.04531 0
M  V30 2743 C 249.458 -0.872024 -3.49382 0
M  V30 2744 C 249.311 -2.3801 -3.81669 0
M  V30 2745 C 250.63 -0.37185 -4.38526 0
M  V30 2746 H 247.749 -0.203386 -0.708381 0
M  V30 2747 H 250.391 -1.14924 -1.51303 0
M  V30 2748 H 248.541 -0.366946 -3.86763 0
M  V30 2749 H 250.213 -2.9562 -3.54128 0
M  V30 2750 H 248.456 -2.83289 -3.28526 0
M  V30 2751 H 249.127 -2.55192 -4.8947 0
M  V30 2752 H 251.603 -0.804602 -4.08247 0
M  V30 2753 H 250.479 -0.622173 -5.45362 0
M  V30 2754 H 250.74 0.727934 -4.36066 0
M  V30 2755 N 249.799 1.42003 -0.683588 0
M  V30 2756 C 251.048 2.00638 -0.206681 0
M  V30 2757 C 251.361 1.5472 1.19671 0
M  V30 2758 O 252.567 2.05833 1.77045 0
M  V30 2759 C 251.023 3.58487 -0.318632 0
M  V30 2760 C 250.631 4.1339 -1.72663 0
M  V30 2761 C 252.375 4.24384 0.0991141 0
M  V30 2762 C 250.282 5.63633 -1.79087 0
M  V30 2763 H 249.212 0.750408 -0.0735107 0
M  V30 2764 H 251.863 1.62624 -0.850048 0
M  V30 2765 H 250.245 3.94047 0.392781 0
M  V30 2766 H 251.419 3.89273 -2.46583 0
M  V30 2767 H 249.734 3.59976 -2.09299 0
M  V30 2768 H 252.331 5.34652 0.0713833 0
M  V30 2769 H 252.674 4.00505 1.13586 0
M  V30 2770 H 253.207 3.93816 -0.561599 0
M  V30 2771 H 249.946 5.92323 -2.80774 0
M  V30 2772 H 249.466 5.89714 -1.09535 0
M  V30 2773 H 251.145 6.28201 -1.5483 0
M  V30 2774 N 251.277 0.427512 1.51691 0
M  V30 2775 C 252.207 -0.3796 2.30394 0
M  V30 2776 C 253.188 -1.02982 1.35384 0
M  V30 2777 O 254.373 -1.03534 1.643 0
M  V30 2778 C 251.503 -1.48649 3.1388 0
M  V30 2779 C 250.457 -0.960294 4.17088 0
M  V30 2780 C 249.783 -2.16219 4.89033 0
M  V30 2781 C 251.083 -0.00153679 5.223 0
M  V30 2782 H 252.777 0.277164 2.98114 0
M  V30 2783 H 250.323 0.134739 1.43368 0
M  V30 2784 H 252.276 -2.05826 3.67714 0
M  V30 2785 H 251 -2.1714 2.43962 0
M  V30 2786 H 249.659 -0.410806 3.64291 0
M  V30 2787 H 249.307 -2.83307 4.15628 0
M  V30 2788 H 249.007 -1.81654 5.58816 0
M  V30 2789 H 250.531 -2.73968 5.45687 0
M  V30 2790 H 251.945 -0.482687 5.71264 0
M  V30 2791 H 250.342 0.256199 5.99553 0
M  V30 2792 H 251.412 0.938174 4.75738 0
M  V30 2793 N 252.755 -1.56801 0.158532 0
M  V30 2794 C 253.702 -2.17337 -0.776729 0
M  V30 2795 C 254.672 -1.1096 -1.23601 0
M  V30 2796 O 255.857 -1.39054 -1.30647 0
M  V30 2797 C 252.997 -2.80822 -2.00582 0
M  V30 2798 C 252.11 -4.01624 -1.59129 0
M  V30 2799 C 251.245 -4.53072 -2.77306 0
M  V30 2800 C 250.284 -5.66314 -2.32282 0
M  V30 2801 N 249.421 -6.12329 -3.43508 0
M  V30 2802 H 254.261 -2.96918 -0.253701 0
M  V30 2803 H 251.798 -1.46661 -0.113504 0
M  V30 2804 H 253.756 -3.15779 -2.72652 0
M  V30 2805 H 252.386 -2.03866 -2.50277 0
M  V30 2806 H 251.438 -3.72571 -0.767806 0
M  V30 2807 H 252.75 -4.83633 -1.2207 0
M  V30 2808 H 251.904 -4.90145 -3.57551 0
M  V30 2809 H 250.643 -3.70095 -3.17617 0
M  V30 2810 H 249.648 -5.28806 -1.5048 0
M  V30 2811 H 250.873 -6.51085 -1.93043 0
M  V30 2812 H 248.819 -5.32284 -3.83418 0
M  V30 2813 H 248.736 -6.89293 -3.105 0
M  V30 2814 H 250.004 -6.5405 -4.24075 0
M  V30 2815 N 254.233 0.115231 -1.57178 0
M  V30 2816 C 255.163 1.1423 -2.03651 0
M  V30 2817 C 256.144 1.42967 -0.921655 0
M  V30 2818 O 257.329 1.53343 -1.19162 0
M  V30 2819 C 254.459 2.4675 -2.44401 0
M  V30 2820 C 253.413 2.32467 -3.59365 0
M  V30 2821 C 252.739 3.69984 -3.86026 0
M  V30 2822 C 254.039 1.78203 -4.90959 0
M  V30 2823 H 255.733 0.755749 -2.89705 0
M  V30 2824 H 253.279 0.362093 -1.39373 0
M  V30 2825 H 255.232 3.18854 -2.75517 0
M  V30 2826 H 253.956 2.87302 -1.55322 0
M  V30 2827 H 252.615 1.62811 -3.28463 0
M  V30 2828 H 252.263 4.08028 -2.94147 0
M  V30 2829 H 251.963 3.61279 -4.63412 0
M  V30 2830 H 253.487 4.43587 -4.19599 0
M  V30 2831 H 254.901 2.40128 -5.20587 0
M  V30 2832 H 253.298 1.8031 -5.72371 0
M  V30 2833 H 254.368 0.739876 -4.79222 0
M  V30 2834 N 255.711 1.52812 0.385517 0
M  V30 2835 C 256.641 1.80808 1.47752 0
M  V30 2836 C 257.622 0.660318 1.5676 0
M  V30 2837 O 258.807 0.908246 1.71652 0
M  V30 2838 C 255.937 1.98008 2.85324 0
M  V30 2839 C 254.891 3.13709 2.91154 0
M  V30 2840 C 254.217 3.16169 4.31209 0
M  V30 2841 C 255.517 4.52709 2.60483 0
M  V30 2842 H 257.211 2.72253 1.24573 0
M  V30 2843 H 254.757 1.31003 0.597839 0
M  V30 2844 H 256.71 2.16176 3.61726 0
M  V30 2845 H 255.434 1.03255 3.09848 0
M  V30 2846 H 254.093 2.95329 2.17201 0
M  V30 2847 H 253.741 2.19092 4.52778 0
M  V30 2848 H 253.441 3.93894 4.36029 0
M  V30 2849 H 254.965 3.36496 5.09512 0
M  V30 2850 H 256.379 4.71173 3.26602 0
M  V30 2851 H 254.776 5.32528 2.76648 0
M  V30 2852 H 255.846 4.59186 1.55809 0
M  V30 2853 N 257.189 -0.644168 1.43834 0
M  V30 2854 C 258.414 -1.43642 1.49605 0
M  V30 2855 C 258.839 -1.8773 0.117913 0
M  V30 2856 O 258.197 -1.57938 -0.890239 0
M  V30 2857 C 258.245 -2.6416 2.45463 0
M  V30 2858 O 257.349 -3.63538 1.94714 0
M  V30 2859 H 256.69 -0.430329 0.50568 0
M  V30 2860 H 259.22 -0.787448 1.8884 0
M  V30 2861 H 259.23 -3.11864 2.63068 0
M  V30 2862 H 257.905 -2.31414 3.45572 0
M  V30 2863 H 256.482 -3.2273 1.86814 0
M  V30 2864 N 258.668 -1.30515 -0.883378 0
M  V30 2865 C 259.578 -1.18959 -2.02203 0
M  V30 2866 C 260.594 -0.109172 -1.73657 0
M  V30 2867 O 261.77 -0.324413 -1.9877 0
M  V30 2868 C 258.835 -0.883871 -3.35244 0
M  V30 2869 C 257.896 -2.04982 -3.77201 0
M  V30 2870 C 257.129 -1.75859 -5.03894 0
M  V30 2871 O 257.352 -0.687276 -5.66244 0
M  V30 2872 O 256.286 -2.61146 -5.42297 0
M  V30 2873 H 260.112 -2.14616 -2.1488 0
M  V30 2874 H 257.697 -1.10124 -1.0096 0
M  V30 2875 H 259.579 -0.728644 -4.15053 0
M  V30 2876 H 258.254 0.0427798 -3.23672 0
M  V30 2877 H 257.161 -2.26038 -2.9809 0
M  V30 2878 H 258.494 -2.95825 -3.93381 0
M  V30 2879 N 260.146 1.09593 -1.13257 0
M  V30 2880 C 261.056 2.19739 -0.821691 0
M  V30 2881 C 262.072 1.72926 0.19302 0
M  V30 2882 O 263.248 2.01385 0.0244895 0
M  V30 2883 C 260.313 3.45482 -0.290333 0
M  V30 2884 C 259.374 4.06985 -1.36607 0
M  V30 2885 C 258.607 5.26726 -0.859975 0
M  V30 2886 O 258.83 5.69594 0.303082 0
M  V30 2887 O 257.764 5.7931 -1.63351 0
M  V30 2888 H 261.59 2.48781 -1.74189 0
M  V30 2889 H 259.175 1.18496 -0.909894 0
M  V30 2890 H 261.057 4.214 0.000674022 0
M  V30 2891 H 259.732 3.18047 0.602306 0
M  V30 2892 H 258.639 3.32712 -1.71037 0
M  V30 2893 H 259.972 4.38643 -2.23279 0
M  V30 2894 N 261.624 0.925811 1.2754 0
M  V30 2895 C 262.87 0.566092 1.94739 0
M  V30 2896 C 263.203 -0.890057 1.72603 0
M  V30 2897 O 262.478 -1.63467 1.05399 0
M  V30 2898 C 262.761 0.89054 3.48915 0
M  V30 2899 C 262.614 2.4003 3.80402 0
M  V30 2900 C 263.933 0.395101 4.38323 0
M  V30 2901 H 261.052 0.20714 0.707292 0
M  V30 2902 H 263.694 1.15725 1.50691 0
M  V30 2903 H 261.844 0.387452 3.86563 0
M  V30 2904 H 263.516 2.97494 3.52555 0
M  V30 2905 H 261.759 2.85028 3.2702 0
M  V30 2906 H 262.43 2.57785 4.8811 0
M  V30 2907 H 264.906 0.826241 4.07814 0
M  V30 2908 H 263.782 0.651086 5.45025 0
M  V30 2909 H 264.043 -0.704798 4.36446 0
M  V30 2910 N 263.102 -1.41638 0.69111 0
M  V30 2911 C 264.349 -2.01299 0.220193 0
M  V30 2912 C 264.677 -1.54715 -1.17871 0
M  V30 2913 O 263.932 -0.747193 -1.80874 0
M  V30 2914 C 264.231 -3.56714 0.221277 0
M  V30 2915 C 263.897 -4.22792 1.56709 0
M  V30 2916 C 262.559 -4.40557 1.93554 0
M  V30 2917 C 264.911 -4.59883 2.45268 0
M  V30 2918 C 262.239 -4.92688 3.18552 0
M  V30 2919 C 264.591 -5.13403 3.69595 0
M  V30 2920 C 263.255 -5.29379 4.06589 0
M  V30 2921 H 262.525 -0.736606 0.0805743 0
M  V30 2922 H 265.172 -1.69598 0.889319 0
M  V30 2923 H 263.477 -3.8818 -0.531391 0
M  V30 2924 H 265.174 -4.00678 -0.160547 0
M  V30 2925 H 261.764 -4.09336 1.2705 0
M  V30 2926 H 265.948 -4.45817 2.18084 0
M  V30 2927 H 261.204 -5.03242 3.47214 0
M  V30 2928 H 265.378 -5.41084 4.38407 0
M  V30 2929 H 263.005 -5.69537 5.03519 0
M  V30 2930 N 264.58 -0.43555 -1.51462 0
M  V30 2931 C 265.857 0.191364 -1.94662 0
M  V30 2932 C 266.237 1.60254 -1.37411 0
M  V30 2933 O 265.585 2.2152 -0.560458 0
M  V30 2934 C 265.795 0.17091 -3.48581 0
M  V30 2935 C 267.143 0.377357 -4.2292 0
M  V30 2936 O 268.167 0.249104 -3.55328 0
M  V30 2937 O 267.026 0.63247 -5.42828 0
M  V30 2938 H 264.12 0.130932 -0.816569 0
M  V30 2939 H 266.666 -0.4934 -1.62369 0
M  V30 2940 H 265.438 -0.815738 -3.82703 0
M  V30 2941 H 265.061 0.898659 -3.87311 0
M  V30 2942 N 266.058 1.56714 -0.166846 0
M  V30 2943 C 267.305 1.96747 0.479252 0
M  V30 2944 C 267.633 1.05263 1.63554 0
M  V30 2945 O 266.888 0.0858098 1.95512 0
M  V30 2946 C 267.187 3.42889 1.00806 0
M  V30 2947 C 266.853 4.50889 -0.0318574 0
M  V30 2948 C 265.515 4.8015 -0.317675 0
M  V30 2949 C 267.867 5.15949 -0.737956 0
M  V30 2950 C 265.195 5.71772 -1.31506 0
M  V30 2951 C 267.547 6.08647 -1.72429 0
M  V30 2952 C 266.211 6.36277 -2.0176 0
M  V30 2953 H 265.481 0.719949 0.175371 0
M  V30 2954 H 268.128 1.89756 -0.257864 0
M  V30 2955 H 266.433 3.4681 1.82291 0
M  V30 2956 H 268.13 3.71203 1.51689 0
M  V30 2957 H 264.72 4.28128 0.201088 0
M  V30 2958 H 268.904 4.93458 -0.530351 0
M  V30 2959 H 264.16 5.91465 -1.54853 0
M  V30 2960 H 268.334 6.58129 -2.27682 0
M  V30 2961 H 265.961 7.07075 -2.79194 0
M  V30 2962 N 267.536 -0.106894 1.57237 0
M  V30 2963 C 268.761 -0.830287 1.90055 0
M  V30 2964 C 269.186 -1.72064 0.75998 0
M  V30 2965 O 268.544 -1.78982 -0.288991 0
M  V30 2966 C 268.592 -1.6295 3.21683 0
M  V30 2967 O 267.696 -2.73748 3.08441 0
M  V30 2968 H 267.037 -0.228855 0.623315 0
M  V30 2969 H 269.567 -0.085658 2.04421 0
M  V30 2970 H 269.577 -2.01621 3.54701 0
M  V30 2971 H 268.252 -0.975989 4.04286 0
M  V30 2972 H 266.829 -2.38192 2.86913 0
M  V30 2973 N 269.014 -1.53014 -0.377408 0
M  V30 2974 C 270.239 -1.72818 -1.14668 0
M  V30 2975 C 270.664 -0.450725 -1.8262 0
M  V30 2976 O 270.022 0.59439 -1.7128 0
M  V30 2977 C 270.07 -2.88627 -2.16164 0
M  V30 2978 O 269.174 -2.56409 -3.22998 0
M  V30 2979 H 268.515 -0.574301 -0.333278 0
M  V30 2980 H 271.045 -1.99853 -0.438152 0
M  V30 2981 H 271.055 -3.14455 -2.59966 0
M  V30 2982 H 269.73 -3.81294 -1.66095 0
M  V30 2983 H 268.307 -2.4136 -2.84253 0
M  V30 2984 N 270.492 0.636531 -1.44174 0
M  V30 2985 C 271.74 1.39343 -1.46383 0
M  V30 2986 C 272.061 1.94766 -0.0955715 0
M  V30 2987 O 271.331 1.75452 0.871395 0
M  V30 2988 H 269.911 0.517199 -0.538994 0
M  V30 2989 H 272.573 0.74957 -1.7991 0
M  V30 2990 H 271.669 2.22746 -2.18611 0
M  V30 2991 N 271.97 1.30982 0.876444 0
M  V30 2992 C 272.902 1.13902 1.98894 0
M  V30 2993 C 273.915 0.0798815 1.62604 0
M  V30 2994 O 275.104 0.326743 1.75484 0
M  V30 2995 C 272.204 0.716699 3.31235 0
M  V30 2996 C 271.377 1.85945 3.95908 0
M  V30 2997 C 270.436 1.42426 5.06558 0
M  V30 2998 O 269.462 2.13287 5.27729 0
M  V30 2999 N 270.664 0.308025 5.79682 0
M  V30 3000 H 273.429 2.09724 2.14094 0
M  V30 3001 H 270.99 1.2323 1.05004 0
M  V30 3002 H 272.982 0.408403 4.02634 0
M  V30 3003 H 271.552 -0.149719 3.12241 0
M  V30 3004 H 270.772 2.33541 3.17573 0
M  V30 3005 H 272.06 2.62503 4.35855 0
M  V30 3006 H 271.458 -0.282241 5.64995 0
M  V30 3007 H 270.015 0.0592282 6.51773 0
M  V30 3008 N 273.449 -1.08991 1.13837 0
M  V30 3009 C 274.698 -1.80631 0.897509 0
M  V30 3010 C 275.011 -1.86872 -0.57777 0
M  V30 3011 O 276.217 -2.54866 -0.935701 0
M  V30 3012 C 274.673 -3.24517 1.55618 0
M  V30 3013 C 274.281 -3.26529 3.0673 0
M  V30 3014 C 276.025 -4.00882 1.3962 0
M  V30 3015 C 273.932 -4.64965 3.65461 0
M  V30 3016 H 272.862 -0.67691 0.332129 0
M  V30 3017 H 275.513 -1.2246 1.3666 0
M  V30 3018 H 273.895 -3.82778 1.01476 0
M  V30 3019 H 275.069 -2.78008 3.67489 0
M  V30 3020 H 273.384 -2.63656 3.22296 0
M  V30 3021 H 275.981 -5.03167 1.80906 0
M  V30 3022 H 276.324 -4.14896 0.341578 0
M  V30 3023 H 276.857 -3.49075 1.90766 0
M  V30 3024 H 273.596 -4.56153 4.70749 0
M  V30 3025 H 273.116 -5.13792 3.09481 0
M  V30 3026 H 274.795 -5.3394 3.654 0
M  V30 3027 N 274.927 -0.932562 -1.27047 0
M  V30 3028 C 276.155 -0.592031 -1.98249 0
M  V30 3029 C 276.57 0.831062 -1.69525 0
M  V30 3030 O 275.927 1.55299 -0.958561 0
M  V30 3031 C 275.978 -0.814279 -3.5221 0
M  V30 3032 O 275.699 -2.18139 -3.7993 0
M  V30 3033 C 277.2 -0.483121 -4.4066 0
M  V30 3034 H 274.42 -0.223896 -0.632544 0
M  V30 3035 H 276.964 -1.25091 -1.61779 0
M  V30 3036 H 275.119 -0.20213 -3.86872 0
M  V30 3037 H 275.533 -2.235 -4.74498 0
M  V30 3038 H 277.007 -0.689298 -5.47679 0
M  V30 3039 H 277.484 0.581546 -4.35333 0
M  V30 3040 H 278.09 -1.07362 -4.11526 0
M  V30 3041 N 276.405 1.4127 -0.698611 0
M  V30 3042 C 277.337 2.292 0.00399731 0
M  V30 3043 C 278.35 1.44944 0.741279 0
M  V30 3044 O 279.539 1.68416 0.591477 0
M  V30 3045 C 276.639 3.22875 1.02979 0
M  V30 3046 C 275.812 4.35904 0.36151 0
M  V30 3047 C 274.871 5.10134 1.29033 0
M  V30 3048 O 273.897 5.63809 0.781562 0
M  V30 3049 N 275.099 5.17885 2.6225 0
M  V30 3050 H 277.864 2.9014 -0.750921 0
M  V30 3051 H 275.425 1.52455 -0.544882 0
M  V30 3052 H 277.417 3.69404 1.65296 0
M  V30 3053 H 275.987 2.63221 1.68622 0
M  V30 3054 H 275.207 3.91719 -0.441584 0
M  V30 3055 H 276.495 5.08696 -0.103055 0
M  V30 3056 H 275.893 4.7573 3.061 0
M  V30 3057 H 274.45 5.6798 3.19754 0
M  V30 3058 N 277.883 0.443576 1.51229 0
M  V30 3059 C 279.129 -0.120975 2.02439 0
M  V30 3060 C 279.462 -1.41815 1.32674 0
M  V30 3061 O 278.737 -1.89373 0.443622 0
M  V30 3062 C 279.02 -0.333291 3.58554 0
M  V30 3063 C 278.873 0.982968 4.38928 0
M  V30 3064 C 280.192 -1.10028 4.26124 0
M  V30 3065 H 277.311 -0.0424923 0.735774 0
M  V30 3066 H 279.953 0.583794 1.80809 0
M  V30 3067 H 278.103 -0.933614 3.77115 0
M  V30 3068 H 279.775 1.61775 4.32003 0
M  V30 3069 H 278.018 1.58611 4.03763 0
M  V30 3070 H 278.689 0.788379 5.46341 0
M  V30 3071 H 281.165 -0.591711 4.11871 0
M  V30 3072 H 280.041 -1.21761 5.35225 0
M  V30 3073 H 280.302 -2.12996 3.87408 0
M  V30 3074 N 279.361 -1.56624 0.175154 0
M  V30 3075 C 280.308 -2.18149 -0.753634 0
M  V30 3076 C 281.278 -1.12265 -1.22417 0
M  V30 3077 O 282.463 -1.40432 -1.29165 0
M  V30 3078 C 279.603 -2.82933 -1.97592 0
M  V30 3079 C 278.716 -4.03289 -1.5486 0
M  V30 3080 C 277.851 -4.55988 -2.72485 0
M  V30 3081 C 276.89 -5.68746 -2.26262 0
M  V30 3082 N 276.027 -6.15938 -3.36994 0
M  V30 3083 H 280.867 -2.9717 -0.222195 0
M  V30 3084 H 278.404 -1.46774 -0.0979422 0
M  V30 3085 H 280.362 -3.18653 -2.69288 0
M  V30 3086 H 278.992 -2.06509 -2.481 0
M  V30 3087 H 278.044 -3.73364 -0.728246 0
M  V30 3088 H 279.356 -4.849 -1.16933 0
M  V30 3089 H 278.51 -4.9391 -3.52332 0
M  V30 3090 H 277.249 -3.73443 -3.13674 0
M  V30 3091 H 276.254 -5.30372 -1.44863 0
M  V30 3092 H 277.479 -6.53095 -1.86127 0
M  V30 3093 H 275.425 -5.36321 -3.77751 0
M  V30 3094 H 275.342 -6.92548 -3.03172 0
M  V30 3095 H 276.61 -6.58511 -4.17114 0
M  V30 3096 N 280.839 0.0985539 -1.57292 0
M  V30 3097 C 282.064 0.820196 -1.90493 0
M  V30 3098 C 282.489 1.71658 -0.769094 0
M  V30 3099 O 281.847 1.79133 0.279495 0
M  V30 3100 C 281.895 1.61242 -3.22542 0
M  V30 3101 O 280.999 2.72108 -3.09888 0
M  V30 3102 H 280.34 0.225547 -0.62452 0
M  V30 3103 H 282.87 0.0748159 -2.04463 0
M  V30 3104 H 282.88 1.99737 -3.55766 0
M  V30 3105 H 281.555 0.954535 -4.04798 0
M  V30 3106 H 280.132 2.36667 -2.88172 0
M  V30 3107 N 282.317 1.53212 0.369288 0
M  V30 3108 C 283.264 1.79388 1.45219 0
M  V30 3109 C 284.234 0.638059 1.53356 0
M  V30 3110 O 285.419 0.879852 1.69302 0
M  V30 3111 C 282.559 1.98623 2.82211 0
M  V30 3112 C 281.672 3.26337 2.8307 0
M  V30 3113 C 280.807 3.35779 4.11614 0
M  V30 3114 C 279.846 4.5754 4.06601 0
M  V30 3115 N 278.983 4.64155 5.26787 0
M  V30 3116 H 283.823 2.71794 1.22198 0
M  V30 3117 H 281.36 1.34642 0.592444 0
M  V30 3118 H 283.318 2.07761 3.61789 0
M  V30 3119 H 281.948 1.09558 3.03639 0
M  V30 3120 H 281 3.26171 1.95747 0
M  V30 3121 H 282.312 4.15988 2.75237 0
M  V30 3122 H 281.466 3.44208 4.99606 0
M  V30 3123 H 280.205 2.44137 4.22195 0
M  V30 3124 H 279.21 4.49215 3.16996 0
M  V30 3125 H 280.435 5.50519 3.97625 0
M  V30 3126 H 278.381 3.75413 5.3796 0
M  V30 3127 H 278.298 5.47706 5.21109 0
M  V30 3128 H 279.566 4.76863 6.16621 0
M  V30 3129 N 283.795 -0.628877 1.44509 0
M  V30 3130 C 284.745 -1.7345 1.47983 0
M  V30 3131 C 285.729 -1.5715 0.345373 0
M  V30 3132 O 286.921 -1.66848 0.590829 0
M  V30 3133 C 284.05 -3.12143 1.42904 0
M  V30 3134 C 283.136 -3.33906 2.61472 0
M  V30 3135 N 283.527 -3.26024 3.86706 0
M  V30 3136 C 281.825 -3.64709 2.56716 0
M  V30 3137 C 282.526 -3.48536 4.65722 0
M  V30 3138 N 281.502 -3.71517 3.96832 0
M  V30 3139 H 285.304 -1.65818 2.42655 0
M  V30 3140 H 282.818 -0.831419 1.39503 0
M  V30 3141 H 284.815 -3.91433 1.43476 0
M  V30 3142 H 283.475 -3.2094 0.492717 0
M  V30 3143 H 284.486 -3.04893 4.18641 0
M  V30 3144 H 281.163 -3.80473 1.71891 0
M  V30 3145 H 282.553 -3.48016 5.74747 0
M  V30 3146 N 285.273 -1.31445 -0.869486 0
M  V30 3147 C 286.203 -1.21727 -1.99261 0
M  V30 3148 C 287.184 -0.104359 -1.6978 0
M  V30 3149 O 288.369 -0.289038 -1.92037 0
M  V30 3150 C 285.499 -0.924317 -3.34774 0
M  V30 3151 C 284.453 -1.99685 -3.78563 0
M  V30 3152 C 283.779 -1.55658 -5.11541 0
M  V30 3153 C 285.079 -3.41003 -3.95619 0
M  V30 3154 H 286.773 -2.1569 -2.07649 0
M  V30 3155 H 284.319 -1.03839 -0.997675 0
M  V30 3156 H 286.272 -0.842934 -4.12883 0
M  V30 3157 H 284.996 0.0509793 -3.2656 0
M  V30 3158 H 283.655 -2.06813 -3.02694 0
M  V30 3159 H 283.303 -0.569132 -4.9977 0
M  V30 3160 H 283.003 -2.27409 -5.41811 0
M  V30 3161 H 284.527 -1.48928 -5.92159 0
M  V30 3162 H 285.941 -3.36547 -4.64122 0
M  V30 3163 H 284.338 -4.10975 -4.37286 0
M  V30 3164 H 285.408 -3.81754 -2.98985 0
M  V30 3165 N 286.751 1.08385 -1.14413 0
M  V30 3166 C 287.698 2.15311 -0.831265 0
M  V30 3167 C 288.668 1.64751 0.211292 0
M  V30 3168 O 289.853 1.90627 0.0811674 0
M  V30 3169 C 286.993 3.43658 -0.315143 0
M  V30 3170 C 286.106 4.08064 -1.41802 0
M  V30 3171 C 285.241 5.24207 -0.859126 0
M  V30 3172 C 284.28 5.80554 -1.93967 0
M  V30 3173 N 283.417 6.88042 -1.39793 0
M  V30 3174 H 288.257 2.41415 -1.74708 0
M  V30 3175 H 285.794 1.18474 -0.871909 0
M  V30 3176 H 287.752 4.172 0.00230884 0
M  V30 3177 H 286.382 3.17839 0.56378 0
M  V30 3178 H 285.434 3.3228 -1.85187 0
M  V30 3179 H 286.746 4.45962 -2.23427 0
M  V30 3180 H 285.9 6.04689 -0.49359 0
M  V30 3181 H 284.639 4.87699 -0.011932 0
M  V30 3182 H 283.644 4.98725 -2.31415 0
M  V30 3183 H 284.869 6.19121 -2.79046 0
M  V30 3184 H 282.815 6.53493 -0.572919 0
M  V30 3185 H 282.732 7.24767 -2.15054 0
M  V30 3186 H 284 7.72255 -1.0603 0
M  V30 3187 N 288.23 0.939286 1.26551 0
M  V30 3188 C 289.507 0.5038 1.89001 0
M  V30 3189 C 289.887 -1.01854 1.84903 0
M  V30 3190 O 289.235 -1.87773 1.30206 0
M  V30 3191 C 289.445 1.063 3.32417 0
M  V30 3192 C 290.793 1.13051 4.09273 0
M  V30 3193 O 291.817 1.01345 3.41479 0
M  V30 3194 O 290.676 1.31233 5.30509 0
M  V30 3195 H 287.77 0.163897 0.810597 0
M  V30 3196 H 290.316 1.03173 1.34735 0
M  V30 3197 H 289.088 2.10665 3.29752 0
M  V30 3198 H 288.711 0.517408 3.94219 0
M  V30 3199 N 289.708 -1.40897 0.706093 0
M  V30 3200 C 290.933 -2.05895 0.249435 0
M  V30 3201 C 291.358 -1.52823 -1.09666 0
M  V30 3202 O 290.716 -0.659589 -1.68876 0
M  V30 3203 C 290.764 -3.59872 0.22904 0
M  V30 3204 O 289.868 -4.04708 -0.792784 0
M  V30 3205 H 289.209 -0.653206 0.119241 0
M  V30 3206 H 291.739 -1.80471 0.96391 0
M  V30 3207 H 291.749 -4.07951 0.0634791 0
M  V30 3208 H 290.424 -3.97866 1.21141 0
M  V30 3209 H 289.001 -3.68111 -0.59572 0
M  V30 3210 N 291.186 -0.45159 -1.50991 0
M  V30 3211 C 292.119 0.398179 -2.24699 0
M  V30 3212 C 293.097 1.01276 -1.27208 0
M  V30 3213 O 294.281 1.05247 -1.56382 0
M  V30 3214 C 291.408 1.55618 -3.00833 0
M  V30 3215 C 290.454 1.0609 -4.13095 0
M  V30 3216 S 291.287 -0.00865136 -5.35499 0
M  V30 3217 C 292.443 1.15369 -6.15175 0
M  V30 3218 H 292.676 -0.227555 -2.96428 0
M  V30 3219 H 290.209 -0.236251 -1.52582 0
M  V30 3220 H 292.167 2.21997 -3.45293 0
M  V30 3221 H 290.828 2.15337 -2.28667 0
M  V30 3222 H 290.021 1.92726 -4.65696 0
M  V30 3223 H 289.623 0.47513 -3.7097 0
M  V30 3224 H 291.915 2.06925 -6.45126 0
M  V30 3225 H 292.858 0.667344 -7.04948 0
M  V30 3226 H 293.266 1.3987 -5.46897 0
M  V30 3227 N 292.664 1.56529 -0.183458 0
M  V30 3228 C 293.904 1.99141 0.460667 0
M  V30 3229 C 294.268 1.06736 1.59597 0
M  V30 3230 O 295.469 1.38538 2.30349 0
M  V30 3231 C 293.74 3.45358 0.919939 0
M  V30 3232 S 295.299 4.09999 1.56354 0
M  V30 3233 H 292.117 0.695479 0.147748 0
M  V30 3234 H 294.719 1.93429 -0.283782 0
M  V30 3235 H 293.423 4.10315 0.0834208 0
M  V30 3236 H 292.954 3.54862 1.69814 0
M  V30 3237 H 294.969 4.06046 2.85203 0
M  V30 3238 N 294.142 -0.090211 1.57342 0
M  V30 3239 C 295.09 -1.12792 2.03422 0
M  V30 3240 C 296.084 -1.41182 0.936166 0
M  V30 3241 O 297.29 -1.40805 1.12133 0
M  V30 3242 H 293.665 -0.380986 0.648347 0
M  V30 3243 H 295.636 -0.71299 2.89757 0
M  V30 3244 C 294.385 -2.43855 2.47851 0
M  V30 3245 H 293.708 -2.22855 3.31927 0
M  V30 3246 H 295.148 -3.14955 2.83865 0
M  V30 3247 C 293.607 -3.08503 1.3538 0
M  V30 3248 O 294.137 -3.95805 0.685641 0
M  V30 3249 N 292.343 -2.68831 1.10355 0
M  V30 3250 H 291.89 -1.97929 1.64869 0
M  V30 3251 H 291.848 -3.12412 0.353031 0
M  V30 3252 N 295.62 -1.53406 -0.361157 0
M  V30 3253 C 296.53 -1.83122 -1.4664 0
M  V30 3254 C 297.546 -0.719943 -1.58407 0
M  V30 3255 O 298.722 -1.01046 -1.74218 0
M  V30 3256 C 295.787 -2.01891 -2.81853 0
M  V30 3257 C 294.848 -3.25784 -2.79577 0
M  V30 3258 C 294.081 -3.43648 -4.0834 0
M  V30 3259 O 294.304 -2.65714 -5.0473 0
M  V30 3260 O 293.238 -4.37018 -4.13883 0
M  V30 3261 H 297.064 -2.7703 -1.24451 0
M  V30 3262 H 294.649 -1.38841 -0.551678 0
M  V30 3263 H 296.531 -2.15782 -3.61962 0
M  V30 3264 H 295.206 -1.11173 -3.0401 0
M  V30 3265 H 294.113 -3.17312 -1.98151 0
M  V30 3266 H 295.446 -4.16439 -2.62373 0
M  V30 3267 N 297.098 0.621204 -1.44841 0
M  V30 3268 C 298.345 1.38055 -1.48145 0
M  V30 3269 C 298.673 1.94143 -0.117867 0
M  V30 3270 O 297.928 1.74713 0.881694 0
M  V30 3271 C 298.227 2.55675 -2.4973 0
M  V30 3272 C 297.893 2.17817 -3.94799 0
M  V30 3273 C 296.555 2.07205 -4.34303 0
M  V30 3274 C 298.907 1.88065 -4.86087 0
M  V30 3275 C 296.235 1.65045 -5.63007 0
M  V30 3276 C 298.587 1.47394 -6.15189 0
M  V30 3277 C 297.251 1.35331 -6.53637 0
M  V30 3278 H 296.521 0.505181 -0.542101 0
M  V30 3279 H 299.168 0.703477 -1.78111 0
M  V30 3280 H 297.473 3.2866 -2.13284 0
M  V30 3281 H 299.17 3.13904 -2.4953 0
M  V30 3282 H 295.76 2.26998 -3.63552 0
M  V30 3283 H 299.944 1.95168 -4.56315 0
M  V30 3284 H 295.2 1.54317 -5.91605 0
M  V30 3285 H 299.374 1.23415 -6.85377 0
M  V30 3286 H 297.001 1.02435 -7.53267 0
M  V30 3287 N 298.576 1.31904 0.862503 0
M  V30 3288 C 299.801 1.25135 1.65397 0
M  V30 3289 C 300.226 -0.179 1.87246 0
M  V30 3290 O 299.584 -1.1277 1.4196 0
M  V30 3291 C 299.632 2.00832 2.99498 0
M  V30 3292 O 298.736 1.35075 3.89652 0
M  V30 3293 H 298.077 0.431655 0.504549 0
M  V30 3294 H 300.607 1.74094 1.07483 0
M  V30 3295 H 300.617 2.10709 3.49379 0
M  V30 3296 H 299.292 3.04847 2.82916 0
M  V30 3297 H 297.869 1.33696 3.48109 0
M  V30 3298 N 300.054 -1.07777 1.14986 0
M  V30 3299 C 300.986 -2.14769 0.800436 0
M  V30 3300 C 301.999 -1.61739 -0.185595 0
M  V30 3301 O 303.188 -1.78462 0.0370358 0
M  V30 3302 C 300.288 -3.38481 0.168533 0
M  V30 3303 C 299.461 -4.20876 1.1909 0
M  V30 3304 C 298.52 -5.22976 0.581575 0
M  V30 3305 O 297.546 -5.55388 1.24633 0
M  V30 3306 N 298.748 -5.76976 -0.638706 0
M  V30 3307 H 301.513 -2.45348 1.72118 0
M  V30 3308 H 299.074 -1.23645 1.04515 0
M  V30 3309 H 301.066 -4.03916 -0.251764 0
M  V30 3310 H 299.636 -3.05651 -0.655467 0
M  V30 3311 H 298.856 -3.51322 1.78791 0
M  V30 3312 H 300.144 -4.7274 1.88133 0
M  V30 3313 H 299.542 -5.52886 -1.19723 0
M  V30 3314 H 298.099 -6.44061 -1.00142 0
M  V30 3315 N 301.532 -0.945985 -1.26051 0
M  V30 3316 C 302.781 -0.591836 -1.92822 0
M  V30 3317 C 303.094 0.873956 -1.7499 0
M  V30 3318 O 304.3 1.33769 -2.36259 0
M  V30 3319 C 302.756 -1.00776 -3.45503 0
M  V30 3320 C 302.364 -2.4955 -3.7206 0
M  V30 3321 C 304.108 -0.725735 -4.1825 0
M  V30 3322 C 302.015 -2.84988 -5.18205 0
M  V30 3323 H 300.945 -0.217635 -0.721908 0
M  V30 3324 H 303.596 -1.14927 -1.43052 0
M  V30 3325 H 301.978 -0.378812 -3.94184 0
M  V30 3326 H 303.152 -3.1739 -3.34066 0
M  V30 3327 H 301.467 -2.75133 -3.12555 0
M  V30 3328 H 304.064 -0.966771 -5.25887 0
M  V30 3329 H 304.407 0.337639 -4.14929 0
M  V30 3330 H 304.94 -1.31463 -3.7545 0
M  V30 3331 H 301.679 -3.90307 -5.26631 0
M  V30 3332 H 301.199 -2.21813 -5.57278 0
M  V30 3333 H 302.878 -2.73712 -5.86252 0
M  V30 3334 N 303.011 1.40521 -0.713556 0
M  V30 3335 C 304.258 2.00923 -0.25219 0
M  V30 3336 C 304.586 1.56571 1.15395 0
M  V30 3337 O 303.841 0.775874 1.79663 0
M  V30 3338 C 304.14 3.56317 -0.278 0
M  V30 3339 C 303.806 4.20246 -1.63415 0
M  V30 3340 C 302.468 4.37422 -2.00538 0
M  V30 3341 C 304.82 4.55923 -2.52554 0
M  V30 3342 C 302.148 4.87558 -3.2635 0
M  V30 3343 C 304.5 5.07458 -3.77716 0
M  V30 3344 C 303.164 5.22843 -4.14959 0
M  V30 3345 H 302.434 0.735231 -0.0922829 0
M  V30 3346 H 305.081 1.68161 -0.916188 0
M  V30 3347 H 303.386 3.88976 0.469567 0
M  V30 3348 H 305.083 4.00883 0.0967819 0
M  V30 3349 H 301.673 4.07263 -1.33546 0
M  V30 3350 H 305.857 4.42291 -2.25149 0
M  V30 3351 H 301.113 4.97654 -3.55176 0
M  V30 3352 H 305.287 5.34041 -4.4696 0
M  V30 3353 H 302.914 5.61454 -5.12516 0
M  V30 3354 N 304.489 0.459591 1.5075 0
M  V30 3355 C 305.421 -0.37665 2.26084 0
M  V30 3356 C 306.434 -0.967109 1.30961 0
M  V30 3357 O 307.623 -0.857468 1.56556 0
M  V30 3358 C 304.723 -1.54112 3.01832 0
M  V30 3359 C 303.896 -1.06553 4.24223 0
M  V30 3360 C 302.955 -2.1027 4.82362 0
M  V30 3361 O 301.981 -1.68798 5.43595 0
M  V30 3362 N 303.183 -3.42974 4.68347 0
M  V30 3363 H 305.948 0.269124 2.98489 0
M  V30 3364 H 303.509 0.28972 1.59287 0
M  V30 3365 H 305.501 -2.23165 3.37608 0
M  V30 3366 H 304.071 -2.0918 2.32298 0
M  V30 3367 H 303.291 -0.201274 3.93686 0
M  V30 3368 H 304.579 -0.725516 5.03601 0
M  V30 3369 H 303.977 -3.79385 4.19623 0
M  V30 3370 H 302.534 -4.07858 5.08424 0
M  V30 3371 N 305.967 -1.56429 0.191757 0
M  V30 3372 C 306.897 -2.21937 -0.725696 0
M  V30 3373 C 307.878 -1.1814 -1.2238 0
M  V30 3374 O 309.063 -1.46636 -1.27325 0
M  V30 3375 C 306.193 -2.87611 -1.94672 0
M  V30 3376 C 305.147 -3.97623 -1.58366 0
M  V30 3377 C 304.473 -4.50446 -2.88102 0
M  V30 3378 C 305.773 -5.16197 -0.796133 0
M  V30 3379 H 307.467 -2.98861 -0.179606 0
M  V30 3380 H 305.013 -1.43749 -0.0849464 0
M  V30 3381 H 306.966 -3.3212 -2.59373 0
M  V30 3382 H 305.69 -2.08087 -2.51728 0
M  V30 3383 H 304.349 -3.53801 -0.960247 0
M  V30 3384 H 303.997 -3.67688 -3.43241 0
M  V30 3385 H 303.697 -5.24675 -2.64556 0
M  V30 3386 H 305.221 -4.97654 -3.53798 0
M  V30 3387 H 306.635 -5.57271 -1.34618 0
M  V30 3388 H 305.032 -5.96471 -0.658928 0
M  V30 3389 H 306.102 -4.84473 0.203478 0
M  V30 3390 N 307.445 0.0818655 -1.57387 0
M  V30 3391 C 308.685 0.788375 -1.88584 0
M  V30 3392 C 309.049 1.75248 -0.784351 0
M  V30 3393 O 310.25 2.50334 -0.979105 0
M  V30 3394 C 308.521 1.48654 -3.25018 0
M  V30 3395 S 310.08 2.22951 -3.7794 0
M  V30 3396 H 306.898 0.262383 -0.660815 0
M  V30 3397 H 309.5 0.0448995 -1.95448 0
M  V30 3398 H 308.204 0.770919 -4.03094 0
M  V30 3399 H 307.735 2.26965 -3.21326 0
M  V30 3400 H 309.75 3.49309 -3.52417 0
M  V30 3401 N 308.923 1.53595 0.353017 0
M  V30 3402 C 309.855 1.77219 1.45348 0
M  V30 3403 C 310.868 0.65324 1.49119 0
M  V30 3404 O 312.057 0.929775 1.52373 0
M  V30 3405 C 309.157 1.84841 2.84055 0
M  V30 3406 C 308.33 3.14649 3.03833 0
M  V30 3407 C 307.389 3.13351 4.22727 0
M  V30 3408 O 306.415 3.87107 4.17297 0
M  V30 3409 N 307.617 2.35052 5.30783 0
M  V30 3410 H 310.382 2.72178 1.25457 0
M  V30 3411 H 307.943 1.52528 0.542833 0
M  V30 3412 H 309.935 1.81435 3.61751 0
M  V30 3413 H 308.505 0.971114 2.97133 0
M  V30 3414 H 307.725 3.31256 2.13689 0
M  V30 3415 H 309.013 4.00411 3.13925 0
M  V30 3416 H 308.411 1.74663 5.38061 0
M  V30 3417 H 306.968 2.37453 6.07009 0
M  V30 3418 N 310.401 -0.613514 1.45168 0
M  V30 3419 C 311.648 -1.37268 1.48875 0
M  V30 3420 C 311.976 -1.94077 0.128161 0
M  V30 3421 O 311.231 -1.75178 -0.872416 0
M  V30 3422 C 311.53 -2.54347 2.51083 0
M  V30 3423 C 311.196 -2.1572 3.95949 0
M  V30 3424 C 309.858 -2.04899 4.35396 0
M  V30 3425 C 312.21 -1.85485 4.87078 0
M  V30 3426 C 309.538 -1.62057 5.63875 0
M  V30 3427 C 311.89 -1.4413 6.15962 0
M  V30 3428 C 310.554 -1.31863 6.54346 0
M  V30 3429 H 309.824 -0.502299 0.544773 0
M  V30 3430 H 312.471 -0.694021 1.78481 0
M  V30 3431 H 310.776 -3.27524 2.15024 0
M  V30 3432 H 312.473 -3.12577 2.51191 0
M  V30 3433 H 309.063 -2.25066 3.64751 0
M  V30 3434 H 313.247 -1.92745 4.57343 0
M  V30 3435 H 308.503 -1.51177 5.92415 0
M  V30 3436 H 312.677 -1.19778 6.86022 0
M  V30 3437 H 310.304 -0.984392 7.538 0
M  V30 3438 N 311.879 -1.3236 -0.855495 0
M  V30 3439 C 313.125 -1.23054 -1.612 0
M  V30 3440 C 313.458 0.207404 -1.93089 0
M  V30 3441 O 312.733 1.14432 -1.57275 0
M  V30 3442 C 313.016 -2.08937 -2.93287 0
M  V30 3443 C 312.869 -3.61105 -2.68185 0
M  V30 3444 C 314.188 -1.94986 -3.94549 0
M  V30 3445 H 311.307 -0.448364 -0.584926 0
M  V30 3446 H 313.949 -1.62297 -0.987917 0
M  V30 3447 H 312.099 -1.75599 -3.46551 0
M  V30 3448 H 313.771 -4.04652 -2.21483 0
M  V30 3449 H 312.014 -3.83813 -2.02164 0
M  V30 3450 H 312.685 -4.16522 -3.62234 0
M  V30 3451 H 315.161 -2.24189 -3.5054 0
M  V30 3452 H 314.037 -2.57356 -4.84829 0
M  V30 3453 H 314.298 -0.917263 -4.3248 0
M  V30 3454 N 313.357 1.07166 -1.15556 0
M  V30 3455 C 314.29 2.13808 -0.797593 0
M  V30 3456 C 315.268 1.6101 0.226812 0
M  V30 3457 O 316.452 1.88161 0.112932 0
M  V30 3458 C 313.579 3.38187 -0.186371 0
M  V30 3459 C 312.625 4.09766 -1.18297 0
M  V30 3460 S 313.458 4.60932 -2.72584 0
M  V30 3461 C 314.614 5.88583 -2.12886 0
M  V30 3462 H 314.847 2.43843 -1.70083 0
M  V30 3463 H 312.38 1.19467 -0.978106 0
M  V30 3464 H 314.338 4.10189 0.159837 0
M  V30 3465 H 312.999 3.06326 0.694489 0
M  V30 3466 H 312.192 4.99065 -0.703562 0
M  V30 3467 H 311.794 3.43736 -1.47381 0
M  V30 3468 H 314.086 6.60866 -1.49208 0
M  V30 3469 H 315.029 6.41241 -3.0036 0
M  V30 3470 H 315.437 5.42194 -1.57116 0
M  V30 3471 N 314.835 0.952656 1.25548 0
M  V30 3472 C 315.745 0.47782 2.29682 0
M  V30 3473 C 316.761 -0.453859 1.67977 0
M  V30 3474 O 317.937 -0.330587 1.98668 0
M  V30 3475 C 315.002 -0.238655 3.45878 0
M  V30 3476 C 314.063 0.730994 4.23031 0
M  V30 3477 C 313.296 0.0486165 5.33678 0
M  V30 3478 O 313.519 -1.16612 5.58353 0
M  V30 3479 O 312.453 0.733152 5.97418 0
M  V30 3480 H 316.279 1.34312 2.72386 0
M  V30 3481 H 313.864 0.719026 1.30959 0
M  V30 3482 H 315.746 -0.641774 4.16484 0
M  V30 3483 H 314.421 -1.07916 3.05181 0
M  V30 3484 H 313.328 1.18428 3.5486 0
M  V30 3485 H 314.661 1.53946 4.67506 0
M  V30 3486 N 316.313 -1.40141 0.720998 0
M  V30 3487 C 317.261 -2.3252 0.0608547 0
M  V30 3488 C 318.255 -1.52326 -0.741152 0
M  V30 3489 O 319.461 -1.68089 -0.643911 0
M  V30 3490 H 315.836 -0.751999 0.000876664 0
M  V30 3491 H 317.807 -2.8584 0.856614 0
M  V30 3492 C 316.556 -3.37331 -0.842809 0
M  V30 3493 H 315.879 -3.99108 -0.235084 0
M  V30 3494 H 317.319 -4.04452 -1.27257 0
M  V30 3495 C 315.778 -2.73246 -1.97074 0
M  V30 3496 O 316.308 -2.59998 -3.06209 0
M  V30 3497 N 314.514 -2.31547 -1.75597 0
M  V30 3498 H 314.061 -2.42522 -0.868368 0
M  V30 3499 H 314.019 -1.89007 -2.51244 0
M  V30 3500 N 317.792 -0.46758 -1.50504 0
M  V30 3501 C 319.017 0.0886943 -2.0721 0
M  V30 3502 C 319.442 1.33057 -1.32956 0
M  V30 3503 O 318.8 1.77354 -0.376197 0
M  V30 3504 C 318.848 0.359202 -3.58806 0
M  V30 3505 O 317.952 1.44034 -3.8643 0
M  V30 3506 H 317.293 -0.0114349 -0.663902 0
M  V30 3507 H 319.823 -0.657613 -1.93744 0
M  V30 3508 H 319.833 0.600742 -4.03553 0
M  V30 3509 H 318.508 -0.548311 -4.1227 0
M  V30 3510 H 317.085 1.18638 -3.53524 0
M  V30 3511 N 319.27 1.56325 -0.20005 0
M  V30 3512 C 320.202 2.16555 0.750771 0
M  V30 3513 C 321.215 1.12871 1.1732 0
M  V30 3514 O 322.404 1.39943 1.10807 0
M  V30 3515 C 319.504 2.71684 2.02586 0
M  V30 3516 C 318.677 4.00321 1.76244 0
M  V30 3517 C 317.736 4.40227 2.88248 0
M  V30 3518 O 316.762 5.07552 2.57642 0
M  V30 3519 N 317.964 4.04138 4.16717 0
M  V30 3520 H 320.729 2.98772 0.235685 0
M  V30 3521 H 318.29 1.6189 -0.0182594 0
M  V30 3522 H 320.282 2.95363 2.76664 0
M  V30 3523 H 318.852 1.93893 2.45202 0
M  V30 3524 H 318.072 3.84723 0.85919 0
M  V30 3525 H 319.36 4.84279 1.56048 0
M  V30 3526 H 318.758 3.49993 4.44434 0
M  V30 3527 H 317.315 4.32756 4.87407 0
M  V30 3528 N 320.748 -0.0735177 1.57428 0
M  V30 3529 C 321.696 -1.10628 2.04607 0
M  V30 3530 C 322.69 -1.40181 0.951088 0
M  V30 3531 O 323.896 -1.39608 1.1362 0
M  V30 3532 H 320.271 -0.374088 0.652351 0
M  V30 3533 H 322.242 -0.682218 2.90497 0
M  V30 3534 C 320.991 -2.41212 2.50423 0
M  V30 3535 H 320.314 -2.19322 3.34272 0
M  V30 3536 H 321.754 -3.11927 2.87189 0
M  V30 3537 C 320.213 -3.0705 1.38644 0
M  V30 3538 O 320.743 -3.95056 0.727582 0
M  V30 3539 N 318.949 -2.67645 1.132 0
M  V30 3540 H 318.496 -1.96169 1.66959 0
M  V30 3541 H 318.454 -3.1202 0.386147 0
M  V30 3542 N 322.226 -1.5378 -0.344866 0
M  V30 3543 C 323.189 -1.80981 -1.40637 0
M  V30 3544 C 324.189 -0.680816 -1.45676 0
M  V30 3545 O 325.379 -0.949095 -1.46075 0
M  V30 3546 C 322.511 -1.95063 -2.79577 0
M  V30 3547 H 323.704 -2.75803 -1.17783 0
M  V30 3548 H 321.257 -1.45173 -0.579181 0
M  V30 3549 H 321.992 -1.02379 -3.07716 0
M  V30 3550 H 321.777 -2.77198 -2.77315 0
M  V30 3551 H 323.267 -2.17629 -3.56409 0
M  V30 3552 N 323.704 0.605807 -1.45491 0
M  V30 3553 C 325.115 1.18777 -1.44045 0
M  V30 3554 C 325.466 1.95471 -0.169001 0
M  V30 3555 O 324.591 2.0374 0.729324 0
M  V30 3556 C 325.186 2.16064 -2.60963 0
M  V30 3557 C 323.745 2.69633 -2.62631 0
M  V30 3558 C 322.892 1.45072 -2.36325 0
M  V30 3559 H 325.843 0.395017 -1.53705 0
M  V30 3560 H 325.864 2.9913 -2.35163 0
M  V30 3561 H 325.376 1.60217 -3.53486 0
M  V30 3562 H 323.477 3.29414 -1.74119 0
M  V30 3563 H 323.59 3.13944 -3.61906 0
M  V30 3564 H 321.954 1.74089 -1.85917 0
M  V30 3565 H 322.737 0.910899 -3.30995 0
M  V30 3566 N 325.182 1.32811 0.848464 0
M  V30 3567 C 326.112 1.24882 1.97299 0
M  V30 3568 C 327.093 0.131357 1.69592 0
M  V30 3569 O 328.278 0.319553 1.91553 0
M  V30 3570 C 325.408 0.97746 3.33261 0
M  V30 3571 C 324.362 2.05682 3.75338 0
M  V30 3572 C 323.688 1.63777 5.09 0
M  V30 3573 C 324.988 3.47254 3.90144 0
M  V30 3574 H 326.682 2.18966 2.04191 0
M  V30 3575 H 324.228 1.05413 0.981029 0
M  V30 3576 H 326.181 0.908513 4.1149 0
M  V30 3577 H 324.905 0.000980011 3.266 0
M  V30 3578 H 323.564 2.11603 2.99366 0
M  V30 3579 H 323.212 0.648569 4.98801 0
M  V30 3580 H 322.912 2.36 5.38124 0
M  V30 3581 H 324.436 1.5833 5.89715 0
M  V30 3582 H 325.85 3.43888 4.58709 0
M  V30 3583 H 324.247 4.1788 4.30693 0
M  V30 3584 H 325.317 3.86462 2.92874 0
M  V30 3585 N 326.66 -1.06551 1.16123 0
M  V30 3586 C 327.906 -1.79567 0.94252 0
M  V30 3587 C 328.239 -1.86869 -0.528547 0
M  V30 3588 O 327.514 -1.35838 -1.39206 0
M  V30 3589 C 327.797 -3.24195 1.56747 0
M  V30 3590 C 327.65 -3.24989 3.10969 0
M  V30 3591 C 328.969 -4.21678 1.25998 0
M  V30 3592 H 326.088 -0.651883 0.343828 0
M  V30 3593 H 328.73 -1.2463 1.43413 0
M  V30 3594 H 326.88 -3.71107 1.14942 0
M  V30 3595 H 328.552 -2.86258 3.61737 0
M  V30 3596 H 326.795 -2.63716 3.44436 0
M  V30 3597 H 327.466 -4.27005 3.49815 0
M  V30 3598 H 329.942 -3.83196 1.62174 0
M  V30 3599 H 328.818 -5.21146 1.7233 0
M  V30 3600 H 329.079 -4.4174 0.178367 0
M  V30 3601 N 328.138 -0.959301 -1.25041 0
M  V30 3602 C 329.088 -0.453888 -2.23436 0
M  V30 3603 C 330.072 0.459461 -1.542 0
M  V30 3604 O 331.264 0.291752 -1.74579 0
M  V30 3605 C 328.393 0.262667 -3.42294 0
M  V30 3606 C 327.479 -0.669022 -4.1879 0
M  V30 3607 N 327.87 -1.80267 -4.72586 0
M  V30 3608 C 326.168 -0.47814 -4.4343 0
M  V30 3609 C 326.869 -2.38475 -5.3057 0
M  V30 3610 N 325.845 -1.67078 -5.17287 0
M  V30 3611 H 329.647 -1.319 -2.6264 0
M  V30 3612 H 327.161 -0.817358 -1.40332 0
M  V30 3613 H 329.158 0.641911 -4.11929 0
M  V30 3614 H 327.818 1.12432 -3.04613 0
M  V30 3615 H 328.829 -2.18442 -4.69578 0
M  V30 3616 H 325.506 0.340249 -4.16111 0
M  V30 3617 H 326.896 -3.34094 -5.8295 0
M  V30 3618 N 329.616 1.39756 -0.72842 0
M  V30 3619 C 330.579 2.29012 -0.0927297 0
M  V30 3620 C 331.579 1.45992 0.674025 0
M  V30 3621 O 332.769 1.66749 0.50402 0
M  V30 3622 C 329.901 3.29396 0.878137 0
M  V30 3623 H 331.094 2.86729 -0.879011 0
M  V30 3624 H 328.647 1.48293 -0.493847 0
M  V30 3625 H 329.382 2.76722 1.69101 0
M  V30 3626 H 329.167 3.907 0.331051 0
M  V30 3627 H 330.657 3.96199 1.3197 0
M  V30 3628 N 331.094 0.475555 1.50254 0
M  V30 3629 C 332.322 -0.0754493 2.06762 0
M  V30 3630 C 332.737 -1.33111 1.33891 0
M  V30 3631 O 332.094 -1.77846 0.40952 0
M  V30 3632 C 332.145 -0.359008 3.59713 0
M  V30 3633 O 331.866 0.846851 4.29837 0
M  V30 3634 C 333.367 -0.956484 4.32858 0
M  V30 3635 H 330.587 0.00907525 0.670939 0
M  V30 3636 H 333.131 0.665618 1.93364 0
M  V30 3637 H 331.286 -1.05001 3.72899 0
M  V30 3638 H 331.7 0.594162 5.21124 0
M  V30 3639 H 333.174 -1.10463 5.40834 0
M  V30 3640 H 333.651 -1.94775 3.93649 0
M  V30 3641 H 334.257 -0.303723 4.24214 0
M  V30 3642 N 332.573 -1.56217 0.208337 0
M  V30 3643 C 333.503 -2.22694 -0.702116 0
M  V30 3644 C 334.484 -1.19432 -1.2112 0
M  V30 3645 O 335.669 -1.47978 -1.25762 0
M  V30 3646 C 332.799 -2.8966 -1.9161 0
M  V30 3647 C 331.753 -3.9928 -1.5414 0
M  V30 3648 C 331.079 -4.53476 -2.83308 0
M  V30 3649 C 332.379 -5.17012 -0.741339 0
M  V30 3650 H 334.073 -2.99034 -0.147898 0
M  V30 3651 H 331.619 -1.43831 -0.0696951 0
M  V30 3652 H 333.572 -3.34852 -2.55836 0
M  V30 3653 H 332.296 -2.10746 -2.49507 0
M  V30 3654 H 330.955 -3.54799 -0.922668 0
M  V30 3655 H 330.603 -3.71308 -3.39322 0
M  V30 3656 H 330.303 -5.27451 -2.58976 0
M  V30 3657 H 331.827 -5.01378 -3.485 0
M  V30 3658 H 333.241 -5.58667 -1.28699 0
M  V30 3659 H 331.638 -5.97137 -0.595627 0
M  V30 3660 H 332.708 -4.8423 0.254851 0
M  V30 3661 N 334.051 0.0651679 -1.57465 0
M  V30 3662 C 334.961 1.09448 -2.07505 0
M  V30 3663 C 335.977 1.41974 -1.00595 0
M  V30 3664 O 337.153 1.52018 -1.32107 0
M  V30 3665 C 334.218 2.38689 -2.51453 0
M  V30 3666 C 333.279 2.13073 -3.72691 0
M  V30 3667 C 332.512 3.36152 -4.14533 0
M  V30 3668 O 332.735 4.45517 -3.56189 0
M  V30 3669 O 331.669 3.23974 -5.07272 0
M  V30 3670 H 335.495 0.69935 -2.95538 0
M  V30 3671 H 333.08 0.279752 -1.46757 0
M  V30 3672 H 334.962 3.14736 -2.80212 0
M  V30 3673 H 333.637 2.77568 -1.66546 0
M  V30 3674 H 332.544 1.34709 -3.49005 0
M  V30 3675 H 333.877 1.79071 -4.5847 0
M  V30 3676 N 335.529 1.53961 0.336706 0
M  V30 3677 C 336.757 1.75483 1.09605 0
M  V30 3678 C 337.172 0.4972 1.82136 0
M  V30 3679 O 336.529 -0.53149 1.74589 0
M  V30 3680 C 336.58 2.93943 2.10428 0
M  V30 3681 O 336.301 4.14842 1.40846 0
M  V30 3682 C 337.802 3.27571 2.98684 0
M  V30 3683 H 335.022 0.586166 0.326574 0
M  V30 3684 H 337.566 2.00808 0.38683 0
M  V30 3685 H 335.721 2.70929 2.76905 0
M  V30 3686 H 336.135 4.81383 2.08255 0
M  V30 3687 H 337.609 4.13791 3.6535 0
M  V30 3688 H 338.086 2.44168 3.65074 0
M  V30 3689 H 338.692 3.52615 2.37787 0
M  V30 3690 N 337.007 -0.598083 1.45811 0
M  V30 3691 C 337.937 -1.71873 1.58057 0
M  V30 3692 C 338.918 -1.64533 0.431615 0
M  V30 3693 O 340.103 -1.82787 0.65595 0
M  V30 3694 C 337.233 -3.10495 1.55597 0
M  V30 3695 C 336.187 -3.32654 2.69305 0
M  V30 3696 C 335.513 -4.71646 2.51902 0
M  V30 3697 C 336.813 -3.21981 4.11248 0
M  V30 3698 H 338.507 -1.61881 2.51863 0
M  V30 3699 H 336.053 -0.777372 1.21214 0
M  V30 3700 H 338.006 -3.88699 1.6276 0
M  V30 3701 H 336.73 -3.2135 0.583255 0
M  V30 3702 H 335.389 -2.56843 2.61586 0
M  V30 3703 H 335.037 -4.79246 1.52748 0
M  V30 3704 H 334.737 -4.87426 3.2816 0
M  V30 3705 H 336.261 -5.52038 2.60933 0
M  V30 3706 H 337.675 -3.90049 4.20161 0
M  V30 3707 H 336.072 -3.49289 4.87972 0
M  V30 3708 H 337.142 -2.1928 4.32486 0
M  V30 3709 N 338.485 -1.33259 -0.841409 0
M  V30 3710 C 339.415 -1.25926 -1.96634 0
M  V30 3711 C 340.396 -0.140349 -1.6952 0
M  V30 3712 O 341.581 -0.329707 -1.91381 0
M  V30 3713 C 338.711 -0.99512 -3.32738 0
M  V30 3714 C 337.665 -2.0767 -3.74242 0
M  V30 3715 C 336.991 -1.66474 -5.08125 0
M  V30 3716 C 338.291 -3.49318 -3.88297 0
M  V30 3717 H 339.985 -2.20046 -2.03027 0
M  V30 3718 H 337.531 -1.05931 -0.975425 0
M  V30 3719 H 339.484 -0.930323 -4.11002 0
M  V30 3720 H 338.208 -0.0183004 -3.26595 0
M  V30 3721 H 336.867 -2.13187 -2.98239 0
M  V30 3722 H 336.515 -0.675012 -4.9845 0
M  V30 3723 H 336.215 -2.3885 -5.36865 0
M  V30 3724 H 337.739 -1.61455 -5.88867 0
M  V30 3725 H 339.153 -3.46316 -4.56879 0
M  V30 3726 H 337.55 -4.20158 -4.28471 0
M  V30 3727 H 338.62 -3.8801 -2.9082 0
M  V30 3728 N 339.963 1.05934 -1.16686 0
M  V30 3729 C 341.379 1.30938 -0.912542 0
M  V30 3730 C 341.579 1.96803 0.432533 0
M  V30 3731 O 340.635 2.23693 1.17123 0
M  V30 3732 C 341.948 2.18649 -2.06429 0
M  V30 3733 C 343.496 2.32055 -2.10047 0
M  V30 3734 C 343.971 3.23122 -3.24586 0
M  V30 3735 N 345.462 3.30706 -3.24327 0
M  V30 3736 C 346.197 4.01273 -4.09594 0
M  V30 3737 N 345.693 4.74332 -5.04956 0
M  V30 3738 N 347.486 3.97361 -3.97569 0
M  V30 3739 H 339.637 0.615777 -2.03278 0
M  V30 3740 H 341.9 0.334077 -0.887185 0
M  V30 3741 H 341.606 1.77534 -3.03603 0
M  V30 3742 H 341.48 3.19252 -2.00894 0
M  V30 3743 H 343.867 2.72415 -1.13464 0
M  V30 3744 H 343.948 1.31107 -2.19647 0
M  V30 3745 H 343.592 2.83477 -4.2143 0
M  V30 3746 H 343.522 4.24057 -3.12223 0
M  V30 3747 H 346.013 2.78644 -2.55276 0
M  V30 3748 H 346.326 5.25716 -5.6643 0
M  V30 3749 H 344.671 4.733 -5.08933 0
M  V30 3750 H 347.862 3.39405 -3.22369 0
M  V30 3751 H 348.035 4.52089 -4.64241 0
M  V30 3752 N 341.441 0.965919 1.2453 0
M  V30 3753 C 342.688 0.626831 1.92554 0
M  V30 3754 C 343.016 -0.837739 1.75534 0
M  V30 3755 O 342.271 -1.61793 1.10098 0
M  V30 3756 C 342.57 0.945428 3.44669 0
M  V30 3757 C 342.236 2.39785 3.81856 0
M  V30 3758 C 340.898 2.79483 3.91718 0
M  V30 3759 C 343.25 3.34055 4.00071 0
M  V30 3760 C 340.578 4.12496 4.1721 0
M  V30 3761 C 342.93 4.66694 4.27059 0
M  V30 3762 C 341.594 5.06172 4.3514 0
M  V30 3763 H 340.864 0.229374 0.704605 0
M  V30 3764 H 343.511 1.21707 1.4785 0
M  V30 3765 H 341.816 0.272926 3.90848 0
M  V30 3766 H 343.513 0.661484 3.95507 0
M  V30 3767 H 340.103 2.08003 3.74743 0
M  V30 3768 H 344.287 3.04571 3.91855 0
M  V30 3769 H 339.543 4.42709 4.21685 0
M  V30 3770 H 343.717 5.3971 4.40097 0
M  V30 3771 H 341.344 6.09262 4.54646 0
M  V30 3772 N 342.919 -1.39368 0.735821 0
M  V30 3773 C 343.849 -2.33234 0.111506 0
M  V30 3774 C 344.83 -1.53954 -0.723334 0
M  V30 3775 O 346.015 -1.82344 -0.668147 0
M  V30 3776 C 343.145 -3.38057 -0.795917 0
M  V30 3777 C 342.099 -4.2795 -0.065172 0
M  V30 3778 C 341.425 -5.23479 -1.08967 0
M  V30 3779 C 342.725 -5.10741 1.09273 0
M  V30 3780 H 344.419 -2.85692 0.895571 0
M  V30 3781 H 341.965 -1.37364 0.432109 0
M  V30 3782 H 343.918 -4.02675 -1.24221 0
M  V30 3783 H 342.642 -2.8404 -1.61211 0
M  V30 3784 H 341.301 -3.64813 0.361511 0
M  V30 3785 H 340.949 -4.65758 -1.89944 0
M  V30 3786 H 340.649 -5.84472 -0.605489 0
M  V30 3787 H 342.173 -5.90974 -1.53565 0
M  V30 3788 H 343.587 -5.68699 0.724841 0
M  V30 3789 H 341.984 -5.8088 1.50659 0
M  V30 3790 H 343.054 -4.45525 1.91404 0
M  V30 3791 N 344.397 -0.483516 -1.5 0
M  V30 3792 C 345.345 0.318061 -2.30415 0
M  V30 3793 C 346.339 0.978988 -1.38247 0
M  V30 3794 O 347.545 0.908673 -1.55381 0
M  V30 3795 H 343.92 0.121419 -0.742133 0
M  V30 3796 H 345.891 -0.380403 -2.95965 0
M  V30 3797 C 344.64 1.38013 -3.19136 0
M  V30 3798 H 343.963 0.880952 -3.89973 0
M  V30 3799 H 345.403 1.91332 -3.78375 0
M  V30 3800 C 343.862 2.38884 -2.37563 0
M  V30 3801 O 344.392 3.44412 -2.06744 0
M  V30 3802 N 342.598 2.10912 -1.99911 0
M  V30 3803 H 342.145 1.25118 -2.25174 0
M  V30 3804 H 342.103 2.78635 -1.45636 0
M  V30 3805 N 345.875 1.56104 -0.216619 0
M  V30 3806 C 347.121 1.99219 0.410301 0
M  V30 3807 C 347.476 1.10169 1.57735 0
M  V30 3808 O 346.769 0.150598 1.91007 0
M  V30 3809 C 346.963 3.45923 0.898464 0
M  V30 3810 C 346.792 4.49163 -0.219748 0
M  V30 3811 C 345.562 5.00642 -0.684516 0
M  V30 3812 C 347.76 5.03751 -1.03629 0
M  V30 3813 N 345.742 5.87579 -1.7783 0
M  V30 3814 C 347.113 5.87566 -1.97904 0
M  V30 3815 C 349.168 4.86128 -1.07629 0
M  V30 3816 C 347.871 6.5564 -2.95851 0
M  V30 3817 C 349.897 5.54958 -2.04392 0
M  V30 3818 C 349.259 6.38536 -2.97407 0
M  V30 3819 H 345.358 0.773206 0.11695 0
M  V30 3820 H 347.942 1.9193 -0.327258 0
M  V30 3821 H 346.113 3.53669 1.6054 0
M  V30 3822 H 347.845 3.75963 1.49779 0
M  V30 3823 H 344.6 4.72807 -0.27399 0
M  V30 3824 H 345.024 6.3575 -2.32705 0
M  V30 3825 H 349.666 4.21168 -0.371099 0
M  V30 3826 H 347.384 7.19785 -3.67335 0
M  V30 3827 H 350.97 5.43289 -2.08154 0
M  V30 3828 H 349.85 6.90858 -3.71059 0
M  V30 3829 N 347.353 -0.0568162 1.57498 0
M  V30 3830 C 348.602 -0.752001 1.87157 0
M  V30 3831 C 348.915 -1.77978 0.811375 0
M  V30 3832 O 350.121 -2.52559 0.996293 0
M  V30 3833 C 348.577 -1.38844 3.3204 0
M  V30 3834 C 348.185 -0.398456 4.46225 0
M  V30 3835 C 349.929 -2.06512 3.70882 0
M  V30 3836 C 347.836 -1.04166 5.82154 0
M  V30 3837 H 346.766 -0.28461 0.698222 0
M  V30 3838 H 349.417 -0.00561272 1.83499 0
M  V30 3839 H 347.799 -2.1836 3.30356 0
M  V30 3840 H 348.973 0.367977 4.59328 0
M  V30 3841 H 347.288 0.174592 4.16034 0
M  V30 3842 H 349.885 -2.55437 4.6974 0
M  V30 3843 H 350.228 -2.87117 3.01445 0
M  V30 3844 H 350.761 -1.33808 3.7462 0
M  V30 3845 H 347.5 -0.275614 6.5492 0
M  V30 3846 H 347.02 -1.7786 5.72823 0
M  V30 3847 H 348.699 -1.55715 6.27982 0
M  V30 3848 N 348.832 -1.54138 -0.328536 0
M  V30 3849 C 350.243 -1.63395 -0.903272 0
M  V30 3850 C 350.594 -0.524828 -1.8905 0
M  V30 3851 O 349.719 0.343068 -2.13663 0
M  V30 3852 C 350.314 -2.9618 -1.64507 0
M  V30 3853 C 348.873 -3.0765 -2.1686 0
M  V30 3854 C 348.02 -2.58933 -0.992416 0
M  V30 3855 H 350.971 -1.58344 -0.106253 0
M  V30 3856 H 350.992 -2.86061 -2.50897 0
M  V30 3857 H 350.504 -3.76884 -0.926302 0
M  V30 3858 H 348.605 -2.31611 -2.91868 0
M  V30 3859 H 348.718 -4.1337 -2.42202 0
M  V30 3860 H 347.082 -2.14706 -1.37016 0
M  V30 3861 H 347.865 -3.42089 -0.288041 0
M  V30 3862 N 350.31 0.590341 -1.46126 0
M  V30 3863 C 351.24 1.71032 -1.58966 0
M  V30 3864 C 352.221 1.64302 -0.440335 0
M  V30 3865 O 353.406 1.82436 -0.665634 0
M  V30 3866 C 350.536 3.09665 -1.57241 0
M  V30 3867 C 349.49 3.31221 -2.71066 0
M  V30 3868 C 348.816 4.70303 -2.54399 0
M  V30 3869 C 350.116 3.19796 -4.1295 0
M  V30 3870 H 351.81 1.60543 -2.52718 0
M  V30 3871 H 349.356 0.770933 -1.21625 0
M  V30 3872 H 351.309 3.87831 -1.64819 0
M  V30 3873 H 350.033 3.21036 -0.600289 0
M  V30 3874 H 348.692 2.55452 -2.62944 0
M  V30 3875 H 348.34 4.78429 -1.55288 0
M  V30 3876 H 348.04 4.85679 -3.30741 0
M  V30 3877 H 349.564 5.50647 -2.63857 0
M  V30 3878 H 350.978 3.87815 -4.22223 0
M  V30 3879 H 349.375 3.46696 -4.89818 0
M  V30 3880 H 350.445 2.16983 -4.33643 0
M  V30 3881 N 351.788 1.33704 0.83433 0
M  V30 3882 C 353.036 1.25169 1.58673 0
M  V30 3883 C 353.357 -0.18127 1.94156 0
M  V30 3884 O 352.627 -1.11113 1.6134 0
M  V30 3885 H 351.207 0.4603 0.58833 0
M  V30 3886 H 353.869 1.67478 0.996847 0
M  V30 3887 H 352.965 1.84856 2.51465 0
M  V30 3888 N 353.266 -1.05314 1.17247 0
M  V30 3889 C 354.496 -1.81707 0.983166 0
M  V30 3890 C 354.904 -1.83222 -0.471822 0
M  V30 3891 O 354.247 -1.25721 -1.3394 0
M  V30 3892 C 354.309 -3.29134 1.44606 0
M  V30 3893 C 353.973 -3.51304 2.92292 0
M  V30 3894 C 354.97 -3.4353 3.90235 0
M  V30 3895 C 352.655 -3.78306 3.30439 0
M  V30 3896 C 354.649 -3.62442 5.24323 0
M  V30 3897 C 352.336 -3.96866 4.64694 0
M  V30 3898 C 353.334 -3.88933 5.61445 0
M  V30 3899 O 353.022 -4.06976 6.93272 0
M  V30 3900 H 352.754 -0.579476 0.348114 0
M  V30 3901 H 355.308 -1.33705 1.55924 0
M  V30 3902 H 353.538 -3.78046 0.813537 0
M  V30 3903 H 355.227 -3.87049 1.22262 0
M  V30 3904 H 355.993 -3.22648 3.62109 0
M  V30 3905 H 351.872 -3.83585 2.55702 0
M  V30 3906 H 355.416 -3.56165 5.99827 0
M  V30 3907 H 351.313 -4.1724 4.92525 0
M  V30 3908 H 352.081 -4.24209 6.99992 0
M  V30 3909 N 354.744 -0.972509 -1.24016 0
M  V30 3910 C 355.993 -0.632603 -1.91523 0
M  V30 3911 C 356.306 0.836641 -1.76804 0
M  V30 3912 O 357.512 1.28728 -2.39043 0
M  V30 3913 C 355.968 -1.08082 -3.43287 0
M  V30 3914 C 355.576 -2.57386 -3.66683 0
M  V30 3915 C 357.32 -0.814288 -4.16617 0
M  V30 3916 C 355.227 -2.95915 -5.12043 0
M  V30 3917 H 354.157 -0.232898 -0.717129 0
M  V30 3918 H 356.808 -1.17936 -1.40582 0
M  V30 3919 H 355.19 -0.462339 -3.93292 0
M  V30 3920 H 356.364 -3.24405 -3.27258 0
M  V30 3921 H 354.679 -2.81701 -3.06649 0
M  V30 3922 H 357.276 -1.0781 -5.23718 0
M  V30 3923 H 357.619 0.24955 -4.15551 0
M  V30 3924 H 358.152 -1.39397 -3.72577 0
M  V30 3925 H 354.891 -4.0139 -5.18234 0
M  V30 3926 H 354.411 -2.33584 -5.52448 0
M  V30 3927 H 356.09 -2.86086 -5.80314 0
M  V30 3928 N 356.222 1.38976 -0.743202 0
M  V30 3929 C 357.469 2.00343 -0.294752 0
M  V30 3930 C 357.797 1.58983 1.12047 0
M  V30 3931 O 357.052 0.813809 1.77977 0
M  V30 3932 C 357.351 3.55647 -0.353517 0
M  V30 3933 C 357.017 4.16685 -1.72292 0
M  V30 3934 C 355.679 4.3307 -2.09771 0
M  V30 3935 C 358.031 4.50464 -2.62168 0
M  V30 3936 C 355.359 4.80526 -3.36618 0
M  V30 3937 C 357.711 4.99332 -3.88395 0
M  V30 3938 C 356.375 5.13924 -4.25956 0
M  V30 3939 H 355.645 0.733108 -0.107857 0
M  V30 3940 H 358.292 1.6618 -0.951651 0
M  V30 3941 H 356.597 3.89884 0.386954 0
M  V30 3942 H 358.294 4.00998 0.0117269 0
M  V30 3943 H 354.884 4.04339 -1.42155 0
M  V30 3944 H 359.068 4.37416 -2.3448 0
M  V30 3945 H 354.324 4.90008 -3.65653 0
M  V30 3946 H 358.498 5.2444 -4.58187 0
M  V30 3947 H 356.125 5.50457 -5.2431 0
M  V30 3948 N 357.7 0.491464 1.49741 0
M  V30 3949 C 358.61 -0.296835 2.32715 0
M  V30 3950 C 359.626 -0.976536 1.44013 0
M  V30 3951 O 360.802 -0.960023 1.77047 0
M  V30 3952 C 357.867 -1.35288 3.19215 0
M  V30 3953 C 356.928 -0.687632 4.23757 0
M  V30 3954 C 356.161 -1.69336 5.06123 0
M  V30 3955 O 356.384 -2.92219 4.89861 0
M  V30 3956 O 355.318 -1.25394 5.88693 0
M  V30 3957 H 359.144 0.382048 3.01287 0
M  V30 3958 H 356.729 0.252953 1.47243 0
M  V30 3959 H 358.611 -1.96411 3.72828 0
M  V30 3960 H 357.286 -2.01487 2.53347 0
M  V30 3961 H 356.193 -0.0369159 3.74082 0
M  V30 3962 H 357.526 -0.0682566 4.92153 0
M  V30 3963 N 359.178 -1.55987 0.224894 0
M  V30 3964 C 360.406 -2.02784 -0.410665 0
M  V30 3965 C 360.821 -1.10464 -1.53112 0
M  V30 3966 O 360.178 -0.114871 -1.82138 0
M  V30 3967 C 360.229 -3.49087 -0.939165 0
M  V30 3968 O 359.95 -4.37887 0.136614 0
M  V30 3969 C 361.451 -4.11543 -1.64763 0
M  V30 3970 H 358.671 -0.663484 -0.100148 0
M  V30 3971 H 361.215 -2.01614 0.342326 0
M  V30 3972 H 359.37 -3.50861 -1.64242 0
M  V30 3973 H 359.784 -5.23849 -0.261155 0
M  V30 3974 H 361.258 -5.15673 -1.96939 0
M  V30 3975 H 361.735 -3.56736 -2.56195 0
M  V30 3976 H 362.341 -4.13629 -0.989503 0
M  V30 3977 N 360.656 0.0484629 -1.57525 0
M  V30 3978 C 361.603 1.05504 -2.05275 0
M  V30 3979 C 362.573 1.37084 -0.937927 0
M  V30 3980 O 363.758 1.47754 -1.2072 0
M  V30 3981 C 360.898 2.35676 -2.52093 0
M  V30 3982 C 360.011 2.10423 -3.77288 0
M  V30 3983 C 359.146 3.34327 -4.12794 0
M  V30 3984 C 358.185 3.04542 -5.30962 0
M  V30 3985 N 357.322 4.20841 -5.61994 0
M  V30 3986 H 362.162 0.640885 -2.91027 0
M  V30 3987 H 359.699 0.304854 -1.43906 0
M  V30 3988 H 361.657 3.11709 -2.77297 0
M  V30 3989 H 360.287 2.7485 -1.69285 0
M  V30 3990 H 359.339 1.24976 -3.59284 0
M  V30 3991 H 360.651 1.84438 -4.63448 0
M  V30 3992 H 359.805 4.1874 -4.39024 0
M  V30 3993 H 358.544 3.63408 -3.25247 0
M  V30 3994 H 357.549 2.18528 -5.04505 0
M  V30 3995 H 358.774 2.76758 -6.20146 0
M  V30 3996 H 356.72 4.4991 -4.77406 0
M  V30 3997 H 356.637 3.98212 -6.42622 0
M  V30 3998 H 357.905 5.06184 -5.92789 0
M  V30 3999 N 362.134 1.5431 0.320358 0
M  V30 4000 C 363.064 1.86912 1.3995 0
M  V30 4001 C 364.045 0.726211 1.53819 0
M  V30 4002 O 365.23 0.980233 1.67646 0
M  V30 4003 C 362.36 2.09932 2.7667 0
M  V30 4004 C 361.314 3.25776 2.77586 0
M  V30 4005 C 360.64 3.34173 4.17412 0
M  V30 4006 C 361.94 4.6335 2.41048 0
M  V30 4007 H 363.634 2.77292 1.12914 0
M  V30 4008 H 361.18 1.33421 0.541738 0
M  V30 4009 H 363.133 2.31324 3.52232 0
M  V30 4010 H 361.857 1.16304 3.0519 0
M  V30 4011 H 360.516 3.04276 2.04479 0
M  V30 4012 H 360.164 2.38098 4.43078 0
M  V30 4013 H 359.864 4.12033 4.18931 0
M  V30 4014 H 361.388 3.57803 4.94782 0
M  V30 4015 H 362.802 4.84602 3.06324 0
M  V30 4016 H 361.199 5.43782 2.53813 0
M  V30 4017 H 362.269 4.65381 1.36193 0
M  V30 4018 N 363.613 -0.582584 1.46437 0
M  V30 4019 C 364.862 -1.337 1.5102 0
M  V30 4020 C 365.175 -1.94891 0.166359 0
M  V30 4021 O 366.381 -2.71351 0.0899954 0
M  V30 4022 C 364.837 -2.42315 2.66104 0
M  V30 4023 C 364.445 -1.87427 4.06909 0
M  V30 4024 C 366.189 -3.19099 2.79958 0
M  V30 4025 C 364.096 -2.93672 5.13333 0
M  V30 4026 H 363.026 -0.502619 0.562041 0
M  V30 4027 H 365.677 -0.621701 1.72647 0
M  V30 4028 H 364.059 -3.16645 2.37807 0
M  V30 4029 H 365.233 -1.19639 4.44998 0
M  V30 4030 H 363.548 -1.2331 3.97723 0
M  V30 4031 H 366.145 -3.9839 3.56636 0
M  V30 4032 H 366.488 -3.71695 1.87479 0
M  V30 4033 H 367.021 -2.51875 3.07902 0
M  V30 4034 H 363.76 -2.45962 6.07604 0
M  V30 4035 H 363.28 -3.59948 4.79789 0
M  V30 4036 H 364.959 -3.5762 5.39182 0
M  V30 4037 N 365.091 -1.34144 -0.827227 0
M  V30 4038 C 366.316 -1.29476 -1.62021 0
M  V30 4039 C 366.741 0.129292 -1.87655 0
M  V30 4040 O 366.099 1.08967 -1.449 0
M  V30 4041 C 366.147 -2.08702 -2.94068 0
M  V30 4042 O 365.251 -1.45359 -3.85933 0
M  V30 4043 H 364.592 -0.444881 -0.492927 0
M  V30 4044 H 367.122 -1.76882 -1.02829 0
M  V30 4045 H 367.132 -2.19898 -3.43669 0
M  V30 4046 H 365.807 -3.12241 -2.74734 0
M  V30 4047 H 364.384 -1.42879 -3.44442 0
M  V30 4048 N 366.569 1.04691 -1.17803 0
M  V30 4049 C 367.797 1.81446 -0.99423 0
M  V30 4050 C 368.212 1.83174 0.457459 0
M  V30 4051 O 367.569 1.26265 1.31771 0
M  V30 4052 C 367.62 3.27334 -1.5341 0
M  V30 4053 O 367.341 3.25798 -2.92895 0
M  V30 4054 C 368.842 4.20759 -1.39559 0
M  V30 4055 H 366.062 0.571599 -0.351447 0
M  V30 4056 H 368.606 1.31982 -1.56208 0
M  V30 4057 H 366.761 3.74052 -1.00815 0
M  V30 4058 H 367.175 4.17144 -3.17949 0
M  V30 4059 H 368.649 5.21084 -1.82141 0
M  V30 4060 H 369.126 4.37856 -0.343394 0
M  V30 4061 H 369.732 3.79901 -1.91195 0
M  V30 4062 N 368.047 0.979072 1.23499 0
M  V30 4063 C 368.977 0.537606 2.27227 0
M  V30 4064 C 369.958 -0.428539 1.64613 0
M  V30 4065 O 371.143 -0.322191 1.91509 0
M  V30 4066 C 368.273 -0.162052 3.46922 0
M  V30 4067 C 367.227 0.721242 4.21879 0
M  V30 4068 C 366.553 -0.110555 5.34586 0
M  V30 4069 C 367.853 2.01141 4.82016 0
M  V30 4070 H 369.547 1.40462 2.64406 0
M  V30 4071 H 367.093 0.67684 1.27102 0
M  V30 4072 H 369.046 -0.482192 4.18632 0
M  V30 4073 H 367.77 -1.06351 3.08799 0
M  V30 4074 H 366.429 1.02482 3.51984 0
M  V30 4075 H 366.077 -1.0125 4.92704 0
M  V30 4076 H 365.777 0.477325 5.85658 0
M  V30 4077 H 367.301 -0.425107 6.09118 0
M  V30 4078 H 368.715 1.75612 5.45741 0
M  V30 4079 H 367.112 2.54695 5.43369 0
M  V30 4080 H 368.182 2.69909 4.02836 0
M  V30 4081 N 369.525 -1.3858 0.750561 0
M  V30 4082 C 370.774 -1.99424 0.302172 0
M  V30 4083 C 371.087 -1.60254 -1.12152 0
M  V30 4084 O 372.293 -2.14046 -1.67023 0
M  V30 4085 C 370.749 -3.56558 0.489307 0
M  V30 4086 C 370.357 -4.04682 1.92189 0
M  V30 4087 C 372.101 -4.24374 0.103478 0
M  V30 4088 C 370.008 -5.54446 2.05775 0
M  V30 4089 H 368.938 -0.746046 0.10923 0
M  V30 4090 H 371.589 -1.58383 0.92667 0
M  V30 4091 H 369.971 -3.95472 -0.204329 0
M  V30 4092 H 371.145 -3.77065 2.64875 0
M  V30 4093 H 369.46 -3.4958 2.26236 0
M  V30 4094 H 372.057 -5.34384 0.183787 0
M  V30 4095 H 372.4 -4.05468 -0.943481 0
M  V30 4096 H 372.933 -3.90688 0.748854 0
M  V30 4097 H 369.672 -5.78252 3.08714 0
M  V30 4098 H 369.192 -5.83816 1.37546 0
M  V30 4099 H 370.871 -6.20099 1.84626 0
M  V30 4100 N 371.003 -0.499398 -1.49478 0
M  V30 4101 C 372.233 0.0424839 -2.06556 0
M  V30 4102 C 372.641 1.31514 -1.36018 0
M  V30 4103 O 371.984 1.78555 -0.431718 0
M  V30 4104 C 372.046 0.368074 -3.57611 0
M  V30 4105 C 371.71 -0.806631 -4.49825 0
M  V30 4106 C 372.707 -1.69667 -4.91436 0
M  V30 4107 C 370.392 -1.00498 -4.92144 0
M  V30 4108 C 372.386 -2.76923 -5.74101 0
M  V30 4109 C 370.073 -2.08072 -5.74586 0
M  V30 4110 C 371.071 -2.96119 -6.15469 0
M  V30 4111 O 370.759 -4.01836 -6.96264 0
M  V30 4112 H 370.491 -0.0165165 -0.675798 0
M  V30 4113 H 373.045 -0.695497 -1.93267 0
M  V30 4114 H 371.275 1.15963 -3.68903 0
M  V30 4115 H 372.964 0.848381 -3.96935 0
M  V30 4116 H 373.73 -1.55524 -4.59388 0
M  V30 4117 H 369.609 -0.329036 -4.59824 0
M  V30 4118 H 373.153 -3.45676 -6.05932 0
M  V30 4119 H 369.05 -2.22211 -6.06047 0
M  V30 4120 H 369.818 -3.9917 -7.14567 0
M  V30 4121 N 372.481 1.55866 -0.233164 0
M  V30 4122 C 373.428 2.20796 0.67215 0
M  V30 4123 C 374.398 1.16731 1.18166 0
M  V30 4124 O 375.583 1.45129 1.23864 0
M  V30 4125 C 372.723 2.90072 1.86955 0
M  V30 4126 C 371.836 4.08759 1.39786 0
M  V30 4127 C 370.971 4.65787 2.55374 0
M  V30 4128 C 370.01 5.76752 2.04998 0
M  V30 4129 N 369.147 6.28021 3.13901 0
M  V30 4130 H 373.987 2.9779 0.111749 0
M  V30 4131 H 371.524 1.47036 0.0434007 0
M  V30 4132 H 373.482 3.28428 2.57276 0
M  V30 4133 H 372.112 2.15575 2.40265 0
M  V30 4134 H 371.164 3.7581 0.589173 0
M  V30 4135 H 372.476 4.88906 0.98856 0
M  V30 4136 H 371.63 5.06646 3.33758 0
M  V30 4137 H 370.369 3.84828 2.99598 0
M  V30 4138 H 369.374 5.35383 1.25079 0
M  V30 4139 H 370.599 6.59553 1.61759 0
M  V30 4140 H 368.545 5.49971 3.57586 0
M  V30 4141 H 368.462 7.03323 2.7726 0
M  V30 4142 H 369.73 6.73538 3.92386 0
M  V30 4143 N 373.959 -0.0401083 1.57549 0
M  V30 4144 C 375.206 -0.733125 1.88763 0
M  V30 4145 C 375.534 -1.75946 0.829058 0
M  V30 4146 O 374.789 -1.94949 -0.171323 0
M  V30 4147 C 375.088 -1.44902 3.26708 0
M  V30 4148 C 374.754 -0.559707 4.47413 0
M  V30 4149 C 373.416 -0.314731 4.8017 0
M  V30 4150 C 375.768 0.0549743 5.21171 0
M  V30 4151 C 373.096 0.553886 5.8408 0
M  V30 4152 C 375.448 0.911229 6.26003 0
M  V30 4153 C 374.112 1.16577 6.57241 0
M  V30 4154 H 373.382 -0.268269 0.690733 0
M  V30 4155 H 376.029 0.00679408 1.91499 0
M  V30 4156 H 374.334 -2.26197 3.1991 0
M  V30 4157 H 376.031 -1.99058 3.48105 0
M  V30 4158 H 372.621 -0.760793 4.21794 0
M  V30 4159 H 376.805 -0.121344 4.96152 0
M  V30 4160 H 372.061 0.759518 6.06664 0
M  V30 4161 H 376.235 1.3941 6.82303 0
M  V30 4162 H 373.862 1.84058 7.37582 0
M  V30 4163 N 375.437 -1.54477 -0.31217 0
M  V30 4164 C 376.367 -1.87652 -1.38957 0
M  V30 4165 C 377.348 -0.734358 -1.53431 0
M  V30 4166 O 378.533 -0.98911 -1.67123 0
M  V30 4167 C 375.663 -2.11396 -2.75552 0
M  V30 4168 C 374.617 -3.27243 -2.75855 0
M  V30 4169 C 373.943 -3.36382 -4.15633 0
M  V30 4170 C 375.243 -4.64622 -2.38587 0
M  V30 4171 H 376.937 -2.77887 -1.11442 0
M  V30 4172 H 374.483 -1.33707 -0.534655 0
M  V30 4173 H 376.436 -2.33189 -3.51 0
M  V30 4174 H 375.16 -1.17921 -3.04569 0
M  V30 4175 H 373.819 -3.05356 -2.02863 0
M  V30 4176 H 373.467 -2.40445 -4.41809 0
M  V30 4177 H 373.167 -4.14249 -4.1674 0
M  V30 4178 H 374.691 -3.60422 -4.92877 0
M  V30 4179 H 376.105 -4.86219 -3.03749 0
M  V30 4180 H 374.502 -5.45121 -2.50925 0
M  V30 4181 H 375.572 -4.66097 -1.33723 0
M  V30 4182 N 376.915 0.57481 -1.46744 0
M  V30 4183 C 377.863 1.70435 -1.58286 0
M  V30 4184 C 378.857 1.63287 -0.450956 0
M  V30 4185 O 380.063 1.68685 -0.628121 0
M  V30 4186 H 376.438 0.56364 -0.497809 0
M  V30 4187 H 378.409 1.57833 -2.53242 0
M  V30 4188 C 377.158 3.08815 -1.59776 0
M  V30 4189 H 376.481 3.1499 -2.46214 0
M  V30 4190 H 377.921 3.87588 -1.71905 0
M  V30 4191 C 376.38 3.35301 -0.327812 0
M  V30 4192 O 376.91 3.97511 0.57861 0
M  V30 4193 N 375.116 2.89816 -0.213274 0
M  V30 4194 H 374.663 2.39371 -0.951798 0
M  V30 4195 H 374.621 3.0791 0.63553 0
M  V30 4196 N 378.394 1.34581 0.820102 0
M  V30 4197 C 379.64 1.27285 1.57881 0
M  V30 4198 C 379.973 -0.156137 1.93571 0
M  V30 4199 O 379.248 -1.10222 1.60254 0
M  V30 4200 C 379.531 2.16639 2.87645 0
M  V30 4201 C 379.384 3.68088 2.58517 0
M  V30 4202 C 380.703 2.05378 3.8924 0
M  V30 4203 H 377.822 0.463714 0.572833 0
M  V30 4204 H 380.464 1.64859 0.944539 0
M  V30 4205 H 378.614 1.84725 3.41773 0
M  V30 4206 H 380.286 4.10382 2.10676 0
M  V30 4207 H 378.529 3.89038 1.91917 0
M  V30 4208 H 379.2 4.2598 3.51063 0
M  V30 4209 H 381.676 2.33404 3.44473 0
M  V30 4210 H 380.552 2.7012 4.77835 0
M  V30 4211 H 380.813 1.0316 4.29896 0
M  V30 4212 N 379.872 -1.04064 1.18357 0
M  V30 4213 C 381.283 -1.58719 0.98312 0
M  V30 4214 C 381.634 -1.90556 -0.467193 0
M  V30 4215 O 380.759 -1.69561 -1.34454 0
M  V30 4216 C 381.354 -2.88379 1.77828 0
M  V30 4217 C 379.913 -3.3965 1.62218 0
M  V30 4218 C 379.06 -2.13235 1.77274 0
M  V30 4219 H 382.011 -0.867359 1.32901 0
M  V30 4220 H 382.032 -3.58773 1.26737 0
M  V30 4221 H 381.544 -2.65176 2.83379 0
M  V30 4222 H 379.645 -3.67866 0.592036 0
M  V30 4223 H 379.758 -4.13475 2.42023 0
M  V30 4224 H 378.122 -2.24542 1.20221 0
M  V30 4225 H 378.905 -1.92487 2.8426 0
M  V30 4226 N 381.35 -0.985608 -1.22978 0
M  V30 4227 C 382.283 -0.47487 -2.23204 0
M  V30 4228 C 383.261 0.460865 -1.55932 0
M  V30 4229 O 384.445 0.388105 -1.84461 0
M  V30 4230 C 381.572 0.312427 -3.37256 0
M  V30 4231 C 380.618 -0.568219 -4.22698 0
M  V30 4232 S 381.451 -2.01919 -4.95973 0
M  V30 4233 C 382.607 -1.24118 -6.1347 0
M  V30 4234 H 382.84 -1.32419 -2.66181 0
M  V30 4235 H 380.373 -0.792005 -1.32539 0
M  V30 4236 H 382.331 0.760645 -4.03391 0
M  V30 4237 H 380.992 1.13693 -2.92801 0
M  V30 4238 H 380.185 0.0371657 -5.03986 0
M  V30 4239 H 379.787 -0.952897 -3.61657 0
M  V30 4240 H 382.079 -0.505121 -6.75614 0
M  V30 4241 H 383.022 -2.02907 -6.78406 0
M  V30 4242 H 383.43 -0.757669 -5.59392 0
M  V30 4243 N 382.828 1.3818 -0.7579 0
M  V30 4244 C 384.075 2.00019 -0.315985 0
M  V30 4245 C 384.403 1.60163 1.10355 0
M  V30 4246 O 383.658 0.83264 1.77103 0
M  V30 4247 C 383.957 3.55252 -0.391218 0
M  V30 4248 C 383.623 4.14834 -1.76702 0
M  V30 4249 C 382.285 4.30821 -2.14353 0
M  V30 4250 C 384.637 4.47658 -2.66931 0
M  V30 4251 C 381.965 4.76928 -3.41696 0
M  V30 4252 C 384.317 4.95184 -3.93669 0
M  V30 4253 C 382.981 5.09377 -4.31383 0
M  V30 4254 H 382.251 0.731923 -0.115627 0
M  V30 4255 H 384.898 1.65161 -0.969223 0
M  V30 4256 H 383.203 3.90273 0.34558 0
M  V30 4257 H 384.9 4.00988 -0.030805 0
M  V30 4258 H 381.49 4.02808 -1.46435 0
M  V30 4259 H 385.674 4.34904 -2.39106 0
M  V30 4260 H 380.93 4.86103 -3.70829 0
M  V30 4261 H 385.104 5.19551 -4.63724 0
M  V30 4262 H 382.731 5.44865 -5.30119 0
M  V30 4263 N 384.306 0.507319 1.49211 0
M  V30 4264 C 385.722 0.163682 1.58758 0
M  V30 4265 C 385.922 -1.33208 1.51188 0
M  V30 4266 O 384.978 -2.10855 1.38911 0
M  V30 4267 C 386.291 0.746095 2.91297 0
M  V30 4268 C 387.839 0.712773 3.04776 0
M  V30 4269 C 388.314 1.27336 4.39943 0
M  V30 4270 N 389.805 1.23433 4.46451 0
M  V30 4271 C 390.54 1.63821 5.495 0
M  V30 4272 N 390.036 2.11832 6.5962 0
M  V30 4273 N 391.829 1.55198 5.4025 0
M  V30 4274 H 383.98 1.47972 1.52375 0
M  V30 4275 H 386.243 0.614147 0.722168 0
M  V30 4276 H 385.949 1.79534 3.02424 0
M  V30 4277 H 385.823 0.210137 3.76614 0
M  V30 4278 H 388.21 -0.327656 2.93275 0
M  V30 4279 H 388.291 1.28595 2.21127 0
M  V30 4280 H 387.935 2.3126 4.52196 0
M  V30 4281 H 387.865 0.676066 5.22242 0
M  V30 4282 H 390.356 0.882627 3.67448 0
M  V30 4283 H 390.669 2.40703 7.34358 0
M  V30 4284 H 389.014 2.1581 6.60644 0
M  V30 4285 H 392.205 1.17505 4.53112 0
M  V30 4286 H 392.378 1.86997 6.20432 0
M  V30 4287 N 385.784 -1.5574 0.241426 0
M  V30 4288 C 386.732 -2.22538 -0.676718 0
M  V30 4289 C 387.726 -1.21117 -1.18436 0
M  V30 4290 O 388.932 -1.39144 -1.14188 0
M  V30 4291 H 385.307 -0.713776 -0.236701 0
M  V30 4292 H 387.278 -2.98264 -0.0901187 0
M  V30 4293 C 386.027 -2.93439 -1.86518 0
M  V30 4294 H 385.35 -3.7125 -1.4837 0
M  V30 4295 H 386.79 -3.43549 -2.48495 0
M  V30 4296 C 385.249 -1.97008 -2.73294 0
M  V30 4297 O 385.779 -1.49965 -3.72657 0
M  V30 4298 N 383.985 -1.64227 -2.39745 0
M  V30 4299 H 383.532 -2.02677 -1.58996 0
M  V30 4300 H 383.49 -0.999708 -2.98083 0
M  V30 4301 N 387.262 0.0317525 -1.57568 0
M  V30 4302 C 388.508 0.724175 -1.8943 0
M  V30 4303 C 388.841 1.75149 -0.838836 0
M  V30 4304 O 388.116 1.93948 0.146422 0
M  V30 4305 C 388.399 1.39615 -3.31933 0
M  V30 4306 C 388.252 0.382537 -4.4817 0
M  V30 4307 C 389.571 2.33084 -3.73309 0
M  V30 4308 H 386.69 0.261797 -0.688935 0
M  V30 4309 H 389.332 -0.013017 -1.89996 0
M  V30 4310 H 387.482 2.02451 -3.31581 0
M  V30 4311 H 389.154 -0.243689 -4.60656 0
M  V30 4312 H 387.397 -0.29844 -4.32772 0
M  V30 4313 H 388.068 0.891145 -5.44759 0
M  V30 4314 H 390.544 1.80295 -3.7501 0
M  V30 4315 H 389.42 2.77084 -4.73831 0
M  V30 4316 H 389.681 3.19643 -3.05419 0
M  V30 4317 N 388.74 1.54641 0.303973 0
M  V30 4318 C 389.965 1.78092 1.06292 0
M  V30 4319 C 390.39 0.537342 1.80262 0
M  V30 4320 O 389.748 -0.511993 1.7392 0
M  V30 4321 C 389.796 2.98612 2.02147 0
M  V30 4322 O 388.9 2.71528 3.10397 0
M  V30 4323 H 388.241 0.589548 0.305497 0
M  V30 4324 H 390.771 2.01716 0.3423 0
M  V30 4325 H 390.781 3.265 2.44667 0
M  V30 4326 H 389.456 3.88785 1.47714 0
M  V30 4327 H 388.033 2.54648 2.72413 0
M  V30 4328 N 390.218 -0.567019 1.47046 0
M  V30 4329 C 391.148 -1.68482 1.61667 0
M  V30 4330 C 392.129 -1.6358 0.466418 0
M  V30 4331 O 393.314 -1.81354 0.694574 0
M  V30 4332 C 390.444 -3.07124 1.62148 0
M  V30 4333 C 389.398 -3.26867 2.76301 0
M  V30 4334 C 388.724 -4.66196 2.61849 0
M  V30 4335 C 390.024 -3.13186 4.17986 0
M  V30 4336 H 391.718 -1.56502 2.5524 0
M  V30 4337 H 389.264 -0.751486 1.22836 0
M  V30 4338 H 391.217 -3.8516 1.70968 0
M  V30 4339 H 389.941 -3.2004 0.651287 0
M  V30 4340 H 388.6 -2.51237 2.66975 0
M  V30 4341 H 388.248 -4.75898 1.62879 0
M  V30 4342 H 387.948 -4.80356 3.38425 0
M  V30 4343 H 389.472 -5.46379 2.72584 0
M  V30 4344 H 390.886 -3.81049 4.2834 0
M  V30 4345 H 389.283 -3.3886 4.95272 0
M  V30 4346 H 390.353 -2.10057 4.3704 0
M  V30 4347 N 391.696 -1.35014 -0.812953 0
M  V30 4348 C 392.643 -1.27412 -1.92444 0
M  V30 4349 C 393.613 -0.14733 -1.65445 0
M  V30 4350 O 394.798 -0.329974 -1.87925 0
M  V30 4351 C 391.938 -1.04558 -3.28879 0
M  V30 4352 C 391.051 -2.26101 -3.68106 0
M  V30 4353 C 390.186 -1.96449 -4.9354 0
M  V30 4354 C 389.225 -3.14081 -5.25376 0
M  V30 4355 N 388.362 -2.84246 -6.41988 0
M  V30 4356 H 393.202 -2.22463 -1.98278 0
M  V30 4357 H 390.739 -1.10593 -0.969933 0
M  V30 4358 H 392.697 -0.893413 -4.07522 0
M  V30 4359 H 391.327 -0.131719 -3.22531 0
M  V30 4360 H 390.379 -2.52204 -2.84775 0
M  V30 4361 H 391.691 -3.13959 -3.87597 0
M  V30 4362 H 390.845 -1.78026 -5.79993 0
M  V30 4363 H 389.584 -1.05867 -4.76071 0
M  V30 4364 H 388.589 -3.33089 -4.37415 0
M  V30 4365 H 389.814 -4.05455 -5.44778 0
M  V30 4366 H 387.76 -1.96252 -6.25956 0
M  V30 4367 H 387.677 -3.65637 -6.61699 0
M  V30 4368 H 388.945 -2.6935 -7.31485 0
M  V30 4369 N 393.175 1.03435 -1.18907 0
M  V30 4370 C 394.415 1.78302 -0.999391 0
M  V30 4371 C 394.779 1.86353 0.462219 0
M  V30 4372 O 395.98 2.57489 0.771543 0
M  V30 4373 C 394.251 3.17362 -1.64365 0
M  V30 4374 S 395.81 4.08488 -1.6026 0
M  V30 4375 H 392.628 0.613861 -0.358742 0
M  V30 4376 H 395.23 1.23979 -1.51161 0
M  V30 4377 H 393.934 3.09116 -2.69955 0
M  V30 4378 H 393.465 3.76762 -1.13199 0
M  V30 4379 H 395.48 4.92274 -0.622932 0
M  V30 4380 N 394.653 0.992116 1.22453 0
M  V30 4381 C 395.583 0.561677 2.26644 0
M  V30 4382 C 396.564 -0.411055 1.65059 0
M  V30 4383 O 397.749 -0.301861 1.9184 0
M  V30 4384 C 394.879 -0.125247 3.47074 0
M  V30 4385 C 393.833 0.765948 4.21091 0
M  V30 4386 C 393.159 -0.0538484 5.34673 0
M  V30 4387 C 394.459 2.06242 4.79856 0
M  V30 4388 H 396.153 1.43259 2.62902 0
M  V30 4389 H 393.699 0.690283 1.26377 0
M  V30 4390 H 395.652 -0.437764 4.1912 0
M  V30 4391 H 394.376 -1.03069 3.0991 0
M  V30 4392 H 393.035 1.0621 3.50878 0
M  V30 4393 H 392.683 -0.960188 4.9375 0
M  V30 4394 H 392.383 0.539415 5.85119 0
M  V30 4395 H 393.907 -0.360477 6.09535 0
M  V30 4396 H 395.321 1.8139 5.43848 0
M  V30 4397 H 393.718 2.60444 5.40638 0
M  V30 4398 H 394.788 2.74167 3.99951 0
M  V30 4399 N 396.131 -1.37776 0.765217 0
M  V30 4400 C 397.359 -2.04124 0.337767 0
M  V30 4401 C 397.774 -1.57715 -1.03785 0
M  V30 4402 O 397.131 -0.755447 -1.6613 0
M  V30 4403 C 397.182 -3.59658 0.364442 0
M  V30 4404 O 396.903 -4.04367 1.68579 0
M  V30 4405 C 398.404 -4.43236 -0.0754221 0
M  V30 4406 H 395.624 -0.655696 0.142491 0
M  V30 4407 H 398.168 -1.76238 1.03732 0
M  V30 4408 H 396.323 -3.86339 -0.286471 0
M  V30 4409 H 396.737 -4.98857 1.61993 0
M  V30 4410 H 398.211 -5.52 -0.00560067 0
M  V30 4411 H 398.688 -4.2455 -1.12491 0
M  V30 4412 H 399.294 -4.21767 0.547055 0
M  V30 4413 N 397.609 -0.515225 -1.4894 0
M  V30 4414 C 398.519 0.259774 -2.33157 0
M  V30 4415 C 399.535 0.953501 -1.45548 0
M  V30 4416 O 400.711 0.931735 -1.78552 0
M  V30 4417 C 397.776 1.30193 -3.21326 0
M  V30 4418 C 396.837 0.620129 -4.24797 0
M  V30 4419 C 396.07 1.61263 -5.08753 0
M  V30 4420 O 396.293 2.84389 -4.94448 0
M  V30 4421 O 395.227 1.16013 -5.90614 0
M  V30 4422 H 399.053 -0.429932 -3.00641 0
M  V30 4423 H 396.638 -0.276346 -1.46822 0
M  V30 4424 H 398.52 1.90455 -3.75905 0
M  V30 4425 H 397.195 1.97431 -2.56521 0
M  V30 4426 H 396.102 -0.0226019 -3.74093 0
M  V30 4427 H 397.435 -0.0100493 -4.92199 0
M  V30 4428 N 399.087 1.5561 -0.249682 0
M  V30 4429 C 400.336 1.98187 0.37479 0
M  V30 4430 C 400.649 1.14111 1.58865 0
M  V30 4431 O 401.855 1.46714 2.28445 0
M  V30 4432 C 400.311 3.52661 0.718192 0
M  V30 4433 C 399.919 4.45481 -0.474428 0
M  V30 4434 C 401.663 4.03888 1.3067 0
M  V30 4435 C 399.57 5.91303 -0.107026 0
M  V30 4436 H 398.5 0.740159 0.143808 0
M  V30 4437 H 401.151 1.80125 -0.350336 0
M  V30 4438 H 399.533 3.66429 1.50152 0
M  V30 4439 H 400.707 4.43473 -1.25172 0
M  V30 4440 H 399.022 4.04751 -0.978052 0
M  V30 4441 H 401.619 5.10358 1.59496 0
M  V30 4442 H 401.962 3.51401 2.23211 0
M  V30 4443 H 402.495 3.93457 0.586211 0
M  V30 4444 H 399.234 6.47833 -0.999642 0
M  V30 4445 H 398.754 5.9644 0.634013 0
M  V30 4446 H 400.433 6.46258 0.309807 0
M  V30 4447 N 400.565 -0.0233959 1.57583 0
M  V30 4448 C 401.528 -1.00693 2.05897 0
M  V30 4449 C 402.528 -1.28693 0.964092 0
M  V30 4450 O 403.718 -1.23602 1.22753 0
M  V30 4451 C 400.85 -2.33825 2.4807 0
M  V30 4452 H 402.043 -0.589476 2.9405 0
M  V30 4453 H 399.596 -0.270354 1.53944 0
M  V30 4454 H 400.331 -2.80307 1.6309 0
M  V30 4455 H 400.116 -2.1483 3.2801 0
M  V30 4456 H 401.606 -3.04426 2.85857 0
M  V30 4457 N 402.043 -1.548 -0.295768 0
M  V30 4458 C 403.291 -1.73985 -1.02828 0
M  V30 4459 C 403.612 -0.531406 -1.87619 0
M  V30 4460 O 402.882 0.454221 -1.90561 0
M  V30 4461 H 401.462 -0.641556 -0.382642 0
M  V30 4462 H 404.124 -1.92163 -0.325489 0
M  V30 4463 H 403.22 -2.63129 -1.67838 0
M  V30 4464 N 403.521 0.559213 -1.47345 0
M  V30 4465 C 404.767 1.31843 -1.54095 0
M  V30 4466 C 405.1 1.93149 -0.201726 0
M  V30 4467 O 404.375 1.77759 0.789428 0
M  V30 4468 C 404.658 2.43006 -2.65744 0
M  V30 4469 C 404.511 1.86581 -4.09277 0
M  V30 4470 C 405.83 3.44943 -2.73318 0
M  V30 4471 H 402.949 0.478012 -0.560957 0
M  V30 4472 H 405.591 0.625977 -1.79392 0
M  V30 4473 H 403.741 3.02072 -2.44305 0
M  V30 4474 H 405.413 1.31792 -4.42073 0
M  V30 4475 H 403.656 1.17268 -4.17649 0
M  V30 4476 H 404.327 2.66933 -4.83168 0
M  V30 4477 H 406.803 2.95793 -2.92653 0
M  V30 4478 H 405.679 4.20153 -3.53218 0
M  V30 4479 H 405.94 4.03665 -1.80296 0
M  V30 4480 N 404.999 1.35443 0.805782 0
M  V30 4481 C 406.224 1.32037 1.59941 0
M  V30 4482 C 406.649 -0.0994215 1.87837 0
M  V30 4483 O 406.007 -1.06648 1.46615 0
M  V30 4484 C 406.055 2.13354 2.90711 0
M  V30 4485 O 405.159 1.5148 3.83572 0
M  V30 4486 H 404.5 0.452666 0.485787 0
M  V30 4487 H 407.03 1.78496 1.00002 0
M  V30 4488 H 407.04 2.25338 3.40128 0
M  V30 4489 H 405.715 3.16572 2.69732 0
M  V30 4490 H 404.292 1.4834 3.42125 0
M  V30 4491 N 406.477 -1.02803 1.19454 0
M  V30 4492 C 407.723 -1.76478 0.999171 0
M  V30 4493 C 408.056 -1.88456 -0.468828 0
M  V30 4494 O 407.331 -1.40198 -1.34814 0
M  V30 4495 C 407.614 -3.19044 1.66981 0
M  V30 4496 C 407.467 -3.14932 3.21151 0
M  V30 4497 C 408.786 -4.17456 1.39349 0
M  V30 4498 H 405.905 -0.640614 0.364393 0
M  V30 4499 H 408.547 -1.20005 1.47305 0
M  V30 4500 H 406.697 -3.67263 1.2669 0
M  V30 4501 H 408.369 -2.74605 3.70661 0
M  V30 4502 H 406.612 -2.52625 3.52652 0
M  V30 4503 H 407.283 -4.1566 3.63223 0
M  V30 4504 H 409.759 -3.77842 1.74283 0
M  V30 4505 H 408.635 -5.154 1.88823 0
M  V30 4506 H 408.896 -4.40949 0.318813 0
M  V30 4507 N 407.956 -0.998596 -1.21925 0
M  V30 4508 C 409.181 -0.696015 -1.95372 0
M  V30 4509 C 409.606 0.733826 -1.73195 0
M  V30 4510 O 408.964 1.50242 -1.01474 0
M  V30 4511 C 409.012 -1.01466 -3.4603 0
M  V30 4512 O 408.116 -0.116415 -4.12236 0
M  V30 4513 H 407.457 -0.259938 -0.611006 0
M  V30 4514 H 409.987 -1.33711 -1.54863 0
M  V30 4515 H 409.997 -0.958855 -3.96573 0
M  V30 4516 H 408.672 -2.05653 -3.61497 0
M  V30 4517 H 407.249 -0.228193 -3.72201 0
M  V30 4518 N 409.434 1.37368 -0.772513 0
M  V30 4519 C 410.366 2.28899 -0.117502 0
M  V30 4520 C 411.379 1.4867 0.663405 0
M  V30 4521 O 412.568 1.71314 0.501372 0
M  V30 4522 C 409.668 3.2788 0.857192 0
M  V30 4523 C 408.841 4.37207 0.129938 0
M  V30 4524 C 407.9 5.16257 1.01811 0
M  V30 4525 O 406.926 5.67159 0.481601 0
M  V30 4526 N 408.128 5.31058 2.3443 0
M  V30 4527 H 410.893 2.85752 -0.903662 0
M  V30 4528 H 408.454 1.49353 -0.62493 0
M  V30 4529 H 410.446 3.77647 1.45482 0
M  V30 4530 H 409.016 2.7179 1.54432 0
M  V30 4531 H 408.236 3.88827 -0.648605 0
M  V30 4532 H 409.524 5.07434 -0.372559 0
M  V30 4533 H 408.922 4.91287 2.80452 0
M  V30 4534 H 407.479 5.84131 2.89197 0
M  V30 4535 N 410.912 0.523116 1.48665 0
M  V30 4536 C 412.142 -0.00961724 2.06598 0
M  V30 4537 C 412.55 -1.29333 1.38093 0
M  V30 4538 O 411.893 -1.77846 0.46007 0
M  V30 4539 C 411.955 -0.311135 3.58151 0
M  V30 4540 C 411.619 0.878092 4.48485 0
M  V30 4541 C 412.616 1.77464 4.88674 0
M  V30 4542 C 410.301 1.08315 4.90483 0
M  V30 4543 C 412.295 2.86021 5.69623 0
M  V30 4544 C 409.982 2.17187 5.71203 0
M  V30 4545 C 410.98 3.05873 6.10681 0
M  V30 4546 O 410.668 4.12862 6.89783 0
M  V30 4547 H 410.4 0.0272658 0.67545 0
M  V30 4548 H 412.954 0.726156 1.92136 0
M  V30 4549 H 411.184 -1.10079 3.70701 0
M  V30 4550 H 412.873 -0.785125 3.98234 0
M  V30 4551 H 413.639 1.62813 4.56855 0
M  V30 4552 H 409.518 0.402149 4.59243 0
M  V30 4553 H 413.062 3.55272 6.00356 0
M  V30 4554 H 408.959 2.31824 6.02435 0
M  V30 4555 H 409.727 4.10487 7.08126 0
M  V30 4556 N 412.39 -1.55475 0.257931 0
M  V30 4557 C 413.3 -2.2549 -0.647425 0
M  V30 4558 C 414.316 -1.2748 -1.18427 0
M  V30 4559 O 415.492 -1.6038 -1.2182 0
M  V30 4560 C 412.557 -2.94916 -1.82278 0
M  V30 4561 C 411.618 -4.08363 -1.32432 0
M  V30 4562 C 410.851 -4.74469 -2.44366 0
M  V30 4563 O 411.074 -4.39701 -3.63344 0
M  V30 4564 O 410.008 -5.62763 -2.13497 0
M  V30 4565 H 413.834 -3.03593 -0.0807707 0
M  V30 4566 H 411.419 -1.49377 0.0259962 0
M  V30 4567 H 413.301 -3.38606 -2.50846 0
M  V30 4568 H 411.976 -2.19744 -2.37685 0
M  V30 4569 H 410.883 -3.69166 -0.605605 0
M  V30 4570 H 412.216 -4.85385 -0.816211 0
M  V30 4571 N 413.868 0.0150385 -1.57593 0
M  V30 4572 C 414.778 1.02791 -2.10882 0
M  V30 4573 C 415.794 1.38702 -1.0506 0
M  V30 4574 O 416.97 1.47739 -1.36877 0
M  V30 4575 C 414.035 2.30568 -2.58919 0
M  V30 4576 C 413.096 2.01108 -3.79281 0
M  V30 4577 C 412.329 3.22794 -4.25018 0
M  V30 4578 O 412.552 4.33959 -3.70183 0
M  V30 4579 O 411.486 3.07672 -5.17322 0
M  V30 4580 H 415.312 0.604973 -2.97613 0
M  V30 4581 H 412.897 0.23292 -1.47573 0
M  V30 4582 H 414.779 3.05662 -2.90084 0
M  V30 4583 H 413.454 2.72129 -1.75293 0
M  V30 4584 H 412.361 1.23537 -3.53114 0
M  V30 4585 H 413.694 1.64394 -4.63935 0
M  V30 4586 N 415.346 1.54954 0.287554 0
M  V30 4587 C 416.278 1.83224 1.37701 0
M  V30 4588 C 417.291 0.715898 1.46215 0
M  V30 4589 O 418.48 0.993565 1.48292 0
M  V30 4590 C 415.58 1.96723 2.75959 0
M  V30 4591 C 414.753 3.27253 2.90215 0
M  V30 4592 C 413.812 3.30998 4.09056 0
M  V30 4593 O 412.838 4.04457 4.00503 0
M  V30 4594 N 414.04 2.57353 5.20336 0
M  V30 4595 H 416.805 2.77254 1.138 0
M  V30 4596 H 414.366 1.54694 0.477652 0
M  V30 4597 H 416.358 1.96615 3.5373 0
M  V30 4598 H 414.928 1.09626 2.92747 0
M  V30 4599 H 414.148 3.40022 1.99447 0
M  V30 4600 H 415.436 4.13365 2.96659 0
M  V30 4601 H 414.834 1.97327 5.30169 0
M  V30 4602 H 413.391 2.62984 5.96391 0
M  V30 4603 N 416.824 -0.551391 1.4764 0
M  V30 4604 C 418.071 -1.3083 1.54563 0
M  V30 4605 C 418.399 -1.93359 0.210361 0
M  V30 4606 O 417.654 -1.78721 -0.797332 0
M  V30 4607 C 417.953 -2.43469 2.61644 0
M  V30 4608 C 417.619 -1.98732 4.04742 0
M  V30 4609 C 416.281 -1.86248 4.43695 0
M  V30 4610 C 418.633 -1.64659 4.94507 0
M  V30 4611 C 415.961 -1.37995 5.70241 0
M  V30 4612 C 418.313 -1.17875 6.21521 0
M  V30 4613 C 416.977 -1.03992 6.5935 0
M  V30 4614 H 416.247 -0.478741 0.565587 0
M  V30 4615 H 418.894 -0.617697 1.81264 0
M  V30 4616 H 417.199 -3.18109 2.28722 0
M  V30 4617 H 418.896 -3.01642 2.64222 0
M  V30 4618 H 415.486 -2.09393 3.73968 0
M  V30 4619 H 419.67 -1.73174 4.65107 0
M  V30 4620 H 414.926 -1.25915 5.98294 0
M  V30 4621 H 419.1 -0.905739 6.90485 0
M  V30 4622 H 416.727 -0.663794 7.57296 0
M  V30 4623 N 418.302 -1.35869 -0.798587 0
M  V30 4624 C 419.548 -1.2978 -1.55836 0
M  V30 4625 C 419.881 0.125322 -1.93795 0
M  V30 4626 O 419.156 1.07658 -1.61987 0
M  V30 4627 C 419.439 -2.21188 -2.84162 0
M  V30 4628 C 419.292 -3.72155 -2.52628 0
M  V30 4629 C 420.611 -2.11545 -3.85923 0
M  V30 4630 H 417.73 -0.472769 -0.565383 0
M  V30 4631 H 420.372 -1.66341 -0.918192 0
M  V30 4632 H 418.522 -1.90139 -3.38791 0
M  V30 4633 H 420.194 -4.13682 -2.04121 0
M  V30 4634 H 418.437 -3.92042 -1.85704 0
M  V30 4635 H 419.108 -4.31511 -3.44242 0
M  V30 4636 H 421.584 -2.38855 -3.40716 0
M  V30 4637 H 420.46 -2.77688 -4.73477 0
M  V30 4638 H 420.721 -1.09987 -4.282 0
M  V30 4639 N 419.78 1.02168 -1.19998 0
M  V30 4640 C 421.008 1.79296 -1.03249 0
M  V30 4641 C 421.423 1.84103 0.418502 0
M  V30 4642 O 420.78 1.29031 1.29063 0
M  V30 4643 C 420.831 3.24007 -1.60319 0
M  V30 4644 O 420.552 3.19512 -2.99739 0
M  V30 4645 C 422.053 4.17704 -1.48453 0
M  V30 4646 H 419.273 0.564016 -0.363493 0
M  V30 4647 H 421.817 1.28639 -1.58973 0
M  V30 4648 H 419.972 3.7183 -1.08727 0
M  V30 4649 H 420.386 4.10306 -3.26725 0
M  V30 4650 H 421.86 5.17104 -1.93153 0
M  V30 4651 H 422.337 4.37029 -0.436193 0
M  V30 4652 H 422.943 3.7576 -1.99211 0
M  V30 4653 N 421.258 1.00505 1.21394 0
M  V30 4654 C 422.188 0.585684 2.26035 0
M  V30 4655 C 423.169 -0.393525 1.65485 0
M  V30 4656 O 424.354 -0.281497 1.92149 0
M  V30 4657 C 421.484 -0.0884283 3.47187 0
M  V30 4658 C 420.438 0.810567 4.20254 0
M  V30 4659 C 419.764 0.00286382 5.347 0
M  V30 4660 C 421.064 2.1132 4.77641 0
M  V30 4661 H 422.758 1.46039 2.61368 0
M  V30 4662 H 420.304 0.703648 1.25638 0
M  V30 4663 H 422.257 -0.393286 4.19561 0
M  V30 4664 H 420.981 -0.997766 3.10986 0
M  V30 4665 H 419.64 1.09925 3.49731 0
M  V30 4666 H 419.288 -0.907765 4.94741 0
M  V30 4667 H 418.988 0.601444 5.84514 0
M  V30 4668 H 420.512 -0.295808 6.09883 0
M  V30 4669 H 421.926 1.87148 5.41893 0
M  V30 4670 H 420.323 2.66164 5.37845 0
M  V30 4671 H 421.393 2.78393 3.9702 0
M  V30 4672 N 422.737 -1.36956 0.779787 0
M  V30 4673 C 423.984 -1.99491 0.347766 0
M  V30 4674 C 424.312 -1.61898 -1.07793 0
M  V30 4675 O 423.567 -0.86071 -1.75756 0
M  V30 4676 C 423.866 -3.54585 0.447686 0
M  V30 4677 C 423.532 -4.1197 1.83279 0
M  V30 4678 C 422.194 -4.27356 2.2118 0
M  V30 4679 C 424.546 -4.43354 2.74019 0
M  V30 4680 C 421.874 -4.71432 3.4924 0
M  V30 4681 C 424.226 -4.88858 4.01497 0
M  V30 4682 C 422.89 -5.0245 4.39432 0
M  V30 4683 H 422.16 -0.729991 0.127257 0
M  V30 4684 H 424.807 -1.63599 0.995376 0
M  V30 4685 H 423.112 -3.90773 -0.283447 0
M  V30 4686 H 424.809 -4.00888 0.0945948 0
M  V30 4687 H 421.399 -4.00428 1.52825 0
M  V30 4688 H 425.583 -4.31045 2.45995 0
M  V30 4689 H 420.839 -4.80141 3.78516 0
M  V30 4690 H 425.013 -5.12108 4.71931 0
M  V30 4691 H 422.64 -5.36362 5.38721 0
M  V30 4692 N 424.215 -0.530993 -1.48385 0
M  V30 4693 C 425.443 -0.00134122 -2.069 0
M  V30 4694 C 425.858 1.2805 -1.3874 0
M  V30 4695 O 425.215 1.76204 -0.475244 0
M  V30 4696 C 425.266 0.225256 -3.60798 0
M  V30 4697 O 424.987 -1.0058 -4.26398 0
M  V30 4698 C 426.488 0.795172 -4.3611 0
M  V30 4699 H 423.708 -0.0339704 -0.67014 0
M  V30 4700 H 426.252 -0.736926 -1.90761 0
M  V30 4701 H 424.407 0.910891 -3.76539 0
M  V30 4702 H 424.821 -0.787165 -5.1856 0
M  V30 4703 H 426.295 0.903143 -5.44562 0
M  V30 4704 H 426.772 1.80031 -4.00606 0
M  V30 4705 H 427.378 0.146069 -4.25049 0
M  V30 4706 N 425.693 1.55336 -0.266172 0
M  V30 4707 C 426.623 2.25146 0.618981 0
M  V30 4708 C 427.604 1.23845 1.16604 0
M  V30 4709 O 428.789 1.52544 1.20183 0
M  V30 4710 C 425.919 2.96572 1.80728 0
M  V30 4711 C 424.873 4.04726 1.39215 0
M  V30 4712 C 424.199 4.63678 2.66283 0
M  V30 4713 C 425.499 5.19407 0.548942 0
M  V30 4714 H 427.193 2.99377 0.0368116 0
M  V30 4715 H 424.739 1.43991 0.0162651 0
M  V30 4716 H 426.692 3.44116 2.43232 0
M  V30 4717 H 425.416 2.19861 2.41514 0
M  V30 4718 H 424.075 3.57979 0.790351 0
M  V30 4719 H 423.723 3.83646 3.25308 0
M  V30 4720 H 423.423 5.367 2.39222 0
M  V30 4721 H 424.947 5.13967 3.29651 0
M  V30 4722 H 426.361 5.63059 1.07876 0
M  V30 4723 H 424.758 5.98936 0.373593 0
M  V30 4724 H 425.828 4.8295 -0.434394 0
M  V30 4725 N 427.171 -0.0066808 1.57599 0
M  V30 4726 C 428.399 -0.704087 1.94551 0
M  V30 4727 C 428.814 -1.67677 0.867746 0
M  V30 4728 O 428.171 -1.8185 -0.153925 0
M  V30 4729 C 428.222 -1.44177 3.31505 0
M  V30 4730 O 427.943 -0.508097 4.35144 0
M  V30 4731 C 429.444 -2.23429 3.82876 0
M  V30 4732 H 426.664 -0.196523 0.641576 0
M  V30 4733 H 429.208 0.042453 2.04456 0
M  V30 4734 H 427.363 -2.13999 3.22929 0
M  V30 4735 H 427.777 -1.02782 5.14331 0
M  V30 4736 H 429.251 -2.70552 4.8115 0
M  V30 4737 H 429.728 -3.05818 3.15233 0
M  V30 4738 H 430.334 -1.58636 3.94607 0
M  V30 4739 N 428.649 -1.55105 -0.279332 0
M  V30 4740 C 429.582 -1.82467 -1.37044 0
M  V30 4741 C 430.56 -0.677261 -1.47824 0
M  V30 4742 O 431.744 -0.919578 -1.64548 0
M  V30 4743 C 428.871 -1.98066 -2.7475 0
M  V30 4744 C 427.917 -3.20594 -2.81286 0
M  V30 4745 S 428.75 -4.78116 -2.41175 0
M  V30 4746 C 429.906 -4.9668 -3.80867 0
M  V30 4747 H 430.139 -2.74728 -1.1363 0
M  V30 4748 H 427.672 -1.46794 -0.478625 0
M  V30 4749 H 429.63 -2.07739 -3.54055 0
M  V30 4750 H 428.291 -1.06704 -2.9542 0
M  V30 4751 H 427.484 -3.28376 -3.82341 0
M  V30 4752 H 427.086 -3.09479 -2.09996 0
M  V30 4753 H 429.378 -4.82033 -4.76078 0
M  V30 4754 H 430.321 -5.98741 -3.78041 0
M  V30 4755 H 430.729 -4.24698 -3.71876 0
M  V30 4756 N 430.127 0.543554 -1.4793 0
M  V30 4757 C 431.06 1.66556 -1.55995 0
M  V30 4758 C 432.038 1.57315 -0.411205 0
M  V30 4759 O 433.222 1.7798 -0.620922 0
M  V30 4760 C 430.349 3.04883 -1.47527 0
M  V30 4761 C 429.395 3.32526 -2.67074 0
M  V30 4762 S 430.228 3.20282 -4.29162 0
M  V30 4763 C 431.384 4.61079 -4.23269 0
M  V30 4764 H 431.617 1.59462 -2.50917 0
M  V30 4765 H 429.15 0.725456 -1.36296 0
M  V30 4766 H 431.108 3.84665 -1.43328 0
M  V30 4767 H 429.769 3.09429 -0.539665 0
M  V30 4768 H 428.962 4.33403 -2.5725 0
M  V30 4769 H 428.564 2.60389 -2.68466 0
M  V30 4770 H 430.856 5.52318 -3.92365 0
M  V30 4771 H 431.799 4.75959 -5.24279 0
M  V30 4772 H 432.207 4.39766 -3.5393 0
M  V30 4773 N 431.605 1.3629 0.791371 0
M  V30 4774 C 432.537 1.26321 1.91248 0
M  V30 4775 C 433.55 0.18313 1.61767 0
M  V30 4776 O 434.739 0.437682 1.73051 0
M  V30 4777 C 431.839 0.925901 3.26007 0
M  V30 4778 C 431.012 2.10746 3.83281 0
M  V30 4779 C 430.071 1.74352 4.96475 0
M  V30 4780 O 429.097 2.46416 5.13096 0
M  V30 4781 N 430.299 0.676058 5.7655 0
M  V30 4782 H 433.064 2.22915 2.00323 0
M  V30 4783 H 430.625 1.29659 0.969546 0
M  V30 4784 H 432.617 0.663636 3.99222 0
M  V30 4785 H 431.187 0.0491581 3.12561 0
M  V30 4786 H 430.407 2.53264 3.02077 0
M  V30 4787 H 431.695 2.8969 4.18279 0
M  V30 4788 H 431.093 0.0776467 5.65647 0
M  V30 4789 H 429.65 0.473612 6.50077 0
M  V30 4790 N 433.083 -1.0153 1.20538 0
M  V30 4791 C 434.013 -2.11972 0.979295 0
M  V30 4792 C 434.994 -1.6985 -0.0921787 0
M  V30 4793 O 436.179 -1.94089 0.0655932 0
M  V30 4794 C 433.309 -3.43201 0.531984 0
M  V30 4795 C 432.263 -3.9907 1.54685 0
M  V30 4796 C 431.589 -5.26082 0.956127 0
M  V30 4797 C 432.889 -4.32313 2.93092 0
M  V30 4798 H 434.583 -2.31143 1.90298 0
M  V30 4799 H 432.129 -1.11079 0.916372 0
M  V30 4800 H 434.082 -4.1985 0.361044 0
M  V30 4801 H 432.806 -3.23792 -0.427327 0
M  V30 4802 H 431.465 -3.2453 1.70517 0
M  V30 4803 H 431.113 -5.02999 -0.0111538 0
M  V30 4804 H 430.813 -5.64426 1.63393 0
M  V30 4805 H 432.337 -6.05386 0.796284 0
M  V30 4806 H 433.751 -4.99845 2.80763 0
M  V30 4807 H 432.148 -4.81774 3.57791 0
M  V30 4808 H 433.218 -3.41025 3.44717 0
M  V30 4809 N 434.561 -1.01147 -1.20859 0
M  V30 4810 C 435.508 -0.577354 -2.23462 0
M  V30 4811 C 436.478 0.399922 -1.61214 0
M  V30 4812 O 437.663 0.300515 -1.88419 0
M  V30 4813 C 434.803 0.083372 -3.44999 0
M  V30 4814 C 433.916 -0.937856 -4.21697 0
M  V30 4815 C 433.051 -0.248717 -5.30617 0
M  V30 4816 C 432.09 -1.25705 -5.99053 0
M  V30 4817 N 431.227 -0.594939 -6.99575 0
M  V30 4818 H 436.067 -1.45695 -2.59956 0
M  V30 4819 H 433.604 -0.729428 -1.27741 0
M  V30 4820 H 435.562 0.483535 -4.14388 0
M  V30 4821 H 434.192 0.926645 -3.09214 0
M  V30 4822 H 433.244 -1.45622 -3.51423 0
M  V30 4823 H 434.556 -1.70493 -4.68757 0
M  V30 4824 H 433.71 0.207215 -6.06346 0
M  V30 4825 H 432.449 0.55071 -4.84581 0
M  V30 4826 H 431.454 -1.72343 -5.2209 0
M  V30 4827 H 432.679 -2.05767 -6.47176 0
M  V30 4828 H 430.625 0.184713 -6.5574 0
M  V30 4829 H 430.542 -1.30017 -7.44736 0
M  V30 4830 H 431.81 -0.162427 -7.79331 0
M  V30 4831 N 436.039 1.36541 -0.78704 0
M  V30 4832 C 436.971 2.28761 -0.141773 0
M  V30 4833 C 437.984 1.49365 0.647599 0
M  V30 4834 O 439.173 1.71836 0.483173 0
M  V30 4835 C 436.273 3.28771 0.822368 0
M  V30 4836 C 435.446 4.3732 0.0835594 0
M  V30 4837 C 434.505 5.17307 0.963296 0
M  V30 4838 O 433.531 5.67638 0.421419 0
M  V30 4839 N 434.733 5.33515 2.28784 0
M  V30 4840 H 437.498 2.84777 -0.933919 0
M  V30 4841 H 435.059 1.48682 -0.640735 0
M  V30 4842 H 437.051 3.79169 1.41468 0
M  V30 4843 H 435.621 2.73412 1.5154 0
M  V30 4844 H 434.841 3.88118 -0.689809 0
M  V30 4845 H 436.129 5.0701 -0.426358 0
M  V30 4846 H 435.527 4.94234 2.75226 0
M  V30 4847 H 434.084 5.87165 2.82985 0
M  V30 4848 N 437.518 0.538854 1.48102 0
M  V30 4849 C 438.451 -0.266495 2.26639 0
M  V30 4850 C 439.429 -0.93687 1.32897 0
M  V30 4851 O 440.613 -0.959507 1.62252 0
M  V30 4852 C 437.74 -1.37814 3.09394 0
M  V30 4853 C 436.786 -0.818247 4.18577 0
M  V30 4854 S 437.619 0.320848 5.34538 0
M  V30 4855 C 438.775 -0.793059 6.20855 0
M  V30 4856 H 439.008 0.399994 2.94597 0
M  V30 4857 H 436.541 0.324808 1.50945 0
M  V30 4858 H 438.499 -2.01488 3.57649 0
M  V30 4859 H 437.16 -2.01639 2.40833 0
M  V30 4860 H 436.353 -1.65247 4.7614 0
M  V30 4861 H 435.955 -0.258036 3.73109 0
M  V30 4862 H 438.247 -1.68961 6.56093 0
M  V30 4863 H 439.19 -0.255204 7.0764 0
M  V30 4864 H 439.598 -1.07746 5.54122 0
M  V30 4865 N 438.996 -1.55193 0.274407 0
M  V30 4866 C 439.926 -2.25471 -0.607032 0
M  V30 4867 C 440.907 -1.24461 -1.15946 0
M  V30 4868 O 442.092 -1.53179 -1.19373 0
M  V30 4869 C 439.222 -2.97526 -1.79153 0
M  V30 4870 C 438.176 -4.05459 -1.37067 0
M  V30 4871 C 437.502 -4.65084 -2.6382 0
M  V30 4872 C 438.802 -5.19691 -0.521389 0
M  V30 4873 H 440.496 -2.99393 -0.0209343 0
M  V30 4874 H 438.042 -1.43997 -0.00862866 0
M  V30 4875 H 439.995 -3.45402 -2.41404 0
M  V30 4876 H 438.719 -2.21138 -2.40344 0
M  V30 4877 H 437.378 -3.58393 -0.771355 0
M  V30 4878 H 437.026 -3.85365 -3.23268 0
M  V30 4879 H 436.726 -5.37961 -2.36372 0
M  V30 4880 H 438.25 -5.15708 -3.26921 0
M  V30 4881 H 439.664 -5.63623 -1.04889 0
M  V30 4882 H 438.061 -5.99126 -0.341825 0
M  V30 4883 H 439.131 -4.82713 0.46 0
M  V30 4884 N 440.474 -0.00167713 -1.576 0
M  V30 4885 C 441.885 0.54091 -1.78693 0
M  V30 4886 C 442.236 1.7386 -0.909247 0
M  V30 4887 O 441.361 2.16109 -0.112176 0
M  V30 4888 C 441.956 0.98806 -3.24072 0
M  V30 4889 C 440.515 1.47594 -3.46256 0
M  V30 4890 C 439.662 0.42792 -2.73978 0
M  V30 4891 H 442.613 -0.22784 -1.57056 0
M  V30 4892 H 442.634 1.85398 -3.32277 0
M  V30 4893 H 442.146 0.116164 -3.87926 0
M  V30 4894 H 440.247 2.36868 -2.87618 0
M  V30 4895 H 440.36 1.50225 -4.54939 0
M  V30 4896 H 438.724 0.889934 -2.38647 0
M  V30 4897 H 439.507 -0.435038 -3.40532 0
M  V30 4898 N 441.952 1.55251 0.271103 0
M  V30 4899 C 442.882 1.9127 1.33933 0
M  V30 4900 C 443.863 0.77478 1.5143 0
M  V30 4901 O 445.048 1.03307 1.64442 0
M  V30 4902 C 442.178 2.18627 2.69851 0
M  V30 4903 C 441.132 3.34442 2.67081 0
M  V30 4904 C 440.458 3.47284 4.06569 0
M  V30 4905 C 441.758 4.70784 2.26185 0
M  V30 4906 H 443.452 2.80744 1.04035 0
M  V30 4907 H 440.998 1.35077 0.499017 0
M  V30 4908 H 442.951 2.42413 3.44694 0
M  V30 4909 H 441.675 1.25955 3.01335 0
M  V30 4910 H 440.334 3.10627 1.94695 0
M  V30 4911 H 439.982 2.52074 4.35279 0
M  V30 4912 H 439.682 4.25152 4.0561 0
M  V30 4913 H 441.206 3.73363 4.83148 0
M  V30 4914 H 442.62 4.94102 2.90751 0
M  V30 4915 H 441.017 5.51582 2.36384 0
M  V30 4916 H 442.087 4.69478 1.21319 0
M  V30 4917 N 443.43 -0.535701 1.48216 0
M  V30 4918 C 444.378 -1.66179 1.62749 0
M  V30 4919 C 445.372 -1.62034 0.49409 0
M  V30 4920 O 446.578 -1.6696 0.672624 0
M  V30 4921 H 442.953 -0.550244 0.512578 0
M  V30 4922 H 444.924 -1.51063 2.57337 0
M  V30 4923 C 443.673 -3.04471 1.67907 0
M  V30 4924 H 442.996 -3.08351 2.54479 0
M  V30 4925 H 444.436 -3.82894 1.82121 0
M  V30 4926 C 442.895 -3.34314 0.416596 0
M  V30 4927 O 443.425 -3.98905 -0.473014 0
M  V30 4928 N 441.631 -2.89149 0.290038 0
M  V30 4929 H 441.178 -2.36764 1.01493 0
M  V30 4930 H 441.136 -3.09486 -0.55367 0
M  V30 4931 N 444.908 -1.36708 -0.784132 0
M  V30 4932 C 446.136 -1.34398 -1.57305 0
M  V30 4933 C 446.551 0.0735577 -1.88657 0
M  V30 4934 O 445.908 1.03193 -1.50524 0
M  V30 4935 C 445.959 -2.17053 -2.89085 0
M  V30 4936 O 445.68 -3.53281 -2.59083 0
M  V30 4937 C 447.181 -2.22583 -3.83369 0
M  V30 4938 H 444.401 -0.460819 -0.487736 0
M  V30 4939 H 446.945 -1.79879 -0.972819 0
M  V30 4940 H 445.1 -1.75113 -3.45564 0
M  V30 4941 H 445.514 -3.9647 -3.43383 0
M  V30 4942 H 446.988 -2.84763 -4.72878 0
M  V30 4943 H 447.465 -1.23075 -4.21603 0
M  V30 4944 H 448.071 -2.64781 -3.32823 0
M  V30 4945 N 446.386 1.0089 -1.21074 0
M  V30 4946 C 447.334 2.11707 -0.963476 0
M  V30 4947 C 448.328 1.69172 0.0879032 0
M  V30 4948 O 449.534 1.79889 -0.0631415 0
M  V30 4949 H 445.909 0.692026 -0.294287 0
M  V30 4950 H 447.88 2.29743 -1.90422 0
M  V30 4951 C 446.629 3.43473 -0.540509 0
M  V30 4952 H 445.952 3.76634 -1.34114 0
M  V30 4953 H 447.392 4.22044 -0.406777 0
M  V30 4954 C 445.851 3.2849 0.748079 0
M  V30 4955 O 446.381 3.58883 1.8046 0
M  V30 4956 N 444.587 2.81715 0.713081 0
M  V30 4957 H 444.134 2.5718 -0.146973 0
M  V30 4958 H 444.092 2.72071 1.57558 0
M  V30 4959 N 447.864 1.01787 1.20321 0
M  V30 4960 C 449.113 0.703249 1.89043 0
M  V30 4961 C 449.426 -0.770445 1.79787 0
M  V30 4962 O 450.632 -1.19767 2.43656 0
M  V30 4963 C 449.088 1.20749 3.3904 0
M  V30 4964 C 448.696 2.70817 3.56878 0
M  V30 4965 C 450.44 0.968352 4.13308 0
M  V30 4966 C 448.347 3.14716 5.00708 0
M  V30 4967 H 447.277 0.259354 0.707991 0
M  V30 4968 H 449.928 1.23072 1.36108 0
M  V30 4969 H 448.31 0.607989 3.91305 0
M  V30 4970 H 449.484 3.36327 3.14993 0
M  V30 4971 H 447.799 2.92888 2.95983 0
M  V30 4972 H 450.396 1.27173 5.19356 0
M  V30 4973 H 450.739 -0.095149 4.16191 0
M  V30 4974 H 451.272 1.53129 3.67146 0
M  V30 4975 H 448.011 4.20347 5.02979 0
M  V30 4976 H 447.531 2.53927 5.43398 0
M  V30 4977 H 449.21 3.07426 5.69296 0
M  V30 4978 N 449.342 -1.36122 0.79427 0
M  V30 4979 C 450.758 -1.5232 0.476525 0
M  V30 4980 C 450.958 -1.74685 -1.00436 0
M  V30 4981 O 450.014 -1.78115 -1.78973 0
M  V30 4982 C 451.327 -2.70607 1.31119 0
M  V30 4983 C 452.875 -2.8448 1.30537 0
M  V30 4984 C 453.35 -4.05778 2.12387 0
M  V30 4985 N 454.841 -4.12933 2.09859 0
M  V30 4986 C 455.576 -5.05876 2.69957 0
M  V30 4987 N 455.072 -6.04232 3.38934 0
M  V30 4988 N 456.865 -4.98528 2.59665 0
M  V30 4989 H 449.016 -1.1986 1.75349 0
M  V30 4990 H 451.279 -0.585418 0.745647 0
M  V30 4991 H 450.985 -2.60619 2.36158 0
M  V30 4992 H 450.859 -3.64888 0.955843 0
M  V30 4993 H 453.246 -2.93927 0.262876 0
M  V30 4994 H 453.327 -1.91093 1.70051 0
M  V30 4995 H 452.971 -3.97092 3.1667 0
M  V30 4996 H 452.901 -4.98323 1.70242 0
M  V30 4997 H 455.392 -3.42515 1.59662 0
M  V30 4998 H 455.705 -6.71724 3.82109 0
M  V30 4999 H 454.05 -6.04443 3.43036 0
M  V30 5000 H 457.241 -4.20641 2.05375 0
M  V30 5001 H 457.414 -5.70773 3.06793 0
M  V30 5002 N 450.82 -0.546701 -1.47814 0
M  V30 5003 C 451.75 0.195317 -2.32682 0
M  V30 5004 C 452.731 0.918981 -1.43139 0
M  V30 5005 O 453.916 0.901501 -1.72008 0
M  V30 5006 C 451.046 1.23237 -3.247 0
M  V30 5007 C 450 0.625818 -4.234 0
M  V30 5008 C 449.326 1.76674 -5.04669 0
M  V30 5009 C 450.626 -0.413515 -5.2066 0
M  V30 5010 H 452.32 -0.513184 -2.94969 0
M  V30 5011 H 449.866 -0.248241 -1.41844 0
M  V30 5012 H 451.819 1.75955 -3.82907 0
M  V30 5013 H 450.543 1.97067 -2.60446 0
M  V30 5014 H 449.202 0.120023 -3.66403 0
M  V30 5015 H 448.85 2.49383 -4.36826 0
M  V30 5016 H 448.55 1.36673 -5.71484 0
M  V30 5017 H 450.074 2.29738 -5.65732 0
M  V30 5018 H 451.488 0.0272042 -5.73294 0
M  V30 5019 H 449.885 -0.731825 -5.95621 0
M  V30 5020 H 450.955 -1.31325 -4.66778 0
M  V30 5021 N 452.299 1.55045 -0.282633 0
M  V30 5022 C 453.262 2.21515 0.588539 0
M  V30 5023 C 454.262 1.19535 1.07554 0
M  V30 5024 O 455.452 1.44391 0.974514 0
M  V30 5025 C 452.584 2.88704 1.8128 0
M  V30 5026 H 453.777 2.99899 0.00806397 0
M  V30 5027 H 451.33 1.56265 -0.0333067 0
M  V30 5028 H 452.065 2.14352 2.43359 0
M  V30 5029 H 451.85 3.63443 1.47144 0
M  V30 5030 H 453.34 3.39465 2.43214 0
M  V30 5031 N 453.777 0.010035 1.57597 0
M  V30 5032 C 455.007 -0.682422 1.95004 0
M  V30 5033 C 455.415 -1.67278 0.884014 0
M  V30 5034 O 454.758 -1.83129 -0.144672 0
M  V30 5035 C 454.82 -1.46141 3.28456 0
M  V30 5036 C 454.484 -0.631523 4.52615 0
M  V30 5037 C 455.481 0.0850905 5.1983 0
M  V30 5038 C 453.166 -0.574539 4.99003 0
M  V30 5039 C 455.16 0.847566 6.3174 0
M  V30 5040 C 452.847 0.191655 6.10799 0
M  V30 5041 C 453.845 0.901432 6.77025 0
M  V30 5042 O 453.533 1.65511 7.86677 0
M  V30 5043 H 453.265 -0.194361 0.647456 0
M  V30 5044 H 455.819 0.060312 2.05311 0
M  V30 5045 H 454.049 -2.24885 3.14585 0
M  V30 5046 H 455.738 -2.04016 3.50902 0
M  V30 5047 H 456.504 0.0502812 4.84974 0
M  V30 5048 H 452.383 -1.11654 4.47274 0
M  V30 5049 H 455.927 1.4021 6.83364 0
M  V30 5050 H 451.824 0.228249 6.45096 0
M  V30 5051 H 452.592 1.57287 8.03245 0
M  V30 5052 N 455.255 -1.55392 -0.262866 0
M  V30 5053 C 456.48 -1.80847 -1.01533 0
M  V30 5054 C 456.905 -0.584946 -1.78774 0
M  V30 5055 O 456.263 0.465701 -1.75217 0
M  V30 5056 C 456.311 -3.03866 -1.94159 0
M  V30 5057 O 455.415 -2.79662 -3.03089 0
M  V30 5058 H 454.756 -0.597441 -0.289759 0
M  V30 5059 H 457.286 -2.02553 -0.288698 0
M  V30 5060 H 457.296 -3.32872 -2.35924 0
M  V30 5061 H 455.971 -3.92564 -1.37354 0
M  V30 5062 H 454.548 -2.61781 -2.65566 0
M  V30 5063 N 456.733 0.527833 -1.48498 0
M  V30 5064 C 457.681 1.65313 -1.63628 0
M  V30 5065 C 458.675 1.6177 -0.502676 0
M  V30 5066 O 459.881 1.66601 -0.681469 0
M  V30 5067 H 456.256 0.547518 -0.515488 0
M  V30 5068 H 458.227 1.49696 -2.58135 0
M  V30 5069 C 456.976 3.03576 -1.6952 0
M  V30 5070 H 456.299 3.06997 -2.56111 0
M  V30 5071 H 457.739 3.81923 -1.84149 0
M  V30 5072 C 456.198 3.34089 -0.43432 0
M  V30 5073 O 456.728 3.99151 0.451852 0
M  V30 5074 N 454.934 2.88991 -0.305368 0
M  V30 5075 H 454.481 2.36222 -1.02747 0
M  V30 5076 H 454.439 3.09776 0.537249 0
M  V30 5077 N 458.211 1.37122 0.776871 0
M  V30 5078 C 459.459 1.31787 1.53221 0
M  V30 5079 C 459.78 -0.0987589 1.9475 0
M  V30 5080 O 459.05 -1.0417 1.65908 0
M  V30 5081 H 457.63 0.484839 0.568278 0
M  V30 5082 H 460.292 1.71556 0.924917 0
M  V30 5083 H 459.388 1.95355 2.43398 0
M  V30 5084 N 459.689 -1.00246 1.21608 0
M  V30 5085 C 460.636 -2.09073 0.977613 0
M  V30 5086 C 461.606 -1.65815 -0.097297 0
M  V30 5087 O 462.791 -1.90734 0.0503445 0
M  V30 5088 C 459.931 -3.40671 0.551133 0
M  V30 5089 C 459.044 -3.97326 1.69576 0
M  V30 5090 C 458.179 -5.17043 1.2182 0
M  V30 5091 C 457.218 -5.65813 2.335 0
M  V30 5092 N 456.355 -6.76778 1.86859 0
M  V30 5093 H 461.195 -2.28806 1.90924 0
M  V30 5094 H 458.732 -1.12186 0.951452 0
M  V30 5095 H 460.69 -4.16225 0.285097 0
M  V30 5096 H 459.32 -3.20967 -0.343489 0
M  V30 5097 H 458.372 -3.18734 2.07637 0
M  V30 5098 H 459.684 -4.29511 2.53617 0
M  V30 5099 H 458.838 -5.99852 0.908975 0
M  V30 5100 H 457.577 -4.86458 0.347869 0
M  V30 5101 H 456.582 -4.81599 2.65222 0
M  V30 5102 H 457.807 -5.98427 3.21033 0
M  V30 5103 H 455.753 -6.47994 1.02174 0
M  V30 5104 H 455.67 -7.08231 2.64471 0
M  V30 5105 H 456.938 -7.63116 1.58978 0
M  V30 5106 N 461.167 -1.02423 -1.1978 0
M  V30 5107 C 462.444 -0.632802 -1.85081 0
M  V30 5108 C 462.824 0.888745 -1.9148 0
M  V30 5109 O 462.172 1.78357 -1.42832 0
M  V30 5110 C 462.382 -1.28947 -3.24305 0
M  V30 5111 C 463.73 -1.40976 -4.00513 0
M  V30 5112 O 464.754 -1.24628 -3.33686 0
M  V30 5113 O 463.613 -1.67467 -5.20209 0
M  V30 5114 H 460.707 -0.219348 -0.79738 0
M  V30 5115 H 463.253 -1.12209 -1.27307 0
M  V30 5116 H 462.025 -2.3288 -3.14456 0
M  V30 5117 H 461.648 -0.787748 -3.89718 0
M  V30 5118 N 462.645 1.35699 -0.801477 0
M  V30 5119 C 463.922 1.9324 -0.302937 0
M  V30 5120 C 464.302 1.73209 1.20672 0
M  V30 5121 O 463.65 1.09809 2.00385 0
M  V30 5122 C 463.86 3.41728 -0.708747 0
M  V30 5123 C 465.208 4.18868 -0.695328 0
M  V30 5124 O 466.232 3.5022 -0.649971 0
M  V30 5125 O 465.091 5.41342 -0.749081 0
M  V30 5126 H 462.185 0.82331 -0.0780367 0
M  V30 5127 H 464.731 1.44806 -0.884832 0
M  V30 5128 H 463.503 3.50015 -1.74944 0
M  V30 5129 H 463.126 3.97471 -0.101384 0
M  V30 5130 N 464.123 0.554532 1.47522 0
M  V30 5131 C 465.033 -0.197865 2.33764 0
M  V30 5132 C 466.049 -0.914576 1.48025 0
M  V30 5133 O 467.225 -0.884067 1.80959 0
M  V30 5134 C 464.29 -1.21628 3.24665 0
M  V30 5135 C 463.351 -0.507283 4.26292 0
M  V30 5136 C 462.584 -1.47718 5.1285 0
M  V30 5137 O 462.807 -2.7118 5.01814 0
M  V30 5138 O 461.741 -1.00313 5.93482 0
M  V30 5139 H 465.567 0.50949 2.99396 0
M  V30 5140 H 463.152 0.315176 1.46038 0
M  V30 5141 H 465.034 -1.80421 3.80823 0
M  V30 5142 H 463.709 -1.9056 2.61665 0
M  V30 5143 H 462.616 0.121778 3.73902 0
M  V30 5144 H 463.949 0.140544 4.91999 0
M  V30 5145 N 465.601 -1.54893 0.290851 0
M  V30 5146 C 466.533 -2.20564 -0.623236 0
M  V30 5147 C 467.546 -1.19519 -1.1054 0
M  V30 5148 O 468.735 -1.46165 -1.02459 0
M  V30 5149 C 465.835 -2.83033 -1.86401 0
M  V30 5150 C 465.008 -4.09916 -1.52604 0
M  V30 5151 C 464.067 -4.56284 -2.62091 0
M  V30 5152 O 463.093 -5.2171 -2.27612 0
M  V30 5153 N 464.295 -4.27746 -3.92446 0
M  V30 5154 H 467.06 -2.99638 -0.0610915 0
M  V30 5155 H 464.621 -1.61508 0.112615 0
M  V30 5156 H 466.613 -3.1099 -2.58973 0
M  V30 5157 H 465.183 -2.0786 -2.33481 0
M  V30 5158 H 464.403 -3.89078 -0.633424 0
M  V30 5159 H 465.691 -4.92554 -1.27547 0
M  V30 5160 H 465.089 -3.7531 -4.23272 0
M  V30 5161 H 463.646 -4.60437 -4.61347 0
M  V30 5162 N 467.08 -0.0183926 -1.57589 0
M  V30 5163 C 468.028 0.985111 -2.10709 0
M  V30 5164 C 469.022 1.34397 -1.0312 0
M  V30 5165 O 470.228 1.32746 -1.21567 0
M  V30 5166 H 466.603 0.335418 -0.673052 0
M  V30 5167 H 468.574 0.511689 -2.9398 0
M  V30 5168 C 467.323 2.26202 -2.64061 0
M  V30 5169 H 466.646 1.9946 -3.4649 0
M  V30 5170 H 468.086 2.94652 -3.04887 0
M  V30 5171 C 466.545 2.98444 -1.5631 0
M  V30 5172 O 467.075 3.90142 -0.956674 0
M  V30 5173 N 465.281 2.6059 -1.28612 0
M  V30 5174 H 464.828 1.86101 -1.78112 0
M  V30 5175 H 464.786 3.09238 -0.567406 0
M  V30 5176 N 468.558 1.5553 0.254621 0
M  V30 5177 C 469.805 1.77 0.983736 0
M  V30 5178 C 470.133 0.58133 1.85609 0
M  V30 5179 O 469.388 -0.435621 1.9079 0
M  V30 5180 C 469.687 3.03891 1.88109 0
M  V30 5181 C 469.353 4.35597 1.16472 0
M  V30 5182 C 468.015 4.7139 0.966714 0
M  V30 5183 C 470.367 5.1705 0.656387 0
M  V30 5184 C 467.695 5.86176 0.247942 0
M  V30 5185 C 470.047 6.32581 -0.0488807 0
M  V30 5186 C 468.711 6.67 -0.258438 0
M  V30 5187 H 467.981 0.647688 0.359974 0
M  V30 5188 H 470.628 1.89802 0.254463 0
M  V30 5189 H 468.933 2.86068 2.67717 0
M  V30 5190 H 470.63 3.17701 2.44677 0
M  V30 5191 H 467.22 4.07475 1.32899 0
M  V30 5192 H 471.404 4.8986 0.796933 0
M  V30 5193 H 466.66 6.11354 0.075035 0
M  V30 5194 H 470.834 6.94942 -0.450444 0
M  V30 5195 H 468.461 7.55793 -0.817358 0
M  V30 5196 N 470.036 -0.519951 1.48776 0
M  V30 5197 C 471.285 -1.27175 1.56555 0
M  V30 5198 C 471.598 -1.9401 0.248869 0
M  V30 5199 O 472.804 -2.70725 0.205004 0
M  V30 5200 C 471.26 -2.30811 2.76142 0
M  V30 5201 C 470.868 -1.7 4.14493 0
M  V30 5202 C 472.612 -3.06937 2.9324 0
M  V30 5203 C 470.519 -2.71635 5.25327 0
M  V30 5204 H 469.449 -0.478329 0.582853 0
M  V30 5205 H 472.1 -0.547916 1.75129 0
M  V30 5206 H 470.482 -3.06274 2.51023 0
M  V30 5207 H 471.656 -1.00658 4.49672 0
M  V30 5208 H 469.971 -1.06331 4.02595 0
M  V30 5209 H 472.568 -3.82905 3.73213 0
M  V30 5210 H 472.911 -3.63409 2.03075 0
M  V30 5211 H 473.444 -2.38589 3.18308 0
M  V30 5212 H 470.183 -2.1997 6.1749 0
M  V30 5213 H 469.703 -3.39275 4.94624 0
M  V30 5214 H 471.382 -3.34429 5.53865 0
M  V30 5215 N 471.514 -1.37532 -0.769588 0
M  V30 5216 C 472.446 -1.29347 -1.89214 0
M  V30 5217 C 473.459 -0.208842 -1.61455 0
M  V30 5218 O 474.648 -0.465158 -1.72333 0
M  V30 5219 C 471.748 -0.977649 -3.24492 0
M  V30 5220 C 470.921 -2.16817 -3.7988 0
M  V30 5221 C 469.98 -1.82229 -4.93639 0
M  V30 5222 O 469.006 -2.54548 -5.09111 0
M  V30 5223 N 470.208 -0.767696 -5.75401 0
M  V30 5224 H 472.973 -2.26073 -1.96751 0
M  V30 5225 H 470.534 -1.31185 -0.948795 0
M  V30 5226 H 472.526 -0.727065 -3.98115 0
M  V30 5227 H 471.096 -0.0988777 -3.12444 0
M  V30 5228 H 470.316 -2.58038 -2.9801 0
M  V30 5229 H 471.604 -2.96308 -4.13617 0
M  V30 5230 H 471.002 -0.167626 -5.65452 0
M  V30 5231 H 469.559 -0.576973 -6.49241 0
M  V30 5232 N 472.992 0.995999 -1.22138 0
M  V30 5233 C 473.94 2.10673 -0.985876 0
M  V30 5234 C 474.934 1.69255 0.0699553 0
M  V30 5235 O 476.14 1.79812 -0.0822176 0
M  V30 5236 H 472.515 0.688865 -0.30161 0
M  V30 5237 H 474.486 2.27711 -1.92848 0
M  V30 5238 C 473.235 3.42881 -0.576909 0
M  V30 5239 H 472.558 3.75191 -1.38101 0
M  V30 5240 H 473.998 4.21589 -0.451518 0
M  V30 5241 C 472.457 3.29265 0.713196 0
M  V30 5242 O 472.987 3.60777 1.76643 0
M  V30 5243 N 471.193 2.82456 0.683162 0
M  V30 5244 H 470.74 2.5701 -0.174242 0
M  V30 5245 H 470.698 2.73727 1.54663 0
M  V30 5246 N 474.47 1.03057 1.19235 0
M  V30 5247 C 475.4 0.633497 2.24742 0
M  V30 5248 C 476.381 -0.358335 1.66283 0
M  V30 5249 O 477.566 -0.240676 1.92703 0
M  V30 5250 C 474.696 -0.0147648 3.47297 0
M  V30 5251 C 473.65 0.899527 4.18441 0
M  V30 5252 C 472.976 0.116281 5.34574 0
M  V30 5253 C 474.276 2.21404 4.73051 0
M  V30 5254 H 475.97 1.5155 2.58211 0
M  V30 5255 H 473.516 0.73014 1.24117 0
M  V30 5256 H 475.469 -0.304202 4.20301 0
M  V30 5257 H 474.193 -0.931577 3.13032 0
M  V30 5258 H 472.852 1.17319 3.47321 0
M  V30 5259 H 472.5 -0.802619 4.96555 0
M  V30 5260 H 472.2 0.725293 5.83107 0
M  V30 5261 H 473.724 -0.166376 6.10373 0
M  V30 5262 H 475.138 1.98601 5.37802 0
M  V30 5263 H 473.535 2.77512 5.32078 0
M  V30 5264 H 474.605 2.86752 3.91026 0
M  V30 5265 N 475.948 -1.35272 0.808662 0
M  V30 5266 C 477.173 -2.03477 0.401475 0
M  V30 5267 C 477.598 -1.60537 -0.980279 0
M  V30 5268 O 476.956 -0.78304 -1.63518 0
M  V30 5269 C 477.004 -3.57181 0.495354 0
M  V30 5270 O 476.108 -4.09474 -0.490397 0
M  V30 5271 H 475.449 -0.642561 0.167366 0
M  V30 5272 H 477.979 -1.72824 1.09512 0
M  V30 5273 H 477.989 -4.06356 0.365912 0
M  V30 5274 H 476.664 -3.87784 1.5032 0
M  V30 5275 H 475.241 -3.71516 -0.321023 0
M  V30 5276 N 477.426 -0.562348 -1.47226 0
M  V30 5277 C 478.356 0.170627 -2.32876 0
M  V30 5278 C 479.337 0.903748 -1.44106 0
M  V30 5279 O 480.522 0.883206 -1.72954 0
M  V30 5280 C 477.652 1.19786 -3.25989 0
M  V30 5281 C 476.606 0.580875 -4.2404 0
M  V30 5282 C 475.932 1.71311 -5.06514 0
M  V30 5283 C 477.232 -0.468714 -5.20193 0
M  V30 5284 H 478.926 -0.544441 -2.94408 0
M  V30 5285 H 476.472 -0.263271 -1.41573 0
M  V30 5286 H 478.425 1.71884 -3.84752 0
M  V30 5287 H 477.149 1.94294 -2.62521 0
M  V30 5288 H 475.808 0.0811538 -3.6651 0
M  V30 5289 H 475.456 2.44736 -4.39447 0
M  V30 5290 H 475.156 1.30604 -5.72902 0
M  V30 5291 H 476.68 2.23725 -5.68137 0
M  V30 5292 H 478.094 -0.0336028 -5.7329 0
M  V30 5293 H 476.491 -0.794957 -5.94811 0
M  V30 5294 H 477.561 -1.36269 -4.65359 0
M  V30 5295 N 478.904 1.54736 -0.299062 0
M  V30 5296 C 480.151 2.00101 0.310784 0
M  V30 5297 C 480.479 1.18746 1.54045 0
M  V30 5298 O 479.734 0.251198 1.94081 0
M  V30 5299 C 480.033 3.50199 0.713835 0
M  V30 5300 C 479.699 4.48997 -0.413873 0
M  V30 5301 C 478.361 4.7573 -0.723462 0
M  V30 5302 C 480.713 5.07839 -1.17257 0
M  V30 5303 C 478.041 5.5857 -1.79491 0
M  V30 5304 C 480.393 5.91844 -2.23392 0
M  V30 5305 C 479.057 6.16889 -2.54959 0
M  V30 5306 H 478.327 0.732221 0.113724 0
M  V30 5307 H 480.974 1.86888 -0.417756 0
M  V30 5308 H 479.279 3.61012 1.52243 0
M  V30 5309 H 480.976 3.82723 1.19684 0
M  V30 5310 H 477.566 4.28292 -0.162476 0
M  V30 5311 H 481.75 4.87188 -0.946651 0
M  V30 5312 H 477.006 5.76213 -2.04423 0
M  V30 5313 H 481.18 6.36465 -2.8264 0
M  V30 5314 H 478.807 6.80869 -3.38114 0
M  V30 5315 N 480.382 0.0267497 1.57577 0
M  V30 5316 C 481.312 -0.954308 2.13108 0
M  V30 5317 C 482.293 -1.34088 1.04663 0
M  V30 5318 O 483.478 -1.41992 1.32484 0
M  V30 5319 C 480.608 -2.23744 2.65624 0
M  V30 5320 C 479.562 -1.99168 3.78835 0
M  V30 5321 C 478.888 -3.33726 4.17769 0
M  V30 5322 C 480.188 -1.33277 5.0501 0
M  V30 5323 H 481.882 -0.491848 2.95332 0
M  V30 5324 H 479.428 -0.23514 1.42067 0
M  V30 5325 H 481.381 -2.92754 3.03106 0
M  V30 5326 H 480.105 -2.72151 1.80558 0
M  V30 5327 H 478.764 -1.32577 3.41788 0
M  V30 5328 H 478.412 -3.79888 3.29688 0
M  V30 5329 H 478.112 -3.18089 4.94058 0
M  V30 5330 H 479.636 -4.04008 4.57832 0
M  V30 5331 H 481.05 -1.92283 5.40093 0
M  V30 5332 H 479.447 -1.28045 5.8628 0
M  V30 5333 H 480.517 -0.305411 4.83937 0
M  V30 5334 N 481.861 -1.55662 -0.24637 0
M  V30 5335 C 483.101 -1.79283 -0.981685 0
M  V30 5336 C 483.465 -0.596356 -1.82504 0
M  V30 5337 O 484.666 -0.711342 -2.59217 0
M  V30 5338 C 482.937 -3.07648 -1.819 0
M  V30 5339 S 484.496 -3.52491 -2.61334 0
M  V30 5340 H 481.314 -0.629676 -0.330196 0
M  V30 5341 H 483.916 -1.93901 -0.249498 0
M  V30 5342 H 482.62 -3.92794 -1.18915 0
M  V30 5343 H 482.151 -2.95768 -2.59393 0
M  V30 5344 H 484.166 -3.13866 -3.84321 0
M  V30 5345 N 483.339 0.512053 -1.4905 0
M  V30 5346 C 484.567 1.29116 -1.61669 0
M  V30 5347 C 484.982 1.86655 -0.283787 0
M  V30 5348 O 484.339 1.67293 0.729331 0
M  V30 5349 C 484.39 2.4293 -2.67707 0
M  V30 5350 O 484.111 1.87758 -3.95826 0
M  V30 5351 C 485.612 3.34476 -2.90931 0
M  V30 5352 H 482.832 0.392009 -0.544583 0
M  V30 5353 H 485.376 0.615881 -1.95006 0
M  V30 5354 H 483.531 3.06308 -2.37179 0
M  V30 5355 H 483.945 2.62393 -4.54148 0
M  V30 5356 H 485.419 4.10642 -3.68886 0
M  V30 5357 H 485.896 3.90801 -2.00427 0
M  V30 5358 H 486.502 2.76874 -3.22832 0
M  V30 5359 N 484.817 1.37938 0.762283 0
M  V30 5360 C 486.064 1.33668 1.52115 0
M  V30 5361 C 486.392 -0.0759538 1.94352 0
M  V30 5362 O 485.647 -1.05121 1.6507 0
M  V30 5363 C 485.946 2.23042 2.79261 0
M  V30 5364 C 485.612 3.71159 2.56031 0
M  V30 5365 C 484.274 4.11523 2.49404 0
M  V30 5366 C 486.626 4.64955 2.35513 0
M  V30 5367 C 483.954 5.43784 2.20263 0
M  V30 5368 C 486.306 5.97464 2.07894 0
M  V30 5369 C 484.97 6.36922 1.99718 0
M  V30 5370 H 484.24 0.489127 0.556629 0
M  V30 5371 H 486.887 1.70224 0.877262 0
M  V30 5372 H 485.192 1.79512 3.48256 0
M  V30 5373 H 486.889 2.17047 3.37182 0
M  V30 5374 H 483.479 3.39153 2.62056 0
M  V30 5375 H 487.663 4.34623 2.39617 0
M  V30 5376 H 482.919 5.73307 2.12435 0
M  V30 5377 H 487.093 6.6969 1.91019 0
M  V30 5378 H 484.72 7.39331 1.76902 0
M  V30 5379 N 486.295 -0.989507 1.22664 0
M  V30 5380 C 487.225 -2.09847 1.02404 0
M  V30 5381 C 488.206 -1.70007 -0.0561303 0
M  V30 5382 O 489.391 -1.93906 0.106748 0
M  V30 5383 C 486.521 -3.41996 0.604663 0
M  V30 5384 C 485.475 -3.95699 1.63115 0
M  V30 5385 C 484.801 -5.23936 1.0675 0
M  V30 5386 C 486.101 -4.25999 3.02196 0
M  V30 5387 H 487.795 -2.27054 1.95158 0
M  V30 5388 H 485.341 -1.09111 0.939727 0
M  V30 5389 H 487.294 -4.1899 0.45002 0
M  V30 5390 H 486.018 -3.24626 -0.35855 0
M  V30 5391 H 484.677 -3.2084 1.77362 0
M  V30 5392 H 484.325 -5.02909 0.0955422 0
M  V30 5393 H 484.025 -5.60833 1.75328 0
M  V30 5394 H 485.549 -6.0356 0.924516 0
M  V30 5395 H 486.963 -4.93777 2.91303 0
M  V30 5396 H 485.36 -4.74076 3.67929 0
M  V30 5397 H 486.43 -3.33636 3.51873 0
M  V30 5398 N 487.773 -1.03688 -1.18687 0
M  V30 5399 C 488.72 -0.624624 -2.22187 0
M  V30 5400 C 489.69 0.365636 -1.62026 0
M  V30 5401 O 490.875 0.260481 -1.89014 0
M  V30 5402 C 488.015 0.0101738 -3.45099 0
M  V30 5403 C 487.128 -1.02709 -4.19613 0
M  V30 5404 C 486.263 -0.361213 -5.2997 0
M  V30 5405 C 485.302 -1.38384 -5.96252 0
M  V30 5406 N 484.439 -0.743196 -6.98155 0
M  V30 5407 H 489.279 -1.51176 -2.56807 0
M  V30 5408 H 486.816 -0.75636 -1.26165 0
M  V30 5409 H 488.774 0.395528 -4.15321 0
M  V30 5410 H 487.404 0.860848 -3.1111 0
M  V30 5411 H 486.456 -1.53043 -3.48256 0
M  V30 5412 H 487.768 -1.80398 -4.65036 0
M  V30 5413 H 486.922 0.0785537 -6.06649 0
M  V30 5414 H 485.661 0.447799 -4.8564 0
M  V30 5415 H 484.666 -1.83378 -5.18317 0
M  V30 5416 H 485.891 -2.19448 -6.42666 0
M  V30 5417 H 483.837 0.0455789 -6.55984 0
M  V30 5418 H 483.754 -1.45784 -7.41811 0
M  V30 5419 H 485.022 -0.327698 -7.78811 0
M  V30 5420 N 489.251 1.34841 -0.815825 0
M  V30 5421 C 490.161 2.33425 -0.234462 0
M  V30 5422 C 491.177 1.62295 0.627413 0
M  V30 5423 O 492.353 1.94109 0.536987 0
M  V30 5424 C 489.418 3.41471 0.599849 0
M  V30 5425 C 488.479 4.28362 -0.283596 0
M  V30 5426 C 487.712 5.31248 0.51099 0
M  V30 5427 O 487.935 5.43056 1.7449 0
M  V30 5428 O 486.869 6.01812 -0.10297 0
M  V30 5429 H 490.695 2.84962 -1.05024 0
M  V30 5430 H 488.28 1.37774 -0.577809 0
M  V30 5431 H 490.162 4.07464 1.07475 0
M  V30 5432 H 488.837 2.9219 1.39308 0
M  V30 5433 H 487.744 3.65318 -0.805836 0
M  V30 5434 H 489.077 4.81066 -1.041 0
M  V30 5435 N 490.729 0.570148 1.46925 0
M  V30 5436 C 491.679 -0.190921 2.27199 0
M  V30 5437 C 492.663 -0.873457 1.35128 0
M  V30 5438 O 493.855 -0.769627 1.59392 0
M  V30 5439 C 490.984 -1.21204 3.21192 0
M  V30 5440 C 490.07 -0.532261 4.20747 0
M  V30 5441 N 490.461 0.405038 5.04176 0
M  V30 5442 C 488.759 -0.784582 4.39045 0
M  V30 5443 C 489.46 0.801149 5.76157 0
M  V30 5444 N 488.436 0.153082 5.43384 0
M  V30 5445 H 492.238 0.529535 2.8909 0
M  V30 5446 H 489.752 0.391019 1.57622 0
M  V30 5447 H 491.749 -1.77135 3.77398 0
M  V30 5448 H 490.409 -1.93345 2.6086 0
M  V30 5449 H 491.42 0.779903 5.11994 0
M  V30 5450 H 488.097 -1.49352 3.89872 0
M  V30 5451 H 489.487 1.57208 6.5325 0
M  V30 5452 N 492.207 -1.54576 0.307264 0
M  V30 5453 C 493.484 -1.92377 -0.353605 0
M  V30 5454 C 493.864 -1.23517 -1.71192 0
M  V30 5455 O 493.212 -0.373101 -2.25433 0
M  V30 5456 C 493.422 -3.45928 -0.462039 0
M  V30 5457 C 494.77 -4.18278 -0.729975 0
M  V30 5458 O 495.794 -3.51997 -0.545605 0
M  V30 5459 O 494.653 -5.3563 -1.08454 0
M  V30 5460 H 491.747 -0.802747 -0.198812 0
M  V30 5461 H 494.293 -1.65929 0.355783 0
M  V30 5462 H 493.065 -3.88187 0.492592 0
M  V30 5463 H 492.688 -3.78431 -1.21965 0
M  V30 5464 N 493.685 -0.035106 -1.57561 0
M  V30 5465 C 494.617 0.973604 -2.07494 0
M  V30 5466 C 495.63 1.28504 -0.999534 0
M  V30 5467 O 496.819 1.24864 -1.27559 0
M  V30 5468 C 493.919 2.29945 -2.48955 0
M  V30 5469 C 493.092 2.1723 -3.79644 0
M  V30 5470 C 492.151 3.328 -4.07592 0
M  V30 5471 O 491.177 3.09418 -4.77754 0
M  V30 5472 N 492.379 4.56779 -3.58236 0
M  V30 5473 H 495.144 0.547525 -2.94656 0
M  V30 5474 H 492.705 0.151515 -1.61189 0
M  V30 5475 H 494.697 3.06097 -2.64739 0
M  V30 5476 H 493.267 2.64173 -1.67126 0
M  V30 5477 H 492.487 1.25768 -3.73599 0
M  V30 5478 H 493.775 2.05945 -4.65257 0
M  V30 5479 H 493.173 4.78668 -3.01485 0
M  V30 5480 H 491.73 5.30079 -3.79288 0
M  V30 5481 N 495.163 1.55791 0.238111 0
M  V30 5482 C 496.093 1.94068 1.29846 0
M  V30 5483 C 497.074 0.806726 1.49753 0
M  V30 5484 O 498.259 1.06772 1.62214 0
M  V30 5485 C 495.389 2.24302 2.65153 0
M  V30 5486 C 494.343 3.40032 2.59927 0
M  V30 5487 C 493.669 3.55829 3.99111 0
M  V30 5488 C 494.969 4.75476 2.16148 0
M  V30 5489 H 496.663 2.82887 0.980563 0
M  V30 5490 H 494.209 1.36105 0.470253 0
M  V30 5491 H 496.162 2.4967 3.39475 0
M  V30 5492 H 494.886 1.32318 2.98596 0
M  V30 5493 H 493.545 3.14687 1.88063 0
M  V30 5494 H 493.193 2.6125 4.29834 0
M  V30 5495 H 492.893 4.3366 3.96501 0
M  V30 5496 H 494.417 3.83528 4.7512 0
M  V30 5497 H 495.831 5.00158 2.80205 0
M  V30 5498 H 494.228 5.56472 2.24631 0
M  V30 5499 H 495.298 4.71946 1.11333 0
M  V30 5500 N 496.642 -0.504142 1.49319 0
M  V30 5501 C 497.891 -1.25507 1.57895 0
M  V30 5502 C 498.204 -1.93735 0.269433 0
M  V30 5503 O 499.41 -2.70492 0.233706 0
M  V30 5504 C 497.866 -2.27869 2.78574 0
M  V30 5505 C 497.474 -1.65594 4.16272 0
M  V30 5506 C 499.218 -3.0381 2.96479 0
M  V30 5507 C 497.125 -2.66048 5.28178 0
M  V30 5508 H 496.055 -0.47212 0.587894 0
M  V30 5509 H 498.706 -0.52931 1.757 0
M  V30 5510 H 497.088 -3.03594 2.54257 0
M  V30 5511 H 498.262 -0.958826 4.50714 0
M  V30 5512 H 496.577 -1.02055 4.037 0
M  V30 5513 H 499.174 -3.78925 3.77253 0
M  V30 5514 H 499.517 -3.61235 2.06918 0
M  V30 5515 H 500.05 -2.352 3.20821 0
M  V30 5516 H 496.789 -2.13408 6.19788 0
M  V30 5517 H 496.309 -3.34009 4.98195 0
M  V30 5518 H 497.988 -3.28536 5.57381 0
M  V30 5519 N 498.12 -1.38341 -0.754957 0
M  V30 5520 C 499.03 -1.3769 -1.89944 0
M  V30 5521 C 500.046 -0.274194 -1.71826 0
M  V30 5522 O 501.222 -0.512391 -1.94773 0
M  V30 5523 C 498.287 -1.19938 -3.25293 0
M  V30 5524 C 497.348 -2.40001 -3.55946 0
M  V30 5525 C 496.581 -2.23087 -4.84838 0
M  V30 5526 O 496.804 -1.22386 -5.57116 0
M  V30 5527 O 495.738 -3.11646 -5.14937 0
M  V30 5528 H 499.564 -2.3412 -1.93446 0
M  V30 5529 H 497.149 -1.19246 -0.900044 0
M  V30 5530 H 499.031 -1.12093 -4.06218 0
M  V30 5531 H 497.706 -0.265919 -3.22606 0
M  V30 5532 H 496.613 -2.53421 -2.75188 0
M  V30 5533 H 497.946 -3.31973 -3.63394 0
M  V30 5534 N 499.598 0.982988 -1.23187 0
M  V30 5535 C 500.545 2.07491 -1.01075 0
M  V30 5536 C 501.515 1.65949 0.070905 0
M  V30 5537 O 502.7 1.90629 -0.0806822 0
M  V30 5538 C 499.84 3.39751 -0.605261 0
M  V30 5539 C 498.953 3.94578 -1.75876 0
M  V30 5540 C 498.088 5.15039 -1.3003 0
M  V30 5541 C 497.127 5.62027 -2.42472 0
M  V30 5542 N 496.264 6.73719 -1.97602 0
M  V30 5543 H 501.104 2.25739 -1.9454 0
M  V30 5544 H 498.641 1.10659 -0.969179 0
M  V30 5545 H 500.599 4.15719 -0.351279 0
M  V30 5546 H 499.229 3.21473 0.292382 0
M  V30 5547 H 498.281 3.1539 -2.12681 0
M  V30 5548 H 499.593 4.25422 -2.60418 0
M  V30 5549 H 498.747 5.9833 -1.00429 0
M  V30 5550 H 497.486 4.85843 -0.425216 0
M  V30 5551 H 496.491 4.77318 -2.7285 0
M  V30 5552 H 497.716 5.93244 -3.30512 0
M  V30 5553 H 495.662 6.46287 -1.1247 0
M  V30 5554 H 495.579 7.03934 -2.75705 0
M  V30 5555 H 496.847 7.6049 -1.71098 0
M  V30 5556 N 501.076 1.04316 1.18135 0
M  V30 5557 C 502.492 0.762858 1.40188 0
M  V30 5558 C 502.692 -0.646547 1.90846 0
M  V30 5559 O 501.748 -1.41036 2.0944 0
M  V30 5560 C 503.061 1.81106 2.40044 0
M  V30 5561 C 504.609 1.83226 2.53766 0
M  V30 5562 C 505.084 2.87044 3.56889 0
M  V30 5563 N 506.575 2.85951 3.64398 0
M  V30 5564 C 507.31 3.62932 4.43923 0
M  V30 5565 N 506.806 4.49672 5.27036 0
M  V30 5566 N 508.599 3.51411 4.38711 0
M  V30 5567 H 500.75 1.95264 0.835805 0
M  V30 5568 H 503.013 0.845017 0.429709 0
M  V30 5569 H 502.719 2.82214 2.09876 0
M  V30 5570 H 502.593 1.64529 3.39426 0
M  V30 5571 H 504.98 0.827869 2.8325 0
M  V30 5572 H 505.061 2.03879 1.54489 0
M  V30 5573 H 504.705 3.87663 3.28145 0
M  V30 5574 H 504.635 2.63645 4.5585 0
M  V30 5575 H 507.126 2.23051 3.05052 0
M  V30 5576 H 507.439 5.05116 5.84874 0
M  V30 5577 H 505.784 4.53738 5.26447 0
M  V30 5578 H 508.975 2.83047 3.72829 0
M  V30 5579 H 509.148 4.11654 5.00445 0
M  V30 5580 N 502.554 -1.34406 0.822964 0
M  V30 5581 C 503.484 -2.32052 0.259608 0
M  V30 5582 C 504.465 -1.58243 -0.623961 0
M  V30 5583 O 505.65 -1.86224 -0.55083 0
M  V30 5584 C 502.78 -3.42434 -0.579314 0
M  V30 5585 C 501.734 -4.27499 0.20712 0
M  V30 5586 C 501.06 -5.29349 -0.754547 0
M  V30 5587 C 502.36 -5.02758 1.41533 0
M  V30 5588 H 504.054 -2.79418 1.07545 0
M  V30 5589 H 501.6 -1.34338 0.518593 0
M  V30 5590 H 503.553 -4.0976 -0.983612 0
M  V30 5591 H 502.277 -2.93717 -1.4282 0
M  V30 5592 H 500.936 -3.61776 0.592787 0
M  V30 5593 H 500.584 -4.76895 -1.59939 0
M  V30 5594 H 500.284 -5.8714 -0.232561 0
M  V30 5595 H 501.808 -5.99544 -1.1567 0
M  V30 5596 H 503.222 -5.62938 1.08504 0
M  V30 5597 H 501.619 -5.70123 1.87296 0
M  V30 5598 H 502.689 -4.32451 2.1935 0
M  V30 5599 N 504.032 -0.577932 -1.46621 0
M  V30 5600 C 504.98 0.170882 -2.31971 0
M  V30 5601 C 505.974 0.889086 -1.44193 0
M  V30 5602 O 507.18 0.808017 -1.60845 0
M  V30 5603 H 503.555 0.0739763 -0.748353 0
M  V30 5604 H 505.526 -0.567856 -2.92947 0
M  V30 5605 C 504.275 1.17438 -3.27267 0
M  V30 5606 H 503.598 0.63116 -3.94787 0
M  V30 5607 H 505.038 1.66882 -3.89778 0
M  V30 5608 C 503.497 2.23292 -2.52274 0
M  V30 5609 O 504.027 3.30567 -2.28229 0
M  V30 5610 N 502.233 1.97772 -2.12919 0
M  V30 5611 H 501.78 1.10545 -2.32675 0
M  V30 5612 H 501.738 2.68809 -1.63062 0
M  V30 5613 N 505.51 1.54411 -0.315457 0
M  V30 5614 C 506.44 2.27002 0.547039 0
M  V30 5615 C 507.421 1.27492 1.12605 0
M  V30 5616 O 508.606 1.5629 1.15269 0
M  V30 5617 C 505.736 3.02171 1.71201 0
M  V30 5618 C 504.69 4.0895 1.26268 0
M  V30 5619 C 504.016 4.71915 2.51396 0
M  V30 5620 C 505.316 5.20891 0.383419 0
M  V30 5621 H 507.01 2.99343 -0.0584517 0
M  V30 5622 H 504.556 1.4397 -0.0295527 0
M  V30 5623 H 506.509 3.51681 2.32161 0
M  V30 5624 H 505.233 2.27433 2.34397 0
M  V30 5625 H 503.892 3.60312 0.676062 0
M  V30 5626 H 503.54 3.93801 3.12937 0
M  V30 5627 H 503.24 5.44039 2.22026 0
M  V30 5628 H 504.764 5.24195 3.13133 0
M  V30 5629 H 506.178 5.66206 0.899082 0
M  V30 5630 H 504.575 5.99821 0.182857 0
M  V30 5631 H 505.645 4.81324 -0.587821 0
M  V30 5632 N 506.988 0.0434614 1.5754 0
M  V30 5633 C 508.404 -0.313039 1.565 0
M  V30 5634 C 508.604 -1.71954 1.05043 0
M  V30 5635 O 507.66 -2.425 0.703564 0
M  V30 5636 C 508.973 -0.148544 3.00333 0
M  V30 5637 C 510.521 -0.220231 3.12224 0
M  V30 5638 C 510.996 -0.0843565 4.57922 0
M  V30 5639 N 512.487 -0.140881 4.62986 0
M  V30 5640 C 513.222 -0.0597443 5.73369 0
M  V30 5641 N 512.718 0.0733004 6.92761 0
M  V30 5642 N 514.511 -0.11477 5.61983 0
M  V30 5643 H 506.662 0.96303 1.89313 0
M  V30 5644 H 508.925 0.373164 0.871466 0
M  V30 5645 H 508.631 0.820894 3.41986 0
M  V30 5646 H 508.505 -0.912798 3.65989 0
M  V30 5647 H 510.892 -1.18014 2.70475 0
M  V30 5648 H 510.973 0.574646 2.49262 0
M  V30 5649 H 510.617 0.872192 5.00355 0
M  V30 5650 H 510.547 -0.898281 5.18882 0
M  V30 5651 H 513.038 -0.243273 3.77116 0
M  V30 5652 H 513.351 0.128128 7.72694 0
M  V30 5653 H 511.696 0.10828 6.94916 0
M  V30 5654 H 514.887 -0.217212 4.67596 0
M  V30 5655 H 515.06 -0.0480779 6.47982 0
M  V30 5656 N 508.466 -1.55915 -0.229846 0
M  V30 5657 C 509.376 -1.94891 -1.30593 0
M  V30 5658 C 510.392 -0.851604 -1.51736 0
M  V30 5659 O 511.568 -1.15447 -1.65027 0
M  V30 5660 C 508.633 -2.25052 -2.63728 0
M  V30 5661 C 507.694 -3.48306 -2.5096 0
M  V30 5662 C 506.927 -3.77019 -3.77747 0
M  V30 5663 O 507.15 -3.07534 -4.80395 0
M  V30 5664 O 506.084 -4.70523 -3.75356 0
M  V30 5665 H 509.91 -2.86581 -1.00525 0
M  V30 5666 H 507.495 -1.43017 -0.432025 0
M  V30 5667 H 509.377 -2.45682 -3.42372 0
M  V30 5668 H 508.052 -1.36538 -2.93495 0
M  V30 5669 H 506.959 -3.32964 -1.70546 0
M  V30 5670 H 508.292 -4.37177 -2.26136 0
M  V30 5671 N 509.944 0.496216 -1.49584 0
M  V30 5672 C 511.172 1.27394 -1.63029 0
M  V30 5673 C 511.587 1.86344 -0.303569 0
M  V30 5674 O 510.944 1.68057 0.711547 0
M  V30 5675 C 510.995 2.40077 -2.70269 0
M  V30 5676 O 510.716 1.83549 -3.97796 0
M  V30 5677 C 512.217 3.31372 -2.94462 0
M  V30 5678 H 509.437 0.386211 -0.54871 0
M  V30 5679 H 511.981 0.595163 -1.95648 0
M  V30 5680 H 510.136 3.03775 -2.40415 0
M  V30 5681 H 510.55 2.57561 -4.56905 0
M  V30 5682 H 512.024 4.06707 -3.73221 0
M  V30 5683 H 512.501 3.88654 -2.0456 0
M  V30 5684 H 513.107 2.73435 -3.25751 0
M  V30 5685 N 511.423 1.38739 0.74761 0
M  V30 5686 C 512.353 1.39173 1.87492 0
M  V30 5687 C 513.334 0.256794 1.6815 0
M  V30 5688 O 514.519 0.460762 1.88655 0
M  V30 5689 C 511.649 1.22197 3.25093 0
M  V30 5690 C 510.603 2.32957 3.59047 0
M  V30 5691 C 509.929 2.01082 4.95449 0
M  V30 5692 C 511.229 3.75237 3.6331 0
M  V30 5693 H 512.923 2.3351 1.87386 0
M  V30 5694 H 510.469 1.12399 0.900134 0
M  V30 5695 H 512.422 1.21124 4.03617 0
M  V30 5696 H 511.146 0.243241 3.25693 0
M  V30 5697 H 509.805 2.33226 2.82845 0
M  V30 5698 H 509.453 1.01678 4.92616 0
M  V30 5699 H 509.153 2.75267 5.19136 0
M  V30 5700 H 510.677 2.01638 5.76346 0
M  V30 5701 H 512.091 3.76966 4.31937 0
M  V30 5702 H 510.488 4.48677 3.98509 0
M  V30 5703 H 511.558 4.07122 2.634 0
M  V30 5704 N 512.901 -0.976442 1.23707 0
M  V30 5705 C 513.834 -2.06793 0.964973 0
M  V30 5706 C 514.812 -1.62304 -0.0981472 0
M  V30 5707 O 515.996 -1.88464 0.0369477 0
M  V30 5708 C 513.123 -3.35636 0.454522 0
M  V30 5709 C 512.169 -3.99069 1.50485 0
M  V30 5710 S 513.002 -4.37814 3.0835 0
M  V30 5711 C 514.158 -5.69805 2.58985 0
M  V30 5712 H 514.391 -2.29556 1.88922 0
M  V30 5713 H 511.924 -1.11317 1.06995 0
M  V30 5714 H 513.882 -4.10162 0.166626 0
M  V30 5715 H 512.543 -3.10876 -0.448871 0
M  V30 5716 H 511.736 -4.91896 1.09792 0
M  V30 5717 H 511.338 -3.30938 1.7423 0
M  V30 5718 H 513.63 -6.46919 2.01252 0
M  V30 5719 H 514.573 -6.15345 3.50366 0
M  V30 5720 H 514.981 -5.27994 1.99705 0
M  V30 5721 N 514.379 -1.04941 -1.1758 0
M  V30 5722 C 515.289 -0.658826 -2.25159 0
M  V30 5723 C 516.305 0.318941 -1.71052 0
M  V30 5724 O 517.481 0.171669 -2.00667 0
M  V30 5725 C 514.546 -0.0369522 -3.4668 0
M  V30 5726 C 513.607 -1.06484 -4.15884 0
M  V30 5727 C 512.84 -0.472551 -5.31604 0
M  V30 5728 O 513.063 0.718736 -5.65854 0
M  V30 5729 O 511.997 -1.20557 -5.89703 0
M  V30 5730 H 515.823 -1.55533 -2.60851 0
M  V30 5731 H 513.408 -0.820819 -1.24832 0
M  V30 5732 H 515.29 0.308784 -4.20267 0
M  V30 5733 H 513.965 0.833238 -3.12792 0
M  V30 5734 H 512.872 -1.46253 -3.44327 0
M  V30 5735 H 514.205 -1.9061 -4.53794 0
M  V30 5736 N 515.857 1.33968 -0.830081 0
M  V30 5737 C 516.82 2.27694 -0.26235 0
M  V30 5738 C 517.82 1.50589 0.563876 0
M  V30 5739 O 519.01 1.70028 0.378941 0
M  V30 5740 C 516.142 3.35002 0.63138 0
M  V30 5741 H 517.335 2.79419 -1.08928 0
M  V30 5742 H 514.888 1.44221 -0.602486 0
M  V30 5743 H 515.623 2.88504 1.48109 0
M  V30 5744 H 515.408 3.92079 0.0403276 0
M  V30 5745 H 516.898 4.04897 1.02217 0
M  V30 5746 N 517.335 0.585699 1.46312 0
M  V30 5747 C 518.265 -0.133556 2.33118 0
M  V30 5748 C 519.246 -0.880707 1.45525 0
M  V30 5749 O 520.431 -0.855579 1.74337 0
M  V30 5750 C 517.561 -1.14585 3.27853 0
M  V30 5751 C 516.515 -0.513341 4.2491 0
M  V30 5752 C 515.841 -1.63231 5.09175 0
M  V30 5753 C 517.141 0.551413 5.19381 0
M  V30 5754 H 518.835 0.59121 2.93505 0
M  V30 5755 H 516.381 0.285761 1.41136 0
M  V30 5756 H 518.334 -1.65741 3.87438 0
M  V30 5757 H 517.058 -1.90093 2.65579 0
M  V30 5758 H 515.717 -0.0228349 3.66593 0
M  V30 5759 H 515.365 -2.37713 4.43285 0
M  V30 5760 H 515.065 -1.21473 5.74907 0
M  V30 5761 H 516.589 -2.14658 5.71624 0
M  V30 5762 H 518.003 0.124804 5.73164 0
M  V30 5763 H 516.4 0.889486 5.93471 0
M  V30 5764 H 517.47 1.43655 4.63132 0
M  V30 5765 N 518.813 -1.54241 0.323641 0
M  V30 5766 C 519.763 -2.21071 -0.557833 0
M  V30 5767 C 520.747 -1.19126 -1.08157 0
M  V30 5768 O 521.939 -1.44755 -1.01857 0
M  V30 5769 C 519.068 -2.97208 -1.71821 0
M  V30 5770 C 518.154 -4.06491 -1.20936 0
M  V30 5771 N 518.545 -5.04052 -0.420202 0
M  V30 5772 C 516.843 -4.20443 -1.48808 0
M  V30 5773 C 517.544 -5.81516 -0.146413 0
M  V30 5774 N 516.52 -5.38641 -0.732562 0
M  V30 5775 H 520.322 -2.93853 0.0523921 0
M  V30 5776 H 517.836 -1.61883 0.129502 0
M  V30 5777 H 519.833 -3.4357 -2.36146 0
M  V30 5778 H 518.493 -2.25947 -2.33191 0
M  V30 5779 H 519.504 -5.17862 -0.0630401 0
M  V30 5780 H 516.181 -3.60396 -2.10762 0
M  V30 5781 H 517.571 -6.70119 0.488895 0
M  V30 5782 N 520.291 -0.0518155 -1.57515 0
M  V30 5783 C 521.521 0.63048 -1.96745 0
M  V30 5784 C 521.929 1.64875 -0.928054 0
M  V30 5785 O 521.272 1.83449 0.0960678 0
M  V30 5786 C 521.334 1.37381 -3.32215 0
M  V30 5787 C 520.998 0.511298 -4.54131 0
M  V30 5788 C 521.995 -0.222884 -5.19422 0
M  V30 5789 C 519.68 0.442035 -5.00351 0
M  V30 5790 C 521.674 -1.01476 -6.2927 0
M  V30 5791 C 519.361 -0.35353 -6.10077 0
M  V30 5792 C 520.359 -1.08062 -6.74397 0
M  V30 5793 O 520.047 -1.8631 -7.82013 0
M  V30 5794 H 519.779 0.177126 -0.652382 0
M  V30 5795 H 522.333 -0.114726 -2.05079 0
M  V30 5796 H 520.563 2.16466 -3.20436 0
M  V30 5797 H 522.252 1.9464 -3.56188 0
M  V30 5798 H 523.018 -0.178846 -4.8467 0
M  V30 5799 H 518.897 0.997562 -4.50077 0
M  V30 5800 H 522.441 -1.58279 -6.79407 0
M  V30 5801 H 518.338 -0.399205 -6.44264 0
M  V30 5802 H 519.106 -1.78528 -7.98793 0
M  V30 5803 N 521.769 1.56035 0.221574 0
M  V30 5804 C 522.702 1.87427 1.30178 0
M  V30 5805 C 523.68 0.731658 1.45209 0
M  V30 5806 O 524.864 0.980016 1.61022 0
M  V30 5807 C 521.991 2.08127 2.67209 0
M  V30 5808 C 521.037 3.30813 2.69194 0
M  V30 5809 S 521.87 4.86738 2.23263 0
M  V30 5810 C 523.026 5.10474 3.62171 0
M  V30 5811 H 523.259 2.78756 1.03355 0
M  V30 5812 H 520.792 1.48469 0.423813 0
M  V30 5813 H 522.75 2.20736 3.46101 0
M  V30 5814 H 521.411 1.17595 2.91256 0
M  V30 5815 H 520.604 3.42341 3.6989 0
M  V30 5816 H 520.206 3.1706 1.98366 0
M  V30 5817 H 522.498 4.9937 4.5786 0
M  V30 5818 H 523.441 6.12359 3.55558 0
M  V30 5819 H 523.849 4.38208 3.55857 0
M  V30 5820 N 523.247 -0.488276 1.49845 0
M  V30 5821 C 524.177 -1.59675 1.70371 0
M  V30 5822 C 525.158 -1.60878 0.552473 0
M  V30 5823 O 526.343 -1.77417 0.78973 0
M  V30 5824 C 523.473 -2.98098 1.782 0
M  V30 5825 C 522.427 -3.11761 2.93239 0
M  V30 5826 C 521.753 -4.51661 2.86193 0
M  V30 5827 C 523.053 -2.90589 4.33999 0
M  V30 5828 H 524.747 -1.42752 2.63177 0
M  V30 5829 H 522.293 -0.685317 1.26647 0
M  V30 5830 H 524.246 -3.75555 1.91144 0
M  V30 5831 H 522.97 -3.16138 0.820018 0
M  V30 5832 H 521.629 -2.36732 2.79917 0
M  V30 5833 H 521.277 -4.66595 1.87877 0
M  V30 5834 H 520.977 -4.61742 3.63412 0
M  V30 5835 H 522.501 -5.31162 3.01163 0
M  V30 5836 H 523.915 -3.57807 4.47936 0
M  V30 5837 H 522.312 -3.1213 5.12538 0
M  V30 5838 H 523.382 -1.86595 4.4756 0
M  V30 5839 N 524.725 -1.39134 -0.740242 0
M  V30 5840 C 525.655 -1.40165 -1.86751 0
M  V30 5841 C 526.636 -0.265708 -1.68012 0
M  V30 5842 O 527.821 -0.47076 -1.88408 0
M  V30 5843 C 524.951 -1.2392 -3.2444 0
M  V30 5844 C 523.905 -2.34858 -3.57807 0
M  V30 5845 C 523.231 -2.03707 -4.94376 0
M  V30 5846 C 524.531 -3.77159 -3.61315 0
M  V30 5847 H 526.225 -2.345 -1.86145 0
M  V30 5848 H 523.771 -1.12875 -0.89416 0
M  V30 5849 H 525.724 -1.23263 -4.02969 0
M  V30 5850 H 524.448 -0.26051 -3.25559 0
M  V30 5851 H 523.107 -2.34723 -2.81604 0
M  V30 5852 H 522.755 -1.04289 -4.9207 0
M  V30 5853 H 522.455 -2.78016 -5.17669 0
M  V30 5854 H 523.979 -2.04691 -5.75268 0
M  V30 5855 H 525.393 -3.79252 -4.29931 0
M  V30 5856 H 523.79 -4.50784 -3.96124 0
M  V30 5857 H 524.86 -4.08513 -2.61238 0
M  V30 5858 N 526.204 0.969867 -1.24223 0
M  V30 5859 C 527.45 1.7151 -1.08223 0
M  V30 5860 C 527.783 1.90478 0.37838 0
M  V30 5861 O 527.058 1.4647 1.27971 0
M  V30 5862 C 527.341 3.10714 -1.82013 0
M  V30 5863 C 527.194 2.9925 -3.35811 0
M  V30 5864 C 528.513 4.10332 -1.59108 0
M  V30 5865 H 525.632 0.622499 -0.394543 0
M  V30 5866 H 528.274 1.1284 -1.52863 0
M  V30 5867 H 526.424 3.608 -1.44068 0
M  V30 5868 H 528.096 2.56608 -3.83341 0
M  V30 5869 H 526.339 2.35512 -3.64303 0
M  V30 5870 H 527.01 3.97857 -3.82641 0
M  V30 5871 H 529.486 3.69097 -1.92111 0
M  V30 5872 H 528.362 5.05804 -2.13198 0
M  V30 5873 H 528.623 4.38926 -0.528832 0
M  V30 5874 N 527.682 1.05563 1.17022 0
M  V30 5875 C 528.907 0.788437 1.91829 0
M  V30 5876 C 529.332 -0.650356 1.76499 0
M  V30 5877 O 528.69 -1.45229 1.08527 0
M  V30 5878 C 528.738 1.1786 3.40795 0
M  V30 5879 O 527.842 0.312965 4.11211 0
M  V30 5880 H 527.183 0.288794 0.597908 0
M  V30 5881 H 529.713 1.40948 1.48307 0
M  V30 5882 H 529.723 1.14697 3.91546 0
M  V30 5883 H 528.398 2.22666 3.51273 0
M  V30 5884 H 526.975 0.405515 3.70689 0
M  V30 5885 N 529.16 -1.33526 0.837174 0
M  V30 5886 C 530.07 -2.33023 0.271568 0
M  V30 5887 C 531.086 -1.63272 -0.601514 0
M  V30 5888 O 532.262 -1.94939 -0.506038 0
M  V30 5889 C 529.327 -3.42382 -0.545448 0
M  V30 5890 C 528.388 -4.27857 0.351709 0
M  V30 5891 C 527.621 -5.31994 -0.426409 0
M  V30 5892 O 527.844 -5.45763 -1.65828 0
M  V30 5893 O 526.778 -6.01572 0.1987 0
M  V30 5894 H 530.604 -2.83256 1.09545 0
M  V30 5895 H 528.189 -1.36837 0.599655 0
M  V30 5896 H 530.071 -4.09122 -1.00979 0
M  V30 5897 H 528.746 -2.94369 -1.34641 0
M  V30 5898 H 527.653 -3.6399 0.863853 0
M  V30 5899 H 528.986 -4.79349 1.1174 0
M  V30 5900 N 530.638 -0.59345 -1.46 0
M  V30 5901 C 531.884 -0.0832754 -2.02629 0
M  V30 5902 C 532.217 1.27749 -1.46266 0
M  V30 5903 O 531.492 1.8395 -0.631866 0
M  V30 5904 C 531.775 -0.0290756 -3.60088 0
M  V30 5905 C 531.628 -1.41951 -4.26814 0
M  V30 5906 C 532.947 0.666055 -4.35031 0
M  V30 5907 H 530.066 -0.031736 -0.736316 0
M  V30 5908 H 532.708 -0.762711 -1.74019 0
M  V30 5909 H 530.858 0.549532 -3.84594 0
M  V30 5910 H 532.53 -2.04411 -4.13538 0
M  V30 5911 H 530.773 -1.98422 -3.8576 0
M  V30 5912 H 531.444 -1.33395 -5.3564 0
M  V30 5913 H 533.92 0.174401 -4.15734 0
M  V30 5914 H 532.796 0.673041 -5.44758 0
M  V30 5915 H 533.057 1.72946 -4.06869 0
M  V30 5916 N 532.116 1.54067 -0.331816 0
M  V30 5917 C 533.026 2.28322 0.539104 0
M  V30 5918 C 534.042 1.32985 1.1221 0
M  V30 5919 O 535.218 1.6601 1.1403 0
M  V30 5920 C 532.283 3.03277 1.68 0
M  V30 5921 C 531.344 4.14216 1.12798 0
M  V30 5922 C 530.577 4.85588 2.2145 0
M  V30 5923 O 530.8 4.56536 3.41952 0
M  V30 5924 O 529.734 5.72309 1.86404 0
M  V30 5925 H 533.56 3.03632 -0.0641692 0
M  V30 5926 H 531.145 1.49083 -0.0972365 0
M  V30 5927 H 533.027 3.50189 2.34405 0
M  V30 5928 H 531.702 2.30834 2.2693 0
M  V30 5929 H 530.609 3.71635 0.428782 0
M  V30 5930 H 531.942 4.88727 0.583698 0
M  V30 5931 N 533.594 0.0601682 1.57485 0
M  V30 5932 C 534.504 -0.926121 2.15546 0
M  V30 5933 C 535.52 -1.33532 1.11558 0
M  V30 5934 O 536.696 -1.4104 1.4377 0
M  V30 5935 C 533.761 -2.17952 2.69625 0
M  V30 5936 C 532.822 -1.82783 3.88444 0
M  V30 5937 C 532.055 -3.02148 4.39935 0
M  V30 5938 O 532.278 -4.15803 3.90466 0
M  V30 5939 O 531.212 -2.82639 5.31412 0
M  V30 5940 H 535.038 -0.462289 3.00161 0
M  V30 5941 H 532.623 -0.162246 1.48516 0
M  V30 5942 H 534.505 -2.91474 3.04337 0
M  V30 5943 H 533.18 -2.63456 1.88077 0
M  V30 5944 H 532.087 -1.06549 3.58606 0
M  V30 5945 H 533.42 -1.42072 4.7125 0
M  V30 5946 N 535.072 -1.5615 -0.213296 0
M  V30 5947 C 536.3 -1.83638 -0.953139 0
M  V30 5948 C 536.715 -0.640362 -1.77609 0
M  V30 5949 O 536.072 0.391071 -1.78261 0
M  V30 5950 C 536.123 -3.09735 -1.86405 0
M  V30 5951 O 535.844 -4.24723 -1.07435 0
M  V30 5952 C 537.345 -3.5027 -2.71709 0
M  V30 5953 H 534.565 -0.610263 -0.278962 0
M  V30 5954 H 537.109 -2.03247 -0.226035 0
M  V30 5955 H 535.264 -2.92077 -2.545 0
M  V30 5956 H 535.678 -4.9641 -1.69343 0
M  V30 5957 H 537.152 -4.41515 -3.31313 0
M  V30 5958 H 537.629 -2.72406 -3.44516 0
M  V30 5959 H 538.235 -3.70396 -2.09015 0
M  V30 5960 N 536.55 0.480323 -1.50102 0
M  V30 5961 C 537.46 1.60547 -1.71061 0
M  V30 5962 C 538.476 1.63564 -0.593529 0
M  V30 5963 O 539.652 1.81604 -0.870751 0
M  V30 5964 C 536.717 2.96814 -1.79171 0
M  V30 5965 C 535.778 3.04259 -3.02861 0
M  V30 5966 C 535.011 4.34027 -3.10574 0
M  V30 5967 O 535.234 5.24009 -2.25323 0
M  V30 5968 O 534.168 4.46873 -4.03223 0
M  V30 5969 H 537.994 1.45788 -2.6642 0
M  V30 5970 H 535.579 0.658838 -1.34088 0
M  V30 5971 H 537.461 3.77765 -1.86738 0
M  V30 5972 H 536.136 3.11791 -0.869947 0
M  V30 5973 H 535.043 2.22419 -3.008 0
M  V30 5974 H 536.376 2.94216 -3.94586 0
M  V30 5975 N 538.028 1.39524 0.732853 0
M  V30 5976 C 539.277 1.36175 1.48792 0
M  V30 5977 C 539.59 -0.0388195 1.95561 0
M  V30 5978 O 540.796 -0.194899 2.708 0
M  V30 5979 C 539.252 2.39242 2.68871 0
M  V30 5980 C 538.86 3.85024 2.29042 0
M  V30 5981 C 540.604 2.44972 3.46683 0
M  V30 5982 C 538.511 4.79727 3.45856 0
M  V30 5983 H 537.441 0.506267 0.558757 0
M  V30 5984 H 540.092 1.65181 0.799226 0
M  V30 5985 H 538.474 2.0331 3.39825 0
M  V30 5986 H 539.648 4.30008 1.6562 0
M  V30 5987 H 537.963 3.82609 1.64316 0
M  V30 5988 H 540.56 3.12918 4.33574 0
M  V30 5989 H 540.903 1.4749 3.89297 0
M  V30 5990 H 541.436 2.79808 2.82759 0
M  V30 5991 H 538.175 5.78479 3.08289 0
M  V30 5992 H 537.695 4.39421 4.08251 0
M  V30 5993 H 539.374 4.98731 4.12161 0
M  V30 5994 N 539.506 -0.963266 1.24736 0
M  V30 5995 C 540.753 -1.7068 1.0897 0
M  V30 5996 C 541.081 -1.90934 -0.370751 0
M  V30 5997 O 540.336 -1.47155 -1.29011 0
M  V30 5998 C 540.635 -3.09944 1.7796 0
M  V30 5999 C 540.301 -3.09518 3.27887 0
M  V30 6000 C 538.963 -3.09109 3.68789 0
M  V30 6001 C 541.315 -3.03509 4.23712 0
M  V30 6002 C 538.643 -3.00429 5.03944 0
M  V30 6003 C 540.995 -2.96371 5.5888 0
M  V30 6004 C 539.659 -2.94293 5.99123 0
M  V30 6005 H 538.929 -0.624564 0.398749 0
M  V30 6006 H 541.576 -1.12603 1.54896 0
M  V30 6007 H 539.881 -3.71513 1.2444 0
M  V30 6008 H 541.578 -3.66278 1.63222 0
M  V30 6009 H 538.168 -3.10603 2.95337 0
M  V30 6010 H 542.352 -3.0295 3.93109 0
M  V30 6011 H 537.608 -2.97183 5.34314 0
M  V30 6012 H 541.782 -2.90681 6.32833 0
M  V30 6013 H 539.409 -2.87322 7.03811 0
M  V30 6014 N 540.985 -1.06182 -1.16461 0
M  V30 6015 C 541.932 -0.671613 -2.20812 0
M  V30 6016 C 542.902 0.331186 -1.62765 0
M  V30 6017 O 544.087 0.22033 -1.89524 0
M  V30 6018 C 541.227 -0.063029 -3.45042 0
M  V30 6019 C 540.34 -1.11587 -4.1734 0
M  V30 6020 C 539.475 -0.473546 -5.29085 0
M  V30 6021 C 538.514 -1.51 -5.93182 0
M  V30 6022 N 537.651 -0.891118 -6.96422 0
M  V30 6023 H 542.491 -1.56589 -2.53542 0
M  V30 6024 H 540.028 -0.782951 -1.24532 0
M  V30 6025 H 541.986 0.307344 -4.16066 0
M  V30 6026 H 540.616 0.794663 -3.12866 0
M  V30 6027 H 539.668 -1.60396 -3.44931 0
M  V30 6028 H 540.98 -1.90221 -4.61104 0
M  V30 6029 H 540.134 -0.0501432 -6.06679 0
M  V30 6030 H 538.873 0.344687 -4.8648 0
M  V30 6031 H 537.878 -1.94331 -5.14311 0
M  V30 6032 H 539.103 -2.33031 -6.37866 0
M  V30 6033 H 537.049 -0.0935753 -6.55933 0
M  V30 6034 H 536.966 -1.61486 -7.38551 0
M  V30 6035 H 538.234 -0.492822 -7.77941 0
M  V30 6036 N 542.463 1.3308 -0.844243 0
M  V30 6037 C 543.712 1.96868 -0.438833 0
M  V30 6038 C 544.025 1.67599 1.00846 0
M  V30 6039 O 545.231 2.25043 1.51881 0
M  V30 6040 C 543.687 3.5234 -0.73377 0
M  V30 6041 C 543.295 3.90481 -2.1961 0
M  V30 6042 C 545.039 4.22653 -0.395574 0
M  V30 6043 C 542.946 5.38954 -2.43481 0
M  V30 6044 H 541.876 0.736749 -0.160364 0
M  V30 6045 H 544.527 1.51623 -1.03358 0
M  V30 6046 H 542.909 3.95941 -0.068589 0
M  V30 6047 H 544.083 3.57922 -2.90221 0
M  V30 6048 H 542.398 3.33165 -2.4978 0
M  V30 6049 H 544.995 5.31848 -0.551477 0
M  V30 6050 H 545.338 4.11004 0.661921 0
M  V30 6051 H 545.871 3.84601 -1.01621 0
M  V30 6052 H 542.61 5.55612 -3.47816 0
M  V30 6053 H 542.13 5.72954 -1.77437 0
M  V30 6054 H 543.809 6.05907 -2.26905 0
M  V30 6055 N 543.941 0.601185 1.45683 0
M  V30 6056 C 545.181 0.0968037 2.04171 0
M  V30 6057 C 545.545 -1.2466 1.46027 0
M  V30 6058 O 546.746 -1.84132 1.95829 0
M  V30 6059 C 545.017 0.051384 3.57363 0
M  V30 6060 S 546.576 -0.392737 4.37039 0
M  V30 6061 H 543.394 0.0464504 0.709481 0
M  V30 6062 H 545.996 0.797846 1.78479 0
M  V30 6063 H 544.7 1.03274 3.97193 0
M  V30 6064 H 544.231 -0.671853 3.87621 0
M  V30 6065 H 546.246 -1.64364 4.68187 0
M  V30 6066 N 545.419 -1.53889 0.339982 0
M  V30 6067 C 546.349 -2.27843 -0.510856 0
M  V30 6068 C 547.33 -1.29267 -1.10563 0
M  V30 6069 O 548.515 -1.58104 -1.12768 0
M  V30 6070 C 545.645 -3.04857 -1.66372 0
M  V30 6071 C 544.599 -4.10907 -1.19746 0
M  V30 6072 C 543.925 -4.75855 -2.43857 0
M  V30 6073 C 545.225 -5.21435 -0.300501 0
M  V30 6074 H 546.919 -2.99212 0.106067 0
M  V30 6075 H 544.465 -1.43904 0.0524533 0
M  V30 6076 H 546.418 -3.5533 -2.26537 0
M  V30 6077 H 545.142 -2.31133 -2.30749 0
M  V30 6078 H 543.801 -3.61342 -0.618654 0
M  V30 6079 H 543.449 -3.9873 -3.06633 0
M  V30 6080 H 543.149 -5.47502 -2.13343 0
M  V30 6081 H 544.673 -5.2911 -3.04754 0
M  V30 6082 H 546.087 -5.67565 -0.80889 0
M  V30 6083 H 544.484 -6.00036 -0.0874076 0
M  V30 6084 H 545.554 -4.80328 0.664321 0
M  V30 6085 N 546.897 -0.0685191 -1.57451 0
M  V30 6086 C 547.807 0.914677 -2.16034 0
M  V30 6087 C 548.823 1.32938 -1.12265 0
M  V30 6088 O 549.999 1.40275 -1.44516 0
M  V30 6089 C 547.064 2.16519 -2.70777 0
M  V30 6090 C 546.125 1.80721 -3.89408 0
M  V30 6091 C 545.358 2.9981 -4.41531 0
M  V30 6092 O 545.581 4.13727 -3.92666 0
M  V30 6093 O 544.515 2.79817 -5.32903 0
M  V30 6094 H 548.341 0.446364 -3.00402 0
M  V30 6095 H 545.926 0.154367 -1.486 0
M  V30 6096 H 547.808 2.89856 -3.05878 0
M  V30 6097 H 546.483 2.62454 -1.89471 0
M  V30 6098 H 545.39 1.04646 -3.59166 0
M  V30 6099 H 546.723 1.39571 -4.71997 0
M  V30 6100 N 548.375 1.56261 0.205012 0
M  V30 6101 C 549.605 1.83874 0.942018 0
M  V30 6102 C 550.013 0.647595 1.77772 0
M  V30 6103 O 549.356 -0.393098 1.79445 0
M  V30 6104 C 549.418 3.05453 1.89575 0
M  V30 6105 C 549.082 4.39772 1.24296 0
M  V30 6106 C 550.079 5.16133 0.624724 0
M  V30 6107 C 547.764 4.86504 1.24978 0
M  V30 6108 C 549.758 6.37396 0.0220117 0
M  V30 6109 C 547.445 6.07705 0.643232 0
M  V30 6110 C 548.443 6.82993 0.0304164 0
M  V30 6111 O 548.131 8.019 -0.566654 0
M  V30 6112 H 547.863 0.614896 0.280854 0
M  V30 6113 H 550.417 2.04215 0.220285 0
M  V30 6114 H 548.647 2.80972 2.65691 0
M  V30 6115 H 550.336 3.19797 2.4997 0
M  V30 6116 H 551.102 4.81127 0.611666 0
M  V30 6117 H 546.981 4.27865 1.71616 0
M  V30 6118 H 550.525 6.96102 -0.456926 0
M  V30 6119 H 546.422 6.42181 0.653759 0
M  V30 6120 H 547.19 8.17192 -0.462588 0
M  V30 6121 N 549.853 -0.472356 1.50355 0
M  V30 6122 C 551.099 -1.22348 1.62488 0
M  V30 6123 C 551.454 -1.89711 0.320574 0
M  V30 6124 O 550.747 -1.79074 -0.68141 0
M  V30 6125 C 550.941 -2.29257 2.74182 0
M  V30 6126 C 550.77 -1.72383 4.15348 0
M  V30 6127 C 549.54 -1.52411 4.81766 0
M  V30 6128 C 551.738 -1.21949 4.99633 0
M  V30 6129 N 549.72 -0.907669 6.07153 0
M  V30 6130 C 551.091 -0.726191 6.15732 0
M  V30 6131 C 553.146 -1.10792 4.85417 0
M  V30 6132 C 551.849 -0.132322 7.19178 0
M  V30 6133 C 553.875 -0.52799 5.89038 0
M  V30 6134 C 553.237 -0.0450604 7.04386 0
M  V30 6135 H 549.336 -0.436631 0.648751 0
M  V30 6136 H 551.92 -0.525698 1.87469 0
M  V30 6137 H 550.091 -2.96464 2.50926 0
M  V30 6138 H 551.823 -2.9628 2.75681 0
M  V30 6139 H 548.578 -1.776 4.39039 0
M  V30 6140 H 549.002 -0.617897 6.74174 0
M  V30 6141 H 553.644 -1.46722 3.96525 0
M  V30 6142 H 551.362 0.239187 8.07746 0
M  V30 6143 H 554.948 -0.444046 5.80103 0
M  V30 6144 H 553.828 0.396659 7.83196 0
M  V30 6145 N 551.331 -1.39911 -0.725443 0
M  V30 6146 C 552.279 -1.39552 -1.86086 0
M  V30 6147 C 553.273 -0.277334 -1.67114 0
M  V30 6148 O 554.479 -0.447865 -1.74339 0
M  V30 6149 H 550.854 -0.435993 -0.612711 0
M  V30 6150 H 552.825 -2.35305 -1.83505 0
M  V30 6151 C 551.574 -1.26529 -3.2386 0
M  V30 6152 H 550.897 -2.11845 -3.3906 0
M  V30 6153 H 552.337 -1.30336 -4.03471 0
M  V30 6154 C 550.796 0.0254168 -3.3689 0
M  V30 6155 O 551.326 0.992048 -3.89257 0
M  V30 6156 N 549.532 0.0916528 -2.90455 0
M  V30 6157 H 549.079 -0.695675 -2.48028 0
M  V30 6158 H 549.037 0.954745 -2.99553 0
M  V30 6159 N 552.809 0.956637 -1.25245 0
M  V30 6160 C 553.759 2.03841 -1.02141 0
M  V30 6161 C 554.743 1.60848 0.0410058 0
M  V30 6162 O 555.935 1.76142 -0.174084 0
M  V30 6163 C 553.064 3.37282 -0.639963 0
M  V30 6164 C 552.15 3.86805 -1.73903 0
M  V30 6165 N 552.541 4.09143 -2.97381 0
M  V30 6166 C 550.839 4.15574 -1.61909 0
M  V30 6167 C 551.54 4.49923 -3.68707 0
M  V30 6168 N 550.516 4.55737 -2.96318 0
M  V30 6169 H 554.318 2.19102 -1.95886 0
M  V30 6170 H 551.832 1.1413 -1.15534 0
M  V30 6171 H 553.829 4.14403 -0.455643 0
M  V30 6172 H 552.489 3.23401 0.29018 0
M  V30 6173 H 553.5 3.96275 -3.33447 0
M  V30 6174 H 550.177 4.10566 -0.757764 0
M  V30 6175 H 551.567 4.75526 -4.74684 0
M  V30 6176 N 554.287 1.06798 1.15896 0
M  V30 6177 C 555.217 0.704677 2.22613 0
M  V30 6178 C 556.198 -0.305252 1.67339 0
M  V30 6179 O 557.383 -0.179247 1.93371 0
M  V30 6180 C 554.513 0.0957325 3.47168 0
M  V30 6181 C 553.467 1.0322 4.15367 0
M  V30 6182 C 552.793 0.286293 5.33933 0
M  V30 6183 C 554.093 2.36341 4.65768 0
M  V30 6184 H 555.787 1.59688 2.53259 0
M  V30 6185 H 553.333 0.769257 1.21731 0
M  V30 6186 H 555.286 -0.170333 4.21056 0
M  V30 6187 H 554.01 -0.831516 3.15838 0
M  V30 6188 H 552.669 1.28309 3.43413 0
M  V30 6189 H 552.317 -0.644237 4.98857 0
M  V30 6190 H 552.017 0.910436 5.80504 0
M  V30 6191 H 553.541 0.0278938 6.10594 0
M  V30 6192 H 554.955 2.1561 5.31211 0
M  V30 6193 H 553.352 2.94299 5.2298 0
M  V30 6194 H 554.422 2.99047 3.81705 0
M  V30 6195 N 555.766 -1.3263 0.851289 0
M  V30 6196 C 556.729 -2.27247 0.298541 0
M  V30 6197 C 557.729 -1.51467 -0.539847 0
M  V30 6198 O 558.919 -1.7061 -0.351843 0
M  V30 6199 C 556.051 -3.35964 -0.578004 0
M  V30 6200 H 557.244 -2.7765 1.13359 0
M  V30 6201 H 554.797 -1.43245 0.625354 0
M  V30 6202 H 555.532 -2.90823 -1.435 0
M  V30 6203 H 555.317 -3.92094 0.0220539 0
M  V30 6204 H 556.807 -4.06472 -0.957626 0
M  V30 6205 N 557.244 -0.608902 -1.45362 0
M  V30 6206 C 558.207 0.0992563 -2.28985 0
M  V30 6207 C 559.207 0.793841 -1.39838 0
M  V30 6208 O 560.397 0.641804 -1.61946 0
M  V30 6209 C 557.529 1.15073 -3.20891 0
M  V30 6210 H 558.722 -0.635964 -2.93079 0
M  V30 6211 H 556.275 -0.368007 -1.51906 0
M  V30 6212 H 557.01 1.91667 -2.616 0
M  V30 6213 H 556.795 0.656867 -3.86559 0
M  V30 6214 H 558.285 1.64665 -3.83765 0
M  V30 6215 N 558.722 1.53707 -0.348139 0
M  V30 6216 C 559.632 2.28881 0.514857 0
M  V30 6217 C 560.648 1.34168 1.10793 0
M  V30 6218 O 561.824 1.6721 1.12262 0
M  V30 6219 C 558.889 3.05042 1.64774 0
M  V30 6220 C 557.95 4.15389 1.08398 0
M  V30 6221 C 557.183 4.87909 2.16287 0
M  V30 6222 O 557.406 4.60137 3.3709 0
M  V30 6223 O 556.34 5.74254 1.80323 0
M  V30 6224 H 560.166 3.03547 -0.0963699 0
M  V30 6225 H 557.751 1.48972 -0.113043 0
M  V30 6226 H 559.633 3.52656 2.30677 0
M  V30 6227 H 558.308 2.33228 2.24469 0
M  V30 6228 H 557.215 3.72068 0.389341 0
M  V30 6229 H 558.548 4.89318 0.531829 0
M  V30 6230 N 560.2 0.0768682 1.57412 0
M  V30 6231 C 561.13 -0.886026 2.16037 0
M  V30 6232 C 562.111 -1.30691 1.08876 0
M  V30 6233 O 563.296 -1.37705 1.36934 0
M  V30 6234 C 560.426 -2.1518 2.72608 0
M  V30 6235 C 559.38 -1.87015 3.8498 0
M  V30 6236 C 558.706 -3.20266 4.28175 0
M  V30 6237 C 560.006 -1.17143 5.08994 0
M  V30 6238 H 561.7 -0.397642 2.96748 0
M  V30 6239 H 559.246 -0.189823 1.42743 0
M  V30 6240 H 561.199 -2.82962 3.12266 0
M  V30 6241 H 559.923 -2.66269 1.89125 0
M  V30 6242 H 558.582 -1.21636 3.45833 0
M  V30 6243 H 558.23 -3.69207 3.41607 0
M  V30 6244 H 557.93 -3.0221 5.03927 0
M  V30 6245 H 559.454 -3.89237 4.70454 0
M  V30 6246 H 560.868 -1.75003 5.45937 0
M  V30 6247 H 559.265 -1.09328 5.90057 0
M  V30 6248 H 560.335 -0.151295 4.84664 0
M  V30 6249 N 561.678 -1.56367 -0.196722 0
M  V30 6250 C 562.908 -1.84371 -0.932254 0
M  V30 6251 C 563.316 -0.657013 -1.77426 0
M  V30 6252 O 562.659 0.383576 -1.79651 0
M  V30 6253 C 562.721 -3.06454 -1.87952 0
M  V30 6254 C 562.385 -4.40425 -1.21962 0
M  V30 6255 C 563.382 -5.16457 -0.597343 0
M  V30 6256 C 561.067 -4.8716 -1.22396 0
M  V30 6257 C 563.061 -6.37399 0.0117913 0
M  V30 6258 C 560.748 -6.08038 -0.610995 0
M  V30 6259 C 561.746 -6.83 0.00580487 0
M  V30 6260 O 561.434 -8.01589 0.609173 0
M  V30 6261 H 561.166 -0.616377 -0.277589 0
M  V30 6262 H 563.72 -2.04329 -0.209452 0
M  V30 6263 H 561.95 -2.82377 -2.64197 0
M  V30 6264 H 563.639 -3.21118 -2.48271 0
M  V30 6265 H 564.405 -4.81445 -0.586142 0
M  V30 6266 H 560.284 -4.2877 -1.69345 0
M  V30 6267 H 563.828 -6.9585 0.493836 0
M  V30 6268 H 559.725 -6.42519 -0.619693 0
M  V30 6269 H 560.493 -8.16935 0.505919 0
M  V30 6270 N 563.156 0.464375 -1.50603 0
M  V30 6271 C 564.572 0.798684 -1.38178 0
M  V30 6272 C 564.772 1.96568 -0.44308 0
M  V30 6273 O 563.828 2.52252 0.111814 0
M  V30 6274 C 565.141 1.10444 -2.79683 0
M  V30 6275 C 566.689 1.2105 -2.88645 0
M  V30 6276 C 567.164 1.54934 -4.30998 0
M  V30 6277 N 568.655 1.61913 -4.3398 0
M  V30 6278 C 569.39 1.8965 -5.41129 0
M  V30 6279 N 568.886 2.15361 -6.58477 0
M  V30 6280 N 570.679 1.91207 -5.28579 0
M  V30 6281 H 562.83 -0.304603 -2.10204 0
M  V30 6282 H 565.093 -0.0737804 -0.945125 0
M  V30 6283 H 564.799 0.319934 -3.50242 0
M  V30 6284 H 564.673 2.03896 -3.17342 0
M  V30 6285 H 567.06 1.98567 -2.18301 0
M  V30 6286 H 567.141 0.255613 -2.5452 0
M  V30 6287 H 566.785 0.779549 -5.01882 0
M  V30 6288 H 566.715 2.51584 -4.62615 0
M  V30 6289 H 569.206 1.44055 -3.49366 0
M  V30 6290 H 569.519 2.35818 -7.35941 0
M  V30 6291 H 567.864 2.1274 -6.6164 0
M  V30 6292 H 571.055 1.70622 -4.35897 0
M  V30 6293 H 571.228 2.12488 -6.12171 0
M  V30 6294 N 564.634 1.40294 0.718013 0
M  V30 6295 C 565.544 1.42678 1.86226 0
M  V30 6296 C 566.56 0.319655 1.71039 0
M  V30 6297 O 567.736 0.563852 1.93346 0
M  V30 6298 C 564.801 1.2852 3.21999 0
M  V30 6299 C 563.862 2.49354 3.49458 0
M  V30 6300 C 563.095 2.35863 4.78753 0
M  V30 6301 O 563.318 1.37114 5.53675 0
M  V30 6302 O 562.252 3.25189 5.06494 0
M  V30 6303 H 566.078 2.39167 1.87171 0
M  V30 6304 H 563.663 1.2159 0.868112 0
M  V30 6305 H 565.545 1.22824 4.03103 0
M  V30 6306 H 564.22 0.351359 3.21787 0
M  V30 6307 H 563.127 2.60628 2.68373 0
M  V30 6308 H 564.46 3.41491 3.54464 0
M  V30 6309 N 566.112 -0.949982 1.2575 0
M  V30 6310 C 567.337 -1.73503 1.13628 0
M  V30 6311 C 567.762 -1.85601 -0.30559 0
M  V30 6312 O 567.12 -1.33984 -1.22139 0
M  V30 6313 C 567.168 -3.1243 1.80055 0
M  V30 6314 O 566.272 -3.97916 1.08336 0
M  V30 6315 H 565.613 -0.532665 0.396439 0
M  V30 6316 H 568.143 -1.19043 1.66403 0
M  V30 6317 H 568.153 -3.62866 1.86527 0
M  V30 6318 H 566.828 -3.02941 2.84956 0
M  V30 6319 H 565.405 -3.56375 1.09777 0
M  V30 6320 N 567.59 -1.07411 -1.15328 0
M  V30 6321 C 569.001 -0.820261 -1.67716 0
M  V30 6322 C 569.352 0.654539 -1.8496 0
M  V30 6323 O 568.477 1.50664 -1.55337 0
M  V30 6324 C 569.072 -1.48242 -3.04647 0
M  V30 6325 C 567.631 -1.27606 -3.5411 0
M  V30 6326 C 566.778 -1.5517 -2.29821 0
M  V30 6327 H 569.729 -1.23608 -0.995332 0
M  V30 6328 H 569.75 -0.903984 -3.69606 0
M  V30 6329 H 569.262 -2.55578 -2.92064 0
M  V30 6330 H 567.363 -0.222948 -3.71932 0
M  V30 6331 H 567.476 -1.99667 -4.35511 0
M  V30 6332 H 565.84 -0.972747 -2.35393 0
M  V30 6333 H 566.623 -2.63689 -2.19824 0
M  V30 6334 N 569.068 1.32177 -0.85831 0
M  V30 6335 C 570.315 1.97125 -0.463484 0
M  V30 6336 C 570.643 1.67907 0.981705 0
M  V30 6337 O 569.898 0.961717 1.70439 0
M  V30 6338 C 570.197 3.51372 -0.653658 0
M  V30 6339 C 569.863 4.00584 -2.06987 0
M  V30 6340 C 568.525 4.13733 -2.4572 0
M  V30 6341 C 570.877 4.26624 -2.99402 0
M  V30 6342 C 568.205 4.50268 -3.76132 0
M  V30 6343 C 570.557 4.64618 -4.29316 0
M  V30 6344 C 569.221 4.75975 -4.67979 0
M  V30 6345 H 568.491 0.72133 -0.169601 0
M  V30 6346 H 571.138 1.57517 -1.08907 0
M  V30 6347 H 569.443 3.91761 0.0551328 0
M  V30 6348 H 571.14 3.99655 -0.328163 0
M  V30 6349 H 567.73 3.90837 -1.75911 0
M  V30 6350 H 571.914 4.1597 -2.70708 0
M  V30 6351 H 567.17 4.57256 -4.05865 0
M  V30 6352 H 571.344 4.83722 -5.00985 0
M  V30 6353 H 568.971 5.04041 -5.69076 0
M  V30 6354 N 570.547 0.616602 1.45037 0
M  V30 6355 C 571.772 0.120192 2.07051 0
M  V30 6356 C 572.197 -1.19008 1.45666 0
M  V30 6357 O 571.555 -1.7267 0.552692 0
M  V30 6358 C 571.603 0.00354901 3.606 0
M  V30 6359 O 570.707 -1.04431 3.98958 0
M  V30 6360 H 570.048 0.0781599 0.659384 0
M  V30 6361 H 572.578 0.849167 1.86146 0
M  V30 6362 H 572.588 -0.191754 4.07549 0
M  V30 6363 H 571.263 0.960239 4.04663 0
M  V30 6364 H 569.84 -0.824749 3.63665 0
M  V30 6365 N 572.025 -1.5352 0.356285 0
M  V30 6366 C 573.253 -2.05534 -0.237328 0
M  V30 6367 C 573.668 -1.23043 -1.43199 0
M  V30 6368 O 573.025 -0.268821 -1.80509 0
M  V30 6369 C 573.076 -3.55791 -0.639933 0
M  V30 6370 O 572.797 -4.35154 0.507233 0
M  V30 6371 C 574.298 -4.24027 -1.29292 0
M  V30 6372 H 571.518 -0.669585 -0.0435572 0
M  V30 6373 H 574.062 -1.97988 0.511963 0
M  V30 6374 H 572.217 -3.63518 -1.33915 0
M  V30 6375 H 572.631 -5.24178 0.18375 0
M  V30 6376 H 574.105 -5.30509 -1.52527 0
M  V30 6377 H 574.582 -3.77166 -2.25039 0
M  V30 6378 H 575.188 -4.20527 -0.63539 0
M  V30 6379 N 573.503 -0.0852151 -1.57369 0
M  V30 6380 C 574.728 0.592872 -1.98746 0
M  V30 6381 C 575.153 1.61538 -0.963689 0
M  V30 6382 O 574.511 1.81168 0.069071 0
M  V30 6383 C 574.559 1.22599 -3.39119 0
M  V30 6384 O 573.663 2.34185 -3.39457 0
M  V30 6385 H 573.004 0.151314 -0.646529 0
M  V30 6386 H 575.534 -0.163703 -2.03944 0
M  V30 6387 H 575.544 1.56965 -3.76598 0
M  V30 6388 H 574.219 0.476831 -4.13158 0
M  V30 6389 H 572.796 2.01512 -3.13763 0
M  V30 6390 N 574.981 1.5647 0.188427 0
M  V30 6391 C 575.944 1.9421 1.21718 0
M  V30 6392 C 576.944 0.823901 1.38089 0
M  V30 6393 O 578.134 1.09122 1.35787 0
M  V30 6394 C 575.266 2.22197 2.58537 0
M  V30 6395 H 576.459 2.86252 0.894418 0
M  V30 6396 H 574.012 1.50263 0.430211 0
M  V30 6397 H 574.747 1.32814 2.95856 0
M  V30 6398 H 574.532 3.03688 2.48025 0
M  V30 6399 H 576.022 2.52376 3.3271 0
M  V30 6400 N 576.459 -0.456382 1.50847 0
M  V30 6401 C 577.684 -1.2349 1.66628 0
M  V30 6402 C 578.109 -1.84715 0.355254 0
M  V30 6403 O 577.467 -1.67961 -0.682559 0
M  V30 6404 C 577.515 -2.30865 2.77009 0
M  V30 6405 O 576.619 -3.35882 2.39285 0
M  V30 6406 H 575.96 -0.36266 0.556214 0
M  V30 6407 H 578.49 -0.541374 1.97308 0
M  V30 6408 H 578.5 -2.75949 3.00526 0
M  V30 6409 H 577.175 -1.85677 3.72152 0
M  V30 6410 H 575.752 -2.96406 2.26269 0
M  V30 6411 N 577.937 -1.40673 -0.710563 0
M  V30 6412 C 579.348 -1.34975 -1.28991 0
M  V30 6413 C 579.699 -0.0256272 -1.96183 0
M  V30 6414 O 578.824 0.876339 -1.97862 0
M  V30 6415 C 579.419 -2.44467 -2.34567 0
M  V30 6416 C 577.978 -2.42213 -2.88114 0
M  V30 6417 C 577.125 -2.25085 -1.61963 0
M  V30 6418 H 580.076 -1.50406 -0.506343 0
M  V30 6419 H 580.097 -2.12663 -3.15523 0
M  V30 6420 H 579.609 -3.40825 -1.85634 0
M  V30 6421 H 577.71 -1.49568 -3.41263 0
M  V30 6422 H 577.823 -3.37983 -3.39565 0
M  V30 6423 H 576.187 -1.72691 -1.87216 0
M  V30 6424 H 576.97 -3.23449 -1.15047 0
M  V30 6425 N 579.415 0.9433 -1.26252 0
M  V30 6426 C 580.345 2.05902 -1.10122 0
M  V30 6427 C 581.326 1.70099 -0.00700552 0
M  V30 6428 O 582.511 1.93377 -0.178641 0
M  V30 6429 C 579.641 3.39516 -0.731175 0
M  V30 6430 C 578.595 3.89372 -1.77688 0
M  V30 6431 C 577.921 5.19613 -1.26122 0
M  V30 6432 C 579.221 4.14489 -3.17799 0
M  V30 6433 H 580.915 2.19655 -2.03451 0
M  V30 6434 H 578.461 1.05548 -0.979576 0
M  V30 6435 H 580.414 4.17031 -0.605215 0
M  V30 6436 H 579.138 3.25733 0.23782 0
M  V30 6437 H 577.797 3.14036 -1.89148 0
M  V30 6438 H 577.445 5.02208 -0.282128 0
M  V30 6439 H 577.145 5.53939 -1.96023 0
M  V30 6440 H 578.669 5.99713 -1.14789 0
M  V30 6441 H 580.083 4.82625 -3.09428 0
M  V30 6442 H 578.48 4.60094 -3.85271 0
M  V30 6443 H 579.55 3.20347 -3.64014 0
M  V30 6444 N 580.893 1.08022 1.14757 0
M  V30 6445 C 581.823 0.728248 2.21853 0
M  V30 6446 C 582.804 -0.287486 1.67653 0
M  V30 6447 O 583.989 -0.158727 1.9355 0
M  V30 6448 C 581.119 0.132549 3.47047 0
M  V30 6449 C 580.073 1.07619 4.14249 0
M  V30 6450 C 579.399 0.342907 5.33599 0
M  V30 6451 C 580.699 2.41268 4.63235 0
M  V30 6452 H 582.393 1.62365 2.51551 0
M  V30 6453 H 579.939 0.782125 1.20908 0
M  V30 6454 H 581.892 -0.125665 4.21213 0
M  V30 6455 H 580.616 -0.797971 3.16702 0
M  V30 6456 H 579.275 1.31944 3.42033 0
M  V30 6457 H 578.923 -0.59129 4.99513 0
M  V30 6458 H 578.623 0.971955 5.79506 0
M  V30 6459 H 580.147 0.0926538 6.1053 0
M  V30 6460 H 581.561 2.21232 5.28894 0
M  V30 6461 H 579.958 2.9983 5.19829 0
M  V30 6462 H 581.028 3.03079 3.78512 0
M  V30 6463 N 582.371 -1.3172 0.865308 0
M  V30 6464 C 583.596 -2.01591 0.487415 0
M  V30 6465 C 584.021 -1.6455 -0.911307 0
M  V30 6466 O 583.379 -0.851689 -1.6005 0
M  V30 6467 C 583.427 -3.54759 0.646401 0
M  V30 6468 O 582.531 -4.11185 -0.316284 0
M  V30 6469 H 581.872 -0.634884 0.194468 0
M  V30 6470 H 584.402 -1.68024 1.16744 0
M  V30 6471 H 584.412 -4.04438 0.537932 0
M  V30 6472 H 583.087 -3.8106 1.66632 0
M  V30 6473 H 581.664 -3.72543 -0.163162 0
M  V30 6474 N 583.85 -0.624285 -1.44708 0
M  V30 6475 C 585.098 -0.125802 -2.01708 0
M  V30 6476 C 585.418 1.2543 -1.49306 0
M  V30 6477 O 584.689 1.83198 -0.693924 0
M  V30 6478 H 583.269 -0.0435161 -0.745731 0
M  V30 6479 H 585.931 -0.809446 -1.77296 0
M  V30 6480 H 585.027 -0.0882734 -3.11975 0
M  V30 6481 N 585.328 1.53329 -0.364422 0
M  V30 6482 C 586.553 2.06132 0.229033 0
M  V30 6483 C 586.978 1.23625 1.41769 0
M  V30 6484 O 586.336 0.255038 1.79497 0
M  V30 6485 C 586.384 3.55544 0.60174 0
M  V30 6486 O 585.488 3.75771 1.69912 0
M  V30 6487 H 584.829 0.663148 0.0336213 0
M  V30 6488 H 587.359 1.97758 -0.524689 0
M  V30 6489 H 587.369 3.98549 0.873073 0
M  V30 6490 H 586.044 4.15039 -0.267421 0
M  V30 6491 H 584.621 3.44663 1.42343 0
M  V30 6492 N 586.806 0.0935595 1.57322 0
M  V30 6493 C 587.738 -0.895923 2.10964 0
M  V30 6494 C 588.751 -1.24705 1.04654 0
M  V30 6495 O 589.94 -1.20044 1.32105 0
M  V30 6496 C 587.04 -2.20546 2.57318 0
M  V30 6497 C 586.213 -2.0299 3.87445 0
M  V30 6498 C 585.272 -3.17443 4.19662 0
M  V30 6499 O 584.298 -2.91474 4.88909 0
M  V30 6500 N 585.5 -4.43168 3.74943 0
M  V30 6501 H 588.265 -0.437788 2.96485 0
M  V30 6502 H 585.826 -0.0915863 1.61641 0
M  V30 6503 H 587.818 -2.9606 2.75917 0
M  V30 6504 H 586.388 -2.57789 1.76816 0
M  V30 6505 H 585.608 -1.11815 3.78009 0
M  V30 6506 H 586.896 -1.88535 4.7258 0
M  V30 6507 H 586.294 -4.67149 3.19043 0
M  V30 6508 H 584.851 -5.15637 3.987 0
M  V30 6509 N 588.284 -1.56567 -0.180126 0
M  V30 6510 C 589.234 -1.92132 -1.22756 0
M  V30 6511 C 590.218 -0.788639 -1.40247 0
M  V30 6512 O 591.41 -1.05171 -1.42366 0
M  V30 6513 C 588.539 -2.27719 -2.56902 0
M  V30 6514 C 587.625 -3.47481 -2.43142 0
M  V30 6515 N 588.016 -4.64973 -1.99082 0
M  V30 6516 C 586.314 -3.51914 -2.73994 0
M  V30 6517 C 587.015 -5.47119 -1.97574 0
M  V30 6518 N 585.991 -4.87925 -2.39645 0
M  V30 6519 H 589.793 -2.80464 -0.878478 0
M  V30 6520 H 587.307 -1.57686 -0.388463 0
M  V30 6521 H 589.304 -2.51389 -3.32579 0
M  V30 6522 H 587.964 -1.40722 -2.92621 0
M  V30 6523 H 588.975 -4.89358 -1.69557 0
M  V30 6524 H 585.652 -2.75372 -3.13809 0
M  V30 6525 H 587.042 -6.51254 -1.65282 0
M  V30 6526 N 589.762 0.448376 -1.51087 0
M  V30 6527 C 591.009 1.19872 -1.63209 0
M  V30 6528 C 591.337 1.91451 -0.343062 0
M  V30 6529 O 590.592 1.83789 0.672321 0
M  V30 6530 C 590.891 2.24866 -2.77795 0
M  V30 6531 C 590.557 1.70378 -4.17471 0
M  V30 6532 C 589.219 1.55241 -4.55471 0
M  V30 6533 C 591.571 1.30203 -5.04675 0
M  V30 6534 C 588.899 0.983844 -5.78392 0
M  V30 6535 C 591.251 0.747798 -6.28165 0
M  V30 6536 C 589.915 0.583233 -6.64947 0
M  V30 6537 H 589.185 0.438642 -0.597222 0
M  V30 6538 H 591.832 0.49136 -1.85089 0
M  V30 6539 H 590.137 3.01598 -2.50092 0
M  V30 6540 H 591.834 2.82723 -2.84374 0
M  V30 6541 H 588.424 1.83134 -3.87505 0
M  V30 6542 H 592.608 1.40723 -4.75932 0
M  V30 6543 H 587.864 0.844007 -6.05546 0
M  V30 6544 H 592.038 0.427927 -6.95084 0
M  V30 6545 H 589.665 0.140532 -7.6007 0
M  V30 6546 N 591.24 1.41047 0.703093 0
M  V30 6547 C 592.517 1.30493 1.45708 0
M  V30 6548 C 592.897 -0.0709892 2.10981 0
M  V30 6549 O 592.245 -1.08471 2.01113 0
M  V30 6550 C 592.455 2.45287 2.48265 0
M  V30 6551 C 593.803 2.86104 3.13735 0
M  V30 6552 O 594.827 2.44971 2.58587 0
M  V30 6553 O 593.686 3.57206 4.13601 0
M  V30 6554 H 590.78 0.513144 0.648546 0
M  V30 6555 H 593.326 1.52995 0.734208 0
M  V30 6556 H 592.098 3.37135 1.98635 0
M  V30 6557 H 591.721 2.24622 3.28071 0
M  V30 6558 N 592.718 -0.936591 1.26751 0
M  V30 6559 C 593.964 -1.6858 1.12733 0
M  V30 6560 C 594.297 -1.91414 -0.327745 0
M  V30 6561 O 593.572 -1.49812 -1.24043 0
M  V30 6562 C 593.855 -3.05779 1.90187 0
M  V30 6563 C 593.708 -2.90242 3.43627 0
M  V30 6564 C 595.027 -4.0597 1.69931 0
M  V30 6565 H 592.146 -0.61182 0.410908 0
M  V30 6566 H 594.788 -1.08747 1.55801 0
M  V30 6567 H 592.938 -3.56853 1.53584 0
M  V30 6568 H 594.61 -2.46354 3.9001 0
M  V30 6569 H 592.853 -2.2577 3.70419 0
M  V30 6570 H 593.524 -3.87572 3.93055 0
M  V30 6571 H 596 -3.63874 2.0183 0
M  V30 6572 H 594.876 -4.99974 2.26534 0
M  V30 6573 H 595.137 -4.37369 0.64502 0
M  V30 6574 N 594.196 -1.08629 -1.14182 0
M  V30 6575 C 595.607 -0.838003 -1.66836 0
M  V30 6576 C 595.958 0.634885 -1.85644 0
M  V30 6577 O 595.083 1.49008 -1.56926 0
M  V30 6578 C 595.678 -1.51465 -3.03058 0
M  V30 6579 C 594.237 -1.31355 -3.52736 0
M  V30 6580 C 593.384 -1.57599 -2.28162 0
M  V30 6581 H 596.335 -1.24656 -0.982165 0
M  V30 6582 H 596.356 -0.943134 -3.68626 0
M  V30 6583 H 595.868 -2.58661 -2.89337 0
M  V30 6584 H 593.969 -0.262384 -3.71675 0
M  V30 6585 H 594.082 -2.04275 -4.33369 0
M  V30 6586 H 592.446 -0.997659 -2.34348 0
M  V30 6587 H 593.229 -2.66006 -2.17015 0
M  V30 6588 N 595.674 1.31259 -0.872281 0
M  V30 6589 C 597.085 1.78822 -0.536617 0
M  V30 6590 C 597.436 1.71855 0.946594 0
M  V30 6591 O 596.561 1.28769 1.73918 0
M  V30 6592 C 597.156 3.24698 -0.967294 0
M  V30 6593 C 595.715 3.70147 -0.683251 0
M  V30 6594 C 594.862 2.51994 -1.15733 0
M  V30 6595 H 597.813 1.18308 -1.05777 0
M  V30 6596 H 597.834 3.79386 -0.290929 0
M  V30 6597 H 597.346 3.29737 -2.04683 0
M  V30 6598 H 595.447 3.70607 0.384825 0
M  V30 6599 H 595.56 4.62183 -1.2619 0
M  V30 6600 H 593.924 2.48078 -0.577024 0
M  V30 6601 H 594.707 2.59778 -2.24434 0
M  V30 6602 N 597.152 0.631951 1.44375 0
M  V30 6603 C 598.568 0.297642 1.568 0
M  V30 6604 C 598.768 -1.19916 1.61934 0
M  V30 6605 O 597.824 -1.98324 1.56281 0
M  V30 6606 C 599.137 0.990286 2.83926 0
M  V30 6607 C 600.685 0.968507 2.97639 0
M  V30 6608 C 601.16 1.64163 4.27568 0
M  V30 6609 N 602.651 1.60826 4.34384 0
M  V30 6610 C 603.386 2.09802 5.33639 0
M  V30 6611 N 602.882 2.66973 6.39294 0
M  V30 6612 N 604.675 2.00426 5.25153 0
M  V30 6613 H 596.826 1.60353 1.39286 0
M  V30 6614 H 599.089 0.673142 0.667521 0
M  V30 6615 H 598.795 2.04519 2.8612 0
M  V30 6616 H 598.669 0.528563 3.73478 0
M  V30 6617 H 601.056 -0.0779247 2.94997 0
M  V30 6618 H 601.137 1.46873 2.09433 0
M  V30 6619 H 600.781 2.68752 4.3097 0
M  V30 6620 H 600.711 1.11624 5.14634 0
M  V30 6621 H 603.202 1.19087 3.58646 0
M  V30 6622 H 603.515 3.02074 7.11316 0
M  V30 6623 H 601.86 2.71024 6.39977 0
M  V30 6624 H 605.051 1.55483 4.41523 0
M  V30 6625 H 605.224 2.38906 6.02352 0
M  V30 6626 N 598.631 -1.53133 0.372548 0
M  V30 6627 C 600.047 -1.59585 0.02178 0
M  V30 6628 C 600.247 -1.38736 -1.46132 0
M  V30 6629 O 599.303 -1.19599 -2.22379 0
M  V30 6630 C 600.616 -2.9678 0.483959 0
M  V30 6631 C 602.164 -3.09909 0.438775 0
M  V30 6632 C 602.639 -4.49527 0.876876 0
M  V30 6633 N 604.13 -4.55663 0.832214 0
M  V30 6634 C 604.865 -5.61896 1.14281 0
M  V30 6635 N 604.361 -6.75852 1.52303 0
M  V30 6636 N 606.154 -5.51916 1.06515 0
M  V30 6637 H 598.305 -1.64936 1.33827 0
M  V30 6638 H 600.568 -0.773947 0.547458 0
M  V30 6639 H 600.274 -3.17198 1.51915 0
M  V30 6640 H 600.148 -3.7699 -0.125784 0
M  V30 6641 H 602.535 -2.89197 -0.587294 0
M  V30 6642 H 602.616 -2.31691 1.0841 0
M  V30 6643 H 602.26 -4.70979 1.90109 0
M  V30 6644 H 602.19 -5.26186 0.208727 0
M  V30 6645 H 604.681 -3.73844 0.552195 0
M  V30 6646 H 604.994 -7.52862 1.7441 0
M  V30 6647 H 603.339 -6.77226 1.56175 0
M  V30 6648 H 606.53 -4.6177 0.767235 0
M  V30 6649 H 606.703 -6.34609 1.31053 0
M  V30 6650 N 600.109 -0.101901 -1.5727 0
M  V30 6651 C 601.041 0.884723 -2.11436 0
M  V30 6652 C 602.054 1.24149 -1.05314 0
M  V30 6653 O 603.243 1.19341 -1.3274 0
M  V30 6654 C 600.343 2.19179 -2.58484 0
M  V30 6655 C 599.516 2.00933 -3.88516 0
M  V30 6656 C 598.575 3.15213 -4.2134 0
M  V30 6657 O 597.601 2.88877 -4.90448 0
M  V30 6658 N 598.803 4.41174 -3.77288 0
M  V30 6659 H 601.568 0.422058 -2.96713 0
M  V30 6660 H 599.129 0.0830128 -1.61687 0
M  V30 6661 H 601.121 2.94593 -2.77484 0
M  V30 6662 H 599.691 2.56847 -1.7818 0
M  V30 6663 H 598.911 1.09809 -3.78597 0
M  V30 6664 H 600.199 1.86026 -4.73573 0
M  V30 6665 H 599.597 4.6545 -3.21516 0
M  V30 6666 H 598.154 5.13515 -4.01429 0
M  V30 6667 N 601.587 1.56661 0.17182 0
M  V30 6668 C 602.517 1.99401 1.21498 0
M  V30 6669 C 603.498 0.869516 1.46197 0
M  V30 6670 O 604.683 1.13556 1.57539 0
M  V30 6671 C 601.813 2.35346 2.55401 0
M  V30 6672 C 600.767 3.5075 2.45272 0
M  V30 6673 C 600.093 3.72437 3.8366 0
M  V30 6674 C 601.393 4.84216 1.95787 0
M  V30 6675 H 603.087 2.86792 0.859699 0
M  V30 6676 H 600.633 1.37977 0.412103 0
M  V30 6677 H 602.586 2.63843 3.2858 0
M  V30 6678 H 601.31 1.44864 2.92715 0
M  V30 6679 H 599.969 3.2238 1.74547 0
M  V30 6680 H 599.617 2.79246 4.18367 0
M  V30 6681 H 599.317 4.50087 3.77751 0
M  V30 6682 H 600.841 4.03334 4.58426 0
M  V30 6683 H 602.255 5.11592 2.5874 0
M  V30 6684 H 600.652 5.65498 2.00827 0
M  V30 6685 H 601.722 4.76243 0.912159 0
M  V30 6686 N 603.065 -0.440357 1.51323 0
M  V30 6687 C 604.295 -1.21079 1.67402 0
M  V30 6688 C 604.703 -1.85555 0.369599 0
M  V30 6689 O 604.046 -1.71375 -0.661525 0
M  V30 6690 C 604.108 -2.33839 2.73056 0
M  V30 6691 C 603.772 -1.89755 4.15743 0
M  V30 6692 C 604.769 -1.40268 5.0062 0
M  V30 6693 C 602.454 -1.97539 4.61826 0
M  V30 6694 C 604.448 -0.991474 6.29642 0
M  V30 6695 C 602.135 -1.56029 5.90845 0
M  V30 6696 C 603.133 -1.06915 6.7458 0
M  V30 6697 O 602.821 -0.659933 8.01187 0
M  V30 6698 H 602.553 -0.371133 0.56501 0
M  V30 6699 H 605.107 -0.528409 1.98487 0
M  V30 6700 H 603.337 -3.05345 2.37279 0
M  V30 6701 H 605.026 -2.95713 2.78044 0
M  V30 6702 H 605.792 -1.33652 4.66221 0
M  V30 6703 H 601.671 -2.34713 3.96776 0
M  V30 6704 H 605.215 -0.607425 6.9495 0
M  V30 6705 H 601.112 -1.62315 6.24759 0
M  V30 6706 H 601.88 -0.786052 8.14717 0
M  V30 6707 N 604.543 -1.41418 -0.695603 0
M  V30 6708 C 605.473 -1.46035 -1.82197 0
M  V30 6709 C 606.454 -0.319025 -1.67082 0
M  V30 6710 O 607.639 -0.530462 -1.86815 0
M  V30 6711 C 604.769 -1.34179 -3.20333 0
M  V30 6712 C 603.723 -2.46123 -3.50154 0
M  V30 6713 C 603.049 -2.19332 -4.87645 0
M  V30 6714 C 604.349 -3.88463 -3.49133 0
M  V30 6715 H 606.043 -2.40303 -1.78591 0
M  V30 6716 H 603.589 -1.15663 -0.857797 0
M  V30 6717 H 605.542 -1.36021 -3.98844 0
M  V30 6718 H 604.266 -0.363952 -3.24566 0
M  V30 6719 H 602.925 -2.43563 -2.73994 0
M  V30 6720 H 602.573 -1.19891 -4.88503 0
M  V30 6721 H 602.273 -2.94344 -5.08562 0
M  V30 6722 H 603.797 -2.22889 -5.68465 0
M  V30 6723 H 605.211 -3.92738 -4.17648 0
M  V30 6724 H 603.608 -4.63158 -3.81582 0
M  V30 6725 H 604.678 -4.16617 -2.48109 0
M  V30 6726 N 606.021 0.929856 -1.27246 0
M  V30 6727 C 607.432 1.49223 -1.12203 0
M  V30 6728 C 607.783 1.93989 0.293731 0
M  V30 6729 O 606.908 1.80978 1.18642 0
M  V30 6730 C 607.503 2.71198 -2.0307 0
M  V30 6731 C 606.062 3.23666 -1.92139 0
M  V30 6732 C 605.209 1.96409 -1.95752 0
M  V30 6733 H 608.16 0.744181 -1.4017 0
M  V30 6734 H 608.181 3.45905 -1.58524 0
M  V30 6735 H 607.693 2.38585 -3.06102 0
M  V30 6736 H 605.794 3.61042 -0.920834 0
M  V30 6737 H 605.907 3.90006 -2.78267 0
M  V30 6738 H 604.271 2.12806 -1.39949 0
M  V30 6739 H 605.054 1.66113 -3.00436 0
M  V30 6740 N 607.499 1.09233 1.13605 0
M  V30 6741 C 608.432 0.6739 2.18023 0
M  V30 6742 C 609.41 -0.318603 1.59448 0
M  V30 6743 O 610.594 -0.220452 1.87206 0
M  V30 6744 C 607.721 -0.00751458 3.38699 0
M  V30 6745 C 606.767 0.946481 4.15865 0
M  V30 6746 S 607.6 2.45753 4.75779 0
M  V30 6747 C 608.756 1.78846 5.99804 0
M  V30 6748 H 608.989 1.55846 2.53178 0
M  V30 6749 H 606.522 0.908118 1.2487 0
M  V30 6750 H 608.48 -0.394368 4.08601 0
M  V30 6751 H 607.141 -0.868693 3.01849 0
M  V30 6752 H 606.334 0.416742 5.02274 0
M  V30 6753 H 605.936 1.27464 3.51609 0
M  V30 6754 H 608.228 1.11135 6.68323 0
M  V30 6755 H 609.171 2.63163 6.57382 0
M  V30 6756 H 609.579 1.25823 5.50299 0
M  V30 6757 N 608.977 -1.30795 0.87923 0
M  V30 6758 C 609.907 -2.30742 0.357796 0
M  V30 6759 C 610.888 -1.60747 -0.556283 0
M  V30 6760 O 612.073 -1.88393 -0.47135 0
M  V30 6761 C 609.203 -3.44583 -0.433555 0
M  V30 6762 C 608.157 -4.26235 0.388251 0
M  V30 6763 C 607.483 -5.32073 -0.529352 0
M  V30 6764 C 608.783 -4.96303 1.62729 0
M  V30 6765 H 610.477 -2.74605 1.19299 0
M  V30 6766 H 608.023 -1.32017 0.575104 0
M  V30 6767 H 609.976 -4.13563 -0.808934 0
M  V30 6768 H 608.7 -2.99511 -1.30234 0
M  V30 6769 H 607.359 -3.58936 0.745695 0
M  V30 6770 H 607.007 -4.83249 -1.39569 0
M  V30 6771 H 606.707 -5.87598 0.0166741 0
M  V30 6772 H 608.231 -6.0391 -0.901373 0
M  V30 6773 H 609.645 -5.5783 1.32283 0
M  V30 6774 H 608.042 -5.61666 2.11309 0
M  V30 6775 H 609.112 -4.22758 2.37494 0
M  V30 6776 N 610.455 -0.639598 -1.44038 0
M  V30 6777 C 611.702 -0.14748 -2.01962 0
M  V30 6778 C 612.03 1.23372 -1.50365 0
M  V30 6779 O 611.285 1.8345 -0.681501 0
M  V30 6780 C 611.584 -0.0925348 -3.5728 0
M  V30 6781 C 611.25 -1.41365 -4.28167 0
M  V30 6782 C 609.912 -1.77545 -4.47248 0
M  V30 6783 C 612.264 -2.2853 -4.68427 0
M  V30 6784 C 609.592 -3.00583 -5.03852 0
M  V30 6785 C 611.944 -3.50846 -5.26393 0
M  V30 6786 C 610.608 -3.8724 -5.43692 0
M  V30 6787 H 609.878 -0.0539666 -0.739032 0
M  V30 6788 H 612.525 -0.827599 -1.72694 0
M  V30 6789 H 610.83 0.670987 -3.86012 0
M  V30 6790 H 612.527 0.304891 -3.99839 0
M  V30 6791 H 609.117 -1.1221 -4.13651 0
M  V30 6792 H 613.301 -2.0187 -4.5339 0
M  V30 6793 H 608.557 -3.28846 -5.15432 0
M  V30 6794 H 612.731 -4.18616 -5.56537 0
M  V30 6795 H 610.358 -4.8266 -5.87319 0
M  V30 6796 N 611.933 1.52934 -0.380664 0
M  V30 6797 C 612.88 2.26197 0.458641 0
M  V30 6798 C 613.85 1.27462 1.06502 0
M  V30 6799 O 615.035 1.56274 1.09467 0
M  V30 6800 C 612.175 3.06571 1.58456 0
M  V30 6801 C 611.288 4.20222 1.00189 0
M  V30 6802 C 610.423 4.88007 2.09815 0
M  V30 6803 C 609.462 5.93665 1.49092 0
M  V30 6804 N 608.599 6.55081 2.52613 0
M  V30 6805 H 613.439 2.975 -0.172595 0
M  V30 6806 H 610.976 1.4678 -0.0969426 0
M  V30 6807 H 612.934 3.51455 2.24801 0
M  V30 6808 H 611.564 2.37494 2.18624 0
M  V30 6809 H 610.616 3.79714 0.228292 0
M  V30 6810 H 611.928 4.96102 0.518064 0
M  V30 6811 H 611.082 5.36151 2.83948 0
M  V30 6812 H 609.821 4.11632 2.61555 0
M  V30 6813 H 608.826 5.44868 0.7348 0
M  V30 6814 H 610.051 6.71969 0.981582 0
M  V30 6815 H 607.997 5.8155 3.03538 0
M  V30 6816 H 607.914 7.26548 2.08961 0
M  V30 6817 H 609.182 7.07871 3.26402 0
M  V30 6818 N 613.412 0.11024 1.57214 0
M  V30 6819 C 614.658 -0.550684 1.9518 0
M  V30 6820 C 614.991 -1.66885 0.993122 0
M  V30 6821 O 614.266 -1.94479 0.0287907 0
M  V30 6822 C 614.549 -1.09163 3.43155 0
M  V30 6823 C 614.402 0.0225198 4.49794 0
M  V30 6824 C 615.721 -1.98527 3.92778 0
M  V30 6825 H 612.84 -0.198706 0.709708 0
M  V30 6826 H 615.482 0.184024 1.89107 0
M  V30 6827 H 613.632 -1.71775 3.48462 0
M  V30 6828 H 615.304 0.657443 4.56591 0
M  V30 6829 H 613.547 0.686868 4.28328 0
M  V30 6830 H 614.218 -0.39706 5.5057 0
M  V30 6831 H 616.694 -1.458 3.8972 0
M  V30 6832 H 615.57 -2.33298 4.96853 0
M  V30 6833 H 615.831 -2.90846 3.32958 0
M  V30 6834 N 614.89 -1.56749 -0.16351 0
M  V30 6835 C 616.306 -1.51043 -0.515567 0
M  V30 6836 C 616.506 -0.815855 -1.84245 0
M  V30 6837 O 615.562 -0.379477 -2.49632 0
M  V30 6838 C 616.875 -2.95791 -0.541114 0
M  V30 6839 C 618.423 -3.0664 -0.627776 0
M  V30 6840 C 618.898 -4.52861 -0.684141 0
M  V30 6841 N 620.389 -4.5714 -0.746818 0
M  V30 6842 C 621.124 -5.67634 -0.811137 0
M  V30 6843 N 620.62 -6.8774 -0.835811 0
M  V30 6844 N 622.413 -5.55624 -0.850756 0
M  V30 6845 H 614.564 -2.00307 0.70645 0
M  V30 6846 H 616.827 -0.912876 0.255659 0
M  V30 6847 H 616.533 -3.49797 0.365329 0
M  V30 6848 H 616.407 -3.50858 -1.38487 0
M  V30 6849 H 618.794 -2.52663 -1.52464 0
M  V30 6850 H 618.875 -2.54645 0.242805 0
M  V30 6851 H 618.519 -5.07472 0.2085 0
M  V30 6852 H 618.449 -5.02621 -1.57098 0
M  V30 6853 H 620.94 -3.70669 -0.735717 0
M  V30 6854 H 621.253 -7.67701 -0.886279 0
M  V30 6855 H 619.598 -6.90334 -0.803958 0
M  V30 6856 H 622.789 -4.60709 -0.828535 0
M  V30 6857 H 622.962 -6.41756 -0.897418 0
M  V30 6858 N 616.368 0.432326 -1.51554 0
M  V30 6859 C 617.298 1.53242 -1.76179 0
M  V30 6860 C 618.279 1.58717 -0.611801 0
M  V30 6861 O 619.464 1.74364 -0.855033 0
M  V30 6862 C 616.594 2.91278 -1.89141 0
M  V30 6863 C 615.548 3.00663 -3.04608 0
M  V30 6864 C 614.874 4.40728 -3.02759 0
M  V30 6865 C 616.174 2.74281 -4.44485 0
M  V30 6866 H 617.868 1.32886 -2.68294 0
M  V30 6867 H 615.414 0.637841 -1.29103 0
M  V30 6868 H 617.367 3.68203 -2.04951 0
M  V30 6869 H 616.091 3.12877 -0.936785 0
M  V30 6870 H 614.75 2.26179 -2.88511 0
M  V30 6871 H 614.398 4.59301 -2.05065 0
M  V30 6872 H 614.098 4.47936 -3.80299 0
M  V30 6873 H 615.622 5.19619 -3.20669 0
M  V30 6874 H 617.036 3.40936 -4.60907 0
M  V30 6875 H 615.433 2.92893 -5.23769 0
M  V30 6876 H 616.503 1.69856 -4.54177 0
M  V30 6877 N 617.846 1.41785 0.688094 0
M  V30 6878 C 618.776 1.47 1.8142 0
M  V30 6879 C 619.757 0.327881 1.6691 0
M  V30 6880 O 620.942 0.540362 1.86531 0
M  V30 6881 C 618.072 1.35876 3.19617 0
M  V30 6882 C 617.026 2.47976 3.48844 0
M  V30 6883 C 616.352 2.21915 4.86475 0
M  V30 6884 C 617.652 3.90309 3.47068 0
M  V30 6885 H 619.346 2.41247 1.77314 0
M  V30 6886 H 616.892 1.16116 0.851651 0
M  V30 6887 H 618.845 1.38134 3.98117 0
M  V30 6888 H 617.569 0.38116 3.24368 0
M  V30 6889 H 616.228 2.45013 2.72698 0
M  V30 6890 H 615.876 1.2248 4.8786 0
M  V30 6891 H 615.576 2.97037 5.06994 0
M  V30 6892 H 617.1 2.25901 5.67275 0
M  V30 6893 H 618.514 3.94947 4.1556 0
M  V30 6894 H 616.911 4.65175 3.7912 0
M  V30 6895 H 617.981 4.17927 2.45896 0
M  V30 6896 N 619.324 -0.923095 1.27737 0
M  V30 6897 C 620.257 -2.02515 1.05181 0
M  V30 6898 C 621.235 -1.62574 -0.0292204 0
M  V30 6899 O 622.419 -1.88137 0.116848 0
M  V30 6900 C 619.546 -3.33407 0.596468 0
M  V30 6901 C 618.592 -3.92328 1.67276 0
M  V30 6902 S 619.425 -4.24342 3.26641 0
M  V30 6903 C 620.581 -5.58308 2.82919 0
M  V30 6904 H 620.814 -2.21336 1.98488 0
M  V30 6905 H 618.347 -1.06679 1.1162 0
M  V30 6906 H 620.305 -4.09086 0.34044 0
M  V30 6907 H 618.966 -3.125 -0.316614 0
M  V30 6908 H 618.159 -4.86797 1.30556 0
M  V30 6909 H 617.761 -3.2325 1.8811 0
M  V30 6910 H 620.053 -6.37801 2.28509 0
M  V30 6911 H 620.996 -5.99931 3.7615 0
M  V30 6912 H 621.404 -5.19049 2.21919 0
M  V30 6913 N 620.802 -1.09834 -1.13024 0
M  V30 6914 C 622.048 -0.83819 -1.84668 0
M  V30 6915 C 622.381 0.634645 -1.83537 0
M  V30 6916 O 621.656 1.46753 -1.27647 0
M  V30 6917 C 621.939 -1.37933 -3.32636 0
M  V30 6918 C 621.792 -2.91857 -3.42257 0
M  V30 6919 C 623.111 -1.01654 -4.28199 0
M  V30 6920 H 620.23 -0.30595 -0.670495 0
M  V30 6921 H 622.872 -1.36044 -1.32635 0
M  V30 6922 H 621.022 -0.935111 -3.77078 0
M  V30 6923 H 622.694 -3.44759 -3.06495 0
M  V30 6924 H 620.937 -3.28776 -2.83 0
M  V30 6925 H 621.608 -3.24799 -4.46329 0
M  V30 6926 H 624.084 -1.39973 -3.9185 0
M  V30 6927 H 622.96 -1.42217 -5.30156 0
M  V30 6928 H 623.221 0.0747794 -4.42037 0
M  V30 6929 N 622.28 1.30327 -0.886154 0
M  V30 6930 C 623.505 2.0079 -0.519425 0
M  V30 6931 C 623.93 1.65979 0.885013 0
M  V30 6932 O 623.288 0.877043 1.58675 0
M  V30 6933 C 623.336 3.53686 -0.702758 0
M  V30 6934 O 622.44 4.11637 0.250828 0
M  V30 6935 H 621.781 0.63171 -0.204544 0
M  V30 6936 H 624.311 1.66145 -1.19402 0
M  V30 6937 H 624.321 4.03531 -0.602207 0
M  V30 6938 H 622.996 3.78361 -1.72673 0
M  V30 6939 H 621.573 3.72755 0.103873 0
M  V30 6940 N 623.758 0.647228 1.43697 0
M  V30 6941 C 625.174 0.314256 1.56476 0
M  V30 6942 C 625.374 -1.18191 1.63196 0
M  V30 6943 O 624.43 -1.96655 1.58376 0
M  V30 6944 C 625.743 1.02034 2.82859 0
M  V30 6945 C 627.291 1.00002 2.96595 0
M  V30 6946 C 627.766 1.68689 4.25803 0
M  V30 6947 N 629.257 1.65424 4.32654 0
M  V30 6948 C 629.992 2.1545 5.31384 0
M  V30 6949 N 629.488 2.73738 6.36427 0
M  V30 6950 N 631.281 2.05985 5.22998 0
M  V30 6951 H 623.432 1.61821 1.37578 0
M  V30 6952 H 625.695 0.680184 0.660344 0
M  V30 6953 H 625.401 2.07542 2.83935 0
M  V30 6954 H 625.275 0.568146 3.72897 0
M  V30 6955 H 627.662 -0.0466319 2.95063 0
M  V30 6956 H 627.743 1.49086 2.07863 0
M  V30 6957 H 627.387 2.73308 4.28095 0
M  V30 6958 H 627.317 1.17076 5.13421 0
M  V30 6959 H 629.808 1.22884 3.57363 0
M  V30 6960 H 630.121 3.09602 7.08072 0
M  V30 6961 H 628.466 2.77796 6.37067 0
M  V30 6962 H 631.657 1.60157 4.39849 0
M  V30 6963 H 631.83 2.45281 5.99784 0
M  V30 6964 N 625.236 -1.5273 0.388769 0
M  V30 6965 C 626.169 -2.22861 -0.490752 0
M  V30 6966 C 627.147 -1.22912 -1.06449 0
M  V30 6967 O 628.331 -1.51896 -1.11624 0
M  V30 6968 C 625.458 -2.94141 -1.67925 0
M  V30 6969 C 624.504 -4.08355 -1.23081 0
M  V30 6970 S 625.337 -5.35077 -0.212786 0
M  V30 6971 C 626.493 -6.09879 -1.40708 0
M  V30 6972 H 626.726 -2.97115 0.104787 0
M  V30 6973 H 624.259 -1.53428 0.172956 0
M  V30 6974 H 626.217 -3.35818 -2.36085 0
M  V30 6975 H 624.878 -2.19568 -2.24608 0
M  V30 6976 H 624.071 -4.57328 -2.11818 0
M  V30 6977 H 623.673 -3.68688 -0.628121 0
M  V30 6978 H 625.965 -6.36018 -2.33424 0
M  V30 6979 H 626.908 -7.01586 -0.958271 0
M  V30 6980 H 627.316 -5.40646 -1.62364 0
M  V30 6981 N 626.714 -0.118576 -1.57153 0
M  V30 6982 C 627.677 0.817464 -2.14127 0
M  V30 6983 C 628.677 1.1949 -1.07604 0
M  V30 6984 O 629.867 1.12048 -1.33382 0
M  V30 6985 C 626.999 2.10541 -2.68115 0
M  V30 6986 H 628.192 0.322339 -2.98163 0
M  V30 6987 H 625.745 0.130655 -1.55753 0
M  V30 6988 H 626.48 2.64485 -1.87665 0
M  V30 6989 H 626.265 1.84425 -3.4602 0
M  V30 6990 H 627.755 2.77453 -3.12105 0
M  V30 6991 N 628.193 1.56834 0.155195 0
M  V30 6992 C 629.14 1.97646 1.19184 0
M  V30 6993 C 630.11 0.842788 1.4313 0
M  V30 6994 O 631.295 1.1042 1.55602 0
M  V30 6995 C 628.435 2.35527 2.52232 0
M  V30 6996 C 627.548 3.62147 2.35529 0
M  V30 6997 C 626.683 3.89167 3.61555 0
M  V30 6998 C 625.722 5.09084 3.39853 0
M  V30 6999 N 624.859 5.32156 4.5799 0
M  V30 7000 H 629.699 2.8601 0.836802 0
M  V30 7001 H 627.236 1.41507 0.401758 0
M  V30 7002 H 629.194 2.55516 3.29799 0
M  V30 7003 H 627.824 1.50253 2.85699 0
M  V30 7004 H 626.876 3.4998 1.49057 0
M  V30 7005 H 628.188 4.49871 2.15448 0
M  V30 7006 H 627.342 4.09611 4.47553 0
M  V30 7007 H 626.081 2.9985 3.84632 0
M  V30 7008 H 625.086 4.88522 2.52243 0
M  V30 7009 H 626.311 5.99947 3.18183 0
M  V30 7010 H 624.257 4.45791 4.81255 0
M  V30 7011 H 624.174 6.14133 4.40882 0
M  V30 7012 H 625.442 5.57091 5.45225 0
M  V30 7013 N 629.671 -0.424282 1.51781 0
M  V30 7014 C 631.082 -1.00368 1.57427 0
M  V30 7015 C 631.433 -1.91962 0.40558 0
M  V30 7016 O 630.558 -2.111 -0.47601 0
M  V30 7017 C 631.153 -1.82707 2.85313 0
M  V30 7018 C 629.712 -2.35675 2.93487 0
M  V30 7019 C 628.859 -1.1524 2.5222 0
M  V30 7020 H 631.81 -0.205064 1.5737 0
M  V30 7021 H 631.831 -2.68294 2.69812 0
M  V30 7022 H 631.343 -1.16017 3.70353 0
M  V30 7023 H 629.444 -3.05781 2.12906 0
M  V30 7024 H 629.557 -2.67578 3.97415 0
M  V30 7025 H 627.921 -1.50174 2.05718 0
M  V30 7026 H 628.704 -0.5014 3.39619 0
M  V30 7027 N 631.149 -1.42148 -0.680565 0
M  V30 7028 C 632.059 -1.47565 -1.82378 0
M  V30 7029 C 633.075 -0.36489 -1.70131 0
M  V30 7030 O 634.251 -0.614916 -1.91783 0
M  V30 7031 C 631.316 -1.37013 -3.18478 0
M  V30 7032 C 630.377 -2.58532 -3.42724 0
M  V30 7033 C 629.61 -2.48473 -4.72331 0
M  V30 7034 O 629.833 -1.51745 -5.49845 0
M  V30 7035 O 628.767 -3.38503 -4.97694 0
M  V30 7036 H 632.593 -2.44045 -1.80764 0
M  V30 7037 H 630.178 -1.23849 -0.835569 0
M  V30 7038 H 632.06 -1.33468 -3.99705 0
M  V30 7039 H 630.735 -0.436552 -3.20743 0
M  V30 7040 H 629.642 -2.67652 -2.61368 0
M  V30 7041 H 630.975 -3.50769 -3.45286 0
M  V30 7042 N 632.627 0.916307 -1.28225 0
M  V30 7043 C 633.537 2.05165 -1.13775 0
M  V30 7044 C 634.553 1.73879 -0.0649418 0
M  V30 7045 O 635.729 1.99531 -0.273722 0
M  V30 7046 C 632.794 3.37385 -0.798267 0
M  V30 7047 C 631.855 3.82296 -1.95316 0
M  V30 7048 C 631.088 5.08206 -1.62978 0
M  V30 7049 O 631.311 5.6781 -0.542948 0
M  V30 7050 O 630.245 5.48768 -2.47261 0
M  V30 7051 H 634.071 2.20273 -2.09078 0
M  V30 7052 H 631.656 1.0373 -1.07519 0
M  V30 7053 H 633.538 4.16773 -0.62278 0
M  V30 7054 H 632.213 3.23458 0.125139 0
M  V30 7055 H 631.12 3.03746 -2.18378 0
M  V30 7056 H 632.453 4.00782 -2.85718 0
M  V30 7057 N 634.105 1.10431 1.1244 0
M  V30 7058 C 635.351 0.847972 1.84221 0
M  V30 7059 C 635.684 -0.624903 1.83871 0
M  V30 7060 O 634.959 -1.46074 1.28423 0
M  V30 7061 C 635.242 1.39695 3.319 0
M  V30 7062 C 635.095 2.93668 3.40704 0
M  V30 7063 C 636.414 1.03924 4.27654 0
M  V30 7064 H 633.533 0.309502 0.668863 0
M  V30 7065 H 636.175 1.36745 1.31912 0
M  V30 7066 H 634.325 0.955095 3.76577 0
M  V30 7067 H 635.997 3.46379 3.04662 0
M  V30 7068 H 634.24 3.30272 2.81252 0
M  V30 7069 H 634.911 3.27162 4.446 0
M  V30 7070 H 637.387 1.42049 3.91102 0
M  V30 7071 H 636.263 1.45027 5.29394 0
M  V30 7072 H 636.524 -0.051336 4.4207 0
M  V30 7073 N 635.583 -1.29855 0.893053 0
M  V30 7074 C 636.513 -2.3035 0.382249 0
M  V30 7075 C 637.494 -1.61328 -0.539203 0
M  V30 7076 O 638.679 -1.88882 -0.451342 0
M  V30 7077 C 635.809 -3.45024 -0.396983 0
M  V30 7078 C 634.763 -4.258 0.433437 0
M  V30 7079 C 634.089 -5.32605 -0.472889 0
M  V30 7080 C 635.389 -4.94549 1.67984 0
M  V30 7081 H 637.083 -2.73325 1.22205 0
M  V30 7082 H 634.629 -1.314 0.589073 0
M  V30 7083 H 636.582 -4.14398 -0.765024 0
M  V30 7084 H 635.306 -3.00875 -1.2705 0
M  V30 7085 H 633.965 -3.58125 0.783723 0
M  V30 7086 H 633.613 -4.84702 -1.34435 0
M  V30 7087 H 633.313 -5.87547 0.0789958 0
M  V30 7088 H 634.837 -6.04832 -0.837269 0
M  V30 7089 H 636.251 -5.56395 1.38192 0
M  V30 7090 H 634.648 -5.59393 2.17254 0
M  V30 7091 H 635.718 -4.20215 2.41965 0
M  V30 7092 N 637.061 -0.65484 -1.43351 0
M  V30 7093 C 638.307 -0.169142 -2.02093 0
M  V30 7094 C 638.64 1.21431 -1.51553 0
M  V30 7095 O 637.915 1.81105 -0.709317 0
M  V30 7096 C 638.198 -0.181775 -3.59641 0
M  V30 7097 C 638.051 -1.59926 -4.20409 0
M  V30 7098 C 639.37 0.480945 -4.37464 0
M  V30 7099 H 636.489 -0.0629371 -0.734308 0
M  V30 7100 H 639.131 -0.835833 -1.70628 0
M  V30 7101 H 637.281 0.385918 -3.86578 0
M  V30 7102 H 638.953 -2.21766 -4.04497 0
M  V30 7103 H 637.196 -2.14605 -3.76998 0
M  V30 7104 H 637.867 -1.55994 -5.295 0
M  V30 7105 H 640.343 -0.00208273 -4.161 0
M  V30 7106 H 639.219 0.441384 -5.47122 0
M  V30 7107 H 639.48 1.55533 -4.13838 0
M  V30 7108 N 638.539 1.52521 -0.396863 0
M  V30 7109 C 639.785 2.01971 0.183169 0
M  V30 7110 C 640.118 1.2825 1.45827 0
M  V30 7111 O 639.393 0.385179 1.90648 0
M  V30 7112 C 639.676 3.5736 0.443391 0
M  V30 7113 C 639.529 4.41743 -0.84753 0
M  V30 7114 C 640.848 4.22539 1.2308 0
M  V30 7115 H 637.967 0.734119 0.0650976 0
M  V30 7116 H 640.609 1.82519 -0.527918 0
M  V30 7117 H 638.759 3.74066 1.04914 0
M  V30 7118 H 640.431 4.36773 -1.48414 0
M  V30 7119 H 638.674 4.0845 -1.4612 0
M  V30 7120 H 639.345 5.48507 -0.620003 0
M  V30 7121 H 641.821 4.09857 0.718084 0
M  V30 7122 H 640.697 5.31227 1.38162 0
M  V30 7123 H 640.958 3.80675 2.24808 0
M  V30 7124 N 640.017 0.126909 1.57088 0
M  V30 7125 C 640.927 -0.833867 2.1928 0
M  V30 7126 C 641.943 -1.2868 1.17122 0
M  V30 7127 O 643.119 -1.34815 1.49622 0
M  V30 7128 C 640.184 -2.0632 2.78627 0
M  V30 7129 C 639.245 -1.66143 3.95847 0
M  V30 7130 C 638.478 -2.83217 4.52354 0
M  V30 7131 O 638.701 -3.98868 4.0775 0
M  V30 7132 O 637.635 -2.59846 5.42922 0
M  V30 7133 H 641.461 -0.334564 3.01852 0
M  V30 7134 H 639.046 -0.0991091 1.49071 0
M  V30 7135 H 640.928 -2.78304 3.16425 0
M  V30 7136 H 639.603 -2.55242 1.99082 0
M  V30 7137 H 638.51 -0.912435 3.62802 0
M  V30 7138 H 639.843 -1.21957 4.76852 0
M  V30 7139 N 641.495 -1.56914 -0.146875 0
M  V30 7140 C 642.443 -1.99224 -1.20053 0
M  V30 7141 C 643.437 -0.884661 -1.44465 0
M  V30 7142 O 644.643 -1.06984 -1.44756 0
M  V30 7143 H 641.018 -0.634191 -0.404112 0
M  V30 7144 H 642.989 -2.86998 -0.816987 0
M  V30 7145 C 641.738 -2.38899 -2.52632 0
M  V30 7146 H 641.061 -3.23677 -2.34677 0
M  V30 7147 H 642.501 -2.72326 -3.24984 0
M  V30 7148 C 640.96 -1.2417 -3.13183 0
M  V30 7149 O 641.49 -0.542503 -3.9802 0
M  V30 7150 N 639.696 -1.00592 -2.72635 0
M  V30 7151 H 639.243 -1.57627 -2.03744 0
M  V30 7152 H 639.201 -0.240174 -3.13481 0
M  V30 7153 N 642.974 0.416227 -1.52004 0
M  V30 7154 C 644.251 1.17637 -1.56272 0
M  V30 7155 C 644.631 2.08352 -0.339493 0
M  V30 7156 O 643.979 2.1833 0.674124 0
M  V30 7157 C 644.189 1.95986 -2.88774 0
M  V30 7158 C 645.537 2.52299 -3.41512 0
M  V30 7159 O 646.561 2.06174 -2.90467 0
M  V30 7160 O 645.42 3.3648 -4.30631 0
M  V30 7161 H 642.514 0.536726 -0.629169 0
M  V30 7162 H 645.06 0.423583 -1.64329 0
M  V30 7163 H 643.832 1.29487 -3.69254 0
M  V30 7164 H 643.455 2.78285 -2.83978 0
M  V30 7165 N 644.452 1.42507 0.673017 0
M  V30 7166 C 645.384 1.42074 1.79854 0
M  V30 7167 C 646.397 0.319569 1.59633 0
M  V30 7168 O 647.586 0.582769 1.68719 0
M  V30 7169 C 644.686 1.19886 3.16987 0
M  V30 7170 C 643.859 2.42471 3.64042 0
M  V30 7171 C 642.918 2.15802 4.79913 0
M  V30 7172 O 641.944 2.89015 4.90366 0
M  V30 7173 N 643.146 1.16225 5.68746 0
M  V30 7174 H 645.911 2.3909 1.8071 0
M  V30 7175 H 643.472 1.37409 0.856171 0
M  V30 7176 H 645.464 0.999591 3.92161 0
M  V30 7177 H 644.034 0.313879 3.1102 0
M  V30 7178 H 643.254 2.77954 2.79526 0
M  V30 7179 H 644.542 3.24097 3.92223 0
M  V30 7180 H 643.94 0.556756 5.62954 0
M  V30 7181 H 642.497 1.02285 6.43724 0
M  V30 7182 N 645.93 -0.909495 1.28709 0
M  V30 7183 C 647.178 -1.65577 1.15882 0
M  V30 7184 C 647.499 -1.928 -0.292108 0
M  V30 7185 O 646.769 -1.54716 -1.20166 0
M  V30 7186 H 645.349 -0.613714 0.425869 0
M  V30 7187 H 648.011 -1.09108 1.61498 0
M  V30 7188 H 647.107 -2.61634 1.70159 0
M  V30 7189 N 647.408 -1.11026 -1.11852 0
M  V30 7190 C 648.318 -0.777252 -2.2135 0
M  V30 7191 C 649.334 0.227821 -1.72502 0
M  V30 7192 O 650.51 0.0650587 -2.01295 0
M  V30 7193 C 647.575 -0.220668 -3.45997 0
M  V30 7194 C 646.636 -1.2838 -4.09655 0
M  V30 7195 C 645.869 -0.753678 -5.28352 0
M  V30 7196 O 646.092 0.417779 -5.68868 0
M  V30 7197 O 645.026 -1.51647 -5.82483 0
M  V30 7198 H 648.852 -1.69141 -2.5224 0
M  V30 7199 H 646.437 -0.885836 -1.20305 0
M  V30 7200 H 648.319 0.0855756 -4.21313 0
M  V30 7201 H 646.994 0.666262 -3.16769 0
M  V30 7202 H 645.901 -1.64299 -3.3609 0
M  V30 7203 H 647.234 -2.14396 -4.43052 0
M  V30 7204 N 648.886 1.2938 -0.899927 0
M  V30 7205 C 650.132 1.9584 -0.526742 0
M  V30 7206 C 650.465 1.70774 0.924651 0
M  V30 7207 O 649.74 1.02084 1.65557 0
M  V30 7208 C 650.023 3.50638 -0.820062 0
M  V30 7209 C 649.876 3.85161 -2.32317 0
M  V30 7210 C 651.195 4.3903 -0.30671 0
M  V30 7211 H 648.314 0.711322 -0.192848 0
M  V30 7212 H 650.956 1.52992 -1.12665 0
M  V30 7213 H 649.106 3.87265 -0.309491 0
M  V30 7214 H 650.778 3.58477 -2.9033 0
M  V30 7215 H 649.021 3.32696 -2.78381 0
M  V30 7216 H 649.692 4.93204 -2.47898 0
M  V30 7217 H 652.168 4.09396 -0.743908 0
M  V30 7218 H 651.044 5.46226 -0.541144 0
M  V30 7219 H 651.305 4.34937 0.792588 0
M  V30 7220 N 650.364 0.662433 1.43002 0
M  V30 7221 C 651.61 0.179857 2.02001 0
M  V30 7222 C 651.943 -1.20625 1.52195 0
M  V30 7223 O 651.218 -1.80726 0.718911 0
M  V30 7224 C 651.501 0.200845 3.59539 0
M  V30 7225 C 651.354 1.62153 4.19555 0
M  V30 7226 C 652.673 -0.457738 4.37713 0
M  V30 7227 H 649.792 0.0668305 0.733964 0
M  V30 7228 H 652.434 0.84487 1.70182 0
M  V30 7229 H 650.584 -0.365411 3.86778 0
M  V30 7230 H 652.256 2.23908 4.03315 0
M  V30 7231 H 650.499 2.16601 3.75854 0
M  V30 7232 H 651.17 1.58799 5.28665 0
M  V30 7233 H 653.646 0.0241495 4.16093 0
M  V30 7234 H 652.522 -0.412363 5.47349 0
M  V30 7235 H 652.783 -1.53336 4.14657 0
M  V30 7236 N 651.842 -1.52309 0.404946 0
M  V30 7237 C 653.258 -1.59503 0.0556255 0
M  V30 7238 C 653.458 -1.41805 -1.43156 0
M  V30 7239 O 652.514 -1.2429 -2.19792 0
M  V30 7240 C 653.827 -2.95687 0.546801 0
M  V30 7241 C 655.375 -3.08909 0.504413 0
M  V30 7242 C 655.85 -4.47566 0.97203 0
M  V30 7243 N 657.341 -4.53795 0.928679 0
M  V30 7244 C 658.076 -5.59346 1.26174 0
M  V30 7245 N 657.572 -6.72469 1.66604 0
M  V30 7246 N 659.365 -5.49532 1.18198 0
M  V30 7247 H 651.516 -1.6206 1.37296 0
M  V30 7248 H 653.779 -0.762161 0.563751 0
M  V30 7249 H 653.485 -3.13905 1.58609 0
M  V30 7250 H 653.359 -3.77172 -0.0457905 0
M  V30 7251 H 655.746 -2.90378 -0.525819 0
M  V30 7252 H 655.827 -2.2934 1.13301 0
M  V30 7253 H 655.471 -4.6684 2.00057 0
M  V30 7254 H 655.401 -5.25625 0.320292 0
M  V30 7255 H 657.892 -3.72588 0.631369 0
M  V30 7256 H 658.205 -7.48993 1.9034 0
M  V30 7257 H 656.55 -6.73761 1.70504 0
M  V30 7258 H 659.741 -4.60038 0.865011 0
M  V30 7259 H 659.914 -6.31687 1.44485 0
M  V30 7260 N 653.32 -0.135238 -1.57019 0
M  V30 7261 C 654.23 0.822226 -2.19719 0
M  V30 7262 C 655.246 1.28057 -1.17802 0
M  V30 7263 O 656.422 1.3402 -1.50335 0
M  V30 7264 C 653.487 2.0484 -2.79717 0
M  V30 7265 C 652.548 1.64042 -3.96723 0
M  V30 7266 C 651.781 2.80814 -4.53849 0
M  V30 7267 O 652.004 3.967 -4.0986 0
M  V30 7268 O 650.938 2.56963 -5.44292 0
M  V30 7269 H 654.764 0.318552 -3.02025 0
M  V30 7270 H 652.349 0.0912021 -1.49121 0
M  V30 7271 H 654.231 2.76622 -3.17897 0
M  V30 7272 H 652.906 2.54182 -2.00432 0
M  V30 7273 H 651.813 0.893182 -3.63281 0
M  V30 7274 H 653.146 1.19426 -4.77492 0
M  V30 7275 N 654.798 1.5699 0.138552 0
M  V30 7276 C 656.045 1.83809 0.849732 0
M  V30 7277 C 656.373 0.717409 1.80786 0
M  V30 7278 O 655.628 -0.292897 1.93496 0
M  V30 7279 C 655.927 3.17007 1.65049 0
M  V30 7280 C 655.593 4.43037 0.838398 0
M  V30 7281 C 654.255 4.77262 0.614385 0
M  V30 7282 C 656.607 5.20495 0.271044 0
M  V30 7283 C 653.935 5.864 -0.187552 0
M  V30 7284 C 656.287 6.30476 -0.517979 0
M  V30 7285 C 654.951 6.63245 -0.75249 0
M  V30 7286 H 654.221 0.672605 0.310939 0
M  V30 7287 H 656.868 1.91166 0.112971 0
M  V30 7288 H 655.173 3.05138 2.4576 0
M  V30 7289 H 656.87 3.34975 2.20437 0
M  V30 7290 H 653.46 4.16211 1.02307 0
M  V30 7291 H 657.644 4.94422 0.431371 0
M  V30 7292 H 652.9 6.10226 -0.378659 0
M  V30 7293 H 657.074 6.89686 -0.964694 0
M  V30 7294 H 654.701 7.47648 -1.37573 0
M  V30 7295 N 656.276 -0.40816 1.52223 0
M  V30 7296 C 657.209 -1.51834 1.70357 0
M  V30 7297 C 658.187 -1.52973 0.551171 0
M  V30 7298 O 659.371 -1.71667 0.778642 0
M  V30 7299 C 656.498 -2.90362 1.74378 0
M  V30 7300 C 655.544 -3.0713 2.95928 0
M  V30 7301 S 656.377 -2.80342 4.56255 0
M  V30 7302 C 657.533 -4.21098 4.63063 0
M  V30 7303 H 657.766 -1.36223 2.64255 0
M  V30 7304 H 655.299 -0.599798 1.42274 0
M  V30 7305 H 657.257 -3.70199 1.77379 0
M  V30 7306 H 655.918 -3.03314 0.816063 0
M  V30 7307 H 655.111 -4.08482 2.95226 0
M  V30 7308 H 654.713 -2.3516 2.90819 0
M  V30 7309 H 657.005 -5.14749 4.40499 0
M  V30 7310 H 657.948 -4.26823 5.65002 0
M  V30 7311 H 658.356 -4.06114 3.92086 0
M  V30 7312 N 657.755 -1.42862 -0.66545 0
M  V30 7313 C 658.702 -1.4707 -1.77874 0
M  V30 7314 C 659.672 -0.321654 -1.62956 0
M  V30 7315 O 660.857 -0.52707 -1.83376 0
M  V30 7316 C 657.997 -1.38788 -3.15962 0
M  V30 7317 C 657.11 -2.63801 -3.42101 0
M  V30 7318 C 656.245 -2.47594 -4.69969 0
M  V30 7319 C 655.284 -3.67936 -4.89172 0
M  V30 7320 N 654.421 -3.50614 -6.08288 0
M  V30 7321 H 659.261 -2.42204 -1.73613 0
M  V30 7322 H 656.798 -1.20239 -0.847401 0
M  V30 7323 H 658.756 -1.31982 -3.95773 0
M  V30 7324 H 657.386 -0.472431 -3.19324 0
M  V30 7325 H 656.438 -2.80935 -2.56475 0
M  V30 7326 H 657.75 -3.53228 -3.52181 0
M  V30 7327 H 656.904 -2.38427 -5.57886 0
M  V30 7328 H 655.643 -1.55672 -4.62188 0
M  V30 7329 H 654.648 -3.77525 -3.99694 0
M  V30 7330 H 655.873 -4.60851 -4.98792 0
M  V30 7331 H 653.819 -2.61417 -6.01662 0
M  V30 7332 H 653.736 -4.33634 -6.19272 0
M  V30 7333 H 655.004 -3.45276 -6.98859 0
M  V30 7334 N 659.233 0.902656 -1.29189 0
M  V30 7335 C 660.51 1.63296 -1.07674 0
M  V30 7336 C 660.89 2.07649 0.380137 0
M  V30 7337 O 660.238 1.82997 1.36837 0
M  V30 7338 C 660.448 2.81603 -2.06158 0
M  V30 7339 C 661.796 3.52359 -2.36914 0
M  V30 7340 O 662.82 2.91767 -2.04329 0
M  V30 7341 O 661.679 4.61586 -2.92576 0
M  V30 7342 H 658.773 0.716889 -0.41231 0
M  V30 7343 H 661.319 0.950984 -1.4055 0
M  V30 7344 H 660.091 2.46004 -3.04299 0
M  V30 7345 H 659.714 3.57508 -1.73993 0
M  V30 7346 N 660.711 1.11618 1.11262 0
M  V30 7347 C 661.939 0.888739 1.8684 0
M  V30 7348 C 662.354 -0.561558 1.80255 0
M  V30 7349 O 661.711 -1.38782 1.18515 0
M  V30 7350 C 661.762 1.34422 3.35579 0
M  V30 7351 O 661.483 2.73766 3.42029 0
M  V30 7352 C 662.984 1.15246 4.28058 0
M  V30 7353 H 660.204 0.318152 0.590779 0
M  V30 7354 H 662.748 1.48398 1.40707 0
M  V30 7355 H 660.903 0.79239 3.7921 0
M  V30 7356 H 661.317 2.9355 4.34659 0
M  V30 7357 H 662.791 1.52015 5.30656 0
M  V30 7358 H 663.268 0.0922007 4.39103 0
M  V30 7359 H 663.874 1.69136 3.90222 0
M  V30 7360 N 662.189 -1.289 0.906776 0
M  V30 7361 C 663.466 -1.90221 0.455537 0
M  V30 7362 C 663.846 -1.82251 -1.06527 0
M  V30 7363 O 663.194 -1.25385 -1.91026 0
M  V30 7364 C 663.404 -3.35015 0.97806 0
M  V30 7365 C 664.752 -4.12018 1.02598 0
M  V30 7366 O 665.776 -3.43947 0.926218 0
M  V30 7367 O 664.635 -5.33677 1.17689 0
M  V30 7368 H 661.729 -0.814505 0.143214 0
M  V30 7369 H 664.275 -1.37317 0.997104 0
M  V30 7370 H 663.047 -3.35006 2.02204 0
M  V30 7371 H 662.67 -3.95408 0.416914 0
M  V30 7372 N 663.667 -0.670007 -1.42649 0
M  V30 7373 C 664.892 -0.196955 -2.06463 0
M  V30 7374 C 665.317 1.1352 -1.49983 0
M  V30 7375 O 664.675 1.705 -0.616397 0
M  V30 7376 C 664.723 -0.137381 -3.60338 0
M  V30 7377 O 663.827 0.895523 -4.02559 0
M  V30 7378 H 663.168 -0.102579 -0.656029 0
M  V30 7379 H 665.698 -0.917669 -1.82866 0
M  V30 7380 H 665.708 0.0403625 -4.0798 0
M  V30 7381 H 664.383 -1.10977 -4.0082 0
M  V30 7382 H 662.96 0.689209 -3.66476 0
M  V30 7383 N 665.145 1.52092 -0.413018 0
M  V30 7384 C 666.394 2.01041 0.16287 0
M  V30 7385 C 666.707 1.30288 1.45892 0
M  V30 7386 O 667.913 1.70075 2.11629 0
M  V30 7387 C 666.369 3.58283 0.340806 0
M  V30 7388 C 665.977 4.37955 -0.943377 0
M  V30 7389 C 667.721 4.15452 0.871774 0
M  V30 7390 C 665.628 5.86847 -0.732417 0
M  V30 7391 H 664.558 0.751224 0.0646414 0
M  V30 7392 H 667.209 1.75404 -0.539059 0
M  V30 7393 H 665.591 3.80266 1.10516 0
M  V30 7394 H 666.765 4.2773 -1.71418 0
M  V30 7395 H 665.08 3.92122 -1.40105 0
M  V30 7396 H 667.677 5.24375 1.0457 0
M  V30 7397 H 668.02 3.73057 1.84755 0
M  V30 7398 H 668.553 3.97452 0.166377 0
M  V30 7399 H 665.292 6.33609 -1.67986 0
M  V30 7400 H 664.812 5.998 -0.000980058 0
M  V30 7401 H 666.491 6.45906 -0.376105 0
M  V30 7402 N 666.623 0.143563 1.56945 0
M  V30 7403 C 667.571 -0.814556 2.17871 0
M  V30 7404 C 668.565 -1.25778 1.13474 0
M  V30 7405 O 669.771 -1.22666 1.31731 0
M  V30 7406 H 666.146 -0.280873 0.697578 0
M  V30 7407 H 668.117 -0.276459 2.97117 0
M  V30 7408 C 666.866 -2.04503 2.81201 0
M  V30 7409 H 666.189 -1.71296 3.61245 0
M  V30 7410 H 667.629 -2.69493 3.27337 0
M  V30 7411 C 666.088 -2.85079 1.79532 0
M  V30 7412 O 666.618 -3.81306 1.26368 0
M  V30 7413 N 664.824 -2.49546 1.48913 0
M  V30 7414 H 664.371 -1.71359 1.92338 0
M  V30 7415 H 664.329 -3.03751 0.811348 0
M  V30 7416 N 668.101 -1.57061 -0.130224 0
M  V30 7417 C 669.031 -2.02552 -1.16168 0
M  V30 7418 C 670.012 -0.907971 -1.4384 0
M  V30 7419 O 671.197 -1.17693 -1.54473 0
M  V30 7420 C 668.327 -2.42035 -2.49071 0
M  V30 7421 C 667.281 -3.5713 -2.35886 0
M  V30 7422 C 666.607 -3.82478 -3.7365 0
M  V30 7423 C 667.907 -4.89236 -1.8288 0
M  V30 7424 H 669.601 -2.8897 -0.783359 0
M  V30 7425 H 667.147 -1.39021 -0.375376 0
M  V30 7426 H 669.1 -2.72462 -3.21469 0
M  V30 7427 H 667.824 -1.52573 -2.88771 0
M  V30 7428 H 666.483 -3.26895 -1.65938 0
M  V30 7429 H 666.131 -2.9024 -4.10816 0
M  V30 7430 H 665.831 -4.59944 -3.65685 0
M  V30 7431 H 667.355 -4.15347 -4.47571 0
M  V30 7432 H 668.769 -5.18272 -2.45085 0
M  V30 7433 H 667.166 -5.70624 -1.85763 0
M  V30 7434 H 668.236 -4.78494 -0.785571 0
M  V30 7435 N 669.579 0.400081 -1.52437 0
M  V30 7436 C 670.809 1.16598 -1.70553 0
M  V30 7437 C 671.217 1.8451 -0.418665 0
M  V30 7438 O 670.56 1.73069 0.615855 0
M  V30 7439 C 670.622 2.26517 -2.7916 0
M  V30 7440 C 670.286 1.78666 -4.20628 0
M  V30 7441 C 671.283 1.26946 -5.04163 0
M  V30 7442 C 668.968 1.85225 -4.66902 0
M  V30 7443 C 670.962 0.824187 -6.32049 0
M  V30 7444 C 668.649 1.40309 -5.94774 0
M  V30 7445 C 669.647 0.889922 -6.77178 0
M  V30 7446 O 669.335 0.447281 -8.02655 0
M  V30 7447 H 669.067 0.356023 -0.574651 0
M  V30 7448 H 671.621 0.475598 -1.99818 0
M  V30 7449 H 669.851 2.98946 -2.45292 0
M  V30 7450 H 671.54 2.88237 -2.85787 0
M  V30 7451 H 672.306 1.21244 -4.69601 0
M  V30 7452 H 668.185 2.24111 -4.02859 0
M  V30 7453 H 671.729 0.422958 -6.96317 0
M  V30 7454 H 667.626 1.45693 -6.28843 0
M  V30 7455 H 668.394 0.569768 -8.16514 0
M  V30 7456 N 671.057 1.43213 0.657864 0
M  V30 7457 C 672.004 1.48011 1.77092 0
M  V30 7458 C 672.974 0.330291 1.62783 0
M  V30 7459 O 674.159 0.536787 1.83094 0
M  V30 7460 C 671.299 1.40461 3.15222 0
M  V30 7461 C 670.412 2.65612 3.40697 0
M  V30 7462 C 669.547 2.50083 4.68649 0
M  V30 7463 C 668.586 3.70525 4.87214 0
M  V30 7464 N 667.723 3.53835 6.0642 0
M  V30 7465 H 672.563 2.43121 1.72326 0
M  V30 7466 H 670.1 1.20687 0.841013 0
M  V30 7467 H 672.058 1.34079 3.95068 0
M  V30 7468 H 670.688 0.489359 3.19069 0
M  V30 7469 H 669.74 2.82292 2.54982 0
M  V30 7470 H 671.052 3.5509 3.50303 0
M  V30 7471 H 670.206 2.41383 5.56614 0
M  V30 7472 H 668.945 1.58121 4.61356 0
M  V30 7473 H 667.95 3.79639 3.97686 0
M  V30 7474 H 669.175 4.63489 4.96341 0
M  V30 7475 H 667.121 2.64604 6.00267 0
M  V30 7476 H 667.038 4.36912 6.16963 0
M  V30 7477 H 668.306 3.48978 6.97019 0
M  V30 7478 N 672.536 -0.895792 1.29666 0
M  V30 7479 C 673.484 -2.02173 1.15017 0
M  V30 7480 C 674.478 -1.69276 0.0647651 0
M  V30 7481 O 675.684 -1.7859 0.224846 0
M  V30 7482 H 672.059 -0.662719 0.355397 0
M  V30 7483 H 674.03 -2.11666 2.10334 0
M  V30 7484 C 672.779 -3.37212 0.847555 0
M  V30 7485 H 672.102 -3.6303 1.67479 0
M  V30 7486 H 673.542 -4.16668 0.785106 0
M  V30 7487 C 672.001 -3.33891 -0.44929 0
M  V30 7488 O 672.531 -3.73673 -1.47415 0
M  V30 7489 N 670.737 -2.86991 -0.456547 0
M  V30 7490 H 670.284 -2.54813 0.377925 0
M  V30 7491 H 670.242 -2.85152 -1.32423 0
M  V30 7492 N 674.014 -1.12206 -1.10668 0
M  V30 7493 C 674.947 -0.731468 -2.16159 0
M  V30 7494 C 675.925 0.276216 -1.60237 0
M  V30 7495 O 677.109 0.17074 -1.87725 0
M  V30 7496 C 674.236 -0.0822882 -3.386 0
M  V30 7497 C 673.282 -1.05641 -4.1321 0
M  V30 7498 S 674.115 -2.58281 -4.69096 0
M  V30 7499 C 675.271 -1.94686 -5.94851 0
M  V30 7500 H 675.504 -1.62504 -2.48957 0
M  V30 7501 H 673.037 -0.940906 -1.22419 0
M  V30 7502 H 674.995 0.285896 -4.09503 0
M  V30 7503 H 673.656 0.788358 -3.04046 0
M  V30 7504 H 672.849 -0.549764 -5.00993 0
M  V30 7505 H 672.451 -1.36741 -3.48106 0
M  V30 7506 H 674.743 -1.28815 -6.65141 0
M  V30 7507 H 675.686 -2.80499 -6.50174 0
M  V30 7508 H 676.094 -1.40369 -5.46769 0
M  V30 7509 N 675.492 1.28418 -0.913599 0
M  V30 7510 C 676.908 1.47411 -0.611728 0
M  V30 7511 C 677.108 1.83018 0.843008 0
M  V30 7512 O 676.164 1.93505 1.6221 0
M  V30 7513 C 677.477 2.57703 -1.5495 0
M  V30 7514 C 679.025 2.71572 -1.5562 0
M  V30 7515 C 679.5 3.85008 -2.48058 0
M  V30 7516 N 680.991 3.92361 -2.46184 0
M  V30 7517 C 681.726 4.79516 -3.14407 0
M  V30 7518 N 681.222 5.71262 -3.91958 0
M  V30 7519 N 683.015 4.73125 -3.03495 0
M  V30 7520 H 675.166 1.03585 -1.85429 0
M  V30 7521 H 677.429 0.515907 -0.795326 0
M  V30 7522 H 677.135 2.38298 -2.58663 0
M  V30 7523 H 677.009 3.54801 -1.28048 0
M  V30 7524 H 679.396 2.90366 -0.526441 0
M  V30 7525 H 679.477 1.75006 -1.86565 0
M  V30 7526 H 679.121 3.66969 -3.51136 0
M  V30 7527 H 679.051 4.80971 -2.14416 0
M  V30 7528 H 681.542 3.26749 -1.89851 0
M  V30 7529 H 681.855 6.34593 -4.41034 0
M  V30 7530 H 680.2 5.71103 -3.96063 0
M  V30 7531 H 683.391 4.00442 -2.42413 0
M  V30 7532 H 683.564 5.40834 -3.56935 0
M  V30 7533 N 676.97 0.677563 1.42291 0
M  V30 7534 C 677.88 0.000962654 2.346 0
M  V30 7535 C 678.896 -0.785833 1.55244 0
M  V30 7536 O 680.072 -0.727523 1.87801 0
M  V30 7537 C 677.137 -0.936746 3.33805 0
M  V30 7538 C 676.198 -0.144173 4.29058 0
M  V30 7539 C 675.431 -1.03722 5.23524 0
M  V30 7540 O 675.654 -2.27675 5.22992 0
M  V30 7541 O 674.588 -0.496542 5.99848 0
M  V30 7542 H 678.414 0.761397 2.94001 0
M  V30 7543 H 675.999 0.43781 1.42841 0
M  V30 7544 H 677.881 -1.47497 3.94744 0
M  V30 7545 H 676.556 -1.67698 2.76874 0
M  V30 7546 H 675.463 0.438224 3.71524 0
M  V30 7547 H 676.796 0.55701 4.89038 0
M  V30 7548 N 678.448 -1.51871 0.421078 0
M  V30 7549 C 679.676 -2.06356 -0.14994 0
M  V30 7550 C 680.091 -1.29006 -1.37851 0
M  V30 7551 O 679.448 -0.345139 -1.79207 0
M  V30 7552 C 679.499 -3.58185 -0.488454 0
M  V30 7553 O 679.22 -4.32611 0.691341 0
M  V30 7554 C 680.721 -4.29129 -1.11191 0
M  V30 7555 H 677.941 -0.67083 -0.0151186 0
M  V30 7556 H 680.485 -1.95638 0.595476 0
M  V30 7557 H 678.64 -3.68871 -1.18376 0
M  V30 7558 H 679.054 -5.22927 0.405906 0
M  V30 7559 H 680.528 -5.36501 -1.29889 0
M  V30 7560 H 681.005 -3.86371 -2.0884 0
M  V30 7561 H 681.611 -4.22843 -0.456458 0
M  V30 7562 N 679.926 -0.151884 -1.56866 0
M  V30 7563 C 680.856 0.781943 -2.20018 0
M  V30 7564 C 681.837 1.25347 -1.14987 0
M  V30 7565 O 683.022 1.31015 -1.43348 0
M  V30 7566 C 680.152 2.01928 -2.82564 0
M  V30 7567 C 679.106 1.68434 -3.93464 0
M  V30 7568 C 678.432 2.99472 -4.42968 0
M  V30 7569 C 679.732 0.927244 -5.14003 0
M  V30 7570 H 681.426 0.255607 -2.98307 0
M  V30 7571 H 678.972 0.121502 -1.43486 0
M  V30 7572 H 680.925 2.67741 -3.25411 0
M  V30 7573 H 679.649 2.56943 -2.01614 0
M  V30 7574 H 678.308 1.04998 -3.51242 0
M  V30 7575 H 677.956 3.52488 -3.58834 0
M  V30 7576 H 677.656 2.77823 -5.17772 0
M  V30 7577 H 679.18 3.66348 -4.88489 0
M  V30 7578 H 680.594 1.48756 -5.53665 0
M  V30 7579 H 678.991 0.810513 -5.94601 0
M  V30 7580 H 680.061 -0.0801163 -4.84834 0
M  V30 7581 N 681.404 1.57128 0.121893 0
M  V30 7582 C 682.65 1.84974 0.831418 0
M  V30 7583 C 682.983 0.737204 1.79663 0
M  V30 7584 O 682.258 -0.257199 1.92792 0
M  V30 7585 C 682.541 3.23397 1.58386 0
M  V30 7586 C 682.394 4.45246 0.638445 0
M  V30 7587 C 683.713 3.59355 2.54071 0
M  V30 7588 H 680.832 0.67282 0.300803 0
M  V30 7589 H 683.474 1.89759 0.0957587 0
M  V30 7590 H 681.624 3.19449 2.21098 0
M  V30 7591 H 683.296 4.61295 0.0203925 0
M  V30 7592 H 681.539 4.33771 -0.05023 0
M  V30 7593 H 682.21 5.38765 1.20151 0
M  V30 7594 H 684.686 3.64075 2.01465 0
M  V30 7595 H 683.562 4.57193 3.03752 0
M  V30 7596 H 683.823 2.86622 3.36601 0
M  V30 7597 N 682.882 -0.391992 1.52647 0
M  V30 7598 C 684.112 -1.15692 1.71169 0
M  V30 7599 C 684.52 -1.84285 0.428444 0
M  V30 7600 O 683.863 -1.73393 -0.606669 0
M  V30 7601 C 683.925 -2.25033 2.80357 0
M  V30 7602 C 683.589 -1.76433 4.21569 0
M  V30 7603 C 684.586 -1.2427 5.0483 0
M  V30 7604 C 682.271 -1.82746 4.67877 0
M  V30 7605 C 684.265 -0.790657 6.32477 0
M  V30 7606 C 681.952 -1.37153 5.9551 0
M  V30 7607 C 682.95 -0.853997 6.7764 0
M  V30 7608 O 682.638 -0.404708 8.02881 0
M  V30 7609 H 682.37 -0.35297 0.576531 0
M  V30 7610 H 684.924 -0.464994 2.00067 0
M  V30 7611 H 683.154 -2.97641 2.46874 0
M  V30 7612 H 684.843 -2.86718 2.87311 0
M  V30 7613 H 685.609 -1.18752 4.70237 0
M  V30 7614 H 681.488 -2.21971 4.04042 0
M  V30 7615 H 685.032 -0.386024 6.96531 0
M  V30 7616 H 680.929 -1.42356 6.29607 0
M  V30 7617 H 681.697 -0.526459 8.16805 0
M  V30 7618 N 684.36 -1.4356 -0.65026 0
M  V30 7619 C 685.29 -1.51758 -1.77459 0
M  V30 7620 C 686.271 -0.372019 -1.65982 0
M  V30 7621 O 687.456 -0.589627 -1.85033 0
M  V30 7622 C 684.586 -1.44302 -3.15902 0
M  V30 7623 C 683.54 -2.57138 -3.42146 0
M  V30 7624 C 682.866 -2.34735 -4.8042 0
M  V30 7625 C 684.166 -3.99373 -3.36598 0
M  V30 7626 H 685.86 -2.45863 -1.70855 0
M  V30 7627 H 683.406 -1.18333 -0.820566 0
M  V30 7628 H 685.359 -1.48641 -3.94314 0
M  V30 7629 H 684.083 -0.467026 -3.23244 0
M  V30 7630 H 682.742 -2.52157 -2.66106 0
M  V30 7631 H 682.39 -1.35372 -4.84441 0
M  V30 7632 H 682.09 -3.10375 -4.9894 0
M  V30 7633 H 683.614 -2.40862 -5.61086 0
M  V30 7634 H 685.028 -4.05826 -4.04942 0
M  V30 7635 H 683.425 -4.75063 -3.66654 0
M  V30 7636 H 684.495 -4.243 -2.34729 0
M  V30 7637 N 685.838 0.888903 -1.30139 0
M  V30 7638 C 687.066 1.67358 -1.21651 0
M  V30 7639 C 687.481 1.87499 0.221246 0
M  V30 7640 O 686.838 1.41969 1.14677 0
M  V30 7641 C 686.889 3.05213 -1.93719 0
M  V30 7642 O 686.61 2.85984 -3.31881 0
M  V30 7643 C 688.111 3.9964 -1.9184 0
M  V30 7644 H 685.331 0.522365 -0.42116 0
M  V30 7645 H 687.875 1.11086 -1.71698 0
M  V30 7646 H 686.03 3.5823 -1.4748 0
M  V30 7647 H 686.444 3.73411 -3.68327 0
M  V30 7648 H 687.918 4.93749 -2.46811 0
M  V30 7649 H 688.395 4.29955 -0.896409 0
M  V30 7650 H 689.001 3.52558 -2.37872 0
M  V30 7651 N 687.317 1.12792 1.10072 0
M  V30 7652 C 688.267 0.768086 2.14673 0
M  V30 7653 C 689.251 -0.234716 1.59179 0
M  V30 7654 O 690.443 -0.039643 1.76956 0
M  V30 7655 C 687.572 0.228472 3.42539 0
M  V30 7656 C 686.658 1.25979 4.04957 0
M  V30 7657 N 687.049 2.4586 4.42025 0
M  V30 7658 C 685.347 1.10602 4.32069 0
M  V30 7659 C 686.048 3.11747 4.9111 0
M  V30 7660 N 685.024 2.39185 4.88151 0
M  V30 7661 H 688.826 1.68029 2.4113 0
M  V30 7662 H 686.34 1.00925 1.27232 0
M  V30 7663 H 688.337 -0.0475216 4.16873 0
M  V30 7664 H 686.997 -0.678136 3.1754 0
M  V30 7665 H 688.008 2.83215 4.33601 0
M  V30 7666 H 684.685 0.257021 4.16708 0
M  V30 7667 H 686.075 4.13862 5.29309 0
M  V30 7668 N 688.795 -1.27931 0.920396 0
M  V30 7669 C 689.725 -2.29487 0.431024 0
M  V30 7670 C 690.706 -1.62435 -0.504861 0
M  V30 7671 O 691.891 -1.89797 -0.411176 0
M  V30 7672 C 689.021 -3.45788 -0.323709 0
M  V30 7673 C 687.975 -4.24784 0.523658 0
M  V30 7674 C 687.301 -5.33488 -0.359809 0
M  V30 7675 C 688.601 -4.90874 1.78437 0
M  V30 7676 H 690.295 -2.70671 1.27975 0
M  V30 7677 H 687.841 -1.30121 0.616813 0
M  V30 7678 H 689.794 -4.15927 -0.676952 0
M  V30 7679 H 688.518 -3.03502 -1.2064 0
M  V30 7680 H 687.177 -3.56382 0.85951 0
M  V30 7681 H 686.825 -4.87445 -1.24124 0
M  V30 7682 H 686.525 -5.87247 0.203605 0
M  V30 7683 H 688.049 -6.06472 -0.708787 0
M  V30 7684 H 689.463 -5.53339 1.49963 0
M  V30 7685 H 687.86 -5.54659 2.29071 0
M  V30 7686 H 688.93 -4.14988 2.50824 0
M  V30 7687 N 690.273 -0.685099 -1.4193 0
M  V30 7688 C 691.55 -0.140152 -1.95097 0
M  V30 7689 C 691.93 1.34745 -1.62502 0
M  V30 7690 O 691.278 2.08872 -0.926534 0
M  V30 7691 C 691.488 -0.420268 -3.4646 0
M  V30 7692 C 692.836 -0.342338 -4.23218 0
M  V30 7693 O 693.86 -0.354592 -3.54431 0
M  V30 7694 O 692.719 -0.293404 -5.45712 0
M  V30 7695 H 689.813 -0.00885998 -0.826953 0
M  V30 7696 H 692.359 -0.760539 -1.51703 0
M  V30 7697 H 691.131 -1.45037 -3.63428 0
M  V30 7698 H 690.754 0.231616 -3.96925 0
M  V30 7699 N 691.751 1.51645 -0.429126 0
M  V30 7700 C 692.981 2.06133 0.138793 0
M  V30 7701 C 693.389 1.29735 1.37716 0
M  V30 7702 O 692.732 0.347955 1.80375 0
M  V30 7703 C 692.794 3.55504 0.534493 0
M  V30 7704 C 692.458 4.53098 -0.595917 0
M  V30 7705 C 693.455 4.98815 -1.46558 0
M  V30 7706 C 691.14 4.96296 -0.774309 0
M  V30 7707 C 693.134 5.86394 -2.4984 0
M  V30 7708 C 690.821 5.83667 -1.81042 0
M  V30 7709 C 691.819 6.28613 -2.67086 0
M  V30 7710 O 691.507 7.14251 -3.68919 0
M  V30 7711 H 691.239 0.675833 0.0150263 0
M  V30 7712 H 693.793 1.96301 -0.604584 0
M  V30 7713 H 692.023 3.63092 1.33045 0
M  V30 7714 H 693.712 3.92545 1.03262 0
M  V30 7715 H 694.478 4.66143 -1.33925 0
M  V30 7716 H 690.357 4.60859 -0.114178 0
M  V30 7717 H 693.901 6.21398 -3.17034 0
M  V30 7718 H 689.798 6.15753 -1.93698 0
M  V30 7719 H 690.566 7.3241 -3.65402 0
M  V30 7720 N 693.229 0.160201 1.56784 0
M  V30 7721 C 694.475 -0.48831 1.96833 0
M  V30 7722 C 694.808 -1.63641 1.04571 0
M  V30 7723 O 694.083 -1.94289 0.0906481 0
M  V30 7724 C 694.366 -0.981908 3.46454 0
M  V30 7725 C 694.219 0.165607 4.49495 0
M  V30 7726 C 695.538 -1.85931 3.98896 0
M  V30 7727 H 692.657 -0.176027 0.71567 0
M  V30 7728 H 695.299 0.244093 1.88426 0
M  V30 7729 H 693.449 -1.60602 3.5375 0
M  V30 7730 H 695.121 0.802372 4.54268 0
M  V30 7731 H 693.364 0.822789 4.25926 0
M  V30 7732 H 694.035 -0.221699 5.51555 0
M  V30 7733 H 696.511 -1.33327 3.94161 0
M  V30 7734 H 695.387 -2.17373 5.04024 0
M  V30 7735 H 695.648 -2.80106 3.42042 0
M  V30 7736 N 694.707 -1.5719 -0.113559 0
M  V30 7737 C 695.984 -1.76117 -0.850999 0
M  V30 7738 C 696.364 -0.737085 -1.97814 0
M  V30 7739 O 695.712 0.237942 -2.27258 0
M  V30 7740 C 695.922 -3.21298 -1.36266 0
M  V30 7741 C 697.27 -3.83955 -1.81283 0
M  V30 7742 O 698.294 -3.24934 -1.45933 0
M  V30 7743 O 697.153 -4.87707 -2.46585 0
M  V30 7744 H 694.247 -0.721308 -0.404529 0
M  V30 7745 H 696.793 -1.69423 -0.0968756 0
M  V30 7746 H 695.565 -3.87355 -0.554235 0
M  V30 7747 H 695.188 -3.32552 -2.17933 0
M  V30 7748 N 696.185 0.383891 -1.52853 0
M  V30 7749 C 697.413 1.1495 -1.7203 0
M  V30 7750 C 697.828 1.83578 -0.440957 0
M  V30 7751 O 697.185 1.72872 0.584925 0
M  V30 7752 C 697.236 2.19368 -2.87333 0
M  V30 7753 O 696.957 1.53536 -4.10315 0
M  V30 7754 C 698.458 3.08616 -3.18231 0
M  V30 7755 H 695.678 0.344445 -0.575846 0
M  V30 7756 H 698.222 0.448397 -1.99524 0
M  V30 7757 H 696.377 2.85105 -2.62286 0
M  V30 7758 H 696.791 2.2296 -4.74752 0
M  V30 7759 H 698.265 3.77902 -4.02361 0
M  V30 7760 H 698.742 3.72409 -2.32826 0
M  V30 7761 H 699.348 2.48518 -3.45136 0
M  V30 7762 N 697.663 1.43903 0.642637 0
M  V30 7763 C 698.573 1.52349 1.78401 0
M  V30 7764 C 699.589 0.409869 1.69104 0
M  V30 7765 O 700.765 0.665548 1.90085 0
M  V30 7766 C 697.83 1.45408 3.14734 0
M  V30 7767 C 696.891 2.67528 3.35749 0
M  V30 7768 C 696.124 2.60909 4.65577 0
M  V30 7769 O 696.347 1.6627 5.45628 0
M  V30 7770 O 695.281 3.5158 4.88544 0
M  V30 7771 H 699.107 2.48752 1.7423 0
M  V30 7772 H 696.692 1.26021 0.802439 0
M  V30 7773 H 698.574 1.44019 3.96026 0
M  V30 7774 H 697.249 0.521437 3.19473 0
M  V30 7775 H 696.156 2.74487 2.5418 0
M  V30 7776 H 697.489 3.598 3.35864 0
M  V30 7777 N 699.141 -0.881989 1.30609 0
M  V30 7778 C 700.557 -1.16576 1.09005 0
M  V30 7779 C 700.757 -2.00961 -0.14727 0
M  V30 7780 O 699.813 -2.38117 -0.840036 0
M  V30 7781 C 701.126 -1.86954 2.35518 0
M  V30 7782 C 702.674 -1.99706 2.41011 0
M  V30 7783 C 703.149 -2.73497 3.67374 0
M  V30 7784 N 704.64 -2.8104 3.68199 0
M  V30 7785 C 705.375 -3.38718 4.62664 0
M  V30 7786 N 704.871 -3.97421 5.67475 0
M  V30 7787 N 706.664 -3.36561 4.50203 0
M  V30 7788 H 698.815 -0.319398 2.09985 0
M  V30 7789 H 701.078 -0.204058 0.925778 0
M  V30 7790 H 700.784 -1.32393 3.2583 0
M  V30 7791 H 700.658 -2.87317 2.44395 0
M  V30 7792 H 703.045 -2.53436 1.51176 0
M  V30 7793 H 703.126 -0.984218 2.36108 0
M  V30 7794 H 702.77 -2.20438 4.57569 0
M  V30 7795 H 702.7 -3.75163 3.6954 0
M  V30 7796 H 705.191 -2.39365 2.92426 0
M  V30 7797 H 705.504 -4.39507 6.35652 0
M  V30 7798 H 703.849 -3.95832 5.71264 0
M  V30 7799 H 707.04 -2.8993 3.67503 0
M  V30 7800 H 707.213 -3.81215 5.24003 0
M  V30 7801 N 700.619 -1.13374 -1.09472 0
M  V30 7802 C 701.868 -0.889844 -1.8101 0
M  V30 7803 C 702.181 0.585686 -1.86625 0
M  V30 7804 O 703.387 0.946497 -2.54467 0
M  V30 7805 C 701.843 -1.54241 -3.25174 0
M  V30 7806 C 701.451 -3.05343 -3.27826 0
M  V30 7807 C 703.195 -1.37919 -4.0147 0
M  V30 7808 C 701.102 -3.63486 -4.6651 0
M  V30 7809 H 700.032 -0.329256 -0.678311 0
M  V30 7810 H 702.683 -1.36139 -1.23038 0
M  V30 7811 H 701.065 -0.998525 -3.83204 0
M  V30 7812 H 702.239 -3.66307 -2.79563 0
M  V30 7813 H 700.554 -3.21175 -2.65019 0
M  V30 7814 H 703.151 -1.78771 -5.03929 0
M  V30 7815 H 703.494 -0.323987 -4.15037 0
M  V30 7816 H 704.027 -1.89284 -3.49881 0
M  V30 7817 H 700.766 -4.68811 -4.58145 0
M  V30 7818 H 700.286 -3.073 -5.15099 0
M  V30 7819 H 701.965 -3.63134 -5.35484 0
M  V30 7820 N 702.098 1.27442 -0.927168 0
M  V30 7821 C 703.031 2.25177 -0.370232 0
M  V30 7822 C 704.009 1.53612 0.533103 0
M  V30 7823 O 705.193 1.8245 0.47373 0
M  V30 7824 C 702.32 3.35431 0.469411 0
M  V30 7825 C 701.366 4.24888 -0.370419 0
M  V30 7826 S 702.199 5.04852 -1.78562 0
M  V30 7827 C 703.355 6.18592 -0.953651 0
M  V30 7828 H 703.588 2.72069 -1.19858 0
M  V30 7829 H 701.121 1.36089 -0.729316 0
M  V30 7830 H 703.079 3.99404 0.947992 0
M  V30 7831 H 701.74 2.87179 1.27228 0
M  V30 7832 H 700.933 5.03264 0.272226 0
M  V30 7833 H 700.535 3.65709 -0.783153 0
M  V30 7834 H 702.827 6.77235 -0.189408 0
M  V30 7835 H 703.77 6.87132 -1.7104 0
M  V30 7836 H 704.178 5.62318 -0.495897 0
M  V30 7837 N 703.576 0.692616 1.41565 0
M  V30 7838 C 704.804 0.231279 2.05603 0
M  V30 7839 C 705.219 -1.11837 1.52111 0
M  V30 7840 O 704.576 -1.6983 0.66813 0
M  V30 7841 C 704.627 0.177125 3.61066 0
M  V30 7842 O 704.348 1.47346 4.12578 0
M  V30 7843 C 705.849 -0.30556 4.42246 0
M  V30 7844 H 703.069 0.108238 0.662213 0
M  V30 7845 H 705.613 0.944369 1.81389 0
M  V30 7846 H 703.768 -0.486769 3.8433 0
M  V30 7847 H 704.182 1.35861 5.06599 0
M  V30 7848 H 705.656 -0.29233 5.51225 0
M  V30 7849 H 706.133 -1.34393 4.18133 0
M  V30 7850 H 706.739 0.327229 4.24039 0
M  V30 7851 N 705.054 -1.51416 0.437162 0
M  V30 7852 C 705.964 -2.31493 -0.380537 0
M  V30 7853 C 706.98 -1.40399 -1.02782 0
M  V30 7854 O 708.156 -1.73471 -1.02323 0
M  V30 7855 C 705.221 -3.1413 -1.46709 0
M  V30 7856 C 704.282 -4.21003 -0.839953 0
M  V30 7857 C 703.515 -4.9969 -1.87473 0
M  V30 7858 O 703.738 -4.79008 -3.09689 0
M  V30 7859 O 702.672 -5.8379 -1.46536 0
M  V30 7860 H 706.498 -3.02469 0.273183 0
M  V30 7861 H 704.083 -1.48059 0.199706 0
M  V30 7862 H 705.965 -3.65505 -2.09724 0
M  V30 7863 H 704.64 -2.45919 -2.10489 0
M  V30 7864 H 703.547 -3.73706 -0.171752 0
M  V30 7865 H 704.88 -4.91587 -0.245638 0
M  V30 7866 N 706.532 -0.168513 -1.56696 0
M  V30 7867 C 707.479 0.762875 -2.17828 0
M  V30 7868 C 708.449 1.22892 -1.11745 0
M  V30 7869 O 709.634 1.29759 -1.39883 0
M  V30 7870 C 706.774 1.9879 -2.82093 0
M  V30 7871 C 705.887 1.56568 -4.02629 0
M  V30 7872 C 705.022 2.74416 -4.54829 0
M  V30 7873 C 704.061 2.28671 -5.67782 0
M  V30 7874 N 703.198 3.39602 -6.14504 0
M  V30 7875 H 708.038 0.23479 -2.97074 0
M  V30 7876 H 705.575 0.104163 -1.46731 0
M  V30 7877 H 707.533 2.70636 -3.17509 0
M  V30 7878 H 706.163 2.48973 -2.05456 0
M  V30 7879 H 705.215 0.744067 -3.73052 0
M  V30 7880 H 706.527 1.18988 -4.844 0
M  V30 7881 H 705.681 3.54423 -4.92412 0
M  V30 7882 H 704.42 3.15254 -3.7211 0
M  V30 7883 H 703.425 1.4711 -5.29753 0
M  V30 7884 H 704.65 1.88894 -6.52301 0
M  V30 7885 H 702.596 3.80021 -5.34715 0
M  V30 7886 H 702.513 3.06105 -6.91257 0
M  V30 7887 H 703.781 4.19902 -6.56737 0
M  V30 7888 N 708.01 1.57248 0.105221 0
M  V30 7889 C 708.94 2.04374 1.12931 0
M  V30 7890 C 709.921 0.93074 1.42377 0
M  V30 7891 O 711.106 1.20136 1.52581 0
M  V30 7892 C 708.236 2.45967 2.45189 0
M  V30 7893 C 707.19 3.60838 2.30174 0
M  V30 7894 C 706.516 3.88374 3.67518 0
M  V30 7895 C 707.816 4.92084 1.75073 0
M  V30 7896 H 709.51 2.9018 0.737287 0
M  V30 7897 H 707.056 1.39601 0.353211 0
M  V30 7898 H 709.009 2.77542 3.17094 0
M  V30 7899 H 707.733 1.57148 2.86308 0
M  V30 7900 H 706.392 3.29493 1.60716 0
M  V30 7901 H 706.04 2.96739 4.06147 0
M  V30 7902 H 705.74 4.65703 3.58321 0
M  V30 7903 H 707.264 4.22415 4.40906 0
M  V30 7904 H 708.678 5.22106 2.36809 0
M  V30 7905 H 707.075 5.73507 1.76662 0
M  V30 7906 H 708.145 4.79684 0.709347 0
M  V30 7907 N 709.488 -0.375779 1.53054 0
M  V30 7908 C 710.438 -1.45965 1.75152 0
M  V30 7909 C 711.422 -1.49059 0.605823 0
M  V30 7910 O 712.614 -1.54472 0.864133 0
M  V30 7911 C 709.743 -2.83524 1.93569 0
M  V30 7912 C 708.829 -2.84949 3.1411 0
M  V30 7913 N 709.22 -2.56029 4.36214 0
M  V30 7914 C 707.518 -3.16113 3.14625 0
M  V30 7915 C 708.219 -2.64873 5.17897 0
M  V30 7916 N 707.195 -2.99159 4.53878 0
M  V30 7917 H 710.997 -1.22454 2.67175 0
M  V30 7918 H 708.511 -0.583867 1.51541 0
M  V30 7919 H 710.508 -3.61578 2.07525 0
M  V30 7920 H 709.168 -3.08008 1.02768 0
M  V30 7921 H 710.179 -2.29808 4.64121 0
M  V30 7922 H 706.856 -3.45977 2.3368 0
M  V30 7923 H 708.246 -2.45947 6.25268 0
M  V30 7924 N 710.966 -1.44241 -0.634997 0
M  V30 7925 C 711.914 -1.51103 -1.76835 0
M  V30 7926 C 712.908 -0.383051 -1.65012 0
M  V30 7927 O 714.114 -0.557832 -1.71138 0
M  V30 7928 H 710.489 -0.474076 -0.583743 0
M  V30 7929 H 712.46 -2.46499 -1.68169 0
M  V30 7930 C 711.209 -1.4687 -3.15158 0
M  V30 7931 H 710.532 -2.32979 -3.24901 0
M  V30 7932 H 711.972 -1.55731 -3.94365 0
M  V30 7933 C 710.431 -0.188884 -3.3637 0
M  V30 7934 O 710.961 0.742487 -3.94778 0
M  V30 7935 N 709.167 -0.0932516 -2.9045 0
M  V30 7936 H 708.714 -0.852004 -2.43102 0
M  V30 7937 H 708.672 0.762308 -3.05018 0
M  V30 7938 N 712.444 0.87505 -1.31075 0
M  V30 7939 C 713.376 1.98773 -1.14114 0
M  V30 7940 C 714.389 1.62595 -0.0816119 0
M  V30 7941 O 715.578 1.75449 -0.32861 0
M  V30 7942 C 712.678 3.31159 -0.720224 0
M  V30 7943 C 711.851 3.9571 -1.86366 0
M  V30 7944 C 710.91 5.06407 -1.42965 0
M  V30 7945 O 709.936 5.27501 -2.13848 0
M  V30 7946 N 711.138 5.79649 -0.314194 0
M  V30 7947 H 713.903 2.1387 -2.09951 0
M  V30 7948 H 711.464 1.04873 -1.23342 0
M  V30 7949 H 713.456 4.0259 -0.412687 0
M  V30 7950 H 712.026 3.12257 0.146396 0
M  V30 7951 H 711.246 3.17324 -2.33879 0
M  V30 7952 H 712.534 4.35576 -2.62966 0
M  V30 7953 H 711.932 5.65025 0.276228 0
M  V30 7954 H 710.489 6.51766 -0.0661641 0
M  V30 7955 N 713.922 1.13953 1.08869 0
M  V30 7956 C 715.168 0.906151 1.8143 0
M  V30 7957 C 715.501 -0.566089 1.85766 0
M  V30 7958 O 714.776 -1.41915 1.33006 0
M  V30 7959 C 715.059 1.50183 3.27287 0
M  V30 7960 C 714.912 3.04359 3.31189 0
M  V30 7961 C 716.231 1.17477 4.24131 0
M  V30 7962 H 713.35 0.330624 0.658678 0
M  V30 7963 H 715.992 1.40873 1.27495 0
M  V30 7964 H 714.142 1.07442 3.73348 0
M  V30 7965 H 715.814 3.55896 2.93488 0
M  V30 7966 H 714.057 3.39053 2.70602 0
M  V30 7967 H 714.728 3.41141 4.33966 0
M  V30 7968 H 717.204 1.5442 3.86385 0
M  V30 7969 H 716.08 1.61795 5.24513 0
M  V30 7970 H 716.341 0.0893312 4.4201 0
M  V30 7971 N 715.4 -1.26948 0.933913 0
M  V30 7972 C 716.348 -2.2862 0.428463 0
M  V30 7973 C 717.342 -1.62144 -0.490464 0
M  V30 7974 O 718.548 -1.76167 -0.36948 0
M  V30 7975 H 714.923 -0.742363 0.120003 0
M  V30 7976 H 716.894 -2.68659 1.29865 0
M  V30 7977 C 715.643 -3.46423 -0.29774 0
M  V30 7978 H 714.966 -3.97792 0.400183 0
M  V30 7979 H 716.406 -4.19505 -0.615736 0
M  V30 7980 C 714.865 -3.01017 -1.51295 0
M  V30 7981 O 715.395 -3.05226 -2.61151 0
M  V30 7982 N 713.601 -2.56442 -1.36696 0
M  V30 7983 H 713.148 -2.53217 -0.473178 0
M  V30 7984 H 713.106 -2.26424 -2.18127 0
M  V30 7985 N 716.879 -0.700114 -1.41195 0
M  V30 7986 C 718.127 -0.232546 -2.00758 0
M  V30 7987 C 718.448 1.1734 -1.55745 0
M  V30 7988 O 717.718 1.79262 -0.790058 0
M  V30 7989 H 716.298 -0.0829845 -0.742376 0
M  V30 7990 H 718.96 -0.902289 -1.72756 0
M  V30 7991 H 718.056 -0.253521 -3.11069 0
M  V30 7992 N 718.357 1.51182 -0.445186 0
M  V30 7993 C 719.585 2.06568 0.117091 0
M  V30 7994 C 720 1.31182 1.35781 0
M  V30 7995 O 719.357 0.373605 1.78635 0
M  V30 7996 C 719.408 3.58917 0.431408 0
M  V30 7997 O 719.129 4.31456 -0.760078 0
M  V30 7998 C 720.63 4.30843 1.0435 0
M  V30 7999 H 717.85 0.670985 0.00444436 0
M  V30 8000 H 720.394 1.94666 -0.626525 0
M  V30 8001 H 718.549 3.70708 1.12493 0
M  V30 8002 H 718.963 5.22215 -0.489048 0
M  V30 8003 H 720.437 5.38499 1.21337 0
M  V30 8004 H 720.914 3.89644 2.02667 0
M  V30 8005 H 721.52 4.23516 0.38913 0
M  V30 8006 N 719.835 0.176821 1.56605 0
M  V30 8007 C 720.745 -0.763682 2.21822 0
M  V30 8008 C 721.761 -1.24889 1.21156 0
M  V30 8009 O 722.937 -1.29987 1.53836 0
M  V30 8010 C 720.002 -1.97352 2.8505 0
M  V30 8011 C 719.063 -1.53466 4.00932 0
M  V30 8012 C 718.296 -2.68682 4.61135 0
M  V30 8013 O 718.519 -3.85694 4.20234 0
M  V30 8014 O 717.453 -2.42442 5.50913 0
M  V30 8015 H 721.279 -0.238363 3.02763 0
M  V30 8016 H 718.864 -0.0516331 1.49311 0
M  V30 8017 H 720.746 -2.68096 3.25119 0
M  V30 8018 H 719.421 -2.48779 2.07101 0
M  V30 8019 H 718.328 -0.796551 3.65521 0
M  V30 8020 H 719.661 -1.06724 4.8049 0
M  V30 8021 N 721.313 -1.57302 -0.09688 0
M  V30 8022 C 722.559 -1.87144 -0.796778 0
M  V30 8023 C 722.914 -0.767428 -1.76432 0
M  V30 8024 O 722.207 0.230728 -1.90206 0
M  V30 8025 C 722.401 -3.21272 -1.56586 0
M  V30 8026 C 722.23 -4.44616 -0.674295 0
M  V30 8027 C 721 -5.04281 -0.320705 0
M  V30 8028 C 723.198 -5.14297 0.0179445 0
M  V30 8029 N 721.18 -6.11162 0.579206 0
M  V30 8030 C 722.551 -6.15125 0.775992 0
M  V30 8031 C 724.606 -4.97815 0.0920521 0
M  V30 8032 C 723.309 -7.01251 1.60122 0
M  V30 8033 C 725.335 -5.84447 0.904175 0
M  V30 8034 C 724.697 -6.84794 1.65035 0
M  V30 8035 H 720.796 -0.734721 -0.267787 0
M  V30 8036 H 723.38 -1.94609 -0.0593955 0
M  V30 8037 H 721.551 -3.14862 -2.27413 0
M  V30 8038 H 723.283 -3.38846 -2.21281 0
M  V30 8039 H 720.038 -4.68866 -0.667961 0
M  V30 8040 H 720.462 -6.69247 1.02166 0
M  V30 8041 H 725.104 -4.20174 -0.470492 0
M  V30 8042 H 722.822 -7.78284 2.17484 0
M  V30 8043 H 726.408 -5.73755 0.964165 0
M  V30 8044 H 725.288 -7.50668 2.26864 0
M  V30 8045 N 722.791 0.367657 -1.53252 0
M  V30 8046 C 724.016 1.13566 -1.73544 0
M  V30 8047 C 724.441 1.82329 -0.462344 0
M  V30 8048 O 723.799 1.71655 0.583472 0
M  V30 8049 C 723.847 2.14322 -2.89997 0
M  V30 8050 O 722.951 3.21359 -2.58461 0
M  V30 8051 H 722.292 0.329614 -0.576412 0
M  V30 8052 H 724.822 0.425417 -2.00128 0
M  V30 8053 H 724.832 2.57958 -3.16104 0
M  V30 8054 H 723.507 1.63664 -3.82344 0
M  V30 8055 H 722.084 2.8271 -2.43165 0
M  V30 8056 N 724.269 1.44576 0.627338 0
M  V30 8057 C 725.515 1.4877 1.38705 0
M  V30 8058 C 725.87 0.119976 1.92026 0
M  V30 8059 O 725.163 -0.865341 1.70946 0
M  V30 8060 C 725.357 2.48644 2.56731 0
M  V30 8061 C 725.186 3.94994 2.14965 0
M  V30 8062 C 723.956 4.63139 2.02065 0
M  V30 8063 C 726.154 4.841 1.73643 0
M  V30 8064 N 724.136 5.94296 1.53902 0
M  V30 8065 C 725.507 6.0473 1.36753 0
M  V30 8066 C 727.562 4.71131 1.61058 0
M  V30 8067 C 726.265 7.13831 0.885353 0
M  V30 8068 C 728.291 5.8026 1.14244 0
M  V30 8069 C 727.653 7.00034 0.783067 0
M  V30 8070 H 723.752 0.599415 0.50222 0
M  V30 8071 H 726.336 1.80926 0.719285 0
M  V30 8072 H 724.507 2.18472 3.2113 0
M  V30 8073 H 726.239 2.4311 3.23542 0
M  V30 8074 H 722.994 4.18007 2.22637 0
M  V30 8075 H 723.418 6.63985 1.32108 0
M  V30 8076 H 728.06 3.78964 1.87473 0
M  V30 8077 H 725.778 8.05804 0.608716 0
M  V30 8078 H 729.364 5.72254 1.0496 0
M  V30 8079 H 728.244 7.8304 0.426381 0
M  V30 8080 N 725.747 -0.868086 1.31537 0
M  V30 8081 C 726.694 -1.97548 1.19346 0
M  V30 8082 C 727.664 -1.65913 0.0787922 0
M  V30 8083 O 728.849 -1.89129 0.251985 0
M  V30 8084 C 725.989 -3.32922 0.908692 0
M  V30 8085 C 725.102 -3.77141 2.10687 0
M  V30 8086 C 724.237 -5.01241 1.75873 0
M  V30 8087 C 723.276 -5.37914 2.92088 0
M  V30 8088 N 722.413 -6.53192 2.57457 0
M  V30 8089 H 727.253 -2.07307 2.14074 0
M  V30 8090 H 724.79 -1.01483 1.06487 0
M  V30 8091 H 726.748 -4.10867 0.724138 0
M  V30 8092 H 725.378 -3.228 -0.0017611 0
M  V30 8093 H 724.43 -2.94961 2.40213 0
M  V30 8094 H 725.742 -4.00248 2.97663 0
M  V30 8095 H 724.896 -5.86858 1.53891 0
M  V30 8096 H 723.635 -4.80041 0.86091 0
M  V30 8097 H 722.64 -4.50814 3.14717 0
M  V30 8098 H 723.865 -5.61077 3.82582 0
M  V30 8099 H 721.811 -6.33536 1.702 0
M  V30 8100 H 721.728 -6.76252 3.37963 0
M  V30 8101 H 722.996 -7.41997 2.38873 0
M  V30 8102 N 727.225 -1.14528 -1.08264 0
M  V30 8103 C 728.173 -0.829201 -2.17318 0
M  V30 8104 C 729.167 0.193521 -1.68291 0
M  V30 8105 O 730.373 0.0494744 -1.79932 0
M  V30 8106 H 726.748 -0.250435 -0.709074 0
M  V30 8107 H 728.719 -1.75683 -2.41201 0
M  V30 8108 C 727.468 -0.324663 -3.46181 0
M  V30 8109 H 726.791 -1.10299 -3.84284 0
M  V30 8110 H 728.231 -0.142059 -4.23762 0
M  V30 8111 C 726.69 0.952033 -3.23169 0
M  V30 8112 O 727.22 2.02549 -3.46896 0
M  V30 8113 N 725.426 0.887854 -2.76705 0
M  V30 8114 H 724.973 0.0141402 -2.57596 0
M  V30 8115 H 724.931 1.74263 -2.61686 0
M  V30 8116 N 728.703 1.26451 -0.940633 0
M  V30 8117 C 729.633 2.28773 -0.467479 0
M  V30 8118 C 730.614 1.63218 0.478955 0
M  V30 8119 O 731.799 1.90427 0.380929 0
M  V30 8120 C 728.929 3.46259 0.268656 0
M  V30 8121 C 727.883 4.23898 -0.591171 0
M  V30 8122 C 727.209 5.33993 0.274891 0
M  V30 8123 C 728.509 4.87974 -1.86223 0
M  V30 8124 H 730.203 2.68601 -1.32265 0
M  V30 8125 H 727.749 1.29123 -0.637436 0
M  V30 8126 H 729.702 4.16951 0.610696 0
M  V30 8127 H 728.426 3.05383 1.15796 0
M  V30 8128 H 727.085 3.54969 -0.916098 0
M  V30 8129 H 726.733 4.89358 1.16353 0
M  V30 8130 H 726.433 5.86849 -0.297006 0
M  V30 8131 H 727.957 6.07523 0.612213 0
M  V30 8132 H 729.371 5.50883 -1.58747 0
M  V30 8133 H 727.768 5.50945 -2.37866 0
M  V30 8134 H 728.838 4.10945 -2.57394 0
M  V30 8135 N 730.181 0.707592 1.40822 0
M  V30 8136 C 731.129 0.0386643 2.32568 0
M  V30 8137 C 732.123 -0.755653 1.51612 0
M  V30 8138 O 733.329 -0.659921 1.67467 0
M  V30 8139 H 729.704 -0.00629912 0.751974 0
M  V30 8140 H 731.675 0.8293 2.86645 0
M  V30 8141 C 730.424 -0.87496 3.36511 0
M  V30 8142 H 729.747 -0.273157 3.98866 0
M  V30 8143 H 731.187 -1.31111 4.03219 0
M  V30 8144 C 729.646 -1.99672 2.71353 0
M  V30 8145 O 730.176 -3.08676 2.57064 0
M  V30 8146 N 728.382 -1.77799 2.29861 0
M  V30 8147 H 727.929 -0.89147 2.41683 0
M  V30 8148 H 727.887 -2.53036 1.86601 0
M  V30 8149 N 731.66 -1.50943 0.453197 0
M  V30 8150 C 732.888 -2.06628 -0.106135 0
M  V30 8151 C 733.303 -1.31901 -1.35084 0
M  V30 8152 O 732.66 -0.383074 -1.78434 0
M  V30 8153 C 732.711 -3.5914 -0.412368 0
M  V30 8154 O 732.432 -4.31047 0.782948 0
M  V30 8155 C 733.933 -4.31391 -1.02064 0
M  V30 8156 H 731.153 -0.670999 -0.000885896 0
M  V30 8157 H 733.697 -1.94331 0.63684 0
M  V30 8158 H 731.852 -3.71299 -1.10526 0
M  V30 8159 H 732.266 -5.21948 0.516736 0
M  V30 8160 H 733.74 -5.39135 -1.1848 0
M  V30 8161 H 734.217 -3.90714 -2.00598 0
M  V30 8162 H 734.823 -4.23716 -0.366664 0
M  V30 8163 N 733.138 -0.185124 -1.56509 0
M  V30 8164 C 734.068 0.735098 -2.21627 0
M  V30 8165 C 735.049 1.2288 -1.1762 0
M  V30 8166 O 736.234 1.27945 -1.46095 0
M  V30 8167 C 733.364 1.95889 -2.86783 0
M  V30 8168 C 732.318 1.6005 -3.96948 0
M  V30 8169 C 731.644 2.90009 -4.4922 0
M  V30 8170 C 732.944 0.818008 -5.15855 0
M  V30 8171 H 734.638 0.192274 -2.98782 0
M  V30 8172 H 732.184 0.0910393 -1.43712 0
M  V30 8173 H 734.137 2.60779 -3.31017 0
M  V30 8174 H 732.861 2.52608 -2.07018 0
M  V30 8175 H 731.52 0.975237 -3.5339 0
M  V30 8176 H 731.168 3.44797 -3.6623 0
M  V30 8177 H 730.868 2.66778 -5.23549 0
M  V30 8178 H 732.392 3.55904 -4.9615 0
M  V30 8179 H 733.806 1.36979 -5.56695 0
M  V30 8180 H 732.203 0.684207 -5.96187 0
M  V30 8181 H 733.273 -0.182939 -4.84555 0
M  V30 8182 N 734.616 1.57351 0.0885366 0
M  V30 8183 C 735.856 1.88248 0.796362 0
M  V30 8184 C 736.22 0.776915 1.75579 0
M  V30 8185 O 737.421 0.968485 2.50747 0
M  V30 8186 C 735.692 3.24385 1.50031 0
M  V30 8187 S 737.251 3.76991 2.24551 0
M  V30 8188 H 734.069 0.659697 0.265181 0
M  V30 8189 H 736.671 1.95428 0.0531843 0
M  V30 8190 H 735.375 4.02764 0.788 0
M  V30 8191 H 734.906 3.20361 2.28325 0
M  V30 8192 H 736.921 3.50933 3.508 0
M  V30 8193 N 736.094 -0.359525 1.53444 0
M  V30 8194 C 737.34 -1.09958 1.71116 0
M  V30 8195 C 737.695 -1.8681 0.460414 0
M  V30 8196 O 736.988 -1.83635 -0.5467 0
M  V30 8197 C 737.182 -2.08287 2.90433 0
M  V30 8198 C 737.011 -1.41098 4.26991 0
M  V30 8199 C 735.781 -1.16255 4.91745 0
M  V30 8200 C 737.979 -0.845517 5.07302 0
M  V30 8201 N 735.961 -0.454798 6.12213 0
M  V30 8202 C 737.332 -0.267455 6.19423 0
M  V30 8203 C 739.387 -0.744797 4.92298 0
M  V30 8204 C 738.09 0.401511 7.18179 0
M  V30 8205 C 740.116 -0.0896013 5.91332 0
M  V30 8206 C 739.478 0.47756 7.02779 0
M  V30 8207 H 735.577 -0.387305 0.679352 0
M  V30 8208 H 738.161 -0.38519 1.90852 0
M  V30 8209 H 736.332 -2.77034 2.72226 0
M  V30 8210 H 738.064 -2.75015 2.96899 0
M  V30 8211 H 734.819 -1.44544 4.51003 0
M  V30 8212 H 735.243 -0.116108 6.769 0
M  V30 8213 H 739.885 -1.16905 4.06317 0
M  V30 8214 H 737.603 0.837694 8.03746 0
M  V30 8215 H 741.189 -0.0125162 5.81799 0
M  V30 8216 H 740.069 0.976522 7.78096 0
M  V30 8217 N 737.572 -1.44907 -0.619662 0
M  V30 8218 C 738.535 -1.52282 -1.71297 0
M  V30 8219 C 739.535 -0.40359 -1.55653 0
M  V30 8220 O 740.725 -0.666638 -1.6094 0
M  V30 8221 C 737.857 -1.40778 -3.10474 0
M  V30 8222 H 739.05 -2.49683 -1.66128 0
M  V30 8223 H 736.603 -1.32168 -0.834339 0
M  V30 8224 H 737.338 -0.445156 -3.2123 0
M  V30 8225 H 737.123 -2.21947 -3.23237 0
M  V30 8226 H 738.613 -1.48946 -3.90135 0
M  V30 8227 N 739.05 0.861098 -1.31996 0
M  V30 8228 C 740.299 1.60965 -1.21545 0
M  V30 8229 C 740.612 1.94325 0.222972 0
M  V30 8230 O 741.818 2.67757 0.449272 0
M  V30 8231 C 740.274 2.90223 -2.12834 0
M  V30 8232 C 739.882 2.64313 -3.61722 0
M  V30 8233 C 741.626 3.68229 -2.11205 0
M  V30 8234 C 739.533 3.89532 -4.44993 0
M  V30 8235 H 738.463 0.603988 -0.451348 0
M  V30 8236 H 741.114 0.951358 -1.56912 0
M  V30 8237 H 739.496 3.57475 -1.70375 0
M  V30 8238 H 740.67 2.05413 -4.12483 0
M  V30 8239 H 738.985 1.99647 -3.65418 0
M  V30 8240 H 741.582 4.61138 -2.70658 0
M  V30 8241 H 741.925 4.01466 -1.1014 0
M  V30 8242 H 742.458 3.07873 -2.51911 0
M  V30 8243 H 739.197 3.61441 -5.46846 0
M  V30 8244 H 738.717 4.47851 -3.98985 0
M  V30 8245 H 740.396 4.57334 -4.57663 0
M  V30 8246 N 740.528 1.15101 1.07655 0
M  V30 8247 C 741.776 0.922149 1.79836 0
M  V30 8248 C 742.097 -0.552346 1.87014 0
M  V30 8249 O 741.367 -1.40145 1.3688 0
M  V30 8250 H 739.947 0.338182 0.666064 0
M  V30 8251 H 742.609 1.45107 1.30115 0
M  V30 8252 H 741.705 1.32883 2.82398 0
M  V30 8253 N 742.006 -1.2595 0.947325 0
M  V30 8254 C 743.231 -1.98083 0.614633 0
M  V30 8255 C 743.656 -1.70013 -0.804815 0
M  V30 8256 O 743.014 -0.95175 -1.54309 0
M  V30 8257 C 743.062 -3.4993 0.870706 0
M  V30 8258 O 742.166 -4.12364 -0.0541451 0
M  V30 8259 H 741.507 -0.621232 0.234451 0
M  V30 8260 H 744.037 -1.60259 1.27193 0
M  V30 8261 H 744.047 -4.00198 0.794051 0
M  V30 8262 H 742.722 -3.69691 1.90529 0
M  V30 8263 H 741.299 -3.72826 0.0740917 0
M  V30 8264 N 743.484 -0.715051 -1.40445 0
M  V30 8265 C 744.733 -0.251322 -2.00128 0
M  V30 8266 C 745.046 1.16194 -1.57347 0
M  V30 8267 O 746.252 1.72416 -2.09726 0
M  V30 8268 C 744.708 -0.398407 -3.57688 0
M  V30 8269 C 744.316 -1.81828 -4.09442 0
M  V30 8270 C 746.06 0.00455625 -4.245 0
M  V30 8271 C 743.967 -1.91598 -5.59503 0
M  V30 8272 H 742.897 -0.0902081 -0.748584 0
M  V30 8273 H 745.548 -0.886062 -1.6069 0
M  V30 8274 H 743.93 0.304908 -3.94824 0
M  V30 8275 H 745.104 -2.55193 -3.83684 0
M  V30 8276 H 743.419 -2.17266 -3.55225 0
M  V30 8277 H 746.016 -0.0477303 -5.34679 0
M  V30 8278 H 746.359 1.04636 -4.02935 0
M  V30 8279 H 746.892 -0.649184 -3.92467 0
M  V30 8280 H 743.631 -2.93898 -5.85922 0
M  V30 8281 H 743.151 -1.22644 -5.87127 0
M  V30 8282 H 744.83 -1.68785 -6.24596 0
M  V30 8283 N 744.962 1.50701 -0.461195 0
M  V30 8284 C 746.187 2.07171 0.0974773 0
M  V30 8285 C 746.612 1.32391 1.3362 0
M  V30 8286 O 745.97 0.368676 1.77512 0
M  V30 8287 C 746.018 3.58651 0.374409 0
M  V30 8288 O 745.122 3.85816 1.4567 0
M  V30 8289 H 744.463 0.663944 -0.00862047 0
M  V30 8290 H 746.993 1.94021 -0.649394 0
M  V30 8291 H 747.003 4.03295 0.617843 0
M  V30 8292 H 745.678 4.12498 -0.530829 0
M  V30 8293 H 744.255 3.53018 1.20136 0
M  V30 8294 N 746.441 0.193421 1.56409 0
M  V30 8295 C 747.689 -0.444908 1.97142 0
M  V30 8296 C 748.01 -1.62268 1.08139 0
M  V30 8297 O 747.28 -1.95307 0.152326 0
M  V30 8298 H 745.86 -0.16736 0.728011 0
M  V30 8299 H 748.522 0.279763 1.92882 0
M  V30 8300 H 747.618 -0.790159 3.01932 0
M  V30 8301 N 747.919 -1.57396 -0.0801906 0
M  V30 8302 C 748.882 -2.02133 -1.0805 0
M  V30 8303 C 749.882 -0.91707 -1.32085 0
M  V30 8304 O 751.072 -1.18217 -1.27947 0
M  V30 8305 C 748.204 -2.39479 -2.42616 0
M  V30 8306 H 749.397 -2.91733 -0.6951 0
M  V30 8307 H 746.95 -1.52869 -0.325677 0
M  V30 8308 H 747.685 -1.52879 -2.86004 0
M  V30 8309 H 747.47 -3.20052 -2.26515 0
M  V30 8310 H 748.96 -2.74697 -3.14534 0
M  V30 8311 N 749.397 0.351382 -1.53633 0
M  V30 8312 C 750.33 1.45407 -1.75875 0
M  V30 8313 C 751.308 1.50822 -0.607566 0
M  V30 8314 O 752.492 1.68658 -0.841818 0
M  V30 8315 C 749.619 2.8369 -1.85034 0
M  V30 8316 C 748.665 2.95935 -3.07123 0
M  V30 8317 S 749.498 2.63215 -4.66345 0
M  V30 8318 C 750.654 4.03622 -4.78373 0
M  V30 8319 H 750.887 1.26322 -2.69128 0
M  V30 8320 H 748.42 0.546581 -1.44402 0
M  V30 8321 H 750.378 3.6336 -1.90996 0
M  V30 8322 H 749.039 3.00076 -0.928074 0
M  V30 8323 H 748.232 3.97243 -3.10183 0
M  V30 8324 H 747.834 2.24205 -2.99346 0
M  V30 8325 H 750.126 4.98046 -4.593 0
M  V30 8326 H 751.069 4.05559 -5.80454 0
M  V30 8327 H 751.477 3.91282 -4.06889 0
M  V30 8328 N 750.875 1.45233 0.611969 0
M  V30 8329 C 751.825 1.49997 1.71711 0
M  V30 8330 C 752.809 0.363689 1.56736 0
M  V30 8331 O 754.001 0.610261 1.66147 0
M  V30 8332 C 751.13 1.46537 3.10454 0
M  V30 8333 C 750.216 2.65351 3.30831 0
M  V30 8334 N 750.607 3.90485 3.21489 0
M  V30 8335 C 748.905 2.60955 3.61688 0
M  V30 8336 C 749.606 4.69758 3.43078 0
M  V30 8337 N 748.582 4.01141 3.66861 0
M  V30 8338 H 752.384 2.44574 1.62975 0
M  V30 8339 H 749.898 1.40464 0.815082 0
M  V30 8340 H 751.895 1.48035 3.89732 0
M  V30 8341 H 750.555 0.530139 3.20343 0
M  V30 8342 H 751.566 4.22171 2.99987 0
M  V30 8343 H 748.243 1.76319 3.78441 0
M  V30 8344 H 749.633 5.7877 3.41285 0
M  V30 8345 N 752.353 -0.854086 1.3245 0
M  V30 8346 C 753.263 -1.99503 1.23434 0
M  V30 8347 C 754.279 -1.73371 0.147828 0
M  V30 8348 O 755.455 -1.97998 0.368609 0
M  V30 8349 C 752.52 -3.33192 0.958328 0
M  V30 8350 C 751.581 -3.72542 2.13333 0
M  V30 8351 C 750.814 -4.99852 1.8704 0
M  V30 8352 O 751.037 -5.64573 0.813239 0
M  V30 8353 O 749.971 -5.36345 2.73161 0
M  V30 8354 H 753.797 -2.10046 2.1935 0
M  V30 8355 H 751.382 -0.984823 1.12346 0
M  V30 8356 H 753.264 -4.13327 0.820918 0
M  V30 8357 H 751.939 -3.23687 0.0293299 0
M  V30 8358 H 750.846 -2.92981 2.32622 0
M  V30 8359 H 752.179 -3.86694 3.04514 0
M  V30 8360 N 753.831 -1.1567 -1.07043 0
M  V30 8361 C 754.741 -0.870435 -2.17855 0
M  V30 8362 C 755.757 0.154452 -1.73313 0
M  V30 8363 O 756.933 -0.0203759 -2.0139 0
M  V30 8364 C 753.998 -0.367219 -3.4475 0
M  V30 8365 C 753.059 -1.45639 -4.03841 0
M  V30 8366 C 752.292 -0.977092 -5.2468 0
M  V30 8367 O 752.515 0.176127 -5.70128 0
M  V30 8368 O 751.449 -1.76215 -5.75527 0
M  V30 8369 H 755.275 -1.79687 -2.44839 0
M  V30 8370 H 752.86 -0.936064 -1.1644 0
M  V30 8371 H 754.742 -0.0931947 -4.21297 0
M  V30 8372 H 753.417 0.53131 -3.1931 0
M  V30 8373 H 752.324 -1.78406 -3.28819 0
M  V30 8374 H 753.657 -2.32995 -4.3356 0
M  V30 8375 N 755.309 1.25446 -0.953992 0
M  V30 8376 C 756.586 1.884 -0.525823 0
M  V30 8377 C 756.966 1.86079 0.996891 0
M  V30 8378 O 756.314 1.32389 1.8624 0
M  V30 8379 C 756.524 3.31154 -1.10172 0
M  V30 8380 C 757.872 4.07926 -1.17819 0
M  V30 8381 O 758.896 3.40273 -1.05323 0
M  V30 8382 O 757.755 5.28942 -1.37415 0
M  V30 8383 H 754.849 0.808629 -0.173345 0
M  V30 8384 H 757.395 1.33522 -1.04738 0
M  V30 8385 H 756.167 3.27271 -2.14499 0
M  V30 8386 H 755.79 3.93588 -0.56338 0
M  V30 8387 N 756.787 0.722489 1.40064 0
M  V30 8388 C 757.697 0.0755984 2.34478 0
M  V30 8389 C 758.713 -0.736046 1.57665 0
M  V30 8390 O 759.889 -0.667407 1.9002 0
M  V30 8391 C 756.954 -0.830075 3.36616 0
M  V30 8392 C 756.015 -0.00759884 4.29299 0
M  V30 8393 C 755.248 -0.870139 5.26559 0
M  V30 8394 O 755.471 -2.10921 5.2997 0
M  V30 8395 O 754.405 -0.305454 6.01124 0
M  V30 8396 H 758.231 0.854545 2.9143 0
M  V30 8397 H 755.816 0.483032 1.41376 0
M  V30 8398 H 757.698 -1.34864 3.99236 0
M  V30 8399 H 756.373 -1.58805 2.82069 0
M  V30 8400 H 755.28 0.556199 3.69942 0
M  V30 8401 H 756.613 0.712312 4.87018 0
M  V30 8402 N 758.265 -1.50454 0.469181 0
M  V30 8403 C 759.212 -2.28486 -0.325982 0
M  V30 8404 C 760.182 -1.33455 -0.988893 0
M  V30 8405 O 761.367 -1.6239 -1.0017 0
M  V30 8406 C 758.507 -3.15288 -1.40313 0
M  V30 8407 C 757.62 -4.25348 -0.755183 0
M  V30 8408 C 756.755 -4.9941 -1.81006 0
M  V30 8409 C 755.794 -6.01348 -1.14226 0
M  V30 8410 N 754.931 -6.68695 -2.1399 0
M  V30 8411 H 759.771 -2.95987 0.345753 0
M  V30 8412 H 757.308 -1.45965 0.182355 0
M  V30 8413 H 759.266 -3.63964 -2.03927 0
M  V30 8414 H 757.896 -2.49837 -2.04405 0
M  V30 8415 H 756.948 -3.80399 -0.00651901 0
M  V30 8416 H 758.26 -4.98279 -0.227941 0
M  V30 8417 H 757.414 -5.51794 -2.52206 0
M  V30 8418 H 756.153 -4.26181 -2.3711 0
M  V30 8419 H 755.158 -5.48225 -0.415876 0
M  V30 8420 H 756.383 -6.76548 -0.588135 0
M  V30 8421 H 754.329 -5.98258 -2.69115 0
M  V30 8422 H 754.246 -7.37495 -1.66246 0
M  V30 8423 H 755.514 -7.25697 -2.84576 0
M  V30 8424 N 759.743 -0.201713 -1.56304 0
M  V30 8425 C 761.159 0.154025 -1.58855 0
M  V30 8426 C 761.359 1.60516 -1.21807 0
M  V30 8427 O 760.415 2.34193 -0.94393 0
M  V30 8428 C 761.728 -0.154319 -3.00304 0
M  V30 8429 C 763.276 -0.0949578 -3.12856 0
M  V30 8430 C 763.751 -0.376703 -4.56448 0
M  V30 8431 N 765.242 -0.325558 -4.62054 0
M  V30 8432 C 765.977 -0.51732 -5.71062 0
M  V30 8433 N 765.473 -0.769789 -6.8851 0
M  V30 8434 N 767.266 -0.45112 -5.60287 0
M  V30 8435 H 759.417 -1.14858 -1.78666 0
M  V30 8436 H 761.68 -0.458934 -0.829508 0
M  V30 8437 H 761.386 -1.16074 -3.31994 0
M  V30 8438 H 761.26 0.540014 -3.73314 0
M  V30 8439 H 763.647 0.902075 -2.80974 0
M  V30 8440 H 763.728 -0.822468 -2.42217 0
M  V30 8441 H 763.372 -1.37108 -4.89044 0
M  V30 8442 H 763.302 0.371772 -5.25286 0
M  V30 8443 H 765.793 -0.137308 -3.7765 0
M  V30 8444 H 766.106 -0.904744 -7.67486 0
M  V30 8445 H 764.451 -0.806758 -6.90302 0
M  V30 8446 H 767.642 -0.254253 -4.67409 0
M  V30 8447 H 767.815 -0.603982 -6.45179 0
M  V30 8448 N 761.222 1.57436 0.0718424 0
M  V30 8449 C 762.469 1.87248 0.771007 0
M  V30 8450 C 762.797 0.793441 1.7758 0
M  V30 8451 O 762.052 -0.210565 1.94564 0
M  V30 8452 C 762.351 3.23723 1.51455 0
M  V30 8453 C 762.017 4.46194 0.649736 0
M  V30 8454 C 760.679 4.79438 0.411409 0
M  V30 8455 C 763.031 5.21176 0.05004 0
M  V30 8456 C 760.359 5.85077 -0.436096 0
M  V30 8457 C 762.711 6.27712 -0.784919 0
M  V30 8458 C 761.375 6.59457 -1.03312 0
M  V30 8459 H 760.645 0.685188 0.282132 0
M  V30 8460 H 763.292 1.91474 0.0317896 0
M  V30 8461 H 761.597 3.15287 2.32597 0
M  V30 8462 H 763.294 3.44023 2.06031 0
M  V30 8463 H 759.884 4.20175 0.84562 0
M  V30 8464 H 764.068 4.95806 0.221282 0
M  V30 8465 H 759.324 6.08071 -0.637136 0
M  V30 8466 H 763.498 6.84974 -1.25635 0
M  V30 8467 H 761.125 7.4114 -1.6916 0
M  V30 8468 N 762.7 -0.34323 1.53817 0
M  V30 8469 C 763.63 -1.42709 1.84814 0
M  V30 8470 C 764.611 -1.5488 0.703297 0
M  V30 8471 O 765.796 -1.69082 0.955237 0
M  V30 8472 C 762.926 -2.79756 2.05801 0
M  V30 8473 C 761.88 -2.82392 3.21619 0
M  V30 8474 C 761.206 -4.22326 3.2794 0
M  V30 8475 C 762.506 -2.479 4.59721 0
M  V30 8476 H 764.2 -1.17018 2.75585 0
M  V30 8477 H 761.746 -0.561485 1.32602 0
M  V30 8478 H 763.699 -3.55627 2.26069 0
M  V30 8479 H 762.423 -3.06883 1.11761 0
M  V30 8480 H 761.082 -2.08974 3.01207 0
M  V30 8481 H 760.73 -4.46564 2.31494 0
M  V30 8482 H 760.43 -4.25001 4.05768 0
M  V30 8483 H 761.954 -5.00039 3.50419 0
M  V30 8484 H 763.368 -3.13484 4.80001 0
M  V30 8485 H 761.765 -2.61857 5.39954 0
M  V30 8486 H 762.835 -1.43087 4.63308 0
M  V30 8487 N 764.178 -1.45556 -0.604258 0
M  V30 8488 C 765.424 -1.49968 -1.36519 0
M  V30 8489 C 765.757 -0.142236 -1.93678 0
M  V30 8490 O 765.032 0.843717 -1.75247 0
M  V30 8491 C 765.315 -2.58146 -2.51063 0
M  V30 8492 C 765.168 -4.03346 -1.99078 0
M  V30 8493 C 766.487 -2.62581 -3.53184 0
M  V30 8494 H 763.606 -0.545993 -0.495036 0
M  V30 8495 H 766.248 -1.77382 -0.680845 0
M  V30 8496 H 764.398 -2.34901 -3.09441 0
M  V30 8497 H 766.07 -4.37811 -1.45323 0
M  V30 8498 H 764.313 -4.13845 -1.30055 0
M  V30 8499 H 764.984 -4.74731 -2.81664 0
M  V30 8500 H 767.46 -2.83419 -3.04652 0
M  V30 8501 H 766.336 -3.40131 -4.30816 0
M  V30 8502 H 766.597 -1.67798 -4.09019 0
M  V30 8503 N 765.656 0.84705 -1.32902 0
M  V30 8504 C 766.884 1.63403 -1.26913 0
M  V30 8505 C 767.299 1.88108 0.161483 0
M  V30 8506 O 766.656 1.45546 1.10103 0
M  V30 8507 C 766.707 2.98896 -2.03331 0
M  V30 8508 O 766.428 2.75281 -3.40811 0
M  V30 8509 C 767.929 3.93335 -2.04457 0
M  V30 8510 H 765.149 0.508701 -0.437566 0
M  V30 8511 H 767.693 1.05567 -1.75145 0
M  V30 8512 H 765.848 3.53356 -1.58802 0
M  V30 8513 H 766.262 3.61504 -3.8002 0
M  V30 8514 H 767.736 4.85647 -2.62394 0
M  V30 8515 H 768.213 4.26885 -1.03274 0
M  V30 8516 H 768.819 3.44812 -2.48967 0
M  V30 8517 N 767.134 1.16236 1.06428 0
M  V30 8518 C 768.38 0.944431 1.79467 0
M  V30 8519 C 768.713 -0.526558 1.86925 0
M  V30 8520 O 767.988 -1.39061 1.35986 0
M  V30 8521 C 768.271 1.57092 3.24028 0
M  V30 8522 C 768.124 3.11315 3.24658 0
M  V30 8523 C 769.443 1.26447 4.21544 0
M  V30 8524 H 766.562 0.344521 0.651517 0
M  V30 8525 H 769.204 1.43545 1.24478 0
M  V30 8526 H 767.354 1.15337 3.70985 0
M  V30 8527 H 769.026 3.62042 2.85873 0
M  V30 8528 H 767.269 3.44716 2.6335 0
M  V30 8529 H 767.94 3.50269 4.26633 0
M  V30 8530 H 770.416 1.62581 3.83023 0
M  V30 8531 H 769.292 1.72885 5.20963 0
M  V30 8532 H 769.553 0.183068 4.41721 0
M  V30 8533 N 768.612 -1.24939 0.960631 0
M  V30 8534 C 769.861 -1.92118 0.614298 0
M  V30 8535 C 770.174 -1.75998 -0.853474 0
M  V30 8536 O 771.38 -2.37804 -1.31003 0
M  V30 8537 C 769.836 -3.44303 1.04801 0
M  V30 8538 C 769.444 -3.69123 2.53875 0
M  V30 8539 C 771.188 -4.17375 0.774497 0
M  V30 8540 C 769.095 -5.14843 2.91016 0
M  V30 8541 H 768.025 -0.719319 0.226045 0
M  V30 8542 H 770.676 -1.41701 1.16589 0
M  V30 8543 H 769.058 -3.93715 0.42479 0
M  V30 8544 H 770.232 -3.30339 3.21267 0
M  V30 8545 H 768.547 -3.09323 2.78762 0
M  V30 8546 H 771.144 -5.24723 1.02808 0
M  V30 8547 H 771.487 -4.15294 -0.289192 0
M  V30 8548 H 772.02 -3.7389 1.35835 0
M  V30 8549 H 768.759 -5.2204 3.96427 0
M  V30 8550 H 768.279 -5.54652 2.28302 0
M  V30 8551 H 769.958 -5.83017 2.80535 0
M  V30 8552 N 770.09 -0.729906 -1.39679 0
M  V30 8553 C 771.037 -0.0866063 -2.30637 0
M  V30 8554 C 772.007 0.735115 -1.48947 0
M  V30 8555 O 773.192 0.696125 -1.77648 0
M  V30 8556 C 770.332 0.818524 -3.35252 0
M  V30 8557 C 769.445 -0.0152635 -4.31997 0
M  V30 8558 C 768.58 0.890669 -5.2368 0
M  V30 8559 C 767.619 0.0518246 -6.12078 0
M  V30 8560 N 766.756 0.913411 -6.96133 0
M  V30 8561 H 771.596 -0.867925 -2.85081 0
M  V30 8562 H 769.133 -0.439673 -1.40376 0
M  V30 8563 H 771.091 1.3577 -3.9449 0
M  V30 8564 H 769.721 1.56587 -2.82277 0
M  V30 8565 H 768.773 -0.671794 -3.74421 0
M  V30 8566 H 770.085 -0.664086 -4.9436 0
M  V30 8567 H 769.239 1.49787 -5.87919 0
M  V30 8568 H 767.978 1.57328 -4.61627 0
M  V30 8569 H 766.983 -0.568209 -5.46856 0
M  V30 8570 H 768.208 -0.627497 -6.76195 0
M  V30 8571 H 766.154 1.58141 -6.36653 0
M  V30 8572 H 766.071 0.320952 -7.55318 0
M  V30 8573 H 767.339 1.50633 -7.64807 0
M  V30 8574 N 771.568 1.50203 -0.477153 0
M  V30 8575 C 772.845 1.95115 0.137609 0
M  V30 8576 C 773.225 1.41778 1.56404 0
M  V30 8577 O 772.573 0.621333 2.1989 0
M  V30 8578 C 772.783 3.4892 0.0747168 0
M  V30 8579 C 774.131 4.238 0.260585 0
M  V30 8580 O 775.155 3.5588 0.151021 0
M  V30 8581 O 774.014 5.44366 0.482534 0
M  V30 8582 H 771.108 0.81987 0.108364 0
M  V30 8583 H 773.654 1.60946 -0.537989 0
M  V30 8584 H 772.426 3.80308 -0.920966 0
M  V30 8585 H 772.049 3.89642 0.791509 0
M  V30 8586 N 773.046 0.209999 1.56195 0
M  V30 8587 C 773.976 -0.699746 2.22769 0
M  V30 8588 C 774.957 -1.20993 1.1956 0
M  V30 8589 O 776.142 -1.25605 1.48112 0
M  V30 8590 C 773.272 -1.91302 2.89863 0
M  V30 8591 C 772.226 -1.53715 3.99444 0
M  V30 8592 C 771.552 -2.82826 4.53777 0
M  V30 8593 C 772.852 -0.735836 5.17091 0
M  V30 8594 H 774.546 -0.144716 2.9905 0
M  V30 8595 H 772.092 -0.0681645 1.43839 0
M  V30 8596 H 774.045 -2.5548 3.35124 0
M  V30 8597 H 772.769 -2.49283 2.11011 0
M  V30 8598 H 771.428 -0.918892 3.54897 0
M  V30 8599 H 771.076 -3.38927 3.71669 0
M  V30 8600 H 770.776 -2.58415 5.27727 0
M  V30 8601 H 772.3 -3.47966 5.01749 0
M  V30 8602 H 773.714 -1.28105 5.58804 0
M  V30 8603 H 772.111 -0.589272 5.972 0
M  V30 8604 H 773.181 0.260004 4.84202 0
M  V30 8605 N 774.524 -1.57472 -0.0634922 0
M  V30 8606 C 775.454 -2.07297 -1.07473 0
M  V30 8607 C 776.435 -0.968162 -1.39859 0
M  V30 8608 O 777.62 -1.24139 -1.49343 0
M  V30 8609 C 774.75 -2.52381 -2.38581 0
M  V30 8610 C 773.704 -3.66813 -2.20526 0
M  V30 8611 C 773.03 -3.97982 -3.57092 0
M  V30 8612 C 774.33 -4.96553 -1.61965 0
M  V30 8613 H 776.024 -2.92033 -0.660092 0
M  V30 8614 H 773.57 -1.40488 -0.316074 0
M  V30 8615 H 775.523 -2.85852 -3.09624 0
M  V30 8616 H 774.247 -1.64684 -2.8204 0
M  V30 8617 H 772.906 -3.33639 -1.51924 0
M  V30 8618 H 772.554 -3.07403 -3.98136 0
M  V30 8619 H 772.254 -4.7504 -3.45848 0
M  V30 8620 H 773.778 -4.33956 -4.29552 0
M  V30 8621 H 775.192 -5.28201 -2.22883 0
M  V30 8622 H 773.589 -5.7799 -1.61394 0
M  V30 8623 H 774.659 -4.81396 -0.581918 0
M  V30 8624 N 776.003 0.335068 -1.53997 0
M  V30 8625 C 777.251 1.07223 -1.71312 0
M  V30 8626 C 777.572 1.88911 -0.483486 0
M  V30 8627 O 776.842 1.89344 0.50257 0
M  V30 8628 H 775.422 0.398846 -0.63161 0
M  V30 8629 H 778.084 0.374288 -1.91272 0
M  V30 8630 H 777.18 1.7448 -2.58772 0
M  V30 8631 N 777.481 1.45874 0.596531 0
M  V30 8632 C 778.411 1.5824 1.71705 0
M  V30 8633 C 779.392 0.433366 1.64487 0
M  V30 8634 O 780.577 0.657895 1.82717 0
M  V30 8635 C 777.707 1.55927 3.10329 0
M  V30 8636 C 776.661 2.69659 3.32367 0
M  V30 8637 C 775.987 2.52403 4.71377 0
M  V30 8638 C 777.287 4.11591 3.21544 0
M  V30 8639 H 778.981 2.52035 1.61613 0
M  V30 8640 H 776.527 1.21297 0.776082 0
M  V30 8641 H 778.48 1.63173 3.88526 0
M  V30 8642 H 777.204 0.586674 3.21288 0
M  V30 8643 H 775.863 2.61859 2.56564 0
M  V30 8644 H 775.511 1.53258 4.79083 0
M  V30 8645 H 775.211 3.28679 4.87077 0
M  V30 8646 H 776.735 2.6152 5.5176 0
M  V30 8647 H 778.149 4.20576 3.89601 0
M  V30 8648 H 776.546 4.88344 3.4877 0
M  V30 8649 H 777.616 4.32719 2.1882 0
M  V30 8650 N 778.959 -0.83999 1.33349 0
M  V30 8651 C 780.199 -1.60888 1.26073 0
M  V30 8652 C 780.563 -1.91234 -0.17129 0
M  V30 8653 O 781.764 -2.66269 -0.36799 0
M  V30 8654 C 780.035 -2.88438 2.11042 0
M  V30 8655 S 781.594 -3.79116 2.20944 0
M  V30 8656 H 778.412 -0.55166 0.448545 0
M  V30 8657 H 781.014 -0.99359 1.68369 0
M  V30 8658 H 779.718 -2.64113 3.14121 0
M  V30 8659 H 779.249 -3.54974 1.69579 0
M  V30 8660 H 781.264 -4.76921 1.36969 0
M  V30 8661 N 780.437 -1.16799 -1.0581 0
M  V30 8662 C 781.347 -0.893492 -2.16919 0
M  V30 8663 C 782.363 0.136061 -1.73467 0
M  V30 8664 O 783.539 -0.0417348 -2.01357 0
M  V30 8665 C 780.604 -0.403763 -3.44341 0
M  V30 8666 C 779.665 -1.49914 -4.02274 0
M  V30 8667 C 778.898 -1.03269 -5.23614 0
M  V30 8668 O 779.121 0.115647 -5.70283 0
M  V30 8669 O 778.055 -1.8231 -5.73626 0
M  V30 8670 H 781.881 -1.82274 -2.42919 0
M  V30 8671 H 779.466 -0.948361 -1.1544 0
M  V30 8672 H 781.348 -0.137874 -4.21174 0
M  V30 8673 H 780.023 0.497413 -3.19855 0
M  V30 8674 H 778.93 -1.81883 -3.26909 0
M  V30 8675 H 780.263 -2.3758 -4.31064 0
M  V30 8676 N 781.915 1.24427 -0.967243 0
M  V30 8677 C 782.847 2.24641 -0.454856 0
M  V30 8678 C 783.86 1.56849 0.436152 0
M  V30 8679 O 785.049 1.76846 0.242401 0
M  V30 8680 C 782.149 3.36954 0.362672 0
M  V30 8681 C 781.322 4.34318 -0.518324 0
M  V30 8682 C 780.381 5.25638 0.243122 0
M  V30 8683 O 779.407 5.68043 -0.362791 0
M  V30 8684 N 780.609 5.59897 1.53282 0
M  V30 8685 H 783.374 2.69238 -1.31648 0
M  V30 8686 H 780.935 1.38464 -0.839015 0
M  V30 8687 H 782.927 3.95014 0.880094 0
M  V30 8688 H 781.497 2.91646 1.12522 0
M  V30 8689 H 780.717 3.74953 -1.21672 0
M  V30 8690 H 782.005 4.96338 -1.11919 0
M  V30 8691 H 781.403 5.27373 2.04682 0
M  V30 8692 H 779.96 6.20488 1.99594 0
M  V30 8693 N 783.393 0.737304 1.3929 0
M  V30 8694 C 784.34 0.0988364 2.30588 0
M  V30 8695 C 785.31 -0.727206 1.49335 0
M  V30 8696 O 786.495 -0.686694 1.78014 0
M  V30 8697 C 783.635 -0.800734 3.35682 0
M  V30 8698 C 782.748 0.0381731 4.31983 0
M  V30 8699 C 781.883 -0.862884 5.24145 0
M  V30 8700 C 780.922 -0.0193639 6.12097 0
M  V30 8701 N 780.059 -0.87648 6.96608 0
M  V30 8702 H 784.899 0.883031 2.84617 0
M  V30 8703 H 782.436 0.447111 1.4014 0
M  V30 8704 H 784.394 -1.33676 3.95205 0
M  V30 8705 H 783.024 -1.55088 2.83103 0
M  V30 8706 H 782.076 0.691641 3.74059 0
M  V30 8707 H 783.388 0.690294 4.94 0
M  V30 8708 H 782.542 -1.46667 5.88705 0
M  V30 8709 H 781.281 -1.54878 4.62454 0
M  V30 8710 H 780.286 0.597202 5.46547 0
M  V30 8711 H 781.511 0.663348 6.75852 0
M  V30 8712 H 779.457 -1.54762 6.37483 0
M  V30 8713 H 779.374 -0.280892 7.55478 0
M  V30 8714 H 780.642 -1.46575 7.65595 0
M  V30 8715 N 784.871 -1.49948 0.485112 0
M  V30 8716 C 786.287 -1.58984 0.140096 0
M  V30 8717 C 786.487 -1.49194 -1.35438 0
M  V30 8718 O 785.543 -1.35765 -2.12894 0
M  V30 8719 C 786.856 -2.92372 0.702769 0
M  V30 8720 C 788.404 -3.05801 0.66745 0
M  V30 8721 C 788.879 -4.41785 1.20791 0
M  V30 8722 N 790.37 -4.48234 1.16792 0
M  V30 8723 C 791.105 -5.51871 1.55646 0
M  V30 8724 N 790.601 -6.62692 2.02016 0
M  V30 8725 N 792.394 -5.42494 1.47161 0
M  V30 8726 H 784.545 -1.54555 1.45693 0
M  V30 8727 H 786.808 -0.731206 0.603359 0
M  V30 8728 H 786.514 -3.05056 1.75025 0
M  V30 8729 H 786.388 -3.76885 0.154205 0
M  V30 8730 H 788.775 -2.92757 -0.371157 0
M  V30 8731 H 788.856 -2.23011 1.25298 0
M  V30 8732 H 788.5 -4.55579 2.24522 0
M  V30 8733 H 788.43 -5.23188 0.598464 0
M  V30 8734 H 790.921 -3.68718 0.827982 0
M  V30 8735 H 791.234 -7.3785 2.29775 0
M  V30 8736 H 789.579 -6.63775 2.05979 0
M  V30 8737 H 792.77 -4.54806 1.10765 0
M  V30 8738 H 792.943 -6.2314 1.77766 0
M  V30 8739 N 786.349 -0.21828 -1.56081 0
M  V30 8740 C 787.597 0.413488 -1.97825 0
M  V30 8741 C 787.918 1.60527 -1.10707 0
M  V30 8742 O 787.188 1.9504 -0.183378 0
M  V30 8743 H 785.768 0.155757 -0.730581 0
M  V30 8744 H 788.43 -0.310413 -1.92412 0
M  V30 8745 H 787.526 0.742024 -3.03151 0
M  V30 8746 N 787.827 1.57504 0.0551401 0
M  V30 8747 C 788.774 2.04825 1.06373 0
M  V30 8748 C 789.744 0.932108 1.37481 0
M  V30 8749 O 790.929 1.20093 1.48265 0
M  V30 8750 C 788.069 2.51091 2.36743 0
M  V30 8751 C 787.182 3.76392 2.12021 0
M  V30 8752 C 786.317 4.11373 3.36074 0
M  V30 8753 C 785.356 5.29666 3.0679 0
M  V30 8754 N 784.493 5.60205 4.2322 0
M  V30 8755 H 789.333 2.90753 0.653216 0
M  V30 8756 H 786.87 1.43776 0.310951 0
M  V30 8757 H 788.828 2.75973 3.12881 0
M  V30 8758 H 787.458 1.68118 2.75565 0
M  V30 8759 H 786.51 3.58751 1.26498 0
M  V30 8760 H 787.822 4.62662 1.86401 0
M  V30 8761 H 786.976 4.37245 4.20597 0
M  V30 8762 H 785.715 3.23704 3.64784 0
M  V30 8763 H 784.72 5.03574 2.20664 0
M  V30 8764 H 785.945 6.18968 2.79385 0
M  V30 8765 H 783.891 4.75495 4.5193 0
M  V30 8766 H 783.808 6.40928 4.00933 0
M  V30 8767 H 785.076 5.90637 5.08692 0
M  V30 8768 N 789.305 -0.326896 1.54172 0
M  V30 8769 C 790.582 -1.08326 1.62864 0
M  V30 8770 C 790.962 -2.06018 0.46039 0
M  V30 8771 O 790.31 -2.21889 -0.545685 0
M  V30 8772 C 790.52 -1.78816 2.9971 0
M  V30 8773 C 791.868 -2.31958 3.55641 0
M  V30 8774 O 792.892 -1.88888 3.01993 0
M  V30 8775 O 791.751 -3.10801 4.49517 0
M  V30 8776 H 788.845 -0.499131 0.659392 0
M  V30 8777 H 791.391 -0.327054 1.66519 0
M  V30 8778 H 790.163 -1.07739 3.76176 0
M  V30 8779 H 789.786 -2.61255 2.99719 0
M  V30 8780 N 790.784 -1.46188 -0.588786 0
M  V30 8781 C 791.732 -1.56653 -1.71938 0
M  V30 8782 C 792.726 -0.435354 -1.6371 0
M  V30 8783 O 793.932 -0.611996 -1.69277 0
M  V30 8784 H 790.307 -0.492408 -0.568365 0
M  V30 8785 H 792.278 -2.51724 -1.60242 0
M  V30 8786 C 791.027 -1.56822 -3.10326 0
M  V30 8787 H 790.35 -2.43198 -3.17325 0
M  V30 8788 H 791.79 -1.68199 -3.89211 0
M  V30 8789 C 790.249 -0.295802 -3.35599 0
M  V30 8790 O 790.779 0.616515 -3.96941 0
M  V30 8791 N 788.985 -0.185609 -2.90007 0
M  V30 8792 H 788.532 -0.928914 -2.40269 0
M  V30 8793 H 788.49 0.664883 -3.07289 0
M  V30 8794 N 792.262 0.832906 -1.33792 0
M  V30 8795 C 793.209 1.94314 -1.24541 0
M  V30 8796 C 794.179 1.65646 -0.122753 0
M  V30 8797 O 795.364 1.88394 -0.30204 0
M  V30 8798 C 792.504 3.30395 -0.996641 0
M  V30 8799 C 791.617 3.71422 -2.20612 0
M  V30 8800 C 790.752 4.96401 -1.89101 0
M  V30 8801 C 789.791 5.2998 -3.06247 0
M  V30 8802 N 788.928 6.46137 -2.74685 0
M  V30 8803 H 793.768 2.01559 -2.19495 0
M  V30 8804 H 791.305 0.986243 -1.09141 0
M  V30 8805 H 793.263 4.08803 -0.832817 0
M  V30 8806 H 791.893 3.22691 -0.0838242 0
M  V30 8807 H 790.945 2.88488 -2.47949 0
M  V30 8808 H 792.257 3.92215 -3.0817 0
M  V30 8809 H 791.411 5.82572 -1.69396 0
M  V30 8810 H 790.15 4.7759 -0.987882 0
M  V30 8811 H 789.155 4.42312 -3.26559 0
M  V30 8812 H 790.38 5.50737 -3.97323 0
M  V30 8813 H 788.326 6.28801 -1.86938 0
M  V30 8814 H 788.243 6.67054 -3.55774 0
M  V30 8815 H 789.511 7.35403 -2.58461 0
M  V30 8816 N 793.74 1.17359 1.05189 0
M  V30 8817 C 794.703 0.892604 2.11105 0
M  V30 8818 C 795.703 -0.117236 1.60372 0
M  V30 8819 O 796.893 0.114936 1.7382 0
M  V30 8820 C 794.025 0.337032 3.3923 0
M  V30 8821 H 795.218 1.83169 2.37464 0
M  V30 8822 H 792.771 0.984051 1.21434 0
M  V30 8823 H 793.506 -0.609198 3.18527 0
M  V30 8824 H 793.291 1.06484 3.77364 0
M  V30 8825 H 794.781 0.158763 4.17298 0
M  V30 8826 N 795.218 -1.23913 0.973828 0
M  V30 8827 C 796.467 -1.91455 0.63464 0
M  V30 8828 C 796.78 -1.76893 -0.834759 0
M  V30 8829 O 797.986 -2.3918 -1.28473 0
M  V30 8830 C 796.442 -3.43172 1.08447 0
M  V30 8831 C 796.05 -3.66409 2.57776 0
M  V30 8832 C 797.794 -4.1653 0.818721 0
M  V30 8833 C 795.701 -5.11728 2.9646 0
M  V30 8834 H 794.631 -0.716881 0.233661 0
M  V30 8835 H 797.282 -1.40457 1.18085 0
M  V30 8836 H 795.664 -3.93242 0.466524 0
M  V30 8837 H 796.838 -3.26913 3.24753 0
M  V30 8838 H 795.153 -3.06349 2.82027 0
M  V30 8839 H 797.75 -5.23603 1.08367 0
M  V30 8840 H 798.093 -4.15578 -0.245128 0
M  V30 8841 H 798.626 -3.72428 1.39793 0
M  V30 8842 H 795.365 -5.17806 4.01941 0
M  V30 8843 H 794.885 -5.52199 2.34172 0
M  V30 8844 H 796.564 -5.80009 2.86703 0
M  V30 8845 N 796.696 -0.74468 -1.38897 0
M  V30 8846 C 797.945 -0.293716 -1.9955 0
M  V30 8847 C 798.258 1.12831 -1.59777 0
M  V30 8848 O 799.464 1.67929 -2.13336 0
M  V30 8849 C 797.92 -0.474188 -3.56762 0
M  V30 8850 C 797.528 -1.90472 -4.05493 0
M  V30 8851 C 799.272 -0.0854875 -4.24414 0
M  V30 8852 C 797.179 -2.03423 -5.55314 0
M  V30 8853 H 796.109 -0.106066 -0.746502 0
M  V30 8854 H 798.76 -0.919948 -1.58774 0
M  V30 8855 H 797.142 0.221092 -3.95382 0
M  V30 8856 H 798.316 -2.63274 -3.78184 0
M  V30 8857 H 796.631 -2.24752 -3.50536 0
M  V30 8858 H 799.228 -0.161133 -5.34457 0
M  V30 8859 H 799.571 0.96066 -4.05064 0
M  V30 8860 H 800.104 -0.732286 -3.91002 0
M  V30 8861 H 796.843 -3.0626 -5.79556 0
M  V30 8862 H 796.363 -1.3507 -5.84394 0
M  V30 8863 H 798.042 -1.81996 -6.20876 0
M  V30 8864 N 798.174 1.49689 -0.493057 0
M  V30 8865 C 799.137 2.27502 0.278485 0
M  V30 8866 C 800.137 1.33184 0.901037 0
M  V30 8867 O 801.327 1.56415 0.766801 0
M  V30 8868 C 798.459 3.10881 1.39878 0
M  V30 8869 H 799.652 2.97163 -0.404219 0
M  V30 8870 H 797.205 1.54324 -0.247774 0
M  V30 8871 H 797.94 2.45767 2.11587 0
M  V30 8872 H 797.725 3.80219 0.957924 0
M  V30 8873 H 799.215 3.69673 1.94247 0
M  V30 8874 N 799.652 0.226554 1.55963 0
M  V30 8875 C 800.877 -0.411527 2.03276 0
M  V30 8876 C 801.302 -1.52206 1.10521 0
M  V30 8877 O 800.66 -1.81054 0.0943217 0
M  V30 8878 C 800.708 -0.915694 3.4878 0
M  V30 8879 O 799.812 -2.02672 3.59163 0
M  V30 8880 H 799.153 -0.0924907 0.657527 0
M  V30 8881 H 801.683 0.346656 2.01642 0
M  V30 8882 H 801.693 -1.22421 3.892 0
M  V30 8883 H 800.368 -0.102915 4.15773 0
M  V30 8884 H 798.945 -1.72445 3.30632 0
M  V30 8885 N 801.13 -1.57531 -0.0467866 0
M  V30 8886 C 802.078 -2.06455 -1.0714 0
M  V30 8887 C 803.072 -0.974744 -1.38546 0
M  V30 8888 O 804.278 -1.15974 -1.37659 0
M  V30 8889 H 800.653 -0.658607 -0.362962 0
M  V30 8890 H 802.624 -2.91613 -0.632813 0
M  V30 8891 C 801.373 -2.54481 -2.36927 0
M  V30 8892 H 800.696 -3.37946 -2.13617 0
M  V30 8893 H 802.136 -2.92442 -3.07007 0
M  V30 8894 C 800.595 -1.43836 -3.04652 0
M  V30 8895 O 801.125 -0.794531 -3.93764 0
M  V30 8896 N 799.331 -1.17727 -2.65686 0
M  V30 8897 H 798.878 -1.70265 -1.93307 0
M  V30 8898 H 798.836 -0.439051 -3.11319 0
M  V30 8899 N 802.608 0.318715 -1.54344 0
M  V30 8900 C 803.857 1.05363 -1.71993 0
M  V30 8901 C 804.17 1.89018 -0.503155 0
M  V30 8902 O 805.376 2.65639 -0.561085 0
M  V30 8903 C 803.832 1.92281 -3.0423 0
M  V30 8904 C 803.44 1.13715 -4.33328 0
M  V30 8905 C 805.184 2.65479 -3.31242 0
M  V30 8906 C 803.091 1.99806 -5.56625 0
M  V30 8907 H 802.021 0.397081 -0.64097 0
M  V30 8908 H 804.672 0.311598 -1.80835 0
M  V30 8909 H 803.054 2.70402 -2.89307 0
M  V30 8910 H 804.228 0.403305 -4.59032 0
M  V30 8911 H 802.543 0.521769 -4.13118 0
M  V30 8912 H 805.14 3.30209 -4.20555 0
M  V30 8913 H 805.483 3.33374 -2.49334 0
M  V30 8914 H 806.016 1.94417 -3.47054 0
M  V30 8915 H 802.755 1.36411 -6.41149 0
M  V30 8916 H 802.275 2.70911 -5.35133 0
M  V30 8917 H 803.954 2.58277 -5.93213 0
M  V30 8918 N 804.086 1.46499 0.581025 0
M  V30 8919 C 805.019 1.51706 1.70472 0
M  V30 8920 C 805.997 0.371036 1.5831 0
M  V30 8921 O 807.181 0.575426 1.79502 0
M  V30 8922 C 804.308 1.3972 3.08538 0
M  V30 8923 C 803.354 2.58525 3.39215 0
M  V30 8924 S 804.187 4.20872 3.311 0
M  V30 8925 C 805.343 4.11398 4.71702 0
M  V30 8926 H 805.576 2.46777 1.65796 0
M  V30 8927 H 803.109 1.34405 0.759908 0
M  V30 8928 H 805.067 1.33492 3.88188 0
M  V30 8929 H 803.728 0.460742 3.10702 0
M  V30 8930 H 802.921 2.46137 4.3981 0
M  V30 8931 H 802.523 2.61752 2.67136 0
M  V30 8932 H 804.815 3.78182 5.62125 0
M  V30 8933 H 805.758 5.11997 4.89147 0
M  V30 8934 H 806.166 3.42624 4.48631 0
M  V30 8935 N 805.565 -0.825799 1.34232 0
M  V30 8936 C 806.795 -1.61129 1.29309 0
M  V30 8937 C 807.203 -1.88714 -0.135589 0
M  V30 8938 O 806.546 -1.47703 -1.09222 0
M  V30 8939 C 806.608 -2.97866 2.01287 0
M  V30 8940 C 806.272 -2.9319 3.50555 0
M  V30 8941 C 807.269 -2.67978 4.45515 0
M  V30 8942 C 804.954 -3.12913 3.92926 0
M  V30 8943 C 806.948 -2.62536 5.80822 0
M  V30 8944 C 804.635 -3.07096 5.28333 0
M  V30 8945 C 805.633 -2.8194 6.22092 0
M  V30 8946 O 805.321 -2.7605 7.55018 0
M  V30 8947 H 805.053 -0.507652 0.446391 0
M  V30 8948 H 807.607 -1.03575 1.77374 0
M  V30 8949 H 805.837 -3.57327 1.47832 0
M  V30 8950 H 807.526 -3.58848 1.89691 0
M  V30 8951 H 808.292 -2.52478 4.14101 0
M  V30 8952 H 804.171 -3.3151 3.20347 0
M  V30 8953 H 807.715 -2.42821 6.53975 0
M  V30 8954 H 803.612 -3.22148 5.59367 0
M  V30 8955 H 804.38 -2.91798 7.6472 0
M  V30 8956 N 807.043 -1.17915 -1.04565 0
M  V30 8957 C 808.292 -0.965816 -1.77073 0
M  V30 8958 C 808.605 0.506005 -1.88942 0
M  V30 8959 O 809.811 0.837717 -2.58253 0
M  V30 8960 C 808.267 -1.67894 -3.18339 0
M  V30 8961 C 807.875 -3.18972 -3.1458 0
M  V30 8962 C 809.619 -1.54823 -3.9526 0
M  V30 8963 C 807.526 -3.82946 -4.50674 0
M  V30 8964 H 806.456 -0.357729 -0.663736 0
M  V30 8965 H 809.107 -1.41235 -1.17153 0
M  V30 8966 H 807.489 -1.16016 -3.78624 0
M  V30 8967 H 808.663 -3.77835 -2.63776 0
M  V30 8968 H 806.978 -3.32127 -2.51159 0
M  V30 8969 H 809.575 -1.99984 -4.95894 0
M  V30 8970 H 809.918 -0.499727 -4.1329 0
M  V30 8971 H 810.451 -2.03953 -3.41538 0
M  V30 8972 H 807.19 -4.8782 -4.37849 0
M  V30 8973 H 806.71 -3.2887 -5.01602 0
M  V30 8974 H 808.389 -3.85518 -5.196 0
M  V30 8975 N 808.521 1.23394 -0.980386 0
M  V30 8976 C 809.767 1.92094 -0.650223 0
M  V30 8977 C 810.1 1.76309 0.814173 0
M  V30 8978 O 809.375 1.12406 1.5873 0
M  V30 8979 C 809.658 3.44713 -1.04139 0
M  V30 8980 C 809.511 3.69606 -2.56342 0
M  V30 8981 C 810.83 4.36191 -0.585296 0
M  V30 8982 H 807.949 0.697618 -0.237695 0
M  V30 8983 H 810.591 1.45517 -1.22167 0
M  V30 8984 H 808.741 3.84513 -0.55515 0
M  V30 8985 H 810.413 3.39288 -3.1254 0
M  V30 8986 H 808.656 3.14318 -2.98976 0
M  V30 8987 H 809.327 4.76441 -2.78762 0
M  V30 8988 H 811.803 4.03836 -1.00276 0
M  V30 8989 H 810.679 5.41679 -0.887428 0
M  V30 8990 H 810.94 4.39097 0.51438 0
M  V30 8991 N 809.999 0.752036 1.385 0
M  V30 8992 C 811.247 0.306895 1.99756 0
M  V30 8993 C 811.568 -1.11478 1.59992 0
M  V30 8994 O 810.838 -1.76206 0.856045 0
M  V30 8995 H 809.418 0.11048 0.738785 0
M  V30 8996 H 812.08 0.965785 1.69289 0
M  V30 8997 H 811.176 0.368797 3.09913 0
M  V30 8998 N 811.477 -1.49425 0.500989 0
M  V30 8999 C 812.409 -2.27037 -0.314159 0
M  V30 9000 C 813.422 -1.33578 -0.930626 0
M  V30 9001 O 814.611 -1.58861 -0.813968 0
M  V30 9002 C 811.711 -3.05968 -1.45729 0
M  V30 9003 C 810.884 -4.27 -0.948135 0
M  V30 9004 C 809.943 -4.87977 -1.96888 0
M  V30 9005 O 808.969 -5.48044 -1.53743 0
M  V30 9006 N 810.171 -4.77627 -3.29928 0
M  V30 9007 H 812.936 -2.97634 0.351336 0
M  V30 9008 H 810.497 -1.58427 0.333536 0
M  V30 9009 H 812.489 -3.43634 -2.1377 0
M  V30 9010 H 811.059 -2.37978 -2.02695 0
M  V30 9011 H 810.279 -3.94091 -0.0926311 0
M  V30 9012 H 811.567 -5.0541 -0.586362 0
M  V30 9013 H 810.965 -4.29926 -3.67669 0
M  V30 9014 H 809.522 -5.19478 -3.93682 0
M  V30 9015 N 812.955 -0.234822 -1.55841 0
M  V30 9016 C 814.185 0.397168 -2.02746 0
M  V30 9017 C 814.593 1.52951 -1.11367 0
M  V30 9018 O 813.936 1.8332 -0.118133 0
M  V30 9019 C 813.998 0.977748 -3.45948 0
M  V30 9020 C 813.662 -0.0208193 -4.56995 0
M  V30 9021 C 814.659 -0.826015 -5.13296 0
M  V30 9022 C 812.344 -0.143416 -5.02095 0
M  V30 9023 C 814.338 -1.74038 -6.1318 0
M  V30 9024 C 812.025 -1.0613 -6.01814 0
M  V30 9025 C 813.023 -1.85832 -6.57233 0
M  V30 9026 O 812.711 -2.76075 -7.55008 0
M  V30 9027 H 812.443 0.0999802 -0.668566 0
M  V30 9028 H 814.997 -0.352673 -2.0235 0
M  V30 9029 H 813.227 1.77693 -3.43456 0
M  V30 9030 H 814.916 1.51854 -3.76424 0
M  V30 9031 H 815.682 -0.741822 -4.79293 0
M  V30 9032 H 811.561 0.466857 -4.5863 0
M  V30 9033 H 815.105 -2.36291 -6.56363 0
M  V30 9034 H 811.002 -1.14646 -6.35237 0
M  V30 9035 H 811.77 -2.703 -7.7258 0
M  V30 9036 N 814.433 1.57553 0.0384317 0
M  V30 9037 C 815.844 1.77258 0.586211 0
M  V30 9038 C 816.195 0.864706 1.76117 0
M  V30 9039 O 815.32 0.057141 2.16325 0
M  V30 9040 C 815.915 3.21453 1.07021 0
M  V30 9041 C 814.474 3.42387 1.56358 0
M  V30 9042 C 813.621 2.72801 0.497508 0
M  V30 9043 H 816.572 1.57585 -0.187796 0
M  V30 9044 H 816.593 3.27451 1.93794 0
M  V30 9045 H 816.105 3.87505 0.214851 0
M  V30 9046 H 814.206 2.81497 2.44111 0
M  V30 9047 H 814.319 4.50968 1.61754 0
M  V30 9048 H 812.683 2.36305 0.95038 0
M  V30 9049 H 813.466 3.41529 -0.348234 0
M  V30 9050 N 815.911 -0.310526 1.54511 0
M  V30 9051 C 817.327 -0.655637 1.45511 0
M  V30 9052 C 817.527 -1.91114 0.638564 0
M  V30 9053 O 816.583 -2.52098 0.142497 0
M  V30 9054 C 817.896 -0.817501 2.89374 0
M  V30 9055 C 819.444 -0.914003 2.99358 0
M  V30 9056 C 819.919 -1.10794 4.44397 0
M  V30 9057 N 821.41 -1.17437 4.48066 0
M  V30 9058 C 822.145 -1.34255 5.57461 0
M  V30 9059 N 821.641 -1.48032 6.768 0
M  V30 9060 N 823.434 -1.37067 5.45132 0
M  V30 9061 H 815.585 0.514506 2.06074 0
M  V30 9062 H 817.848 0.168478 0.932909 0
M  V30 9063 H 817.554 0.034003 3.51684 0
M  V30 9064 H 817.428 -1.7094 3.36243 0
M  V30 9065 H 819.815 -1.756 2.37168 0
M  V30 9066 H 819.896 0.00170958 2.558 0
M  V30 9067 H 819.54 -0.270743 5.07178 0
M  V30 9068 H 819.47 -2.03773 4.85576 0
M  V30 9069 H 821.961 -1.08181 3.62084 0
M  V30 9070 H 822.274 -1.60593 7.5593 0
M  V30 9071 H 820.619 -1.45105 6.79683 0
M  V30 9072 H 823.81 -1.25909 4.50849 0
M  V30 9073 H 823.983 -1.49831 6.3044 0
M  V30 9074 N 817.389 -1.46805 -0.573248 0
M  V30 9075 C 818.636 -1.52604 -1.3311 0
M  V30 9076 C 818.964 -0.181633 -1.9365 0
M  V30 9077 O 818.219 0.823775 -1.77517 0
M  V30 9078 C 818.518 -2.58001 -2.47326 0
M  V30 9079 C 818.184 -4.01747 -2.04719 0
M  V30 9080 C 816.846 -4.40881 -1.92814 0
M  V30 9081 C 819.198 -4.92008 -1.71982 0
M  V30 9082 C 816.526 -5.68129 -1.46445 0
M  V30 9083 C 818.878 -6.19703 -1.27089 0
M  V30 9084 C 817.542 -6.57733 -1.13768 0
M  V30 9085 H 816.812 -0.558417 -0.487084 0
M  V30 9086 H 819.459 -1.80327 -0.644538 0
M  V30 9087 H 817.764 -2.23974 -3.2147 0
M  V30 9088 H 819.461 -2.59715 -3.05531 0
M  V30 9089 H 816.051 -3.70819 -2.14922 0
M  V30 9090 H 820.235 -4.62485 -1.8006 0
M  V30 9091 H 815.491 -5.96359 -1.34783 0
M  V30 9092 H 819.665 -6.89064 -1.00814 0
M  V30 9093 H 817.292 -7.56228 -0.776142 0
M  V30 9094 N 818.867 0.818669 -1.34668 0
M  V30 9095 C 819.797 1.94468 -1.29245 0
M  V30 9096 C 820.778 1.69257 -0.169101 0
M  V30 9097 O 821.963 1.90794 -0.362143 0
M  V30 9098 C 819.093 3.31001 -1.05145 0
M  V30 9099 C 818.047 3.70663 -2.13992 0
M  V30 9100 C 817.373 5.05226 -1.75074 0
M  V30 9101 C 818.673 3.82312 -3.55858 0
M  V30 9102 H 820.367 1.99263 -2.2346 0
M  V30 9103 H 817.913 0.957304 -1.07572 0
M  V30 9104 H 819.866 4.09364 -0.999949 0
M  V30 9105 H 818.59 3.26517 -0.0737312 0
M  V30 9106 H 817.249 2.94578 -2.18219 0
M  V30 9107 H 816.897 4.97233 -0.759518 0
M  V30 9108 H 816.597 5.32734 -2.47928 0
M  V30 9109 H 818.121 5.86042 -1.71427 0
M  V30 9110 H 819.535 4.50935 -3.5402 0
M  V30 9111 H 817.932 4.21278 -4.2737 0
M  V30 9112 H 819.002 2.84193 -3.9289 0
M  V30 9113 N 820.346 1.18468 1.03938 0
M  V30 9114 C 821.762 0.934635 1.29371 0
M  V30 9115 C 821.962 -0.399067 1.97509 0
M  V30 9116 O 821.018 -1.13309 2.25648 0
M  V30 9117 C 822.331 2.10111 2.15114 0
M  V30 9118 C 823.879 2.13955 2.28456 0
M  V30 9119 C 824.354 3.30024 3.17566 0
M  V30 9120 N 825.845 3.29893 3.25153 0
M  V30 9121 C 826.58 4.16346 3.94263 0
M  V30 9122 N 826.076 5.12934 4.65693 0
M  V30 9123 N 827.869 4.04256 3.90556 0
M  V30 9124 H 820.02 2.04294 0.581185 0
M  V30 9125 H 822.283 0.892727 0.318971 0
M  V30 9126 H 821.989 3.06572 1.72355 0
M  V30 9127 H 821.863 2.06283 3.15796 0
M  V30 9128 H 824.25 1.18072 2.7045 0
M  V30 9129 H 824.331 2.2184 1.2736 0
M  V30 9130 H 823.975 4.26181 2.76283 0
M  V30 9131 H 823.905 3.19376 4.18697 0
M  V30 9132 H 826.396 2.59969 2.74271 0
M  V30 9133 H 826.709 5.75271 5.16026 0
M  V30 9134 H 825.054 5.16893 4.64593 0
M  V30 9135 H 828.245 3.28083 3.33885 0
M  V30 9136 H 828.418 4.71848 4.44144 0
M  V30 9137 N 821.824 -1.22873 0.986916 0
M  V30 9138 C 822.787 -2.2281 0.537442 0
M  V30 9139 C 823.787 -1.56331 -0.37646 0
M  V30 9140 O 824.977 -1.73376 -0.169247 0
M  V30 9141 C 822.109 -3.40195 -0.219082 0
M  V30 9142 H 823.302 -2.64089 1.42116 0
M  V30 9143 H 820.855 -1.35819 0.773488 0
M  V30 9144 H 821.59 -3.04381 -1.11905 0
M  V30 9145 H 821.375 -3.89657 0.437026 0
M  V30 9146 H 822.865 -4.14326 -0.521926 0
M  V30 9147 N 823.302 -0.75937 -1.38099 0
M  V30 9148 C 824.252 -0.111098 -2.27729 0
M  V30 9149 C 825.236 0.687161 -1.45489 0
M  V30 9150 O 826.428 0.552167 -1.68167 0
M  V30 9151 C 823.557 0.776809 -3.34396 0
M  V30 9152 C 822.643 -0.0286108 -4.2409 0
M  V30 9153 N 823.034 -1.06797 -4.94397 0
M  V30 9154 C 821.332 0.197307 -4.45563 0
M  V30 9155 C 822.033 -1.55576 -5.6051 0
M  V30 9156 N 821.009 -0.870059 -5.36592 0
M  V30 9157 H 824.811 -0.907047 -2.79553 0
M  V30 9158 H 822.325 -0.595954 -1.5107 0
M  V30 9159 H 824.322 1.25691 -3.97502 0
M  V30 9160 H 822.982 1.57164 -2.84129 0
M  V30 9161 H 823.993 -1.44988 -4.97191 0
M  V30 9162 H 820.67 0.965028 -4.06194 0
M  V30 9163 H 822.06 -2.42184 -6.26735 0
M  V30 9164 N 824.78 1.49157 -0.508906 0
M  V30 9165 C 826.026 2.03385 0.0248089 0
M  V30 9166 C 826.381 1.381 1.33964 0
M  V30 9167 O 825.674 0.510317 1.84679 0
M  V30 9168 C 825.868 3.56687 0.225717 0
M  V30 9169 C 825.697 4.36832 -1.06809 0
M  V30 9170 C 824.467 4.78556 -1.6221 0
M  V30 9171 C 826.665 4.74934 -1.97338 0
M  V30 9172 N 824.647 5.43158 -2.86098 0
M  V30 9173 C 826.018 5.39336 -3.05805 0
M  V30 9174 C 828.073 4.56872 -1.97921 0
M  V30 9175 C 826.776 5.87587 -4.1489 0
M  V30 9176 C 828.802 5.06089 -3.05987 0
M  V30 9177 C 828.164 5.70499 -4.13172 0
M  V30 9178 H 824.263 0.781349 -0.0318988 0
M  V30 9179 H 826.847 1.82233 -0.685518 0
M  V30 9180 H 825.018 3.77707 0.905108 0
M  V30 9181 H 826.75 3.97554 0.757147 0
M  V30 9182 H 823.505 4.59017 -1.16621 0
M  V30 9183 H 823.929 5.8004 -3.49116 0
M  V30 9184 H 828.571 4.06474 -1.16357 0
M  V30 9185 H 826.289 6.37002 -4.97247 0
M  V30 9186 H 829.875 4.93919 -3.07466 0
M  V30 9187 H 828.755 6.07893 -4.95415 0
M  V30 9188 N 826.258 0.243083 1.55714 0
M  V30 9189 C 827.205 -0.658078 2.21219 0
M  V30 9190 C 828.175 -1.1742 1.17481 0
M  V30 9191 O 829.36 -1.22937 1.45915 0
M  V30 9192 C 826.5 -1.85104 2.91257 0
M  V30 9193 C 825.613 -1.3718 4.09641 0
M  V30 9194 C 824.748 -2.52403 4.67404 0
M  V30 9195 C 823.787 -2.01321 5.78045 0
M  V30 9196 N 822.924 -3.09896 6.30007 0
M  V30 9197 H 827.764 -0.0927854 2.97856 0
M  V30 9198 H 825.301 -0.0340375 1.47061 0
M  V30 9199 H 827.259 -2.55179 3.3006 0
M  V30 9200 H 825.889 -2.38887 2.17101 0
M  V30 9201 H 824.941 -0.565232 3.76177 0
M  V30 9202 H 826.253 -0.957409 4.89525 0
M  V30 9203 H 825.407 -3.30525 5.08761 0
M  V30 9204 H 824.146 -2.97142 3.86728 0
M  V30 9205 H 823.151 -1.21667 5.36169 0
M  V30 9206 H 824.376 -1.57556 6.6057 0
M  V30 9207 H 822.322 -3.54077 5.52237 0
M  V30 9208 H 822.239 -2.72776 7.05074 0
M  V30 9209 H 823.507 -3.8809 6.76023 0
M  V30 9210 N 827.736 -1.57571 -0.0300757 0
M  V30 9211 C 828.983 -1.89226 -0.721091 0
M  V30 9212 C 829.311 -0.840244 -1.75414 0
M  V30 9213 O 828.566 0.158906 -1.95054 0
M  V30 9214 C 828.865 -3.27624 -1.42818 0
M  V30 9215 C 828.531 -4.4776 -0.531208 0
M  V30 9216 C 827.193 -4.8036 -0.28415 0
M  V30 9217 C 829.545 -5.21125 0.0881582 0
M  V30 9218 C 826.873 -5.83715 0.591065 0
M  V30 9219 C 829.225 -6.2541 0.95107 0
M  V30 9220 C 827.889 -6.56486 1.2076 0
M  V30 9221 H 827.159 -0.692428 -0.263866 0
M  V30 9222 H 829.806 -1.91491 0.0189874 0
M  V30 9223 H 828.111 -3.21343 -2.24155 0
M  V30 9224 H 829.808 -3.49365 -1.96838 0
M  V30 9225 H 826.398 -4.2227 -0.73392 0
M  V30 9226 H 830.582 -4.96219 -0.0897496 0
M  V30 9227 H 825.838 -6.06168 0.798132 0
M  V30 9228 H 830.012 -6.81402 1.43751 0
M  V30 9229 H 827.639 -7.36395 1.88751 0
M  V30 9230 N 829.214 0.302327 -1.54673 0
M  V30 9231 C 830.144 1.37759 -1.88533 0
M  V30 9232 C 831.125 1.52961 -0.744113 0
M  V30 9233 O 832.31 1.6649 -0.999731 0
M  V30 9234 C 829.44 2.74201 -2.13146 0
M  V30 9235 C 828.394 2.73765 -3.28993 0
M  V30 9236 C 827.72 4.13483 -3.39022 0
M  V30 9237 C 829.02 2.35624 -4.66132 0
M  V30 9238 H 830.714 1.0967 -2.78591 0
M  V30 9239 H 828.26 0.52613 -1.34044 0
M  V30 9240 H 830.213 3.49508 -2.35419 0
M  V30 9241 H 828.937 3.03812 -1.19858 0
M  V30 9242 H 827.596 2.00914 -3.06642 0
M  V30 9243 H 827.244 4.40269 -2.43253 0
M  V30 9244 H 826.944 4.14093 -4.16894 0
M  V30 9245 H 828.468 4.90572 -3.63553 0
M  V30 9246 H 829.882 3.00647 -4.88143 0
M  V30 9247 H 828.279 2.47449 -5.46707 0
M  V30 9248 H 829.349 1.30753 -4.66939 0
M  V30 9249 N 830.692 1.47107 0.565454 0
M  V30 9250 C 831.639 1.58974 1.6732 0
M  V30 9251 C 832.609 0.433146 1.60353 0
M  V30 9252 O 833.794 0.652141 1.79309 0
M  V30 9253 C 830.934 1.60224 3.05651 0
M  V30 9254 C 830.047 2.86741 3.23116 0
M  V30 9255 C 829.182 2.79381 4.51796 0
M  V30 9256 C 828.221 4.0076 4.62664 0
M  V30 9257 N 827.358 3.91685 5.8269 0
M  V30 9258 H 832.198 2.53588 1.56515 0
M  V30 9259 H 829.735 1.25791 0.762558 0
M  V30 9260 H 831.693 1.58933 3.85741 0
M  V30 9261 H 830.323 0.691285 3.15311 0
M  V30 9262 H 829.375 2.97936 2.36513 0
M  V30 9263 H 830.687 3.7665 3.27011 0
M  V30 9264 H 829.841 2.76293 5.40136 0
M  V30 9265 H 828.58 1.87142 4.50366 0
M  V30 9266 H 827.585 4.04162 3.72738 0
M  V30 9267 H 828.81 4.94117 4.6586 0
M  V30 9268 H 826.756 3.02243 5.82224 0
M  V30 9269 H 826.673 4.75264 5.87929 0
M  V30 9270 H 827.941 3.92599 6.73414 0
M  V30 9271 N 832.17 -0.811516 1.35101 0
M  V30 9272 C 833.398 -1.59981 1.31201 0
M  V30 9273 C 833.813 -1.8847 -0.111552 0
M  V30 9274 O 833.17 -1.48414 -1.06205 0
M  V30 9275 C 833.221 -2.934 2.11184 0
M  V30 9276 O 832.942 -2.66148 3.4799 0
M  V30 9277 C 834.443 -3.87776 2.14813 0
M  V30 9278 H 831.663 -0.496921 0.450899 0
M  V30 9279 H 834.207 -1.00886 1.77883 0
M  V30 9280 H 832.362 -3.49022 1.68115 0
M  V30 9281 H 832.776 -3.51301 3.89471 0
M  V30 9282 H 834.25 -4.7852 2.75178 0
M  V30 9283 H 834.727 -4.23997 1.14556 0
M  V30 9284 H 835.333 -3.3809 2.58022 0
M  V30 9285 N 833.648 -1.19017 -1.03309 0
M  V30 9286 C 834.894 -0.991681 -1.769 0
M  V30 9287 C 835.227 0.476813 -1.88255 0
M  V30 9288 O 834.502 1.35407 -1.39625 0
M  V30 9289 C 834.785 -1.65627 -3.19749 0
M  V30 9290 C 834.638 -3.19813 -3.1629 0
M  V30 9291 C 835.957 -1.37579 -4.18043 0
M  V30 9292 H 833.076 -0.361674 -0.642153 0
M  V30 9293 H 835.718 -1.46795 -1.20628 0
M  V30 9294 H 833.868 -1.25132 -3.67796 0
M  V30 9295 H 835.54 -3.69494 -2.76174 0
M  V30 9296 H 833.783 -3.51578 -2.54117 0
M  V30 9297 H 834.454 -3.61457 -4.17196 0
M  V30 9298 H 836.93 -1.72679 -3.78578 0
M  V30 9299 H 835.806 -1.86636 -5.16196 0
M  V30 9300 H 836.067 -0.300118 -4.4108 0
M  V30 9301 N 835.127 1.22348 -0.993418 0
M  V30 9302 C 836.373 1.91393 -0.67056 0
M  V30 9303 C 836.706 1.77163 0.795428 0
M  V30 9304 O 835.981 1.14084 1.57528 0
M  V30 9305 C 836.264 3.43589 -1.0779 0
M  V30 9306 C 836.117 3.66867 -2.60248 0
M  V30 9307 C 837.436 4.35545 -0.631527 0
M  V30 9308 H 834.555 0.695057 -0.24508 0
M  V30 9309 H 837.197 1.44213 -1.23703 0
M  V30 9310 H 835.347 3.83903 -0.595902 0
M  V30 9311 H 837.019 3.35954 -3.16121 0
M  V30 9312 H 835.262 3.1113 -3.02293 0
M  V30 9313 H 835.933 4.73457 -2.838 0
M  V30 9314 H 838.409 4.0275 -1.04554 0
M  V30 9315 H 837.285 5.40707 -0.944831 0
M  V30 9316 H 837.546 4.39618 0.467779 0
M  V30 9317 N 836.605 0.766683 1.37694 0
M  V30 9318 C 837.553 0.137269 2.32195 0
M  V30 9319 C 838.547 -0.69067 1.54681 0
M  V30 9320 O 839.753 -0.588299 1.70115 0
M  V30 9321 H 836.128 0.0256003 0.751564 0
M  V30 9322 H 838.099 0.950129 2.82869 0
M  V30 9323 C 836.848 -0.731446 3.39919 0
M  V30 9324 H 836.171 -0.103738 3.99665 0
M  V30 9325 H 837.611 -1.13891 4.08417 0
M  V30 9326 C 836.07 -1.87984 2.79578 0
M  V30 9327 O 836.6 -2.97496 2.69924 0
M  V30 9328 N 834.806 -1.6789 2.37195 0
M  V30 9329 H 834.353 -0.788162 2.45246 0
M  V30 9330 H 834.311 -2.44894 1.97165 0
M  V30 9331 N 838.083 -1.48885 0.516809 0
M  V30 9332 C 839.03 -2.29408 -0.253125 0
M  V30 9333 C 840 -1.36533 -0.945935 0
M  V30 9334 O 841.185 -1.65495 -0.949527 0
M  V30 9335 C 838.325 -3.19592 -1.30211 0
M  V30 9336 C 837.438 -4.27535 -0.61948 0
M  V30 9337 C 836.573 -5.04916 -1.65026 0
M  V30 9338 C 835.612 -6.04677 -0.950368 0
M  V30 9339 N 834.749 -6.75164 -1.92608 0
M  V30 9340 H 839.589 -2.94738 0.439744 0
M  V30 9341 H 837.126 -1.45311 0.2287 0
M  V30 9342 H 839.084 -3.70267 -1.92245 0
M  V30 9343 H 837.714 -2.56213 -1.96353 0
M  V30 9344 H 836.766 -3.80228 0.114505 0
M  V30 9345 H 838.078 -4.98752 -0.0693016 0
M  V30 9346 H 837.232 -5.59539 -2.34523 0
M  V30 9347 H 835.971 -4.33508 -2.23432 0
M  V30 9348 H 834.976 -5.4927 -0.241252 0
M  V30 9349 H 836.201 -6.78077 -0.372599 0
M  V30 9350 H 834.147 -6.06517 -2.49946 0
M  V30 9351 H 834.064 -7.4241 -1.42699 0
M  V30 9352 H 835.332 -7.34384 -2.61345 0
M  V30 9353 N 839.561 -0.251338 -1.55583 0
M  V30 9354 C 840.491 0.640437 -2.24545 0
M  V30 9355 C 841.472 1.17781 -1.22726 0
M  V30 9356 O 842.657 1.21633 -1.5139 0
M  V30 9357 C 839.787 1.8355 -2.94834 0
M  V30 9358 C 838.741 1.4307 -4.03379 0
M  V30 9359 C 838.067 2.70695 -4.61116 0
M  V30 9360 C 839.367 0.59848 -5.1886 0
M  V30 9361 H 841.061 0.0653772 -2.99329 0
M  V30 9362 H 838.607 0.0300042 -1.43969 0
M  V30 9363 H 840.56 2.46505 -3.4178 0
M  V30 9364 H 839.284 2.43601 -2.17546 0
M  V30 9365 H 837.943 0.824474 -3.57209 0
M  V30 9366 H 837.591 3.28954 -3.80524 0
M  V30 9367 H 837.291 2.44332 -5.34393 0
M  V30 9368 H 838.815 3.34541 -5.10798 0
M  V30 9369 H 840.229 1.13244 -5.62004 0
M  V30 9370 H 838.626 0.430728 -5.98552 0
M  V30 9371 H 839.696 -0.38829 -4.83343 0
M  V30 9372 N 841.039 1.57585 0.0217189 0
M  V30 9373 C 842.286 1.89606 0.711045 0
M  V30 9374 C 842.614 0.849535 1.74966 0
M  V30 9375 O 841.869 -0.14856 1.95135 0
M  V30 9376 C 842.168 3.28377 1.41079 0
M  V30 9377 C 841.834 4.48035 0.507454 0
M  V30 9378 C 840.496 4.80504 0.258672 0
M  V30 9379 C 842.848 5.21071 -0.115793 0
M  V30 9380 C 840.176 5.83393 -0.622013 0
M  V30 9381 C 842.528 6.24897 -0.984224 0
M  V30 9382 C 841.192 6.55836 -1.2424 0
M  V30 9383 H 840.462 0.693817 0.26019 0
M  V30 9384 H 843.109 1.91478 -0.0291424 0
M  V30 9385 H 841.414 3.22528 2.22448 0
M  V30 9386 H 843.111 3.50404 1.94982 0
M  V30 9387 H 839.701 4.22653 0.711516 0
M  V30 9388 H 843.885 4.96259 0.0634327 0
M  V30 9389 H 839.141 6.05736 -0.830267 0
M  V30 9390 H 843.315 6.8063 -1.47363 0
M  V30 9391 H 840.942 7.35383 -1.92653 0
M  V30 9392 N 842.517 -0.29412 1.54831 0
M  V30 9393 C 843.427 -1.3854 1.89325 0
M  V30 9394 C 844.443 -1.55127 0.788133 0
M  V30 9395 O 845.619 -1.6966 1.08524 0
M  V30 9396 C 842.684 -2.72809 2.13954 0
M  V30 9397 C 841.745 -2.65148 3.37631 0
M  V30 9398 C 840.978 -3.93014 3.61076 0
M  V30 9399 O 841.201 -4.927 2.87406 0
M  V30 9400 O 840.135 -3.94491 4.54599 0
M  V30 9401 H 843.961 -1.12289 2.82179 0
M  V30 9402 H 841.546 -0.490793 1.41108 0
M  V30 9403 H 843.428 -3.52238 2.31315 0
M  V30 9404 H 842.103 -2.9889 1.24285 0
M  V30 9405 H 841.01 -1.84168 3.25627 0
M  V30 9406 H 842.343 -2.4402 4.27452 0
M  V30 9407 N 843.995 -1.47404 -0.557645 0
M  V30 9408 C 845.242 -1.54007 -1.31484 0
M  V30 9409 C 845.57 -0.202162 -1.93447 0
M  V30 9410 O 844.825 0.804901 -1.78381 0
M  V30 9411 C 845.124 -2.6061 -2.44575 0
M  V30 9412 C 844.79 -4.03896 -2.00446 0
M  V30 9413 C 843.452 -4.42901 -1.88127 0
M  V30 9414 C 845.804 -4.93804 -1.66754 0
M  V30 9415 C 843.132 -5.6965 -1.40411 0
M  V30 9416 C 845.484 -6.21016 -1.20509 0
M  V30 9417 C 844.148 -6.58903 -1.06786 0
M  V30 9418 H 843.418 -0.563552 -0.481134 0
M  V30 9419 H 846.065 -1.81001 -0.625375 0
M  V30 9420 H 844.37 -2.27371 -3.19076 0
M  V30 9421 H 846.067 -2.62941 -3.02759 0
M  V30 9422 H 842.657 -3.73077 -2.10977 0
M  V30 9423 H 846.841 -4.64369 -1.75144 0
M  V30 9424 H 842.097 -5.97755 -1.2845 0
M  V30 9425 H 846.271 -6.90095 -0.935001 0
M  V30 9426 H 843.898 -7.57008 -0.695891 0
M  V30 9427 N 845.473 0.80434 -1.35529 0
M  V30 9428 C 846.406 1.92222 -1.22987 0
M  V30 9429 C 847.384 1.62177 -0.117269 0
M  V30 9430 O 848.568 1.86321 -0.285761 0
M  V30 9431 C 845.695 3.26682 -0.894223 0
M  V30 9432 C 844.741 3.75674 -2.01919 0
M  V30 9433 S 845.574 3.93209 -3.6352 0
M  V30 9434 C 846.73 5.30568 -3.32037 0
M  V30 9435 H 846.963 2.02567 -2.1761 0
M  V30 9436 H 844.496 0.961961 -1.20771 0
M  V30 9437 H 846.454 4.04359 -0.707371 0
M  V30 9438 H 845.115 3.14082 0.0339729 0
M  V30 9439 H 844.308 4.73065 -1.73854 0
M  V30 9440 H 843.91 3.05001 -2.16449 0
M  V30 9441 H 846.202 6.14637 -2.85004 0
M  V30 9442 H 847.145 5.63628 -4.28636 0
M  V30 9443 H 847.553 4.96961 -2.6775 0
M  V30 9444 N 846.951 1.19563 1.02676 0
M  V30 9445 C 847.901 0.903055 2.09354 0
M  V30 9446 C 848.885 -0.133009 1.60349 0
M  V30 9447 O 850.077 0.0729744 1.7685 0
M  V30 9448 C 847.206 0.445852 3.40392 0
M  V30 9449 C 846.292 1.51477 3.96126 0
M  V30 9450 N 846.683 2.73474 4.25495 0
M  V30 9451 C 844.981 1.37856 4.2416 0
M  V30 9452 C 845.682 3.42348 4.7029 0
M  V30 9453 N 844.658 2.69746 4.71952 0
M  V30 9454 H 848.46 1.83023 2.29956 0
M  V30 9455 H 845.974 1.08812 1.20556 0
M  V30 9456 H 847.971 0.21769 4.16331 0
M  V30 9457 H 846.631 -0.47482 3.2121 0
M  V30 9458 H 847.642 3.10217 4.14711 0
M  V30 9459 H 844.319 0.521512 4.1423 0
M  V30 9460 H 845.709 4.46686 5.01917 0
M  V30 9461 N 848.429 -1.21819 0.999893 0
M  V30 9462 C 849.339 -2.27691 0.565159 0
M  V30 9463 C 850.355 -1.69587 -0.389398 0
M  V30 9464 O 851.531 -1.99786 -0.254499 0
M  V30 9465 C 848.596 -3.46537 -0.106432 0
M  V30 9466 C 847.657 -4.19932 0.891964 0
M  V30 9467 C 846.89 -5.33103 0.252327 0
M  V30 9468 O 847.113 -5.62398 -0.952103 0
M  V30 9469 O 846.047 -5.94184 0.960698 0
M  V30 9470 H 849.873 -2.67059 1.44613 0
M  V30 9471 H 847.458 -1.28119 0.768499 0
M  V30 9472 H 849.34 -4.18631 -0.482301 0
M  V30 9473 H 848.015 -3.09079 -0.961865 0
M  V30 9474 H 846.922 -3.5008 1.3189 0
M  V30 9475 H 848.255 -4.61287 1.71682 0
M  V30 9476 N 849.908 -0.773975 -1.37286 0
M  V30 9477 C 851.136 -0.350758 -2.03905 0
M  V30 9478 C 851.551 1.02779 -1.58373 0
M  V30 9479 O 850.908 1.65646 -0.766009 0
M  V30 9480 C 850.959 -0.387335 -3.59419 0
M  V30 9481 O 850.68 -1.7115 -4.03286 0
M  V30 9482 C 852.181 0.047198 -4.43275 0
M  V30 9483 H 849.401 -0.146663 -0.654775 0
M  V30 9484 H 851.945 -1.04852 -1.75574 0
M  V30 9485 H 850.1 0.261865 -3.86514 0
M  V30 9486 H 850.514 -1.65166 -4.97816 0
M  V30 9487 H 851.988 -0.0295474 -5.51992 0
M  V30 9488 H 852.465 1.09786 -4.25257 0
M  V30 9489 H 853.071 -0.573899 -4.2141 0
M  V30 9490 N 851.386 1.48609 -0.524698 0
M  V30 9491 C 852.336 2.26505 0.260696 0
M  V30 9492 C 853.32 1.32378 0.914597 0
M  V30 9493 O 854.512 1.5695 0.818277 0
M  V30 9494 C 851.641 3.17313 1.31024 0
M  V30 9495 C 850.727 4.18911 0.661391 0
M  V30 9496 N 851.118 5.05183 -0.24981 0
M  V30 9497 C 849.416 4.36425 0.91922 0
M  V30 9498 C 850.117 5.78348 -0.623598 0
M  V30 9499 N 849.093 5.43598 0.0140839 0
M  V30 9500 H 852.895 2.90582 -0.440388 0
M  V30 9501 H 850.409 1.5875 -0.342364 0
M  V30 9502 H 852.406 3.71772 1.88656 0
M  V30 9503 H 851.066 2.54791 2.01275 0
M  V30 9504 H 852.077 5.1415 -0.622093 0
M  V30 9505 H 848.754 3.85095 1.6127 0
M  V30 9506 H 850.144 6.57775 -1.37046 0
M  V30 9507 N 852.864 0.259585 1.55447 0
M  V30 9508 C 854.141 -0.412595 1.91199 0
M  V30 9509 C 854.521 -1.74909 1.18194 0
M  V30 9510 O 853.869 -2.26474 0.303603 0
M  V30 9511 C 854.079 -0.568195 3.44344 0
M  V30 9512 C 855.427 -0.858253 4.15836 0
M  V30 9513 O 856.451 -0.653588 3.50152 0
M  V30 9514 O 855.31 -1.24874 5.32042 0
M  V30 9515 H 852.404 -0.223403 0.796254 0
M  V30 9516 H 854.95 0.30459 1.66944 0
M  V30 9517 H 853.722 0.372989 3.89518 0
M  V30 9518 H 853.345 -1.33544 3.74502 0
M  V30 9519 N 854.342 -1.57594 -0.0133615 0
M  V30 9520 C 855.59 -1.89605 -0.699596 0
M  V30 9521 C 855.911 -0.85926 -1.75048 0
M  V30 9522 O 855.181 0.105112 -1.95618 0
M  V30 9523 H 853.761 -0.699776 -0.261385 0
M  V30 9524 H 856.423 -1.94885 0.0244044 0
M  V30 9525 H 855.519 -2.88962 -1.17928 0
M  V30 9526 N 855.82 0.285905 -1.54985 0
M  V30 9527 C 857.066 1.02071 -1.75241 0
M  V30 9528 C 857.399 1.864 -0.544842 0
M  V30 9529 O 856.674 1.89034 0.457844 0
M  V30 9530 C 856.957 1.91409 -3.05016 0
M  V30 9531 C 856.81 1.10158 -4.36102 0
M  V30 9532 C 858.129 2.90335 -3.30747 0
M  V30 9533 H 855.248 0.369663 -0.637588 0
M  V30 9534 H 857.89 0.294114 -1.8771 0
M  V30 9535 H 856.04 2.53362 -2.94517 0
M  V30 9536 H 857.712 0.503756 -4.58541 0
M  V30 9537 H 855.955 0.404675 -4.31908 0
M  V30 9538 H 856.626 1.75956 -5.23205 0
M  V30 9539 H 859.102 2.38514 -3.40955 0
M  V30 9540 H 857.978 3.49997 -4.2284 0
M  V30 9541 H 858.239 3.64787 -2.49765 0
M  V30 9542 N 857.298 1.47698 0.54982 0
M  V30 9543 C 858.23 1.56806 1.67166 0
M  V30 9544 C 859.243 0.453709 1.5635 0
M  V30 9545 O 860.432 0.723663 1.63173 0
M  V30 9546 C 857.532 1.4632 3.05686 0
M  V30 9547 C 856.705 2.72452 3.42182 0
M  V30 9548 C 855.764 2.55698 4.59897 0
M  V30 9549 O 854.79 3.29534 4.64108 0
M  V30 9550 N 855.992 1.64009 5.56849 0
M  V30 9551 H 858.757 2.53545 1.59797 0
M  V30 9552 H 856.318 1.44171 0.736635 0
M  V30 9553 H 858.31 1.32835 3.82279 0
M  V30 9554 H 856.88 0.57634 3.07241 0
M  V30 9555 H 856.1 3.00644 2.54964 0
M  V30 9556 H 857.388 3.56172 3.63344 0
M  V30 9557 H 856.786 1.03186 5.5621 0
M  V30 9558 H 855.343 1.56473 6.3274 0
M  V30 9559 N 858.776 -0.797141 1.35954 0
M  V30 9560 C 860.053 -1.54224 1.2031 0
M  V30 9561 C 860.433 -2.10013 -0.213926 0
M  V30 9562 O 859.781 -1.93292 -1.21862 0
M  V30 9563 C 859.991 -2.6433 2.27883 0
M  V30 9564 C 861.339 -3.32418 2.64165 0
M  V30 9565 O 862.363 -2.74607 2.26868 0
M  V30 9566 O 861.222 -4.36876 3.28331 0
M  V30 9567 H 858.316 -0.681857 0.467974 0
M  V30 9568 H 860.862 -0.836288 1.47663 0
M  V30 9569 H 859.634 -2.21044 3.22885 0
M  V30 9570 H 859.257 -3.42551 2.01853 0
M  V30 9571 N 860.254 -1.20106 -1.0204 0
M  V30 9572 C 861.187 -0.889795 -2.10138 0
M  V30 9573 C 862.165 0.156595 -1.61844 0
M  V30 9574 O 863.349 0.0310192 -1.88474 0
M  V30 9575 C 860.476 -0.333227 -3.37057 0
M  V30 9576 C 859.522 -1.36001 -4.04235 0
M  V30 9577 S 860.355 -2.92366 -4.48645 0
M  V30 9578 C 861.511 -2.38274 -5.78771 0
M  V30 9579 H 861.744 -1.80523 -2.36217 0
M  V30 9580 H 859.277 -1.02912 -1.15102 0
M  V30 9581 H 861.235 -0.0186507 -4.10496 0
M  V30 9582 H 859.896 0.560652 -3.09056 0
M  V30 9583 H 859.089 -0.919874 -4.95534 0
M  V30 9584 H 858.691 -1.62186 -3.37004 0
M  V30 9585 H 860.983 -1.77799 -6.53754 0
M  V30 9586 H 861.926 -3.27955 -6.27576 0
M  V30 9587 H 862.334 -1.8054 -5.34851 0
M  V30 9588 N 861.732 1.21287 -1.00634 0
M  V30 9589 C 862.695 2.21927 -0.572821 0
M  V30 9590 C 863.695 1.5691 0.351541 0
M  V30 9591 O 864.885 1.73623 0.141643 0
M  V30 9592 C 862.017 3.40501 0.164932 0
M  V30 9593 H 863.21 2.61795 -1.463 0
M  V30 9594 H 860.763 1.34571 -0.794998 0
M  V30 9595 H 861.498 3.06123 1.07049 0
M  V30 9596 H 861.283 3.88912 -0.498962 0
M  V30 9597 H 862.773 4.15103 0.455945 0
M  V30 9598 N 863.21 0.781244 1.36873 0
M  V30 9599 C 864.45 0.355185 2.0129 0
M  V30 9600 C 864.814 -1.05115 1.6067 0
M  V30 9601 O 866.015 -1.57785 2.17618 0
M  V30 9602 C 864.286 0.504587 3.5382 0
M  V30 9603 S 865.845 0.165196 4.38489 0
M  V30 9604 H 862.663 0.136133 0.697846 0
M  V30 9605 H 865.265 1.01794 1.66908 0
M  V30 9606 H 863.969 1.52857 3.80871 0
M  V30 9607 H 863.5 -0.174392 3.93013 0
M  V30 9608 H 865.515 -1.03605 4.85263 0
M  V30 9609 N 864.689 -1.48329 0.532571 0
M  V30 9610 C 865.966 -1.95492 -0.0650985 0
M  V30 9611 C 866.346 -1.47485 -1.51034 0
M  V30 9612 O 865.694 -0.702516 -2.17433 0
M  V30 9613 C 865.904 -3.48957 0.0548341 0
M  V30 9614 C 867.252 -4.24475 -0.103115 0
M  V30 9615 O 868.276 -3.56195 -0.0188343 0
M  V30 9616 O 867.135 -5.45781 -0.280164 0
M  V30 9617 H 864.229 -0.823327 -0.0778603 0
M  V30 9618 H 866.775 -1.58839 0.597353 0
M  V30 9619 H 865.547 -3.76628 1.06148 0
M  V30 9620 H 865.17 -3.92311 -0.64635 0
M  V30 9621 N 866.167 -0.267825 -1.55308 0
M  V30 9622 C 867.395 0.354587 -2.03839 0
M  V30 9623 C 867.81 1.50007 -1.14644 0
M  V30 9624 O 867.167 1.81752 -0.165055 0
M  V30 9625 C 867.218 0.84254 -3.51544 0
M  V30 9626 O 866.939 -0.257318 -4.37344 0
M  V30 9627 C 868.44 1.53351 -4.15931 0
M  V30 9628 H 865.66 0.0818131 -0.665994 0
M  V30 9629 H 868.204 -0.397795 -2.00594 0
M  V30 9630 H 866.359 1.54503 -3.55257 0
M  V30 9631 H 866.773 0.116593 -5.2437 0
M  V30 9632 H 868.247 1.82643 -5.20908 0
M  V30 9633 H 868.724 2.4626 -3.63666 0
M  V30 9634 H 869.33 0.87506 -4.162 0
M  V30 9635 N 867.645 1.57599 0.00500368 0
M  V30 9636 C 868.892 1.90349 0.690895 0
M  V30 9637 C 869.22 0.868045 1.74055 0
M  V30 9638 O 868.475 -0.127855 1.95282 0
M  V30 9639 C 868.774 3.29855 1.37588 0
M  V30 9640 C 868.44 4.48548 0.459906 0
M  V30 9641 C 867.102 4.80752 0.207693 0
M  V30 9642 C 869.454 5.20919 -0.171054 0
M  V30 9643 C 866.782 5.82701 -0.683855 0
M  V30 9644 C 869.134 6.23818 -1.05045 0
M  V30 9645 C 867.798 6.54481 -1.31189 0
M  V30 9646 H 867.068 0.696538 0.252816 0
M  V30 9647 H 869.715 1.91436 -0.0494495 0
M  V30 9648 H 868.02 3.24869 2.19015 0
M  V30 9649 H 869.717 3.52452 1.91255 0
M  V30 9650 H 866.307 4.23384 0.666648 0
M  V30 9651 H 870.491 4.96299 0.0107942 0
M  V30 9652 H 865.747 6.04822 -0.894467 0
M  V30 9653 H 869.921 6.79029 -1.54574 0
M  V30 9654 H 867.548 7.33299 -2.00442 0
M  V30 9655 N 869.123 -0.277682 1.55134 0
M  V30 9656 C 870.372 -1.00766 1.74726 0
M  V30 9657 C 870.685 -1.87617 0.553092 0
M  V30 9658 O 871.891 -2.64058 0.631318 0
M  V30 9659 C 870.347 -1.84147 3.09221 0
M  V30 9660 C 869.955 -1.02186 4.3619 0
M  V30 9661 C 871.699 -2.56604 3.38164 0
M  V30 9662 C 869.606 -1.84978 5.61727 0
M  V30 9663 H 868.536 -0.379948 0.651273 0
M  V30 9664 H 871.187 -0.263543 1.81598 0
M  V30 9665 H 869.569 -2.62637 2.96375 0
M  V30 9666 H 870.743 -0.281459 4.5994 0
M  V30 9667 H 869.058 -0.412054 4.14356 0
M  V30 9668 H 871.655 -3.18942 4.29162 0
M  V30 9669 H 871.998 -3.26647 2.58085 0
M  V30 9670 H 872.531 -1.85147 3.52087 0
M  V30 9671 H 869.27 -1.19365 6.4454 0
M  V30 9672 H 868.79 -2.56628 5.42128 0
M  V30 9673 H 870.469 -2.42458 5.99853 0
M  V30 9674 N 870.601 -1.47988 -0.541979 0
M  V30 9675 C 871.548 -1.61615 -1.6477 0
M  V30 9676 C 872.518 -0.458602 -1.59644 0
M  V30 9677 O 873.703 -0.680585 -1.78249 0
M  V30 9678 C 870.843 -1.65066 -3.03063 0
M  V30 9679 C 869.956 -2.91845 -3.18513 0
M  V30 9680 C 869.091 -2.86534 -4.47294 0
M  V30 9681 C 868.13 -4.0807 -4.5623 0
M  V30 9682 N 867.267 -4.00905 -5.76385 0
M  V30 9683 H 872.107 -2.56046 -1.52461 0
M  V30 9684 H 869.644 -1.26989 -0.742449 0
M  V30 9685 H 871.602 -1.65049 -3.83164 0
M  V30 9686 H 870.232 -0.74136 -3.14171 0
M  V30 9687 H 869.284 -3.01661 -2.31743 0
M  V30 9688 H 870.596 -3.81804 -3.20978 0
M  V30 9689 H 869.75 -2.84851 -5.35672 0
M  V30 9690 H 868.489 -1.94283 -4.47332 0
M  V30 9691 H 867.494 -4.10041 -3.66261 0
M  V30 9692 H 868.719 -5.01465 -4.5794 0
M  V30 9693 H 866.665 -3.11467 -5.77342 0
M  V30 9694 H 866.582 -4.84557 -5.80293 0
M  V30 9695 H 867.85 -4.03263 -6.67083 0
M  V30 9696 N 872.079 0.78992 -1.36375 0
M  V30 9697 C 873.328 1.54296 -1.29906 0
M  V30 9698 C 873.641 1.95234 0.119651 0
M  V30 9699 O 874.847 2.69762 0.306708 0
M  V30 9700 C 873.303 2.78533 -2.27919 0
M  V30 9701 C 872.911 2.44767 -3.75224 0
M  V30 9702 C 874.655 3.56516 -2.30427 0
M  V30 9703 C 872.562 3.65397 -4.65015 0
M  V30 9704 H 871.492 0.579214 -0.482729 0
M  V30 9705 H 874.143 0.866845 -1.61735 0
M  V30 9706 H 872.525 3.47941 -1.89084 0
M  V30 9707 H 873.699 1.83259 -4.22792 0
M  V30 9708 H 872.014 1.79996 -3.75487 0
M  V30 9709 H 874.611 4.46143 -2.94722 0
M  V30 9710 H 874.954 3.95063 -1.31266 0
M  V30 9711 H 875.487 2.94087 -2.67876 0
M  V30 9712 H 872.226 3.31946 -5.65236 0
M  V30 9713 H 871.746 4.26072 -4.22164 0
M  V30 9714 H 873.425 4.32431 -4.81261 0
M  V30 9715 N 873.557 1.20646 1.01402 0
M  V30 9716 C 874.52 0.959314 2.08158 0
M  V30 9717 C 875.52 -0.0661558 1.60664 0
M  V30 9718 O 876.71 0.170177 1.73367 0
M  V30 9719 C 873.842 0.444785 3.37986 0
M  V30 9720 H 875.035 1.90631 2.31517 0
M  V30 9721 H 872.588 1.02219 1.18241 0
M  V30 9722 H 873.323 -0.507553 3.20304 0
M  V30 9723 H 873.108 1.18435 3.73785 0
M  V30 9724 H 874.598 0.291443 4.16582 0
M  V30 9725 N 875.035 -1.20752 1.01276 0
M  V30 9726 C 875.967 -2.22798 0.537917 0
M  V30 9727 C 876.98 -1.5836 -0.377638 0
M  V30 9728 O 878.169 -1.77624 -0.176599 0
M  V30 9729 C 875.269 -3.38068 -0.237364 0
M  V30 9730 C 874.442 -4.32095 0.679161 0
M  V30 9731 C 873.501 -5.26178 -0.0478676 0
M  V30 9732 O 872.527 -5.66305 0.573366 0
M  V30 9733 N 873.729 -5.65201 -1.32396 0
M  V30 9734 H 876.494 -2.64166 1.4155 0
M  V30 9735 H 874.055 -1.35254 0.889826 0
M  V30 9736 H 876.047 -3.98009 -0.73288 0
M  V30 9737 H 874.617 -2.95622 -1.0162 0
M  V30 9738 H 873.837 -3.70179 1.35505 0
M  V30 9739 H 875.125 -4.91842 1.30263 0
M  V30 9740 H 874.523 -5.34606 -1.84968 0
M  V30 9741 H 873.08 -6.27468 -1.76428 0
M  V30 9742 N 876.513 -0.788492 -1.36457 0
M  V30 9743 C 877.46 -0.18435 -2.30063 0
M  V30 9744 C 878.43 0.67128 -1.51931 0
M  V30 9745 O 879.615 0.620152 -1.8044 0
M  V30 9746 C 876.755 0.675596 -3.38422 0
M  V30 9747 C 875.868 -0.198475 -4.31544 0
M  V30 9748 C 875.003 0.667757 -5.26986 0
M  V30 9749 C 874.042 -0.207825 -6.11747 0
M  V30 9750 N 873.179 0.617335 -6.99381 0
M  V30 9751 H 878.019 -0.988056 -2.81143 0
M  V30 9752 H 875.556 -0.498815 -1.38384 0
M  V30 9753 H 877.514 1.18916 -3.99894 0
M  V30 9754 H 876.144 1.44474 -2.88664 0
M  V30 9755 H 875.196 -0.829995 -3.71235 0
M  V30 9756 H 876.508 -0.873163 -4.91098 0
M  V30 9757 H 875.662 1.24716 -5.93743 0
M  V30 9758 H 874.401 1.37607 -4.67884 0
M  V30 9759 H 873.406 -0.799638 -5.43954 0
M  V30 9760 H 874.631 -0.913729 -6.72925 0
M  V30 9761 H 872.577 1.30996 -6.42788 0
M  V30 9762 H 872.494 0.000307255 -7.56 0
M  V30 9763 H 873.762 1.1806 -7.70508 0
M  V30 9764 N 877.991 1.48044 -0.54043 0
M  V30 9765 C 879.231 2.04396 -0.012296 0
M  V30 9766 C 879.595 1.40748 1.30591 0
M  V30 9767 O 880.796 1.88048 1.92072 0
M  V30 9768 C 879.067 3.5727 0.0964302 0
M  V30 9769 S 880.626 4.35041 0.573117 0
M  V30 9770 H 877.444 0.710795 -0.0170735 0
M  V30 9771 H 880.046 1.81625 -0.723362 0
M  V30 9772 H 878.75 4.01124 -0.86762 0
M  V30 9773 H 878.281 3.84511 0.83156 0
M  V30 9774 H 880.296 4.6099 1.83583 0
M  V30 9775 N 879.47 0.276058 1.55163 0
M  V30 9776 C 880.886 -0.0780579 1.59409 0
M  V30 9777 C 881.086 -1.54521 1.29327 0
M  V30 9778 O 880.142 -2.29422 1.05459 0
M  V30 9779 C 881.455 0.297422 2.99225 0
M  V30 9780 C 883.003 0.244117 3.12047 0
M  V30 9781 C 883.478 0.594051 4.54131 0
M  V30 9782 N 884.969 0.54564 4.59975 0
M  V30 9783 C 885.704 0.789192 5.67943 0
M  V30 9784 N 885.2 1.09741 6.84053 0
M  V30 9785 N 886.993 0.717926 5.57496 0
M  V30 9786 H 879.144 1.23251 1.72982 0
M  V30 9787 H 881.407 0.497988 0.806667 0
M  V30 9788 H 881.113 1.31782 3.26077 0
M  V30 9789 H 880.987 -0.361286 3.75466 0
M  V30 9790 H 883.374 -0.766992 2.84958 0
M  V30 9791 H 883.455 0.937097 2.38017 0
M  V30 9792 H 883.099 1.60285 4.81945 0
M  V30 9793 H 883.029 -0.120728 5.26462 0
M  V30 9794 H 885.52 0.317334 3.76565 0
M  V30 9795 H 885.833 1.26989 7.62295 0
M  V30 9796 H 884.178 1.13519 6.85666 0
M  V30 9797 H 887.369 0.47697 4.65664 0
M  V30 9798 H 887.542 0.911118 6.41563 0
M  V30 9799 N 880.948 -1.576 0.00335426 0
M  V30 9800 C 882.364 -1.55653 -0.352766 0
M  V30 9801 C 882.564 -1.00632 -1.74572 0
M  V30 9802 O 881.62 -0.641621 -2.44212 0
M  V30 9803 C 882.933 -2.99858 -0.224929 0
M  V30 9804 C 884.481 -3.11563 -0.299619 0
M  V30 9805 C 884.956 -4.57559 -0.200868 0
M  V30 9806 N 886.447 -4.62477 -0.258663 0
M  V30 9807 C 887.182 -5.73031 -0.205644 0
M  V30 9808 N 886.678 -6.92723 -0.103027 0
M  V30 9809 N 888.471 -5.61509 -0.257754 0
M  V30 9810 H 880.622 -1.91703 0.914539 0
M  V30 9811 H 882.885 -0.88068 0.350865 0
M  V30 9812 H 882.591 -3.43964 0.733595 0
M  V30 9813 H 882.465 -3.63547 -1.00564 0
M  V30 9814 H 884.852 -2.67384 -1.24859 0
M  V30 9815 H 884.933 -2.50644 0.511025 0
M  V30 9816 H 884.577 -5.02413 0.744572 0
M  V30 9817 H 884.507 -5.16428 -1.03004 0
M  V30 9818 H 886.998 -3.76375 -0.339168 0
M  V30 9819 H 887.311 -7.7277 -0.0685593 0
M  V30 9820 H 885.656 -6.94966 -0.0686069 0
M  V30 9821 H 888.847 -4.66892 -0.336142 0
M  V30 9822 H 889.02 -6.4765 -0.21297 0
M  V30 9823 N 882.426 0.269451 -1.5528 0
M  V30 9824 C 883.376 1.33553 -1.84791 0
M  V30 9825 C 884.36 1.44532 -0.707067 0
M  V30 9826 O 885.552 1.48153 -0.968493 0
M  V30 9827 C 882.681 2.69516 -2.12641 0
M  V30 9828 C 881.767 2.62633 -3.32993 0
M  V30 9829 N 882.158 2.25371 -4.52815 0
M  V30 9830 C 880.456 2.93688 -3.35654 0
M  V30 9831 C 881.157 2.28567 -5.34913 0
M  V30 9832 N 880.133 2.67181 -4.73408 0
M  V30 9833 H 883.935 1.03758 -2.74976 0
M  V30 9834 H 881.449 0.478087 -1.55203 0
M  V30 9835 H 883.446 3.46424 -2.3194 0
M  V30 9836 H 882.106 3.00197 -1.23742 0
M  V30 9837 H 883.117 1.9729 -4.7885 0
M  V30 9838 H 879.794 3.29057 -2.56958 0
M  V30 9839 H 881.184 2.02289 -6.40725 0
M  V30 9840 N 883.904 1.48273 0.534124 0
M  V30 9841 C 885.151 1.56079 1.29017 0
M  V30 9842 C 885.479 0.232912 1.931 0
M  V30 9843 O 884.734 -0.77642 1.79639 0
M  V30 9844 C 885.033 2.64468 2.40398 0
M  V30 9845 C 884.699 4.07034 1.93995 0
M  V30 9846 C 883.361 4.45838 1.81058 0
M  V30 9847 C 885.713 4.96395 1.58877 0
M  V30 9848 C 883.041 5.71812 1.31331 0
M  V30 9849 C 885.393 6.22854 1.10614 0
M  V30 9850 C 884.057 6.60518 0.962895 0
M  V30 9851 H 883.327 0.571135 0.472108 0
M  V30 9852 H 885.974 1.81973 0.5965 0
M  V30 9853 H 884.279 2.32419 3.15418 0
M  V30 9854 H 885.976 2.67725 2.98537 0
M  V30 9855 H 882.566 3.76387 2.05015 0
M  V30 9856 H 886.75 4.67096 1.67734 0
M  V30 9857 H 882.006 5.99722 1.18924 0
M  V30 9858 H 886.18 6.91495 0.825095 0
M  V30 9859 H 883.807 7.58019 0.575369 0
M  V30 9860 N 885.382 -0.782676 1.36792 0
M  V30 9861 C 886.628 -1.54311 1.3159 0
M  V30 9862 C 886.961 -1.93928 -0.102696 0
M  V30 9863 O 886.236 -1.63233 -1.05761 0
M  V30 9864 C 886.519 -2.81561 2.24489 0
M  V30 9865 C 886.372 -2.48268 3.75078 0
M  V30 9866 C 887.691 -3.83428 2.16034 0
M  V30 9867 H 884.81 -0.559828 0.479335 0
M  V30 9868 H 887.452 -0.898717 1.67401 0
M  V30 9869 H 885.602 -3.36549 1.9408 0
M  V30 9870 H 887.274 -1.99279 4.16036 0
M  V30 9871 H 885.517 -1.81116 3.94182 0
M  V30 9872 H 886.188 -3.39183 4.35499 0
M  V30 9873 H 888.664 -3.37905 2.42815 0
M  V30 9874 H 887.54 -4.70204 2.83194 0
M  V30 9875 H 887.801 -4.26887 1.14976 0
M  V30 9876 N 886.86 -1.21182 -1.00761 0
M  V30 9877 C 887.792 -0.926523 -2.09638 0
M  V30 9878 C 888.805 0.0892511 -1.62555 0
M  V30 9879 O 889.994 -0.142915 -1.77927 0
M  V30 9880 C 887.094 -0.369175 -3.36883 0
M  V30 9881 C 886.267 -1.43866 -4.13063 0
M  V30 9882 C 885.326 -0.891015 -5.18601 0
M  V30 9883 O 884.352 -1.57384 -5.47009 0
M  V30 9884 N 885.554 0.295057 -5.7975 0
M  V30 9885 H 888.319 -1.8638 -2.34697 0
M  V30 9886 H 885.88 -1.11671 -1.17223 0
M  V30 9887 H 887.872 0.011534 -4.04698 0
M  V30 9888 H 886.442 0.472861 -3.09003 0
M  V30 9889 H 885.662 -1.99332 -3.40089 0
M  V30 9890 H 886.95 -2.15866 -4.60738 0
M  V30 9891 H 886.348 0.8669 -5.59018 0
M  V30 9892 H 884.905 0.617306 -6.4887 0
M  V30 9893 N 888.338 1.20213 -1.01915 0
M  V30 9894 C 889.584 1.89928 -0.711007 0
M  V30 9895 C 889.917 1.7881 0.75767 0
M  V30 9896 O 889.192 1.17399 1.55073 0
M  V30 9897 C 889.475 3.41225 -1.15053 0
M  V30 9898 C 889.328 3.61264 -2.67971 0
M  V30 9899 C 890.647 4.34108 -0.72377 0
M  V30 9900 H 887.766 0.689702 -0.259768 0
M  V30 9901 H 890.408 1.41557 -1.26734 0
M  V30 9902 H 888.558 3.82552 -0.677199 0
M  V30 9903 H 890.23 3.29173 -3.23176 0
M  V30 9904 H 888.473 3.04647 -3.08824 0
M  V30 9905 H 889.144 4.67331 -2.93779 0
M  V30 9906 H 891.62 4.00442 -1.13073 0
M  V30 9907 H 890.496 5.38581 -1.05931 0
M  V30 9908 H 890.757 4.40512 0.374424 0
M  V30 9909 N 889.816 0.795718 1.36037 0
M  V30 9910 C 890.748 0.156336 2.28666 0
M  V30 9911 C 891.761 -0.638075 1.49775 0
M  V30 9912 O 892.95 -0.472222 1.7214 0
M  V30 9913 C 890.05 -0.801417 3.29288 0
M  V30 9914 C 889.223 -0.0557118 4.37365 0
M  V30 9915 C 888.282 -0.930338 5.1791 0
M  V30 9916 O 887.308 -0.385266 5.67895 0
M  V30 9917 N 888.51 -2.25382 5.34961 0
M  V30 9918 H 891.275 0.952033 2.84177 0
M  V30 9919 H 888.836 0.650189 1.48271 0
M  V30 9920 H 890.828 -1.39051 3.80062 0
M  V30 9921 H 889.398 -1.49796 2.74372 0
M  V30 9922 H 888.618 0.714508 3.87671 0
M  V30 9923 H 889.906 0.458633 5.06729 0
M  V30 9924 H 889.304 -2.72073 4.95977 0
M  V30 9925 H 887.861 -2.79241 5.88955 0
M  V30 9926 N 891.294 -1.47756 0.548274 0
M  V30 9927 C 892.54 -2.02789 0.0209265 0
M  V30 9928 C 892.873 -1.42268 -1.32187 0
M  V30 9929 O 892.148 -0.575001 -1.85806 0
M  V30 9930 C 892.431 -3.60007 -0.0816674 0
M  V30 9931 C 892.284 -4.30977 1.28759 0
M  V30 9932 C 893.603 -4.32777 -0.799515 0
M  V30 9933 H 890.722 -0.736944 0.00907884 0
M  V30 9934 H 893.364 -1.76282 0.708839 0
M  V30 9935 H 891.514 -3.82722 -0.667537 0
M  V30 9936 H 893.186 -4.19629 1.91597 0
M  V30 9937 H 891.429 -3.9168 1.86466 0
M  V30 9938 H 892.1 -5.39488 1.16861 0
M  V30 9939 H 894.576 -4.15001 -0.30216 0
M  V30 9940 H 893.452 -5.42431 -0.840239 0
M  V30 9941 H 893.713 -4.01358 -1.85375 0
M  V30 9942 N 892.772 -0.284283 -1.55015 0
M  V30 9943 C 894.02 0.329212 -1.99401 0
M  V30 9944 C 894.341 1.55687 -1.17416 0
M  V30 9945 O 893.611 1.94087 -0.265937 0
M  V30 9946 H 892.191 0.12463 -0.73653 0
M  V30 9947 H 894.853 -0.391743 -1.90922 0
M  V30 9948 H 893.949 0.61278 -3.06025 0
M  V30 9949 N 894.251 1.57596 -0.0117121 0
M  V30 9950 C 895.161 2.12596 0.991964 0
M  V30 9951 C 896.177 1.07399 1.36899 0
M  V30 9952 O 897.353 1.39365 1.45394 0
M  V30 9953 C 894.418 2.62796 2.2614 0
M  V30 9954 C 893.479 3.8264 1.94642 0
M  V30 9955 C 892.712 4.30435 3.15533 0
M  V30 9956 O 892.935 3.77495 4.27614 0
M  V30 9957 O 891.869 5.22469 2.98847 0
M  V30 9958 H 895.695 2.98597 0.554371 0
M  V30 9959 H 893.28 1.47947 0.207839 0
M  V30 9960 H 895.162 2.9523 3.00695 0
M  V30 9961 H 893.837 1.79886 2.69114 0
M  V30 9962 H 892.744 3.5516 1.17526 0
M  V30 9963 H 894.077 4.66658 1.56496 0
M  V30 9964 N 895.729 -0.261212 1.5542 0
M  V30 9965 C 896.975 -0.992699 1.76843 0
M  V30 9966 C 897.308 -1.8551 0.574428 0
M  V30 9967 O 896.583 -1.89739 -0.427713 0
M  V30 9968 C 896.866 -1.86532 3.08022 0
M  V30 9969 C 896.719 -1.03206 4.378 0
M  V30 9970 C 898.038 -2.85036 3.35324 0
M  V30 9971 H 895.157 -0.359473 0.643388 0
M  V30 9972 H 897.799 -0.264214 1.88154 0
M  V30 9973 H 895.949 -2.48644 2.9851 0
M  V30 9974 H 897.621 -0.430743 4.59285 0
M  V30 9975 H 895.864 -0.335911 4.32497 0
M  V30 9976 H 896.535 -1.6761 5.25938 0
M  V30 9977 H 899.011 -2.3306 3.44706 0
M  V30 9978 H 897.887 -3.43226 4.28354 0
M  V30 9979 H 898.148 -3.60768 2.55537 0
M  V30 9980 N 897.207 -1.48554 -0.526253 0
M  V30 9981 C 898.14 -1.57928 -1.64724 0
M  V30 9982 C 899.118 -0.429536 -1.56824 0
M  V30 9983 O 900.302 -0.641651 -1.77243 0
M  V30 9984 C 897.429 -1.51075 -3.0314 0
M  V30 9985 C 896.475 -2.70937 -3.29386 0
M  V30 9986 S 897.308 -4.3287 -3.15251 0
M  V30 9987 C 898.464 -4.28622 -4.56108 0
M  V30 9988 H 898.697 -2.52761 -1.56523 0
M  V30 9989 H 896.23 -1.37133 -0.7095 0
M  V30 9990 H 898.188 -1.47808 -3.82966 0
M  V30 9991 H 896.849 -0.57574 -3.08778 0
M  V30 9992 H 896.042 -2.62291 -4.30371 0
M  V30 9993 H 895.644 -2.71486 -2.57238 0
M  V30 9994 H 897.936 -3.98784 -5.47702 0
M  V30 9995 H 898.879 -5.29798 -4.69808 0
M  V30 9996 H 899.287 -3.59038 -4.35605 0
M  V30 9997 N 898.685 0.775411 -1.37205 0
M  V30 9998 C 900.096 1.35147 -1.28811 0
M  V30 9999 C 900.447 1.96089 0.0659168 0
M  V30 10000 O 899.572 1.93558 0.967684 0
M  V30 10001 C 900.167 2.45715 -2.33258 0
M  V30 10002 C 898.726 2.99099 -2.2851 0
M  V30 10003 C 897.873 1.72286 -2.17285 0
M  V30 10004 H 900.824 0.575954 -1.4788 0
M  V30 10005 H 900.845 3.251 -1.97712 0
M  V30 10006 H 900.357 2.01331 -3.31795 0
M  V30 10007 H 898.458 3.47868 -1.33485 0
M  V30 10008 H 898.571 3.54962 -3.21774 0
M  V30 10009 H 896.935 1.95068 -1.6377 0
M  V30 10010 H 897.718 1.3001 -3.1773 0
M  V30 10011 N 900.163 1.21714 1.00117 0
M  V30 10012 C 901.41 1.0367 1.73951 0
M  V30 10013 C 901.738 -0.429289 1.89703 0
M  V30 10014 O 900.993 -1.33475 1.43119 0
M  V30 10015 C 901.292 1.68345 3.15269 0
M  V30 10016 C 900.958 3.18214 3.19454 0
M  V30 10017 C 899.62 3.59109 3.20303 0
M  V30 10018 C 901.972 4.14179 3.16394 0
M  V30 10019 C 899.3 4.94467 3.15783 0
M  V30 10020 C 901.652 5.49502 3.13416 0
M  V30 10021 C 900.316 5.8979 3.12577 0
M  V30 10022 H 899.586 0.379355 0.63653 0
M  V30 10023 H 902.233 1.51361 1.17312 0
M  V30 10024 H 900.538 1.12957 3.75164 0
M  V30 10025 H 902.235 1.51882 3.71124 0
M  V30 10026 H 898.825 2.85646 3.19538 0
M  V30 10027 H 903.009 3.83607 3.14895 0
M  V30 10028 H 898.265 5.24923 3.13473 0
M  V30 10029 H 902.439 6.23595 3.10003 0
M  V30 10030 H 900.066 6.94643 3.08829 0
M  V30 10031 N 901.641 -1.19671 1.02551 0
M  V30 10032 C 902.89 -1.88591 0.715272 0
M  V30 10033 C 903.203 -1.80274 -0.758982 0
M  V30 10034 O 904.409 -2.44413 -1.18213 0
M  V30 10035 C 902.865 -3.38264 1.22905 0
M  V30 10036 C 902.473 -3.55146 2.73084 0
M  V30 10037 C 904.217 -4.12683 0.994649 0
M  V30 10038 C 902.124 -4.98693 3.17897 0
M  V30 10039 H 901.054 -0.706326 0.263857 0
M  V30 10040 H 903.705 -1.35322 1.23936 0
M  V30 10041 H 902.087 -3.9091 0.632892 0
M  V30 10042 H 903.261 -3.12845 3.38326 0
M  V30 10043 H 901.576 -2.94112 2.94766 0
M  V30 10044 H 904.173 -5.18536 1.30478 0
M  V30 10045 H 904.516 -4.16243 -0.0686466 0
M  V30 10046 H 905.049 -3.66164 1.55464 0
M  V30 10047 H 901.788 -5.00293 4.23542 0
M  V30 10048 H 901.308 -5.4177 2.57381 0
M  V30 10049 H 902.987 -5.67327 3.11045 0
M  V30 10050 N 903.119 -0.802921 -1.35613 0
M  V30 10051 C 904.396 -0.304993 -1.93208 0
M  V30 10052 C 904.776 1.20488 -1.73337 0
M  V30 10053 O 904.124 2.00268 -1.10022 0
M  V30 10054 C 904.334 -0.712383 -3.41652 0
M  V30 10055 C 905.682 -0.699785 -4.18794 0
M  V30 10056 O 906.706 -0.653698 -3.5015 0
M  V30 10057 O 905.565 -0.754842 -5.41262 0
M  V30 10058 H 902.659 -0.0789127 -0.823226 0
M  V30 10059 H 905.205 -0.886372 -1.44712 0
M  V30 10060 H 903.977 -1.75316 -3.49829 0
M  V30 10061 H 903.6 -0.105614 -3.9746 0
M  V30 10062 N 904.597 1.47463 -0.556102 0
M  V30 10063 C 905.507 2.33785 0.195378 0
M  V30 10064 C 906.523 1.48123 0.913 0
M  V30 10065 O 907.699 1.81053 0.882141 0
M  V30 10066 C 904.764 3.24795 1.21282 0
M  V30 10067 C 903.825 4.26346 0.502747 0
M  V30 10068 C 903.058 5.13007 1.47172 0
M  V30 10069 O 903.281 5.02103 2.70646 0
M  V30 10070 O 902.215 5.93588 0.996814 0
M  V30 10071 H 906.041 2.99341 -0.512676 0
M  V30 10072 H 903.626 1.46004 -0.31673 0
M  V30 10073 H 905.508 3.81015 1.80016 0
M  V30 10074 H 904.183 2.61868 1.90282 0
M  V30 10075 H 903.09 3.73889 -0.125757 0
M  V30 10076 H 904.423 4.91984 -0.145779 0
M  V30 10077 N 906.075 0.2925 1.54862 0
M  V30 10078 C 907.324 -0.319994 1.99146 0
M  V30 10079 C 907.637 -1.55658 1.18448 0
M  V30 10080 O 908.843 -2.24312 1.52959 0
M  V30 10081 C 907.299 -0.620665 3.54508 0
M  V30 10082 C 906.907 0.597098 4.44003 0
M  V30 10083 C 908.651 -1.19482 4.07338 0
M  V30 10084 C 906.558 0.270049 5.90783 0
M  V30 10085 H 905.488 -0.123342 0.743843 0
M  V30 10086 H 908.139 0.399876 1.7909 0
M  V30 10087 H 906.521 -1.3999 3.7043 0
M  V30 10088 H 907.695 1.37354 4.39853 0
M  V30 10089 H 906.01 1.0893 4.019 0
M  V30 10090 H 908.607 -1.45362 5.14562 0
M  V30 10091 H 908.95 -2.13435 3.57423 0
M  V30 10092 H 909.483 -0.477485 3.94924 0
M  V30 10093 H 906.222 1.17791 6.4483 0
M  V30 10094 H 905.742 -0.469292 5.97961 0
M  V30 10095 H 907.421 -0.131471 6.46866 0
M  V30 10096 N 907.553 -1.57587 0.0200696 0
M  V30 10097 C 908.483 -2.12702 -0.963333 0
M  V30 10098 C 909.464 -1.04094 -1.34531 0
M  V30 10099 O 910.649 -1.31881 -1.42552 0
M  V30 10100 C 907.779 -2.64673 -2.24868 0
M  V30 10101 C 906.733 -3.77987 -2.00772 0
M  V30 10102 C 906.059 -4.16351 -3.35494 0
M  V30 10103 C 907.359 -5.0444 -1.35416 0
M  V30 10104 H 909.053 -2.95121 -0.504363 0
M  V30 10105 H 906.599 -1.41966 -0.24116 0
M  V30 10106 H 908.552 -3.01862 -2.94036 0
M  V30 10107 H 907.276 -1.79403 -2.72914 0
M  V30 10108 H 905.935 -3.41223 -1.34025 0
M  V30 10109 H 905.583 -3.28075 -3.81282 0
M  V30 10110 H 905.283 -4.92705 -3.20181 0
M  V30 10111 H 906.807 -4.56115 -4.05945 0
M  V30 10112 H 908.221 -5.39273 -1.94571 0
M  V30 10113 H 906.618 -5.85732 -1.30529 0
M  V30 10114 H 907.688 -4.83803 -0.325923 0
M  V30 10115 N 909.032 0.252966 -1.55557 0
M  V30 10116 C 909.98 1.33289 -1.90622 0
M  V30 10117 C 910.974 1.50133 -0.784638 0
M  V30 10118 O 912.18 1.51679 -0.969196 0
M  V30 10119 H 908.555 0.446196 -0.605321 0
M  V30 10120 H 910.526 1.00977 -2.80796 0
M  V30 10121 C 909.275 2.68254 -2.21213 0
M  V30 10122 H 908.598 2.5609 -3.07014 0
M  V30 10123 H 910.038 3.42707 -2.49656 0
M  V30 10124 C 908.497 3.20884 -1.02642 0
M  V30 10125 O 909.027 4.00783 -0.271292 0
M  V30 10126 N 907.233 2.7883 -0.818682 0
M  V30 10127 H 906.78 2.13966 -1.43444 0
M  V30 10128 H 906.738 3.14388 -0.0269989 0
M  V30 10129 N 910.51 1.48831 0.518367 0
M  V30 10130 C 911.458 1.64678 1.64268 0
M  V30 10131 C 912.452 0.512967 1.61447 0
M  V30 10132 O 913.658 0.692063 1.66164 0
M  V30 10133 H 910.033 0.518964 0.544224 0
M  V30 10134 H 912.004 2.59083 1.4805 0
M  V30 10135 C 910.753 1.71449 3.0249 0
M  V30 10136 H 910.076 2.58061 3.0536 0
M  V30 10137 H 911.516 1.86577 3.80743 0
M  V30 10138 C 909.975 0.455584 3.33805 0
M  V30 10139 O 910.505 -0.426428 3.9943 0
M  V30 10140 N 908.711 0.323763 2.88791 0
M  V30 10141 H 908.258 1.04249 2.35563 0
M  V30 10142 H 908.216 -0.517514 3.10112 0
M  V30 10143 N 911.988 -0.768124 1.37614 0
M  V30 10144 C 913.237 -1.5221 1.32345 0
M  V30 10145 C 913.55 -1.95399 -0.0885761 0
M  V30 10146 O 914.756 -2.70216 -0.263752 0
M  V30 10147 C 913.212 -2.74872 2.32322 0
M  V30 10148 C 912.82 -2.38767 3.79071 0
M  V30 10149 C 914.564 -3.52805 2.36069 0
M  V30 10150 C 912.471 -3.57953 4.7077 0
M  V30 10151 H 911.401 -0.571461 0.491883 0
M  V30 10152 H 914.052 -0.841004 1.63093 0
M  V30 10153 H 912.434 -3.44889 1.94596 0
M  V30 10154 H 913.608 -1.7651 4.25654 0
M  V30 10155 H 911.923 -1.74 3.78303 0
M  V30 10156 H 914.52 -4.41397 3.01782 0
M  V30 10157 H 914.863 -3.92925 1.37535 0
M  V30 10158 H 915.396 -2.89788 2.72521 0
M  V30 10159 H 912.135 -3.22911 5.70446 0
M  V30 10160 H 911.655 -4.19302 4.28889 0
M  V30 10161 H 913.334 -4.2472 4.8808 0
M  V30 10162 N 913.466 -1.22244 -0.994698 0
M  V30 10163 C 914.414 -0.988118 -2.10568 0
M  V30 10164 C 915.408 0.0681541 -1.69263 0
M  V30 10165 O 916.614 -0.0841311 -1.79803 0
M  V30 10166 H 912.989 -0.302343 -0.688544 0
M  V30 10167 H 914.96 -1.93091 -2.27505 0
M  V30 10168 C 913.709 -0.580557 -3.42819 0
M  V30 10169 H 913.032 -1.385 -3.75044 0
M  V30 10170 H 914.472 -0.456004 -4.21541 0
M  V30 10171 C 912.931 0.709692 -3.2934 0
M  V30 10172 O 913.461 1.76259 -3.60965 0
M  V30 10173 N 911.667 0.680155 -2.82528 0
M  V30 10174 H 911.214 -0.176977 -2.56991 0
M  V30 10175 H 911.172 1.54372 -2.73892 0
M  V30 10176 N 914.944 1.19125 -1.03184 0
M  V30 10177 C 916.172 1.92838 -0.74975 0
M  V30 10178 C 916.587 1.75667 0.691851 0
M  V30 10179 O 915.944 1.0805 1.47076 0
M  V30 10180 C 915.995 3.44509 -1.09525 0
M  V30 10181 O 915.716 3.6113 -2.48025 0
M  V30 10182 C 917.217 4.35338 -0.836397 0
M  V30 10183 H 914.437 0.61246 -0.274105 0
M  V30 10184 H 916.981 1.5118 -1.37712 0
M  V30 10185 H 915.136 3.83988 -0.513006 0
M  V30 10186 H 915.55 4.54959 -2.60984 0
M  V30 10187 H 917.024 5.4035 -1.12808 0
M  V30 10188 H 917.501 4.38602 0.229102 0
M  V30 10189 H 918.107 4.01544 -1.40152 0
M  V30 10190 N 916.422 0.810101 1.35185 0
M  V30 10191 C 917.671 0.388589 1.97921 0
M  V30 10192 C 917.984 -1.05079 1.64978 0
M  V30 10193 O 919.19 -1.57559 2.21105 0
M  V30 10194 C 917.646 0.643864 3.54094 0
M  V30 10195 C 917.254 2.09602 3.95943 0
M  V30 10196 C 918.998 0.287883 4.23523 0
M  V30 10197 C 916.905 2.29686 5.44976 0
M  V30 10198 H 915.835 0.141562 0.740592 0
M  V30 10199 H 918.486 0.994653 1.54204 0
M  V30 10200 H 916.868 -0.0321978 3.95987 0
M  V30 10201 H 918.042 2.81018 3.65192 0
M  V30 10202 H 916.357 2.4122 3.39414 0
M  V30 10203 H 918.954 0.415946 5.3308 0
M  V30 10204 H 919.297 -0.766305 4.09186 0
M  V30 10205 H 919.83 0.918004 3.87063 0
M  V30 10206 H 916.569 3.33563 5.64284 0
M  V30 10207 H 916.089 1.62798 5.77284 0
M  V30 10208 H 917.768 2.11411 6.11485 0
M  V30 10209 N 917.9 -1.47166 0.563914 0
M  V30 10210 C 919.149 -2.0166 0.0401871 0
M  V30 10211 C 919.462 -1.44303 -1.32046 0
M  V30 10212 O 920.668 -1.905 -1.93448 0
M  V30 10213 C 919.124 -3.59894 0.0213257 0
M  V30 10214 C 918.732 -4.26244 1.37914 0
M  V30 10215 C 920.476 -4.22114 -0.449442 0
M  V30 10216 C 918.383 -5.76503 1.31902 0
M  V30 10217 H 917.313 -0.753916 0.0112534 0
M  V30 10218 H 919.964 -1.69091 0.712766 0
M  V30 10219 H 918.346 -3.89454 -0.717038 0
M  V30 10220 H 919.52 -4.08317 2.13574 0
M  V30 10221 H 917.835 -3.76039 1.78839 0
M  V30 10222 H 920.432 -5.32234 -0.51292 0
M  V30 10223 H 920.775 -3.89749 -1.46291 0
M  V30 10224 H 921.308 -3.9711 0.23427 0
M  V30 10225 H 918.047 -6.13498 2.3087 0
M  V30 10226 H 917.567 -5.96748 0.604324 0
M  V30 10227 H 919.246 -6.38846 1.02392 0
M  V30 10228 N 919.378 -0.300708 -1.54705 0
M  V30 10229 C 920.618 0.30953 -2.02043 0
M  V30 10230 C 920.982 1.51114 -1.18442 0
M  V30 10231 O 922.183 2.19273 -1.55477 0
M  V30 10232 C 920.454 0.657489 -3.513 0
M  V30 10233 S 922.013 1.25063 -4.206 0
M  V30 10234 H 918.831 0.0950019 -0.704624 0
M  V30 10235 H 921.433 -0.428512 -1.90746 0
M  V30 10236 H 920.137 -0.225532 -4.0978 0
M  V30 10237 H 919.668 1.42633 -3.66633 0
M  V30 10238 H 921.683 2.53844 -4.26354 0
M  V30 10239 N 920.856 1.57574 -0.0284266 0
M  V30 10240 C 922.133 1.83064 0.688979 0
M  V30 10241 C 922.513 0.91219 1.90374 0
M  V30 10242 O 921.861 -0.0323672 2.28477 0
M  V30 10243 C 922.071 3.32262 1.06785 0
M  V30 10244 C 923.419 3.98717 1.45978 0
M  V30 10245 O 924.443 3.36753 1.16085 0
M  V30 10246 O 923.302 5.07927 2.01673 0
M  V30 10247 H 920.396 0.7548 0.337944 0
M  V30 10248 H 922.942 1.69607 -0.0560555 0
M  V30 10249 H 921.714 3.90772 0.203235 0
M  V30 10250 H 921.337 3.50823 1.87107 0
M  V30 10251 N 922.334 -0.244713 1.55689 0
M  V30 10252 C 923.264 -1.30667 1.93516 0
M  V30 10253 C 924.245 -1.50094 0.800371 0
M  V30 10254 O 925.43 -1.62665 1.06083 0
M  V30 10255 C 922.56 -2.66101 2.23176 0
M  V30 10256 C 921.514 -2.61366 3.38927 0
M  V30 10257 C 920.84 -4.00616 3.54134 0
M  V30 10258 C 922.14 -2.18161 4.74555 0
M  V30 10259 H 923.834 -0.992546 2.82469 0
M  V30 10260 H 921.38 -0.476018 1.35905 0
M  V30 10261 H 923.333 -3.4053 2.48228 0
M  V30 10262 H 922.057 -2.99154 1.31051 0
M  V30 10263 H 920.716 -1.89395 3.13887 0
M  V30 10264 H 920.364 -4.30938 2.59426 0
M  V30 10265 H 920.064 -3.98335 4.31975 0
M  V30 10266 H 921.588 -4.76741 3.8151 0
M  V30 10267 H 923.002 -2.82323 4.98965 0
M  V30 10268 H 921.399 -2.26988 5.55515 0
M  V30 10269 H 922.469 -1.13333 4.7147 0
M  V30 10270 N 923.813 -1.49104 -0.510467 0
M  V30 10271 C 924.745 -1.61183 -1.6295 0
M  V30 10272 C 925.758 -0.495003 -1.55092 0
M  V30 10273 O 926.947 -0.766671 -1.61197 0
M  V30 10274 C 924.047 -1.54373 -3.01699 0
M  V30 10275 C 923.22 -2.81428 -3.34838 0
M  V30 10276 C 922.279 -2.67802 -4.52956 0
M  V30 10277 O 921.305 -3.41723 -4.55208 0
M  V30 10278 N 922.507 -1.78715 -5.52305 0
M  V30 10279 H 925.272 -2.57693 -1.53018 0
M  V30 10280 H 922.833 -1.46073 -0.698152 0
M  V30 10281 H 924.825 -1.42924 -3.78622 0
M  V30 10282 H 923.395 -0.657597 -3.05605 0
M  V30 10283 H 922.615 -3.07299 -2.46903 0
M  V30 10284 H 923.903 -3.6568 -3.53773 0
M  V30 10285 H 923.301 -1.17897 -5.53278 0
M  V30 10286 H 921.858 -1.73194 -6.28369 0
M  V30 10287 N 925.291 0.760815 -1.38019 0
M  V30 10288 C 926.702 1.33773 -1.30237 0
M  V30 10289 C 927.053 1.96148 0.0451153 0
M  V30 10290 O 926.178 1.94574 0.9471 0
M  V30 10291 C 926.773 2.43227 -2.35851 0
M  V30 10292 C 925.332 2.96659 -2.31669 0
M  V30 10293 C 924.479 1.69972 -2.191 0
M  V30 10294 H 927.43 0.560237 -1.48482 0
M  V30 10295 H 927.451 3.22985 -2.01149 0
M  V30 10296 H 926.963 1.978 -3.33911 0
M  V30 10297 H 925.064 3.46433 -1.37167 0
M  V30 10298 H 925.177 3.51529 -3.25521 0
M  V30 10299 H 923.541 1.9332 -1.65829 0
M  V30 10300 H 924.324 1.26633 -3.19091 0
M  V30 10301 N 926.769 1.22769 0.988202 0
M  V30 10302 C 927.701 0.959757 2.08138 0
M  V30 10303 C 928.714 -0.0633787 1.62677 0
M  V30 10304 O 929.903 0.171203 1.77677 0
M  V30 10305 C 927.003 0.422724 3.36253 0
M  V30 10306 C 926.176 1.50419 4.10722 0
M  V30 10307 C 925.235 0.973407 5.17118 0
M  V30 10308 O 924.261 1.66066 5.44436 0
M  V30 10309 N 925.463 -0.202787 5.80146 0
M  V30 10310 H 928.228 1.9009 2.31702 0
M  V30 10311 H 925.789 1.13522 1.15431 0
M  V30 10312 H 927.781 0.0528514 4.04665 0
M  V30 10313 H 926.351 -0.423642 3.09716 0
M  V30 10314 H 925.571 2.04718 3.36874 0
M  V30 10315 H 926.859 2.23169 4.57245 0
M  V30 10316 H 926.257 -0.777856 5.60327 0
M  V30 10317 H 924.814 -0.513998 6.4977 0
M  V30 10318 N 928.247 -1.18576 1.03814 0
M  V30 10319 C 929.179 -2.21607 0.585055 0
M  V30 10320 C 930.192 -1.59125 -0.343963 0
M  V30 10321 O 931.381 -1.77959 -0.138882 0
M  V30 10322 C 928.481 -3.38495 -0.165602 0
M  V30 10323 C 927.654 -4.30557 0.770662 0
M  V30 10324 C 926.713 -5.26161 0.0637534 0
M  V30 10325 O 925.739 -5.64961 0.693359 0
M  V30 10326 N 926.941 -5.67882 -1.20377 0
M  V30 10327 H 929.706 -2.61104 1.47121 0
M  V30 10328 H 927.267 -1.33336 0.918316 0
M  V30 10329 H 929.259 -3.99474 -0.648292 0
M  V30 10330 H 927.829 -2.97711 -0.953268 0
M  V30 10331 H 927.049 -3.67221 1.43326 0
M  V30 10332 H 928.337 -4.88969 1.40667 0
M  V30 10333 H 927.735 -5.38409 -1.73586 0
M  V30 10334 H 926.292 -6.31069 -1.63079 0
M  V30 10335 N 929.725 -0.817259 -1.34754 0
M  V30 10336 C 930.971 -0.403244 -1.98751 0
M  V30 10337 C 931.304 1.02963 -1.64658 0
M  V30 10338 O 930.579 1.71617 -0.915314 0
M  V30 10339 C 930.862 -0.599188 -3.5508 0
M  V30 10340 C 930.715 -2.07777 -3.98934 0
M  V30 10341 C 932.034 -0.0315656 -4.40089 0
M  V30 10342 H 929.153 -0.147988 -0.721989 0
M  V30 10343 H 931.795 -1.02877 -1.59738 0
M  V30 10344 H 929.945 -0.0667116 -3.88443 0
M  V30 10345 H 931.617 -2.67345 -3.75931 0
M  V30 10346 H 929.86 -2.57031 -3.49453 0
M  V30 10347 H 930.531 -2.16571 -5.07741 0
M  V30 10348 H 933.007 -0.48644 -4.13247 0
M  V30 10349 H 931.883 -0.198507 -5.48541 0
M  V30 10350 H 932.144 1.06302 -4.2913 0
M  V30 10351 N 931.203 1.46865 -0.571711 0
M  V30 10352 C 932.153 2.27219 0.188503 0
M  V30 10353 C 933.137 1.35221 0.872019 0
M  V30 10354 O 934.329 1.59474 0.76793 0
M  V30 10355 C 931.458 3.21321 1.20862 0
M  V30 10356 C 930.544 4.20803 0.527783 0
M  V30 10357 N 930.935 5.04132 -0.410403 0
M  V30 10358 C 929.233 4.39128 0.779909 0
M  V30 10359 C 929.934 5.76071 -0.80728 0
M  V30 10360 N 928.91 5.43368 -0.158865 0
M  V30 10361 H 932.712 2.89034 -0.532611 0
M  V30 10362 H 930.226 1.57581 -0.392696 0
M  V30 10363 H 932.223 3.77586 1.76733 0
M  V30 10364 H 930.883 2.61065 1.93067 0
M  V30 10365 H 931.894 5.11911 -0.785351 0
M  V30 10366 H 928.571 3.90031 1.48937 0
M  V30 10367 H 929.961 6.53082 -1.57903 0
M  V30 10368 N 932.681 0.308908 1.54543 0
M  V30 10369 C 933.909 -0.300418 2.04707 0
M  V30 10370 C 934.324 -1.46915 1.18581 0
M  V30 10371 O 933.681 -1.81251 0.213186 0
M  V30 10372 C 933.732 -0.749038 3.53655 0
M  V30 10373 O 933.453 0.373181 4.36508 0
M  V30 10374 C 934.954 -1.4227 4.1985 0
M  V30 10375 H 932.174 -0.0641267 0.667929 0
M  V30 10376 H 934.718 0.450839 1.99469 0
M  V30 10377 H 932.873 -1.4503 3.59228 0
M  V30 10378 H 933.287 0.0224752 5.24495 0
M  V30 10379 H 934.761 -1.68768 5.25568 0
M  V30 10380 H 935.238 -2.36531 3.70067 0
M  V30 10381 H 935.844 -0.764404 4.18374 0
M  V30 10382 N 934.159 -1.57557 0.0367827 0
M  V30 10383 C 935.406 -1.92114 -0.640185 0
M  V30 10384 C 935.734 -0.913887 -1.71693 0
M  V30 10385 O 934.989 0.0760343 -1.95552 0
M  V30 10386 C 935.288 -3.33387 -1.28794 0
M  V30 10387 C 934.954 -4.4961 -0.340819 0
M  V30 10388 C 933.616 -4.81133 -0.0801574 0
M  V30 10389 C 935.968 -5.20283 0.309106 0
M  V30 10390 C 933.296 -5.80683 0.838107 0
M  V30 10391 C 935.648 -6.20813 1.21547 0
M  V30 10392 C 934.312 -6.50773 1.48495 0
M  V30 10393 H 933.582 -0.702996 -0.23426 0
M  V30 10394 H 936.229 -1.91238 0.100188 0
M  V30 10395 H 934.534 -3.30561 -2.10324 0
M  V30 10396 H 936.231 -3.57399 -1.81843 0
M  V30 10397 H 932.821 -4.25002 -0.554161 0
M  V30 10398 H 937.005 -4.96153 0.120794 0
M  V30 10399 H 932.261 -6.02238 1.05451 0
M  V30 10400 H 936.435 -6.74692 1.72522 0
M  V30 10401 H 934.062 -7.27727 2.19814 0
M  V30 10402 N 935.637 0.236453 -1.55816 0
M  V30 10403 C 936.867 0.978873 -1.81939 0
M  V30 10404 C 937.275 1.79041 -0.611647 0
M  V30 10405 O 936.618 1.78616 0.429172 0
M  V30 10406 C 936.68 1.9569 -3.01572 0
M  V30 10407 C 936.344 1.33131 -4.37178 0
M  V30 10408 C 937.341 0.728585 -5.1477 0
M  V30 10409 C 935.026 1.34755 -4.83887 0
M  V30 10410 C 937.02 0.150427 -6.37222 0
M  V30 10411 C 934.707 0.765539 -6.06286 0
M  V30 10412 C 935.705 0.168017 -6.82793 0
M  V30 10413 O 935.393 -0.404976 -8.02879 0
M  V30 10414 H 935.125 0.293186 -0.609113 0
M  V30 10415 H 937.679 0.261384 -2.0373 0
M  V30 10416 H 935.909 2.71298 -2.75562 0
M  V30 10417 H 937.598 2.56362 -3.14695 0
M  V30 10418 H 938.364 0.708477 -4.79797 0
M  V30 10419 H 934.243 1.80202 -4.24321 0
M  V30 10420 H 937.787 -0.316586 -6.96881 0
M  V30 10421 H 933.684 0.78301 -6.40733 0
M  V30 10422 H 934.452 -0.29785 -8.17958 0
M  V30 10423 N 937.115 1.49373 0.502552 0
M  V30 10424 C 938.025 1.68659 1.63068 0
M  V30 10425 C 939.041 0.569182 1.64427 0
M  V30 10426 O 940.217 0.843695 1.82876 0
M  V30 10427 C 937.282 1.74745 2.99441 0
M  V30 10428 C 936.343 2.98311 3.08721 0
M  V30 10429 C 935.576 3.04097 4.38589 0
M  V30 10430 O 935.799 2.17519 5.27297 0
M  V30 10431 O 934.733 3.96544 4.52809 0
M  V30 10432 H 938.559 2.64226 1.49727 0
M  V30 10433 H 936.144 1.33096 0.67867 0
M  V30 10434 H 938.026 1.8111 3.80496 0
M  V30 10435 H 936.701 0.823565 3.13048 0
M  V30 10436 H 935.608 2.97465 2.2686 0
M  V30 10437 H 936.941 3.90174 3.00041 0
M  V30 10438 N 938.594 -0.753485 1.38421 0
M  V30 10439 C 939.557 -1.84888 1.35459 0
M  V30 10440 C 940.557 -1.58764 0.255083 0
M  V30 10441 O 941.747 -1.66507 0.511978 0
M  V30 10442 C 938.879 -3.22361 1.10888 0
M  V30 10443 H 940.072 -1.88922 2.32913 0
M  V30 10444 H 937.625 -0.955199 1.23716 0
M  V30 10445 H 938.36 -3.23996 0.1404 0
M  V30 10446 H 938.145 -3.42717 1.90492 0
M  V30 10447 H 939.635 -4.02437 1.1151 0
M  V30 10448 N 940.072 -1.23292 -0.981677 0
M  V30 10449 C 941.318 -1.06582 -1.72535 0
M  V30 10450 C 941.651 0.396538 -1.90108 0
M  V30 10451 O 940.926 1.29363 -1.45243 0
M  V30 10452 C 941.209 -1.7904 -3.12437 0
M  V30 10453 C 941.062 -3.32941 -3.02441 0
M  V30 10454 C 942.381 -1.55185 -4.11832 0
M  V30 10455 H 939.5 -0.388585 -0.626236 0
M  V30 10456 H 942.142 -1.51779 -1.14293 0
M  V30 10457 H 940.292 -1.40619 -3.62158 0
M  V30 10458 H 941.964 -3.80875 -2.60254 0
M  V30 10459 H 940.207 -3.62039 -2.38977 0
M  V30 10460 H 940.878 -3.78827 -4.0149 0
M  V30 10461 H 943.354 -1.88581 -3.70913 0
M  V30 10462 H 942.23 -2.08362 -5.07815 0
M  V30 10463 H 942.491 -0.486925 -4.3941 0
M  V30 10464 N 941.55 1.18024 -1.04442 0
M  V30 10465 C 942.798 1.87727 -0.74854 0
M  V30 10466 C 943.119 1.80975 0.726156 0
M  V30 10467 O 942.389 1.23061 1.52423 0
M  V30 10468 H 940.969 0.694974 -0.273897 0
M  V30 10469 H 943.631 1.43213 -1.32197 0
M  V30 10470 H 942.727 2.93665 -1.05674 0
M  V30 10471 N 943.028 0.824394 1.34319 0
M  V30 10472 C 944.258 0.425576 2.02169 0
M  V30 10473 C 944.666 -0.973596 1.62227 0
M  V30 10474 O 944.009 -1.64173 0.824199 0
M  V30 10475 C 944.071 0.449902 3.56674 0
M  V30 10476 C 943.735 1.80266 4.19944 0
M  V30 10477 C 944.732 2.76373 4.40357 0
M  V30 10478 C 942.417 2.09155 4.56683 0
M  V30 10479 C 944.411 3.9954 4.96635 0
M  V30 10480 C 942.098 3.32581 5.12672 0
M  V30 10481 C 943.096 4.27591 5.32592 0
M  V30 10482 O 942.784 5.48837 5.87395 0
M  V30 10483 H 942.516 0.168866 0.654569 0
M  V30 10484 H 945.07 1.11441 1.7254 0
M  V30 10485 H 943.3 -0.295631 3.85568 0
M  V30 10486 H 944.989 0.0709302 4.05838 0
M  V30 10487 H 945.755 2.55351 4.12336 0
M  V30 10488 H 941.634 1.36004 4.40481 0
M  V30 10489 H 945.178 4.73709 5.12099 0
M  V30 10490 H 941.075 3.53466 5.40122 0
M  V30 10491 H 941.843 5.50377 6.05828 0
M  V30 10492 N 944.506 -1.46559 0.579492 0
M  V30 10493 C 945.439 -2.27287 -0.203894 0
M  V30 10494 C 946.417 -1.3543 -0.899865 0
M  V30 10495 O 947.601 -1.64836 -0.914398 0
M  V30 10496 C 944.728 -3.13077 -1.2923 0
M  V30 10497 C 943.774 -4.20675 -0.702505 0
M  V30 10498 S 944.607 -5.3345 0.468136 0
M  V30 10499 C 945.763 -6.22806 -0.621544 0
M  V30 10500 H 945.996 -2.93382 0.481083 0
M  V30 10501 H 943.529 -1.49992 0.366311 0
M  V30 10502 H 945.487 -3.63069 -1.91548 0
M  V30 10503 H 944.148 -2.46302 -1.94921 0
M  V30 10504 H 943.341 -4.80516 -1.52053 0
M  V30 10505 H 942.943 -3.73678 -0.155046 0
M  V30 10506 H 945.235 -6.60503 -1.50803 0
M  V30 10507 H 946.178 -7.08075 -0.059961 0
M  V30 10508 H 946.586 -5.56882 -0.924242 0
M  V30 10509 N 945.984 -0.3171 -1.54377 0
M  V30 10510 C 947.233 0.288271 -1.99629 0
M  V30 10511 C 947.546 1.53754 -1.2091 0
M  V30 10512 O 948.752 2.2185 -1.56508 0
M  V30 10513 C 947.208 0.564188 -3.5545 0
M  V30 10514 C 946.816 -0.667659 -4.42997 0
M  V30 10515 C 948.56 1.12987 -4.09187 0
M  V30 10516 C 946.467 -0.364003 -5.90279 0
M  V30 10517 H 945.397 0.111492 -0.745711 0
M  V30 10518 H 948.048 -0.428317 -1.78431 0
M  V30 10519 H 946.43 1.34079 -3.72611 0
M  V30 10520 H 947.604 -1.44335 -4.37612 0
M  V30 10521 H 945.919 -1.1531 -4.00116 0
M  V30 10522 H 948.516 1.37157 -5.1681 0
M  V30 10523 H 948.859 2.07722 -3.60773 0
M  V30 10524 H 949.392 0.414595 -3.95634 0
M  V30 10525 H 946.131 -1.28035 -6.42874 0
M  V30 10526 H 945.651 0.374102 -5.98632 0
M  V30 10527 H 947.33 0.0285433 -6.46994 0
M  V30 10528 N 947.462 1.57535 -0.0451378 0
M  V30 10529 C 948.71 1.92071 0.628743 0
M  V30 10530 C 949.031 0.923635 1.71738 0
M  V30 10531 O 948.301 -0.0324376 1.95873 0
M  V30 10532 H 946.881 0.708995 0.235233 0
M  V30 10533 H 949.543 1.9466 -0.0967177 0
M  V30 10534 H 948.639 2.9314 1.07123 0
M  V30 10535 N 948.94 -0.228186 1.55939 0
M  V30 10536 C 949.903 -1.26621 1.91049 0
M  V30 10537 C 950.903 -1.40141 0.788491 0
M  V30 10538 O 952.093 -1.3852 1.05631 0
M  V30 10539 C 949.225 -2.64108 2.15545 0
M  V30 10540 H 950.418 -0.966978 2.83883 0
M  V30 10541 H 947.971 -0.468313 1.49119 0
M  V30 10542 H 948.706 -2.99141 1.25241 0
M  V30 10543 H 948.491 -2.55673 2.97277 0
M  V30 10544 H 949.981 -3.39025 2.43827 0
M  V30 10545 N 950.418 -1.49637 -0.494624 0
M  V30 10546 C 951.35 -1.62902 -1.61231 0
M  V30 10547 C 952.363 -0.511425 -1.54558 0
M  V30 10548 O 953.552 -0.783724 -1.60375 0
M  V30 10549 C 950.652 -1.57564 -3.00045 0
M  V30 10550 C 949.825 -2.84964 -3.31835 0
M  V30 10551 C 948.884 -2.72591 -4.5009 0
M  V30 10552 O 947.91 -3.46532 -4.51558 0
M  V30 10553 N 949.112 -1.84563 -5.50379 0
M  V30 10554 H 951.877 -2.59301 -1.50276 0
M  V30 10555 H 949.438 -1.46806 -0.68262 0
M  V30 10556 H 951.43 -1.46932 -3.77085 0
M  V30 10557 H 950 -0.689974 -3.0489 0
M  V30 10558 H 949.22 -3.099 -2.4363 0
M  V30 10559 H 950.508 -3.69412 -3.49875 0
M  V30 10560 H 949.906 -1.23758 -5.51997 0
M  V30 10561 H 948.463 -1.79849 -6.26496 0
M  V30 10562 N 951.896 0.746133 -1.38819 0
M  V30 10563 C 953.124 1.53539 -1.38685 0
M  V30 10564 C 953.539 1.88788 0.0215039 0
M  V30 10565 O 952.896 1.53312 0.990031 0
M  V30 10566 C 952.947 2.8299 -2.24942 0
M  V30 10567 O 952.668 2.49242 -3.60292 0
M  V30 10568 C 954.169 3.77085 -2.3307 0
M  V30 10569 H 951.389 0.474842 -0.474095 0
M  V30 10570 H 953.933 0.922844 -1.82493 0
M  V30 10571 H 952.088 3.40603 -1.84576 0
M  V30 10572 H 952.502 3.32319 -4.05789 0
M  V30 10573 H 953.976 4.64845 -2.97696 0
M  V30 10574 H 954.453 4.18049 -1.34655 0
M  V30 10575 H 955.059 3.25394 -2.73859 0
M  V30 10576 N 953.375 1.23811 0.975125 0
M  V30 10577 C 954.652 0.9815 1.69192 0
M  V30 10578 C 955.032 -0.498373 2.05133 0
M  V30 10579 O 954.38 -1.47087 1.74864 0
M  V30 10580 C 954.59 1.89701 2.92941 0
M  V30 10581 C 955.938 2.16357 3.65342 0
M  V30 10582 O 956.962 1.87293 3.02985 0
M  V30 10583 O 955.821 2.65675 4.77576 0
M  V30 10584 H 952.915 0.370599 0.739314 0
M  V30 10585 H 955.461 1.34876 1.02988 0
M  V30 10586 H 954.233 2.89719 2.63018 0
M  V30 10587 H 953.856 1.53244 3.66881 0
M  V30 10588 N 954.853 -1.17469 1.05066 0
M  V30 10589 C 955.785 -2.20974 0.608526 0
M  V30 10590 C 956.798 -1.59481 -0.327066 0
M  V30 10591 O 957.987 -1.78096 -0.12 0
M  V30 10592 C 955.087 -3.38652 -0.12969 0
M  V30 10593 C 954.26 -4.29716 0.816285 0
M  V30 10594 C 953.319 -5.26064 0.119556 0
M  V30 10595 O 952.345 -5.64194 0.753241 0
M  V30 10596 N 953.547 -5.69126 -1.14347 0
M  V30 10597 H 956.312 -2.59529 1.49882 0
M  V30 10598 H 953.873 -1.32355 0.932406 0
M  V30 10599 H 955.865 -4.00139 -0.605886 0
M  V30 10600 H 954.435 -2.98705 -0.921638 0
M  V30 10601 H 953.655 -3.6568 1.47213 0
M  V30 10602 H 954.943 -4.87449 1.45845 0
M  V30 10603 H 954.341 -5.4022 -1.67866 0
M  V30 10604 H 952.898 -6.32764 -1.56376 0
M  V30 10605 N 956.331 -0.831506 -1.3388 0
M  V30 10606 C 957.559 -0.436925 -2.02234 0
M  V30 10607 C 957.974 0.959689 -1.6259 0
M  V30 10608 O 957.331 1.62248 -0.835576 0
M  V30 10609 C 957.382 -0.539429 -3.57453 0
M  V30 10610 O 957.103 -1.88101 -3.95664 0
M  V30 10611 C 958.604 -0.140852 -4.43076 0
M  V30 10612 H 955.824 -0.174302 -0.647966 0
M  V30 10613 H 958.368 -1.12204 -1.70969 0
M  V30 10614 H 956.523 0.0976959 -3.87277 0
M  V30 10615 H 956.937 -1.86131 -4.90363 0
M  V30 10616 H 958.411 -0.26364 -5.5137 0
M  V30 10617 H 958.888 0.916505 -4.29531 0
M  V30 10618 H 959.494 -0.752117 -4.18597 0
M  V30 10619 N 957.809 1.4625 -0.587256 0
M  V30 10620 C 959.055 2.02662 -0.0746851 0
M  V30 10621 C 959.388 1.45723 1.28368 0
M  V30 10622 O 958.663 0.624062 1.84216 0
M  V30 10623 C 958.946 3.60097 -0.0138109 0
M  V30 10624 C 958.799 4.27412 -1.4014 0
M  V30 10625 C 960.118 4.34744 0.684491 0
M  V30 10626 H 957.237 0.736444 -0.0286144 0
M  V30 10627 H 959.879 1.74341 -0.755328 0
M  V30 10628 H 958.029 3.84357 0.56583 0
M  V30 10629 H 959.701 4.14401 -2.02656 0
M  V30 10630 H 957.944 3.86598 -1.96785 0
M  V30 10631 H 958.615 5.362 -1.31124 0
M  V30 10632 H 961.091 4.15657 0.192023 0
M  V30 10633 H 959.967 5.44468 0.696127 0
M  V30 10634 H 960.228 4.06132 1.74669 0
M  V30 10635 N 959.287 0.325282 1.54207 0
M  V30 10636 C 960.219 -0.57395 2.21897 0
M  V30 10637 C 961.232 -1.0785 1.21952 0
M  V30 10638 O 962.421 -0.991782 1.48411 0
M  V30 10639 C 959.521 -1.8005 2.87115 0
M  V30 10640 C 958.694 -1.43435 4.13213 0
M  V30 10641 C 957.753 -2.51862 4.62009 0
M  V30 10642 O 956.779 -2.15934 5.26651 0
M  V30 10643 N 957.981 -3.8282 4.36382 0
M  V30 10644 H 960.746 0.00566918 2.99699 0
M  V30 10645 H 958.307 0.148563 1.61217 0
M  V30 10646 H 960.299 -2.51981 3.16682 0
M  V30 10647 H 958.869 -2.28792 2.13009 0
M  V30 10648 H 958.089 -0.546598 3.90392 0
M  V30 10649 H 959.377 -1.16544 4.95273 0
M  V30 10650 H 958.775 -4.14807 3.84645 0
M  V30 10651 H 957.332 -4.50976 4.70599 0
M  V30 10652 N 960.765 -1.57509 0.0534917 0
M  V30 10653 C 961.675 -2.15152 -0.935249 0
M  V30 10654 C 962.691 -1.10991 -1.34003 0
M  V30 10655 O 963.867 -1.43171 -1.41648 0
M  V30 10656 C 960.932 -2.68699 -2.19093 0
M  V30 10657 C 959.993 -3.87666 -1.84428 0
M  V30 10658 C 959.226 -4.3865 -3.0401 0
M  V30 10659 O 959.449 -3.887 -4.17455 0
M  V30 10660 O 958.383 -5.30209 -2.84889 0
M  V30 10661 H 962.209 -2.99962 -0.475009 0
M  V30 10662 H 959.794 -1.48446 -0.16854 0
M  V30 10663 H 961.676 -3.03098 -2.92762 0
M  V30 10664 H 960.351 -1.86958 -2.6425 0
M  V30 10665 H 959.258 -3.58151 -1.08068 0
M  V30 10666 H 960.591 -4.70643 -1.44068 0
M  V30 10667 N 962.243 0.219913 -1.56058 0
M  V30 10668 C 963.193 1.27606 -1.88946 0
M  V30 10669 C 964.177 1.42209 -0.752691 0
M  V30 10670 O 965.369 1.44996 -1.01514 0
M  V30 10671 C 962.498 2.62614 -2.21108 0
M  V30 10672 C 961.584 2.51906 -3.4118 0
M  V30 10673 N 961.975 2.10851 -4.59756 0
M  V30 10674 C 960.273 2.82861 -3.44827 0
M  V30 10675 C 960.974 2.11434 -5.41914 0
M  V30 10676 N 959.95 2.51985 -4.81669 0
M  V30 10677 H 963.752 0.94957 -2.78137 0
M  V30 10678 H 961.266 0.428468 -1.56646 0
M  V30 10679 H 963.263 3.38869 -2.42844 0
M  V30 10680 H 961.923 2.96108 -1.3323 0
M  V30 10681 H 962.934 1.81956 -4.84884 0
M  V30 10682 H 959.611 3.20716 -2.67297 0
M  V30 10683 H 961.001 1.81803 -6.46836 0
M  V30 10684 N 963.721 1.49897 0.486681 0
M  V30 10685 C 964.651 1.7054 1.59494 0
M  V30 10686 C 965.632 0.554184 1.60819 0
M  V30 10687 O 966.817 0.791617 1.77333 0
M  V30 10688 C 963.947 1.78517 2.97908 0
M  V30 10689 C 962.901 2.93571 3.11449 0
M  V30 10690 C 962.227 2.86674 4.51356 0
M  V30 10691 C 963.527 4.34308 2.90127 0
M  V30 10692 H 965.221 2.63329 1.42472 0
M  V30 10693 H 962.767 1.2672 0.683969 0
M  V30 10694 H 964.72 1.91544 3.75352 0
M  V30 10695 H 963.444 0.823381 3.16051 0
M  V30 10696 H 962.103 2.80169 2.36433 0
M  V30 10697 H 961.751 1.88373 4.66395 0
M  V30 10698 H 961.451 3.63903 4.61355 0
M  V30 10699 H 962.975 3.01728 5.30841 0
M  V30 10700 H 964.389 4.48317 3.57331 0
M  V30 10701 H 962.786 5.12869 3.11585 0
M  V30 10702 H 963.856 4.47759 1.86119 0
M  V30 10703 N 965.199 -0.738761 1.39212 0
M  V30 10704 C 966.448 -1.49368 1.35543 0
M  V30 10705 C 966.761 -1.95543 -0.0471091 0
M  V30 10706 O 967.967 -2.70714 -0.206376 0
M  V30 10707 C 966.423 -2.69882 2.381 0
M  V30 10708 C 966.031 -2.30672 3.8405 0
M  V30 10709 C 967.775 -3.47718 2.435 0
M  V30 10710 C 965.682 -3.47886 4.78256 0
M  V30 10711 H 964.612 -0.560898 0.503894 0
M  V30 10712 H 967.263 -0.806221 1.6484 0
M  V30 10713 H 965.645 -3.40684 2.01867 0
M  V30 10714 H 966.819 -1.67441 4.29302 0
M  V30 10715 H 965.134 -1.65936 3.81909 0
M  V30 10716 H 967.731 -4.34897 3.11077 0
M  V30 10717 H 968.074 -3.89919 1.45838 0
M  V30 10718 H 968.607 -2.83942 2.78606 0
M  V30 10719 H 965.346 -3.10739 5.77167 0
M  V30 10720 H 964.866 -4.10111 4.37686 0
M  V30 10721 H 966.545 -4.14271 4.96979 0
M  V30 10722 N 966.677 -1.24326 -0.968545 0
M  V30 10723 C 967.587 -1.05194 -2.09694 0
M  V30 10724 C 968.603 0.00701291 -1.73999 0
M  V30 10725 O 969.779 -0.190981 -2.00492 0
M  V30 10726 C 966.844 -0.658075 -3.40397 0
M  V30 10727 C 965.905 -1.79341 -3.90045 0
M  V30 10728 C 965.138 -1.41824 -5.14511 0
M  V30 10729 O 965.361 -0.307693 -5.69569 0
M  V30 10730 O 964.295 -2.24358 -5.58522 0
M  V30 10731 H 968.121 -1.99791 -2.2873 0
M  V30 10732 H 965.706 -1.03138 -1.08088 0
M  V30 10733 H 967.588 -0.449911 -4.18991 0
M  V30 10734 H 966.263 0.258782 -3.22664 0
M  V30 10735 H 965.17 -2.05632 -3.12516 0
M  V30 10736 H 966.503 -2.68901 -4.12254 0
M  V30 10737 N 968.156 1.1691 -1.05688 0
M  V30 10738 C 969.103 2.21095 -0.662246 0
M  V30 10739 C 970.073 1.62623 0.338083 0
M  V30 10740 O 971.258 1.89428 0.228362 0
M  V30 10741 C 968.398 3.45066 -0.0484018 0
M  V30 10742 C 967.511 4.17809 -1.09817 0
M  V30 10743 C 966.646 5.29281 -0.451114 0
M  V30 10744 C 965.685 5.93817 -1.48484 0
M  V30 10745 N 964.822 6.96793 -0.861588 0
M  V30 10746 H 969.662 2.54204 -1.55513 0
M  V30 10747 H 967.199 1.24863 -0.777665 0
M  V30 10748 H 969.157 4.15932 0.324978 0
M  V30 10749 H 967.787 3.12526 0.807918 0
M  V30 10750 H 966.839 3.45608 -1.58932 0
M  V30 10751 H 968.151 4.61907 -1.88265 0
M  V30 10752 H 967.305 6.06695 -0.0244251 0
M  V30 10753 H 966.044 4.8633 0.365306 0
M  V30 10754 H 965.049 5.1513 -1.92149 0
M  V30 10755 H 966.274 6.38848 -2.30325 0
M  V30 10756 H 964.22 6.55967 -0.0657688 0
M  V30 10757 H 964.137 7.39229 -1.58354 0
M  V30 10758 H 965.405 7.78142 -0.45984 0
M  V30 10759 N 969.634 0.838594 1.33437 0
M  V30 10760 C 970.864 0.446995 2.01707 0
M  V30 10761 C 971.272 -0.956335 1.63251 0
M  V30 10762 O 970.615 -1.63289 0.841566 0
M  V30 10763 C 970.677 0.487707 3.56176 0
M  V30 10764 C 970.341 1.8471 4.18009 0
M  V30 10765 C 971.338 2.81028 4.374 0
M  V30 10766 C 969.023 2.13987 4.54439 0
M  V30 10767 C 971.017 4.04785 4.92369 0
M  V30 10768 C 968.704 3.38 5.09116 0
M  V30 10769 C 969.702 4.33216 5.28027 0
M  V30 10770 O 969.39 5.55036 5.81541 0
M  V30 10771 H 969.122 0.175799 0.652741 0
M  V30 10772 H 971.676 1.13265 1.71348 0
M  V30 10773 H 969.906 -0.254719 3.8586 0
M  V30 10774 H 971.595 0.113971 4.0574 0
M  V30 10775 H 972.361 2.5971 4.09604 0
M  V30 10776 H 968.24 1.40668 4.39014 0
M  V30 10777 H 971.784 4.79114 5.07046 0
M  V30 10778 H 967.681 3.59175 5.36343 0
M  V30 10779 H 968.449 5.56772 5.99956 0
M  V30 10780 N 971.112 -1.45937 0.595003 0
M  V30 10781 C 972.045 -2.27491 -0.179775 0
M  V30 10782 C 973.023 -1.36376 -0.88545 0
M  V30 10783 O 974.207 -1.65797 -0.896863 0
M  V30 10784 C 971.334 -3.1443 -1.25902 0
M  V30 10785 C 970.38 -4.21396 -0.657847 0
M  V30 10786 S 971.213 -5.32923 0.524689 0
M  V30 10787 C 972.369 -6.2343 -0.555452 0
M  V30 10788 H 972.602 -2.92855 0.512173 0
M  V30 10789 H 970.135 -1.49595 0.382199 0
M  V30 10790 H 972.093 -3.65081 -1.87687 0
M  V30 10791 H 970.754 -2.48356 -1.92297 0
M  V30 10792 H 969.947 -4.82102 -1.46948 0
M  V30 10793 H 969.549 -3.73822 -0.115403 0
M  V30 10794 H 971.841 -6.62066 -1.43789 0
M  V30 10795 H 972.784 -7.08098 0.0151431 0
M  V30 10796 H 973.192 -5.57831 -0.865125 0
M  V30 10797 N 972.59 -0.333456 -1.54032 0
M  V30 10798 C 973.52 0.52051 -2.27625 0
M  V30 10799 C 974.501 1.1111 -1.28797 0
M  V30 10800 O 975.686 1.13438 -1.57625 0
M  V30 10801 C 972.816 1.67663 -3.04149 0
M  V30 10802 C 971.77 1.21487 -4.10396 0
M  V30 10803 C 971.096 2.45872 -4.74817 0
M  V30 10804 C 972.396 0.322603 -5.21303 0
M  V30 10805 H 974.09 -0.0933823 -2.99254 0
M  V30 10806 H 971.636 -0.0463526 -1.43925 0
M  V30 10807 H 973.589 2.28041 -3.54366 0
M  V30 10808 H 972.313 2.31727 -2.30153 0
M  V30 10809 H 970.972 0.633966 -3.61077 0
M  V30 10810 H 970.62 3.0832 -3.97426 0
M  V30 10811 H 970.32 2.15662 -5.46593 0
M  V30 10812 H 971.844 3.06994 -5.27814 0
M  V30 10813 H 973.258 0.832942 -5.67217 0
M  V30 10814 H 971.655 0.112843 -5.99994 0
M  V30 10815 H 972.725 -0.643954 -4.80605 0
M  V30 10816 N 974.068 1.57479 -0.061844 0
M  V30 10817 C 974.998 2.15181 0.9066 0
M  V30 10818 C 975.979 1.07624 1.31724 0
M  V30 10819 O 977.164 1.35614 1.39006 0
M  V30 10820 C 974.294 2.70542 2.17771 0
M  V30 10821 C 973.248 3.83178 1.9068 0
M  V30 10822 C 972.574 4.25099 3.24337 0
M  V30 10823 C 973.874 5.07853 1.21994 0
M  V30 10824 H 975.568 2.96355 0.42594 0
M  V30 10825 H 973.114 1.42556 0.203435 0
M  V30 10826 H 975.067 3.09552 2.85929 0
M  V30 10827 H 973.791 1.86575 2.68062 0
M  V30 10828 H 972.45 3.44656 1.24931 0
M  V30 10829 H 972.098 3.38069 3.72449 0
M  V30 10830 H 971.798 5.01021 3.07005 0
M  V30 10831 H 973.322 4.66718 3.93709 0
M  V30 10832 H 974.736 5.44242 1.80204 0
M  V30 10833 H 973.133 5.88987 1.14954 0
M  V30 10834 H 974.203 4.84497 0.197536 0
M  V30 10835 N 975.546 -0.211634 1.56173 0
M  V30 10836 C 976.957 -0.777776 1.69728 0
M  V30 10837 C 977.308 -1.84566 0.66558 0
M  V30 10838 O 976.433 -2.15639 -0.181338 0
M  V30 10839 C 977.028 -1.41757 3.07718 0
M  V30 10840 C 975.587 -1.93098 3.23094 0
M  V30 10841 C 974.734 -0.794785 2.65666 0
M  V30 10842 H 977.685 0.0131839 1.58695 0
M  V30 10843 H 977.706 -2.28662 3.04128 0
M  V30 10844 H 977.218 -0.640114 3.82785 0
M  V30 10845 H 975.319 -2.73615 2.52914 0
M  V30 10846 H 975.432 -2.10414 4.30422 0
M  V30 10847 H 973.796 -1.20473 2.24407 0
M  V30 10848 H 974.579 -0.0298408 3.43287 0
M  V30 10849 N 977.024 -1.50153 -0.478725 0
M  V30 10850 C 977.972 -1.68975 -1.59844 0
M  V30 10851 C 978.966 -0.555591 -1.6003 0
M  V30 10852 O 980.172 -0.735875 -1.64271 0
M  V30 10853 H 976.547 -0.533211 -0.530274 0
M  V30 10854 H 978.518 -2.62917 -1.41128 0
M  V30 10855 C 977.267 -1.79409 -2.97838 0
M  V30 10856 H 976.59 -2.66066 -2.98411 0
M  V30 10857 H 978.03 -1.96606 -3.75662 0
M  V30 10858 C 976.489 -0.543927 -3.3248 0
M  V30 10859 O 977.019 0.320376 -4.0042 0
M  V30 10860 N 975.225 -0.400217 -2.87831 0
M  V30 10861 H 974.772 -1.10458 -2.32716 0
M  V30 10862 H 974.73 0.435111 -3.11375 0
M  V30 10863 N 978.502 0.731368 -1.39602 0
M  V30 10864 C 979.434 1.85575 -1.34516 0
M  V30 10865 C 980.447 1.60818 -0.253287 0
M  V30 10866 O 981.636 1.70984 -0.512505 0
M  V30 10867 C 978.736 3.21673 -1.06676 0
M  V30 10868 C 977.909 3.73757 -2.27211 0
M  V30 10869 C 976.968 4.88426 -1.95773 0
M  V30 10870 O 975.994 5.01898 -2.68491 0
M  V30 10871 N 977.196 5.73065 -0.926083 0
M  V30 10872 H 979.961 1.90442 -2.31413 0
M  V30 10873 H 977.522 0.912258 -1.33752 0
M  V30 10874 H 979.514 3.95959 -0.836577 0
M  V30 10875 H 978.084 3.12052 -0.185003 0
M  V30 10876 H 977.304 2.90781 -2.66158 0
M  V30 10877 H 978.592 4.05289 -3.07601 0
M  V30 10878 H 977.99 5.64774 -0.323497 0
M  V30 10879 H 976.547 6.47403 -0.755795 0
M  V30 10880 N 979.98 1.24838 0.961938 0
M  V30 10881 C 981.226 1.09313 1.70817 0
M  V30 10882 C 981.559 -0.366244 1.90715 0
M  V30 10883 O 980.834 -1.27036 1.47282 0
M  V30 10884 C 981.117 1.83988 3.09549 0
M  V30 10885 C 980.97 3.3771 2.97106 0
M  V30 10886 C 982.289 1.61718 4.09311 0
M  V30 10887 H 979.408 0.398498 0.619974 0
M  V30 10888 H 982.05 1.53579 1.11864 0
M  V30 10889 H 980.2 1.46363 3.59875 0
M  V30 10890 H 981.872 3.84967 2.54161 0
M  V30 10891 H 980.115 3.65795 2.33187 0
M  V30 10892 H 980.786 3.85166 3.95412 0
M  V30 10893 H 983.262 1.94458 3.67866 0
M  V30 10894 H 982.138 2.16415 5.04436 0
M  V30 10895 H 982.399 0.55677 4.3858 0
M  V30 10896 N 981.458 -1.16348 1.06306 0
M  V30 10897 C 982.704 -1.87397 0.79082 0
M  V30 10898 C 983.059 -1.80156 -0.675382 0
M  V30 10899 O 982.352 -1.20644 -1.48847 0
M  V30 10900 C 982.546 -3.35936 1.21991 0
M  V30 10901 C 982.375 -3.57637 2.72628 0
M  V30 10902 C 981.145 -3.73717 3.40094 0
M  V30 10903 C 983.343 -3.56345 3.70841 0
M  V30 10904 N 981.325 -3.83369 4.7948 0
M  V30 10905 C 982.696 -3.71983 4.96013 0
M  V30 10906 C 984.751 -3.39558 3.64149 0
M  V30 10907 C 983.454 -3.7257 6.15292 0
M  V30 10908 C 985.48 -3.41439 4.8288 0
M  V30 10909 C 984.842 -3.57596 6.06881 0
M  V30 10910 H 980.941 -0.703355 0.341782 0
M  V30 10911 H 983.525 -1.39597 1.35723 0
M  V30 10912 H 981.696 -3.82378 0.681319 0
M  V30 10913 H 983.428 -3.94649 0.896319 0
M  V30 10914 H 980.183 -3.74045 2.90495 0
M  V30 10915 H 980.607 -3.91964 5.5199 0
M  V30 10916 H 985.249 -3.25994 2.69235 0
M  V30 10917 H 982.967 -3.84916 7.10539 0
M  V30 10918 H 986.553 -3.29693 4.79368 0
M  V30 10919 H 985.433 -3.58971 6.97216 0
M  V30 10920 N 982.937 -0.845659 -1.3299 0
M  V30 10921 C 984.214 -0.366306 -1.92139 0
M  V30 10922 C 984.594 1.14912 -1.77083 0
M  V30 10923 O 983.942 1.96667 -1.16338 0
M  V30 10924 C 984.152 -0.820716 -3.39213 0
M  V30 10925 C 985.5 -0.832667 -4.16355 0
M  V30 10926 O 986.524 -0.764764 -3.47893 0
M  V30 10927 O 985.383 -0.926658 -5.38586 0
M  V30 10928 H 982.477 -0.105063 -0.820299 0
M  V30 10929 H 985.023 -0.931962 -1.41819 0
M  V30 10930 H 983.795 -1.86357 -3.44074 0
M  V30 10931 H 983.418 -0.232009 -3.96923 0
M  V30 10932 N 984.415 1.45619 -0.602734 0
M  V30 10933 C 985.64 2.07157 -0.100429 0
M  V30 10934 C 986.065 1.44524 1.20393 0
M  V30 10935 O 985.423 0.536191 1.7319 0
M  V30 10936 C 985.471 3.60587 0.0308604 0
M  V30 10937 O 984.575 3.97944 1.08234 0
M  V30 10938 H 983.916 0.6601 -0.0718643 0
M  V30 10939 H 986.446 1.86948 -0.831366 0
M  V30 10940 H 986.456 4.07348 0.230634 0
M  V30 10941 H 985.131 4.05561 -0.921581 0
M  V30 10942 H 983.708 3.62862 0.859414 0
M  V30 10943 N 985.893 0.34162 1.53853 0
M  V30 10944 C 987.142 -0.256475 2.00063 0
M  V30 10945 C 987.455 -1.51811 1.23341 0
M  V30 10946 O 988.661 -2.19332 1.60017 0
M  V30 10947 C 987.117 -0.507567 3.56303 0
M  V30 10948 C 986.725 0.738052 4.41879 0
M  V30 10949 C 988.469 -1.06463 4.10933 0
M  V30 10950 C 986.376 0.457865 5.89625 0
M  V30 10951 H 985.306 -0.0996143 0.747391 0
M  V30 10952 H 987.957 0.456649 1.77727 0
M  V30 10953 H 986.339 -1.28134 3.74697 0
M  V30 10954 H 987.513 1.51278 4.3526 0
M  V30 10955 H 985.828 1.21661 3.98231 0
M  V30 10956 H 988.425 -1.28918 5.18926 0
M  V30 10957 H 988.768 -2.01956 3.64032 0
M  V30 10958 H 989.301 -0.351601 3.96243 0
M  V30 10959 H 986.04 1.38247 6.40756 0
M  V30 10960 H 985.56 -0.278818 5.99152 0
M  V30 10961 H 987.239 0.0743914 6.46957 0
M  V30 10962 N 987.371 -1.57444 0.0701946 0
M  V30 10963 C 988.62 -1.92605 -0.598849 0
M  V30 10964 C 988.933 -0.952058 -1.70866 0
M  V30 10965 O 990.139 -1.19643 -2.43716 0
M  V30 10966 C 988.595 -3.42142 -1.11655 0
M  V30 10967 C 988.203 -4.47984 -0.0378355 0
M  V30 10968 C 989.947 -3.86307 -1.75975 0
M  V30 10969 C 987.854 -5.88652 -0.569495 0
M  V30 10970 H 986.784 -0.718873 -0.22746 0
M  V30 10971 H 989.435 -1.82948 0.14217 0
M  V30 10972 H 987.817 -3.46866 -1.91049 0
M  V30 10973 H 988.991 -4.54874 0.736661 0
M  V30 10974 H 987.306 -4.13277 0.50904 0
M  V30 10975 H 989.903 -4.88784 -2.16782 0
M  V30 10976 H 990.246 -3.23587 -2.61911 0
M  V30 10977 H 990.779 -3.84179 -1.03206 0
M  V30 10978 H 987.518 -6.55013 0.252662 0
M  V30 10979 H 987.038 -5.85285 -1.31155 0
M  V30 10980 H 988.717 -6.38482 -1.04641 0
M  V30 10981 N 988.849 0.203349 -1.56283 0
M  V30 10982 C 989.781 1.27592 -1.90402 0
M  V30 10983 C 990.794 1.4213 -0.79391 0
M  V30 10984 O 991.983 1.42703 -1.07229 0
M  V30 10985 C 989.083 2.64919 -2.11356 0
M  V30 10986 C 988.256 2.72095 -3.42466 0
M  V30 10987 C 987.315 3.9056 -3.52631 0
M  V30 10988 O 986.341 3.78048 -4.25521 0
M  V30 10989 N 987.543 5.0566 -2.85111 0
M  V30 10990 H 990.308 0.986423 -2.83001 0
M  V30 10991 H 987.869 0.39331 -1.5705 0
M  V30 10992 H 989.861 3.42581 -2.15453 0
M  V30 10993 H 988.431 2.86391 -1.25295 0
M  V30 10994 H 987.651 1.8077 -3.50308 0
M  V30 10995 H 988.939 2.73874 -4.28801 0
M  V30 10996 H 988.337 5.18723 -2.25705 0
M  V30 10997 H 986.894 5.81299 -2.94847 0
M  V30 10998 N 990.327 1.50405 0.470755 0
M  V30 10999 C 991.259 1.65447 1.58619 0
M  V30 11000 C 992.272 0.535949 1.53725 0
M  V30 11001 O 993.461 0.80914 1.59107 0
M  V30 11002 C 990.561 1.62318 2.975 0
M  V30 11003 C 989.734 2.90207 3.27259 0
M  V30 11004 C 988.793 2.79717 4.45696 0
M  V30 11005 O 987.819 3.53672 4.45987 0
M  V30 11006 N 989.021 1.93296 5.47373 0
M  V30 11007 H 991.786 2.61659 1.46132 0
M  V30 11008 H 989.347 1.47873 0.659178 0
M  V30 11009 H 991.339 1.52912 3.747 0
M  V30 11010 H 989.909 0.738392 3.03754 0
M  V30 11011 H 989.129 3.13737 2.38669 0
M  V30 11012 H 990.417 3.74931 3.43953 0
M  V30 11013 H 989.815 1.32524 5.49958 0
M  V30 11014 H 988.372 1.89793 6.23556 0
M  V30 11015 N 991.805 -0.723954 1.39988 0
M  V30 11016 C 992.768 -1.81973 1.3935 0
M  V30 11017 C 993.768 -1.58187 0.288702 0
M  V30 11018 O 994.958 -1.65383 0.547181 0
M  V30 11019 C 992.09 -3.19937 1.177 0
M  V30 11020 H 993.283 -1.83939 2.36868 0
M  V30 11021 H 990.836 -0.928742 1.25714 0
M  V30 11022 H 991.571 -3.23625 0.209093 0
M  V30 11023 H 991.356 -3.386 1.97719 0
M  V30 11024 H 992.846 -3.99981 1.20022 0
M  V30 11025 N 993.283 -1.25346 -0.955304 0
M  V30 11026 C 994.511 -1.12793 -1.73451 0
M  V30 11027 C 994.926 0.318344 -1.86097 0
M  V30 11028 O 994.283 1.21897 -1.35821 0
M  V30 11029 C 994.334 -1.77603 -3.14864 0
M  V30 11030 O 994.055 -3.16577 -3.02837 0
M  V30 11031 C 995.556 -1.70821 -4.09066 0
M  V30 11032 H 992.776 -0.393457 -0.543537 0
M  V30 11033 H 995.32 -1.65696 -1.19855 0
M  V30 11034 H 993.475 -1.28673 -3.65407 0
M  V30 11035 H 993.889 -3.48433 -3.92039 0
M  V30 11036 H 995.363 -2.2083 -5.05903 0
M  V30 11037 H 995.84 -0.671858 -4.34031 0
M  V30 11038 H 996.446 -2.19237 -3.64438 0
M  V30 11039 N 994.761 1.15782 -1.06922 0
M  V30 11040 C 995.708 2.2038 -0.685659 0
M  V30 11041 C 996.678 1.62972 0.320816 0
M  V30 11042 O 997.863 1.8966 0.208258 0
M  V30 11043 C 995.003 3.44995 -0.084998 0
M  V30 11044 C 994.116 4.16621 -1.14242 0
M  V30 11045 C 993.251 5.28773 -0.507226 0
M  V30 11046 C 992.29 5.92209 -1.54774 0
M  V30 11047 N 991.427 6.9584 -0.935443 0
M  V30 11048 H 996.267 2.5254 -1.58201 0
M  V30 11049 H 993.804 1.24031 -0.790864 0
M  V30 11050 H 995.762 4.16254 0.280845 0
M  V30 11051 H 994.392 3.13365 0.774725 0
M  V30 11052 H 993.444 3.43903 -1.62589 0
M  V30 11053 H 994.756 4.59884 -1.93154 0
M  V30 11054 H 993.91 6.06635 -0.0887719 0
M  V30 11055 H 992.649 4.8669 0.313704 0
M  V30 11056 H 991.654 5.13063 -1.97602 0
M  V30 11057 H 992.879 6.3637 -2.37088 0
M  V30 11058 H 990.825 6.5586 -0.135339 0
M  V30 11059 H 990.742 7.37508 -1.66186 0
M  V30 11060 H 992.01 7.77611 -0.542346 0
M  V30 11061 N 996.239 0.8527 1.3254 0
M  V30 11062 C 997.187 0.284659 2.30852 0
M  V30 11063 C 998.181 -0.5909 1.5876 0
M  V30 11064 O 999.387 -0.478922 1.73512 0
M  V30 11065 H 995.762 0.0733452 0.748415 0
M  V30 11066 H 997.733 1.1281 2.76254 0
M  V30 11067 C 996.482 -0.51379 3.43883 0
M  V30 11068 H 995.805 0.150644 3.99516 0
M  V30 11069 H 997.245 -0.876866 4.14834 0
M  V30 11070 C 995.704 -1.69823 2.90967 0
M  V30 11071 O 996.234 -2.79727 2.88298 0
M  V30 11072 N 994.44 -1.52465 2.47392 0
M  V30 11073 H 993.987 -0.630599 2.49762 0
M  V30 11074 H 993.945 -2.31859 2.12341 0
M  V30 11075 N 997.718 -1.45297 0.610449 0
M  V30 11076 C 998.964 -2.02518 0.106917 0
M  V30 11077 C 999.297 -1.47747 -1.26034 0
M  V30 11078 O 998.572 -0.65329 -1.832 0
M  V30 11079 C 998.855 -3.6003 0.0710975 0
M  V30 11080 C 998.708 -4.25128 1.46922 0
M  V30 11081 C 1000.03 -4.35778 -0.61524 0
M  V30 11082 H 997.146 -0.735896 0.040327 0
M  V30 11083 H 999.788 -1.73117 0.782968 0
M  V30 11084 H 997.938 -3.85209 -0.504611 0
M  V30 11085 H 999.61 -4.11125 2.09223 0
M  V30 11086 H 997.853 -3.83418 2.02911 0
M  V30 11087 H 998.524 -5.34046 1.39637 0
M  V30 11088 H 1001 -4.1591 -0.125871 0
M  V30 11089 H 999.876 -5.45506 -0.609419 0
M  V30 11090 H 1000.14 -4.08859 -1.68186 0
M  V30 11091 N 999.196 -0.349774 -1.5367 0
M  V30 11092 C 1000.47 0.300419 -1.93279 0
M  V30 11093 C 1000.85 1.67721 -1.28191 0
M  V30 11094 O 1000.2 2.24319 -0.435127 0
M  V30 11095 C 1000.41 0.366466 -3.47071 0
M  V30 11096 C 1001.76 0.614349 -4.20132 0
M  V30 11097 O 1002.78 0.448327 -3.53367 0
M  V30 11098 O 1001.64 0.936421 -5.38417 0
M  V30 11099 H 998.736 0.176599 -0.807924 0
M  V30 11100 H 1001.28 -0.401405 -1.64884 0
M  V30 11101 H 1000.05 -0.599455 -3.86681 0
M  V30 11102 H 999.677 1.11482 -3.81651 0
M  V30 11103 N 1000.67 1.57404 -0.0785433 0
M  V30 11104 C 1001.92 1.9292 0.588626 0
M  V30 11105 C 1002.24 0.961106 1.70359 0
M  V30 11106 O 1003.44 1.20934 2.43079 0
M  V30 11107 C 1001.9 3.42729 1.09839 0
M  V30 11108 C 1001.51 4.47998 0.0140773 0
M  V30 11109 C 1003.25 3.87235 1.73924 0
M  V30 11110 C 1001.16 5.88945 0.538269 0
M  V30 11111 H 1000.09 0.720069 0.223645 0
M  V30 11112 H 1002.74 1.8287 -0.15187 0
M  V30 11113 H 1001.12 3.47875 1.89207 0
M  V30 11114 H 1002.29 4.54476 -0.760773 0
M  V30 11115 H 1000.61 4.13001 -0.53095 0
M  V30 11116 H 1003.21 4.89927 2.14186 0
M  V30 11117 H 1003.55 3.24971 2.60191 0
M  V30 11118 H 1004.08 3.84721 1.01168 0
M  V30 11119 H 1000.82 6.5487 -0.287395 0
M  V30 11120 H 1000.34 5.85972 1.28049 0
M  V30 11121 H 1002.02 6.39028 1.01253 0
M  V30 11122 N 1002.15 -0.195058 1.56388 0
M  V30 11123 C 1003.08 -1.24444 1.97575 0
M  V30 11124 C 1004.06 -1.47471 0.847717 0
M  V30 11125 O 1005.25 -1.59208 1.11205 0
M  V30 11126 C 1002.38 -2.58866 2.31529 0
M  V30 11127 C 1001.33 -2.50451 3.47071 0
M  V30 11128 C 1000.66 -3.89146 3.667 0
M  V30 11129 C 1001.96 -2.02953 4.81256 0
M  V30 11130 H 1003.65 -0.902178 2.85484 0
M  V30 11131 H 1001.2 -0.43254 1.3735 0
M  V30 11132 H 1003.15 -3.3246 2.58936 0
M  V30 11133 H 1001.87 -2.94833 1.40502 0
M  V30 11134 H 1000.53 -1.79313 3.19754 0
M  V30 11135 H 1000.18 -4.22466 2.73004 0
M  V30 11136 H 999.882 -3.84391 4.44429 0
M  V30 11137 H 1001.41 -4.64363 3.96484 0
M  V30 11138 H 1002.82 -2.66306 5.07695 0
M  V30 11139 H 1001.22 -2.092 5.62455 0
M  V30 11140 H 1002.29 -0.982757 4.74837 0
M  V30 11141 N 1003.63 -1.50653 -0.462772 0
M  V30 11142 C 1004.58 -1.70122 -1.55971 0
M  V30 11143 C 1005.55 -0.542581 -1.56988 0
M  V30 11144 O 1006.73 -0.774114 -1.74391 0
M  V30 11145 C 1003.87 -1.80899 -2.93887 0
M  V30 11146 C 1002.98 -3.08318 -3.02595 0
M  V30 11147 C 1002.12 -3.09841 -4.31477 0
M  V30 11148 C 1001.16 -4.3168 -4.33957 0
M  V30 11149 N 1000.3 -4.30894 -5.54323 0
M  V30 11150 H 1005.14 -2.63768 -1.38674 0
M  V30 11151 H 1002.67 -1.30746 -0.674091 0
M  V30 11152 H 1004.63 -1.85128 -3.73876 0
M  V30 11153 H 1003.26 -0.906854 -3.098 0
M  V30 11154 H 1002.31 -3.13521 -2.15427 0
M  V30 11155 H 1003.62 -3.98282 -3.00288 0
M  V30 11156 H 1002.78 -3.12845 -5.1982 0
M  V30 11157 H 1001.52 -2.17722 -4.36404 0
M  V30 11158 H 1000.52 -4.28879 -3.4401 0
M  V30 11159 H 1001.75 -5.25035 -4.30715 0
M  V30 11160 H 999.694 -3.41633 -5.6002 0
M  V30 11161 H 999.611 -5.14636 -5.53792 0
M  V30 11162 H 1000.88 -4.38056 -6.44769 0
M  V30 11163 N 1005.11 0.71652 -1.4037 0
M  V30 11164 C 1006.39 1.46947 -1.29097 0
M  V30 11165 C 1006.77 2.10903 0.0911182 0
M  V30 11166 O 1006.11 2.00068 1.10385 0
M  V30 11167 C 1006.32 2.50594 -2.42907 0
M  V30 11168 C 1007.67 3.16451 -2.83097 0
M  V30 11169 O 1008.7 2.60913 -2.42493 0
M  V30 11170 O 1007.55 4.16991 -3.53244 0
M  V30 11171 H 1004.65 0.653413 -0.506932 0
M  V30 11172 H 1007.19 0.748774 -1.52287 0
M  V30 11173 H 1005.97 2.01843 -3.35224 0
M  V30 11174 H 1005.59 3.302 -2.21481 0
M  V30 11175 N 1006.59 1.25851 0.948643 0
M  V30 11176 C 1008 1.09975 1.50872 0
M  V30 11177 C 1008.35 -0.322497 1.93531 0
M  V30 11178 O 1007.47 -1.21316 1.79197 0
M  V30 11179 C 1008.07 1.99021 2.74182 0
M  V30 11180 C 1006.63 1.87313 3.26483 0
M  V30 11181 C 1005.77 1.92815 1.99293 0
M  V30 11182 H 1008.73 1.3905 0.764908 0
M  V30 11183 H 1008.75 1.53372 3.4822 0
M  V30 11184 H 1008.26 3.02527 2.43103 0
M  V30 11185 H 1006.36 0.867136 3.62369 0
M  V30 11186 H 1006.47 2.72446 3.94094 0
M  V30 11187 H 1004.84 1.36774 2.1486 0
M  V30 11188 H 1005.62 2.97936 1.70554 0
M  V30 11189 N 1008.06 -1.15214 1.07534 0
M  V30 11190 C 1008.97 -2.23636 0.708818 0
M  V30 11191 C 1009.99 -1.7172 -0.280759 0
M  V30 11192 O 1011.17 -2.01 -0.126927 0
M  V30 11193 C 1008.23 -3.46512 0.114167 0
M  V30 11194 C 1007.29 -4.13409 1.15722 0
M  V30 11195 C 1006.53 -5.30419 0.59085 0
M  V30 11196 O 1006.75 -5.67314 -0.592512 0
M  V30 11197 O 1005.68 -5.86871 1.33663 0
M  V30 11198 H 1009.51 -2.57322 1.61305 0
M  V30 11199 H 1007.09 -1.22972 0.848422 0
M  V30 11200 H 1008.98 -4.20851 -0.215091 0
M  V30 11201 H 1007.65 -3.1457 -0.763356 0
M  V30 11202 H 1006.56 -3.40984 1.53886 0
M  V30 11203 H 1007.89 -4.49435 2.00671 0
M  V30 11204 N 1009.54 -0.859717 -1.32086 0
M  V30 11205 C 1010.77 -0.479724 -2.01262 0
M  V30 11206 C 1011.19 0.924985 -1.64589 0
M  V30 11207 O 1010.54 1.60439 -0.869803 0
M  V30 11208 C 1010.59 -0.615128 -3.56228 0
M  V30 11209 O 1010.31 -1.96451 -3.91585 0
M  V30 11210 C 1011.82 -0.234804 -4.42678 0
M  V30 11211 H 1009.04 -0.188007 -0.644123 0
M  V30 11212 H 1011.58 -1.15805 -1.68551 0
M  V30 11213 H 1009.73 0.0155268 -3.87397 0
M  V30 11214 H 1010.15 -1.96491 -4.86304 0
M  V30 11215 H 1011.62 -0.380534 -5.50687 0
M  V30 11216 H 1012.1 0.825189 -4.31378 0
M  V30 11217 H 1012.71 -0.840739 -4.16907 0
M  V30 11218 N 1011.02 1.44971 -0.618145 0
M  V30 11219 C 1012.27 2.02458 -0.117656 0
M  V30 11220 C 1012.6 1.48413 1.25248 0
M  V30 11221 O 1011.87 0.662997 1.82851 0
M  V30 11222 C 1012.16 3.59987 -0.0901897 0
M  V30 11223 C 1012.01 4.24343 -1.49175 0
M  V30 11224 C 1013.33 4.36099 0.592121 0
M  V30 11225 H 1010.45 0.735672 -0.0442291 0
M  V30 11226 H 1013.09 1.727 -0.792138 0
M  V30 11227 H 1011.24 3.85471 0.484175 0
M  V30 11228 H 1012.91 4.10009 -2.114 0
M  V30 11229 H 1011.16 3.82337 -2.04941 0
M  V30 11230 H 1011.83 5.33298 -1.42468 0
M  V30 11231 H 1014.3 4.1597 0.103813 0
M  V30 11232 H 1013.18 5.45822 0.580481 0
M  V30 11233 H 1013.44 4.09746 1.66015 0
M  V30 11234 N 1012.5 0.357919 1.53482 0
M  V30 11235 C 1013.45 -0.49217 2.25491 0
M  V30 11236 C 1014.42 -1.08382 1.25867 0
M  V30 11237 O 1015.6 -1.11775 1.54632 0
M  V30 11238 C 1012.74 -1.6299 3.04185 0
M  V30 11239 C 1011.85 -1.06416 4.18688 0
M  V30 11240 C 1010.99 -2.17037 4.84839 0
M  V30 11241 C 1010.03 -1.57889 5.91386 0
M  V30 11242 N 1009.16 -2.6231 6.51259 0
M  V30 11243 H 1014 0.128412 2.97723 0
M  V30 11244 H 1011.54 0.0751423 1.46908 0
M  V30 11245 H 1013.5 -2.29993 3.48079 0
M  V30 11246 H 1012.13 -2.22125 2.34223 0
M  V30 11247 H 1011.18 -0.284635 3.79334 0
M  V30 11248 H 1012.49 -0.591654 4.95279 0
M  V30 11249 H 1011.65 -2.91876 5.31877 0
M  V30 11250 H 1010.39 -2.67636 4.07703 0
M  V30 11251 H 1009.39 -0.815605 5.43717 0
M  V30 11252 H 1010.62 -1.08123 6.70437 0
M  V30 11253 H 1008.56 -3.12137 5.7698 0
M  V30 11254 H 1008.48 -2.19724 7.23365 0
M  V30 11255 H 1009.75 -3.36875 7.02948 0
M  V30 11256 N 1013.98 -1.5736 0.0868897 0
M  V30 11257 C 1014.91 -2.10582 -0.904858 0
M  V30 11258 C 1015.92 -1.04124 -1.25148 0
M  V30 11259 O 1017.11 -1.31595 -1.20603 0
M  V30 11260 C 1014.21 -2.56381 -2.21635 0
M  V30 11261 C 1013.38 -3.86581 -2.04631 0
M  V30 11262 C 1012.44 -4.18313 -3.19219 0
M  V30 11263 O 1011.47 -4.87669 -2.93544 0
M  V30 11264 N 1012.67 -3.73061 -4.44754 0
M  V30 11265 H 1015.44 -2.96297 -0.450352 0
M  V30 11266 H 1013 -1.616 -0.0984376 0
M  V30 11267 H 1014.99 -2.7466 -2.97227 0
M  V30 11268 H 1013.56 -1.75721 -2.58536 0
M  V30 11269 H 1012.78 -3.77532 -1.13417 0
M  V30 11270 H 1014.07 -4.71777 -1.90537 0
M  V30 11271 H 1013.46 -3.1706 -4.68497 0
M  V30 11272 H 1012.02 -3.96511 -5.17322 0
M  V30 11273 N 1015.45 0.186762 -1.56489 0
M  V30 11274 C 1016.38 1.23395 -1.98232 0
M  V30 11275 C 1017.37 1.4702 -0.855526 0
M  V30 11276 O 1018.55 1.58616 -1.12048 0
M  V30 11277 C 1015.68 2.57635 -2.32898 0
M  V30 11278 C 1014.63 2.48607 -3.48394 0
M  V30 11279 C 1013.96 3.87196 -3.68759 0
M  V30 11280 C 1015.26 2.00398 -4.82325 0
M  V30 11281 H 1016.95 0.887026 -2.85958 0
M  V30 11282 H 1014.5 0.42525 -1.37578 0
M  V30 11283 H 1016.45 3.31082 -2.60696 0
M  V30 11284 H 1015.18 2.94084 -1.42064 0
M  V30 11285 H 1013.84 1.77615 -3.207 0
M  V30 11286 H 1013.48 4.21012 -2.75241 0
M  V30 11287 H 1013.18 3.82029 -4.46462 0
M  V30 11288 H 1014.71 4.62253 -3.98941 0
M  V30 11289 H 1016.12 2.6361 -5.091 0
M  V30 11290 H 1014.52 2.06214 -5.63556 0
M  V30 11291 H 1015.59 0.957562 -4.75351 0
M  V30 11292 N 1016.93 1.50896 0.454776 0
M  V30 11293 C 1018.18 1.62378 1.20324 0
M  V30 11294 C 1018.5 0.333883 1.9212 0
M  V30 11295 O 1017.77 -0.649477 1.8482 0
M  V30 11296 H 1016.35 0.598395 0.447139 0
M  V30 11297 H 1019.01 1.87749 0.523102 0
M  V30 11298 H 1018.11 2.44296 1.94232 0
M  V30 11299 N 1018.41 -0.709066 1.40748 0
M  V30 11300 C 1019.64 -1.50313 1.42901 0
M  V30 11301 C 1020.06 -1.88072 0.032213 0
M  V30 11302 O 1019.42 -1.53716 -0.96131 0
M  V30 11303 C 1019.47 -2.75074 2.33166 0
M  V30 11304 O 1018.57 -3.72036 1.7794 0
M  V30 11305 H 1017.91 -0.452934 0.485538 0
M  V30 11306 H 1020.44 -0.872712 1.85054 0
M  V30 11307 H 1020.45 -3.23532 2.48578 0
M  V30 11308 H 1019.13 -2.46927 3.34664 0
M  V30 11309 H 1017.7 -3.30911 1.71908 0
M  V30 11310 N 1019.89 -1.26353 -0.941956 0
M  V30 11311 C 1021.14 -1.11241 -1.68251 0
M  V30 11312 C 1021.45 0.344055 -1.9255 0
M  V30 11313 O 1022.66 0.615832 -2.64423 0
M  V30 11314 C 1021.11 -1.94269 -3.02965 0
M  V30 11315 C 1020.72 -3.44485 -2.86415 0
M  V30 11316 C 1022.47 -1.87764 -3.80716 0
M  V30 11317 C 1020.37 -4.19763 -4.16597 0
M  V30 11318 H 1019.3 -0.412694 -0.63103 0
M  V30 11319 H 1021.95 -1.50656 -1.04762 0
M  V30 11320 H 1020.34 -1.47687 -3.6743 0
M  V30 11321 H 1021.51 -3.9883 -2.30805 0
M  V30 11322 H 1019.82 -3.52218 -2.22107 0
M  V30 11323 H 1022.42 -2.41292 -4.77161 0
M  V30 11324 H 1022.76 -0.848195 -4.07568 0
M  V30 11325 H 1023.3 -2.32165 -3.23024 0
M  V30 11326 H 1020.04 -5.23173 -3.9493 0
M  V30 11327 H 1019.56 -3.70198 -4.71925 0
M  V30 11328 H 1021.24 -4.28168 -4.85058 0
M  V30 11329 N 1021.37 1.14642 -1.08144 0
M  V30 11330 C 1022.3 2.21775 -0.730609 0
M  V30 11331 C 1023.28 1.67683 0.285702 0
M  V30 11332 O 1024.46 1.93567 0.156667 0
M  V30 11333 C 1021.59 3.47033 -0.136242 0
M  V30 11334 C 1020.55 4.14134 -1.0806 0
M  V30 11335 C 1019.87 5.33563 -0.348585 0
M  V30 11336 C 1021.17 4.62978 -2.41761 0
M  V30 11337 H 1022.87 2.51378 -1.62633 0
M  V30 11338 H 1020.41 1.20825 -0.783411 0
M  V30 11339 H 1022.37 4.21226 0.121182 0
M  V30 11340 H 1021.09 3.16786 0.7946 0
M  V30 11341 H 1019.75 3.41892 -1.32308 0
M  V30 11342 H 1019.4 4.99575 0.585974 0
M  V30 11343 H 1019.1 5.79402 -0.978122 0
M  V30 11344 H 1020.62 6.10519 -0.0991508 0
M  V30 11345 H 1022.04 5.28659 -2.21795 0
M  V30 11346 H 1020.43 5.1951 -3.00383 0
M  V30 11347 H 1021.5 3.78189 -3.03482 0
M  V30 11348 N 1022.85 0.866709 1.31628 0
M  V30 11349 C 1023.79 0.318169 2.28596 0
M  V30 11350 C 1024.76 -0.581558 1.55586 0
M  V30 11351 O 1025.95 -0.513895 1.83749 0
M  V30 11352 C 1023.09 -0.477137 3.41786 0
M  V30 11353 C 1022.2 0.449739 4.29653 0
M  V30 11354 C 1021.34 -0.359373 5.29983 0
M  V30 11355 C 1020.37 0.564138 6.09495 0
M  V30 11356 N 1019.51 -0.208526 7.0179 0
M  V30 11357 H 1024.35 1.15029 2.74904 0
M  V30 11358 H 1021.89 0.578649 1.35241 0
M  V30 11359 H 1023.85 -0.953985 4.06146 0
M  V30 11360 H 1022.48 -1.27398 2.96597 0
M  V30 11361 H 1021.53 1.04502 3.65764 0
M  V30 11362 H 1022.84 1.158 4.85172 0
M  V30 11363 H 1021.99 -0.89887 6.00004 0
M  V30 11364 H 1020.73 -1.10094 4.75111 0
M  V30 11365 H 1019.74 1.11542 5.38366 0
M  V30 11366 H 1020.96 1.30451 6.66453 0
M  V30 11367 H 1018.91 -0.932969 6.49332 0
M  V30 11368 H 1018.83 0.440463 7.54716 0
M  V30 11369 H 1020.09 -0.72936 7.7608 0
M  V30 11370 N 1024.32 -1.44642 0.625825 0
M  V30 11371 C 1025.55 -2.06458 0.135116 0
M  V30 11372 C 1025.97 -1.46729 -1.18811 0
M  V30 11373 O 1025.32 -0.58818 -1.72762 0
M  V30 11374 C 1025.37 -3.61499 0.00850114 0
M  V30 11375 O 1025.1 -4.19002 1.2794 0
M  V30 11376 C 1026.6 -4.40339 -0.511527 0
M  V30 11377 H 1023.82 -0.666541 0.0772294 0
M  V30 11378 H 1026.36 -1.85597 0.858726 0
M  V30 11379 H 1024.52 -3.81641 -0.665522 0
M  V30 11380 H 1024.93 -5.12385 1.12081 0
M  V30 11381 H 1026.4 -5.49262 -0.549149 0
M  V30 11382 H 1026.88 -4.11409 -1.53752 0
M  V30 11383 H 1027.49 -4.25104 0.129066 0
M  V30 11384 N 1025.8 -0.366053 -1.5329 0
M  V30 11385 C 1026.75 0.495319 -2.27265 0
M  V30 11386 C 1027.74 1.08298 -1.30261 0
M  V30 11387 O 1028.95 1.02613 -1.47887 0
M  V30 11388 H 1025.32 0.178454 -0.730519 0
M  V30 11389 H 1027.3 -0.150354 -2.98021 0
M  V30 11390 C 1026.04 1.62283 -3.07505 0
M  V30 11391 H 1025.37 1.17993 -3.81992 0
M  V30 11392 H 1026.81 2.20024 -3.62444 0
M  V30 11393 C 1025.27 2.56542 -2.18375 0
M  V30 11394 O 1025.8 3.59371 -1.79486 0
M  V30 11395 N 1024 2.25742 -1.82999 0
M  V30 11396 H 1023.55 1.42159 -2.14822 0
M  V30 11397 H 1023.51 2.89064 -1.2365 0
M  V30 11398 N 1027.28 1.57312 -0.0952337 0
M  V30 11399 C 1028.53 1.94646 0.569284 0
M  V30 11400 C 1028.86 0.977152 1.67825 0
M  V30 11401 O 1028.13 0.0102318 1.94497 0
M  V30 11402 C 1028.42 3.42098 1.12433 0
M  V30 11403 C 1028.27 4.49795 0.0204016 0
M  V30 11404 C 1029.59 3.90866 2.02266 0
M  V30 11405 H 1026.71 0.707779 0.205469 0
M  V30 11406 H 1029.35 1.89274 -0.16597 0
M  V30 11407 H 1027.5 3.46807 1.75092 0
M  V30 11408 H 1029.17 4.57198 -0.613845 0
M  V30 11409 H 1027.41 4.28964 -0.645965 0
M  V30 11410 H 1028.09 5.50166 0.449579 0
M  V30 11411 H 1030.56 3.88311 1.49512 0
M  V30 11412 H 1029.44 4.94604 2.38029 0
M  V30 11413 H 1029.7 3.30167 2.9401 0
M  V30 11414 N 1028.76 -0.17846 1.56586 0
M  V30 11415 C 1030.17 -0.529957 1.50544 0
M  V30 11416 C 1030.37 -1.85015 0.798237 0
M  V30 11417 O 1029.43 -2.49983 0.355639 0
M  V30 11418 C 1030.74 -0.569314 2.95261 0
M  V30 11419 C 1032.29 -0.657008 3.06027 0
M  V30 11420 C 1032.77 -0.727323 4.52188 0
M  V30 11421 N 1034.26 -0.790406 4.56406 0
M  V30 11422 C 1034.99 -0.865265 5.66834 0
M  V30 11423 N 1034.49 -0.901398 6.86911 0
M  V30 11424 N 1036.28 -0.903736 5.54787 0
M  V30 11425 H 1028.43 0.687304 2.00972 0
M  V30 11426 H 1030.69 0.246936 0.915274 0
M  V30 11427 H 1030.4 0.331934 3.5013 0
M  V30 11428 H 1030.27 -1.41828 3.4952 0
M  V30 11429 H 1032.66 -1.54868 2.51197 0
M  V30 11430 H 1032.74 0.218495 2.54865 0
M  V30 11431 H 1032.39 0.160067 5.07648 0
M  V30 11432 H 1032.32 -1.61887 5.01099 0
M  V30 11433 H 1034.81 -0.771054 3.6995 0
M  V30 11434 H 1035.12 -0.959494 7.6682 0
M  V30 11435 H 1033.47 -0.869795 6.89536 0
M  V30 11436 H 1036.66 -0.872459 4.59898 0
M  V30 11437 H 1036.83 -0.958615 6.4087 0
M  V30 11438 N 1030.24 -1.51135 -0.446768 0
M  V30 11439 C 1031.2 -1.71187 -1.52406 0
M  V30 11440 C 1032.2 -0.582037 -1.49897 0
M  V30 11441 O 1033.39 -0.849452 -1.52085 0
M  V30 11442 C 1030.52 -1.75962 -2.91976 0
M  V30 11443 H 1031.71 -2.67324 -1.35934 0
M  V30 11444 H 1029.27 -1.40982 -0.674813 0
M  V30 11445 H 1030 -0.816065 -3.13864 0
M  V30 11446 H 1029.79 -2.58065 -2.95203 0
M  V30 11447 H 1031.28 -1.93347 -3.70144 0
M  V30 11448 N 1031.71 0.701592 -1.41122 0
M  V30 11449 C 1032.95 1.4739 -1.41618 0
M  V30 11450 C 1033.32 1.91987 -0.0219443 0
M  V30 11451 O 1034.52 2.6862 0.0982793 0
M  V30 11452 C 1032.79 2.65745 -2.38986 0
M  V30 11453 S 1034.35 3.54968 -2.5796 0
M  V30 11454 H 1031.17 0.503742 -0.501762 0
M  V30 11455 H 1033.77 0.819186 -1.77509 0
M  V30 11456 H 1032.47 2.31176 -3.39096 0
M  V30 11457 H 1032 3.36115 -2.04426 0
M  V30 11458 H 1034.02 4.60724 -1.84249 0
M  V30 11459 N 1033.19 1.2685 0.935242 0
M  V30 11460 C 1034.14 1.08923 2.03481 0
M  V30 11461 C 1035.11 -0.00749786 1.66098 0
M  V30 11462 O 1036.29 0.153401 1.90182 0
M  V30 11463 C 1033.43 0.734529 3.37192 0
M  V30 11464 C 1032.55 1.90812 3.87576 0
M  V30 11465 C 1031.68 1.49599 5.097 0
M  V30 11466 C 1030.72 2.63752 5.5236 0
M  V30 11467 N 1029.86 2.23179 6.65684 0
M  V30 11468 H 1034.7 2.03016 2.18148 0
M  V30 11469 H 1032.23 1.01072 1.06878 0
M  V30 11470 H 1034.19 0.509734 4.14074 0
M  V30 11471 H 1032.82 -0.169438 3.22355 0
M  V30 11472 H 1031.87 2.24567 3.0704 0
M  V30 11473 H 1033.19 2.7647 4.1517 0
M  V30 11474 H 1032.34 1.23199 5.9406 0
M  V30 11475 H 1031.08 0.61039 4.83865 0
M  V30 11476 H 1030.08 2.90874 4.66554 0
M  V30 11477 H 1031.31 3.5292 5.80193 0
M  V30 11478 H 1029.26 1.37061 6.41522 0
M  V30 11479 H 1029.17 3.02379 6.92895 0
M  V30 11480 H 1030.44 2.00007 7.53404 0
M  V30 11481 N 1034.67 -1.14067 1.0875 0
M  V30 11482 C 1035.63 -2.17453 0.724341 0
M  V30 11483 C 1036.63 -1.58959 -0.242614 0
M  V30 11484 O 1037.82 -1.74186 -0.0217008 0
M  V30 11485 C 1034.96 -3.40828 0.0700236 0
M  V30 11486 H 1036.15 -2.51094 1.63987 0
M  V30 11487 H 1033.7 -1.28775 0.885813 0
M  V30 11488 H 1034.44 -3.1277 -0.857061 0
M  V30 11489 H 1034.22 -3.84551 0.76569 0
M  V30 11490 H 1035.71 -4.17258 -0.168905 0
M  V30 11491 N 1036.15 -0.873678 -1.31166 0
M  V30 11492 C 1037.39 -0.487178 -1.96861 0
M  V30 11493 C 1037.73 0.95887 -1.68877 0
M  V30 11494 O 1037 1.6758 -0.987279 0
M  V30 11495 C 1037.29 -0.74925 -3.52219 0
M  V30 11496 C 1037.14 -2.2451 -3.89763 0
M  V30 11497 C 1038.46 -0.218194 -4.39559 0
M  V30 11498 H 1035.58 -0.178477 -0.715063 0
M  V30 11499 H 1038.22 -1.0956 -1.55231 0
M  V30 11500 H 1036.37 -0.231403 -3.8781 0
M  V30 11501 H 1038.04 -2.83049 -3.64254 0
M  V30 11502 H 1036.28 -2.71621 -3.38237 0
M  V30 11503 H 1036.95 -2.37911 -4.98099 0
M  V30 11504 H 1039.43 -0.661274 -4.10812 0
M  V30 11505 H 1038.31 -0.430983 -5.47205 0
M  V30 11506 H 1038.57 0.880056 -4.33252 0
M  V30 11507 N 1037.63 1.44308 -0.633487 0
M  V30 11508 C 1038.87 2.01624 -0.138643 0
M  V30 11509 C 1039.2 1.50101 1.24477 0
M  V30 11510 O 1038.47 0.705575 1.82752 0
M  V30 11511 H 1037.05 0.745439 -0.0482636 0
M  V30 11512 H 1039.71 1.76777 -0.820719 0
M  V30 11513 H 1038.8 3.11913 -0.108136 0
M  V30 11514 N 1039.1 0.374177 1.53094 0
M  V30 11515 C 1040.05 -0.484848 2.22785 0
M  V30 11516 C 1041.04 -1.04181 1.22617 0
M  V30 11517 O 1042.23 -0.97043 1.48026 0
M  V30 11518 C 1039.36 -1.61956 3.02696 0
M  V30 11519 C 1038.45 -1.07506 4.10248 0
M  V30 11520 N 1038.84 -0.254253 5.05161 0
M  V30 11521 C 1037.13 -1.34904 4.25108 0
M  V30 11522 C 1037.84 0.0448558 5.81683 0
M  V30 11523 N 1036.81 -0.555073 5.40759 0
M  V30 11524 H 1040.61 0.148976 2.93522 0
M  V30 11525 H 1038.13 0.182656 1.6137 0
M  V30 11526 H 1040.12 -2.24723 3.51148 0
M  V30 11527 H 1038.78 -2.25636 2.33492 0
M  V30 11528 H 1039.8 0.107256 5.17789 0
M  V30 11529 H 1036.47 -1.98799 3.67131 0
M  V30 11530 H 1037.86 0.708952 6.68149 0
M  V30 11531 N 1040.58 -1.57259 0.103575 0
M  V30 11532 C 1041.99 -1.81816 -0.424239 0
M  V30 11533 C 1042.34 -1.01976 -1.67617 0
M  V30 11534 O 1041.47 -0.251673 -2.14932 0
M  V30 11535 C 1042.06 -3.29783 -0.776453 0
M  V30 11536 C 1040.62 -3.55074 -1.24897 0
M  V30 11537 C 1039.77 -2.76172 -0.249875 0
M  V30 11538 H 1042.72 -1.55254 0.328913 0
M  V30 11539 H 1042.74 -3.43569 -1.63526 0
M  V30 11540 H 1042.25 -3.87865 0.134906 0
M  V30 11541 H 1040.36 -3.02332 -2.17775 0
M  V30 11542 H 1040.47 -4.637 -1.20495 0
M  V30 11543 H 1038.83 -2.43902 -0.733767 0
M  V30 11544 H 1039.62 -3.37007 0.65431 0
M  V30 11545 N 1042.06 0.170153 -1.56679 0
M  V30 11546 C 1043.31 0.886592 -1.8206 0
M  V30 11547 C 1043.64 1.82194 -0.680839 0
M  V30 11548 O 1042.89 1.92866 0.331822 0
M  V30 11549 C 1043.19 1.71402 -3.13618 0
M  V30 11550 C 1042.86 0.927489 -4.41258 0
M  V30 11551 C 1041.52 0.710417 -4.75927 0
M  V30 11552 C 1043.87 0.375855 -5.19843 0
M  V30 11553 C 1041.2 -0.0693691 -5.86659 0
M  V30 11554 C 1043.55 -0.390849 -6.31391 0
M  V30 11555 C 1042.21 -0.61871 -6.64626 0
M  V30 11556 H 1041.48 0.324427 -0.666204 0
M  V30 11557 H 1044.13 0.151464 -1.909 0
M  V30 11558 H 1042.44 2.51858 -3.00125 0
M  V30 11559 H 1044.13 2.27141 -3.30466 0
M  V30 11560 H 1040.72 1.10672 -4.14065 0
M  V30 11561 H 1044.91 0.530897 -4.93452 0
M  V30 11562 H 1040.16 -0.255637 -6.10865 0
M  V30 11563 H 1044.34 -0.825544 -6.9149 0
M  V30 11564 H 1041.96 -1.22482 -7.50268 0
M  V30 11565 N 1043.54 1.5137 0.438746 0
M  V30 11566 C 1044.78 1.64211 1.19006 0
M  V30 11567 C 1045.12 0.356607 1.90898 0
M  V30 11568 O 1044.39 -0.643722 1.83539 0
M  V30 11569 C 1044.68 2.8445 2.20817 0
M  V30 11570 C 1044.53 4.22972 1.53018 0
M  V30 11571 C 1045.85 3.00207 3.21813 0
M  V30 11572 H 1042.97 0.597628 0.431288 0
M  V30 11573 H 1045.61 1.8385 0.479487 0
M  V30 11574 H 1043.76 2.67836 2.81418 0
M  V30 11575 H 1045.43 4.5125 0.957654 0
M  V30 11576 H 1043.67 4.25736 0.832556 0
M  V30 11577 H 1044.34 5.03094 2.27158 0
M  V30 11578 H 1046.82 3.15522 2.71266 0
M  V30 11579 H 1045.7 3.85904 3.90345 0
M  V30 11580 H 1045.96 2.12216 3.87836 0
M  V30 11581 N 1045.02 -0.694098 1.41492 0
M  V30 11582 C 1046.27 -1.4498 1.40227 0
M  V30 11583 C 1046.58 -1.95594 0.0151253 0
M  V30 11584 O 1047.78 -2.71234 -0.120146 0
M  V30 11585 C 1046.24 -2.62171 2.46565 0
M  V30 11586 C 1045.85 -2.18337 3.91194 0
M  V30 11587 C 1047.59 -3.39796 2.54439 0
M  V30 11588 C 1045.5 -3.32495 4.89082 0
M  V30 11589 H 1044.43 -0.544584 0.521483 0
M  V30 11590 H 1047.08 -0.75337 1.67322 0
M  V30 11591 H 1045.46 -3.34089 2.12604 0
M  V30 11592 H 1046.64 -1.53698 4.34412 0
M  V30 11593 H 1044.95 -1.53702 3.86994 0
M  V30 11594 H 1047.55 -4.2478 3.24755 0
M  V30 11595 H 1047.89 -3.85082 1.5817 0
M  V30 11596 H 1048.42 -2.74935 2.87499 0
M  V30 11597 H 1045.16 -2.92219 5.86761 0
M  V30 11598 H 1044.68 -3.95978 4.50512 0
M  V30 11599 H 1046.36 -3.98251 5.09907 0
M  V30 11600 N 1046.49 -1.27344 -0.928501 0
M  V30 11601 C 1047.43 -1.05797 -2.03322 0
M  V30 11602 C 1048.44 -0.0143086 -1.62794 0
M  V30 11603 O 1049.63 -0.25578 -1.76658 0
M  V30 11604 C 1046.73 -0.582673 -3.33853 0
M  V30 11605 C 1045.9 -1.69844 -4.03078 0
M  V30 11606 C 1044.96 -1.21902 -5.11885 0
M  V30 11607 O 1043.99 -1.91853 -5.35893 0
M  V30 11608 N 1045.19 -0.0742392 -5.80453 0
M  V30 11609 H 1047.95 -2.00928 -2.22369 0
M  V30 11610 H 1045.51 -1.189 -1.09883 0
M  V30 11611 H 1047.51 -0.245862 -4.03952 0
M  V30 11612 H 1046.08 0.27539 -3.11385 0
M  V30 11613 H 1045.3 -2.20557 -3.26723 0
M  V30 11614 H 1046.58 -2.4473 -4.46077 0
M  V30 11615 H 1045.98 0.509631 -5.634 0
M  V30 11616 H 1044.54 0.203399 -6.51483 0
M  V30 11617 N 1047.97 1.13488 -1.09353 0
M  V30 11618 C 1048.9 2.20988 -0.75409 0
M  V30 11619 C 1049.88 1.67977 0.267901 0
M  V30 11620 O 1051.07 1.93722 0.136128 0
M  V30 11621 C 1048.2 3.46869 -0.173042 0
M  V30 11622 C 1047.15 4.12965 -1.12446 0
M  V30 11623 C 1046.48 5.33163 -0.405157 0
M  V30 11624 C 1047.78 4.60388 -2.46658 0
M  V30 11625 H 1049.47 2.49639 -1.6529 0
M  V30 11626 H 1047.02 1.19987 -0.796182 0
M  V30 11627 H 1048.97 4.21331 0.0764988 0
M  V30 11628 H 1047.7 3.17611 0.760956 0
M  V30 11629 H 1046.35 3.40469 -1.35927 0
M  V30 11630 H 1046 5.00169 0.532955 0
M  V30 11631 H 1045.7 5.78332 -1.03952 0
M  V30 11632 H 1047.23 6.1038 -0.163899 0
M  V30 11633 H 1048.64 5.26276 -2.27389 0
M  V30 11634 H 1047.04 5.16294 -3.05876 0
M  V30 11635 H 1048.11 3.74949 -3.07476 0
M  V30 11636 N 1049.45 0.880621 1.30701 0
M  V30 11637 C 1050.7 0.495894 1.95922 0
M  V30 11638 C 1051.02 -0.957214 1.69889 0
M  V30 11639 O 1050.29 -1.67245 1.0201 0
M  V30 11640 H 1048.87 0.180394 0.724891 0
M  V30 11641 H 1051.53 1.12274 1.59313 0
M  V30 11642 H 1050.63 0.662508 3.04987 0
M  V30 11643 N 1050.93 -1.4397 0.641131 0
M  V30 11644 C 1052.35 -1.56607 0.30762 0
M  V30 11645 C 1052.55 -1.62694 -1.18882 0
M  V30 11646 O 1051.6 -1.57541 -1.97325 0
M  V30 11647 C 1052.91 -2.83289 1.00834 0
M  V30 11648 C 1054.46 -2.97016 0.98744 0
M  V30 11649 C 1054.94 -4.26514 1.66882 0
M  V30 11650 N 1056.43 -4.33351 1.63589 0
M  V30 11651 C 1057.16 -5.32292 2.13196 0
M  V30 11652 N 1056.66 -6.37582 2.71038 0
M  V30 11653 N 1058.45 -5.23866 2.03766 0
M  V30 11654 H 1050.6 -1.38262 1.61237 0
M  V30 11655 H 1052.87 -0.663221 0.677378 0
M  V30 11656 H 1052.57 -2.84812 2.06337 0
M  V30 11657 H 1052.45 -3.73134 0.552333 0
M  V30 11658 H 1054.83 -2.95041 -0.0591395 0
M  V30 11659 H 1054.91 -2.08493 1.48203 0
M  V30 11660 H 1054.56 -4.2925 2.71491 0
M  V30 11661 H 1054.49 -5.13912 1.14898 0
M  V30 11662 H 1056.98 -3.5788 1.21368 0
M  V30 11663 H 1057.29 -7.09378 3.06597 0
M  V30 11664 H 1055.64 -6.38239 2.75093 0
M  V30 11665 H 1058.83 -4.40524 1.58291 0
M  V30 11666 H 1059 -6.00819 2.42737 0
M  V30 11667 N 1052.41 -0.382291 -1.52893 0
M  V30 11668 C 1053.66 0.203342 -2.00672 0
M  V30 11669 C 1053.97 1.48487 -1.27322 0
M  V30 11670 O 1055.18 2.15013 -1.65776 0
M  V30 11671 C 1053.63 0.412922 -3.57523 0
M  V30 11672 C 1053.24 -0.854949 -4.39767 0
M  V30 11673 C 1054.98 0.955301 -4.13611 0
M  V30 11674 C 1052.89 -0.614033 -5.88204 0
M  V30 11675 H 1051.82 0.0797635 -0.749769 0
M  V30 11676 H 1054.47 -0.50361 -1.76454 0
M  V30 11677 H 1052.85 1.18155 -3.77962 0
M  V30 11678 H 1054.03 -1.62765 -4.31096 0
M  V30 11679 H 1052.34 -1.32176 -3.94865 0
M  V30 11680 H 1054.94 1.15114 -5.22162 0
M  V30 11681 H 1055.28 1.92233 -3.69259 0
M  V30 11682 H 1055.82 0.24642 -3.97036 0
M  V30 11683 H 1052.55 -1.55187 -6.36865 0
M  V30 11684 H 1052.07 0.119865 -5.9968 0
M  V30 11685 H 1053.75 -0.245895 -6.46533 0
M  V30 11686 N 1053.89 1.57202 -0.111913 0
M  V30 11687 C 1055.12 1.99008 0.554907 0
M  V30 11688 C 1055.52 0.990323 1.61212 0
M  V30 11689 O 1054.87 -0.0259612 1.83682 0
M  V30 11690 C 1054.93 3.37218 1.24598 0
M  V30 11691 C 1054.59 4.55752 0.337549 0
M  V30 11692 C 1055.59 5.18192 -0.421026 0
M  V30 11693 C 1053.27 5.01674 0.25069 0
M  V30 11694 C 1055.27 6.24938 -1.25426 0
M  V30 11695 C 1052.96 6.08282 -0.586186 0
M  V30 11696 C 1053.95 6.6978 -1.3373 0
M  V30 11697 O 1053.64 7.7433 -2.16029 0
M  V30 11698 H 1053.37 0.658669 0.152091 0
M  V30 11699 H 1055.93 2.04492 -0.192937 0
M  V30 11700 H 1054.16 3.28467 2.04074 0
M  V30 11701 H 1055.85 3.63359 1.809 0
M  V30 11702 H 1056.61 4.83634 -0.363752 0
M  V30 11703 H 1052.49 4.53558 0.825005 0
M  V30 11704 H 1056.04 6.72869 -1.84102 0
M  V30 11705 H 1051.93 6.42271 -0.64488 0
M  V30 11706 H 1052.7 7.91395 -2.08894 0
M  V30 11707 N 1055.36 -0.161842 1.56767 0
M  V30 11708 C 1056.29 -1.20226 2.0017 0
M  V30 11709 C 1057.27 -1.4564 0.878807 0
M  V30 11710 O 1058.46 -1.56813 1.14557 0
M  V30 11711 C 1055.59 -2.53897 2.36968 0
M  V30 11712 C 1054.54 -2.43033 3.52305 0
M  V30 11713 C 1053.87 -3.81281 3.74872 0
M  V30 11714 C 1055.17 -1.927 4.85453 0
M  V30 11715 H 1056.86 -0.84142 2.87333 0
M  V30 11716 H 1054.41 -0.403309 1.38237 0
M  V30 11717 H 1056.36 -3.26893 2.6593 0
M  V30 11718 H 1055.09 -2.91787 1.46724 0
M  V30 11719 H 1053.75 -1.7249 3.23485 0
M  V30 11720 H 1053.39 -4.1658 2.81904 0
M  V30 11721 H 1053.09 -3.74877 4.52483 0
M  V30 11722 H 1054.62 -4.55848 4.06245 0
M  V30 11723 H 1056.03 -2.55477 5.13229 0
M  V30 11724 H 1054.43 -1.97222 5.66766 0
M  V30 11725 H 1055.5 -0.881816 4.76814 0
M  V30 11726 N 1056.84 -1.516 -0.430713 0
M  V30 11727 C 1058.12 -1.55142 -1.19123 0
M  V30 11728 C 1058.5 -0.319596 -2.08667 0
M  V30 11729 O 1057.85 0.694927 -2.17676 0
M  V30 11730 C 1058.06 -2.86891 -1.98732 0
M  V30 11731 C 1059.4 -3.39089 -2.55546 0
M  V30 11732 O 1060.43 -2.88486 -2.08936 0
M  V30 11733 O 1059.29 -4.27401 -3.40574 0
M  V30 11734 H 1056.38 -0.624019 -0.542705 0
M  V30 11735 H 1058.93 -1.63917 -0.439244 0
M  V30 11736 H 1057.7 -3.68002 -1.33005 0
M  V30 11737 H 1057.32 -2.81309 -2.80982 0
M  V30 11738 N 1058.32 0.686584 -1.41858 0
M  V30 11739 C 1059.25 1.81107 -1.38836 0
M  V30 11740 C 1060.23 1.60599 -0.254293 0
M  V30 11741 O 1061.41 1.83229 -0.442641 0
M  V30 11742 C 1058.54 3.17928 -1.16787 0
M  V30 11743 C 1057.59 3.5721 -2.33031 0
M  V30 11744 S 1058.42 3.60986 -3.95536 0
M  V30 11745 C 1059.58 5.00519 -3.75808 0
M  V30 11746 H 1059.81 1.83396 -2.33994 0
M  V30 11747 H 1057.34 0.856146 -1.28489 0
M  V30 11748 H 1059.3 3.9691 -1.04752 0
M  V30 11749 H 1057.96 3.1324 -0.232335 0
M  V30 11750 H 1057.15 4.56629 -2.13321 0
M  V30 11751 H 1056.76 2.8556 -2.41519 0
M  V30 11752 H 1059.05 5.88272 -3.36069 0
M  V30 11753 H 1059.99 5.25273 -4.74862 0
M  V30 11754 H 1060.4 4.72481 -3.08904 0
M  V30 11755 N 1059.8 1.27835 0.921735 0
M  V30 11756 C 1060.73 1.136 2.04003 0
M  V30 11757 C 1061.71 0.0358756 1.70062 0
M  V30 11758 O 1062.89 0.211438 1.93046 0
M  V30 11759 C 1060.02 0.788697 3.38226 0
M  V30 11760 C 1058.98 1.84272 3.863 0
M  V30 11761 C 1058.3 1.34923 5.17397 0
M  V30 11762 C 1059.6 3.24788 4.09035 0
M  V30 11763 H 1061.3 2.07149 2.1617 0
M  V30 11764 H 1058.84 0.997349 1.0387 0
M  V30 11765 H 1060.8 0.675911 4.15944 0
M  V30 11766 H 1059.52 -0.182499 3.2609 0
M  V30 11767 H 1058.18 1.94451 3.1078 0
M  V30 11768 H 1057.83 0.367328 5.01657 0
M  V30 11769 H 1057.53 2.05397 5.50532 0
M  V30 11770 H 1059.05 1.24951 5.97678 0
M  V30 11771 H 1060.47 3.17575 4.77304 0
M  V30 11772 H 1058.86 3.93025 4.53488 0
M  V30 11773 H 1059.93 3.69398 3.14122 0
M  V30 11774 N 1061.28 -1.12907 1.09954 0
M  V30 11775 C 1062.22 -2.20561 0.73863 0
M  V30 11776 C 1063.22 -1.67347 -0.262944 0
M  V30 11777 O 1064.42 -1.79574 -0.123834 0
M  V30 11778 H 1060.8 -0.718823 0.220901 0
M  V30 11779 H 1062.77 -2.4826 1.65559 0
M  V30 11780 C 1061.52 -3.47227 0.181239 0
M  V30 11781 H 1060.84 -3.88516 0.943144 0
M  V30 11782 H 1062.28 -4.23987 -0.0332888 0
M  V30 11783 C 1060.74 -3.18956 -1.08485 0
M  V30 11784 O 1061.27 -3.38224 -2.1672 0
M  V30 11785 N 1059.48 -2.72797 -1.00151 0
M  V30 11786 H 1059.02 -2.57317 -0.120645 0
M  V30 11787 H 1058.98 -2.54256 -1.84935 0
M  V30 11788 N 1062.75 -0.88754 -1.30232 0
M  V30 11789 C 1064 -0.508031 -1.96334 0
M  V30 11790 C 1064.33 0.940905 -1.69884 0
M  V30 11791 O 1063.61 1.66523 -1.005 0
M  V30 11792 C 1063.89 -0.786566 -3.51405 0
M  V30 11793 C 1063.74 -2.28632 -3.8736 0
M  V30 11794 C 1065.06 -0.264803 -4.39303 0
M  V30 11795 H 1062.18 -0.186051 -0.71313 0
M  V30 11796 H 1064.82 -1.112 -1.5406 0
M  V30 11797 H 1062.97 -0.272523 -3.87543 0
M  V30 11798 H 1064.65 -2.86896 -3.61231 0
M  V30 11799 H 1062.89 -2.75194 -3.35337 0
M  V30 11800 H 1063.56 -2.43181 -4.95547 0
M  V30 11801 H 1066.04 -0.704809 -4.10087 0
M  V30 11802 H 1064.91 -0.488998 -5.46717 0
M  V30 11803 H 1065.17 0.834055 -4.34161 0
M  V30 11804 N 1064.23 1.43628 -0.648757 0
M  V30 11805 C 1065.46 2.05918 -0.167701 0
M  V30 11806 C 1065.87 1.48681 1.17006 0
M  V30 11807 O 1065.21 0.610984 1.73242 0
M  V30 11808 C 1065.28 3.595 0.00265514 0
M  V30 11809 C 1064.94 4.39295 -1.2597 0
M  V30 11810 C 1065.94 4.71643 -2.18743 0
M  V30 11811 C 1063.62 4.79379 -1.50004 0
M  V30 11812 C 1065.62 5.42978 -3.33846 0
M  V30 11813 C 1063.3 5.50459 -2.65401 0
M  V30 11814 C 1064.3 5.82181 -3.57148 0
M  V30 11815 O 1063.99 6.5181 -4.7053 0
M  V30 11816 H 1063.72 0.670619 -0.0851261 0
M  V30 11817 H 1066.27 1.85196 -0.888351 0
M  V30 11818 H 1064.5 3.7878 0.77863 0
M  V30 11819 H 1066.19 4.03503 0.440501 0
M  V30 11820 H 1066.96 4.41199 -2.01416 0
M  V30 11821 H 1062.84 4.54098 -0.794745 0
M  V30 11822 H 1066.38 5.67656 -4.05479 0
M  V30 11823 H 1062.28 5.8032 -2.82664 0
M  V30 11824 H 1063.05 6.7029 -4.69738 0
M  V30 11825 N 1065.71 0.390394 1.52688 0
M  V30 11826 C 1066.66 -0.444229 2.26485 0
M  V30 11827 C 1067.63 -1.05688 1.28138 0
M  V30 11828 O 1068.81 -1.0847 1.56968 0
M  V30 11829 C 1065.95 -1.56501 3.07574 0
M  V30 11830 C 1065.07 -0.975111 4.20851 0
M  V30 11831 C 1064.2 -2.06704 4.89333 0
M  V30 11832 C 1063.24 -1.45309 5.94602 0
M  V30 11833 N 1062.38 -2.48437 6.56676 0
M  V30 11834 H 1067.22 0.191535 2.97384 0
M  V30 11835 H 1064.75 0.106287 1.46716 0
M  V30 11836 H 1066.71 -2.22558 3.52879 0
M  V30 11837 H 1065.34 -2.17107 2.38881 0
M  V30 11838 H 1064.39 -0.204109 3.79852 0
M  V30 11839 H 1065.71 -0.486465 4.96422 0
M  V30 11840 H 1064.86 -2.80528 5.37949 0
M  V30 11841 H 1063.6 -2.58928 4.13289 0
M  V30 11842 H 1062.6 -0.700091 5.45324 0
M  V30 11843 H 1063.83 -0.938775 6.7258 0
M  V30 11844 H 1061.77 -2.99829 5.83471 0
M  V30 11845 H 1061.69 -2.04331 7.27863 0
M  V30 11846 H 1062.96 -3.21888 7.09935 0
M  V30 11847 N 1067.19 -1.57141 0.120249 0
M  V30 11848 C 1068.43 -1.97124 -0.540521 0
M  V30 11849 C 1068.79 -1.0022 -1.63768 0
M  V30 11850 O 1069.99 -1.29146 -2.35743 0
M  V30 11851 C 1068.26 -3.41371 -1.05833 0
M  V30 11852 S 1069.82 -4.03367 -1.72745 0
M  V30 11853 H 1066.64 -0.688962 -0.175646 0
M  V30 11854 H 1069.24 -1.94416 0.205625 0
M  V30 11855 H 1067.95 -4.09646 -0.248656 0
M  V30 11856 H 1067.48 -3.47732 -1.83972 0
M  V30 11857 H 1069.49 -3.94227 -3.0133 0
M  V30 11858 N 1068.67 0.153526 -1.5685 0
M  V30 11859 C 1069.6 1.19162 -2.00805 0
M  V30 11860 C 1070.58 1.45172 -0.886518 0
M  V30 11861 O 1071.76 1.56203 -1.15387 0
M  V30 11862 C 1068.89 2.52637 -2.38311 0
M  V30 11863 C 1067.85 2.41161 -3.53589 0
M  V30 11864 C 1067.17 3.79287 -3.76889 0
M  V30 11865 C 1068.47 1.90122 -4.86468 0
M  V30 11866 H 1070.17 0.82617 -2.87776 0
M  V30 11867 H 1067.71 0.395972 -1.38449 0
M  V30 11868 H 1069.67 3.25478 -2.6766 0
M  V30 11869 H 1068.39 2.91005 -1.4827 0
M  V30 11870 H 1067.05 1.70772 -3.24395 0
M  V30 11871 H 1066.7 4.15079 -2.84109 0
M  V30 11872 H 1066.4 3.72472 -4.54465 0
M  V30 11873 H 1067.92 4.53687 -4.08657 0
M  V30 11874 H 1069.33 2.52752 -5.14577 0
M  V30 11875 H 1067.73 1.94214 -5.67804 0
M  V30 11876 H 1068.8 0.856517 -4.77275 0
M  V30 11877 N 1070.14 1.51827 0.422667 0
M  V30 11878 C 1071.37 1.69337 1.19748 0
M  V30 11879 C 1071.79 0.396312 1.83878 0
M  V30 11880 O 1071.15 -0.644976 1.6944 0
M  V30 11881 C 1071.2 2.82082 2.24637 0
M  V30 11882 O 1070.3 2.46708 3.30468 0
M  V30 11883 H 1069.65 0.564154 0.35018 0
M  V30 11884 H 1072.18 1.98465 0.497289 0
M  V30 11885 H 1072.19 3.06599 2.69186 0
M  V30 11886 H 1070.86 3.76195 1.77341 0
M  V30 11887 H 1069.44 2.32815 2.91293 0
M  V30 11888 N 1071.62 -0.679052 1.4222 0
M  V30 11889 C 1072.53 -1.82221 1.47759 0
M  V30 11890 C 1073.55 -1.70092 0.3667 0
M  V30 11891 O 1074.72 -1.91718 0.616957 0
M  V30 11892 C 1071.79 -3.18332 1.37351 0
M  V30 11893 C 1070.85 -3.42449 2.58896 0
M  V30 11894 C 1070.08 -4.72067 2.48976 0
M  V30 11895 O 1070.31 -5.49683 1.5233 0
M  V30 11896 O 1069.24 -4.97333 3.39033 0
M  V30 11897 H 1073.07 -1.80504 2.44238 0
M  V30 11898 H 1070.65 -0.834251 1.23938 0
M  V30 11899 H 1072.53 -3.99563 1.33893 0
M  V30 11900 H 1071.21 -3.20696 0.439965 0
M  V30 11901 H 1070.12 -2.61083 2.6793 0
M  V30 11902 H 1071.45 -3.44912 3.51136 0
M  V30 11903 N 1073.1 -1.28322 -0.914942 0
M  V30 11904 C 1074.05 -1.12003 -2.03858 0
M  V30 11905 C 1075.04 -0.0396287 -1.69354 0
M  V30 11906 O 1076.25 -0.198309 -1.78904 0
M  V30 11907 H 1072.62 -0.34552 -0.667922 0
M  V30 11908 H 1074.59 -2.07168 -2.14765 0
M  V30 11909 C 1073.34 -0.797402 -3.38433 0
M  V30 11910 H 1072.67 -1.62071 -3.65476 0
M  V30 11911 H 1074.11 -0.723165 -4.17787 0
M  V30 11912 C 1072.57 0.498807 -3.33187 0
M  V30 11913 O 1073.1 1.52946 -3.71444 0
M  V30 11914 N 1071.3 0.499101 -2.86282 0
M  V30 11915 H 1070.85 -0.340056 -2.55346 0
M  V30 11916 H 1070.81 1.36641 -2.83155 0
M  V30 11917 N 1074.58 1.12322 -1.10551 0
M  V30 11918 C 1075.83 1.83216 -0.84349 0
M  V30 11919 C 1076.14 1.85075 0.632992 0
M  V30 11920 O 1077.35 2.51976 1.01095 0
M  V30 11921 C 1075.8 3.28994 -1.45915 0
M  V30 11922 C 1075.41 3.3549 -2.96901 0
M  V30 11923 C 1077.15 4.0485 -1.27657 0
M  V30 11924 C 1075.06 4.7561 -3.51496 0
M  V30 11925 H 1073.99 0.686471 -0.311887 0
M  V30 11926 H 1076.64 1.26463 -1.32964 0
M  V30 11927 H 1075.02 3.85621 -0.900678 0
M  V30 11928 H 1076.2 2.88795 -3.59074 0
M  V30 11929 H 1074.51 2.73107 -3.14327 0
M  V30 11930 H 1077.11 5.08316 -1.65889 0
M  V30 11931 H 1077.45 4.15727 -0.218258 0
M  V30 11932 H 1077.99 3.54584 -1.80318 0
M  V30 11933 H 1074.73 4.69927 -4.56999 0
M  V30 11934 H 1074.25 5.22753 -2.94091 0
M  V30 11935 H 1075.92 5.44552 -3.49388 0
M  V30 11936 N 1076.06 0.894434 1.2976 0
M  V30 11937 C 1077.28 0.5322 2.00455 0
M  V30 11938 C 1077.71 -0.874427 1.66539 0
M  V30 11939 O 1077.06 -1.58113 0.887129 0
M  V30 11940 C 1077.11 0.725264 3.53231 0
M  V30 11941 O 1076.22 -0.224612 4.11788 0
M  V30 11942 H 1075.56 0.208562 0.630395 0
M  V30 11943 H 1078.09 1.20458 1.65382 0
M  V30 11944 H 1078.1 0.627889 4.0314 0
M  V30 11945 H 1076.77 1.75079 3.77253 0
M  V30 11946 H 1075.35 -0.0801361 3.72814 0
M  V30 11947 N 1077.53 -1.43282 0.656365 0
M  V30 11948 C 1078.5 -2.29188 -0.0239173 0
M  V30 11949 C 1079.5 -1.42373 -0.747436 0
M  V30 11950 O 1080.69 -1.63969 -0.588213 0
M  V30 11951 C 1077.82 -3.24501 -1.0446 0
M  V30 11952 H 1079.01 -2.9083 0.731978 0
M  V30 11953 H 1076.57 -1.50614 0.417752 0
M  V30 11954 H 1077.3 -2.6776 -1.82962 0
M  V30 11955 H 1077.09 -3.88509 -0.52942 0
M  V30 11956 H 1078.58 -3.88971 -1.51958 0
M  V30 11957 N 1079.01 -0.398486 -1.52479 0
M  V30 11958 C 1079.98 0.420206 -2.25315 0
M  V30 11959 C 1080.98 0.982559 -1.27289 0
M  V30 11960 O 1082.17 0.863113 -1.51314 0
M  V30 11961 C 1079.3 1.59045 -3.01525 0
M  V30 11962 H 1080.49 -0.217599 -2.9911 0
M  V30 11963 H 1078.04 -0.150784 -1.55571 0
M  V30 11964 H 1078.78 2.26542 -2.32054 0
M  V30 11965 H 1078.56 1.19382 -3.73484 0
M  V30 11966 H 1080.05 2.16984 -3.56802 0
M  V30 11967 N 1080.49 1.57075 -0.12858 0
M  V30 11968 C 1081.74 1.94695 0.526952 0
M  V30 11969 C 1082.05 1.01482 1.67215 0
M  V30 11970 O 1083.26 1.28606 2.39108 0
M  V30 11971 C 1081.72 3.4605 0.988801 0
M  V30 11972 C 1081.32 4.47816 -0.128457 0
M  V30 11973 C 1083.07 3.92572 1.61517 0
M  V30 11974 C 1080.97 5.9036 0.350628 0
M  V30 11975 H 1079.9 0.726819 0.200623 0
M  V30 11976 H 1082.56 1.82295 -0.209972 0
M  V30 11977 H 1080.94 3.53718 1.78043 0
M  V30 11978 H 1082.11 4.51826 -0.904976 0
M  V30 11979 H 1080.43 4.11103 -0.662075 0
M  V30 11980 H 1083.02 4.96493 1.98491 0
M  V30 11981 H 1083.37 3.33085 2.49721 0
M  V30 11982 H 1083.9 3.87744 0.888768 0
M  V30 11983 H 1080.64 6.53624 -0.495592 0
M  V30 11984 H 1080.16 5.89749 1.09342 0
M  V30 11985 H 1081.84 6.41926 0.808717 0
M  V30 11986 N 1081.97 -0.145205 1.5693 0
M  V30 11987 C 1082.9 -1.20438 1.95006 0
M  V30 11988 C 1083.91 -1.39085 0.846114 0
M  V30 11989 O 1085.1 -1.38625 1.12452 0
M  V30 11990 C 1082.2 -2.56892 2.21043 0
M  V30 11991 C 1081.38 -2.59197 3.52329 0
M  V30 11992 C 1080.44 -3.77204 3.66884 0
M  V30 11993 O 1079.46 -3.61995 4.39259 0
M  V30 11994 N 1080.66 -4.9473 3.03682 0
M  V30 11995 H 1083.43 -0.880709 2.86467 0
M  V30 11996 H 1080.99 -0.334751 1.58401 0
M  V30 11997 H 1082.98 -3.34349 2.2802 0
M  V30 11998 H 1081.55 -2.81544 1.35838 0
M  V30 11999 H 1080.77 -1.67644 3.56776 0
M  V30 12000 H 1082.06 -2.57771 4.3867 0
M  V30 12001 H 1081.46 -5.09989 2.44801 0
M  V30 12002 H 1080.01 -5.69956 3.16218 0
M  V30 12003 N 1083.45 -1.52049 -0.414609 0
M  V30 12004 C 1084.41 -1.74382 -1.4874 0
M  V30 12005 C 1085.41 -0.613701 -1.48628 0
M  V30 12006 O 1086.6 -0.88152 -1.50249 0
M  V30 12007 C 1083.73 -1.82116 -2.88178 0
M  V30 12008 H 1084.93 -2.70147 -1.30233 0
M  V30 12009 H 1082.48 -1.42382 -0.644756 0
M  V30 12010 H 1083.21 -0.882457 -3.12063 0
M  V30 12011 H 1083 -2.64268 -2.89663 0
M  V30 12012 H 1084.49 -2.01155 -3.65959 0
M  V30 12013 N 1084.93 0.6715 -1.42579 0
M  V30 12014 C 1085.87 1.80623 -1.46554 0
M  V30 12015 C 1086.87 1.65934 -0.340932 0
M  V30 12016 O 1088.07 1.72502 -0.514098 0
M  V30 12017 H 1084.45 0.595619 -0.459067 0
M  V30 12018 H 1086.42 1.74388 -2.42139 0
M  V30 12019 C 1085.17 3.18794 -1.38801 0
M  V30 12020 H 1084.49 3.30725 -2.24635 0
M  V30 12021 H 1085.93 3.98201 -1.45645 0
M  V30 12022 C 1084.39 3.36742 -0.103219 0
M  V30 12023 O 1084.92 3.92761 0.842715 0
M  V30 12024 N 1083.13 2.90594 -0.0193034 0
M  V30 12025 H 1082.67 2.45192 -0.78986 0
M  V30 12026 H 1082.63 3.0298 0.839686 0
M  V30 12027 N 1086.4 1.28806 0.908124 0
M  V30 12028 C 1087.65 1.16058 1.65454 0
M  V30 12029 C 1087.97 -0.290057 1.92831 0
M  V30 12030 O 1087.24 -1.20001 1.54843 0
M  V30 12031 H 1085.82 0.426522 0.61326 0
M  V30 12032 H 1088.48 1.61614 1.08936 0
M  V30 12033 H 1087.58 1.70437 2.61453 0
M  V30 12034 N 1087.88 -1.11734 1.11145 0
M  V30 12035 C 1088.79 -2.21267 0.779607 0
M  V30 12036 C 1089.81 -1.72526 -0.225986 0
M  V30 12037 O 1090.98 -2.01302 -0.0629166 0
M  V30 12038 C 1088.05 -3.45973 0.22435 0
M  V30 12039 C 1087.11 -4.09518 1.28816 0
M  V30 12040 C 1086.34 -5.28271 0.7593 0
M  V30 12041 O 1086.57 -5.68912 -0.411725 0
M  V30 12042 O 1085.5 -5.82322 1.52266 0
M  V30 12043 H 1089.33 -2.5206 1.6941 0
M  V30 12044 H 1086.91 -1.20211 0.887115 0
M  V30 12045 H 1088.79 -4.21322 -0.0810921 0
M  V30 12046 H 1087.47 -3.1684 -0.662891 0
M  V30 12047 H 1086.37 -3.35915 1.64657 0
M  V30 12048 H 1087.71 -4.42824 2.14868 0
M  V30 12049 N 1089.36 -0.901303 -1.29284 0
M  V30 12050 C 1090.29 -0.32479 -2.25877 0
M  V30 12051 C 1091.27 0.563944 -1.52507 0
M  V30 12052 O 1092.45 0.510393 -1.81459 0
M  V30 12053 C 1089.58 0.536897 -3.34418 0
M  V30 12054 C 1088.63 -0.28474 -4.25548 0
M  V30 12055 S 1089.46 -1.68355 -5.08347 0
M  V30 12056 C 1090.62 -0.828826 -6.20388 0
M  V30 12057 H 1090.85 -1.14352 -2.74428 0
M  V30 12058 H 1088.38 -0.701749 -1.37531 0
M  V30 12059 H 1090.34 1.02827 -3.97413 0
M  V30 12060 H 1089 1.32988 -2.84558 0
M  V30 12061 H 1088.19 0.373566 -5.02614 0
M  V30 12062 H 1087.8 -0.709313 -3.67212 0
M  V30 12063 H 1090.09 -0.0529234 -6.77479 0
M  V30 12064 H 1091.03 -1.57161 -6.90439 0
M  V30 12065 H 1091.44 -0.382503 -5.63203 0
M  V30 12066 N 1090.84 1.42931 -0.663954 0
M  V30 12067 C 1092.08 2.01982 -0.182007 0
M  V30 12068 C 1092.42 1.52323 1.20463 0
M  V30 12069 O 1091.69 0.720834 1.80649 0
M  V30 12070 C 1091.97 3.59518 -0.204671 0
M  V30 12071 C 1091.83 4.19382 -1.62599 0
M  V30 12072 C 1093.15 4.37762 0.45308 0
M  V30 12073 H 1090.27 0.733892 -0.0676115 0
M  V30 12074 H 1092.91 1.70092 -0.84668 0
M  V30 12075 H 1091.06 3.86816 0.361295 0
M  V30 12076 H 1092.73 4.03076 -2.24337 0
M  V30 12077 H 1090.97 3.75623 -2.17001 0
M  V30 12078 H 1091.64 5.28496 -1.59362 0
M  V30 12079 H 1094.12 4.1609 -0.0285774 0
M  V30 12080 H 1093 5.47392 0.406538 0
M  V30 12081 H 1093.26 4.1482 1.52895 0
M  V30 12082 N 1092.32 0.406567 1.52266 0
M  V30 12083 C 1093.54 -0.169624 2.06204 0
M  V30 12084 C 1093.96 -1.39076 1.27684 0
M  V30 12085 O 1093.32 -1.79528 0.328023 0
M  V30 12086 C 1093.37 -0.522611 3.57702 0
M  V30 12087 O 1093.09 0.650028 4.33251 0
M  V30 12088 C 1094.59 -1.15281 4.28048 0
M  V30 12089 H 1091.81 -0.0215191 0.670655 0
M  V30 12090 H 1094.35 0.576781 1.96198 0
M  V30 12091 H 1092.51 -1.21891 3.67725 0
M  V30 12092 H 1092.92 0.355989 5.23291 0
M  V30 12093 H 1094.4 -1.35002 5.35237 0
M  V30 12094 H 1094.87 -2.12517 3.84361 0
M  V30 12095 H 1095.48 -0.496786 4.22389 0
M  V30 12096 N 1093.79 -1.57004 0.136909 0
M  V30 12097 C 1094.74 -2.16246 -0.806607 0
M  V30 12098 C 1095.71 -1.09246 -1.25118 0
M  V30 12099 O 1096.9 -1.3724 -1.32551 0
M  V30 12100 C 1094.04 -2.78031 -2.04433 0
M  V30 12101 C 1093.15 -3.99393 -1.64649 0
M  V30 12102 C 1092.28 -4.49208 -2.83524 0
M  V30 12103 C 1091.32 -5.63059 -2.40064 0
M  V30 12104 N 1090.46 -6.07537 -3.51913 0
M  V30 12105 H 1095.3 -2.9654 -0.294596 0
M  V30 12106 H 1092.84 -1.46491 -0.133705 0
M  V30 12107 H 1094.8 -3.11992 -2.76978 0
M  V30 12108 H 1093.43 -2.00398 -2.53062 0
M  V30 12109 H 1092.48 -3.71477 -0.819077 0
M  V30 12110 H 1093.79 -4.81904 -1.28723 0
M  V30 12111 H 1092.94 -4.85171 -3.64271 0
M  V30 12112 H 1091.68 -3.65683 -3.22688 0
M  V30 12113 H 1090.69 -5.26682 -1.57754 0
M  V30 12114 H 1091.91 -6.48362 -2.01997 0
M  V30 12115 H 1089.86 -5.2695 -3.90717 0
M  V30 12116 H 1089.78 -6.84949 -3.1997 0
M  V30 12117 H 1091.04 -6.48143 -4.33048 0
M  V30 12118 N 1095.27 0.136881 -1.57004 0
M  V30 12119 C 1096.2 1.19402 -1.95642 0
M  V30 12120 C 1097.22 1.38635 -0.853478 0
M  V30 12121 O 1098.41 1.38027 -1.13185 0
M  V30 12122 C 1095.51 2.55716 -2.22402 0
M  V30 12123 C 1094.68 2.57325 -3.53698 0
M  V30 12124 C 1093.74 3.75253 -3.68879 0
M  V30 12125 O 1092.76 3.5966 -4.41173 0
M  V30 12126 N 1093.97 4.93112 -3.06302 0
M  V30 12127 H 1096.73 0.865504 -2.8693 0
M  V30 12128 H 1094.29 0.326346 -1.58577 0
M  V30 12129 H 1096.28 3.33135 -2.29789 0
M  V30 12130 H 1094.85 2.80819 -1.37329 0
M  V30 12131 H 1094.07 1.65749 -3.5766 0
M  V30 12132 H 1095.36 2.55441 -4.40031 0
M  V30 12133 H 1094.76 5.08684 -2.47502 0
M  V30 12134 H 1093.32 5.68271 -3.19236 0
M  V30 12135 N 1096.75 1.52266 0.40654 0
M  V30 12136 C 1098.16 1.58587 0.985241 0
M  V30 12137 C 1098.51 0.427955 1.91476 0
M  V30 12138 O 1097.64 -0.451341 2.11641 0
M  V30 12139 C 1098.23 2.87426 1.79365 0
M  V30 12140 C 1096.79 2.96217 2.32233 0
M  V30 12141 C 1095.94 2.53548 1.12288 0
M  V30 12142 H 1098.89 1.57598 0.186685 0
M  V30 12143 H 1098.91 2.72925 2.65127 0
M  V30 12144 H 1098.42 3.71682 1.11687 0
M  V30 12145 H 1096.52 2.1646 3.03275 0
M  V30 12146 H 1096.64 4.00511 2.62922 0
M  V30 12147 H 1095 2.07457 1.47763 0
M  V30 12148 H 1095.78 3.40181 0.461731 0
M  V30 12149 N 1098.23 -0.663929 1.42933 0
M  V30 12150 C 1099.16 -1.78899 1.50058 0
M  V30 12151 C 1100.14 -1.66329 0.356164 0
M  V30 12152 O 1101.32 -1.85587 0.571944 0
M  V30 12153 C 1098.45 -3.17265 1.41281 0
M  V30 12154 C 1097.41 -3.44584 2.53861 0
M  V30 12155 C 1096.73 -4.82638 2.3014 0
M  V30 12156 C 1098.03 -3.40394 3.96143 0
M  V30 12157 H 1099.73 -1.73194 2.44222 0
M  V30 12158 H 1097.27 -0.83182 1.17545 0
M  V30 12159 H 1099.23 -3.95715 1.44872 0
M  V30 12160 H 1097.95 -3.23675 0.43616 0
M  V30 12161 H 1096.61 -2.685 2.49606 0
M  V30 12162 H 1096.26 -4.85711 1.30743 0
M  V30 12163 H 1095.96 -5.01879 3.056 0
M  V30 12164 H 1097.48 -5.63359 2.35497 0
M  V30 12165 H 1098.9 -4.08796 4.01943 0
M  V30 12166 H 1097.29 -3.7117 4.71543 0
M  V30 12167 H 1098.36 -2.38767 4.22041 0
M  V30 12168 N 1099.71 -1.29285 -0.901281 0
M  V30 12169 C 1100.96 -1.16538 -1.64626 0
M  V30 12170 C 1101.27 0.282623 -1.93547 0
M  V30 12171 O 1102.47 0.531396 -2.66249 0
M  V30 12172 C 1100.93 -2.03809 -2.96631 0
M  V30 12173 C 1100.54 -3.53423 -2.75311 0
M  V30 12174 C 1102.28 -1.99782 -3.7455 0
M  V30 12175 C 1100.19 -4.32804 -4.03032 0
M  V30 12176 H 1099.12 -0.432561 -0.617581 0
M  V30 12177 H 1101.77 -1.53912 -0.999159 0
M  V30 12178 H 1100.15 -1.59302 -3.62545 0
M  V30 12179 H 1101.33 -4.05971 -2.18 0
M  V30 12180 H 1099.64 -3.59106 -2.10789 0
M  V30 12181 H 1102.24 -2.5635 -4.69243 0
M  V30 12182 H 1102.58 -0.97743 -4.04663 0
M  V30 12183 H 1103.11 -2.42324 -3.15474 0
M  V30 12184 H 1099.85 -5.35473 -3.78086 0
M  V30 12185 H 1099.37 -3.85025 -4.59909 0
M  V30 12186 H 1101.05 -4.43383 -4.71191 0
M  V30 12187 N 1101.18 1.11143 -1.11736 0
M  V30 12188 C 1102.6 1.34962 -0.851905 0
M  V30 12189 C 1102.8 1.94627 0.521797 0
M  V30 12190 O 1101.86 2.18121 1.27198 0
M  V30 12191 C 1103.17 2.27832 -1.96248 0
M  V30 12192 C 1104.72 2.41388 -1.9925 0
M  V30 12193 C 1105.19 3.37582 -3.09519 0
M  V30 12194 N 1106.68 3.45147 -3.08914 0
M  V30 12195 C 1107.42 4.19527 -3.90876 0
M  V30 12196 N 1106.91 4.96858 -4.82809 0
M  V30 12197 N 1108.71 4.15071 -3.79042 0
M  V30 12198 H 1100.86 0.707801 -2.0026 0
M  V30 12199 H 1103.12 0.374172 -0.871033 0
M  V30 12200 H 1102.83 1.91189 -2.95194 0
M  V30 12201 H 1102.7 3.28078 -1.86132 0
M  V30 12202 H 1105.09 2.77304 -1.00928 0
M  V30 12203 H 1105.17 1.40983 -2.13442 0
M  V30 12204 H 1104.81 3.02393 -4.0807 0
M  V30 12205 H 1104.74 4.37849 -2.92568 0
M  V30 12206 H 1107.23 2.89991 -2.42309 0
M  V30 12207 H 1107.55 5.5099 -5.41876 0
M  V30 12208 H 1105.89 4.96008 -4.86828 0
M  V30 12209 H 1109.08 3.53748 -3.06562 0
M  V30 12210 H 1109.26 4.72781 -4.4315 0
M  V30 12211 N 1102.66 0.908147 1.28804 0
M  V30 12212 C 1103.89 0.553431 1.9988 0
M  V30 12213 C 1104.31 -0.856714 1.67458 0
M  V30 12214 O 1103.67 -1.57163 0.903849 0
M  V30 12215 C 1103.72 0.762688 3.52442 0
M  V30 12216 O 1102.82 -0.180924 4.12003 0
M  V30 12217 H 1102.16 0.215237 0.628147 0
M  V30 12218 H 1104.69 1.22205 1.64095 0
M  V30 12219 H 1104.7 0.670612 4.02451 0
M  V30 12220 H 1103.38 1.79071 3.75375 0
M  V30 12221 H 1101.96 -0.0405897 3.72878 0
M  V30 12222 N 1104.14 -1.42577 0.671525 0
M  V30 12223 C 1105.07 -2.28124 -0.0589347 0
M  V30 12224 C 1106.05 -1.40878 -0.811915 0
M  V30 12225 O 1107.24 -1.70318 -0.807717 0
M  V30 12226 C 1104.36 -3.20662 -1.09057 0
M  V30 12227 C 1103.41 -4.24291 -0.43355 0
M  V30 12228 S 1104.24 -5.29393 0.806442 0
M  V30 12229 C 1105.4 -6.25498 -0.224204 0
M  V30 12230 H 1105.63 -2.89728 0.666689 0
M  V30 12231 H 1103.16 -1.47359 0.460959 0
M  V30 12232 H 1105.12 -3.74516 -1.68071 0
M  V30 12233 H 1103.78 -2.582 -1.78862 0
M  V30 12234 H 1102.98 -4.89213 -1.21186 0
M  V30 12235 H 1102.58 -3.73908 0.0829136 0
M  V30 12236 H 1104.87 -6.68757 -1.08492 0
M  V30 12237 H 1105.81 -7.07023 0.390469 0
M  V30 12238 H 1106.22 -5.61633 -0.568214 0
M  V30 12239 N 1105.62 -0.414636 -1.52048 0
M  V30 12240 C 1107.03 -0.0657806 -1.59464 0
M  V30 12241 C 1107.23 1.4225 -1.42713 0
M  V30 12242 O 1106.29 2.18996 -1.25687 0
M  V30 12243 C 1107.6 -0.565618 -2.95332 0
M  V30 12244 C 1109.15 -0.524072 -3.08581 0
M  V30 12245 C 1109.63 -1.00051 -4.46938 0
M  V30 12246 N 1111.12 -0.957555 -4.53194 0
M  V30 12247 C 1111.85 -1.29733 -5.58531 0
M  V30 12248 N 1111.35 -1.70883 -6.71395 0
M  V30 12249 N 1113.14 -1.21694 -5.48769 0
M  V30 12250 H 1105.29 -1.38325 -1.61183 0
M  V30 12251 H 1107.56 -0.568593 -0.758556 0
M  V30 12252 H 1107.26 -1.60604 -3.12888 0
M  V30 12253 H 1107.14 0.0217735 -3.77194 0
M  V30 12254 H 1109.52 0.507319 -2.90707 0
M  V30 12255 H 1109.6 -1.14759 -2.28613 0
M  V30 12256 H 1109.25 -2.03025 -4.65557 0
M  V30 12257 H 1109.18 -0.353754 -5.2541 0
M  V30 12258 H 1111.67 -0.65508 -3.72179 0
M  V30 12259 H 1111.98 -1.95105 -7.47766 0
M  V30 12260 H 1110.33 -1.74791 -6.72661 0
M  V30 12261 H 1113.52 -0.894286 -4.59478 0
M  V30 12262 H 1113.69 -1.48504 -6.30754 0
M  V30 12263 N 1107.1 1.56929 -0.145233 0
M  V30 12264 C 1108.32 2.00431 0.513314 0
M  V30 12265 C 1108.74 1.0253 1.58534 0
M  V30 12266 O 1108.1 0.0220459 1.82487 0
M  V30 12267 C 1108.15 3.43856 1.11557 0
M  V30 12268 O 1107.87 4.38015 0.0863707 0
M  V30 12269 C 1109.37 4.02627 1.8549 0
M  V30 12270 H 1106.59 0.657529 0.133778 0
M  V30 12271 H 1109.13 2.03095 -0.239296 0
M  V30 12272 H 1107.29 3.4205 1.81881 0
M  V30 12273 H 1107.7 5.21842 0.527363 0
M  V30 12274 H 1109.18 5.04985 2.22923 0
M  V30 12275 H 1109.65 3.43239 2.74014 0
M  V30 12276 H 1110.26 4.08058 1.19869 0
M  V30 12277 N 1108.58 -0.128553 1.57075 0
M  V30 12278 C 1109.82 -0.839252 1.8462 0
M  V30 12279 C 1110.15 -1.79974 0.729582 0
M  V30 12280 O 1109.43 -1.92681 -0.265369 0
M  V30 12281 C 1109.71 -1.59756 3.22723 0
M  V30 12282 C 1109.57 -0.657313 4.44971 0
M  V30 12283 C 1110.88 -2.55592 3.58275 0
M  V30 12284 H 1108 -0.303652 0.671539 0
M  V30 12285 H 1110.65 -0.103802 1.89716 0
M  V30 12286 H 1108.8 -2.22451 3.18509 0
M  V30 12287 H 1110.47 -0.0399471 4.61283 0
M  V30 12288 H 1108.71 0.0318416 4.33788 0
M  V30 12289 H 1109.38 -1.22433 5.38251 0
M  V30 12290 H 1111.86 -2.03007 3.63218 0
M  V30 12291 H 1110.73 -3.05687 4.55902 0
M  V30 12292 H 1110.99 -3.37813 2.85193 0
M  V30 12293 N 1110.05 -1.5248 -0.398459 0
M  V30 12294 C 1111 -1.76585 -1.48615 0
M  V30 12295 C 1111.97 -0.608677 -1.54546 0
M  V30 12296 O 1113.16 -0.847383 -1.7095 0
M  V30 12297 C 1110.3 -1.93201 -2.8595 0
M  V30 12298 C 1109.41 -3.20875 -2.89246 0
M  V30 12299 C 1108.54 -3.27862 -4.17947 0
M  V30 12300 C 1107.58 -4.49697 -4.15258 0
M  V30 12301 N 1106.72 -4.54017 -5.35549 0
M  V30 12302 H 1111.56 -2.69412 -1.27362 0
M  V30 12303 H 1109.1 -1.33487 -0.618031 0
M  V30 12304 H 1111.05 -2.00819 -3.65688 0
M  V30 12305 H 1109.68 -1.03743 -3.05675 0
M  V30 12306 H 1108.74 -3.22376 -2.01935 0
M  V30 12307 H 1110.05 -4.1066 -2.83125 0
M  V30 12308 H 1109.2 -3.34611 -5.06083 0
M  V30 12309 H 1107.94 -2.36035 -4.26777 0
M  V30 12310 H 1106.95 -4.43083 -3.25511 0
M  V30 12311 H 1108.17 -5.42831 -4.08059 0
M  V30 12312 H 1106.12 -3.65078 -5.45027 0
M  V30 12313 H 1106.03 -5.37661 -5.31466 0
M  V30 12314 H 1107.3 -4.65009 -6.25609 0
M  V30 12315 N 1111.53 0.65634 -1.43283 0
M  V30 12316 C 1112.95 0.971645 -1.26614 0
M  V30 12317 C 1113.15 2.00662 -0.183612 0
M  V30 12318 O 1112.2 2.48654 0.439003 0
M  V30 12319 C 1113.52 1.45888 -2.6294 0
M  V30 12320 C 1115.06 1.57569 -2.70446 0
M  V30 12321 C 1115.54 2.09684 -4.07181 0
M  V30 12322 N 1117.03 2.16991 -4.0923 0
M  V30 12323 C 1117.77 2.5843 -5.11861 0
M  V30 12324 N 1117.26 2.99188 -6.24867 0
M  V30 12325 N 1119.05 2.58342 -4.99215 0
M  V30 12326 H 1111.21 -0.028573 -2.12381 0
M  V30 12327 H 1113.47 0.0497918 -0.946691 0
M  V30 12328 H 1113.17 0.772823 -3.43104 0
M  V30 12329 H 1113.05 2.43445 -2.88122 0
M  V30 12330 H 1115.44 2.25277 -1.90616 0
M  V30 12331 H 1115.52 0.584529 -2.49032 0
M  V30 12332 H 1115.16 1.42579 -4.87477 0
M  V30 12333 H 1115.09 3.09625 -4.25958 0
M  V30 12334 H 1117.58 1.88278 -3.27658 0
M  V30 12335 H 1117.89 3.29549 -6.99012 0
M  V30 12336 H 1116.24 2.97 -6.28344 0
M  V30 12337 H 1119.43 2.25875 -4.09998 0
M  V30 12338 H 1119.6 2.90316 -5.79328 0
M  V30 12339 N 1113.01 1.29761 0.894412 0
M  V30 12340 C 1113.92 1.1724 2.03204 0
M  V30 12341 C 1114.94 0.0944452 1.73743 0
M  V30 12342 O 1116.11 0.307549 1.99038 0
M  V30 12343 C 1113.18 0.855416 3.35981 0
M  V30 12344 C 1112.24 2.01777 3.78926 0
M  V30 12345 C 1111.47 1.71581 5.05367 0
M  V30 12346 O 1111.69 0.639245 5.66807 0
M  V30 12347 O 1110.63 2.56539 5.44492 0
M  V30 12348 H 1114.45 2.12787 2.16692 0
M  V30 12349 H 1112.04 1.09264 1.0189 0
M  V30 12350 H 1113.92 0.693429 4.15656 0
M  V30 12351 H 1112.6 -0.0702195 3.23624 0
M  V30 12352 H 1111.5 2.23502 2.99996 0
M  V30 12353 H 1112.84 2.92479 3.95875 0
M  V30 12354 N 1114.49 -1.10549 1.12324 0
M  V30 12355 C 1115.72 -1.8627 0.900618 0
M  V30 12356 C 1116.13 -1.80609 -0.550069 0
M  V30 12357 O 1115.49 -1.19396 -1.38025 0
M  V30 12358 C 1115.54 -3.34716 1.36556 0
M  V30 12359 O 1115.26 -3.40279 2.75938 0
M  V30 12360 C 1116.76 -4.27315 1.17969 0
M  V30 12361 H 1113.98 -0.588741 0.321908 0
M  V30 12362 H 1116.52 -1.39759 1.49291 0
M  V30 12363 H 1114.68 -3.78697 0.81652 0
M  V30 12364 H 1115.09 -4.32781 2.96312 0
M  V30 12365 H 1116.57 -5.29677 1.55391 0
M  V30 12366 H 1117.04 -4.39036 0.120158 0
M  V30 12367 H 1117.65 -3.89137 1.71617 0
M  V30 12368 N 1115.97 -0.914965 -1.28321 0
M  V30 12369 C 1116.9 -0.421292 -2.29668 0
M  V30 12370 C 1117.88 0.511743 -1.6222 0
M  V30 12371 O 1119.06 0.419218 -1.89621 0
M  V30 12372 C 1116.19 0.338364 -3.45648 0
M  V30 12373 C 1115.15 -0.505646 -4.25003 0
M  V30 12374 C 1114.47 0.382421 -5.33331 0
M  V30 12375 C 1115.77 -1.76354 -4.91626 0
M  V30 12376 H 1117.47 -1.26826 -2.71211 0
M  V30 12377 H 1115.01 -0.611291 -1.30381 0
M  V30 12378 H 1116.96 0.694578 -4.15636 0
M  V30 12379 H 1115.69 1.21925 -3.02988 0
M  V30 12380 H 1114.35 -0.844395 -3.56743 0
M  V30 12381 H 1114 1.26189 -4.86914 0
M  V30 12382 H 1113.7 -0.17871 -5.87328 0
M  V30 12383 H 1115.22 0.73449 -6.06166 0
M  V30 12384 H 1116.63 -1.47616 -5.5397 0
M  V30 12385 H 1115.03 -2.26717 -5.55625 0
M  V30 12386 H 1116.1 -2.49063 -4.16048 0
M  V30 12387 N 1117.44 1.42219 -0.679077 0
M  V30 12388 C 1118.39 2.308 -0.00340316 0
M  V30 12389 C 1119.36 1.462 0.788334 0
M  V30 12390 O 1120.55 1.75023 0.759716 0
M  V30 12391 C 1117.69 3.32084 0.938854 0
M  V30 12392 C 1116.8 4.31772 0.140485 0
M  V30 12393 C 1115.93 5.20128 1.07888 0
M  V30 12394 C 1114.97 6.11493 0.27245 0
M  V30 12395 N 1114.11 6.92388 1.16378 0
M  V30 12396 H 1118.95 2.88024 -0.764587 0
M  V30 12397 H 1116.49 1.41869 -0.38878 0
M  V30 12398 H 1118.44 3.89339 1.49903 0
M  V30 12399 H 1117.07 2.76448 1.66662 0
M  V30 12400 H 1116.13 3.76599 -0.536376 0
M  V30 12401 H 1117.44 4.96432 -0.485433 0
M  V30 12402 H 1116.59 5.82137 1.70884 0
M  V30 12403 H 1115.33 4.55655 1.73868 0
M  V30 12404 H 1114.34 5.48549 -0.370693 0
M  V30 12405 H 1115.56 6.78017 -0.383315 0
M  V30 12406 H 1113.51 6.30538 1.8099 0
M  V30 12407 H 1113.42 7.5367 0.593043 0
M  V30 12408 H 1114.69 7.58879 1.78107 0
M  V30 12409 N 1118.92 0.422693 1.51826 0
M  V30 12410 C 1119.85 -0.386913 2.30272 0
M  V30 12411 C 1120.83 -1.03411 1.35056 0
M  V30 12412 O 1122.02 -1.04055 1.6397 0
M  V30 12413 C 1119.15 -1.49645 3.13407 0
M  V30 12414 C 1118.1 -0.973532 4.16781 0
M  V30 12415 C 1117.43 -2.1777 4.88344 0
M  V30 12416 C 1118.73 -0.0181194 5.22297 0
M  V30 12417 H 1120.42 0.267697 2.98201 0
M  V30 12418 H 1117.97 0.130186 1.4341 0
M  V30 12419 H 1119.92 -2.06993 3.67059 0
M  V30 12420 H 1118.64 -2.17914 2.43272 0
M  V30 12421 H 1117.3 -0.42237 3.64159 0
M  V30 12422 H 1116.95 -2.84625 4.14726 0
M  V30 12423 H 1116.65 -1.83427 5.58237 0
M  V30 12424 H 1118.18 -2.75699 5.44814 0
M  V30 12425 H 1119.59 -0.500822 5.71108 0
M  V30 12426 H 1117.99 0.237163 5.99631 0
M  V30 12427 H 1119.06 0.923065 4.76033 0
M  V30 12428 N 1120.4 -1.5685 0.153553 0
M  V30 12429 C 1121.65 -1.95509 -0.495911 0
M  V30 12430 C 1121.96 -1.04129 -1.65579 0
M  V30 12431 O 1123.17 -1.32394 -2.37032 0
M  V30 12432 C 1121.62 -3.47579 -0.933622 0
M  V30 12433 C 1121.23 -4.47555 0.199684 0
M  V30 12434 C 1122.98 -3.95092 -1.55251 0
M  V30 12435 C 1120.88 -5.90843 -0.256663 0
M  V30 12436 H 1119.81 -0.729919 -0.189035 0
M  V30 12437 H 1122.46 -1.81938 0.238947 0
M  V30 12438 H 1120.85 -3.56506 -1.72394 0
M  V30 12439 H 1122.02 -4.50329 0.976744 0
M  V30 12440 H 1120.33 -4.09997 0.727394 0
M  V30 12441 H 1122.93 -4.99588 -1.90567 0
M  V30 12442 H 1123.27 -3.37015 -2.4439 0
M  V30 12443 H 1123.81 -3.89109 -0.826969 0
M  V30 12444 H 1120.55 -6.52753 0.599515 0
M  V30 12445 H 1120.07 -5.91414 -0.999458 0
M  V30 12446 H 1121.75 -6.43131 -0.70649 0
M  V30 12447 N 1121.88 0.120221 -1.57141 0
M  V30 12448 C 1123.1 0.84637 -1.89344 0
M  V30 12449 C 1123.53 1.72702 -0.745365 0
M  V30 12450 O 1122.89 1.7873 0.304155 0
M  V30 12451 C 1122.93 1.65671 -3.20289 0
M  V30 12452 O 1122.04 2.76353 -3.06109 0
M  V30 12453 H 1121.38 0.234132 -0.621352 0
M  V30 12454 H 1123.91 0.102986 -2.04341 0
M  V30 12455 H 1123.92 2.04621 -3.52979 0
M  V30 12456 H 1122.59 1.01023 -4.03444 0
M  V30 12457 H 1121.17 2.40615 -2.84884 0
M  V30 12458 N 1123.36 1.52689 0.390367 0
M  V30 12459 C 1124.6 1.67335 1.13329 0
M  V30 12460 C 1124.93 0.415068 1.90531 0
M  V30 12461 O 1124.2 -0.570504 1.87409 0
M  V30 12462 H 1122.78 0.616821 0.421356 0
M  V30 12463 H 1125.44 1.89799 0.443 0
M  V30 12464 H 1124.53 2.52314 1.83696 0
M  V30 12465 N 1124.83 -0.648732 1.43629 0
M  V30 12466 C 1126.08 -1.40898 1.46695 0
M  V30 12467 C 1126.44 -1.92183 0.0914565 0
M  V30 12468 O 1125.73 -1.69642 -0.890623 0
M  V30 12469 C 1125.92 -2.60394 2.44806 0
M  V30 12470 C 1125.75 -2.20805 3.91759 0
M  V30 12471 C 1124.52 -2.08918 4.60088 0
M  V30 12472 C 1126.72 -1.80811 4.81469 0
M  V30 12473 N 1124.7 -1.62707 5.91946 0
M  V30 12474 C 1126.07 -1.45715 6.02633 0
M  V30 12475 C 1128.13 -1.68034 4.68689 0
M  V30 12476 C 1126.83 -0.991224 7.12438 0
M  V30 12477 C 1128.86 -1.22846 5.78501 0
M  V30 12478 C 1128.22 -0.886902 6.98794 0
M  V30 12479 H 1124.32 -0.511063 0.591894 0
M  V30 12480 H 1126.9 -0.746064 1.79839 0
M  V30 12481 H 1125.07 -3.24338 2.13681 0
M  V30 12482 H 1126.8 -3.27115 2.38281 0
M  V30 12483 H 1123.56 -2.28818 4.14656 0
M  V30 12484 H 1123.98 -1.41951 6.61951 0
M  V30 12485 H 1128.63 -1.93078 3.76139 0
M  V30 12486 H 1126.34 -0.728271 8.04812 0
M  V30 12487 H 1129.93 -1.13443 5.70633 0
M  V30 12488 H 1128.81 -0.542577 7.82321 0
M  V30 12489 N 1126.31 -1.30234 -0.887518 0
M  V30 12490 C 1127.56 -1.19086 -1.64153 0
M  V30 12491 C 1127.89 0.254428 -1.92526 0
M  V30 12492 O 1127.17 1.18233 -1.54438 0
M  V30 12493 C 1127.45 -2.01723 -2.98295 0
M  V30 12494 C 1127.3 -3.54458 -2.76911 0
M  V30 12495 C 1128.62 -1.85307 -3.99186 0
M  V30 12496 H 1125.74 -0.433967 -0.595686 0
M  V30 12497 H 1128.38 -1.59839 -1.0272 0
M  V30 12498 H 1126.53 -1.67096 -3.5073 0
M  V30 12499 H 1128.2 -3.99131 -2.31284 0
M  V30 12500 H 1126.45 -3.78768 -2.11464 0
M  V30 12501 H 1127.12 -4.07565 -3.72283 0
M  V30 12502 H 1129.59 -2.15575 -3.55903 0
M  V30 12503 H 1128.47 -2.45456 -4.90961 0
M  V30 12504 H 1128.73 -0.811528 -4.34588 0
M  V30 12505 N 1127.79 1.09952 -1.12909 0
M  V30 12506 C 1129.02 1.8633 -0.910821 0
M  V30 12507 C 1129.44 1.80335 0.534874 0
M  V30 12508 O 1128.8 1.1769 1.37908 0
M  V30 12509 C 1128.85 3.32462 -1.39648 0
M  V30 12510 O 1127.95 4.08327 -0.578192 0
M  V30 12511 H 1127.29 0.577984 -0.32685 0
M  V30 12512 H 1129.82 1.38883 -1.50242 0
M  V30 12513 H 1129.83 3.83311 -1.39774 0
M  V30 12514 H 1128.51 3.36141 -2.44913 0
M  V30 12515 H 1127.08 3.67291 -0.644347 0
M  V30 12516 N 1129.27 0.921757 1.27833 0
M  V30 12517 C 1130.68 0.621102 1.47019 0
M  V30 12518 C 1130.88 -0.831338 1.83551 0
M  V30 12519 O 1129.94 -1.60974 1.94534 0
M  V30 12520 C 1131.25 1.56588 2.56712 0
M  V30 12521 C 1132.8 1.57346 2.70576 0
M  V30 12522 C 1133.28 2.50505 3.8342 0
M  V30 12523 N 1134.77 2.48678 3.90786 0
M  V30 12524 C 1135.5 3.17454 4.77505 0
M  V30 12525 N 1135 3.95588 5.68755 0
M  V30 12526 N 1136.79 3.06501 4.71183 0
M  V30 12527 H 1128.94 1.86085 1.02403 0
M  V30 12528 H 1131.21 0.798595 0.510833 0
M  V30 12529 H 1130.91 2.60175 2.36647 0
M  V30 12530 H 1130.79 1.30305 3.53978 0
M  V30 12531 H 1133.17 0.544919 2.90025 0
M  V30 12532 H 1133.25 1.87675 1.73815 0
M  V30 12533 H 1132.9 3.53466 3.64725 0
M  V30 12534 H 1132.83 2.17474 4.79596 0
M  V30 12535 H 1135.32 1.91928 3.25534 0
M  V30 12536 H 1135.63 4.45066 6.31772 0
M  V30 12537 H 1133.98 3.99692 5.6857 0
M  V30 12538 H 1137.17 2.44958 3.9889 0
M  V30 12539 H 1137.34 3.60372 5.3855 0
M  V30 12540 N 1130.75 -1.41857 0.686609 0
M  V30 12541 C 1131.97 -2.06219 0.221037 0
M  V30 12542 C 1132.4 -1.51298 -1.11762 0
M  V30 12543 O 1131.75 -0.636253 -1.69769 0
M  V30 12544 C 1131.8 -3.60153 0.179425 0
M  V30 12545 O 1130.91 -4.03577 -0.848481 0
M  V30 12546 H 1130.25 -0.654787 0.110228 0
M  V30 12547 H 1132.78 -1.81783 0.938948 0
M  V30 12548 H 1132.79 -4.07999 0.00725332 0
M  V30 12549 H 1131.46 -3.99498 1.15647 0
M  V30 12550 H 1130.04 -3.67255 -0.646393 0
M  V30 12551 N 1132.22 -0.430739 -1.51599 0
M  V30 12552 C 1133.17 0.398482 -2.29161 0
M  V30 12553 C 1134.17 1.02676 -1.34737 0
M  V30 12554 O 1135.37 0.96248 -1.52106 0
M  V30 12555 H 1131.75 0.14731 -0.737431 0
M  V30 12556 H 1133.72 -0.276619 -2.97115 0
M  V30 12557 C 1132.47 1.49094 -3.14112 0
M  V30 12558 H 1131.79 1.01685 -3.86652 0
M  V30 12559 H 1133.23 2.04453 -3.7145 0
M  V30 12560 C 1131.69 2.47049 -2.29059 0
M  V30 12561 O 1132.22 3.51435 -1.94567 0
M  V30 12562 N 1130.43 2.17778 -1.92409 0
M  V30 12563 H 1129.97 1.3292 -2.20658 0
M  V30 12564 H 1129.93 2.8356 -1.35798 0
M  V30 12565 N 1133.7 1.56767 -0.161869 0
M  V30 12566 C 1134.98 1.88245 0.531352 0
M  V30 12567 C 1135.36 1.07025 1.81958 0
M  V30 12568 O 1134.71 0.161385 2.27929 0
M  V30 12569 C 1134.92 3.40117 0.782416 0
M  V30 12570 C 1136.27 4.09655 1.11661 0
M  V30 12571 O 1137.29 3.4538 0.871274 0
M  V30 12572 O 1136.15 5.23192 1.57901 0
M  V30 12573 H 1133.24 0.780725 0.272759 0
M  V30 12574 H 1135.79 1.68522 -0.199597 0
M  V30 12575 H 1134.56 3.91088 -0.128677 0
M  V30 12576 H 1134.18 3.65418 1.56702 0
M  V30 12577 N 1135.18 -0.111886 1.57202 0
M  V30 12578 C 1136.59 -0.668261 1.74331 0
M  V30 12579 C 1136.94 -1.79959 0.781609 0
M  V30 12580 O 1136.07 -2.16356 -0.043833 0
M  V30 12581 C 1136.66 -1.219 3.1611 0
M  V30 12582 C 1135.22 -1.7216 3.34721 0
M  V30 12583 C 1134.37 -0.624223 2.70183 0
M  V30 12584 H 1137.32 0.114081 1.58289 0
M  V30 12585 H 1137.34 -2.08858 3.18054 0
M  V30 12586 H 1136.85 -0.395381 3.86081 0
M  V30 12587 H 1134.95 -2.56976 2.69803 0
M  V30 12588 H 1135.07 -1.82615 4.42932 0
M  V30 12589 H 1133.43 -1.05958 2.31614 0
M  V30 12590 H 1134.21 0.188537 3.42782 0
M  V30 12591 N 1136.66 -1.52894 -0.382264 0
M  V30 12592 C 1137.59 -1.74413 -1.48703 0
M  V30 12593 C 1138.6 -0.624663 -1.50339 0
M  V30 12594 O 1139.79 -0.900527 -1.54119 0
M  V30 12595 C 1136.89 -1.79387 -2.8753 0
M  V30 12596 C 1136.07 -3.08794 -3.09783 0
M  V30 12597 C 1135.12 -3.05226 -4.2863 0
M  V30 12598 O 1134.15 -3.79073 -4.24609 0
M  V30 12599 N 1135.35 -2.2488 -5.35172 0
M  V30 12600 H 1138.12 -2.69734 -1.30628 0
M  V30 12601 H 1135.68 -1.51465 -0.571842 0
M  V30 12602 H 1137.67 -1.74498 -3.65147 0
M  V30 12603 H 1136.24 -0.914233 -2.98932 0
M  V30 12604 H 1135.46 -3.27118 -2.19971 0
M  V30 12605 H 1136.75 -3.94347 -3.21509 0
M  V30 12606 H 1136.15 -1.64363 -5.41296 0
M  V30 12607 H 1134.7 -2.25825 -6.1143 0
M  V30 12608 N 1138.14 0.641106 -1.43971 0
M  V30 12609 C 1139.07 1.76599 -1.44527 0
M  V30 12610 C 1140.05 1.59709 -0.305257 0
M  V30 12611 O 1141.23 1.81728 -0.50071 0
M  V30 12612 C 1138.36 3.14052 -1.26843 0
M  V30 12613 C 1137.41 3.49615 -2.44278 0
M  V30 12614 S 1138.24 3.4822 -4.06821 0
M  V30 12615 C 1139.39 4.8831 -3.91541 0
M  V30 12616 H 1139.63 1.75858 -2.3971 0
M  V30 12617 H 1137.16 0.814834 -1.31148 0
M  V30 12618 H 1139.12 3.93376 -1.17327 0
M  V30 12619 H 1137.78 3.12342 -0.331872 0
M  V30 12620 H 1136.97 4.49611 -2.2774 0
M  V30 12621 H 1136.57 2.77732 -2.50482 0
M  V30 12622 H 1138.87 5.77282 -3.54615 0
M  V30 12623 H 1139.81 5.099 -4.91333 0
M  V30 12624 H 1140.22 4.62414 -3.2378 0
M  V30 12625 N 1139.62 1.30703 0.880598 0
M  V30 12626 C 1140.86 1.19955 1.63519 0
M  V30 12627 C 1141.19 -0.244214 1.92658 0
M  V30 12628 O 1140.47 -1.17412 1.55063 0
M  V30 12629 C 1140.75 2.03302 2.97221 0
M  V30 12630 C 1140.61 3.55921 2.75028 0
M  V30 12631 C 1141.92 1.87421 3.98198 0
M  V30 12632 H 1139.04 0.43712 0.593376 0
M  V30 12633 H 1141.69 1.60382 1.01871 0
M  V30 12634 H 1139.84 1.68953 3.49839 0
M  V30 12635 H 1141.51 4.00352 2.29164 0
M  V30 12636 H 1139.75 3.79885 2.09452 0
M  V30 12637 H 1140.42 4.09533 3.70117 0
M  V30 12638 H 1142.9 2.17459 3.54755 0
M  V30 12639 H 1141.77 2.48057 4.89652 0
M  V30 12640 H 1142.03 0.834563 4.34151 0
M  V30 12641 N 1141.09 -1.09351 1.1349 0
M  V30 12642 C 1142.06 -2.14185 0.815919 0
M  V30 12643 C 1143.06 -1.59845 -0.174976 0
M  V30 12644 O 1144.25 -1.74122 0.0521971 0
M  V30 12645 C 1141.38 -3.40224 0.214517 0
M  V30 12646 H 1142.57 -2.43913 1.74489 0
M  V30 12647 H 1140.12 -1.24902 0.939634 0
M  V30 12648 H 1140.86 -3.16123 -0.723634 0
M  V30 12649 H 1140.64 -3.80958 0.928102 0
M  V30 12650 H 1142.13 -4.17599 0.00821999 0
M  V30 12651 N 1142.57 -0.928524 -1.27343 0
M  V30 12652 C 1143.48 -0.433901 -2.30553 0
M  V30 12653 C 1144.5 0.485832 -1.6708 0
M  V30 12654 O 1145.67 0.36844 -1.98001 0
M  V30 12655 C 1142.74 0.304617 -3.45359 0
M  V30 12656 C 1141.8 -0.650131 -4.24349 0
M  V30 12657 C 1141.03 0.0532372 -5.33673 0
M  V30 12658 O 1141.26 1.27246 -5.56026 0
M  V30 12659 O 1140.19 -0.619009 -5.98709 0
M  V30 12660 H 1144.02 -1.2909 -2.74899 0
M  V30 12661 H 1141.6 -0.693903 -1.32308 0
M  V30 12662 H 1143.48 0.721137 -4.15184 0
M  V30 12663 H 1142.16 1.13721 -3.03066 0
M  V30 12664 H 1141.06 -1.11635 -3.57055 0
M  V30 12665 H 1142.4 -1.44996 -4.70358 0
M  V30 12666 N 1144.05 1.41491 -0.694123 0
M  V30 12667 C 1145 2.32594 -0.0164704 0
M  V30 12668 C 1145.99 1.50884 0.770086 0
M  V30 12669 O 1147.2 1.66829 0.675871 0
M  V30 12670 H 1143.57 0.751879 0.0134743 0
M  V30 12671 H 1145.54 2.87423 -0.80191 0
M  V30 12672 C 1144.29 3.35661 0.90703 0
M  V30 12673 H 1143.62 3.98587 0.311205 0
M  V30 12674 H 1145.06 4.0195 1.34952 0
M  V30 12675 C 1143.51 2.69436 2.02253 0
M  V30 12676 O 1144.04 2.54107 3.11115 0
M  V30 12677 N 1142.25 2.28154 1.79984 0
M  V30 12678 H 1141.8 2.40821 0.914492 0
M  V30 12679 H 1141.76 1.84178 2.54805 0
M  V30 12680 N 1145.53 0.438773 1.51369 0
M  V30 12681 C 1146.77 -0.127213 2.021 0
M  V30 12682 C 1147.1 -1.42587 1.32284 0
M  V30 12683 O 1146.36 -1.90986 0.426949 0
M  V30 12684 C 1146.66 -0.39186 3.55245 0
M  V30 12685 C 1146.32 0.821158 4.4336 0
M  V30 12686 C 1144.98 1.15381 4.67162 0
M  V30 12687 C 1147.34 1.6303 4.95046 0
M  V30 12688 C 1144.66 2.29626 5.39897 0
M  V30 12689 C 1147.02 2.76376 5.69033 0
M  V30 12690 C 1145.68 3.10094 5.91099 0
M  V30 12691 H 1144.95 -0.0465505 0.739536 0
M  V30 12692 H 1147.6 0.586261 1.82305 0
M  V30 12693 H 1145.9 -1.18724 3.73379 0
M  V30 12694 H 1147.6 -0.843228 3.92034 0
M  V30 12695 H 1144.19 0.551946 4.25031 0
M  V30 12696 H 1148.37 1.38651 4.76539 0
M  V30 12697 H 1143.63 2.56062 5.55196 0
M  V30 12698 H 1147.8 3.39442 6.08072 0
M  V30 12699 H 1145.43 3.98731 6.47238 0
M  V30 12700 N 1147.01 -1.56678 0.170181 0
M  V30 12701 C 1148.25 -1.9714 -0.475767 0
M  V30 12702 C 1148.58 -1.05611 -1.62972 0
M  V30 12703 O 1147.86 -0.103017 -1.94227 0
M  V30 12704 C 1148.14 -3.47072 -0.959828 0
M  V30 12705 C 1148 -4.4938 0.194225 0
M  V30 12706 C 1149.31 -4.00071 -1.83387 0
M  V30 12707 H 1146.43 -0.716776 -0.171466 0
M  V30 12708 H 1149.08 -1.88266 0.256086 0
M  V30 12709 H 1147.23 -3.54766 -1.58346 0
M  V30 12710 H 1148.9 -4.53748 0.83128 0
M  V30 12711 H 1147.14 -4.25393 0.849893 0
M  V30 12712 H 1147.81 -5.51685 -0.186575 0
M  V30 12713 H 1150.29 -3.95002 -1.30815 0
M  V30 12714 H 1149.16 -5.05398 -2.14159 0
M  V30 12715 H 1149.42 -3.43819 -2.77923 0
M  V30 12716 N 1148.48 0.103547 -1.57259 0
M  V30 12717 C 1149.89 0.659006 -1.74683 0
M  V30 12718 C 1150.25 1.79542 -0.791142 0
M  V30 12719 O 1149.37 2.16376 0.0323585 0
M  V30 12720 C 1149.97 1.20222 -3.16752 0
M  V30 12721 C 1148.52 1.70382 -3.35629 0
M  V30 12722 C 1147.67 0.609886 -2.7051 0
M  V30 12723 H 1150.62 -0.122474 -1.58227 0
M  V30 12724 H 1150.64 2.07169 -3.19157 0
M  V30 12725 H 1150.16 0.374901 -3.86285 0
M  V30 12726 H 1148.26 2.55542 -2.71162 0
M  V30 12727 H 1148.37 1.80263 -4.43894 0
M  V30 12728 H 1146.73 1.04728 -2.32173 0
M  V30 12729 H 1147.52 -0.206713 -3.42677 0
M  V30 12730 N 1149.96 1.53094 0.37415 0
M  V30 12731 C 1151.37 1.60641 0.951381 0
M  V30 12732 C 1151.72 0.468474 1.90525 0
M  V30 12733 O 1150.85 -0.406347 2.12551 0
M  V30 12734 C 1151.44 2.91166 1.73228 0
M  V30 12735 C 1150 3.01077 2.25898 0
M  V30 12736 C 1149.15 2.55873 1.06885 0
M  V30 12737 H 1152.1 1.57959 0.153214 0
M  V30 12738 H 1152.12 2.78487 2.59278 0
M  V30 12739 H 1151.63 3.73968 1.03778 0
M  V30 12740 H 1149.73 2.22844 2.98615 0
M  V30 12741 H 1149.85 4.05998 2.54367 0
M  V30 12742 H 1148.21 2.10544 1.43329 0
M  V30 12743 H 1148.99 3.41084 0.38947 0
M  V30 12744 N 1151.44 -0.633461 1.44309 0
M  V30 12745 C 1152.37 -1.75676 1.53819 0
M  V30 12746 C 1153.35 -1.65537 0.391365 0
M  V30 12747 O 1154.54 -1.84332 0.611181 0
M  V30 12748 C 1151.67 -3.14197 1.47979 0
M  V30 12749 C 1150.62 -3.39122 2.61113 0
M  V30 12750 C 1149.95 -4.77648 2.40325 0
M  V30 12751 C 1151.25 -3.31914 4.03274 0
M  V30 12752 H 1152.94 -1.67974 2.47841 0
M  V30 12753 H 1150.49 -0.8067 1.19283 0
M  V30 12754 H 1152.44 -3.92553 1.53233 0
M  V30 12755 H 1151.16 -3.22677 0.504718 0
M  V30 12756 H 1149.82 -2.63145 2.55245 0
M  V30 12757 H 1149.47 -4.82829 1.41016 0
M  V30 12758 H 1149.17 -4.95284 3.16177 0
M  V30 12759 H 1150.69 -5.58237 2.47394 0
M  V30 12760 H 1152.11 -4.00178 4.10524 0
M  V30 12761 H 1150.5 -3.61085 4.7931 0
M  V30 12762 H 1151.57 -2.29761 4.2701 0
M  V30 12763 N 1152.92 -1.31168 -0.873655 0
M  V30 12764 C 1153.85 -1.21094 -1.99646 0
M  V30 12765 C 1154.83 -0.0989684 -1.69812 0
M  V30 12766 O 1156.01 -0.282939 -1.92128 0
M  V30 12767 C 1153.14 -0.913684 -3.35066 0
M  V30 12768 C 1152.1 -1.98482 -3.79195 0
M  V30 12769 C 1151.42 -1.54033 -5.12033 0
M  V30 12770 C 1152.72 -3.39745 -3.96699 0
M  V30 12771 H 1154.42 -2.1503 -2.08333 0
M  V30 12772 H 1151.96 -1.03521 -1.00097 0
M  V30 12773 H 1153.92 -0.829821 -4.13149 0
M  V30 12774 H 1152.64 0.0613471 -3.26542 0
M  V30 12775 H 1151.3 -2.05851 -3.03349 0
M  V30 12776 H 1150.95 -0.553261 -4.99948 0
M  V30 12777 H 1150.65 -2.25688 -5.4253 0
M  V30 12778 H 1152.17 -1.47047 -5.92629 0
M  V30 12779 H 1153.59 -3.35071 -4.65188 0
M  V30 12780 H 1151.98 -4.09585 -4.38589 0
M  V30 12781 H 1153.05 -3.80802 -3.00196 0
M  V30 12782 N 1154.4 1.08748 -1.14068 0
M  V30 12783 C 1155.67 1.7769 -0.81766 0
M  V30 12784 C 1156.05 1.99522 0.689501 0
M  V30 12785 O 1155.4 1.60222 1.62914 0
M  V30 12786 C 1155.61 3.09517 -1.61245 0
M  V30 12787 C 1156.96 3.84108 -1.80958 0
M  V30 12788 O 1157.98 3.19289 -1.57902 0
M  V30 12789 O 1156.84 5.00491 -2.19479 0
M  V30 12790 H 1153.94 0.770953 -0.299265 0
M  V30 12791 H 1156.48 1.15242 -1.24569 0
M  V30 12792 H 1155.25 2.89155 -2.63638 0
M  V30 12793 H 1154.88 3.79692 -1.17982 0
M  V30 12794 N 1155.87 0.935264 1.26849 0
M  V30 12795 C 1156.84 0.44485 2.24842 0
M  V30 12796 C 1157.84 -0.440781 1.54641 0
M  V30 12797 O 1159.03 -0.240793 1.72528 0
M  V30 12798 C 1156.16 -0.359566 3.38998 0
M  V30 12799 H 1157.35 1.31074 2.6974 0
M  V30 12800 H 1154.91 0.716665 1.38901 0
M  V30 12801 H 1155.64 -1.24396 2.99493 0
M  V30 12802 H 1155.43 0.275529 3.91131 0
M  V30 12803 H 1156.92 -0.692804 4.11813 0
M  V30 12804 N 1157.35 -1.41121 0.701616 0
M  V30 12805 C 1158.6 -2.01428 0.235495 0
M  V30 12806 C 1158.93 -1.55463 -1.16382 0
M  V30 12807 O 1158.21 -0.768477 -1.78675 0
M  V30 12808 C 1158.49 -3.58849 0.299919 0
M  V30 12809 C 1158.34 -4.14924 1.73661 0
M  V30 12810 C 1159.66 -4.38809 -0.336856 0
M  V30 12811 H 1156.78 -0.731842 0.0870456 0
M  V30 12812 H 1159.42 -1.67787 0.891479 0
M  V30 12813 H 1157.57 -3.87638 -0.258611 0
M  V30 12814 H 1159.24 -3.96987 2.34945 0
M  V30 12815 H 1157.49 -3.69738 2.26884 0
M  V30 12816 H 1158.16 -5.24085 1.73318 0
M  V30 12817 H 1160.63 -4.15868 0.138886 0
M  V30 12818 H 1159.51 -5.48278 -0.261264 0
M  V30 12819 H 1159.77 -4.18728 -1.41843 0
M  V30 12820 N 1158.83 -0.446794 -1.51134 0
M  V30 12821 C 1159.76 0.350229 -2.30858 0
M  V30 12822 C 1160.74 1.0125 -1.36684 0
M  V30 12823 O 1161.93 1.01433 -1.65605 0
M  V30 12824 C 1159.06 1.4464 -3.15748 0
M  V30 12825 C 1158.01 0.907102 -4.18277 0
M  V30 12826 C 1157.34 2.09974 -4.91747 0
M  V30 12827 C 1158.64 -0.0649758 -5.2226 0
M  V30 12828 H 1160.33 -0.315105 -2.97737 0
M  V30 12829 H 1157.88 -0.152985 -1.43185 0
M  V30 12830 H 1159.83 2.01127 -3.70305 0
M  V30 12831 H 1158.55 2.14016 -2.46708 0
M  V30 12832 H 1157.21 0.364382 -3.64785 0
M  V30 12833 H 1156.86 2.77991 -4.19202 0
M  V30 12834 H 1156.56 1.74523 -5.61084 0
M  V30 12835 H 1158.08 2.66996 -5.49131 0
M  V30 12836 H 1159.5 0.4099 -5.71833 0
M  V30 12837 H 1157.9 -0.332529 -5.99178 0
M  V30 12838 H 1158.97 -0.998681 -4.74504 0
M  V30 12839 N 1160.31 1.56586 -0.178487 0
M  V30 12840 C 1161.56 1.96273 0.464745 0
M  V30 12841 C 1161.87 1.0675 1.63902 0
M  V30 12842 O 1163.08 1.36148 2.34896 0
M  V30 12843 C 1161.53 3.49021 0.878207 0
M  V30 12844 C 1161.14 4.4718 -0.270861 0
M  V30 12845 C 1162.88 3.97512 1.48946 0
M  V30 12846 C 1160.79 5.91176 0.162632 0
M  V30 12847 H 1159.72 0.732834 0.177398 0
M  V30 12848 H 1162.37 1.81534 -0.267861 0
M  V30 12849 H 1160.75 3.59203 1.667 0
M  V30 12850 H 1161.93 4.48718 -1.04826 0
M  V30 12851 H 1160.24 4.08788 -0.792529 0
M  V30 12852 H 1162.84 5.02556 1.82595 0
M  V30 12853 H 1163.18 3.40861 2.38997 0
M  V30 12854 H 1163.72 3.90376 0.76496 0
M  V30 12855 H 1160.46 6.51716 -0.703286 0
M  V30 12856 H 1159.98 5.9293 0.905243 0
M  V30 12857 H 1161.65 6.44174 0.604084 0
M  V30 12858 N 1161.79 -0.095206 1.57312 0
M  V30 12859 C 1163.06 -0.830388 1.77099 0
M  V30 12860 C 1163.44 -1.9694 0.760121 0
M  V30 12861 O 1162.79 -2.2752 -0.211403 0
M  V30 12862 C 1163 -1.32507 3.22867 0
M  V30 12863 C 1164.35 -1.7679 3.86045 0
M  V30 12864 O 1165.37 -1.42131 3.26615 0
M  V30 12865 O 1164.23 -2.40876 4.90552 0
M  V30 12866 H 1161.33 -0.396083 0.72598 0
M  V30 12867 H 1163.87 -0.0770965 1.69525 0
M  V30 12868 H 1162.64 -0.508992 3.87975 0
M  V30 12869 H 1162.27 -2.14037 3.35073 0
M  V30 12870 N 1163.26 -1.53291 -0.366026 0
M  V30 12871 C 1164.49 -1.73108 -1.1277 0
M  V30 12872 C 1164.9 -0.459662 -1.83531 0
M  V30 12873 O 1164.25 0.577151 -1.74398 0
M  V30 12874 C 1164.31 -2.84137 -2.20242 0
M  V30 12875 C 1163.97 -4.24503 -1.69252 0
M  V30 12876 C 1164.97 -5.06866 -1.15684 0
M  V30 12877 C 1162.65 -4.70912 -1.74778 0
M  V30 12878 C 1164.65 -6.33728 -0.683191 0
M  V30 12879 C 1162.33 -5.97752 -1.27025 0
M  V30 12880 C 1163.33 -6.78992 -0.738858 0
M  V30 12881 O 1163.02 -8.03452 -0.268375 0
M  V30 12882 H 1162.75 -0.582439 -0.343134 0
M  V30 12883 H 1165.31 -2.00828 -0.430969 0
M  V30 12884 H 1163.54 -2.5189 -2.93408 0
M  V30 12885 H 1165.23 -2.92136 -2.818 0
M  V30 12886 H 1165.99 -4.72185 -1.10753 0
M  V30 12887 H 1161.87 -4.07751 -2.15081 0
M  V30 12888 H 1165.41 -6.97086 -0.267746 0
M  V30 12889 H 1161.31 -6.31933 -1.31649 0
M  V30 12890 H 1162.08 -8.17581 -0.387745 0
M  V30 12891 N 1164.74 0.6258 -1.44643 0
M  V30 12892 C 1165.67 1.75086 -1.47911 0
M  V30 12893 C 1166.69 1.58496 -0.37188 0
M  V30 12894 O 1167.88 1.66712 -0.637925 0
M  V30 12895 C 1164.98 3.12874 -1.30243 0
M  V30 12896 C 1164.15 3.55873 -2.54309 0
M  V30 12897 C 1163.21 4.72558 -2.31464 0
M  V30 12898 O 1162.23 4.80599 -3.04981 0
M  V30 12899 N 1163.44 5.64617 -1.34862 0
M  V30 12900 H 1166.2 1.72751 -2.44902 0
M  V30 12901 H 1163.76 0.810531 -1.4015 0
M  V30 12902 H 1165.75 3.88663 -1.12798 0
M  V30 12903 H 1164.32 3.0982 -0.415966 0
M  V30 12904 H 1163.54 2.70237 -2.86994 0
M  V30 12905 H 1164.83 3.81355 -3.36817 0
M  V30 12906 H 1164.23 5.60819 -0.741542 0
M  V30 12907 H 1162.79 6.40013 -1.23394 0
M  V30 12908 N 1166.22 1.31629 0.866686 0
M  V30 12909 C 1167.64 1.10358 1.15296 0
M  V30 12910 C 1167.84 -0.123807 2.01119 0
M  V30 12911 O 1166.89 -0.81219 2.39081 0
M  V30 12912 C 1168.21 2.37684 1.84193 0
M  V30 12913 C 1169.75 2.43326 1.9688 0
M  V30 12914 C 1170.23 3.70541 2.69191 0
M  V30 12915 N 1171.72 3.71454 2.76724 0
M  V30 12916 C 1172.45 4.66585 3.33295 0
M  V30 12917 N 1171.95 5.72075 3.90771 0
M  V30 12918 N 1173.74 4.541 3.31284 0
M  V30 12919 H 1165.89 2.10343 0.29487 0
M  V30 12920 H 1168.16 0.928096 0.193239 0
M  V30 12921 H 1167.86 3.27352 1.28582 0
M  V30 12922 H 1167.74 2.47731 2.84445 0
M  V30 12923 H 1170.12 1.54124 2.51654 0
M  V30 12924 H 1170.21 2.3724 0.956596 0
M  V30 12925 H 1169.85 4.60111 2.15083 0
M  V30 12926 H 1169.78 3.73894 3.70825 0
M  V30 12927 H 1172.27 2.952 2.35936 0
M  V30 12928 H 1172.58 6.40738 4.32058 0
M  V30 12929 H 1170.93 5.75844 3.89138 0
M  V30 12930 H 1174.12 3.70861 2.85622 0
M  V30 12931 H 1174.29 5.28416 3.75074 0
M  V30 12932 N 1167.7 -1.08142 1.14644 0
M  V30 12933 C 1168.65 -2.17229 0.831513 0
M  V30 12934 C 1169.64 -1.68311 -0.19173 0
M  V30 12935 O 1170.85 -1.79937 -0.0475596 0
M  V30 12936 H 1167.22 -0.708807 0.25119 0
M  V30 12937 H 1169.19 -2.41014 1.75939 0
M  V30 12938 C 1167.94 -3.46146 0.328347 0
M  V30 12939 H 1167.27 -3.84166 1.10708 0
M  V30 12940 H 1168.71 -4.23747 0.146568 0
M  V30 12941 C 1167.16 -3.2327 -0.948594 0
M  V30 12942 O 1167.69 -3.47111 -2.0218 0
M  V30 12943 N 1165.9 -2.76799 -0.884909 0
M  V30 12944 H 1165.45 -2.57597 -0.011399 0
M  V30 12945 H 1165.41 -2.61871 -1.73985 0
M  V30 12946 N 1169.18 -0.941978 -1.26351 0
M  V30 12947 C 1170.42 -0.590845 -1.94002 0
M  V30 12948 C 1170.76 0.868004 -1.73722 0
M  V30 12949 O 1170.03 1.62111 -1.07472 0
M  V30 12950 C 1170.31 -0.934901 -3.47752 0
M  V30 12951 C 1170.17 -2.44855 -3.77314 0
M  V30 12952 C 1171.49 -0.450888 -4.37784 0
M  V30 12953 H 1168.61 -0.21613 -0.704597 0
M  V30 12954 H 1171.25 -1.17634 -1.49205 0
M  V30 12955 H 1169.4 -0.436648 -3.86038 0
M  V30 12956 H 1171.07 -3.01959 -3.48738 0
M  V30 12957 H 1169.31 -2.89169 -3.23363 0
M  V30 12958 H 1169.98 -2.6398 -4.84787 0
M  V30 12959 H 1172.46 -0.878107 -4.06729 0
M  V30 12960 H 1171.34 -0.720439 -5.44152 0
M  V30 12961 H 1171.6 0.649162 -4.37308 0
M  V30 12962 N 1170.66 1.40747 -0.709091 0
M  V30 12963 C 1172.07 1.83955 -0.318968 0
M  V30 12964 C 1172.42 1.59304 1.14527 0
M  V30 12965 O 1171.54 1.07052 1.88066 0
M  V30 12966 C 1172.14 3.33934 -0.572147 0
M  V30 12967 C 1170.7 3.75661 -0.235802 0
M  V30 12968 C 1169.84 2.64024 -0.847743 0
M  V30 12969 H 1172.79 1.30107 -0.908734 0
M  V30 12970 H 1172.82 3.80143 0.164752 0
M  V30 12971 H 1172.33 3.51844 -1.63791 0
M  V30 12972 H 1170.43 3.63348 0.825164 0
M  V30 12973 H 1170.54 4.73955 -0.700263 0
M  V30 12974 H 1168.91 2.53197 -0.276283 0
M  V30 12975 H 1169.69 2.84748 -1.91765 0
M  V30 12976 N 1172.13 0.454803 1.50895 0
M  V30 12977 C 1173.1 -0.336293 2.26719 0
M  V30 12978 C 1174.1 -0.93464 1.30848 0
M  V30 12979 O 1175.29 -0.80636 1.54413 0
M  V30 12980 C 1172.42 -1.47744 3.07221 0
M  V30 12981 H 1173.61 0.328462 2.98096 0
M  V30 12982 H 1171.16 0.208419 1.54904 0
M  V30 12983 H 1171.9 -2.17773 2.40302 0
M  V30 12984 H 1171.68 -1.05438 3.77658 0
M  V30 12985 H 1173.17 -2.03592 3.6461 0
M  V30 12986 N 1173.61 -1.56489 0.186789 0
M  V30 12987 C 1174.57 -2.17478 -0.723596 0
M  V30 12988 C 1175.57 -1.12698 -1.14699 0
M  V30 12989 O 1176.76 -1.38128 -1.06143 0
M  V30 12990 C 1173.9 -2.77015 -1.98685 0
M  V30 12991 H 1175.09 -2.99282 -0.192403 0
M  V30 12992 H 1172.64 -1.56174 -0.0628153 0
M  V30 12993 H 1173.38 -1.98987 -2.56076 0
M  V30 12994 H 1173.16 -3.53711 -1.69207 0
M  V30 12995 H 1174.65 -3.23872 -2.63622 0
M  V30 12996 N 1175.09 0.086862 -1.5736 0
M  V30 12997 C 1176.51 0.441284 -1.53378 0
M  V30 12998 C 1176.71 1.80046 -0.904748 0
M  V30 12999 O 1175.76 2.47484 -0.500781 0
M  V30 13000 C 1177.07 0.3962 -2.98078 0
M  V30 13001 C 1178.62 0.477468 -3.09337 0
M  V30 13002 C 1179.1 0.462448 -4.55659 0
M  V30 13003 N 1180.59 0.522963 -4.60238 0
M  V30 13004 C 1181.32 0.533313 -5.70914 0
M  V30 13005 N 1180.82 0.499376 -6.90998 0
M  V30 13006 N 1182.61 0.578742 -5.59113 0
M  V30 13007 H 1174.76 -0.803308 -1.96623 0
M  V30 13008 H 1177.03 -0.299879 -0.89932 0
M  V30 13009 H 1176.73 -0.535505 -3.47599 0
M  V30 13010 H 1176.61 1.21209 -3.57195 0
M  V30 13011 H 1178.99 1.39959 -2.59799 0
M  V30 13012 H 1179.07 -0.366717 -2.53158 0
M  V30 13013 H 1178.72 -0.455768 -5.05851 0
M  V30 13014 H 1178.65 1.32396 -5.09685 0
M  V30 13015 H 1181.14 0.554051 -3.73816 0
M  V30 13016 H 1181.45 0.510784 -7.7111 0
M  V30 13017 H 1179.8 0.466296 -6.93434 0
M  V30 13018 H 1182.99 0.602841 -4.64202 0
M  V30 13019 H 1183.16 0.583339 -6.45369 0
M  V30 13020 N 1176.57 1.53483 0.357892 0
M  V30 13021 C 1177.48 1.83434 1.4625 0
M  V30 13022 C 1178.49 0.723313 1.58254 0
M  V30 13023 O 1179.67 1.01416 1.74002 0
M  V30 13024 C 1176.73 2.0249 2.81423 0
M  V30 13025 C 1175.8 3.26378 2.78883 0
M  V30 13026 C 1175.03 3.44516 4.07608 0
M  V30 13027 O 1175.25 2.66787 5.04163 0
M  V30 13028 O 1174.19 4.37898 4.12952 0
M  V30 13029 H 1178.01 2.77294 1.23861 0
M  V30 13030 H 1175.6 1.38958 0.548722 0
M  V30 13031 H 1177.48 2.16552 3.61501 0
M  V30 13032 H 1176.15 1.11819 3.03773 0
M  V30 13033 H 1175.06 3.17733 1.97475 0
M  V30 13034 H 1176.39 4.16996 2.61486 0
M  V30 13035 N 1178.05 -0.61812 1.44973 0
M  V30 13036 C 1179.46 -1.19994 1.43033 0
M  V30 13037 C 1179.81 -1.95607 0.152422 0
M  V30 13038 O 1178.93 -2.03114 -0.746571 0
M  V30 13039 C 1179.53 -2.18269 2.59122 0
M  V30 13040 C 1178.09 -2.7185 2.60336 0
M  V30 13041 C 1177.23 -1.4707 2.35086 0
M  V30 13042 H 1180.18 -0.408034 1.53365 0
M  V30 13043 H 1180.21 -3.01113 2.32619 0
M  V30 13044 H 1179.72 -1.63208 3.52115 0
M  V30 13045 H 1177.82 -3.30878 1.7132 0
M  V30 13046 H 1177.93 -3.17001 3.59231 0
M  V30 13047 H 1176.3 -1.75658 1.84435 0
M  V30 13048 H 1177.08 -0.938928 3.30211 0
M  V30 13049 N 1179.52 -1.32087 -0.859693 0
M  V30 13050 C 1180.43 -1.22587 -2.00024 0
M  V30 13051 C 1181.45 -0.140477 -1.73432 0
M  V30 13052 O 1182.63 -0.360213 -1.98153 0
M  V30 13053 C 1179.69 -0.944195 -3.33595 0
M  V30 13054 C 1178.75 -2.11752 -3.73443 0
M  V30 13055 C 1177.98 -1.84919 -5.0064 0
M  V30 13056 O 1178.21 -0.789299 -5.64913 0
M  V30 13057 O 1177.14 -2.70885 -5.37499 0
M  V30 13058 H 1180.97 -2.18457 -2.10974 0
M  V30 13059 H 1178.55 -1.11927 -0.989577 0
M  V30 13060 H 1180.43 -0.803389 -4.13671 0
M  V30 13061 H 1179.11 -0.0156083 -3.23696 0
M  V30 13062 H 1178.02 -2.31378 -2.93965 0
M  V30 13063 H 1179.35 -3.02872 -3.87981 0
M  V30 13064 N 1181 1.07532 -1.15215 0
M  V30 13065 C 1182.25 1.8036 -0.927263 0
M  V30 13066 C 1182.58 1.86414 0.544371 0
M  V30 13067 O 1181.86 1.34653 1.40353 0
M  V30 13068 C 1182.14 3.25512 -1.53992 0
M  V30 13069 C 1181.99 3.27614 -3.08203 0
M  V30 13070 C 1183.31 4.22731 -1.22418 0
M  V30 13071 H 1180.43 0.654775 -0.338289 0
M  V30 13072 H 1183.07 1.25842 -1.42351 0
M  V30 13073 H 1181.22 3.72068 -1.11791 0
M  V30 13074 H 1182.89 2.89315 -3.59297 0
M  V30 13075 H 1181.14 2.66627 -3.42188 0
M  V30 13076 H 1181.81 4.29956 -3.46182 0
M  V30 13077 H 1184.28 3.84557 -1.58919 0
M  V30 13078 H 1183.16 5.22589 -1.67906 0
M  V30 13079 H 1183.42 4.41875 -0.14091 0
M  V30 13080 N 1182.48 0.948665 1.2585 0
M  V30 13081 C 1183.41 0.482036 2.2847 0
M  V30 13082 C 1184.39 -0.468553 1.63519 0
M  V30 13083 O 1185.58 -0.368796 1.90666 0
M  V30 13084 C 1182.71 -0.246603 3.46423 0
M  V30 13085 C 1181.66 0.61815 4.23513 0
M  V30 13086 C 1180.99 -0.240884 5.34157 0
M  V30 13087 C 1182.29 1.89327 4.86778 0
M  V30 13088 H 1183.98 1.33973 2.67753 0
M  V30 13089 H 1181.53 0.645645 1.28715 0
M  V30 13090 H 1183.48 -0.584135 4.17332 0
M  V30 13091 H 1182.2 -1.13849 3.06114 0
M  V30 13092 H 1180.86 0.938682 3.54379 0
M  V30 13093 H 1180.51 -1.13235 4.90089 0
M  V30 13094 H 1180.21 0.334367 5.86648 0
M  V30 13095 H 1181.73 -0.573517 6.07901 0
M  V30 13096 H 1183.15 1.62252 5.49861 0
M  V30 13097 H 1181.55 2.41369 5.49419 0
M  V30 13098 H 1182.62 2.60006 4.09298 0
M  V30 13099 N 1183.96 -1.40369 0.716545 0
M  V30 13100 C 1185.18 -2.05704 0.264729 0
M  V30 13101 C 1185.61 -1.53634 -1.08527 0
M  V30 13102 O 1184.97 -0.67212 -1.68381 0
M  V30 13103 C 1185.01 -3.59692 0.255778 0
M  V30 13104 O 1184.12 -4.05286 -0.762686 0
M  V30 13105 H 1183.46 -0.652301 0.124092 0
M  V30 13106 H 1185.99 -1.7975 0.977295 0
M  V30 13107 H 1186 -4.07892 0.0937944 0
M  V30 13108 H 1184.67 -3.96955 1.24095 0
M  V30 13109 H 1183.25 -3.68543 -0.568347 0
M  V30 13110 N 1185.44 -0.462799 -1.50652 0
M  V30 13111 C 1186.66 0.0929761 -2.06691 0
M  V30 13112 C 1187.08 1.34241 -1.32758 0
M  V30 13113 O 1186.44 1.78187 -0.394427 0
M  V30 13114 C 1186.49 0.389492 -3.59396 0
M  V30 13115 O 1186.21 -0.810379 -4.3054 0
M  V30 13116 C 1187.71 0.993147 -4.32032 0
M  V30 13117 H 1184.93 -0.00338664 -0.670991 0
M  V30 13118 H 1187.47 -0.649201 -1.93922 0
M  V30 13119 H 1185.63 1.08159 -3.71995 0
M  V30 13120 H 1186.04 -0.54996 -5.21609 0
M  V30 13121 H 1187.52 1.15044 -5.39878 0
M  V30 13122 H 1187.99 1.98106 -3.91983 0
M  V30 13123 H 1188.6 0.339677 -4.23941 0
M  V30 13124 N 1186.91 1.56388 -0.195085 0
M  V30 13125 C 1187.85 2.14992 0.765096 0
M  V30 13126 C 1188.83 1.08663 1.20959 0
M  V30 13127 O 1190.01 1.36775 1.29711 0
M  V30 13128 C 1187.14 2.7088 2.03327 0
M  V30 13129 C 1186.18 3.89797 1.7309 0
M  V30 13130 S 1187.02 5.28236 0.879025 0
M  V30 13131 C 1188.17 5.87545 2.15734 0
M  V30 13132 H 1188.4 2.961 0.266902 0
M  V30 13133 H 1185.94 1.54387 0.0199116 0
M  V30 13134 H 1187.9 3.03723 2.76157 0
M  V30 13135 H 1186.56 1.89814 2.50259 0
M  V30 13136 H 1185.75 4.27312 2.67246 0
M  V30 13137 H 1185.35 3.57964 1.08342 0
M  V30 13138 H 1187.64 6.01907 3.10989 0
M  V30 13139 H 1188.59 6.84137 1.82652 0
M  V30 13140 H 1188.99 5.16151 2.2858 0
M  V30 13141 N 1188.39 -0.0785156 1.57404 0
M  V30 13142 C 1189.36 -1.07835 2.02248 0
M  V30 13143 C 1190.36 -1.31987 0.918475 0
M  V30 13144 O 1191.55 -1.27821 1.18353 0
M  V30 13145 C 1188.68 -2.42361 2.39737 0
M  V30 13146 H 1189.87 -0.691995 2.91807 0
M  V30 13147 H 1187.42 -0.32405 1.52904 0
M  V30 13148 H 1188.16 -2.85841 1.53183 0
M  V30 13149 H 1187.94 -2.26174 3.20293 0
M  V30 13150 H 1189.43 -3.14241 2.75031 0
M  V30 13151 N 1189.87 -1.5367 -0.349747 0
M  V30 13152 C 1191.12 -1.69835 -1.08807 0
M  V30 13153 C 1191.43 -0.46497 -1.89993 0
M  V30 13154 O 1192.64 -0.507452 -2.66716 0
M  V30 13155 C 1191.09 -3.00294 -1.98372 0
M  V30 13156 C 1190.7 -4.30949 -1.22422 0
M  V30 13157 C 1192.45 -3.25826 -2.72099 0
M  V30 13158 C 1190.35 -5.52486 -2.1098 0
M  V30 13159 H 1189.28 -0.63284 -0.409915 0
M  V30 13160 H 1191.93 -1.80171 -0.347968 0
M  V30 13161 H 1190.32 -2.838 -2.76176 0
M  V30 13162 H 1191.49 -4.58126 -0.495707 0
M  V30 13163 H 1189.81 -4.11983 -0.604896 0
M  V30 13164 H 1192.4 -4.13817 -3.38615 0
M  V30 13165 H 1192.75 -2.42566 -3.3833 0
M  V30 13166 H 1193.28 -3.43067 -2.0137 0
M  V30 13167 H 1190.02 -6.38271 -1.49301 0
M  V30 13168 H 1189.54 -5.29566 -2.81638 0
M  V30 13169 H 1191.22 -5.87889 -2.70176 0
M  V30 13170 N 1191.35 0.610423 -1.45298 0
M  V30 13171 C 1192.6 1.36558 -1.48441 0
M  V30 13172 C 1192.91 1.95173 -0.129137 0
M  V30 13173 O 1194.12 2.71473 -0.0381956 0
M  V30 13174 C 1192.57 2.47349 -2.61431 0
M  V30 13175 C 1192.18 1.95158 -4.03258 0
M  V30 13176 C 1193.92 3.24383 -2.73817 0
M  V30 13177 C 1191.83 3.03414 -5.07635 0
M  V30 13178 H 1190.76 0.513253 -0.552347 0
M  V30 13179 H 1193.41 0.654535 -1.7143 0
M  V30 13180 H 1191.79 3.21125 -2.31721 0
M  V30 13181 H 1192.97 1.2811 -4.42634 0
M  V30 13182 H 1191.28 1.30878 -3.95297 0
M  V30 13183 H 1193.88 4.05123 -3.48969 0
M  V30 13184 H 1194.22 3.75205 -1.80352 0
M  V30 13185 H 1194.76 2.57705 -3.03039 0
M  V30 13186 H 1191.5 2.57512 -6.028 0
M  V30 13187 H 1191.02 3.69039 -4.72833 0
M  V30 13188 H 1192.69 3.67844 -5.32259 0
M  V30 13189 N 1192.83 1.32541 0.852676 0
M  V30 13190 C 1194.07 1.23397 1.60938 0
M  V30 13191 C 1194.41 -0.203294 1.93133 0
M  V30 13192 O 1193.68 -1.14097 1.57519 0
M  V30 13193 C 1193.96 2.0956 2.92842 0
M  V30 13194 C 1193.82 3.61675 2.67416 0
M  V30 13195 C 1195.14 1.95825 3.94133 0
M  V30 13196 H 1192.25 0.449608 0.583971 0
M  V30 13197 H 1194.9 1.62507 0.98446 0
M  V30 13198 H 1193.05 1.76336 3.46176 0
M  V30 13199 H 1194.72 4.05122 2.20621 0
M  V30 13200 H 1192.96 3.84242 2.01347 0
M  V30 13201 H 1193.63 4.17292 3.61347 0
M  V30 13202 H 1196.11 2.24935 3.50062 0
M  V30 13203 H 1194.98 2.58387 4.8428 0
M  V30 13204 H 1195.25 0.926466 4.32284 0
M  V30 13205 N 1194.3 -1.0692 1.15784 0
M  V30 13206 C 1195.25 -2.16335 0.854506 0
M  V30 13207 C 1196.25 -1.68505 -0.173868 0
M  V30 13208 O 1197.45 -1.79977 -0.0284722 0
M  V30 13209 H 1193.83 -0.706103 0.258694 0
M  V30 13210 H 1195.8 -2.39135 1.78486 0
M  V30 13211 C 1194.55 -3.45778 0.365042 0
M  V30 13212 H 1193.87 -3.82971 1.14776 0
M  V30 13213 H 1195.31 -4.23567 0.191504 0
M  V30 13214 C 1193.77 -3.24258 -0.914253 0
M  V30 13215 O 1194.3 -3.49236 -1.98487 0
M  V30 13216 N 1192.51 -2.77722 -0.855501 0
M  V30 13217 H 1192.05 -2.57595 0.0159233 0
M  V30 13218 H 1192.01 -2.63702 -1.71198 0
M  V30 13219 N 1195.78 -0.955326 -1.25345 0
M  V30 13220 C 1196.73 -0.474888 -2.25862 0
M  V30 13221 C 1197.7 0.472996 -1.59223 0
M  V30 13222 O 1198.88 0.386094 -1.86853 0
M  V30 13223 C 1196.02 0.240554 -3.44261 0
M  V30 13224 C 1195.14 -0.74465 -4.25534 0
M  V30 13225 C 1194.27 -0.00657513 -5.312 0
M  V30 13226 C 1193.31 -0.982666 -6.04161 0
M  V30 13227 N 1192.45 -0.275418 -7.0156 0
M  V30 13228 H 1197.29 -1.33693 -2.66327 0
M  V30 13229 H 1194.83 -0.670439 -1.30933 0
M  V30 13230 H 1196.78 0.671933 -4.11753 0
M  V30 13231 H 1195.41 1.06664 -3.04668 0
M  V30 13232 H 1194.47 -1.29451 -3.57696 0
M  V30 13233 H 1195.78 -1.48948 -4.76042 0
M  V30 13234 H 1194.93 0.483404 -6.04771 0
M  V30 13235 H 1193.67 0.771035 -4.81567 0
M  V30 13236 H 1192.68 -1.48364 -5.29404 0
M  V30 13237 H 1193.9 -1.76052 -6.55883 0
M  V30 13238 H 1191.85 0.483441 -6.54216 0
M  V30 13239 H 1191.76 -0.959324 -7.49889 0
M  V30 13240 H 1193.03 0.193002 -7.79261 0
M  V30 13241 N 1197.26 1.39987 -0.723979 0
M  V30 13242 C 1198.19 2.3332 -0.0917282 0
M  V30 13243 C 1199.17 1.53335 0.736361 0
M  V30 13244 O 1200.36 1.81771 0.683582 0
M  V30 13245 C 1197.49 3.3737 0.824549 0
M  V30 13246 C 1196.44 4.2788 0.101452 0
M  V30 13247 C 1195.77 5.22536 1.13401 0
M  V30 13248 C 1197.07 5.11649 -1.04939 0
M  V30 13249 H 1198.76 2.86441 -0.871318 0
M  V30 13250 H 1196.31 1.37725 -0.420448 0
M  V30 13251 H 1198.26 4.01607 1.27631 0
M  V30 13252 H 1196.98 2.82663 1.63613 0
M  V30 13253 H 1195.64 3.65107 -0.330569 0
M  V30 13254 H 1195.29 4.64131 1.93886 0
M  V30 13255 H 1194.99 5.83938 0.65502 0
M  V30 13256 H 1196.52 5.89651 1.58569 0
M  V30 13257 H 1197.93 5.69293 -0.6766 0
M  V30 13258 H 1196.33 5.82137 -1.45729 0
M  V30 13259 H 1197.4 4.47132 -1.8762 0
M  V30 13260 N 1198.74 0.470782 1.50404 0
M  V30 13261 C 1199.99 -0.0841494 2.01925 0
M  V30 13262 C 1200.31 -1.40244 1.35487 0
M  V30 13263 O 1199.58 -1.89409 0.500111 0
M  V30 13264 H 1198.16 -0.0340884 0.746222 0
M  V30 13265 H 1200.82 0.621133 1.84738 0
M  V30 13266 H 1199.92 -0.235877 3.11207 0
M  V30 13267 N 1200.22 -1.56282 0.203376 0
M  V30 13268 C 1201.47 -1.97421 -0.432346 0
M  V30 13269 C 1201.79 -1.0917 -1.61576 0
M  V30 13270 O 1201.06 -0.164759 -1.95206 0
M  V30 13271 H 1199.64 -0.729062 -0.162721 0
M  V30 13272 H 1202.3 -1.927 0.292039 0
M  V30 13273 H 1201.39 -3.02429 -0.770918 0
M  V30 13274 N 1201.7 0.070167 -1.57444 0
M  V30 13275 C 1202.65 1.09016 -2.00249 0
M  V30 13276 C 1203.63 1.34387 -0.884809 0
M  V30 13277 O 1204.82 1.34661 -1.14872 0
M  V30 13278 C 1201.95 2.40344 -2.45132 0
M  V30 13279 C 1201.04 2.1824 -3.63637 0
M  V30 13280 N 1201.43 1.6607 -4.7776 0
M  V30 13281 C 1199.73 2.48706 -3.70218 0
M  V30 13282 C 1200.43 1.58819 -5.59599 0
M  V30 13283 N 1199.4 2.04928 -5.03493 0
M  V30 13284 H 1203.2 0.680143 -2.85922 0
M  V30 13285 H 1200.72 0.277212 -1.60017 0
M  V30 13286 H 1202.72 3.1418 -2.74037 0
M  V30 13287 H 1201.38 2.82061 -1.60846 0
M  V30 13288 H 1202.39 1.34911 -5.00019 0
M  V30 13289 H 1199.06 2.93778 -2.96649 0
M  V30 13290 H 1200.45 1.19323 -6.6122 0
M  V30 13291 N 1203.17 1.53854 0.341593 0
M  V30 13292 C 1204.42 1.7041 1.07905 0
M  V30 13293 C 1204.74 0.475039 1.89744 0
M  V30 13294 O 1205.94 0.521589 2.66443 0
M  V30 13295 C 1204.4 3.01342 1.96776 0
M  V30 13296 C 1204.01 4.31592 1.20135 0
M  V30 13297 C 1205.75 3.27264 2.70367 0
M  V30 13298 C 1203.66 5.53598 2.08047 0
M  V30 13299 H 1202.59 0.635005 0.406553 0
M  V30 13300 H 1205.24 1.80353 0.338409 0
M  V30 13301 H 1203.62 2.85261 2.74667 0
M  V30 13302 H 1204.79 4.58382 0.471404 0
M  V30 13303 H 1203.11 4.12298 0.583039 0
M  V30 13304 H 1205.71 4.15607 3.36415 0
M  V30 13305 H 1206.05 2.44357 3.37039 0
M  V30 13306 H 1206.58 3.4413 1.99548 0
M  V30 13307 H 1203.32 6.39053 1.45914 0
M  V30 13308 H 1202.84 5.31052 2.78825 0
M  V30 13309 H 1204.52 5.89314 2.67055 0
M  V30 13310 N 1204.65 -0.602709 1.4562 0
M  V30 13311 C 1205.88 -1.3881 1.53426 0
M  V30 13312 C 1206.29 -1.88046 0.16851 0
M  V30 13313 O 1205.65 -1.62493 -0.830791 0
M  V30 13314 C 1205.7 -2.58927 2.52268 0
M  V30 13315 O 1205.42 -2.11735 3.83536 0
M  V30 13316 C 1206.92 -3.51728 2.69819 0
M  V30 13317 H 1204.14 -0.424744 0.519455 0
M  V30 13318 H 1206.69 -0.73459 1.90851 0
M  V30 13319 H 1204.84 -3.20309 2.17902 0
M  V30 13320 H 1205.26 -2.89814 4.37159 0
M  V30 13321 H 1206.73 -4.32542 3.42945 0
M  V30 13322 H 1207.21 -4.02383 1.76024 0
M  V30 13323 H 1207.81 -2.96196 3.05202 0
M  V30 13324 N 1206.13 -1.32992 -0.845635 0
M  V30 13325 C 1207.09 -1.22607 -1.9365 0
M  V30 13326 C 1208.09 -0.146812 -1.60128 0
M  V30 13327 O 1209.28 -0.397863 -1.69596 0
M  V30 13328 C 1206.41 -0.887677 -3.2914 0
M  V30 13329 H 1207.61 -2.19563 -2.04285 0
M  V30 13330 H 1205.16 -1.16952 -1.03691 0
M  V30 13331 H 1205.9 0.0796777 -3.24202 0
M  V30 13332 H 1205.68 -1.66808 -3.54849 0
M  V30 13333 H 1207.17 -0.83958 -4.09073 0
M  V30 13334 N 1207.61 1.06304 -1.1635 0
M  V30 13335 C 1208.52 2.17296 -0.884289 0
M  V30 13336 C 1209.53 1.73408 0.143414 0
M  V30 13337 O 1210.71 2.01373 -0.0331987 0
M  V30 13338 C 1207.77 3.44509 -0.389163 0
M  V30 13339 C 1206.84 4.02906 -1.48208 0
M  V30 13340 C 1206.07 5.24047 -1.01048 0
M  V30 13341 O 1206.29 5.70229 0.139821 0
M  V30 13342 O 1205.23 5.74394 -1.79876 0
M  V30 13343 H 1209.05 2.4369 -1.81243 0
M  V30 13344 H 1206.64 1.15841 -0.943459 0
M  V30 13345 H 1208.52 4.21229 -0.120018 0
M  V30 13346 H 1207.19 3.19642 0.510968 0
M  V30 13347 H 1206.1 3.27677 -1.80496 0
M  V30 13348 H 1207.43 4.32068 -2.35751 0
M  V30 13349 N 1209.09 0.96196 1.24836 0
M  V30 13350 C 1210.33 0.616342 1.92052 0
M  V30 13351 C 1210.65 -0.851601 1.76088 0
M  V30 13352 O 1211.85 -1.3075 2.37943 0
M  V30 13353 C 1210.31 1.05168 3.44191 0
M  V30 13354 C 1209.92 2.54268 3.68852 0
M  V30 13355 C 1211.66 0.778938 4.17292 0
M  V30 13356 C 1209.57 2.91564 5.14533 0
M  V30 13357 H 1208.5 0.22681 0.719078 0
M  V30 13358 H 1211.15 1.1674 1.41577 0
M  V30 13359 H 1209.53 0.428979 3.9367 0
M  V30 13360 H 1210.71 3.21619 3.29997 0
M  V30 13361 H 1209.02 2.79091 3.09026 0
M  V30 13362 H 1211.62 1.03366 5.24614 0
M  V30 13363 H 1211.96 -0.284772 4.15325 0
M  V30 13364 H 1212.49 1.36233 3.73745 0
M  V30 13365 H 1209.23 3.96982 5.21618 0
M  V30 13366 H 1208.75 2.28892 5.54408 0
M  V30 13367 H 1210.43 2.81155 5.82718 0
M  V30 13368 N 1210.56 -1.39601 0.731392 0
M  V30 13369 C 1211.97 -1.83424 0.348194 0
M  V30 13370 C 1212.33 -1.61106 -1.11979 0
M  V30 13371 O 1211.45 -1.1003 -1.86339 0
M  V30 13372 C 1212.05 -3.32982 0.6252 0
M  V30 13373 C 1210.6 -3.75238 0.295536 0
M  V30 13374 C 1209.75 -2.62642 0.88964 0
M  V30 13375 H 1212.7 -1.28644 0.929318 0
M  V30 13376 H 1212.72 -3.80357 -0.104254 0
M  V30 13377 H 1212.24 -3.49193 1.69368 0
M  V30 13378 H 1210.34 -3.64615 -0.767254 0
M  V30 13379 H 1210.45 -4.72781 0.775576 0
M  V30 13380 H 1208.81 -2.52726 0.316529 0
M  V30 13381 H 1209.6 -2.81661 1.96271 0
M  V30 13382 N 1212.04 -0.478751 -1.50152 0
M  V30 13383 C 1212.97 0.347829 -2.26545 0
M  V30 13384 C 1213.99 0.950354 -1.32182 0
M  V30 13385 O 1215.18 0.837462 -1.57635 0
M  V30 13386 C 1212.28 1.50255 -3.0377 0
M  V30 13387 C 1211.45 1.01142 -4.25546 0
M  V30 13388 C 1210.51 2.0411 -4.85 0
M  V30 13389 O 1209.53 1.61862 -5.45701 0
M  V30 13390 N 1210.74 3.36982 -4.72677 0
M  V30 13391 H 1213.5 -0.307113 -2.98122 0
M  V30 13392 H 1211.06 -0.309981 -1.58905 0
M  V30 13393 H 1213.05 2.18848 -3.40423 0
M  V30 13394 H 1211.62 2.06205 -2.34943 0
M  V30 13395 H 1210.84 0.151124 -3.9391 0
M  V30 13396 H 1212.13 0.661326 -5.04484 0
M  V30 13397 H 1211.53 3.74011 -4.2442 0
M  V30 13398 H 1210.09 4.0135 -5.13577 0
M  V30 13399 N 1213.52 1.56172 -0.211661 0
M  V30 13400 C 1214.77 1.97214 0.423008 0
M  V30 13401 C 1215.08 1.10203 1.616 0
M  V30 13402 O 1216.29 1.411 2.31955 0
M  V30 13403 C 1214.74 3.50805 0.803977 0
M  V30 13404 C 1214.35 4.46505 -0.365654 0
M  V30 13405 C 1216.1 4.00582 1.4048 0
M  V30 13406 C 1214 5.91388 0.0371986 0
M  V30 13407 H 1212.93 0.736432 0.161814 0
M  V30 13408 H 1215.58 1.80925 -0.306307 0
M  V30 13409 H 1213.97 3.62659 1.59043 0
M  V30 13410 H 1215.14 4.46394 -1.14321 0
M  V30 13411 H 1213.46 4.07015 -0.879061 0
M  V30 13412 H 1216.05 5.06317 1.71894 0
M  V30 13413 H 1216.4 3.45853 2.31713 0
M  V30 13414 H 1216.93 3.9191 0.681984 0
M  V30 13415 H 1213.67 6.50078 -0.841367 0
M  V30 13416 H 1213.19 5.94716 0.77927 0
M  V30 13417 H 1214.87 6.4531 0.467309 0
M  V30 13418 N 1215 -0.0618163 1.57479 0
M  V30 13419 C 1216.25 -0.759069 1.87735 0
M  V30 13420 C 1216.57 -1.77071 0.804732 0
M  V30 13421 O 1215.83 -1.94694 -0.198173 0
M  V30 13422 C 1216.13 -1.4939 3.2468 0
M  V30 13423 C 1215.79 -0.621312 4.46599 0
M  V30 13424 C 1214.46 -0.380873 4.7969 0
M  V30 13425 C 1216.81 -0.0168537 5.21197 0
M  V30 13426 C 1214.14 0.473341 5.84787 0
M  V30 13427 C 1216.49 0.824872 6.27199 0
M  V30 13428 C 1215.15 1.07509 6.58785 0
M  V30 13429 H 1214.42 -0.277763 0.686971 0
M  V30 13430 H 1217.07 -0.0195971 1.9149 0
M  V30 13431 H 1215.37 -2.30584 3.16762 0
M  V30 13432 H 1217.07 -2.03837 3.45328 0
M  V30 13433 H 1213.66 -0.818848 4.20705 0
M  V30 13434 H 1217.84 -0.189707 4.95937 0
M  V30 13435 H 1213.1 0.675842 6.07653 0
M  V30 13436 H 1217.27 1.29993 6.8416 0
M  V30 13437 H 1214.9 1.73876 7.40048 0
M  V30 13438 N 1216.48 -1.54033 -0.333429 0
M  V30 13439 C 1217.75 -1.62404 -1.09015 0
M  V30 13440 C 1218.13 -0.451653 -2.06212 0
M  V30 13441 O 1217.48 0.555086 -2.21655 0
M  V30 13442 C 1217.69 -2.98949 -1.80085 0
M  V30 13443 C 1219.04 -3.54655 -2.33464 0
M  V30 13444 O 1220.06 -3.0119 -1.90166 0
M  V30 13445 O 1218.92 -4.48195 -3.12703 0
M  V30 13446 H 1216.02 -0.65727 -0.501921 0
M  V30 13447 H 1218.56 -1.66378 -0.33411 0
M  V30 13448 H 1217.33 -3.75716 -1.09332 0
M  V30 13449 H 1216.96 -2.98609 -2.62523 0
M  V30 13450 N 1217.95 0.594978 -1.45938 0
M  V30 13451 C 1218.92 1.68688 -1.55168 0
M  V30 13452 C 1219.92 1.54945 -0.429951 0
M  V30 13453 O 1221.11 1.59785 -0.693859 0
M  V30 13454 C 1218.24 3.0804 -1.46027 0
M  V30 13455 H 1219.43 1.61866 -2.52467 0
M  V30 13456 H 1216.99 0.811785 -1.33565 0
M  V30 13457 H 1217.72 3.20428 -0.499614 0
M  V30 13458 H 1217.51 3.19423 -2.27401 0
M  V30 13459 H 1219 3.8755 -1.55546 0
M  V30 13460 N 1219.43 1.33438 0.838571 0
M  V30 13461 C 1220.68 1.25097 1.5962 0
M  V30 13462 C 1221.01 -0.182798 1.93338 0
M  V30 13463 O 1220.29 -1.1242 1.5872 0
M  V30 13464 C 1220.57 2.12655 2.90603 0
M  V30 13465 C 1220.42 3.64491 2.63565 0
M  V30 13466 C 1221.74 1.99994 3.92033 0
M  V30 13467 H 1218.86 0.455776 0.579169 0
M  V30 13468 H 1221.5 1.63542 0.967169 0
M  V30 13469 H 1219.65 1.79998 3.44286 0
M  V30 13470 H 1221.32 4.0744 2.16312 0
M  V30 13471 H 1219.57 3.86356 1.9726 0
M  V30 13472 H 1220.24 4.21101 3.569 0
M  V30 13473 H 1222.71 2.28635 3.47657 0
M  V30 13474 H 1221.59 2.63509 4.81512 0
M  V30 13475 H 1221.85 0.972263 4.31277 0
M  V30 13476 N 1220.91 -1.05686 1.16912 0
M  V30 13477 C 1222.16 -1.78597 0.954425 0
M  V30 13478 C 1222.49 -1.87494 -0.517315 0
M  V30 13479 O 1221.74 -1.36736 -1.40006 0
M  V30 13480 C 1222.04 -3.22779 1.53455 0
M  V30 13481 C 1221.71 -3.3395 3.02965 0
M  V30 13482 C 1220.37 -3.36706 3.43777 0
M  V30 13483 C 1222.72 -3.35371 3.98969 0
M  V30 13484 C 1220.05 -3.38506 4.79198 0
M  V30 13485 C 1222.4 -3.38708 5.34284 0
M  V30 13486 C 1221.06 -3.39749 5.74567 0
M  V30 13487 H 1220.33 -0.653534 0.349249 0
M  V30 13488 H 1222.98 -1.24245 1.45723 0
M  V30 13489 H 1221.29 -3.80025 0.953331 0
M  V30 13490 H 1222.98 -3.77805 1.34404 0
M  V30 13491 H 1219.57 -3.32515 2.70429 0
M  V30 13492 H 1223.76 -3.32447 3.685 0
M  V30 13493 H 1219.01 -3.37619 5.09729 0
M  V30 13494 H 1223.19 -3.38755 6.08455 0
M  V30 13495 H 1220.81 -3.40897 6.7948 0
M  V30 13496 N 1222.39 -0.968567 -1.24324 0
M  V30 13497 C 1223.3 -0.50703 -2.29055 0
M  V30 13498 C 1224.31 0.432431 -1.68541 0
M  V30 13499 O 1225.49 0.30526 -1.99073 0
M  V30 13500 C 1222.56 0.194589 -3.46153 0
M  V30 13501 C 1221.62 -0.784805 -4.22066 0
M  V30 13502 C 1220.85 -0.116574 -5.33573 0
M  V30 13503 O 1221.07 1.09492 -5.59792 0
M  V30 13504 O 1220.01 -0.809171 -5.96436 0
M  V30 13505 H 1223.83 -1.3777 -2.70653 0
M  V30 13506 H 1221.42 -0.735645 -1.30033 0
M  V30 13507 H 1223.3 0.588684 -4.17268 0
M  V30 13508 H 1221.97 1.04021 -3.06531 0
M  V30 13509 H 1220.88 -1.22938 -3.53323 0
M  V30 13510 H 1222.21 -1.59887 -4.65507 0
M  V30 13511 N 1223.87 1.39211 -0.738786 0
M  V30 13512 C 1225.11 2.02287 -0.293119 0
M  V30 13513 C 1225.47 1.57361 1.10006 0
M  V30 13514 O 1226.67 2.12663 1.64402 0
M  V30 13515 C 1224.94 3.55204 -0.395547 0
M  V30 13516 S 1226.5 4.3879 -0.0302798 0
M  V30 13517 H 1223.32 0.701702 -0.114609 0
M  V30 13518 H 1225.92 1.69959 -0.966138 0
M  V30 13519 H 1224.63 3.85392 -1.41072 0
M  V30 13520 H 1224.16 3.92291 0.295163 0
M  V30 13521 H 1226.17 4.81848 1.18478 0
M  V30 13522 N 1225.34 0.486708 1.49896 0
M  V30 13523 C 1226.57 -0.0600816 2.06813 0
M  V30 13524 C 1226.99 -1.32112 1.34877 0
M  V30 13525 O 1226.34 -1.77537 0.422725 0
M  V30 13526 C 1226.4 -0.332266 3.5997 0
M  V30 13527 O 1226.12 0.878771 4.29196 0
M  V30 13528 C 1227.62 -0.924289 4.33557 0
M  V30 13529 H 1224.84 0.0140611 0.670853 0
M  V30 13530 H 1227.38 0.67997 1.92864 0
M  V30 13531 H 1225.54 -1.02227 3.73669 0
M  V30 13532 H 1225.95 0.632873 5.20668 0
M  V30 13533 H 1227.42 -1.06441 5.4164 0
M  V30 13534 H 1227.9 -1.91844 3.95085 0
M  V30 13535 H 1228.51 -0.272189 4.24428 0
M  V30 13536 N 1226.82 -1.56058 0.219941 0
M  V30 13537 C 1227.75 -2.2321 -0.685547 0
M  V30 13538 C 1228.73 -1.20328 -1.20229 0
M  V30 13539 O 1229.92 -1.48909 -1.24659 0
M  V30 13540 C 1227.05 -2.91076 -1.89452 0
M  V30 13541 C 1226 -4.00415 -1.51169 0
M  V30 13542 C 1225.33 -4.55569 -2.79931 0
M  V30 13543 C 1226.63 -5.17549 -0.702896 0
M  V30 13544 H 1228.32 -2.99136 -0.125671 0
M  V30 13545 H 1225.87 -1.43879 -0.0590043 0
M  V30 13546 H 1227.82 -3.36744 -2.53341 0
M  V30 13547 H 1226.55 -2.12594 -2.47934 0
M  V30 13548 H 1225.21 -3.55475 -0.896275 0
M  V30 13549 H 1224.85 -3.73819 -3.36553 0
M  V30 13550 H 1224.55 -5.29361 -2.55049 0
M  V30 13551 H 1226.08 -5.03955 -3.44764 0
M  V30 13552 H 1227.49 -5.59608 -1.24544 0
M  V30 13553 H 1225.89 -5.97563 -0.551234 0
M  V30 13554 H 1226.96 -4.84027 0.29083 0
M  V30 13555 N 1228.3 0.053464 -1.57509 0
M  V30 13556 C 1229.25 1.08014 -2.05999 0
M  V30 13557 C 1230.24 1.38958 -0.968862 0
M  V30 13558 O 1231.45 1.3815 -1.15389 0
M  V30 13559 H 1227.82 0.36575 -0.657062 0
M  V30 13560 H 1229.8 0.645169 -2.91342 0
M  V30 13561 C 1228.54 2.38004 -2.53475 0
M  V30 13562 H 1227.87 2.15048 -3.37038 0
M  V30 13563 H 1229.31 3.08244 -2.91138 0
M  V30 13564 C 1227.77 3.05259 -1.42543 0
M  V30 13565 O 1228.3 3.94097 -0.777832 0
M  V30 13566 N 1226.5 2.66182 -1.16599 0
M  V30 13567 H 1226.05 1.94027 -1.69444 0
M  V30 13568 H 1226.01 3.11503 -0.42585 0
M  V30 13569 N 1229.78 1.54207 0.325255 0
M  V30 13570 C 1230.71 1.78318 1.42401 0
M  V30 13571 C 1231.69 0.633078 1.49769 0
M  V30 13572 O 1232.87 0.870324 1.67205 0
M  V30 13573 C 1230 1.89823 2.80509 0
M  V30 13574 C 1229.05 3.12102 2.9068 0
M  V30 13575 S 1229.88 4.70746 2.55262 0
M  V30 13576 C 1231.04 4.85154 3.95444 0
M  V30 13577 H 1231.27 2.71234 1.21736 0
M  V30 13578 H 1228.8 1.45309 0.521993 0
M  V30 13579 H 1230.76 1.97136 3.60066 0
M  V30 13580 H 1229.42 0.978873 2.98458 0
M  V30 13581 H 1228.61 3.16881 3.91921 0
M  V30 13582 H 1228.22 3.03109 2.19091 0
M  V30 13583 H 1230.51 4.67687 4.90178 0
M  V30 13584 H 1231.45 5.87254 3.95649 0
M  V30 13585 H 1231.86 4.13471 3.8432 0
M  V30 13586 N 1231.26 -0.58723 1.46251 0
M  V30 13587 C 1232.51 -1.34179 1.50595 0
M  V30 13588 C 1232.82 -1.94943 0.160171 0
M  V30 13589 O 1234.03 -2.71378 0.0813797 0
M  V30 13590 C 1232.48 -2.43159 2.65333 0
M  V30 13591 C 1232.09 -1.88718 4.06312 0
M  V30 13592 C 1233.83 -3.19986 2.78943 0
M  V30 13593 C 1231.74 -2.953 5.12398 0
M  V30 13594 H 1230.67 -0.504401 0.560442 0
M  V30 13595 H 1233.32 -0.627179 1.72449 0
M  V30 13596 H 1231.7 -3.17398 2.368 0
M  V30 13597 H 1232.88 -1.21051 4.44616 0
M  V30 13598 H 1231.19 -1.24572 3.97329 0
M  V30 13599 H 1233.79 -3.9952 3.5537 0
M  V30 13600 H 1234.13 -3.72288 1.86298 0
M  V30 13601 H 1234.67 -2.52852 3.07101 0
M  V30 13602 H 1231.4 -2.4789 6.0682 0
M  V30 13603 H 1230.92 -3.61469 4.78644 0
M  V30 13604 H 1232.6 -3.5933 5.38044 0
M  V30 13605 N 1232.74 -1.33881 -0.831482 0
M  V30 13606 C 1233.68 -1.24741 -1.96322 0
M  V30 13607 C 1234.68 -0.147251 -1.68759 0
M  V30 13608 O 1235.88 -0.311684 -1.77281 0
M  V30 13609 H 1232.26 -0.387298 -0.644596 0
M  V30 13610 H 1234.23 -2.20407 -2.01155 0
M  V30 13611 C 1232.98 -1.01102 -3.32677 0
M  V30 13612 H 1232.3 -1.84986 -3.54429 0
M  V30 13613 H 1233.74 -0.987398 -4.12343 0
M  V30 13614 C 1232.2 0.285903 -3.35685 0
M  V30 13615 O 1232.73 1.29014 -3.80419 0
M  V30 13616 N 1230.94 0.316026 -2.88877 0
M  V30 13617 H 1230.48 -0.501758 -2.52666 0
M  V30 13618 H 1230.44 1.18357 -2.91271 0
M  V30 13619 N 1234.21 1.05064 -1.1747 0
M  V30 13620 C 1235.16 2.12841 -0.89259 0
M  V30 13621 C 1236.13 1.65288 0.16402 0
M  V30 13622 O 1237.32 1.90782 0.026537 0
M  V30 13623 C 1234.46 3.42614 -0.41344 0
M  V30 13624 C 1233.57 4.03835 -1.53432 0
M  V30 13625 C 1232.7 5.21531 -1.00891 0
M  V30 13626 C 1231.74 5.74761 -2.10515 0
M  V30 13627 N 1230.88 6.83756 -1.59442 0
M  V30 13628 H 1235.72 2.36312 -1.81551 0
M  V30 13629 H 1233.26 1.15929 -0.905483 0
M  V30 13630 H 1235.21 4.17035 -0.117181 0
M  V30 13631 H 1233.84 3.19323 0.472517 0
M  V30 13632 H 1232.9 3.2684 -1.94627 0
M  V30 13633 H 1234.21 4.3938 -2.36108 0
M  V30 13634 H 1233.36 6.03027 -0.666575 0
M  V30 13635 H 1232.1 4.87464 -0.151608 0
M  V30 13636 H 1231.11 4.91893 -2.45604 0
M  V30 13637 H 1232.33 6.10875 -2.96663 0
M  V30 13638 H 1230.28 6.51584 -0.759849 0
M  V30 13639 H 1230.19 7.18311 -2.35724 0
M  V30 13640 H 1231.46 7.68901 -1.28105 0
M  V30 13641 N 1235.69 0.975146 1.23809 0
M  V30 13642 C 1236.97 0.557725 1.8748 0
M  V30 13643 C 1237.35 -0.965164 1.87744 0
M  V30 13644 O 1236.7 -1.83966 1.35531 0
M  V30 13645 C 1236.91 1.15777 3.29236 0
M  V30 13646 C 1238.25 1.24726 4.05868 0
M  V30 13647 O 1239.28 1.11084 3.38436 0
M  V30 13648 O 1238.14 1.46373 5.26533 0
M  V30 13649 H 1235.23 0.187045 0.80557 0
M  V30 13650 H 1237.78 1.06989 1.31725 0
M  V30 13651 H 1236.55 2.20023 3.23583 0
M  V30 13652 H 1236.17 0.630103 3.92575 0
M  V30 13653 N 1237.17 -1.38817 0.746158 0
M  V30 13654 C 1238.42 -2.0028 0.299016 0
M  V30 13655 C 1238.74 -1.59221 -1.11709 0
M  V30 13656 O 1238 -0.817595 -1.77803 0
M  V30 13657 C 1238.3 -3.55571 0.361086 0
M  V30 13658 C 1237.96 -4.16317 1.73179 0
M  V30 13659 C 1236.63 -4.32622 2.10693 0
M  V30 13660 C 1238.98 -4.49905 2.63126 0
M  V30 13661 C 1236.31 -4.79808 3.3764 0
M  V30 13662 C 1238.66 -4.98504 3.89457 0
M  V30 13663 C 1237.32 -5.13016 4.27049 0
M  V30 13664 H 1236.59 -0.732877 0.109418 0
M  V30 13665 H 1239.24 -1.65977 0.955186 0
M  V30 13666 H 1237.54 -3.89966 -0.378655 0
M  V30 13667 H 1239.24 -4.01 -0.00319228 0
M  V30 13668 H 1235.83 -4.04035 1.43015 0
M  V30 13669 H 1240.02 -4.36916 2.3541 0
M  V30 13670 H 1235.27 -4.89229 3.66695 0
M  V30 13671 H 1239.45 -5.23464 4.59302 0
M  V30 13672 H 1237.07 -5.4934 5.25481 0
M  V30 13673 N 1238.65 -0.49465 -1.49636 0
M  V30 13674 C 1239.56 0.291881 -2.32777 0
M  V30 13675 C 1240.57 0.973468 -1.44221 0
M  V30 13676 O 1241.75 0.956252 -1.77251 0
M  V30 13677 C 1238.81 1.34609 -3.19502 0
M  V30 13678 C 1237.88 0.678611 -4.23903 0
M  V30 13679 C 1237.11 1.68259 -5.06483 0
M  V30 13680 O 1237.33 2.91176 -4.90482 0
M  V30 13681 O 1236.27 1.24141 -5.88959 0
M  V30 13682 H 1240.09 -0.388459 -3.01205 0
M  V30 13683 H 1237.68 -0.256086 -1.47189 0
M  V30 13684 H 1239.56 1.95617 -3.73245 0
M  V30 13685 H 1238.23 2.00947 -2.53775 0
M  V30 13686 H 1237.14 0.0289541 -3.74089 0
M  V30 13687 H 1238.47 0.0577817 -4.92166 0
M  V30 13688 N 1240.13 1.55939 -0.228214 0
M  V30 13689 C 1241.04 2.24213 0.690339 0
M  V30 13690 C 1242.05 1.25197 1.20838 0
M  V30 13691 O 1243.23 1.58026 1.24859 0
M  V30 13692 C 1240.29 2.91384 1.87873 0
M  V30 13693 C 1239.35 4.05761 1.40201 0
M  V30 13694 C 1238.59 4.6972 2.53376 0
M  V30 13695 O 1238.81 4.32687 3.71669 0
M  V30 13696 O 1237.74 5.58587 2.24198 0
M  V30 13697 H 1241.57 3.03383 0.138692 0
M  V30 13698 H 1239.15 1.494 0.00251504 0
M  V30 13699 H 1241.04 3.33758 2.57262 0
M  V30 13700 H 1239.71 2.15168 2.41835 0
M  V30 13701 H 1238.62 3.67943 0.675945 0
M  V30 13702 H 1239.95 4.83739 0.908691 0
M  V30 13703 N 1241.6 -0.0451101 1.57535 0
M  V30 13704 C 1242.83 -0.750231 1.92497 0
M  V30 13705 C 1243.24 -1.70268 0.824946 0
M  V30 13706 O 1242.59 -1.82511 -0.208656 0
M  V30 13707 C 1242.65 -1.57543 3.23141 0
M  V30 13708 C 1242.31 -0.789495 4.50129 0
M  V30 13709 C 1243.31 -0.0968367 5.1981 0
M  V30 13710 C 1240.99 -0.748776 4.96688 0
M  V30 13711 C 1242.99 0.626018 6.34318 0
M  V30 13712 C 1240.67 -0.0221652 6.11096 0
M  V30 13713 C 1241.67 0.664006 6.79765 0
M  V30 13714 O 1241.36 1.37885 7.91987 0
M  V30 13715 H 1241.09 -0.216895 0.64026 0
M  V30 13716 H 1243.65 -0.011558 2.05397 0
M  V30 13717 H 1241.88 -2.35754 3.06524 0
M  V30 13718 H 1243.57 -2.16168 3.4355 0
M  V30 13719 H 1244.33 -0.119429 4.84853 0
M  V30 13720 H 1240.21 -1.27235 4.43094 0
M  V30 13721 H 1243.75 1.16215 6.87852 0
M  V30 13722 H 1239.65 0.00240707 6.455 0
M  V30 13723 H 1240.42 1.29087 8.08257 0
M  V30 13724 N 1243.08 -1.54377 -0.317073 0
M  V30 13725 C 1244.49 -1.64062 -0.891105 0
M  V30 13726 C 1244.84 -0.538863 -1.88655 0
M  V30 13727 O 1243.97 0.32718 -2.13912 0
M  V30 13728 C 1244.56 -2.97395 -1.62302 0
M  V30 13729 C 1243.12 -3.09253 -2.14568 0
M  V30 13730 C 1242.27 -2.59664 -0.973146 0
M  V30 13731 H 1245.22 -1.58418 -0.0944829 0
M  V30 13732 H 1245.24 -2.87918 -2.48764 0
M  V30 13733 H 1244.75 -3.77562 -0.898268 0
M  V30 13734 H 1242.86 -2.33774 -2.90139 0
M  V30 13735 H 1242.97 -4.15159 -2.39123 0
M  V30 13736 H 1241.33 -2.15719 -1.35416 0
M  V30 13737 H 1242.12 -3.42294 -0.262611 0
M  V30 13738 N 1244.56 0.579466 -1.4656 0
M  V30 13739 C 1245.47 1.71609 -1.59961 0
M  V30 13740 C 1246.49 1.67162 -0.483002 0
M  V30 13741 O 1247.66 1.87012 -0.747561 0
M  V30 13742 C 1244.73 3.08114 -1.58954 0
M  V30 13743 C 1243.79 3.238 -2.81872 0
M  V30 13744 C 1243.02 4.53794 -2.80904 0
M  V30 13745 O 1243.24 5.37884 -1.89835 0
M  V30 13746 O 1242.18 4.72796 -3.72488 0
M  V30 13747 H 1246 1.6325 -2.56092 0
M  V30 13748 H 1243.59 0.746891 -1.2939 0
M  V30 13749 H 1245.47 3.8939 -1.611 0
M  V30 13750 H 1244.15 3.16903 -0.65984 0
M  V30 13751 H 1243.05 2.42006 -2.85279 0
M  V30 13752 H 1244.39 3.19904 -3.74062 0
M  V30 13753 N 1246.04 1.3432 0.824371 0
M  V30 13754 C 1246.99 1.22332 1.92403 0
M  V30 13755 C 1247.97 0.122709 1.60431 0
M  V30 13756 O 1249.16 0.352231 1.7346 0
M  V30 13757 C 1246.29 0.979497 3.2903 0
M  V30 13758 C 1245.38 2.12322 3.67124 0
M  V30 13759 N 1245.77 3.3743 3.76795 0
M  V30 13760 C 1244.07 2.03314 3.96963 0
M  V30 13761 C 1244.77 4.12532 4.10113 0
M  V30 13762 N 1243.75 3.41109 4.23256 0
M  V30 13763 H 1247.55 2.17143 1.98056 0
M  V30 13764 H 1245.06 1.26537 1.01795 0
M  V30 13765 H 1247.06 0.874525 4.07624 0
M  V30 13766 H 1245.72 0.0400611 3.24675 0
M  V30 13767 H 1246.73 3.72001 3.60327 0
M  V30 13768 H 1243.41 1.17118 4.00736 0
M  V30 13769 H 1244.8 5.20562 4.24811 0
M  V30 13770 N 1247.52 -1.0444 1.18026 0
M  V30 13771 C 1248.93 -1.29766 0.929143 0
M  V30 13772 C 1249.13 -1.97338 -0.407436 0
M  V30 13773 O 1248.19 -2.25166 -1.14265 0
M  V30 13774 C 1249.5 -2.16002 2.09197 0
M  V30 13775 C 1251.05 -2.29361 2.12985 0
M  V30 13776 C 1251.52 -3.18962 3.28675 0
M  V30 13777 N 1253.02 -3.26549 3.28512 0
M  V30 13778 C 1253.75 -3.96025 4.14671 0
M  V30 13779 N 1253.25 -4.67863 5.10956 0
M  V30 13780 N 1255.04 -3.92266 4.02597 0
M  V30 13781 H 1247.19 -0.58984 2.04046 0
M  V30 13782 H 1249.45 -0.322752 0.891367 0
M  V30 13783 H 1249.16 -1.73653 3.05839 0
M  V30 13784 H 1249.03 -3.16667 2.04943 0
M  V30 13785 H 1251.42 -2.70948 1.16924 0
M  V30 13786 H 1251.5 -1.28299 2.21298 0
M  V30 13787 H 1251.15 -2.78087 4.25006 0
M  V30 13788 H 1251.08 -4.20047 3.17598 0
M  V30 13789 H 1253.57 -2.75371 2.58804 0
M  V30 13790 H 1253.88 -5.1846 5.73079 0
M  V30 13791 H 1252.22 -4.6678 5.14919 0
M  V30 13792 H 1255.42 -3.35273 3.26665 0
M  V30 13793 H 1255.59 -4.4614 4.69961 0
M  V30 13794 N 1248.99 -0.981699 -1.2329 0
M  V30 13795 C 1250.22 -0.66937 -1.95773 0
M  V30 13796 C 1250.64 0.763898 -1.72656 0
M  V30 13797 O 1249.99 1.51418 -1.01876 0
M  V30 13798 C 1250.05 -0.951863 -3.48743 0
M  V30 13799 O 1249.77 -2.3288 -3.71078 0
M  V30 13800 C 1251.27 -0.655668 -4.38424 0
M  V30 13801 H 1248.49 -0.248545 -0.623271 0
M  V30 13802 H 1251.03 -1.31343 -1.56746 0
M  V30 13803 H 1249.19 -0.353787 -3.85781 0
M  V30 13804 H 1249.6 -2.41948 -4.65362 0
M  V30 13805 H 1251.07 -0.903683 -5.44553 0
M  V30 13806 H 1251.55 0.410269 -4.3728 0
M  V30 13807 H 1252.16 -1.23428 -4.06996 0
M  V30 13808 N 1250.47 1.3842 -0.753509 0
M  V30 13809 C 1251.42 2.32315 -0.115107 0
M  V30 13810 C 1252.41 1.54015 0.705398 0
M  V30 13811 O 1253.62 1.69546 0.604505 0
M  V30 13812 H 1250 0.751774 -0.0184276 0
M  V30 13813 H 1251.97 2.83763 -0.923094 0
M  V30 13814 C 1250.72 3.39206 0.763849 0
M  V30 13815 H 1250.04 3.99548 0.14187 0
M  V30 13816 H 1251.48 4.07312 1.17783 0
M  V30 13817 C 1249.94 2.77771 1.90643 0
M  V30 13818 O 1250.47 2.67073 3.00058 0
M  V30 13819 N 1248.67 2.35582 1.70145 0
M  V30 13820 H 1248.22 2.44483 0.811528 0
M  V30 13821 H 1248.18 1.9482 2.46764 0
M  V30 13822 N 1251.95 0.502579 1.49372 0
M  V30 13823 C 1253.2 -0.041381 2.02458 0
M  V30 13824 C 1253.53 -1.36848 1.38213 0
M  V30 13825 O 1252.78 -1.89003 0.507568 0
M  V30 13826 C 1253.08 -0.240835 3.56588 0
M  V30 13827 C 1252.75 1.00846 4.39478 0
M  V30 13828 C 1251.41 1.35091 4.61848 0
M  V30 13829 C 1253.76 1.8388 4.87686 0
M  V30 13830 C 1251.09 2.52318 5.29672 0
M  V30 13831 C 1253.44 3.00262 5.56799 0
M  V30 13832 C 1252.1 3.34885 5.77415 0
M  V30 13833 H 1251.37 -0.0151424 0.740845 0
M  V30 13834 H 1254.02 0.663056 1.79655 0
M  V30 13835 H 1252.33 -1.02781 3.78078 0
M  V30 13836 H 1254.02 -0.676194 3.95258 0
M  V30 13837 H 1250.61 0.731719 4.22308 0
M  V30 13838 H 1254.8 1.58738 4.7023 0
M  V30 13839 H 1250.05 2.79379 5.43836 0
M  V30 13840 H 1254.23 3.64927 5.93128 0
M  V30 13841 H 1251.85 4.25824 6.29744 0
M  V30 13842 N 1253.43 -1.55816 0.23648 0
M  V30 13843 C 1254.68 -1.98686 -0.391146 0
M  V30 13844 C 1255 -1.12443 -1.58703 0
M  V30 13845 O 1254.26 -0.172805 -1.94936 0
M  V30 13846 C 1254.56 -3.47039 -0.85434 0
M  V30 13847 C 1254.22 -4.50299 0.232651 0
M  V30 13848 C 1252.89 -4.78259 0.531218 0
M  V30 13849 C 1255.24 -5.1215 0.967027 0
M  V30 13850 C 1252.57 -5.65347 1.56842 0
M  V30 13851 C 1254.92 -6.00363 1.99367 0
M  V30 13852 C 1253.58 -6.2666 2.299 0
M  V30 13853 H 1252.85 -0.727045 -0.14313 0
M  V30 13854 H 1255.5 -1.88419 0.342125 0
M  V30 13855 H 1253.8 -3.54585 -1.66663 0
M  V30 13856 H 1255.5 -3.7759 -1.35005 0
M  V30 13857 H 1252.09 -4.28599 -0.0102014 0
M  V30 13858 H 1256.27 -4.90606 0.749609 0
M  V30 13859 H 1251.53 -5.83981 1.81043 0
M  V30 13860 H 1255.7 -6.47335 2.56769 0
M  V30 13861 H 1253.33 -6.93938 3.1041 0
M  V30 13862 N 1254.91 0.036755 -1.57557 0
M  V30 13863 C 1255.84 1.03939 -2.09091 0
M  V30 13864 C 1256.82 1.38196 -0.991761 0
M  V30 13865 O 1258 1.47214 -1.26656 0
M  V30 13866 C 1255.13 2.34263 -2.56394 0
M  V30 13867 C 1254.09 2.14269 -3.70504 0
M  V30 13868 C 1253.41 3.50286 -4.03985 0
M  V30 13869 C 1254.71 1.53514 -4.9923 0
M  V30 13870 H 1256.41 0.610429 -2.93111 0
M  V30 13871 H 1253.95 0.292183 -1.41005 0
M  V30 13872 H 1255.91 3.04727 -2.91066 0
M  V30 13873 H 1254.63 2.79205 -1.69447 0
M  V30 13874 H 1253.29 1.46239 -3.36169 0
M  V30 13875 H 1252.94 3.92861 -3.14116 0
M  V30 13876 H 1252.64 3.37735 -4.80842 0
M  V30 13877 H 1254.16 4.22124 -4.41184 0
M  V30 13878 H 1255.57 2.13885 -5.31908 0
M  V30 13879 H 1253.97 1.51561 -5.80646 0
M  V30 13880 H 1255.04 0.500126 -4.82314 0
M  V30 13881 N 1256.39 1.54543 0.308881 0
M  V30 13882 C 1257.32 1.87947 1.38557 0
M  V30 13883 C 1258.3 0.737622 1.53275 0
M  V30 13884 O 1259.48 0.992664 1.66913 0
M  V30 13885 C 1256.61 2.11982 2.75102 0
M  V30 13886 C 1255.57 3.2783 2.75158 0
M  V30 13887 C 1254.89 3.37266 4.14917 0
M  V30 13888 C 1256.19 4.65129 2.37598 0
M  V30 13889 H 1257.89 2.78123 1.1085 0
M  V30 13890 H 1255.43 1.3382 0.531808 0
M  V30 13891 H 1257.38 2.33935 3.50503 0
M  V30 13892 H 1256.11 1.18569 3.04317 0
M  V30 13893 H 1254.77 3.05787 2.02212 0
M  V30 13894 H 1254.42 2.41384 4.41296 0
M  V30 13895 H 1254.12 4.15135 4.15857 0
M  V30 13896 H 1255.64 3.61471 4.92109 0
M  V30 13897 H 1257.05 4.86865 3.02714 0
M  V30 13898 H 1255.45 5.45653 2.49765 0
M  V30 13899 H 1256.52 4.6638 1.32731 0
M  V30 13900 N 1257.86 -0.571685 1.46866 0
M  V30 13901 C 1258.79 -1.68994 1.61131 0
M  V30 13902 C 1259.77 -1.63728 0.461222 0
M  V30 13903 O 1260.96 -1.81574 0.688813 0
M  V30 13904 C 1258.09 -3.07638 1.61172 0
M  V30 13905 C 1257.04 -3.27742 2.75262 0
M  V30 13906 C 1256.37 -4.67025 2.60368 0
M  V30 13907 C 1257.67 -3.14511 4.16989 0
M  V30 13908 H 1259.36 -1.57311 2.54742 0
M  V30 13909 H 1256.91 -0.755382 1.22597 0
M  V30 13910 H 1258.86 -3.857 1.69744 0
M  V30 13911 H 1257.59 -3.20245 0.641122 0
M  V30 13912 H 1256.25 -2.52083 2.66176 0
M  V30 13913 H 1255.89 -4.76413 1.61368 0
M  V30 13914 H 1255.59 -4.81428 3.36899 0
M  V30 13915 H 1257.12 -5.47242 2.70848 0
M  V30 13916 H 1258.53 -3.82407 4.27128 0
M  V30 13917 H 1256.93 -3.40431 4.94193 0
M  V30 13918 H 1258 -2.11443 4.36371 0
M  V30 13919 N 1259.34 -1.34755 -0.817236 0
M  V30 13920 C 1260.27 -1.22648 -1.93624 0
M  V30 13921 C 1261.29 -0.152226 -1.62087 0
M  V30 13922 O 1262.48 -0.404578 -1.73855 0
M  V30 13923 C 1259.58 -0.863519 -3.27714 0
M  V30 13924 C 1258.75 -2.03394 -3.87233 0
M  V30 13925 C 1257.81 -1.64846 -4.99712 0
M  V30 13926 O 1256.83 -2.3658 -5.17705 0
M  V30 13927 N 1258.04 -0.565909 -5.77735 0
M  V30 13928 H 1260.8 -2.19051 -2.0454 0
M  V30 13929 H 1258.36 -1.27785 -0.994113 0
M  V30 13930 H 1260.35 -0.58733 -4.00415 0
M  V30 13931 H 1258.92 0.0104987 -3.12598 0
M  V30 13932 H 1258.14 -2.47454 -3.06856 0
M  V30 13933 H 1259.43 -2.81655 -4.23731 0
M  V30 13934 H 1258.83 0.030313 -5.65692 0
M  V30 13935 H 1257.39 -0.349467 -6.50862 0
M  V30 13936 N 1260.82 1.03812 -1.18578 0
M  V30 13937 C 1261.78 2.10049 -0.91718 0
M  V30 13938 C 1262.78 1.60498 0.0985122 0
M  V30 13939 O 1263.97 1.73674 -0.135213 0
M  V30 13940 C 1261.1 3.38813 -0.376599 0
M  V30 13941 H 1262.3 2.3531 -1.85927 0
M  V30 13942 H 1259.85 1.20277 -0.998156 0
M  V30 13943 H 1260.59 3.19216 0.571983 0
M  V30 13944 H 1260.37 3.76096 -1.10881 0
M  V30 13945 H 1261.86 4.17084 -0.207453 0
M  V30 13946 N 1262.3 0.988223 1.22768 0
M  V30 13947 C 1263.54 0.662441 1.91676 0
M  V30 13948 C 1263.88 -0.802931 1.76824 0
M  V30 13949 O 1263.15 -1.58011 1.13415 0
M  V30 13950 C 1263.43 1.06332 3.44043 0
M  V30 13951 C 1263.29 2.5869 3.67967 0
M  V30 13952 C 1264.61 0.613058 4.35809 0
M  V30 13953 H 1261.73 0.242132 0.69609 0
M  V30 13954 H 1264.37 1.23091 1.44736 0
M  V30 13955 H 1262.52 0.579623 3.84152 0
M  V30 13956 H 1264.19 3.14694 3.37291 0
M  V30 13957 H 1262.43 3.00971 3.12408 0
M  V30 13958 H 1263.1 2.8179 4.74656 0
M  V30 13959 H 1265.58 1.02846 4.0319 0
M  V30 13960 H 1264.46 0.921901 5.41103 0
M  V30 13961 H 1264.72 -0.48641 4.39416 0
M  V30 13962 N 1263.78 -1.38018 0.760839 0
M  V30 13963 C 1264.72 -2.32251 0.127425 0
M  V30 13964 C 1265.72 -1.54387 -0.69722 0
M  V30 13965 O 1266.92 -1.69864 -0.595505 0
M  V30 13966 H 1263.3 -0.751666 0.0224141 0
M  V30 13967 H 1265.27 -2.8327 0.93813 0
M  V30 13968 C 1264.02 -3.39606 -0.745849 0
M  V30 13969 H 1263.34 -3.99618 -0.120679 0
M  V30 13970 H 1264.78 -4.07931 -1.15621 0
M  V30 13971 C 1263.24 -2.78778 -1.89167 0
M  V30 13972 O 1263.77 -2.68661 -2.98637 0
M  V30 13973 N 1261.98 -2.36481 -1.68894 0
M  V30 13974 H 1261.52 -2.4491 -0.798551 0
M  V30 13975 H 1261.48 -1.96126 -2.45728 0
M  V30 13976 N 1265.25 -0.510493 -1.49103 0
M  V30 13977 C 1266.48 0.0293113 -2.07379 0
M  V30 13978 C 1266.9 1.29195 -1.36713 0
M  V30 13979 O 1266.26 1.76204 -0.426838 0
M  V30 13980 C 1266.31 0.25629 -3.59688 0
M  V30 13981 O 1265.41 1.32907 -3.90397 0
M  V30 13982 H 1264.75 -0.0304449 -0.663302 0
M  V30 13983 H 1267.28 -0.712832 -1.91781 0
M  V30 13984 H 1267.29 0.484915 -4.05108 0
M  V30 13985 H 1265.97 -0.666163 -4.1053 0
M  V30 13986 H 1264.55 1.08464 -3.56777 0
M  V30 13987 N 1266.73 1.55688 -0.24474 0
M  V30 13988 C 1267.68 2.17946 0.669596 0
M  V30 13989 C 1268.67 1.13468 1.14078 0
M  V30 13990 O 1269.86 1.39385 1.09091 0
M  V30 13991 C 1266.99 2.8808 1.86721 0
M  V30 13992 C 1266.07 3.99811 1.41463 0
M  V30 13993 N 1266.46 5.01261 0.676131 0
M  V30 13994 C 1264.76 4.12327 1.70008 0
M  V30 13995 C 1265.46 5.80017 0.442113 0
M  V30 13996 N 1264.44 5.34216 1.00569 0
M  V30 13997 H 1268.24 2.93739 0.0971953 0
M  V30 13998 H 1265.75 1.62332 -0.0469646 0
M  V30 13999 H 1267.75 3.31109 2.53322 0
M  V30 14000 H 1266.41 2.13789 2.44385 0
M  V30 14001 H 1267.42 5.1687 0.326459 0
M  V30 14002 H 1264.1 3.49206 2.28827 0
M  V30 14003 H 1265.49 6.71739 -0.14729 0
M  V30 14004 N 1268.21 -0.0283989 1.57574 0
M  V30 14005 C 1269.45 -0.723912 1.91151 0
M  V30 14006 C 1269.81 -1.72485 0.843381 0
M  V30 14007 O 1271.01 -2.46866 1.06351 0
M  V30 14008 C 1269.29 -1.37537 3.29876 0
M  V30 14009 S 1270.84 -2.09995 3.85289 0
M  V30 14010 H 1267.66 -0.239802 0.66934 0
M  V30 14011 H 1270.26 0.0214644 1.95488 0
M  V30 14012 H 1268.97 -0.633659 4.05479 0
M  V30 14013 H 1268.5 -2.15928 3.28844 0
M  V30 14014 H 1270.51 -3.37146 3.6407 0
M  V30 14015 N 1269.69 -1.54705 -0.300681 0
M  V30 14016 C 1270.93 -1.74001 -1.03585 0
M  V30 14017 C 1271.26 -0.525972 -1.87253 0
M  V30 14018 O 1270.52 0.492068 -1.89413 0
M  V30 14019 C 1270.82 -2.98173 -1.97047 0
M  V30 14020 C 1270.48 -4.31948 -1.29352 0
M  V30 14021 C 1269.14 -4.68312 -1.10623 0
M  V30 14022 C 1271.5 -5.14874 -0.809594 0
M  V30 14023 C 1268.82 -5.85181 -0.42185 0
M  V30 14024 C 1271.18 -6.32447 -0.138935 0
M  V30 14025 C 1269.84 -6.67473 0.0603129 0
M  V30 14026 H 1269.11 -0.636716 -0.379044 0
M  V30 14027 H 1271.76 -1.88963 -0.310697 0
M  V30 14028 H 1270.06 -2.77994 -2.76091 0
M  V30 14029 H 1271.76 -3.10297 -2.54001 0
M  V30 14030 H 1268.35 -4.0335 -1.44937 0
M  V30 14031 H 1272.53 -4.87278 -0.942006 0
M  V30 14032 H 1267.79 -6.10862 -0.256494 0
M  V30 14033 H 1271.96 -6.95973 0.243939 0
M  V30 14034 H 1269.59 -7.57887 0.592626 0
M  V30 14035 N 1271.17 0.563888 -1.47167 0
M  V30 14036 C 1272.58 1.14603 -1.47388 0
M  V30 14037 C 1272.93 1.94907 -0.224916 0
M  V30 14038 O 1272.05 2.05745 0.670672 0
M  V30 14039 C 1272.65 2.08501 -2.67044 0
M  V30 14040 C 1271.21 2.62 -2.70246 0
M  V30 14041 C 1270.35 1.38244 -2.40383 0
M  V30 14042 H 1273.31 0.350833 -1.54774 0
M  V30 14043 H 1273.33 2.92272 -2.43634 0
M  V30 14044 H 1272.84 1.50027 -3.57929 0
M  V30 14045 H 1270.94 3.24292 -1.83482 0
M  V30 14046 H 1271.05 3.0345 -3.70749 0
M  V30 14047 H 1269.42 1.68692 -1.90827 0
M  V30 14048 H 1270.2 0.815726 -3.33468 0
M  V30 14049 N 1272.64 1.35187 0.810078 0
M  V30 14050 C 1273.61 1.27698 1.90331 0
M  V30 14051 C 1274.61 0.189216 1.59683 0
M  V30 14052 O 1275.8 0.442689 1.68481 0
M  V30 14053 C 1272.93 0.974631 3.26671 0
M  V30 14054 H 1274.12 2.24902 1.98392 0
M  V30 14055 H 1271.68 1.1966 1.00554 0
M  V30 14056 H 1272.41 0.0063068 3.24299 0
M  V30 14057 H 1272.2 1.76158 3.50301 0
M  V30 14058 H 1273.69 0.947743 4.06703 0
M  V30 14059 N 1274.12 -1.03182 1.19127 0
M  V30 14060 C 1275.37 -1.76533 0.992093 0
M  V30 14061 C 1275.7 -1.88549 -0.477429 0
M  V30 14062 O 1274.95 -1.39675 -1.37074 0
M  V30 14063 C 1275.25 -3.19452 1.60267 0
M  V30 14064 C 1274.92 -3.27449 3.09981 0
M  V30 14065 C 1273.58 -3.29338 3.50841 0
M  V30 14066 C 1275.93 -3.26833 4.05992 0
M  V30 14067 C 1273.26 -3.28265 4.86271 0
M  V30 14068 C 1275.61 -3.27299 5.41348 0
M  V30 14069 C 1274.28 -3.27485 5.81644 0
M  V30 14070 H 1273.55 -0.645979 0.363033 0
M  V30 14071 H 1276.19 -1.21127 1.48326 0
M  V30 14072 H 1274.5 -3.77917 1.03372 0
M  V30 14073 H 1276.19 -3.74869 1.42388 0
M  V30 14074 H 1272.78 -3.26704 2.77421 0
M  V30 14075 H 1276.97 -3.24556 3.75469 0
M  V30 14076 H 1272.22 -3.26731 5.16775 0
M  V30 14077 H 1276.4 -3.25773 6.15504 0
M  V30 14078 H 1274.03 -3.26407 6.86558 0
M  V30 14079 N 1275.6 -0.99472 -1.22242 0
M  V30 14080 C 1276.53 -0.566499 -2.26524 0
M  V30 14081 C 1277.51 0.407541 -1.65146 0
M  V30 14082 O 1278.7 0.297777 -1.91903 0
M  V30 14083 C 1275.83 0.11786 -3.471 0
M  V30 14084 C 1274.78 -0.774908 -4.20927 0
M  V30 14085 C 1274.11 0.0424687 -5.34683 0
M  V30 14086 C 1275.41 -2.07263 -4.79416 0
M  V30 14087 H 1277.1 -1.43818 -2.62596 0
M  V30 14088 H 1274.65 -0.692971 -1.2623 0
M  V30 14089 H 1276.6 0.428842 -4.19212 0
M  V30 14090 H 1275.32 1.0241 -3.10129 0
M  V30 14091 H 1273.98 -1.06956 -3.50651 0
M  V30 14092 H 1273.63 0.949677 -4.93954 0
M  V30 14093 H 1273.33 -0.551867 -5.85003 0
M  V30 14094 H 1274.85 0.347504 -6.0961 0
M  V30 14095 H 1276.27 -1.82548 -5.4346 0
M  V30 14096 H 1274.67 -2.61594 -5.40082 0
M  V30 14097 H 1275.74 -2.75017 -3.99366 0
M  V30 14098 N 1277.08 1.37613 -0.768148 0
M  V30 14099 C 1278.04 2.28653 -0.158283 0
M  V30 14100 C 1279.04 1.47862 0.631936 0
M  V30 14101 O 1280.23 1.68124 0.456055 0
M  V30 14102 C 1277.36 3.31776 0.783435 0
M  V30 14103 H 1278.56 2.84094 -0.960772 0
M  V30 14104 H 1276.11 1.46818 -0.536116 0
M  V30 14105 H 1276.84 2.81452 1.61106 0
M  V30 14106 H 1276.63 3.91488 0.219016 0
M  V30 14107 H 1278.12 3.99816 1.20568 0
M  V30 14108 N 1278.56 0.518393 1.4883 0
M  V30 14109 C 1279.81 -0.0218436 2.01688 0
M  V30 14110 C 1280.12 -1.36421 1.40174 0
M  V30 14111 O 1281.32 -1.99214 1.84461 0
M  V30 14112 C 1279.78 -0.0893538 3.59789 0
M  V30 14113 C 1279.39 1.24741 4.30283 0
M  V30 14114 C 1281.13 -0.579032 4.20532 0
M  V30 14115 C 1279.04 1.14112 5.80286 0
M  V30 14116 H 1277.97 -0.0119353 0.753906 0
M  V30 14117 H 1280.62 0.660432 1.71203 0
M  V30 14118 H 1279 -0.836458 3.87065 0
M  V30 14119 H 1280.18 2.00917 4.14691 0
M  V30 14120 H 1278.49 1.67191 3.81361 0
M  V30 14121 H 1281.09 -0.676343 5.30405 0
M  V30 14122 H 1281.43 -1.58207 3.85067 0
M  V30 14123 H 1281.96 0.112046 3.97642 0
M  V30 14124 H 1278.7 2.11895 6.20307 0
M  V30 14125 H 1278.22 0.420535 5.98324 0
M  V30 14126 H 1279.9 0.826992 6.41693 0
M  V30 14127 N 1280.03 -1.55556 0.252993 0
M  V30 14128 C 1281.45 -1.85032 -0.249011 0
M  V30 14129 C 1281.8 -1.17488 -1.57134 0
M  V30 14130 O 1280.92 -0.455387 -2.11554 0
M  V30 14131 C 1281.52 -3.35682 -0.458589 0
M  V30 14132 C 1280.08 -3.65362 -0.90485 0
M  V30 14133 C 1279.22 -2.77296 0.0144927 0
M  V30 14134 H 1282.17 -1.51412 0.475394 0
M  V30 14135 H 1282.19 -3.57591 -1.30034 0
M  V30 14136 H 1281.71 -3.84814 0.503981 0
M  V30 14137 H 1279.81 -3.21713 -1.87967 0
M  V30 14138 H 1279.92 -4.73074 -0.757492 0
M  V30 14139 H 1278.28 -2.49785 -0.497954 0
M  V30 14140 H 1279.07 -3.29236 0.972546 0
M  V30 14141 N 1281.51 0.0200419 -1.57587 0
M  V30 14142 C 1282.92 0.565484 -1.7793 0
M  V30 14143 C 1283.27 1.75096 -0.885201 0
M  V30 14144 O 1282.4 2.16243 -0.0823831 0
M  V30 14145 C 1282.99 1.03263 -3.2268 0
M  V30 14146 C 1281.55 1.52352 -3.44189 0
M  V30 14147 C 1280.7 0.465637 -2.73363 0
M  V30 14148 H 1283.65 -0.206174 -1.57355 0
M  V30 14149 H 1283.67 1.89959 -3.2969 0
M  V30 14150 H 1283.18 0.169613 -3.87729 0
M  V30 14151 H 1281.29 2.40809 -2.84327 0
M  V30 14152 H 1281.4 1.5648 -4.52825 0
M  V30 14153 H 1279.76 0.922738 -2.37398 0
M  V30 14154 H 1280.55 -0.388068 -3.411 0
M  V30 14155 N 1282.99 1.54862 0.292472 0
M  V30 14156 C 1284.22 1.7855 1.04534 0
M  V30 14157 C 1284.63 0.549161 1.80637 0
M  V30 14158 O 1283.99 -0.481268 1.7604 0
M  V30 14159 C 1284.04 2.99849 2.01923 0
M  V30 14160 O 1283.76 4.18706 1.28907 0
M  V30 14161 C 1285.26 3.35991 2.8918 0
M  V30 14162 H 1282.48 0.595279 0.309652 0
M  V30 14163 H 1285.03 2.01834 0.329159 0
M  V30 14164 H 1283.18 2.78749 2.69032 0
M  V30 14165 H 1283.6 4.87151 1.94383 0
M  V30 14166 H 1285.07 4.24085 3.53349 0
M  V30 14167 H 1285.55 2.54524 3.57931 0
M  V30 14168 H 1286.15 3.59281 2.27591 0
M  V30 14169 N 1284.47 -0.556076 1.47464 0
M  V30 14170 C 1285.4 -1.67829 1.56096 0
M  V30 14171 C 1286.41 -1.56541 0.447077 0
M  V30 14172 O 1287.6 -1.63478 0.716739 0
M  V30 14173 C 1284.7 -3.06303 1.45023 0
M  V30 14174 C 1283.88 -3.43334 2.70999 0
M  V30 14175 C 1282.93 -4.60976 2.53746 0
M  V30 14176 O 1281.96 -4.65501 3.27564 0
M  V30 14177 N 1283.16 -5.5754 1.61647 0
M  V30 14178 H 1285.93 -1.6087 2.52865 0
M  V30 14179 H 1283.49 -0.74274 1.43857 0
M  V30 14180 H 1285.48 -3.82838 1.31214 0
M  V30 14181 H 1284.05 -3.07483 0.563311 0
M  V30 14182 H 1283.27 -2.56236 2.99561 0
M  V30 14183 H 1284.56 -3.64851 3.54629 0
M  V30 14184 H 1283.96 -5.56642 1.00827 0
M  V30 14185 H 1282.51 -6.33397 1.53789 0
M  V30 14186 N 1285.95 -1.35615 -0.802897 0
M  V30 14187 C 1287.19 -1.29094 -1.56016 0
M  V30 14188 C 1287.52 0.133617 -1.9404 0
M  V30 14189 O 1286.78 1.09975 -1.61876 0
M  V30 14190 C 1287.08 -2.14653 -2.8576 0
M  V30 14191 C 1286.74 -3.63395 -2.66936 0
M  V30 14192 C 1285.4 -4.03937 -2.61511 0
M  V30 14193 C 1287.76 -4.57758 -2.49212 0
M  V30 14194 C 1285.08 -5.37006 -2.36309 0
M  V30 14195 C 1287.44 -5.91029 -2.25539 0
M  V30 14196 C 1286.1 -6.30712 -2.18538 0
M  V30 14197 H 1285.37 -0.472387 -0.570904 0
M  V30 14198 H 1288.02 -1.67545 -0.92741 0
M  V30 14199 H 1286.32 -1.69095 -3.53432 0
M  V30 14200 H 1288.02 -2.06941 -3.43477 0
M  V30 14201 H 1284.61 -3.31224 -2.72009 0
M  V30 14202 H 1288.79 -4.27318 -2.52414 0
M  V30 14203 H 1284.05 -5.66748 -2.29361 0
M  V30 14204 H 1288.22 -6.63724 -2.10816 0
M  V30 14205 H 1285.85 -7.33753 -1.98772 0
M  V30 14206 N 1287.43 1.02549 -1.19673 0
M  V30 14207 C 1288.37 2.109 -0.937536 0
M  V30 14208 C 1289.34 1.65599 0.128923 0
M  V30 14209 O 1290.53 1.90795 -0.0139366 0
M  V30 14210 C 1287.67 3.4166 -0.48602 0
M  V30 14211 C 1286.78 4.0049 -1.61963 0
M  V30 14212 C 1285.92 5.19273 -1.11931 0
M  V30 14213 C 1284.95 5.70166 -2.22659 0
M  V30 14214 N 1284.09 6.80221 -1.73909 0
M  V30 14215 H 1288.93 2.32408 -1.86523 0
M  V30 14216 H 1286.47 1.13982 -0.929869 0
M  V30 14217 H 1288.43 4.16693 -0.205614 0
M  V30 14218 H 1287.06 3.20253 0.404678 0
M  V30 14219 H 1286.11 3.22638 -2.01516 0
M  V30 14220 H 1287.42 4.34273 -2.45374 0
M  V30 14221 H 1286.57 6.01478 -0.794336 0
M  V30 14222 H 1285.31 4.87033 -0.254972 0
M  V30 14223 H 1284.32 4.86572 -2.55983 0
M  V30 14224 H 1285.54 6.04444 -3.09554 0
M  V30 14225 H 1283.49 6.49826 -0.897889 0
M  V30 14226 H 1283.41 7.13149 -2.50907 0
M  V30 14227 H 1284.67 7.66011 -1.44386 0
M  V30 14228 N 1288.9 1.00119 1.21713 0
M  V30 14229 C 1289.83 0.578504 2.2622 0
M  V30 14230 C 1290.81 -0.398777 1.6536 0
M  V30 14231 O 1292 -0.287596 1.92059 0
M  V30 14232 C 1289.13 -0.0994508 3.47158 0
M  V30 14233 C 1288.08 0.79722 4.2051 0
M  V30 14234 C 1287.41 -0.0141125 5.34698 0
M  V30 14235 C 1288.71 2.09802 4.7831 0
M  V30 14236 H 1290.4 1.45208 2.6183 0
M  V30 14237 H 1287.95 0.699656 1.2586 0
M  V30 14238 H 1289.9 -0.406605 4.19434 0
M  V30 14239 H 1288.63 -1.00763 3.10667 0
M  V30 14240 H 1287.29 1.08814 3.50079 0
M  V30 14241 H 1286.93 -0.923468 4.9445 0
M  V30 14242 H 1286.63 0.582883 5.84702 0
M  V30 14243 H 1288.16 -0.31517 6.09786 0
M  V30 14244 H 1289.57 1.85427 5.42485 0
M  V30 14245 H 1287.97 2.64455 5.38687 0
M  V30 14246 H 1289.04 2.77132 3.97902 0
M  V30 14247 N 1290.38 -1.37203 0.775435 0
M  V30 14248 C 1291.63 -1.99897 0.341936 0
M  V30 14249 C 1291.96 -1.61414 -1.07978 0
M  V30 14250 O 1291.24 -0.862108 -1.7435 0
M  V30 14251 C 1291.52 -3.56755 0.489715 0
M  V30 14252 C 1291.37 -4.05135 1.95411 0
M  V30 14253 C 1292.69 -4.39978 -0.103779 0
M  V30 14254 H 1289.81 -0.726199 0.125717 0
M  V30 14255 H 1292.45 -1.62826 0.979167 0
M  V30 14256 H 1290.6 -3.88464 -0.0527684 0
M  V30 14257 H 1292.27 -3.83975 2.55658 0
M  V30 14258 H 1290.52 -3.57192 2.46164 0
M  V30 14259 H 1291.19 -5.14161 2.00855 0
M  V30 14260 H 1293.66 -4.14547 0.359134 0
M  V30 14261 H 1292.54 -5.48892 0.0297337 0
M  V30 14262 H 1292.8 -4.25658 -1.19448 0
M  V30 14263 N 1291.86 -0.526279 -1.48553 0
M  V30 14264 C 1292.79 0.227364 -2.3239 0
M  V30 14265 C 1293.77 0.93862 -1.41859 0
M  V30 14266 O 1294.96 0.925119 -1.70749 0
M  V30 14267 C 1292.09 1.277 -3.22971 0
M  V30 14268 C 1291.04 0.684107 -4.22497 0
M  V30 14269 C 1290.37 1.83612 -5.02186 0
M  V30 14270 C 1291.67 -0.341723 -5.21181 0
M  V30 14271 H 1293.36 -0.472486 -2.95648 0
M  V30 14272 H 1290.91 -0.228669 -1.42173 0
M  V30 14273 H 1292.86 1.81215 -3.80446 0
M  V30 14274 H 1291.58 2.00638 -2.57705 0
M  V30 14275 H 1290.24 0.170505 -3.66203 0
M  V30 14276 H 1289.89 2.55379 -4.33348 0
M  V30 14277 H 1289.59 1.44536 -5.69547 0
M  V30 14278 H 1291.11 2.37513 -5.62512 0
M  V30 14279 H 1292.53 0.106207 -5.73202 0
M  V30 14280 H 1290.92 -0.649673 -5.96573 0
M  V30 14281 H 1291.99 -1.2488 -4.68543 0
M  V30 14282 N 1293.34 1.5542 -0.261239 0
M  V30 14283 C 1294.61 1.91243 0.41056 0
M  V30 14284 C 1294.99 1.1838 1.74784 0
M  V30 14285 O 1294.34 0.306013 2.26442 0
M  V30 14286 C 1294.55 3.44404 0.56453 0
M  V30 14287 C 1295.9 4.15927 0.853827 0
M  V30 14288 O 1296.92 3.50222 0.649861 0
M  V30 14289 O 1295.78 5.32175 1.24308 0
M  V30 14290 H 1292.88 0.796491 0.222555 0
M  V30 14291 H 1295.42 1.66912 -0.306367 0
M  V30 14292 H 1294.2 3.89478 -0.377134 0
M  V30 14293 H 1293.82 3.74644 1.33145 0
M  V30 14294 N 1294.82 -0.0116844 1.57596 0
M  V30 14295 C 1296.04 -0.713924 1.94725 0
M  V30 14296 C 1296.47 -1.67157 0.862565 0
M  V30 14297 O 1295.82 -1.80401 -0.180308 0
M  V30 14298 C 1295.87 -1.43214 3.30941 0
M  V30 14299 O 1294.98 -2.5461 3.24419 0
M  V30 14300 H 1294.32 -0.190772 0.636005 0
M  V30 14301 H 1296.85 0.0380247 2.04565 0
M  V30 14302 H 1296.86 -1.79819 3.66237 0
M  V30 14303 H 1295.53 -0.729906 4.09445 0
M  V30 14304 H 1294.11 -2.20419 3.00782 0
M  V30 14305 N 1296.29 -1.55015 -0.284256 0
M  V30 14306 C 1297.54 -1.74297 -1.01506 0
M  V30 14307 C 1297.86 -0.545134 -1.8785 0
M  V30 14308 O 1299.06 -0.620118 -2.64323 0
M  V30 14309 C 1297.52 -3.08438 -1.85456 0
M  V30 14310 C 1297.13 -4.35753 -1.04034 0
M  V30 14311 C 1298.87 -3.37073 -2.58035 0
M  V30 14312 C 1296.78 -5.60938 -1.87358 0
M  V30 14313 H 1295.71 -0.649656 -0.382705 0
M  V30 14314 H 1298.36 -1.81484 -0.271239 0
M  V30 14315 H 1296.74 -2.95259 -2.63891 0
M  V30 14316 H 1297.91 -4.59816 -0.300954 0
M  V30 14317 H 1296.23 -4.14178 -0.429616 0
M  V30 14318 H 1298.83 -4.27806 -3.20759 0
M  V30 14319 H 1299.17 -2.56698 -3.27738 0
M  V30 14320 H 1299.7 -3.51299 -1.86638 0
M  V30 14321 H 1296.44 -6.44029 -1.22096 0
M  V30 14322 H 1295.96 -5.41035 -2.58923 0
M  V30 14323 H 1297.64 -5.98819 -2.44999 0
M  V30 14324 N 1297.77 0.548248 -1.47757 0
M  V30 14325 C 1299.02 1.30139 -1.54099 0
M  V30 14326 C 1299.33 1.9445 -0.2118 0
M  V30 14327 O 1300.54 2.71067 -0.153302 0
M  V30 14328 C 1299 2.36039 -2.71687 0
M  V30 14329 C 1298.6 1.77879 -4.11173 0
M  V30 14330 C 1300.35 3.12478 -2.87329 0
M  V30 14331 C 1298.25 2.81611 -5.20047 0
M  V30 14332 H 1297.18 0.489364 -0.573619 0
M  V30 14333 H 1299.84 0.581237 -1.74051 0
M  V30 14334 H 1298.22 3.11008 -2.45132 0
M  V30 14335 H 1299.39 1.09221 -4.47669 0
M  V30 14336 H 1297.71 1.13994 -4.00493 0
M  V30 14337 H 1300.3 3.89958 -3.65837 0
M  V30 14338 H 1300.65 3.67218 -1.96103 0
M  V30 14339 H 1301.18 2.4462 -3.13697 0
M  V30 14340 H 1297.92 2.31714 -6.13179 0
M  V30 14341 H 1297.44 3.48652 -4.88059 0
M  V30 14342 H 1299.12 3.44938 -5.47382 0
M  V30 14343 N 1299.25 1.36039 0.795694 0
M  V30 14344 C 1300.5 1.3112 1.55497 0
M  V30 14345 C 1300.85 -0.110471 1.92083 0
M  V30 14346 O 1300.14 -1.06352 1.59373 0
M  V30 14347 C 1300.34 2.16166 2.84617 0
M  V30 14348 C 1300.17 3.66459 2.60649 0
M  V30 14349 C 1298.94 4.35658 2.55989 0
M  V30 14350 C 1301.13 4.59866 2.30277 0
M  V30 14351 N 1299.12 5.71632 2.23852 0
M  V30 14352 C 1300.49 5.84042 2.08074 0
M  V30 14353 C 1302.54 4.48496 2.16231 0
M  V30 14354 C 1301.25 6.98125 1.73246 0
M  V30 14355 C 1303.27 5.62439 1.82801 0
M  V30 14356 C 1302.63 6.8565 1.61441 0
M  V30 14357 H 1298.73 0.53507 0.570284 0
M  V30 14358 H 1301.32 1.71029 0.930441 0
M  V30 14359 H 1299.49 1.78511 3.44947 0
M  V30 14360 H 1301.22 2.02684 3.50288 0
M  V30 14361 H 1297.97 3.8839 2.71017 0
M  V30 14362 H 1298.4 6.43428 2.10547 0
M  V30 14363 H 1303.04 3.53831 2.31437 0
M  V30 14364 H 1300.76 7.92746 1.56777 0
M  V30 14365 H 1304.34 5.556 1.72626 0
M  V30 14366 H 1303.22 7.72325 1.35953 0
M  V30 14367 N 1300.73 -1.01913 1.20215 0
M  V30 14368 C 1301.69 -2.08563 0.950481 0
M  V30 14369 C 1302.69 -1.60634 -0.0729659 0
M  V30 14370 O 1303.88 -1.73437 0.162826 0
M  V30 14371 C 1301.01 -3.38171 0.430453 0
M  V30 14372 H 1302.21 -2.32323 1.89647 0
M  V30 14373 H 1299.76 -1.18674 1.01716 0
M  V30 14374 H 1300.49 -3.20086 -0.521126 0
M  V30 14375 H 1300.28 -3.74284 1.1685 0
M  V30 14376 H 1301.77 -4.16702 0.273781 0
M  V30 14377 N 1302.21 -1.00763 -1.2118 0
M  V30 14378 C 1303.45 -0.691826 -1.90316 0
M  V30 14379 C 1303.78 0.777678 -1.78276 0
M  V30 14380 O 1303.04 1.57962 -1.15526 0
M  V30 14381 C 1303.34 -1.06187 -3.41261 0
M  V30 14382 C 1303 -2.52608 -3.73497 0
M  V30 14383 C 1301.66 -2.92617 -3.82006 0
M  V30 14384 C 1304.02 -3.47442 -3.88502 0
M  V30 14385 C 1301.34 -4.26419 -4.02969 0
M  V30 14386 C 1303.7 -4.8092 -4.10973 0
M  V30 14387 C 1302.36 -5.20649 -4.17709 0
M  V30 14388 H 1301.63 -0.253157 -0.696414 0
M  V30 14389 H 1304.28 -1.26655 -1.43634 0
M  V30 14390 H 1302.58 -0.405428 -3.89697 0
M  V30 14391 H 1304.28 -0.795343 -3.93033 0
M  V30 14392 H 1300.87 -2.20603 -3.67468 0
M  V30 14393 H 1305.05 -3.17695 -3.81292 0
M  V30 14394 H 1300.31 -4.56767 -4.06416 0
M  V30 14395 H 1304.48 -5.54337 -4.21525 0
M  V30 14396 H 1302.11 -6.24343 -4.33705 0
M  V30 14397 N 1303.68 1.3679 -0.7827 0
M  V30 14398 C 1304.63 2.30139 -0.174595 0
M  V30 14399 C 1305.6 1.51645 0.677714 0
M  V30 14400 O 1306.79 1.80176 0.627796 0
M  V30 14401 C 1303.93 3.38133 0.689936 0
M  V30 14402 C 1303.04 4.31624 -0.180179 0
M  V30 14403 C 1302.17 5.26698 0.69009 0
M  V30 14404 C 1301.21 6.1183 -0.181891 0
M  V30 14405 N 1300.35 6.99113 0.646977 0
M  V30 14406 H 1305.19 2.81559 -0.97613 0
M  V30 14407 H 1302.73 1.38595 -0.492944 0
M  V30 14408 H 1304.69 3.99386 1.2061 0
M  V30 14409 H 1303.32 2.88049 1.45696 0
M  V30 14410 H 1302.37 3.71583 -0.81425 0
M  V30 14411 H 1303.68 4.91464 -0.852337 0
M  V30 14412 H 1302.83 5.93209 1.27232 0
M  V30 14413 H 1301.57 4.67297 1.3959 0
M  V30 14414 H 1300.58 5.44288 -0.776572 0
M  V30 14415 H 1301.8 6.73306 -0.885195 0
M  V30 14416 H 1299.75 6.42227 1.3372 0
M  V30 14417 H 1299.67 7.55993 0.0323547 0
M  V30 14418 H 1300.93 7.7 1.21325 0
M  V30 14419 N 1305.16 0.53415 1.48272 0
M  V30 14420 C 1306.11 -0.246268 2.26666 0
M  V30 14421 C 1307.1 -0.906149 1.32958 0
M  V30 14422 O 1308.29 -0.808266 1.57468 0
M  V30 14423 C 1305.42 -1.29001 3.18141 0
M  V30 14424 C 1304.5 -0.634704 4.19324 0
M  V30 14425 N 1304.89 0.281972 5.05013 0
M  V30 14426 C 1303.19 -0.891412 4.37001 0
M  V30 14427 C 1303.89 0.660411 5.77939 0
M  V30 14428 N 1302.87 0.0205295 5.43596 0
M  V30 14429 H 1306.67 0.458881 2.90296 0
M  V30 14430 H 1304.19 0.352466 1.58529 0
M  V30 14431 H 1306.18 -1.86285 3.72966 0
M  V30 14432 H 1304.84 -1.99649 2.56067 0
M  V30 14433 H 1305.85 0.654819 5.13744 0
M  V30 14434 H 1302.53 -1.58815 3.86114 0
M  V30 14435 H 1303.92 1.41231 6.56889 0
M  V30 14436 N 1306.64 -1.55279 0.269478 0
M  V30 14437 C 1307.87 -2.03876 -0.352418 0
M  V30 14438 C 1308.28 -1.14804 -1.49885 0
M  V30 14439 O 1307.64 -0.166989 -1.81734 0
M  V30 14440 C 1307.69 -3.51634 -0.838799 0
M  V30 14441 O 1307.41 -4.37316 0.261972 0
M  V30 14442 C 1308.91 -4.16094 -1.52909 0
M  V30 14443 H 1306.13 -0.66608 -0.0811043 0
M  V30 14444 H 1308.68 -2.00551 0.399929 0
M  V30 14445 H 1306.83 -3.55421 -1.54125 0
M  V30 14446 H 1307.25 -5.24383 -0.111013 0
M  V30 14447 H 1308.72 -5.21102 -1.82089 0
M  V30 14448 H 1309.2 -3.63928 -2.45872 0
M  V30 14449 H 1309.8 -4.16293 -0.87063 0
M  V30 14450 N 1308.12 0.00332656 -1.576 0
M  V30 14451 C 1309.05 1.02964 -2.03651 0
M  V30 14452 C 1310.03 1.33675 -0.925724 0
M  V30 14453 O 1311.21 1.45896 -1.19359 0
M  V30 14454 C 1308.34 2.35808 -2.4313 0
M  V30 14455 C 1307.39 2.20781 -3.64908 0
M  V30 14456 S 1308.22 1.53697 -5.12969 0
M  V30 14457 C 1309.38 2.87978 -5.55715 0
M  V30 14458 H 1309.61 0.637508 -2.90384 0
M  V30 14459 H 1307.14 0.214095 -1.52908 0
M  V30 14460 H 1309.1 3.12193 -2.66544 0
M  V30 14461 H 1307.76 2.72162 -1.56802 0
M  V30 14462 H 1306.95 3.1891 -3.90272 0
M  V30 14463 H 1306.56 1.5254 -3.41478 0
M  V30 14464 H 1308.85 3.84283 -5.57972 0
M  V30 14465 H 1309.79 2.67318 -6.55703 0
M  V30 14466 H 1310.2 2.91735 -4.83271 0
M  V30 14467 N 1309.6 1.55164 0.276031 0
M  V30 14468 C 1311.01 1.46936 0.623061 0
M  V30 14469 C 1311.21 0.680977 1.89644 0
M  V30 14470 O 1310.27 0.198618 2.51718 0
M  V30 14471 C 1311.58 2.91123 0.752839 0
M  V30 14472 C 1313.13 3.01319 0.847093 0
M  V30 14473 C 1313.6 4.46755 1.00867 0
M  V30 14474 N 1315.1 4.5057 1.07427 0
M  V30 14475 C 1315.83 5.60314 1.21804 0
M  V30 14476 N 1315.33 6.7993 1.32919 0
M  V30 14477 N 1317.12 5.4805 1.2489 0
M  V30 14478 H 1309.27 2.04877 -0.560282 0
M  V30 14479 H 1311.53 0.928925 -0.189217 0
M  V30 14480 H 1311.24 3.51521 -0.112333 0
M  V30 14481 H 1311.11 3.39967 1.63408 0
M  V30 14482 H 1313.5 2.41021 1.70274 0
M  V30 14483 H 1313.58 2.55733 -0.0586896 0
M  V30 14484 H 1313.23 5.07655 0.1577 0
M  V30 14485 H 1313.16 4.89995 1.92906 0
M  V30 14486 H 1315.65 3.64404 1.00089 0
M  V30 14487 H 1315.96 7.59319 1.43714 0
M  V30 14488 H 1314.3 6.82747 1.29929 0
M  V30 14489 H 1317.5 4.53542 1.15834 0
M  V30 14490 H 1317.67 6.33621 1.3575 0
M  V30 14491 N 1311.07 -0.540404 1.48045 0
M  V30 14492 C 1312.02 -1.66695 1.62221 0
M  V30 14493 C 1313.02 -1.6219 0.488943 0
M  V30 14494 O 1314.22 -1.67173 0.66732 0
M  V30 14495 H 1310.6 -0.551868 0.510828 0
M  V30 14496 H 1312.57 -1.51879 2.56856 0
M  V30 14497 C 1311.32 -3.05002 1.6694 0
M  V30 14498 H 1310.64 -3.09157 2.53499 0
M  V30 14499 H 1312.08 -3.8347 1.80904 0
M  V30 14500 C 1310.54 -3.34445 0.40598 0
M  V30 14501 O 1311.07 -3.98753 -0.485676 0
M  V30 14502 N 1309.28 -2.8924 0.280857 0
M  V30 14503 H 1308.82 -2.37085 1.00741 0
M  V30 14504 H 1308.78 -3.09309 -0.563493 0
M  V30 14505 N 1312.55 -1.36459 -0.788468 0
M  V30 14506 C 1313.8 -1.30935 -1.54867 0
M  V30 14507 C 1314.13 0.110916 -1.93883 0
M  V30 14508 O 1313.41 1.06452 -1.62783 0
M  V30 14509 C 1313.69 -2.23294 -2.8251 0
M  V30 14510 C 1313.54 -3.74022 -2.49856 0
M  V30 14511 C 1314.86 -2.14407 -3.84341 0
M  V30 14512 H 1311.98 -0.476958 -0.561854 0
M  V30 14513 H 1314.62 -1.67018 -0.905805 0
M  V30 14514 H 1312.77 -1.92652 -3.37369 0
M  V30 14515 H 1314.44 -4.15187 -2.01041 0
M  V30 14516 H 1312.69 -3.93411 -1.82785 0
M  V30 14517 H 1313.36 -4.34057 -3.41026 0
M  V30 14518 H 1315.83 -2.41381 -3.38932 0
M  V30 14519 H 1314.71 -2.81199 -4.71401 0
M  V30 14520 H 1314.97 -1.13166 -4.27371 0
M  V30 14521 N 1314.03 1.01274 -1.20754 0
M  V30 14522 C 1314.99 2.08056 -0.961528 0
M  V30 14523 C 1315.99 1.60671 0.0644461 0
M  V30 14524 O 1317.18 1.73349 -0.172022 0
M  V30 14525 C 1314.32 3.37938 -0.448381 0
M  V30 14526 H 1315.51 2.31314 -1.90877 0
M  V30 14527 H 1313.06 1.18133 -1.02344 0
M  V30 14528 H 1313.8 3.20357 0.504144 0
M  V30 14529 H 1313.58 3.73659 -1.18833 0
M  V30 14530 H 1315.07 4.16551 -0.295876 0
M  V30 14531 N 1315.51 1.01404 1.20644 0
M  V30 14532 C 1316.79 0.617088 1.85611 0
M  V30 14533 C 1317.17 -0.904947 1.9072 0
M  V30 14534 O 1316.51 -1.79562 1.41315 0
M  V30 14535 C 1316.72 1.26193 3.25386 0
M  V30 14536 C 1318.07 1.37575 4.01694 0
M  V30 14537 O 1319.1 1.21795 3.34731 0
M  V30 14538 O 1317.96 1.6305 5.2161 0
M  V30 14539 H 1315.05 0.212579 0.799211 0
M  V30 14540 H 1317.6 1.11126 1.28254 0
M  V30 14541 H 1316.37 2.30206 3.16419 0
M  V30 14542 H 1315.99 0.754679 3.90372 0
M  V30 14543 N 1316.99 -1.36373 0.789944 0
M  V30 14544 C 1318.22 -2.03482 0.37453 0
M  V30 14545 C 1318.63 -1.59562 -1.00923 0
M  V30 14546 O 1317.99 -0.785289 -1.64741 0
M  V30 14547 C 1318.04 -3.58942 0.429255 0
M  V30 14548 O 1317.76 -4.01261 1.75845 0
M  V30 14549 C 1319.26 -4.433 0.00453729 0
M  V30 14550 H 1316.48 -0.653019 0.154295 0
M  V30 14551 H 1319.02 -1.74339 1.06894 0
M  V30 14552 H 1317.18 -3.86793 -0.21674 0
M  V30 14553 H 1317.59 -4.95854 1.70964 0
M  V30 14554 H 1319.07 -5.5192 0.0939653 0
M  V30 14555 H 1319.54 -4.26509 -1.04816 0
M  V30 14556 H 1320.15 -4.20712 0.623041 0
M  V30 14557 N 1318.47 -0.542005 -1.47987 0
M  V30 14558 C 1319.71 -0.0122873 -2.02096 0
M  V30 14559 C 1320.03 1.3362 -1.42024 0
M  V30 14560 O 1319.3 1.86807 -0.589911 0
M  V30 14561 H 1317.88 -0.00155365 -0.746998 0
M  V30 14562 H 1320.55 -0.708566 -1.81564 0
M  V30 14563 H 1319.64 0.0871275 -3.11978 0
M  V30 14564 N 1319.94 1.55134 -0.277709 0
M  V30 14565 C 1320.87 2.256 0.602232 0
M  V30 14566 C 1321.85 1.24708 1.15681 0
M  V30 14567 O 1323.04 1.53433 1.19046 0
M  V30 14568 C 1320.17 2.97907 1.78519 0
M  V30 14569 C 1319.12 4.0575 1.36203 0
M  V30 14570 C 1318.45 4.65644 2.62829 0
M  V30 14571 C 1319.75 5.19801 0.510327 0
M  V30 14572 H 1321.44 2.99396 0.0145622 0
M  V30 14573 H 1318.99 1.43999 0.00556389 0
M  V30 14574 H 1320.94 3.45915 2.40668 0
M  V30 14575 H 1319.67 2.21649 2.39873 0
M  V30 14576 H 1318.33 3.58557 0.763726 0
M  V30 14577 H 1317.97 3.86053 3.22447 0
M  V30 14578 H 1317.67 5.38463 2.35227 0
M  V30 14579 H 1319.2 5.16403 3.25823 0
M  V30 14580 H 1320.61 5.63845 1.03689 0
M  V30 14581 H 1319.01 5.99197 0.329073 0
M  V30 14582 H 1320.08 4.82614 -0.470273 0
M  V30 14583 N 1321.42 0.00503138 1.57599 0
M  V30 14584 C 1322.35 -1.01302 2.05598 0
M  V30 14585 C 1323.37 -1.30388 0.974829 0
M  V30 14586 O 1324.56 -1.27275 1.25153 0
M  V30 14587 C 1321.66 -2.34654 2.44522 0
M  V30 14588 C 1320.83 -2.24436 3.7543 0
M  V30 14589 C 1319.89 -3.40517 4.01166 0
M  V30 14590 O 1318.91 -3.18479 4.71762 0
M  V30 14591 N 1320.12 -4.63532 3.49454 0
M  V30 14592 H 1322.88 -0.603656 2.93558 0
M  V30 14593 H 1320.44 -0.182248 1.60871 0
M  V30 14594 H 1322.43 -3.11093 2.5885 0
M  V30 14595 H 1321 -2.67315 1.62055 0
M  V30 14596 H 1320.22 -1.32875 3.71131 0
M  V30 14597 H 1321.51 -2.14786 4.61242 0
M  V30 14598 H 1320.91 -4.84334 2.92296 0
M  V30 14599 H 1319.47 -5.37221 3.69103 0
M  V30 14600 N 1322.9 -1.55308 -0.267798 0
M  V30 14601 C 1324.15 -1.75364 -0.996515 0
M  V30 14602 C 1324.46 -0.565028 -1.87261 0
M  V30 14603 O 1325.67 -0.648119 -2.63651 0
M  V30 14604 C 1324.12 -3.10388 -1.82175 0
M  V30 14605 C 1323.73 -4.36832 -0.994062 0
M  V30 14606 C 1325.48 -3.39791 -2.54445 0
M  V30 14607 C 1323.38 -5.62893 -1.81398 0
M  V30 14608 H 1322.31 -0.653679 -0.375793 0
M  V30 14609 H 1324.96 -1.81762 -0.251975 0
M  V30 14610 H 1323.35 -2.98041 -2.60744 0
M  V30 14611 H 1324.52 -4.6011 -0.252167 0
M  V30 14612 H 1322.83 -4.1461 -0.385662 0
M  V30 14613 H 1325.43 -4.31184 -3.16203 0
M  V30 14614 H 1325.77 -2.60159 -3.24997 0
M  V30 14615 H 1326.31 -3.53259 -1.82902 0
M  V30 14616 H 1323.05 -6.45287 -1.15258 0
M  V30 14617 H 1322.57 -5.43751 -2.5317 0
M  V30 14618 H 1324.25 -6.01384 -2.38634 0
M  V30 14619 N 1324.38 0.532545 -1.4833 0
M  V30 14620 C 1325.31 1.64662 -1.65555 0
M  V30 14621 C 1326.29 1.62447 -0.50447 0
M  V30 14622 O 1327.47 1.79684 -0.736712 0
M  V30 14623 C 1324.6 3.03256 -1.69272 0
M  V30 14624 C 1323.56 3.20329 -2.83854 0
M  V30 14625 C 1322.88 4.59958 -2.72659 0
M  V30 14626 C 1324.18 3.03345 -4.25181 0
M  V30 14627 H 1325.88 1.50502 -2.58823 0
M  V30 14628 H 1323.42 0.722612 -1.24556 0
M  V30 14629 H 1325.38 3.81064 -1.79911 0
M  V30 14630 H 1324.1 3.18433 -0.725805 0
M  V30 14631 H 1322.76 2.44937 -2.72766 0
M  V30 14632 H 1322.41 4.71967 -1.73942 0
M  V30 14633 H 1322.11 4.72327 -3.49544 0
M  V30 14634 H 1323.63 5.39869 -2.85262 0
M  V30 14635 H 1325.05 3.70948 -4.37116 0
M  V30 14636 H 1323.44 3.27208 -5.03045 0
M  V30 14637 H 1324.51 1.998 -4.41824 0
M  V30 14638 N 1325.86 1.36875 0.78122 0
M  V30 14639 C 1327.1 1.31559 1.53943 0
M  V30 14640 C 1327.43 -0.10273 1.94229 0
M  V30 14641 O 1326.69 -1.07386 1.63605 0
M  V30 14642 C 1326.98 2.19173 2.82309 0
M  V30 14643 C 1326.65 3.67595 2.61121 0
M  V30 14644 C 1325.31 4.08047 2.55051 0
M  V30 14645 C 1327.66 4.61665 2.41898 0
M  V30 14646 C 1324.99 5.40697 2.27736 0
M  V30 14647 C 1327.34 5.94542 2.16108 0
M  V30 14648 C 1326.01 6.34109 2.08476 0
M  V30 14649 H 1325.28 0.48141 0.563317 0
M  V30 14650 H 1327.93 1.68999 0.900638 0
M  V30 14651 H 1326.23 1.74696 3.50697 0
M  V30 14652 H 1327.93 2.12379 3.40141 0
M  V30 14653 H 1324.52 3.35509 2.66705 0
M  V30 14654 H 1328.7 4.3128 2.45584 0
M  V30 14655 H 1323.96 5.70325 2.20315 0
M  V30 14656 H 1328.13 6.66994 2.0023 0
M  V30 14657 H 1325.76 7.36823 1.87073 0
M  V30 14658 N 1327.33 -1.00632 1.21289 0
M  V30 14659 C 1328.56 -1.77967 1.05524 0
M  V30 14660 C 1328.98 -1.84621 -0.395023 0
M  V30 14661 O 1328.33 -1.30664 -1.27409 0
M  V30 14662 C 1328.38 -3.21939 1.64432 0
M  V30 14663 O 1328.11 -3.15669 3.03784 0
M  V30 14664 C 1329.61 -4.1578 1.5376 0
M  V30 14665 H 1326.83 -0.559341 0.370646 0
M  V30 14666 H 1329.37 -1.26604 1.60598 0
M  V30 14667 H 1327.53 -3.70415 1.13453 0
M  V30 14668 H 1327.94 -4.06112 3.31924 0
M  V30 14669 H 1329.41 -5.14602 1.99722 0
M  V30 14670 H 1329.89 -4.36438 0.491811 0
M  V30 14671 H 1330.5 -3.73192 2.0398 0
M  V30 14672 N 1328.81 -1.02043 -1.20104 0
M  V30 14673 C 1329.74 -0.614421 -2.25271 0
M  V30 14674 C 1330.72 0.37242 -1.65973 0
M  V30 14675 O 1331.91 0.257005 -1.92492 0
M  V30 14676 C 1329.04 0.0442085 -3.47272 0
M  V30 14677 C 1327.99 -0.864019 -4.19188 0
M  V30 14678 C 1327.32 -0.0709551 -5.34653 0
M  V30 14679 C 1328.62 -2.17385 -4.74912 0
M  V30 14680 H 1330.31 -1.49355 -2.59487 0
M  V30 14681 H 1327.86 -0.719591 -1.24731 0
M  V30 14682 H 1329.81 0.339825 -4.20028 0
M  V30 14683 H 1328.53 0.958082 -3.12231 0
M  V30 14684 H 1327.19 -1.1437 -3.48303 0
M  V30 14685 H 1326.84 0.844688 -4.95857 0
M  V30 14686 H 1326.54 -0.67583 -5.83701 0
M  V30 14687 H 1328.07 0.218118 -6.1021 0
M  V30 14688 H 1329.48 -1.94034 -5.39466 0
M  V30 14689 H 1327.88 -2.72991 -5.34412 0
M  V30 14690 H 1328.95 -2.83427 -3.93443 0
M  V30 14691 N 1330.29 1.35952 -0.797165 0
M  V30 14692 C 1331.22 2.32506 -0.215277 0
M  V30 14693 C 1332.2 1.57023 0.654046 0
M  V30 14694 O 1333.39 1.85139 0.586268 0
M  V30 14695 C 1330.52 3.41266 0.644557 0
M  V30 14696 C 1329.47 4.27816 -0.125501 0
M  V30 14697 C 1328.8 5.27813 0.855428 0
M  V30 14698 C 1330.1 5.05367 -1.31913 0
M  V30 14699 H 1331.79 2.8142 -1.02193 0
M  V30 14700 H 1329.34 1.35303 -0.492862 0
M  V30 14701 H 1331.29 4.07808 1.06163 0
M  V30 14702 H 1330.01 2.90938 1.484 0
M  V30 14703 H 1328.67 3.62841 -0.523639 0
M  V30 14704 H 1328.32 4.73755 1.69011 0
M  V30 14705 H 1328.02 5.86589 0.344566 0
M  V30 14706 H 1329.54 5.97227 1.2709 0
M  V30 14707 H 1330.96 5.64907 -0.977418 0
M  V30 14708 H 1329.36 5.73593 -1.76382 0
M  V30 14709 H 1330.43 4.36558 -2.11057 0
M  V30 14710 N 1331.77 0.549846 1.47697 0
M  V30 14711 C 1332.7 -0.239345 2.27947 0
M  V30 14712 C 1333.71 -0.886206 1.36566 0
M  V30 14713 O 1334.9 -0.761298 1.61451 0
M  V30 14714 C 1332 -1.35591 3.10593 0
M  V30 14715 C 1331.18 -0.807234 4.29887 0
M  V30 14716 C 1330.23 -1.80738 4.94187 0
M  V30 14717 O 1329.26 -1.35641 5.52802 0
M  V30 14718 N 1330.46 -3.14046 4.88216 0
M  V30 14719 H 1333.23 0.449001 2.96318 0
M  V30 14720 H 1330.79 0.385443 1.57245 0
M  V30 14721 H 1332.78 -2.02356 3.50477 0
M  V30 14722 H 1331.35 -1.94761 2.44514 0
M  V30 14723 H 1330.57 0.0369877 3.94183 0
M  V30 14724 H 1331.86 -0.419877 5.07065 0
M  V30 14725 H 1331.26 -3.53335 4.41781 0
M  V30 14726 H 1329.81 -3.7639 5.32141 0
M  V30 14727 N 1333.25 -1.54984 0.285932 0
M  V30 14728 C 1334.19 -2.24385 -0.612703 0
M  V30 14729 C 1335.19 -1.24459 -1.14918 0
M  V30 14730 O 1336.39 -1.42357 -1.10156 0
M  V30 14731 H 1332.77 -0.720263 -0.21616 0
M  V30 14732 H 1334.74 -2.984 -0.00465668 0
M  V30 14733 C 1333.49 -2.98661 -1.78037 0
M  V30 14734 H 1332.81 -3.75347 -1.37676 0
M  V30 14735 H 1334.25 -3.50525 -2.38554 0
M  V30 14736 C 1332.71 -2.04754 -2.67539 0
M  V30 14737 O 1333.24 -1.60577 -3.68209 0
M  V30 14738 N 1331.45 -1.71026 -2.34944 0
M  V30 14739 H 1330.99 -2.07148 -1.53126 0
M  V30 14740 H 1330.95 -1.08467 -2.95097 0
M  V30 14741 N 1334.72 -0.0133892 -1.57594 0
M  V30 14742 C 1335.97 0.669624 -1.91426 0
M  V30 14743 C 1336.3 1.72675 -0.888656 0
M  V30 14744 O 1335.58 1.94288 0.0908138 0
M  V30 14745 C 1335.86 1.30051 -3.35796 0
M  V30 14746 C 1335.71 0.254021 -4.49082 0
M  V30 14747 C 1337.03 2.22297 -3.79832 0
M  V30 14748 H 1334.15 0.241958 -0.69615 0
M  V30 14749 H 1336.79 -0.0674278 -1.8988 0
M  V30 14750 H 1334.94 1.92871 -3.37243 0
M  V30 14751 H 1336.62 -0.375524 -4.59769 0
M  V30 14752 H 1334.86 -0.422267 -4.3174 0
M  V30 14753 H 1335.53 0.734756 -5.47088 0
M  V30 14754 H 1338.01 1.69481 -3.8002 0
M  V30 14755 H 1336.88 2.634 -4.81572 0
M  V30 14756 H 1337.14 3.10764 -3.14449 0
M  V30 14757 N 1336.2 1.55448 0.259558 0
M  V30 14758 C 1337.17 1.88459 1.30445 0
M  V30 14759 C 1338.17 0.760096 1.41701 0
M  V30 14760 O 1339.36 1.02819 1.4062 0
M  V30 14761 C 1336.49 2.10181 2.68397 0
M  V30 14762 H 1337.68 2.81877 1.02398 0
M  V30 14763 H 1335.23 1.48145 0.498262 0
M  V30 14764 H 1335.97 1.19189 3.01603 0
M  V30 14765 H 1335.75 2.92066 2.6161 0
M  V30 14766 H 1337.24 2.36947 3.43869 0
M  V30 14767 N 1337.68 -0.524672 1.4861 0
M  V30 14768 C 1338.61 -1.64481 1.59621 0
M  V30 14769 C 1339.63 -1.55557 0.480181 0
M  V30 14770 O 1340.81 -1.61921 0.751254 0
M  V30 14771 C 1337.91 -3.03158 1.51487 0
M  V30 14772 C 1337.09 -3.37509 2.78221 0
M  V30 14773 C 1336.15 -4.5549 2.63467 0
M  V30 14774 O 1335.17 -4.58448 3.37364 0
M  V30 14775 N 1336.37 -5.53986 1.73437 0
M  V30 14776 H 1339.14 -1.5547 2.56221 0
M  V30 14777 H 1336.7 -0.712059 1.45401 0
M  V30 14778 H 1338.69 -3.79969 1.39305 0
M  V30 14779 H 1337.26 -3.06219 0.628406 0
M  V30 14780 H 1336.48 -2.49824 3.04929 0
M  V30 14781 H 1337.77 -3.57246 3.62288 0
M  V30 14782 H 1337.17 -5.54378 1.12612 0
M  V30 14783 H 1335.73 -6.29993 1.6719 0
M  V30 14784 N 1339.16 -1.37287 -0.77395 0
M  V30 14785 C 1340.07 -1.35059 -1.91823 0
M  V30 14786 C 1341.08 -0.250489 -1.72188 0
M  V30 14787 O 1342.26 -0.485501 -1.95461 0
M  V30 14788 C 1339.33 -1.15444 -3.26915 0
M  V30 14789 C 1338.39 -2.35073 -3.5922 0
M  V30 14790 C 1337.62 -2.16384 -4.87867 0
M  V30 14791 O 1337.84 -1.14696 -5.58749 0
M  V30 14792 O 1336.78 -3.0452 -5.19183 0
M  V30 14793 H 1340.6 -2.31432 -1.96654 0
M  V30 14794 H 1338.19 -1.17994 -0.916392 0
M  V30 14795 H 1340.07 -1.06484 -4.07724 0
M  V30 14796 H 1338.74 -0.221435 -3.22942 0
M  V30 14797 H 1337.65 -2.49604 -2.78655 0
M  V30 14798 H 1338.98 -3.26933 -3.67934 0
M  V30 14799 N 1340.64 0.999871 -1.21821 0
M  V30 14800 C 1341.55 2.12303 -0.99823 0
M  V30 14801 C 1342.56 1.73924 0.0512923 0
M  V30 14802 O 1343.74 2.00914 -0.139895 0
M  V30 14803 C 1340.8 3.41962 -0.571232 0
M  V30 14804 C 1339.86 3.94483 -1.69356 0
M  V30 14805 C 1339.1 5.17954 -1.28685 0
M  V30 14806 O 1339.32 5.70168 -0.162641 0
M  V30 14807 O 1338.25 5.64051 -2.10071 0
M  V30 14808 H 1342.08 2.3374 -1.93905 0
M  V30 14809 H 1339.67 1.10677 -1.00354 0
M  V30 14810 H 1341.55 4.20001 -0.343134 0
M  V30 14811 H 1340.22 3.21901 0.340814 0
M  V30 14812 H 1339.13 3.17648 -1.97612 0
M  V30 14813 H 1340.46 4.18964 -2.58322 0
M  V30 14814 N 1342.11 1.02678 1.19562 0
M  V30 14815 C 1343.08 0.610407 2.20922 0
M  V30 14816 C 1344.08 -0.324858 1.57484 0
M  V30 14817 O 1345.27 -0.112153 1.73839 0
M  V30 14818 C 1342.4 -0.107115 3.40732 0
M  V30 14819 H 1343.59 1.50722 2.59274 0
M  V30 14820 H 1341.15 0.817725 1.33203 0
M  V30 14821 H 1341.88 -1.01837 3.07896 0
M  V30 14822 H 1341.67 0.564901 3.88009 0
M  V30 14823 H 1343.16 -0.385423 4.15818 0
M  V30 14824 N 1343.59 -1.35528 0.804364 0
M  V30 14825 C 1344.56 -2.28153 0.21885 0
M  V30 14826 C 1345.56 -1.49486 -0.592511 0
M  V30 14827 O 1346.75 -1.69274 -0.411319 0
M  V30 14828 C 1343.88 -3.33736 -0.695195 0
M  V30 14829 H 1345.07 -2.81446 1.03576 0
M  V30 14830 H 1342.62 -1.45345 0.574854 0
M  V30 14831 H 1343.36 -2.85625 -1.53587 0
M  V30 14832 H 1343.14 -3.91931 -0.115143 0
M  V30 14833 H 1344.63 -4.02872 -1.09925 0
M  V30 14834 N 1345.07 -0.557671 -1.47404 0
M  V30 14835 C 1346.03 0.179311 -2.28498 0
M  V30 14836 C 1347.03 0.842281 -1.36975 0
M  V30 14837 O 1348.22 0.698072 -1.59601 0
M  V30 14838 C 1345.36 1.26229 -3.16668 0
M  V30 14839 H 1346.55 -0.533033 -2.95125 0
M  V30 14840 H 1344.1 -0.314634 -1.531 0
M  V30 14841 H 1344.84 2.00702 -2.54733 0
M  V30 14842 H 1344.62 0.791712 -3.84024 0
M  V30 14843 H 1346.11 1.77991 -3.77768 0
M  V30 14844 N 1346.55 1.54831 -0.294147 0
M  V30 14845 C 1347.48 2.20696 0.61854 0
M  V30 14846 C 1348.49 1.19754 1.10285 0
M  V30 14847 O 1349.68 1.46383 1.02148 0
M  V30 14848 C 1346.78 2.83429 1.85798 0
M  V30 14849 C 1345.96 4.10239 1.51731 0
M  V30 14850 C 1345.02 4.56841 2.61119 0
M  V30 14851 O 1344.04 5.22194 2.26501 0
M  V30 14852 N 1345.24 4.2858 3.91534 0
M  V30 14853 H 1348.01 2.9965 0.054714 0
M  V30 14854 H 1345.57 1.61484 -0.116052 0
M  V30 14855 H 1347.56 3.11541 2.5831 0
M  V30 14856 H 1346.13 2.08356 2.33038 0
M  V30 14857 H 1345.35 3.89212 0.625142 0
M  V30 14858 H 1346.64 4.92824 1.26499 0
M  V30 14859 H 1346.04 3.7621 4.22472 0
M  V30 14860 H 1344.59 4.61418 4.60366 0
M  V30 14861 N 1348.03 0.0217466 1.57585 0
M  V30 14862 C 1349.25 -0.67246 1.96196 0
M  V30 14863 C 1349.68 -1.6529 0.897827 0
M  V30 14864 O 1349.04 -1.80743 -0.142002 0
M  V30 14865 C 1349.08 -1.36162 3.33905 0
M  V30 14866 O 1348.19 -2.47671 3.29747 0
M  V30 14867 H 1347.53 -0.177238 0.639908 0
M  V30 14868 H 1350.06 0.0814073 2.04438 0
M  V30 14869 H 1350.07 -1.7201 3.69968 0
M  V30 14870 H 1348.74 -0.642893 4.10901 0
M  V30 14871 H 1347.32 -2.13989 3.0539 0
M  V30 14872 N 1349.51 -1.55583 -0.251311 0
M  V30 14873 C 1350.75 -1.77209 -0.979966 0
M  V30 14874 C 1351.08 -0.585279 -1.85485 0
M  V30 14875 O 1350.34 0.431559 -1.90882 0
M  V30 14876 C 1350.63 -3.04291 -1.87461 0
M  V30 14877 C 1350.3 -4.35844 -1.15545 0
M  V30 14878 C 1348.96 -4.71594 -0.956679 0
M  V30 14879 C 1351.31 -5.17189 -0.645381 0
M  V30 14880 C 1348.64 -5.86227 -0.235465 0
M  V30 14881 C 1350.99 -6.32569 0.0623441 0
M  V30 14882 C 1349.66 -6.66943 0.272634 0
M  V30 14883 H 1348.93 -0.648452 -0.358595 0
M  V30 14884 H 1351.58 -1.89856 -0.250423 0
M  V30 14885 H 1349.88 -2.86637 -2.67108 0
M  V30 14886 H 1351.58 -3.18221 -2.44001 0
M  V30 14887 H 1348.17 -4.07757 -1.32031 0
M  V30 14888 H 1352.35 -4.90028 -0.786505 0
M  V30 14889 H 1347.61 -6.11369 -0.0620232 0
M  V30 14890 H 1351.78 -6.94844 0.465234 0
M  V30 14891 H 1349.41 -7.55617 0.833442 0
M  V30 14892 N 1350.98 0.516783 -1.48886 0
M  V30 14893 C 1352.21 1.2944 -1.61024 0
M  V30 14894 C 1352.62 1.87195 -0.274705 0
M  V30 14895 O 1351.96 1.67787 0.747868 0
M  V30 14896 C 1352.03 2.4743 -2.60804 0
M  V30 14897 C 1351.69 2.10663 -4.05549 0
M  V30 14898 C 1352.69 1.65559 -4.92835 0
M  V30 14899 C 1350.37 2.20782 -4.51177 0
M  V30 14900 C 1352.37 1.31057 -6.23781 0
M  V30 14901 C 1350.05 1.85891 -5.82141 0
M  V30 14902 C 1351.05 1.41101 -6.68266 0
M  V30 14903 O 1350.74 1.06674 -7.96791 0
M  V30 14904 H 1350.47 0.399402 -0.545394 0
M  V30 14905 H 1353.03 0.628719 -1.95541 0
M  V30 14906 H 1351.26 3.17023 -2.21435 0
M  V30 14907 H 1352.94 3.09478 -2.62637 0
M  V30 14908 H 1353.71 1.57201 -4.58817 0
M  V30 14909 H 1349.59 2.54598 -3.84319 0
M  V30 14910 H 1353.13 0.960245 -6.9096 0
M  V30 14911 H 1349.03 1.93894 -6.15691 0
M  V30 14912 H 1349.8 1.19958 -8.09662 0
M  V30 14913 N 1352.46 1.37696 0.766659 0
M  V30 14914 C 1353.39 1.2975 1.88938 0
M  V30 14915 C 1354.41 0.212278 1.6141 0
M  V30 14916 O 1355.6 0.468825 1.72233 0
M  V30 14917 C 1352.7 0.984553 3.24283 0
M  V30 14918 C 1351.87 2.17625 3.79418 0
M  V30 14919 C 1350.93 1.83279 4.9325 0
M  V30 14920 O 1349.95 2.55631 5.08568 0
M  V30 14921 N 1351.16 0.779941 5.75237 0
M  V30 14922 H 1353.92 2.26492 1.96269 0
M  V30 14923 H 1351.48 1.31387 0.946001 0
M  V30 14924 H 1353.47 0.735536 3.9796 0
M  V30 14925 H 1352.04 0.105527 3.12422 0
M  V30 14926 H 1351.26 2.58672 2.9746 0
M  V30 14927 H 1352.55 2.97187 4.12986 0
M  V30 14928 H 1351.95 0.179661 5.65415 0
M  V30 14929 H 1350.51 0.59079 6.49117 0
M  V30 14930 N 1353.94 -0.993397 1.22349 0
M  V30 14931 C 1355.17 -1.76838 1.07406 0
M  V30 14932 C 1355.58 -1.8503 -0.37542 0
M  V30 14933 O 1354.94 -1.32008 -1.26016 0
M  V30 14934 C 1354.99 -3.20177 1.67837 0
M  V30 14935 O 1354.71 -3.12429 3.07115 0
M  V30 14936 C 1356.21 -4.14125 1.58161 0
M  V30 14937 H 1353.43 -0.555379 0.376557 0
M  V30 14938 H 1355.98 -1.24893 1.61932 0
M  V30 14939 H 1354.13 -3.69191 1.17375 0
M  V30 14940 H 1354.55 -4.02568 3.36213 0
M  V30 14941 H 1356.02 -5.12455 2.05169 0
M  V30 14942 H 1356.5 -4.35892 0.538073 0
M  V30 14943 H 1357.1 -3.71008 2.07926 0
M  V30 14944 N 1355.42 -1.03311 -1.19015 0
M  V30 14945 C 1356.65 -0.750712 -1.92478 0
M  V30 14946 C 1357.06 0.694964 -1.75974 0
M  V30 14947 O 1356.4 1.4847 -1.08177 0
M  V30 14948 C 1356.46 -1.02757 -3.44501 0
M  V30 14949 C 1356.12 -2.46565 -3.84779 0
M  V30 14950 C 1357.12 -3.44716 -3.89187 0
M  V30 14951 C 1354.81 -2.81076 -4.16295 0
M  V30 14952 C 1356.8 -4.75433 -4.24549 0
M  V30 14953 C 1354.49 -4.12002 -4.51329 0
M  V30 14954 C 1355.49 -5.08991 -4.55431 0
M  V30 14955 O 1355.17 -6.37571 -4.89652 0
M  V30 14956 H 1354.91 -0.273717 -0.618106 0
M  V30 14957 H 1357.46 -1.38176 -1.51975 0
M  V30 14958 H 1355.69 -0.339383 -3.85208 0
M  V30 14959 H 1357.38 -0.734175 -3.99205 0
M  V30 14960 H 1358.14 -3.19392 -3.64985 0
M  V30 14961 H 1354.02 -2.0626 -4.12284 0
M  V30 14962 H 1357.57 -5.51133 -4.27666 0
M  V30 14963 H 1353.46 -4.37098 -4.7499 0
M  V30 14964 H 1354.23 -6.42107 -5.07583 0
M  V30 14965 N 1356.9 1.35099 -0.81154 0
M  V30 14966 C 1358.14 1.98625 -0.394231 0
M  V30 14967 C 1358.47 1.6437 1.03985 0
M  V30 14968 O 1357.73 0.901496 1.737 0
M  V30 14969 C 1358.02 3.53444 -0.530322 0
M  V30 14970 C 1357.69 4.0758 -1.92844 0
M  V30 14971 C 1356.35 4.22077 -2.31094 0
M  V30 14972 C 1358.7 4.36838 -2.84292 0
M  V30 14973 C 1356.03 4.63153 -3.60148 0
M  V30 14974 C 1358.38 4.79355 -4.12798 0
M  V30 14975 C 1357.05 4.92057 -4.51039 0
M  V30 14976 H 1356.32 0.726822 -0.144259 0
M  V30 14977 H 1358.97 1.61231 -1.03329 0
M  V30 14978 H 1357.27 3.91328 0.192166 0
M  V30 14979 H 1358.97 4.00558 -0.188134 0
M  V30 14980 H 1355.56 3.96752 -1.62129 0
M  V30 14981 H 1359.74 4.25187 -2.55988 0
M  V30 14982 H 1355 4.71176 -3.89619 0
M  V30 14983 H 1359.17 5.00954 -4.83754 0
M  V30 14984 H 1356.8 5.23643 -5.51092 0
M  V30 14985 N 1358.37 0.56548 1.47106 0
M  V30 14986 C 1359.61 0.0469867 2.04346 0
M  V30 14987 C 1359.98 -1.28183 1.42944 0
M  V30 14988 O 1361.18 -1.88852 1.91281 0
M  V30 14989 C 1359.45 -0.0357764 3.57382 0
M  V30 14990 S 1361.01 -0.499194 4.35951 0
M  V30 14991 H 1357.83 0.0291355 0.710403 0
M  V30 14992 H 1360.43 0.754085 1.80371 0
M  V30 14993 H 1359.13 0.935578 3.99594 0
M  V30 14994 H 1358.66 -0.766177 3.85867 0
M  V30 14995 H 1360.68 -1.75732 4.6404 0
M  V30 14996 N 1359.85 -1.54672 0.302354 0
M  V30 14997 C 1361.13 -1.92264 -0.359711 0
M  V30 14998 C 1361.51 -1.22973 -1.71583 0
M  V30 14999 O 1360.86 -0.365942 -2.25551 0
M  V30 15000 C 1361.07 -3.4578 -0.473019 0
M  V30 15001 C 1362.42 -4.18044 -0.743252 0
M  V30 15002 O 1363.44 -3.51822 -0.556778 0
M  V30 15003 O 1362.3 -5.35283 -1.10155 0
M  V30 15004 H 1359.39 -0.802112 -0.201359 0
M  V30 15005 H 1361.94 -1.66041 0.350513 0
M  V30 15006 H 1360.71 -3.88342 0.480265 0
M  V30 15007 H 1360.33 -3.78042 -1.23166 0
M  V30 15008 N 1361.33 -0.0301034 -1.57571 0
M  V30 15009 C 1362.58 0.647672 -1.91019 0
M  V30 15010 C 1362.89 1.73234 -0.908265 0
M  V30 15011 O 1364.1 2.46682 -1.13402 0
M  V30 15012 C 1362.55 1.20327 -3.3919 0
M  V30 15013 C 1362.16 0.151833 -4.47743 0
M  V30 15014 C 1363.91 1.8575 -3.81703 0
M  V30 15015 C 1361.81 0.719119 -5.87012 0
M  V30 15016 H 1360.74 0.245682 -0.712851 0
M  V30 15017 H 1363.39 -0.0955645 -1.83251 0
M  V30 15018 H 1361.78 1.99814 -3.41892 0
M  V30 15019 H 1362.95 -0.620659 -4.56601 0
M  V30 15020 H 1361.27 -0.403699 -4.14438 0
M  V30 15021 H 1363.86 2.29151 -4.83109 0
M  V30 15022 H 1364.21 2.70061 -3.16817 0
M  V30 15023 H 1364.74 1.1295 -3.81428 0
M  V30 15024 H 1361.48 -0.0858832 -6.55444 0
M  V30 15025 H 1361 1.46008 -5.81758 0
M  V30 15026 H 1362.68 1.20856 -6.35612 0
M  V30 15027 N 1362.81 1.55714 0.243056 0
M  V30 15028 C 1363.74 1.93655 1.30461 0
M  V30 15029 C 1364.72 0.801968 1.50008 0
M  V30 15030 O 1365.9 1.06256 1.62552 0
M  V30 15031 C 1363.03 2.23459 2.65863 0
M  V30 15032 C 1361.99 3.39205 2.61006 0
M  V30 15033 C 1361.31 3.5456 4.00239 0
M  V30 15034 C 1362.61 4.74787 2.17656 0
M  V30 15035 H 1364.31 2.82575 0.98954 0
M  V30 15036 H 1361.85 1.35955 0.474572 0
M  V30 15037 H 1363.81 2.48591 3.40266 0
M  V30 15038 H 1362.53 1.31369 2.99014 0
M  V30 15039 H 1361.19 3.14088 1.89061 0
M  V30 15040 H 1360.84 2.59884 4.30661 0
M  V30 15041 H 1360.54 4.32399 3.97876 0
M  V30 15042 H 1362.06 3.82017 4.76335 0
M  V30 15043 H 1363.48 4.99266 2.81792 0
M  V30 15044 H 1361.87 5.55756 2.26397 0
M  V30 15045 H 1362.94 4.7159 1.12831 0
M  V30 15046 N 1364.29 -0.50888 1.49158 0
M  V30 15047 C 1365.22 -1.62778 1.61356 0
M  V30 15048 C 1366.23 -1.55039 0.496653 0
M  V30 15049 O 1367.42 -1.61115 0.768386 0
M  V30 15050 C 1364.52 -3.01534 1.54694 0
M  V30 15051 C 1363.69 -3.34539 2.81785 0
M  V30 15052 C 1362.75 -4.5267 2.68283 0
M  V30 15053 O 1361.78 -4.54844 3.42207 0
M  V30 15054 N 1362.98 -5.52115 1.79303 0
M  V30 15055 H 1365.75 -1.52744 2.57855 0
M  V30 15056 H 1363.31 -0.696597 1.46148 0
M  V30 15057 H 1365.3 -3.7847 1.43327 0
M  V30 15058 H 1363.87 -3.05535 0.660849 0
M  V30 15059 H 1363.09 -2.46576 3.07561 0
M  V30 15060 H 1364.38 -3.53384 3.66057 0
M  V30 15061 H 1363.77 -5.53153 1.18485 0
M  V30 15062 H 1362.33 -6.28184 1.73863 0
M  V30 15063 N 1365.76 -1.381 -0.759346 0
M  V30 15064 C 1366.71 -1.31373 -1.86347 0
M  V30 15065 C 1367.7 -0.199113 -1.59663 0
M  V30 15066 O 1368.89 -0.43459 -1.71582 0
M  V30 15067 C 1366.02 -1.13537 -3.23982 0
M  V30 15068 C 1365.11 -2.29596 -3.56576 0
M  V30 15069 N 1365.5 -3.55023 -3.60267 0
M  V30 15070 C 1363.79 -2.22022 -3.86811 0
M  V30 15071 C 1364.5 -4.31629 -3.89963 0
M  V30 15072 N 1363.47 -3.60915 -4.06499 0
M  V30 15073 H 1367.27 -2.26345 -1.8747 0
M  V30 15074 H 1364.79 -1.3125 -0.956415 0
M  V30 15075 H 1366.78 -1.06801 -4.02988 0
M  V30 15076 H 1365.44 -0.194922 -3.24114 0
M  V30 15077 H 1366.46 -3.88769 -3.42168 0
M  V30 15078 H 1363.13 -1.36104 -3.94692 0
M  V30 15079 H 1364.52 -5.40238 -3.9949 0
M  V30 15080 N 1367.24 0.986894 -1.22875 0
M  V30 15081 C 1368.49 1.72152 -1.05103 0
M  V30 15082 C 1368.8 1.91185 0.413248 0
M  V30 15083 O 1370.01 2.62031 0.710759 0
M  V30 15084 C 1368.47 3.09771 -1.8322 0
M  V30 15085 C 1368.07 2.98648 -3.33936 0
M  V30 15086 C 1369.82 3.87238 -1.73917 0
M  V30 15087 C 1367.73 4.31459 -4.04471 0
M  V30 15088 H 1366.66 0.645498 -0.389677 0
M  V30 15089 H 1369.31 1.10125 -1.46781 0
M  V30 15090 H 1367.69 3.72515 -1.34345 0
M  V30 15091 H 1368.86 2.45033 -3.9025 0
M  V30 15092 H 1367.18 2.34661 -3.43982 0
M  V30 15093 H 1369.77 4.85549 -2.23933 0
M  V30 15094 H 1370.12 4.1036 -0.700711 0
M  V30 15095 H 1370.65 3.31183 -2.20369 0
M  V30 15096 H 1367.39 4.13534 -5.08596 0
M  V30 15097 H 1366.91 4.84964 -3.52944 0
M  V30 15098 H 1368.59 5.00179 -4.10403 0
M  V30 15099 N 1368.72 1.0394 1.18466 0
M  V30 15100 C 1369.97 0.742042 1.88414 0
M  V30 15101 C 1370.3 -0.730138 1.80275 0
M  V30 15102 O 1369.55 -1.54844 1.19674 0
M  V30 15103 C 1369.85 1.15198 3.38326 0
M  V30 15104 C 1369.52 2.62422 3.66668 0
M  V30 15105 C 1368.18 3.02643 3.74113 0
M  V30 15106 C 1370.53 3.5762 3.79153 0
M  V30 15107 C 1367.86 4.36953 3.91522 0
M  V30 15108 C 1370.21 4.91647 3.98077 0
M  V30 15109 C 1368.87 5.31541 4.03758 0
M  V30 15110 H 1368.14 0.271532 0.689457 0
M  V30 15111 H 1370.79 1.30419 1.40225 0
M  V30 15112 H 1369.1 0.508607 3.88485 0
M  V30 15113 H 1370.79 0.899269 3.90787 0
M  V30 15114 H 1367.38 2.30268 3.61489 0
M  V30 15115 H 1371.57 3.27693 3.72735 0
M  V30 15116 H 1366.82 4.67382 3.94163 0
M  V30 15117 H 1371 5.65318 4.0668 0
M  V30 15118 H 1368.62 6.35622 4.16999 0
M  V30 15119 N 1370.2 -1.34667 0.818693 0
M  V30 15120 C 1371.42 -2.03173 0.416585 0
M  V30 15121 C 1371.85 -1.61261 -0.968321 0
M  V30 15122 O 1371.21 -0.79517 -1.62932 0
M  V30 15123 C 1371.25 -3.56803 0.521884 0
M  V30 15124 O 1370.36 -4.09827 -0.459953 0
M  V30 15125 H 1369.7 -0.6413 0.172136 0
M  V30 15126 H 1372.23 -1.72006 1.10794 0
M  V30 15127 H 1372.24 -4.06073 0.3961 0
M  V30 15128 H 1370.91 -3.86656 1.53198 0
M  V30 15129 H 1369.49 -3.71744 -0.293405 0
M  V30 15130 N 1371.68 -0.573274 -1.46804 0
M  V30 15131 C 1372.92 -0.0553432 -2.02724 0
M  V30 15132 C 1373.26 1.29753 -1.44492 0
M  V30 15133 O 1372.53 1.84804 -0.606455 0
M  V30 15134 C 1372.81 0.0205511 -3.60094 0
M  V30 15135 C 1372.67 -1.36055 -4.2873 0
M  V30 15136 C 1373.99 0.725944 -4.34071 0
M  V30 15137 H 1371.1 -0.0215858 -0.736684 0
M  V30 15138 H 1373.75 -0.738657 -1.75054 0
M  V30 15139 H 1371.9 0.602481 -3.838 0
M  V30 15140 H 1373.57 -1.98692 -4.16316 0
M  V30 15141 H 1371.81 -1.93087 -3.88458 0
M  V30 15142 H 1372.48 -1.26001 -5.37427 0
M  V30 15143 H 1374.96 0.231677 -4.15455 0
M  V30 15144 H 1373.83 0.74805 -5.43779 0
M  V30 15145 H 1374.1 1.78536 -4.04447 0
M  V30 15146 N 1373.15 1.5451 -0.310553 0
M  V30 15147 C 1374.4 2.00623 0.296343 0
M  V30 15148 C 1374.73 1.19855 1.52802 0
M  V30 15149 O 1374.01 0.277468 1.92511 0
M  V30 15150 C 1374.29 3.54305 0.643448 0
M  V30 15151 C 1374.14 4.45807 -0.598029 0
M  V30 15152 C 1375.46 4.14958 1.46623 0
M  V30 15153 H 1372.58 0.729303 0.106236 0
M  V30 15154 H 1375.22 1.85196 -0.424549 0
M  V30 15155 H 1373.37 3.67581 1.25762 0
M  V30 15156 H 1375.05 4.44421 -1.23643 0
M  V30 15157 H 1373.29 4.16014 -1.22944 0
M  V30 15158 H 1373.96 5.51124 -0.310883 0
M  V30 15159 H 1376.44 4.05176 0.947199 0
M  V30 15160 H 1375.31 5.22627 1.67787 0
M  V30 15161 H 1375.57 3.67445 2.45839 0
M  V30 15162 N 1374.63 0.0384594 1.57553 0
M  V30 15163 C 1375.86 -0.648077 1.96488 0
M  V30 15164 C 1376.28 -1.65123 0.915414 0
M  V30 15165 O 1375.63 -1.82216 -0.101779 0
M  V30 15166 C 1375.68 -1.34623 3.35498 0
M  V30 15167 O 1375.41 -0.383261 4.3642 0
M  V30 15168 C 1376.91 -2.12372 3.89119 0
M  V30 15169 H 1374.13 -0.178068 0.646941 0
M  V30 15170 H 1376.67 0.100993 2.0425 0
M  V30 15171 H 1374.83 -2.04663 3.28926 0
M  V30 15172 H 1375.24 -0.880095 5.17063 0
M  V30 15173 H 1376.71 -2.5666 4.88702 0
M  V30 15174 H 1377.19 -2.96664 3.23863 0
M  V30 15175 H 1377.8 -1.4727 3.98988 0
M  V30 15176 N 1376.11 -1.55841 -0.234795 0
M  V30 15177 C 1377.39 -1.69008 -0.984665 0
M  V30 15178 C 1377.77 -0.581882 -2.02922 0
M  V30 15179 O 1377.12 0.412998 -2.24737 0
M  V30 15180 C 1377.33 -3.09796 -1.60708 0
M  V30 15181 C 1378.67 -3.68784 -2.10436 0
M  V30 15182 O 1379.7 -3.12674 -1.70627 0
M  V30 15183 O 1378.56 -4.67175 -2.83567 0
M  V30 15184 H 1375.65 -0.68786 -0.459105 0
M  V30 15185 H 1378.2 -1.68166 -0.227623 0
M  V30 15186 H 1376.97 -3.81908 -0.852169 0
M  V30 15187 H 1376.59 -3.147 -2.43001 0
M  V30 15188 N 1377.59 0.500963 -1.49426 0
M  V30 15189 C 1378.82 1.27911 -1.62624 0
M  V30 15190 C 1379.23 1.86439 -0.297651 0
M  V30 15191 O 1378.59 1.67831 0.716879 0
M  V30 15192 C 1378.64 2.40934 -2.69505 0
M  V30 15193 O 1378.36 1.84811 -3.97211 0
M  V30 15194 C 1379.86 3.32305 -2.93408 0
M  V30 15195 H 1377.08 0.387951 -0.547481 0
M  V30 15196 H 1379.63 0.601372 -1.95458 0
M  V30 15197 H 1377.78 3.04537 -2.39449 0
M  V30 15198 H 1378.2 2.59011 -4.56085 0
M  V30 15199 H 1379.67 4.0789 -3.71927 0
M  V30 15200 H 1380.15 3.89301 -2.03325 0
M  V30 15201 H 1380.75 2.74467 -3.24881 0
M  V30 15202 N 1379.07 1.38501 0.752011 0
M  V30 15203 C 1380.29 1.38212 1.54636 0
M  V30 15204 C 1380.72 -0.0256356 1.88083 0
M  V30 15205 O 1380.08 -1.00812 1.50687 0
M  V30 15206 C 1380.12 2.24597 2.82114 0
M  V30 15207 O 1379.23 1.66415 3.77332 0
M  V30 15208 H 1378.57 0.47138 0.46765 0
M  V30 15209 H 1381.1 1.82283 0.929205 0
M  V30 15210 H 1381.11 2.38511 3.31023 0
M  V30 15211 H 1379.78 3.26913 2.57101 0
M  V30 15212 H 1378.36 1.61651 3.36041 0
M  V30 15213 N 1380.55 -0.980364 1.23396 0
M  V30 15214 C 1381.5 -2.05753 0.982323 0
M  V30 15215 C 1382.48 -1.6074 -0.0716939 0
M  V30 15216 O 1383.67 -1.76442 0.140438 0
M  V30 15217 C 1380.8 -3.38442 0.575481 0
M  V30 15218 C 1379.89 -3.90054 1.6649 0
M  V30 15219 N 1380.28 -4.14744 2.89519 0
M  V30 15220 C 1378.58 -4.18588 1.53949 0
M  V30 15221 C 1379.28 -4.56877 3.60053 0
M  V30 15222 N 1378.25 -4.61309 2.87567 0
M  V30 15223 H 1382.05 -2.22801 1.91669 0
M  V30 15224 H 1379.57 -1.16314 1.13335 0
M  V30 15225 H 1381.57 -4.15197 0.376477 0
M  V30 15226 H 1380.23 -3.22788 -0.351844 0
M  V30 15227 H 1381.24 -4.02566 3.25824 0
M  V30 15228 H 1377.91 -4.11937 0.679275 0
M  V30 15229 H 1379.3 -4.84498 4.65523 0
M  V30 15230 N 1382.02 -1.04567 -1.17913 0
M  V30 15231 C 1383.25 -0.772204 -1.9195 0
M  V30 15232 C 1383.67 0.671303 -1.76462 0
M  V30 15233 O 1383.02 1.45805 -1.0976 0
M  V30 15234 C 1383.07 -1.13539 -3.43207 0
M  V30 15235 O 1382.8 -2.52223 -3.58211 0
M  V30 15236 C 1384.3 -0.887146 -4.34332 0
M  V30 15237 H 1381.52 -0.281234 -0.609219 0
M  V30 15238 H 1384.06 -1.39467 -1.49563 0
M  V30 15239 H 1382.22 -0.557784 -3.83363 0
M  V30 15240 H 1382.63 -2.66275 -4.51882 0
M  V30 15241 H 1384.1 -1.19107 -5.38997 0
M  V30 15242 H 1384.58 0.1779 -4.3884 0
M  V30 15243 H 1385.19 -1.44829 -3.99881 0
M  V30 15244 N 1383.5 1.34231 -0.825823 0
M  V30 15245 C 1384.46 2.27776 -0.25512 0
M  V30 15246 C 1385.46 1.50409 0.568654 0
M  V30 15247 O 1386.65 1.69907 0.384337 0
M  V30 15248 C 1383.79 3.348 0.642013 0
M  V30 15249 H 1384.98 2.79763 -1.0804 0
M  V30 15250 H 1382.53 1.44412 -0.597904 0
M  V30 15251 H 1383.27 2.88032 1.49024 0
M  V30 15252 H 1383.05 3.92064 0.0527756 0
M  V30 15253 H 1384.54 4.0457 1.03502 0
M  V30 15254 N 1384.98 0.581051 1.46498 0
M  V30 15255 C 1386.23 0.0658652 2.01993 0
M  V30 15256 C 1386.55 -1.29807 1.45516 0
M  V30 15257 O 1385.82 -1.85177 0.639233 0
M  V30 15258 H 1384.4 0.0213584 0.746695 0
M  V30 15259 H 1387.06 0.756456 1.79621 0
M  V30 15260 H 1386.16 -0.00438128 3.121 0
M  V30 15261 N 1386.46 -1.54343 0.318742 0
M  V30 15262 C 1387.39 -2.27118 -0.542206 0
M  V30 15263 C 1388.37 -1.27731 -1.12334 0
M  V30 15264 O 1389.55 -1.56535 -1.14937 0
M  V30 15265 C 1386.68 -3.02535 -1.70558 0
M  V30 15266 C 1385.64 -4.09218 -1.25398 0
M  V30 15267 C 1384.96 -4.72449 -2.50391 0
M  V30 15268 C 1386.26 -5.20971 -0.372332 0
M  V30 15269 H 1387.96 -2.9933 0.0648226 0
M  V30 15270 H 1385.5 -1.43963 0.0326168 0
M  V30 15271 H 1387.46 -3.52174 -2.31412 0
M  V30 15272 H 1386.18 -2.27931 -2.33912 0
M  V30 15273 H 1384.84 -3.60455 -0.668392 0
M  V30 15274 H 1384.49 -3.94466 -3.12099 0
M  V30 15275 H 1384.19 -5.4451 -2.20868 0
M  V30 15276 H 1385.71 -5.2486 -3.12016 0
M  V30 15277 H 1387.13 -5.66396 -0.887029 0
M  V30 15278 H 1385.52 -5.99859 -0.17009 0
M  V30 15279 H 1386.59 -4.81198 0.598064 0
M  V30 15280 N 1387.94 -0.0468143 -1.5753 0
M  V30 15281 C 1389.16 0.637648 -1.96829 0
M  V30 15282 C 1389.58 1.64635 -0.924158 0
M  V30 15283 O 1388.94 1.82267 0.0921139 0
M  V30 15284 C 1388.99 1.32842 -3.36207 0
M  V30 15285 O 1388.71 0.360111 -4.36617 0
M  V30 15286 C 1390.21 2.10305 -3.90239 0
M  V30 15287 H 1387.43 0.174634 -0.647876 0
M  V30 15288 H 1389.97 -0.111824 -2.04194 0
M  V30 15289 H 1388.13 2.02915 -3.30006 0
M  V30 15290 H 1388.54 0.852661 -5.17523 0
M  V30 15291 H 1390.02 2.54065 -4.90056 0
M  V30 15292 H 1390.49 2.94942 -3.25432 0
M  V30 15293 H 1391.1 1.45152 -3.99764 0
M  V30 15294 N 1389.41 1.55964 0.226527 0
M  V30 15295 C 1390.35 1.87013 1.30772 0
M  V30 15296 C 1391.33 0.727044 1.4544 0
M  V30 15297 O 1392.51 0.974898 1.61332 0
M  V30 15298 C 1389.64 2.07278 2.67869 0
M  V30 15299 C 1388.68 3.29956 2.70243 0
M  V30 15300 S 1389.52 4.86026 2.24808 0
M  V30 15301 C 1390.67 5.09321 3.6379 0
M  V30 15302 H 1390.9 2.78427 1.0424 0
M  V30 15303 H 1388.44 1.48334 0.428525 0
M  V30 15304 H 1390.4 2.19636 3.468 0
M  V30 15305 H 1389.06 1.1667 2.91628 0
M  V30 15306 H 1388.25 3.41164 3.70975 0
M  V30 15307 H 1387.85 3.16429 1.99371 0
M  V30 15308 H 1390.14 4.97914 4.59443 0
M  V30 15309 H 1391.09 6.11227 3.57501 0
M  V30 15310 H 1391.49 4.37076 3.57247 0
M  V30 15311 N 1390.89 -0.493031 1.4969 0
M  V30 15312 C 1391.84 -1.59075 1.63337 0
M  V30 15313 C 1392.83 -1.53298 0.488721 0
M  V30 15314 O 1394.02 -1.60693 0.742071 0
M  V30 15315 C 1391.15 -2.97646 1.71061 0
M  V30 15316 C 1390.23 -3.08389 2.9113 0
M  V30 15317 N 1390.62 -2.89001 4.15105 0
M  V30 15318 C 1388.92 -3.395 2.89233 0
M  V30 15319 C 1389.62 -3.04136 4.95859 0
M  V30 15320 N 1388.6 -3.33367 4.2938 0
M  V30 15321 H 1392.4 -1.42751 2.56903 0
M  V30 15322 H 1389.92 -0.699325 1.46571 0
M  V30 15323 H 1391.91 -3.76546 1.78938 0
M  V30 15324 H 1390.57 -3.15034 0.786376 0
M  V30 15325 H 1391.58 -2.65017 4.44957 0
M  V30 15326 H 1388.26 -3.63014 2.06221 0
M  V30 15327 H 1389.65 -2.93571 6.04372 0
M  V30 15328 N 1392.37 -1.38898 -0.744656 0
M  V30 15329 C 1393.33 -1.36633 -1.84022 0
M  V30 15330 C 1394.33 -0.265187 -1.58598 0
M  V30 15331 O 1395.52 -0.522569 -1.66177 0
M  V30 15332 C 1392.66 -1.12938 -3.21649 0
M  V30 15333 H 1393.85 -2.34111 -1.87435 0
M  V30 15334 H 1391.4 -1.24322 -0.947302 0
M  V30 15335 H 1392.14 -0.161027 -3.239 0
M  V30 15336 H 1391.92 -1.9267 -3.41498 0
M  V30 15337 H 1393.41 -1.14071 -4.01718 0
M  V30 15338 N 1393.85 0.973806 -1.23914 0
M  V30 15339 C 1395.07 1.7564 -1.10296 0
M  V30 15340 C 1395.5 1.84984 0.340954 0
M  V30 15341 O 1394.86 1.31629 1.24674 0
M  V30 15342 C 1394.9 3.15809 -1.7406 0
M  V30 15343 O 1394.01 3.99911 -1.00722 0
M  V30 15344 H 1393.35 0.540133 -0.386202 0
M  V30 15345 H 1395.88 1.22197 -1.64101 0
M  V30 15346 H 1395.89 3.66359 -1.79568 0
M  V30 15347 H 1394.56 3.08324 -2.79122 0
M  V30 15348 H 1393.14 3.58405 -1.02956 0
M  V30 15349 N 1395.33 1.05191 1.17357 0
M  V30 15350 C 1396.58 0.757104 1.86951 0
M  V30 15351 C 1396.89 -0.718637 1.8192 0
M  V30 15352 O 1398.09 -1.12739 2.46986 0
M  V30 15353 C 1396.55 1.30409 3.35442 0
M  V30 15354 C 1396.16 2.80928 3.48975 0
M  V30 15355 C 1397.9 1.08633 4.10365 0
M  V30 15356 C 1395.81 3.28927 4.91488 0
M  V30 15357 H 1394.74 0.279525 0.700273 0
M  V30 15358 H 1397.39 1.2692 1.32528 0
M  V30 15359 H 1395.77 0.719812 3.89403 0
M  V30 15360 H 1396.95 3.45211 3.05231 0
M  V30 15361 H 1395.26 3.01245 2.87473 0
M  V30 15362 H 1397.86 1.41996 5.15501 0
M  V30 15363 H 1398.2 0.0240903 4.16293 0
M  V30 15364 H 1398.73 1.63581 3.6261 0
M  V30 15365 H 1395.47 4.34581 4.90734 0
M  V30 15366 H 1394.99 2.69386 5.35902 0
M  V30 15367 H 1396.67 3.23605 5.60258 0
M  V30 15368 N 1396.8 -1.33791 0.83293 0
M  V30 15369 C 1397.73 -2.31853 0.276846 0
M  V30 15370 C 1398.72 -1.58702 -0.612184 0
M  V30 15371 O 1399.9 -1.86629 -0.536975 0
M  V30 15372 C 1397.03 -3.42855 -0.55385 0
M  V30 15373 C 1395.98 -4.27333 0.238884 0
M  V30 15374 C 1395.31 -5.29895 -0.715187 0
M  V30 15375 C 1396.61 -5.01692 1.45265 0
M  V30 15376 H 1398.3 -2.78611 1.09618 0
M  V30 15377 H 1395.85 -1.33949 0.528562 0
M  V30 15378 H 1397.8 -4.10479 -0.953133 0
M  V30 15379 H 1396.53 -2.94771 -1.40634 0
M  V30 15380 H 1395.19 -3.61325 0.619656 0
M  V30 15381 H 1394.83 -4.7807 -1.56391 0
M  V30 15382 H 1394.53 -5.87296 -0.188921 0
M  V30 15383 H 1396.06 -6.00387 -1.11211 0
M  V30 15384 H 1397.47 -5.62117 1.12685 0
M  V30 15385 H 1395.87 -5.68715 1.91528 0
M  V30 15386 H 1396.94 -4.30809 2.22558 0
M  V30 15387 N 1398.28 -0.588812 -1.46187 0
M  V30 15388 C 1399.25 0.130803 -2.28826 0
M  V30 15389 C 1400.25 0.813037 -1.38731 0
M  V30 15390 O 1401.44 0.664061 -1.61046 0
M  V30 15391 C 1398.57 1.19484 -3.19275 0
M  V30 15392 H 1399.76 -0.595514 -2.93928 0
M  V30 15393 H 1397.31 -0.347038 -1.52399 0
M  V30 15394 H 1398.05 1.95254 -2.58933 0
M  V30 15395 H 1397.83 0.710077 -3.85617 0
M  V30 15396 H 1399.32 1.69938 -3.81459 0
M  V30 15397 N 1399.76 1.54172 -0.326923 0
M  V30 15398 C 1400.99 2.04747 0.276107 0
M  V30 15399 C 1401.4 1.20251 1.4607 0
M  V30 15400 O 1400.74 0.226753 1.82295 0
M  V30 15401 C 1400.8 3.51143 0.770651 0
M  V30 15402 C 1400.47 4.56066 -0.292079 0
M  V30 15403 C 1401.46 5.07487 -1.12928 0
M  V30 15404 C 1399.15 5.00358 -0.441232 0
M  V30 15405 C 1401.14 6.01767 -2.10133 0
M  V30 15406 C 1398.83 5.94452 -1.4167 0
M  V30 15407 C 1399.83 6.45042 -2.24521 0
M  V30 15408 O 1399.52 7.37288 -3.20409 0
M  V30 15409 H 1399.25 0.673322 0.0601144 0
M  V30 15410 H 1401.8 1.99899 -0.472176 0
M  V30 15411 H 1400.03 3.53399 1.5699 0
M  V30 15412 H 1401.72 3.84775 1.2924 0
M  V30 15413 H 1402.49 4.74044 -1.02505 0
M  V30 15414 H 1398.37 4.60593 0.193767 0
M  V30 15415 H 1401.91 6.41178 -2.74839 0
M  V30 15416 H 1397.81 6.27311 -1.52155 0
M  V30 15417 H 1398.58 7.55171 -3.15687 0
M  V30 15418 N 1401.24 0.0551678 1.57503 0
M  V30 15419 C 1402.17 -0.953348 2.07332 0
M  V30 15420 C 1403.15 -1.30148 0.974699 0
M  V30 15421 O 1404.33 -1.41366 1.24692 0
M  V30 15422 C 1401.46 -2.26622 2.51715 0
M  V30 15423 C 1400.51 -2.07085 3.72851 0
M  V30 15424 S 1401.34 -1.34553 5.1832 0
M  V30 15425 C 1402.5 -2.67155 5.6602 0
M  V30 15426 H 1402.73 -0.529294 2.9255 0
M  V30 15427 H 1400.26 -0.157196 1.53598 0
M  V30 15428 H 1402.22 -3.02085 2.77948 0
M  V30 15429 H 1400.88 -2.66155 1.66795 0
M  V30 15430 H 1400.07 -3.04206 4.01839 0
M  V30 15431 H 1399.68 -1.39761 3.46905 0
M  V30 15432 H 1401.97 -3.63309 5.7185 0
M  V30 15433 H 1402.91 -2.42798 6.65173 0
M  V30 15434 H 1403.32 -2.73597 4.93766 0
M  V30 15435 N 1402.72 -1.56081 -0.218252 0
M  V30 15436 C 1403.96 -1.79247 -0.942157 0
M  V30 15437 C 1404.29 -0.624492 -1.84202 0
M  V30 15438 O 1403.55 0.390973 -1.91755 0
M  V30 15439 C 1403.85 -3.08199 -1.80965 0
M  V30 15440 C 1403.51 -4.38197 -1.06274 0
M  V30 15441 C 1402.17 -4.73517 -0.856432 0
M  V30 15442 C 1404.53 -5.18441 -0.535532 0
M  V30 15443 C 1401.85 -5.86595 -0.111065 0
M  V30 15444 C 1404.21 -6.32295 0.196507 0
M  V30 15445 C 1402.87 -6.66215 0.414041 0
M  V30 15446 H 1402.14 -0.655913 -0.34476 0
M  V30 15447 H 1404.79 -1.90344 -0.210095 0
M  V30 15448 H 1403.09 -2.92238 -2.60967 0
M  V30 15449 H 1404.79 -3.23325 -2.37196 0
M  V30 15450 H 1401.38 -4.10466 -1.23352 0
M  V30 15451 H 1405.56 -4.91586 -0.682386 0
M  V30 15452 H 1400.82 -6.11363 0.0676711 0
M  V30 15453 H 1404.99 -6.93701 0.612516 0
M  V30 15454 H 1402.62 -7.5368 0.993532 0
M  V30 15455 N 1404.2 0.485086 -1.49949 0
M  V30 15456 C 1405.14 1.60559 -1.68296 0
M  V30 15457 C 1406.14 1.60264 -0.548802 0
M  V30 15458 O 1407.34 1.64581 -0.728905 0
M  V30 15459 H 1403.72 0.532529 -0.530958 0
M  V30 15460 H 1405.69 1.42242 -2.62316 0
M  V30 15461 C 1404.44 2.98596 -1.78145 0
M  V30 15462 H 1403.76 2.99536 -2.64799 0
M  V30 15463 H 1405.2 3.76492 -1.95012 0
M  V30 15464 C 1403.66 3.32708 -0.529828 0
M  V30 15465 O 1404.19 4.00281 0.337347 0
M  V30 15466 N 1402.4 2.87998 -0.388012 0
M  V30 15467 H 1401.94 2.33182 -1.0947 0
M  V30 15468 H 1401.9 3.11187 0.448307 0
M  V30 15469 N 1405.67 1.39291 0.737279 0
M  V30 15470 C 1406.6 1.40562 1.86452 0
M  V30 15471 C 1407.58 0.269283 1.67955 0
M  V30 15472 O 1408.77 0.474769 1.88307 0
M  V30 15473 C 1405.9 1.2461 3.24175 0
M  V30 15474 C 1404.85 2.35619 3.57306 0
M  V30 15475 C 1404.18 2.04758 4.93941 0
M  V30 15476 C 1405.48 3.77927 3.60512 0
M  V30 15477 H 1407.17 2.34896 1.85646 0
M  V30 15478 H 1404.72 1.13065 0.891756 0
M  V30 15479 H 1406.67 1.2412 4.02706 0
M  V30 15480 H 1405.4 0.267438 3.25503 0
M  V30 15481 H 1404.06 2.35322 2.81104 0
M  V30 15482 H 1403.7 1.05336 4.91847 0
M  V30 15483 H 1403.4 2.79117 5.17076 0
M  V30 15484 H 1404.93 2.05915 5.74832 0
M  V30 15485 H 1406.34 3.80166 4.29123 0
M  V30 15486 H 1404.74 4.51626 3.95164 0
M  V30 15487 H 1405.81 4.09068 2.60368 0
M  V30 15488 N 1407.15 -0.967221 1.24429 0
M  V30 15489 C 1408.4 -1.71279 1.08588 0
M  V30 15490 C 1408.73 -1.90558 -0.374325 0
M  V30 15491 O 1408.01 -1.46742 -1.27659 0
M  V30 15492 C 1408.29 -3.10326 1.82674 0
M  V30 15493 C 1408.14 -2.98535 3.36447 0
M  V30 15494 C 1409.46 -4.09993 1.59981 0
M  V30 15495 H 1406.58 -0.621658 0.395867 0
M  V30 15496 H 1409.22 -1.12514 1.53103 0
M  V30 15497 H 1407.37 -3.60492 1.44836 0
M  V30 15498 H 1409.04 -2.55791 3.83886 0
M  V30 15499 H 1407.29 -2.34736 3.64803 0
M  V30 15500 H 1407.96 -3.97041 3.83487 0
M  V30 15501 H 1410.43 -3.68687 1.92897 0
M  V30 15502 H 1409.31 -5.05349 2.14274 0
M  V30 15503 H 1409.57 -4.38812 0.538173 0
M  V30 15504 N 1408.63 -1.05812 -1.16797 0
M  V30 15505 C 1409.54 -0.675541 -2.24663 0
M  V30 15506 C 1410.56 0.30622 -1.71284 0
M  V30 15507 O 1411.73 0.156752 -2.00789 0
M  V30 15508 C 1408.8 -0.0627149 -3.46643 0
M  V30 15509 C 1407.86 -1.09572 -4.15081 0
M  V30 15510 C 1407.09 -0.512044 -5.31238 0
M  V30 15511 O 1407.31 0.676665 -5.66372 0
M  V30 15512 O 1406.25 -1.24936 -5.88791 0
M  V30 15513 H 1410.07 -1.57467 -2.59688 0
M  V30 15514 H 1407.66 -0.830073 -1.24218 0
M  V30 15515 H 1409.54 0.277543 -4.20485 0
M  V30 15516 H 1408.22 0.80997 -3.13403 0
M  V30 15517 H 1407.12 -1.48807 -3.4323 0
M  V30 15518 H 1408.46 -1.93977 -4.52365 0
M  V30 15519 N 1410.11 1.33347 -0.840014 0
M  V30 15520 C 1411.02 2.32965 -0.276527 0
M  V30 15521 C 1412.03 1.634 0.598037 0
M  V30 15522 O 1413.21 1.95046 0.501888 0
M  V30 15523 C 1410.27 3.42498 0.53816 0
M  V30 15524 C 1409.34 4.27781 -0.360814 0
M  V30 15525 C 1408.57 5.32083 0.415085 0
M  V30 15526 O 1408.79 5.46115 1.64666 0
M  V30 15527 O 1407.73 6.01528 -0.211503 0
M  V30 15528 H 1411.55 2.83022 -1.10147 0
M  V30 15529 H 1409.14 1.3671 -0.602566 0
M  V30 15530 H 1411.02 4.09336 1.00108 0
M  V30 15531 H 1409.69 2.94655 1.34015 0
M  V30 15532 H 1408.6 3.63805 -0.871598 0
M  V30 15533 H 1409.93 4.7911 -1.1276 0
M  V30 15534 N 1411.59 0.596556 1.45873 0
M  V30 15535 C 1412.83 0.0872856 2.01911 0
M  V30 15536 C 1413.15 -1.28257 1.46885 0
M  V30 15537 O 1412.42 -1.84489 0.658837 0
M  V30 15538 H 1411 0.0292769 0.746426 0
M  V30 15539 H 1413.67 0.775464 1.78809 0
M  V30 15540 H 1412.76 0.0287213 3.12087 0
M  V30 15541 N 1413.06 -1.53996 0.335095 0
M  V30 15542 C 1414.01 -2.24736 -0.52559 0
M  V30 15543 C 1414.98 -1.24244 -1.10239 0
M  V30 15544 O 1416.17 -1.52955 -1.14058 0
M  V30 15545 C 1413.31 -3.01732 -1.67487 0
M  V30 15546 C 1412.42 -4.17062 -1.1262 0
M  V30 15547 C 1411.55 -4.81563 -2.2421 0
M  V30 15548 C 1410.59 -5.88977 -1.6665 0
M  V30 15549 N 1409.73 -6.47293 -2.71949 0
M  V30 15550 H 1414.57 -2.97881 0.0842008 0
M  V30 15551 H 1412.11 -1.47003 0.0533254 0
M  V30 15552 H 1414.06 -3.44626 -2.35135 0
M  V30 15553 H 1412.69 -2.30899 -2.25578 0
M  V30 15554 H 1411.75 -3.78869 -0.340917 0
M  V30 15555 H 1413.06 -4.94346 -0.665113 0
M  V30 15556 H 1412.21 -5.27486 -2.9974 0
M  V30 15557 H 1410.95 -4.03685 -2.73659 0
M  V30 15558 H 1409.96 -5.42446 -0.89623 0
M  V30 15559 H 1411.18 -6.68758 -1.18064 0
M  V30 15560 H 1409.13 -5.72283 -3.20668 0
M  V30 15561 H 1409.04 -7.20024 -2.30438 0
M  V30 15562 H 1410.31 -6.97869 -3.47273 0
M  V30 15563 N 1414.54 -0.0635198 -1.57472 0
M  V30 15564 C 1415.79 0.607008 -1.92349 0
M  V30 15565 C 1416.1 1.71268 -0.944806 0
M  V30 15566 O 1417.31 2.44221 -1.18609 0
M  V30 15567 C 1415.77 1.13105 -3.41666 0
M  V30 15568 C 1415.37 0.0568256 -4.47964 0
M  V30 15569 C 1417.12 1.77611 -3.85557 0
M  V30 15570 C 1415.02 0.594443 -5.88405 0
M  V30 15571 H 1413.95 0.230506 -0.717902 0
M  V30 15572 H 1416.61 -0.134413 -1.83007 0
M  V30 15573 H 1414.99 1.92517 -3.46054 0
M  V30 15574 H 1416.16 -0.717371 -4.55182 0
M  V30 15575 H 1414.48 -0.491517 -4.13489 0
M  V30 15576 H 1417.07 2.18852 -4.87861 0
M  V30 15577 H 1417.42 2.6328 -3.22474 0
M  V30 15578 H 1417.95 1.04834 -3.83738 0
M  V30 15579 H 1414.69 -0.224893 -6.55114 0
M  V30 15580 H 1414.21 1.33635 -5.84724 0
M  V30 15581 H 1415.89 1.07346 -6.38033 0
M  V30 15582 N 1416.02 1.56195 0.209972 0
M  V30 15583 C 1417.24 1.84189 0.953364 0
M  V30 15584 C 1417.67 0.645288 1.76685 0
M  V30 15585 O 1417.03 -0.405962 1.76696 0
M  V30 15586 C 1417.08 3.10281 1.83733 0
M  V30 15587 O 1416.18 2.89788 2.93422 0
M  V30 15588 H 1415.52 0.606931 0.269314 0
M  V30 15589 H 1418.05 2.03416 0.219783 0
M  V30 15590 H 1418.06 3.40688 2.2449 0
M  V30 15591 H 1416.74 3.97 1.23951 0
M  V30 15592 H 1415.31 2.70643 2.56528 0
M  V30 15593 N 1417.5 -0.477127 1.50204 0
M  V30 15594 C 1418.73 -1.25307 1.64638 0
M  V30 15595 C 1419.14 -1.85942 0.327274 0
M  V30 15596 O 1418.5 -1.6895 -0.690088 0
M  V30 15597 C 1418.55 -2.36616 2.73304 0
M  V30 15598 O 1418.27 -1.78469 4.00101 0
M  V30 15599 C 1419.77 -3.27595 2.98658 0
M  V30 15600 H 1416.99 -0.379192 0.553583 0
M  V30 15601 H 1419.53 -0.5702 1.9639 0
M  V30 15602 H 1417.69 -3.00689 2.44264 0
M  V30 15603 H 1418.1 -2.51722 4.60148 0
M  V30 15604 H 1419.58 -4.01921 3.7837 0
M  V30 15605 H 1420.05 -3.86017 2.09493 0
M  V30 15606 H 1420.66 -2.69264 3.29206 0
M  V30 15607 N 1418.98 -1.3968 -0.729882 0
M  V30 15608 C 1420.2 -1.40654 -1.52418 0
M  V30 15609 C 1420.63 -0.00428997 -1.881 0
M  V30 15610 O 1419.98 0.984023 -1.52272 0
M  V30 15611 C 1420.03 -2.29057 -2.78506 0
M  V30 15612 O 1419.14 -1.72397 -3.74637 0
M  V30 15613 H 1418.48 -0.478761 -0.460091 0
M  V30 15614 H 1421.01 -1.83738 -0.900087 0
M  V30 15615 H 1421.02 -2.43748 -3.27187 0
M  V30 15616 H 1419.69 -3.30961 -2.51868 0
M  V30 15617 H 1418.27 -1.66977 -3.33426 0
M  V30 15618 N 1420.45 0.960609 -1.2494 0
M  V30 15619 C 1421.38 2.074 -1.07274 0
M  V30 15620 C 1422.37 1.70092 0.0164365 0
M  V30 15621 O 1423.55 1.93604 -0.151975 0
M  V30 15622 C 1420.68 3.40491 -0.684317 0
M  V30 15623 C 1419.63 3.91784 -1.72306 0
M  V30 15624 C 1418.96 5.21301 -1.18949 0
M  V30 15625 C 1420.26 4.18829 -3.12056 0
M  V30 15626 H 1421.95 2.22438 -2.00404 0
M  V30 15627 H 1419.5 1.06888 -0.964937 0
M  V30 15628 H 1421.45 4.17826 -0.547686 0
M  V30 15629 H 1420.18 3.25374 0.282687 0
M  V30 15630 H 1418.84 3.16613 -1.84802 0
M  V30 15631 H 1418.48 5.02549 -0.212892 0
M  V30 15632 H 1418.18 5.56588 -1.8837 0
M  V30 15633 H 1419.71 6.01238 -1.06513 0
M  V30 15634 H 1421.12 4.86844 -3.02748 0
M  V30 15635 H 1419.52 4.6536 -3.78894 0
M  V30 15636 H 1420.59 3.25333 -3.59564 0
M  V30 15637 N 1421.93 1.0643 1.16234 0
M  V30 15638 C 1422.88 0.670457 2.22728 0
M  V30 15639 C 1423.87 -0.31428 1.66459 0
M  V30 15640 O 1425.08 -0.178996 1.79108 0
M  V30 15641 H 1421.46 0.198692 0.725276 0
M  V30 15642 H 1423.43 1.57846 2.53233 0
M  V30 15643 C 1422.18 0.074379 3.4762 0
M  V30 15644 H 1421.5 0.823227 3.91233 0
M  V30 15645 H 1422.94 -0.163652 4.23684 0
M  V30 15646 C 1421.4 -1.18242 3.15469 0
M  V30 15647 O 1421.93 -2.27018 3.314 0
M  V30 15648 N 1420.13 -1.08493 2.69588 0
M  V30 15649 H 1419.68 -0.199714 2.56825 0
M  V30 15650 H 1419.64 -1.92666 2.48449 0
M  V30 15651 N 1423.41 -1.329 0.847073 0
M  V30 15652 C 1424.82 -1.79813 0.502394 0
M  V30 15653 C 1425.17 -1.70017 -0.979218 0
M  V30 15654 O 1424.3 -1.25427 -1.76344 0
M  V30 15655 C 1424.89 -3.26485 0.905154 0
M  V30 15656 C 1423.45 -3.71383 0.612489 0
M  V30 15657 C 1422.6 -2.54157 1.10903 0
M  V30 15658 H 1425.55 -1.20306 1.035 0
M  V30 15659 H 1425.57 -3.79872 0.218476 0
M  V30 15660 H 1425.08 -3.33583 1.98353 0
M  V30 15661 H 1423.18 -3.69806 -0.45548 0
M  V30 15662 H 1423.3 -4.64507 1.17347 0
M  V30 15663 H 1421.66 -2.49134 0.529576 0
M  V30 15664 H 1422.44 -2.64013 2.19435 0
M  V30 15665 N 1424.89 -0.604284 -1.45555 0
M  V30 15666 C 1426.14 -0.0979922 -2.01862 0
M  V30 15667 C 1426.46 1.27476 -1.47563 0
M  V30 15668 O 1425.73 1.84137 -0.668612 0
M  V30 15669 H 1424.31 -0.033235 -0.74626 0
M  V30 15670 H 1426.97 -0.784936 -1.78395 0
M  V30 15671 H 1426.07 -0.0452716 -3.12067 0
M  V30 15672 N 1426.37 1.53816 -0.343257 0
M  V30 15673 C 1427.31 2.26505 0.529002 0
M  V30 15674 C 1428.31 1.28639 1.1022 0
M  V30 15675 O 1429.51 1.46348 1.04797 0
M  V30 15676 H 1425.89 0.727789 0.189279 0
M  V30 15677 H 1427.86 2.98211 -0.106096 0
M  V30 15678 C 1426.61 3.05062 1.6683 0
M  V30 15679 H 1425.93 3.80198 1.23651 0
M  V30 15680 H 1427.37 3.59138 2.2538 0
M  V30 15681 C 1425.83 2.14543 2.59756 0
M  V30 15682 O 1426.36 1.74132 3.61996 0
M  V30 15683 N 1424.57 1.79628 2.28434 0
M  V30 15684 H 1424.11 2.12688 1.45332 0
M  V30 15685 H 1424.07 1.19345 2.90868 0
M  V30 15686 N 1427.84 0.0718701 1.57436 0
M  V30 15687 C 1429.26 -0.460784 1.80924 0
M  V30 15688 C 1429.61 -1.69637 0.985781 0
M  V30 15689 O 1428.73 -2.15395 0.208319 0
M  V30 15690 C 1429.33 -0.842738 3.28151 0
M  V30 15691 C 1427.89 -1.32026 3.52486 0
M  V30 15692 C 1427.03 -0.305466 2.75612 0
M  V30 15693 H 1429.98 0.297566 1.55885 0
M  V30 15694 H 1430 -1.70414 3.40205 0
M  V30 15695 H 1429.52 0.056733 3.88059 0
M  V30 15696 H 1427.62 -2.23822 2.97883 0
M  V30 15697 H 1427.73 -1.29813 4.61178 0
M  V30 15698 H 1426.09 -0.782758 2.42374 0
M  V30 15699 H 1426.88 0.586279 3.38257 0
M  V30 15700 N 1429.32 -1.56304 -0.201686 0
M  V30 15701 C 1430.57 -1.80504 -0.92446 0
M  V30 15702 C 1430.9 -0.644832 -1.83182 0
M  V30 15703 O 1430.18 0.354963 -1.91234 0
M  V30 15704 C 1430.46 -3.14919 -1.74636 0
M  V30 15705 C 1430.31 -4.41421 -0.864169 0
M  V30 15706 C 1431.63 -3.45962 -2.72026 0
M  V30 15707 H 1428.75 -0.656643 -0.334648 0
M  V30 15708 H 1431.39 -1.89025 -0.192188 0
M  V30 15709 H 1429.54 -3.07785 -2.37066 0
M  V30 15710 H 1431.21 -4.60594 -0.255084 0
M  V30 15711 H 1429.46 -4.33465 -0.170548 0
M  V30 15712 H 1430.13 -5.31954 -1.47409 0
M  V30 15713 H 1432.6 -3.53353 -2.1973 0
M  V30 15714 H 1431.48 -4.41146 -3.26622 0
M  V30 15715 H 1431.74 -2.69124 -3.50749 0
M  V30 15716 N 1430.8 0.469154 -1.50455 0
M  V30 15717 C 1431.75 1.58765 -1.6999 0
M  V30 15718 C 1432.74 1.59673 -0.56577 0
M  V30 15719 O 1433.95 1.63799 -0.74632 0
M  V30 15720 H 1430.32 0.526868 -0.536577 0
M  V30 15721 H 1432.29 1.39451 -2.6381 0
M  V30 15722 C 1431.04 2.9669 -1.81302 0
M  V30 15723 H 1430.37 2.96711 -2.67961 0
M  V30 15724 H 1431.81 3.74403 -1.98994 0
M  V30 15725 C 1430.27 3.32127 -0.565086 0
M  V30 15726 O 1430.8 4.00616 0.294873 0
M  V30 15727 N 1429 2.8757 -0.418537 0
M  V30 15728 H 1428.55 2.32008 -1.11938 0
M  V30 15729 H 1428.51 3.11645 0.415276 0
M  V30 15730 N 1432.28 1.40065 0.722464 0
M  V30 15731 C 1433.23 1.39947 1.85789 0
M  V30 15732 C 1434.22 0.28089 1.67055 0
M  V30 15733 O 1435.43 0.451575 1.74244 0
M  V30 15734 H 1431.8 0.437296 0.611781 0
M  V30 15735 H 1433.77 2.35695 1.83004 0
M  V30 15736 C 1432.52 1.27218 3.2359 0
M  V30 15737 H 1431.84 2.12566 3.38609 0
M  V30 15738 H 1433.28 1.31194 4.03192 0
M  V30 15739 C 1431.74 -0.0182466 3.36895 0
M  V30 15740 O 1432.27 -0.983761 3.89468 0
M  V30 15741 N 1430.48 -0.0854707 2.90474 0
M  V30 15742 H 1430.03 0.700953 2.4788 0
M  V30 15743 H 1429.98 -0.948367 2.99755 0
M  V30 15744 N 1433.76 -0.95397 1.25448 0
M  V30 15745 C 1434.69 -2.05412 1.01679 0
M  V30 15746 C 1435.7 -1.62789 -0.0184932 0
M  V30 15747 O 1436.89 -1.77137 0.220136 0
M  V30 15748 C 1433.99 -3.3496 0.515292 0
M  V30 15749 C 1433.16 -4.06418 1.61688 0
M  V30 15750 C 1432.22 -5.14237 1.11564 0
M  V30 15751 O 1431.25 -5.39649 1.81017 0
M  V30 15752 N 1432.45 -5.80484 -0.0427228 0
M  V30 15753 H 1435.22 -2.26372 1.96407 0
M  V30 15754 H 1432.78 -1.12257 1.16662 0
M  V30 15755 H 1434.77 -4.04366 0.164426 0
M  V30 15756 H 1433.34 -3.10767 -0.33807 0
M  V30 15757 H 1432.56 -3.31101 2.1393 0
M  V30 15758 H 1433.85 -4.50917 2.35693 0
M  V30 15759 H 1433.25 -5.62259 -0.623038 0
M  V30 15760 H 1431.8 -6.50941 -0.334615 0
M  V30 15761 N 1435.24 -1.07045 -1.15668 0
M  V30 15762 C 1436.48 -0.786751 -1.85723 0
M  V30 15763 C 1436.8 0.689604 -1.83041 0
M  V30 15764 O 1438 1.08796 -2.48748 0
M  V30 15765 C 1436.46 -1.35729 -3.33325 0
M  V30 15766 C 1436.07 -2.86444 -3.44462 0
M  V30 15767 C 1437.81 -1.15148 -4.08584 0
M  V30 15768 C 1435.72 -3.36705 -4.86193 0
M  V30 15769 H 1434.65 -0.29063 -0.695737 0
M  V30 15770 H 1437.3 -1.29012 -1.30492 0
M  V30 15771 H 1435.68 -0.781671 -3.88209 0
M  V30 15772 H 1436.86 -3.50023 -2.997 0
M  V30 15773 H 1435.17 -3.0578 -2.82644 0
M  V30 15774 H 1437.77 -1.50179 -5.13177 0
M  V30 15775 H 1438.11 -0.0903159 -4.16202 0
M  V30 15776 H 1438.64 -1.6933 -3.59962 0
M  V30 15777 H 1435.38 -4.42333 -4.83758 0
M  V30 15778 H 1434.9 -2.77877 -5.31549 0
M  V30 15779 H 1436.58 -3.32478 -5.55038 0
M  V30 15780 N 1436.71 1.32449 -0.85411 0
M  V30 15781 C 1437.96 1.97271 -0.457223 0
M  V30 15782 C 1438.29 1.67595 0.987031 0
M  V30 15783 O 1437.54 0.956301 1.70744 0
M  V30 15784 C 1437.84 3.51577 -0.642499 0
M  V30 15785 C 1437.51 4.01239 -2.05714 0
M  V30 15786 C 1436.17 4.14512 -2.44405 0
M  V30 15787 C 1438.52 4.27573 -2.98046 0
M  V30 15788 C 1435.85 4.5146 -3.74701 0
M  V30 15789 C 1438.2 4.65979 -4.27839 0
M  V30 15790 C 1436.87 4.77458 -4.66465 0
M  V30 15791 H 1436.14 0.721865 -0.16731 0
M  V30 15792 H 1438.78 1.57862 -1.08406 0
M  V30 15793 H 1437.09 3.91742 0.0675706 0
M  V30 15794 H 1438.79 3.99757 -0.315473 0
M  V30 15795 H 1435.38 3.91393 -1.74669 0
M  V30 15796 H 1439.56 4.16827 -2.69386 0
M  V30 15797 H 1434.82 4.58542 -4.04412 0
M  V30 15798 H 1438.99 4.8531 -4.99447 0
M  V30 15799 H 1436.62 5.05845 -5.67472 0
M  V30 15800 N 1438.19 0.611994 1.45232 0
M  V30 15801 C 1439.12 -0.0914869 2.33321 0
M  V30 15802 C 1440.1 -0.854315 1.4709 0
M  V30 15803 O 1441.29 -0.823994 1.75852 0
M  V30 15804 C 1438.42 -1.08652 3.29867 0
M  V30 15805 C 1437.37 -0.436615 4.25767 0
M  V30 15806 C 1436.7 -1.54021 5.12037 0
M  V30 15807 C 1438 0.645005 5.18302 0
M  V30 15808 H 1439.69 0.644053 2.92391 0
M  V30 15809 H 1437.24 0.311171 1.40598 0
M  V30 15810 H 1439.19 -1.58726 3.90364 0
M  V30 15811 H 1437.91 -1.85271 2.68965 0
M  V30 15812 H 1436.57 0.0432918 3.66574 0
M  V30 15813 H 1436.22 -2.29679 4.475 0
M  V30 15814 H 1435.92 -1.11084 5.77005 0
M  V30 15815 H 1437.45 -2.04313 5.75403 0
M  V30 15816 H 1438.86 0.228166 5.72846 0
M  V30 15817 H 1437.26 0.996387 5.9177 0
M  V30 15818 H 1438.33 1.51985 4.60466 0
M  V30 15819 N 1439.67 -1.53632 0.351409 0
M  V30 15820 C 1440.6 -2.2284 -0.536204 0
M  V30 15821 C 1441.61 -1.23765 -1.05764 0
M  V30 15822 O 1442.8 -1.50073 -0.966449 0
M  V30 15823 C 1439.9 -2.9013 -1.75151 0
M  V30 15824 C 1439.08 -4.15588 -1.36401 0
M  V30 15825 C 1438.14 -4.66217 -2.43984 0
M  V30 15826 O 1437.16 -5.3024 -2.06964 0
M  V30 15827 N 1438.36 -4.42817 -3.75358 0
M  V30 15828 H 1441.13 -2.99647 0.0565368 0
M  V30 15829 H 1438.69 -1.60942 0.175905 0
M  V30 15830 H 1440.68 -3.20913 -2.4657 0
M  V30 15831 H 1439.25 -2.16862 -2.25144 0
M  V30 15832 H 1438.47 -3.91264 -0.480258 0
M  V30 15833 H 1439.76 -4.97179 -1.08121 0
M  V30 15834 H 1439.16 -3.9163 -4.08218 0
M  V30 15835 H 1437.71 -4.78186 -4.42924 0
M  V30 15836 N 1441.15 -0.0802183 -1.57396 0
M  V30 15837 C 1442.06 0.898597 -2.16708 0
M  V30 15838 C 1443.07 1.321 -1.1325 0
M  V30 15839 O 1444.25 1.39197 -1.45554 0
M  V30 15840 C 1441.31 2.14501 -2.72379 0
M  V30 15841 C 1440.38 1.77822 -3.9074 0
M  V30 15842 C 1439.61 2.96521 -4.43747 0
M  V30 15843 O 1439.83 4.10797 -3.9573 0
M  V30 15844 O 1438.77 2.75849 -5.34968 0
M  V30 15845 H 1442.59 0.424027 -3.00725 0
M  V30 15846 H 1440.18 0.14332 -1.48711 0
M  V30 15847 H 1442.06 2.87575 -3.08024 0
M  V30 15848 H 1440.73 2.61039 -1.91416 0
M  V30 15849 H 1439.64 1.01974 -3.59934 0
M  V30 15850 H 1440.97 1.36059 -4.73021 0
M  V30 15851 N 1442.63 1.56409 0.193394 0
M  V30 15852 C 1443.86 1.84569 0.928328 0
M  V30 15853 C 1444.26 0.660788 1.77286 0
M  V30 15854 O 1443.61 -0.379752 1.79732 0
M  V30 15855 C 1443.67 3.06854 1.87299 0
M  V30 15856 C 1443.33 4.40684 1.21025 0
M  V30 15857 C 1444.33 5.16583 0.58635 0
M  V30 15858 C 1442.01 4.87419 1.21359 0
M  V30 15859 C 1444.01 6.37395 -0.0253573 0
M  V30 15860 C 1441.7 6.08167 0.598052 0
M  V30 15861 C 1442.69 6.82997 -0.0203414 0
M  V30 15862 O 1442.38 8.01457 -0.626232 0
M  V30 15863 H 1442.11 0.616966 0.276277 0
M  V30 15864 H 1444.67 2.04373 0.205102 0
M  V30 15865 H 1442.9 2.82938 2.63596 0
M  V30 15866 H 1444.59 3.21645 2.47587 0
M  V30 15867 H 1445.35 4.81569 0.575894 0
M  V30 15868 H 1441.23 4.29129 1.68432 0
M  V30 15869 H 1444.78 6.95743 -0.508644 0
M  V30 15870 H 1440.67 6.42649 0.606017 0
M  V30 15871 H 1441.44 8.16825 -0.523305 0
M  V30 15872 N 1444.1 -0.461169 1.50702 0
M  V30 15873 C 1445.35 -1.21431 1.62427 0
M  V30 15874 C 1445.68 -1.91406 0.328228 0
M  V30 15875 O 1444.96 -1.82563 -0.670898 0
M  V30 15876 C 1445.24 -2.25016 2.8114 0
M  V30 15877 C 1445.09 -1.5928 4.20654 0
M  V30 15878 C 1446.41 -3.26234 2.95397 0
M  V30 15879 H 1443.53 -0.440113 0.59116 0
M  V30 15880 H 1446.17 -0.506726 1.83118 0
M  V30 15881 H 1444.32 -2.85363 2.63629 0
M  V30 15882 H 1446 -1.02454 4.49779 0
M  V30 15883 H 1444.24 -0.895665 4.24453 0
M  V30 15884 H 1444.91 -2.34602 4.99666 0
M  V30 15885 H 1447.39 -2.7592 3.1146 0
M  V30 15886 H 1446.26 -3.96031 3.80067 0
M  V30 15887 H 1446.52 -3.90943 2.06436 0
M  V30 15888 N 1445.58 -1.40446 -0.715026 0
M  V30 15889 C 1446.54 -1.40506 -1.81082 0
M  V30 15890 C 1447.54 -0.298768 -1.58 0
M  V30 15891 O 1448.73 -0.5577 -1.65031 0
M  V30 15892 C 1445.87 -1.19735 -3.19181 0
M  V30 15893 H 1447.06 -2.38034 -1.82427 0
M  V30 15894 H 1444.61 -1.26303 -0.920718 0
M  V30 15895 H 1445.35 -0.229695 -3.23486 0
M  V30 15896 H 1445.13 -1.99871 -3.37334 0
M  V30 15897 H 1446.62 -1.22566 -3.99208 0
M  V30 15898 N 1447.06 0.947303 -1.25952 0
M  V30 15899 C 1448.01 2.06642 -1.06779 0
M  V30 15900 C 1449 1.694 0.00348362 0
M  V30 15901 O 1450.21 1.79351 -0.152715 0
M  V30 15902 H 1446.58 0.676499 -0.32841 0
M  V30 15903 H 1448.55 2.19968 -2.01635 0
M  V30 15904 C 1447.3 3.40353 -0.711015 0
M  V30 15905 H 1446.63 3.69483 -1.52718 0
M  V30 15906 H 1448.07 4.19493 -0.616606 0
M  V30 15907 C 1446.52 3.3181 0.58344 0
M  V30 15908 O 1447.05 3.67431 1.6235 0
M  V30 15909 N 1445.26 2.84919 0.571797 0
M  V30 15910 H 1444.81 2.56128 -0.274962 0
M  V30 15911 H 1444.77 2.79586 1.43803 0
M  V30 15912 N 1448.54 1.07657 1.15099 0
M  V30 15913 C 1449.47 0.721201 2.22083 0
M  V30 15914 C 1450.45 -0.292808 1.67561 0
M  V30 15915 O 1451.63 -0.164872 1.93499 0
M  V30 15916 C 1448.76 0.12153 3.47087 0
M  V30 15917 C 1447.72 1.06303 4.14588 0
M  V30 15918 C 1447.04 0.325964 5.33706 0
M  V30 15919 C 1448.34 2.39796 4.63999 0
M  V30 15920 H 1450.04 1.61566 2.52065 0
M  V30 15921 H 1447.58 0.778282 1.21156 0
M  V30 15922 H 1449.54 -0.139037 4.21171 0
M  V30 15923 H 1448.26 -0.808022 3.16447 0
M  V30 15924 H 1446.92 1.30858 3.4245 0
M  V30 15925 H 1446.57 -0.607147 4.99322 0
M  V30 15926 H 1446.27 0.953552 5.79811 0
M  V30 15927 H 1447.79 0.0732695 6.10556 0
M  V30 15928 H 1449.21 2.19552 5.29594 0
M  V30 15929 H 1447.6 2.98178 5.20778 0
M  V30 15930 H 1448.67 3.01876 3.79472 0
M  V30 15931 N 1450.02 -1.31994 0.861122 0
M  V30 15932 C 1450.95 -2.31214 0.325963 0
M  V30 15933 C 1451.93 -1.59965 -0.578383 0
M  V30 15934 O 1453.11 -1.87726 -0.497268 0
M  V30 15935 C 1450.24 -3.43953 -0.481001 0
M  V30 15936 C 1449.2 -4.2673 0.329474 0
M  V30 15937 C 1448.52 -5.31293 -0.602627 0
M  V30 15938 C 1449.82 -4.98498 1.55874 0
M  V30 15939 H 1451.52 -2.76223 1.15503 0
M  V30 15940 H 1449.06 -1.32797 0.556856 0
M  V30 15941 H 1451.02 -4.12409 -0.86585 0
M  V30 15942 H 1449.74 -2.97687 -1.3435 0
M  V30 15943 H 1448.4 -3.59929 0.696159 0
M  V30 15944 H 1448.05 -4.8128 -1.46215 0
M  V30 15945 H 1447.75 -5.87565 -0.0643044 0
M  V30 15946 H 1449.27 -6.02611 -0.984512 0
M  V30 15947 H 1450.68 -5.596 1.24583 0
M  V30 15948 H 1449.08 -5.64525 2.03548 0
M  V30 15949 H 1450.15 -4.25991 2.31646 0
M  V30 15950 N 1451.49 -0.619688 -1.44906 0
M  V30 15951 C 1452.44 0.0920359 -2.30616 0
M  V30 15952 C 1453.41 0.848114 -1.42815 0
M  V30 15953 O 1454.6 0.831439 -1.71732 0
M  V30 15954 C 1451.74 1.07537 -3.27917 0
M  V30 15955 C 1450.85 0.318904 -4.30821 0
M  V30 15956 C 1449.98 1.29303 -5.15222 0
M  V30 15957 C 1449.02 0.525071 -6.09844 0
M  V30 15958 N 1448.16 1.44909 -6.86983 0
M  V30 15959 H 1453 -0.644834 -2.9094 0
M  V30 15960 H 1450.54 -0.329785 -1.43356 0
M  V30 15961 H 1452.5 1.65874 -3.82808 0
M  V30 15962 H 1451.13 1.7795 -2.6932 0
M  V30 15963 H 1450.18 -0.380192 -3.78495 0
M  V30 15964 H 1451.49 -0.279742 -4.98015 0
M  V30 15965 H 1450.64 1.94809 -5.74573 0
M  V30 15966 H 1449.38 1.92561 -4.48076 0
M  V30 15967 H 1448.39 -0.14355 -5.49613 0
M  V30 15968 H 1449.61 -0.102625 -6.79022 0
M  V30 15969 H 1447.56 2.06908 -6.22515 0
M  V30 15970 H 1447.48 0.90418 -7.50574 0
M  V30 15971 H 1448.74 2.09335 -7.50866 0
M  V30 15972 N 1452.97 1.53444 -0.359552 0
M  V30 15973 C 1454.2 2.06058 0.235576 0
M  V30 15974 C 1454.62 1.23175 1.42161 0
M  V30 15975 O 1453.98 0.249338 1.79577 0
M  V30 15976 C 1454.03 3.55351 0.613025 0
M  V30 15977 O 1453.13 3.75229 1.71104 0
M  V30 15978 H 1452.47 0.663038 0.0357266 0
M  V30 15979 H 1455 1.97923 -0.518408 0
M  V30 15980 H 1455.01 3.9827 0.885722 0
M  V30 15981 H 1453.69 4.15122 -0.254243 0
M  V30 15982 H 1452.27 3.4421 1.43437 0
M  V30 15983 N 1454.45 0.0885642 1.57351 0
M  V30 15984 C 1455.41 -0.858178 2.12528 0
M  V30 15985 C 1456.41 -1.21522 1.05304 0
M  V30 15986 O 1457.6 -1.14573 1.3122 0
M  V30 15987 C 1454.74 -2.15619 2.64048 0
M  V30 15988 H 1455.93 -0.37918 2.97493 0
M  V30 15989 H 1453.48 -0.160354 1.55475 0
M  V30 15990 H 1454.22 -2.68018 1.82584 0
M  V30 15991 H 1454 -1.90995 3.42437 0
M  V30 15992 H 1455.49 -2.83359 3.06753 0
M  V30 15993 N 1455.93 -1.56509 -0.185096 0
M  V30 15994 C 1457.18 -1.81206 -0.903924 0
M  V30 15995 C 1457.5 -0.663423 -1.82836 0
M  V30 15996 O 1456.76 0.350211 -1.92541 0
M  V30 15997 C 1457.06 -3.11968 -1.74387 0
M  V30 15998 C 1456.72 -4.40353 -0.969552 0
M  V30 15999 C 1455.39 -4.75227 -0.755799 0
M  V30 16000 C 1457.74 -5.19461 -0.425443 0
M  V30 16001 C 1455.07 -5.86698 0.0133856 0
M  V30 16002 C 1457.42 -6.31736 0.330582 0
M  V30 16003 C 1456.08 -6.65187 0.555262 0
M  V30 16004 H 1455.35 -0.663078 -0.330769 0
M  V30 16005 H 1458 -1.90747 -0.169673 0
M  V30 16006 H 1456.3 -2.97708 -2.5471 0
M  V30 16007 H 1458 -3.28284 -2.30284 0
M  V30 16008 H 1454.59 -4.1299 -1.14618 0
M  V30 16009 H 1458.77 -4.92923 -0.577959 0
M  V30 16010 H 1454.03 -6.11081 0.197335 0
M  V30 16011 H 1458.2 -6.92246 0.759523 0
M  V30 16012 H 1455.83 -7.51403 1.15318 0
M  V30 16013 N 1457.41 0.45317 -1.50944 0
M  V30 16014 C 1458.82 1.03354 -1.55482 0
M  V30 16015 C 1459.17 1.92701 -0.368873 0
M  V30 16016 O 1458.29 2.10153 0.516208 0
M  V30 16017 C 1458.89 1.88118 -2.81775 0
M  V30 16018 C 1457.45 2.41232 -2.88936 0
M  V30 16019 C 1456.59 1.20032 -2.49975 0
M  V30 16020 H 1459.55 0.235059 -1.5695 0
M  V30 16021 H 1459.57 2.73394 -2.64643 0
M  V30 16022 H 1459.08 1.23064 -3.68072 0
M  V30 16023 H 1457.18 3.09788 -2.07032 0
M  V30 16024 H 1457.29 2.75113 -3.92237 0
M  V30 16025 H 1455.66 1.54072 -2.02815 0
M  V30 16026 H 1456.44 0.56612 -3.386 0
M  V30 16027 N 1458.88 1.40823 0.707568 0
M  V30 16028 C 1459.83 1.38198 1.81343 0
M  V30 16029 C 1460.82 0.258234 1.58814 0
M  V30 16030 O 1462.01 0.497972 1.69851 0
M  V30 16031 C 1459.14 1.25483 3.19545 0
M  V30 16032 C 1458.23 2.42672 3.47809 0
M  V30 16033 N 1458.62 3.6815 3.46842 0
M  V30 16034 C 1456.91 2.36225 3.78304 0
M  V30 16035 C 1457.62 4.45805 3.73675 0
M  V30 16036 N 1456.59 3.75753 3.92824 0
M  V30 16037 H 1460.39 2.33147 1.7894 0
M  V30 16038 H 1457.91 1.34709 0.907044 0
M  V30 16039 H 1459.9 1.21684 3.98746 0
M  V30 16040 H 1458.56 0.315081 3.23168 0
M  V30 16041 H 1459.58 4.01201 3.27503 0
M  V30 16042 H 1456.25 1.50659 3.89369 0
M  V30 16043 H 1457.64 5.54692 3.79165 0
M  V30 16044 N 1460.36 -0.94061 1.26453 0
M  V30 16045 C 1461.29 -2.05667 1.10559 0
M  V30 16046 C 1462.27 -1.70097 0.0106258 0
M  V30 16047 O 1463.46 -1.93338 0.182756 0
M  V30 16048 C 1460.59 -3.3936 0.7384 0
M  V30 16049 C 1459.54 -3.88993 1.78517 0
M  V30 16050 C 1458.87 -5.19343 1.27228 0
M  V30 16051 C 1460.17 -4.13812 3.1868 0
M  V30 16052 H 1461.86 -2.19221 2.03918 0
M  V30 16053 H 1459.41 -1.05339 0.98182 0
M  V30 16054 H 1461.36 -4.16902 0.61409 0
M  V30 16055 H 1460.09 -3.25783 -0.230887 0
M  V30 16056 H 1458.74 -3.13633 1.89816 0
M  V30 16057 H 1458.39 -5.02147 0.292816 0
M  V30 16058 H 1458.09 -5.53521 1.97201 0
M  V30 16059 H 1459.62 -5.99468 1.16065 0
M  V30 16060 H 1461.03 -4.81966 3.10455 0
M  V30 16061 H 1459.43 -4.59273 3.86249 0
M  V30 16062 H 1460.5 -3.19571 3.64695 0
M  V30 16063 N 1461.84 -1.08266 -1.14527 0
M  V30 16064 C 1462.77 -0.669233 -2.19212 0
M  V30 16065 C 1463.79 0.282962 -1.60322 0
M  V30 16066 O 1464.97 0.0708403 -1.78359 0
M  V30 16067 C 1462.07 0.0362509 -3.38881 0
M  V30 16068 C 1461.25 -0.934477 -4.27301 0
M  V30 16069 C 1460.31 -0.264584 -5.25534 0
M  V30 16070 O 1459.33 -0.908543 -5.61902 0
M  V30 16071 N 1460.53 0.98609 -5.72063 0
M  V30 16072 H 1463.3 -1.56982 -2.55297 0
M  V30 16073 H 1460.86 -0.968551 -1.29733 0
M  V30 16074 H 1462.85 0.495309 -4.01658 0
M  V30 16075 H 1461.42 0.838913 -3.01133 0
M  V30 16076 H 1460.64 -1.57241 -3.61481 0
M  V30 16077 H 1461.93 -1.59232 -4.83242 0
M  V30 16078 H 1461.33 1.52904 -5.44644 0
M  V30 16079 H 1459.89 1.38867 -6.36835 0
M  V30 16080 N 1463.32 1.31536 -0.86811 0
M  V30 16081 C 1464.6 1.9149 -0.398866 0
M  V30 16082 C 1464.98 1.79008 1.1189 0
M  V30 16083 O 1464.32 1.19659 1.94664 0
M  V30 16084 C 1464.53 3.37771 -0.878173 0
M  V30 16085 C 1465.88 4.14882 -0.903216 0
M  V30 16086 O 1466.91 3.46545 -0.823703 0
M  V30 16087 O 1465.77 5.36936 -1.01794 0
M  V30 16088 H 1462.86 0.818398 -0.118971 0
M  V30 16089 H 1465.41 1.40216 -0.955899 0
M  V30 16090 H 1464.18 3.40861 -1.9217 0
M  V30 16091 H 1463.8 3.96472 -0.299346 0
M  V30 16092 N 1464.8 0.627364 1.44575 0
M  V30 16093 C 1465.76 -0.0700881 2.29093 0
M  V30 16094 C 1466.76 -0.775969 1.40838 0
M  V30 16095 O 1467.95 -0.621129 1.6275 0
M  V30 16096 C 1465.08 -1.10977 3.2233 0
M  V30 16097 H 1466.28 0.673234 2.92246 0
M  V30 16098 H 1463.83 0.387322 1.51425 0
M  V30 16099 H 1464.56 -1.8832 2.64019 0
M  V30 16100 H 1464.35 -0.607587 3.87364 0
M  V30 16101 H 1465.84 -1.59764 3.8583 0
M  V30 16102 N 1466.28 -1.53251 0.367684 0
M  V30 16103 C 1467.21 -2.23396 -0.512539 0
M  V30 16104 C 1468.22 -1.2488 -1.04446 0
M  V30 16105 O 1469.41 -1.5109 -0.950477 0
M  V30 16106 C 1466.51 -2.91971 -1.72064 0
M  V30 16107 C 1465.68 -4.17011 -1.31986 0
M  V30 16108 C 1464.74 -4.68779 -2.39025 0
M  V30 16109 O 1463.77 -5.32405 -2.01328 0
M  V30 16110 N 1464.97 -4.46773 -3.7064 0
M  V30 16111 H 1467.73 -2.9957 0.0883152 0
M  V30 16112 H 1465.3 -1.60746 0.192966 0
M  V30 16113 H 1467.29 -3.23511 -2.43152 0
M  V30 16114 H 1465.86 -2.19237 -2.22831 0
M  V30 16115 H 1465.08 -3.91751 -0.438732 0
M  V30 16116 H 1466.37 -4.98298 -1.02842 0
M  V30 16117 H 1465.76 -3.95938 -4.04042 0
M  V30 16118 H 1464.32 -4.82857 -4.37827 0
M  V30 16119 N 1467.75 -0.0969077 -1.57302 0
M  V30 16120 C 1469 0.567212 -1.94706 0
M  V30 16121 C 1469.33 1.67721 -0.978937 0
M  V30 16122 O 1468.61 1.94496 -0.0123016 0
M  V30 16123 C 1468.89 1.12069 -3.42217 0
M  V30 16124 C 1468.74 0.015615 -4.49797 0
M  V30 16125 C 1470.06 2.0185 -3.91081 0
M  V30 16126 H 1467.18 0.204716 -0.707997 0
M  V30 16127 H 1469.82 -0.167984 -1.89256 0
M  V30 16128 H 1467.97 1.74723 -3.46993 0
M  V30 16129 H 1469.65 -0.61871 -4.57132 0
M  V30 16130 H 1467.89 -0.650529 -4.28895 0
M  V30 16131 H 1468.56 0.443724 -5.50214 0
M  V30 16132 H 1471.04 1.49098 -3.8847 0
M  V30 16133 H 1469.91 2.37502 -4.94858 0
M  V30 16134 H 1470.17 2.93659 -3.3048 0
M  V30 16135 N 1469.23 1.56605 0.176793 0
M  V30 16136 C 1470.18 1.95985 1.21896 0
M  V30 16137 C 1471.15 0.822983 1.44278 0
M  V30 16138 O 1472.33 1.08266 1.57109 0
M  V30 16139 C 1469.47 2.32029 2.55454 0
M  V30 16140 C 1468.59 3.58867 2.40497 0
M  V30 16141 C 1467.72 3.84148 3.66884 0
M  V30 16142 C 1466.76 5.04352 3.46837 0
M  V30 16143 N 1465.9 5.25794 4.6528 0
M  V30 16144 H 1470.74 2.84829 0.876137 0
M  V30 16145 H 1468.27 1.4094 0.421221 0
M  V30 16146 H 1470.23 2.50947 3.33289 0
M  V30 16147 H 1468.86 1.46301 2.87743 0
M  V30 16148 H 1467.91 3.47893 1.53866 0
M  V30 16149 H 1469.23 4.46859 2.21627 0
M  V30 16150 H 1468.38 4.03404 4.53155 0
M  V30 16151 H 1467.12 2.9452 3.88727 0
M  V30 16152 H 1466.12 4.84999 2.58952 0
M  V30 16153 H 1467.35 5.95505 3.26421 0
M  V30 16154 H 1465.3 4.39117 4.87352 0
M  V30 16155 H 1465.21 6.07999 4.49303 0
M  V30 16156 H 1466.48 5.49524 5.5285 0
M  V30 16157 N 1470.71 -0.445159 1.51182 0
M  V30 16158 C 1471.64 -1.5473 1.74874 0
M  V30 16159 C 1472.62 -1.5923 0.598323 0
M  V30 16160 O 1473.81 -1.75083 0.840219 0
M  V30 16161 C 1470.94 -2.92872 1.86664 0
M  V30 16162 C 1469.89 -3.03235 3.02048 0
M  V30 16163 C 1469.22 -4.43279 2.99012 0
M  V30 16164 C 1470.52 -2.7804 4.42144 0
M  V30 16165 H 1472.21 -1.35156 2.67158 0
M  V30 16166 H 1469.76 -0.648763 1.28558 0
M  V30 16167 H 1471.71 -3.69927 2.01822 0
M  V30 16168 H 1470.43 -3.1366 0.910225 0
M  V30 16169 H 1469.09 -2.28617 2.86583 0
M  V30 16170 H 1468.74 -4.61023 2.01163 0
M  V30 16171 H 1468.44 -4.51144 3.76488 0
M  V30 16172 H 1469.96 -5.22319 3.16252 0
M  V30 16173 H 1471.38 -3.44831 4.58 0
M  V30 16174 H 1469.77 -2.97323 5.21267 0
M  V30 16175 H 1470.84 -1.737 4.52721 0
M  V30 16176 N 1472.19 -1.41197 -0.700089 0
M  V30 16177 C 1473.43 -1.40311 -1.46011 0
M  V30 16178 C 1473.76 -0.0106853 -1.94497 0
M  V30 16179 O 1473.02 0.976648 -1.69588 0
M  V30 16180 C 1473.32 -2.35259 -2.6905 0
M  V30 16181 C 1472.98 -3.82194 -2.39245 0
M  V30 16182 C 1471.64 -4.22223 -2.30827 0
M  V30 16183 C 1474 -4.74983 -2.1457 0
M  V30 16184 C 1471.32 -5.53055 -1.95824 0
M  V30 16185 C 1473.68 -6.0613 -1.81077 0
M  V30 16186 C 1472.34 -6.45185 -1.71151 0
M  V30 16187 H 1471.61 -0.513434 -0.534291 0
M  V30 16188 H 1474.26 -1.73963 -0.800574 0
M  V30 16189 H 1472.56 -1.94845 -3.39915 0
M  V30 16190 H 1474.26 -2.31849 -3.2718 0
M  V30 16191 H 1470.85 -3.50488 -2.4669 0
M  V30 16192 H 1475.03 -4.44864 -2.20021 0
M  V30 16193 H 1470.29 -5.822 -1.86689 0
M  V30 16194 H 1474.46 -6.77533 -1.61002 0
M  V30 16195 H 1472.09 -7.46476 -1.43796 0
M  V30 16196 N 1473.67 0.933891 -1.2695 0
M  V30 16197 C 1474.91 1.6834 -1.13091 0
M  V30 16198 C 1475.24 1.91484 0.32367 0
M  V30 16199 O 1474.52 1.50075 1.23724 0
M  V30 16200 C 1474.8 3.05374 -1.90838 0
M  V30 16201 C 1474.66 2.8951 -3.44244 0
M  V30 16202 C 1475.97 4.05607 -1.70795 0
M  V30 16203 H 1473.09 0.610944 -0.41221 0
M  V30 16204 H 1475.74 1.08416 -1.56032 0
M  V30 16205 H 1473.89 3.56526 -1.54343 0
M  V30 16206 H 1475.56 2.45523 -3.90533 0
M  V30 16207 H 1473.8 2.24981 -3.70899 0
M  V30 16208 H 1474.47 3.86734 -3.93879 0
M  V30 16209 H 1476.95 3.63443 -2.02604 0
M  V30 16210 H 1475.82 4.9949 -2.27597 0
M  V30 16211 H 1476.08 4.37231 -0.654327 0
M  V30 16212 N 1475.14 1.08871 1.13951 0
M  V30 16213 C 1476.37 0.842913 1.88951 0
M  V30 16214 C 1476.79 -0.605348 1.78832 0
M  V30 16215 O 1476.14 -1.41631 1.15095 0
M  V30 16216 C 1476.19 1.26198 3.38757 0
M  V30 16217 O 1475.92 2.65344 3.48603 0
M  V30 16218 C 1477.42 1.04773 4.30741 0
M  V30 16219 H 1474.64 0.303651 0.598362 0
M  V30 16220 H 1477.18 1.44922 1.44284 0
M  V30 16221 H 1475.34 0.699682 3.81029 0
M  V30 16222 H 1475.75 2.82863 4.41688 0
M  V30 16223 H 1477.22 1.39029 5.34205 0
M  V30 16224 H 1477.7 -0.0149046 4.39197 0
M  V30 16225 H 1478.31 1.5957 3.9423 0
M  V30 16226 N 1476.62 -1.31073 0.875073 0
M  V30 16227 C 1477.87 -1.9613 0.487584 0
M  V30 16228 C 1478.19 -1.69482 -0.964407 0
M  V30 16229 O 1477.46 -1.013 -1.67676 0
M  V30 16230 H 1476.04 -0.725649 0.177319 0
M  V30 16231 H 1478.7 -1.59787 1.11598 0
M  V30 16232 H 1477.8 -3.05265 0.649574 0
M  V30 16233 N 1478.1 -0.635022 -1.4424 0
M  V30 16234 C 1479.03 0.0543561 -2.33437 0
M  V30 16235 C 1480.01 0.830807 -1.48431 0
M  V30 16236 O 1481.2 0.795913 -1.77141 0
M  V30 16237 C 1478.33 1.03391 -3.31553 0
M  V30 16238 C 1477.28 0.368824 -4.26408 0
M  V30 16239 C 1476.61 1.45855 -5.14422 0
M  V30 16240 C 1477.91 -0.727381 -5.1721 0
M  V30 16241 H 1479.6 -0.690489 -2.91329 0
M  V30 16242 H 1477.15 -0.3335 -1.40085 0
M  V30 16243 H 1479.1 1.52495 -3.9284 0
M  V30 16244 H 1477.82 1.80969 -2.71878 0
M  V30 16245 H 1476.48 -0.101605 -3.66459 0
M  V30 16246 H 1476.13 2.22531 -4.51098 0
M  V30 16247 H 1475.83 1.0189 -5.78699 0
M  V30 16248 H 1477.35 1.95132 -5.78581 0
M  V30 16249 H 1478.77 -0.319272 -5.7241 0
M  V30 16250 H 1477.17 -1.09041 -5.9011 0
M  V30 16251 H 1478.24 -1.59292 -4.57989 0
M  V30 16252 N 1479.58 1.53054 -0.375806 0
M  V30 16253 C 1480.83 2.01401 0.210673 0
M  V30 16254 C 1481.15 1.26275 1.47935 0
M  V30 16255 O 1480.41 0.347611 1.92588 0
M  V30 16256 C 1480.71 3.53321 0.538419 0
M  V30 16257 C 1480.37 4.46376 -0.637126 0
M  V30 16258 C 1479.04 4.71534 -0.959653 0
M  V30 16259 C 1481.39 5.01364 -1.42421 0
M  V30 16260 C 1478.72 5.4893 -2.07105 0
M  V30 16261 C 1481.07 5.79975 -2.5261 0
M  V30 16262 C 1479.73 6.03416 -2.85386 0
M  V30 16263 H 1479 0.736979 0.0770907 0
M  V30 16264 H 1481.65 1.84574 -0.510376 0
M  V30 16265 H 1479.95 3.6815 1.34062 0
M  V30 16266 H 1481.65 3.88212 1.00461 0
M  V30 16267 H 1478.24 4.2695 -0.375722 0
M  V30 16268 H 1482.42 4.81865 -1.18828 0
M  V30 16269 H 1477.68 5.65309 -2.32886 0
M  V30 16270 H 1481.85 6.21588 -3.14008 0
M  V30 16271 H 1479.48 6.63172 -3.71627 0
M  V30 16272 N 1481.06 0.105248 1.57248 0
M  V30 16273 C 1482.28 -0.567515 1.99484 0
M  V30 16274 C 1482.71 -1.60298 0.984182 0
M  V30 16275 O 1482.06 -1.81242 -0.0459944 0
M  V30 16276 C 1482.11 -1.18271 3.40653 0
M  V30 16277 O 1481.22 -2.29843 3.42412 0
M  V30 16278 H 1480.56 -0.143069 0.648404 0
M  V30 16279 H 1483.09 0.189661 2.03719 0
M  V30 16280 H 1483.1 -1.52157 3.78566 0
M  V30 16281 H 1481.77 -0.424179 4.13731 0
M  V30 16282 H 1480.35 -1.975 3.16304 0
M  V30 16283 N 1482.53 -1.56697 -0.168486 0
M  V30 16284 C 1483.46 -1.99659 -1.21073 0
M  V30 16285 C 1484.45 -0.872625 -1.46011 0
M  V30 16286 O 1485.63 -1.13891 -1.57297 0
M  V30 16287 C 1482.76 -2.35889 -2.54899 0
M  V30 16288 C 1481.71 -3.51272 -2.44524 0
M  V30 16289 C 1481.04 -3.73253 -3.82866 0
M  V30 16290 C 1482.34 -4.84631 -1.94756 0
M  V30 16291 H 1484.03 -2.86974 -0.853593 0
M  V30 16292 H 1481.58 -1.38065 -0.409165 0
M  V30 16293 H 1483.53 -2.64542 -3.28017 0
M  V30 16294 H 1482.26 -1.45486 -2.92406 0
M  V30 16295 H 1480.92 -3.22751 -1.7386 0
M  V30 16296 H 1480.56 -2.80136 -4.17772 0
M  V30 16297 H 1480.26 -4.5089 -3.76792 0
M  V30 16298 H 1481.79 -4.04309 -4.57566 0
M  V30 16299 H 1483.2 -5.12142 -2.5765 0
M  V30 16300 H 1481.6 -5.65925 -1.99623 0
M  V30 16301 H 1482.67 -4.76436 -0.902021 0
M  V30 16302 N 1484.01 0.437135 -1.51416 0
M  V30 16303 C 1484.96 1.55124 -1.73319 0
M  V30 16304 C 1485.95 1.58437 -0.599511 0
M  V30 16305 O 1487.16 1.62179 -0.780896 0
M  V30 16306 H 1483.54 0.515368 -0.547632 0
M  V30 16307 H 1485.51 1.33824 -2.66709 0
M  V30 16308 C 1484.26 2.92778 -1.87554 0
M  V30 16309 H 1483.58 2.9096 -2.74194 0
M  V30 16310 H 1485.02 3.70097 -2.06891 0
M  V30 16311 C 1483.48 3.30854 -0.635408 0
M  V30 16312 O 1484.01 4.01152 0.20983 0
M  V30 16313 N 1482.21 2.86618 -0.47944 0
M  V30 16314 H 1481.76 2.29582 -1.16834 0
M  V30 16315 H 1481.72 3.12456 0.349078 0
M  V30 16316 N 1485.49 1.41566 0.692592 0
M  V30 16317 C 1486.42 1.39582 1.81795 0
M  V30 16318 C 1487.44 0.29754 1.60058 0
M  V30 16319 O 1488.62 0.559463 1.69506 0
M  V30 16320 C 1485.72 1.15506 3.18609 0
M  V30 16321 C 1484.9 2.37432 3.67349 0
M  V30 16322 C 1483.96 2.09168 4.82841 0
M  V30 16323 O 1482.98 2.8223 4.94303 0
M  V30 16324 N 1484.18 1.08377 5.70294 0
M  V30 16325 H 1486.95 2.36577 1.83988 0
M  V30 16326 H 1484.51 1.36216 0.875026 0
M  V30 16327 H 1486.5 0.945452 3.93501 0
M  V30 16328 H 1485.07 0.270987 3.11423 0
M  V30 16329 H 1484.29 2.74076 2.8333 0
M  V30 16330 H 1485.58 3.18661 3.96652 0
M  V30 16331 H 1484.98 0.479122 5.63667 0
M  V30 16332 H 1483.54 0.934042 6.45073 0
M  V30 16333 N 1486.97 -0.927146 1.27443 0
M  V30 16334 C 1488.25 -1.65322 1.04538 0
M  V30 16335 C 1488.63 -2.06886 -0.419694 0
M  V30 16336 O 1487.97 -1.80352 -1.40304 0
M  V30 16337 C 1488.18 -2.85486 2.00746 0
M  V30 16338 C 1489.53 -3.56816 2.30147 0
M  V30 16339 O 1490.56 -2.95613 1.98724 0
M  V30 16340 O 1489.41 -4.67085 2.83714 0
M  V30 16341 H 1486.51 -0.724627 0.398554 0
M  V30 16342 H 1489.05 -0.977633 1.3871 0
M  V30 16343 H 1487.83 -2.51766 2.99549 0
M  V30 16344 H 1487.45 -3.60763 1.67139 0
M  V30 16345 N 1488.45 -1.09474 -1.13372 0
M  V30 16346 C 1489.7 -0.825968 -1.84013 0
M  V30 16347 C 1490.01 0.650623 -1.84462 0
M  V30 16348 O 1491.21 1.03495 -2.51 0
M  V30 16349 C 1489.67 -1.42769 -3.30371 0
M  V30 16350 C 1489.28 -2.93686 -3.38308 0
M  V30 16351 C 1491.02 -1.23788 -4.0605 0
M  V30 16352 C 1488.93 -3.46942 -4.78942 0
M  V30 16353 H 1487.86 -0.305322 -0.689416 0
M  V30 16354 H 1490.51 -1.31751 -1.27726 0
M  V30 16355 H 1488.89 -0.86384 -3.86463 0
M  V30 16356 H 1490.07 -3.56302 -2.92208 0
M  V30 16357 H 1488.38 -3.11706 -2.76094 0
M  V30 16358 H 1490.98 -1.61031 -5.09876 0
M  V30 16359 H 1491.32 -0.178578 -4.15917 0
M  V30 16360 H 1491.85 -1.76927 -3.56289 0
M  V30 16361 H 1488.59 -4.52495 -4.74267 0
M  V30 16362 H 1488.11 -2.8909 -5.25535 0
M  V30 16363 H 1489.79 -3.44176 -5.47861 0
M  V30 16364 N 1489.92 1.30607 -0.882012 0
M  V30 16365 C 1491.34 1.78418 -0.549892 0
M  V30 16366 C 1491.69 1.72553 0.933797 0
M  V30 16367 O 1490.81 1.30058 1.72956 0
M  V30 16368 C 1491.41 3.2397 -0.991398 0
M  V30 16369 C 1489.97 3.69629 -0.710739 0
M  V30 16370 C 1489.11 2.51127 -1.17602 0
M  V30 16371 H 1492.06 1.17519 -1.06653 0
M  V30 16372 H 1492.08 3.79159 -0.319115 0
M  V30 16373 H 1491.6 3.28207 -2.07128 0
M  V30 16374 H 1489.7 3.70883 0.357273 0
M  V30 16375 H 1489.81 4.61232 -1.29621 0
M  V30 16376 H 1488.17 2.47642 -0.595444 0
M  V30 16377 H 1488.96 2.58103 -2.26358 0
M  V30 16378 N 1491.4 0.642663 1.43901 0
M  V30 16379 C 1492.37 -0.0457858 2.29154 0
M  V30 16380 C 1493.37 -0.760988 1.41653 0
M  V30 16381 O 1494.56 -0.603832 1.634 0
M  V30 16382 C 1491.69 -1.07552 3.23489 0
M  V30 16383 H 1492.88 0.704193 2.91515 0
M  V30 16384 H 1490.43 0.403361 1.51006 0
M  V30 16385 H 1491.17 -1.85509 2.66002 0
M  V30 16386 H 1490.95 -0.566468 3.87987 0
M  V30 16387 H 1492.44 -1.55663 3.87503 0
M  V30 16388 N 1492.88 -1.52852 0.383918 0
M  V30 16389 C 1494.13 -2.0151 -0.199989 0
M  V30 16390 C 1494.46 -1.27058 -1.47263 0
M  V30 16391 O 1493.71 -0.357819 -1.92401 0
M  V30 16392 C 1494.01 -3.53602 -0.519674 0
M  V30 16393 C 1493.68 -4.46032 0.660789 0
M  V30 16394 C 1492.34 -4.71018 0.984646 0
M  V30 16395 C 1494.69 -5.00602 1.45077 0
M  V30 16396 C 1492.02 -5.47824 2.10013 0
M  V30 16397 C 1494.37 -5.78627 2.55682 0
M  V30 16398 C 1493.03 -6.01894 2.88582 0
M  V30 16399 H 1492.3 -0.737377 -0.0731812 0
M  V30 16400 H 1494.95 -1.843 0.520157 0
M  V30 16401 H 1493.26 -3.68856 -1.32108 0
M  V30 16402 H 1494.95 -3.88739 -0.984011 0
M  V30 16403 H 1491.54 -4.26745 0.398359 0
M  V30 16404 H 1495.73 -4.81228 1.21381 0
M  V30 16405 H 1490.98 -5.64066 2.3588 0
M  V30 16406 H 1495.16 -6.19914 3.173 0
M  V30 16407 H 1492.78 -6.61192 3.75138 0
M  V30 16408 N 1494.36 -0.113586 -1.5719 0
M  V30 16409 C 1495.31 0.83862 -2.15025 0
M  V30 16410 C 1496.28 1.26726 -1.07376 0
M  V30 16411 O 1497.46 1.34574 -1.35257 0
M  V30 16412 C 1494.6 2.08538 -2.74965 0
M  V30 16413 C 1493.71 1.70559 -3.96905 0
M  V30 16414 C 1492.85 2.90161 -4.44949 0
M  V30 16415 C 1491.89 2.48396 -5.59433 0
M  V30 16416 N 1491.03 3.60894 -6.02246 0
M  V30 16417 H 1495.87 0.338585 -2.9607 0
M  V30 16418 H 1493.4 0.155437 -1.46276 0
M  V30 16419 H 1495.36 2.81579 -3.07846 0
M  V30 16420 H 1493.99 2.56009 -1.96619 0
M  V30 16421 H 1493.04 0.874133 -3.7022 0
M  V30 16422 H 1494.35 1.35863 -4.7994 0
M  V30 16423 H 1493.51 3.71434 -4.7971 0
M  V30 16424 H 1492.25 3.28081 -3.60852 0
M  V30 16425 H 1491.25 1.65555 -5.24282 0
M  V30 16426 H 1492.48 2.116 -6.45292 0
M  V30 16427 H 1490.42 3.98497 -5.21091 0
M  V30 16428 H 1490.34 3.30103 -6.80124 0
M  V30 16429 H 1491.61 4.42622 -6.41643 0
M  V30 16430 N 1495.84 1.56784 0.160173 0
M  V30 16431 C 1496.75 2.00514 1.21783 0
M  V30 16432 C 1497.76 0.918341 1.47792 0
M  V30 16433 O 1498.94 1.22683 1.59721 0
M  V30 16434 C 1496 2.36575 2.53443 0
M  V30 16435 C 1495.07 3.59138 2.35198 0
M  V30 16436 C 1494.3 3.93469 3.6058 0
M  V30 16437 O 1494.52 3.28625 4.6622 0
M  V30 16438 O 1493.46 4.86774 3.54027 0
M  V30 16439 H 1497.28 2.90774 0.876607 0
M  V30 16440 H 1494.87 1.44799 0.367897 0
M  V30 16441 H 1496.75 2.60687 3.31089 0
M  V30 16442 H 1495.42 1.49474 2.87122 0
M  V30 16443 H 1494.33 3.4023 1.55546 0
M  V30 16444 H 1495.66 4.46815 2.0644 0
M  V30 16445 N 1497.32 -0.429099 1.51646 0
M  V30 16446 C 1498.27 -1.52004 1.69937 0
M  V30 16447 C 1499.25 -1.51087 0.5533 0
M  V30 16448 O 1500.44 -1.57401 0.809558 0
M  V30 16449 C 1497.57 -2.90123 1.83531 0
M  V30 16450 C 1496.66 -2.95764 3.03948 0
M  V30 16451 N 1497.05 -2.71135 4.26989 0
M  V30 16452 C 1495.35 -3.26927 3.03372 0
M  V30 16453 C 1496.05 -2.82831 5.08312 0
M  V30 16454 N 1495.02 -3.14856 4.43133 0
M  V30 16455 H 1498.82 -1.31726 2.62727 0
M  V30 16456 H 1496.34 -0.63653 1.49406 0
M  V30 16457 H 1498.34 -3.68618 1.94747 0
M  V30 16458 H 1497 -3.11415 0.919285 0
M  V30 16459 H 1498.01 -2.45906 4.55797 0
M  V30 16460 H 1494.68 -3.53941 2.21432 0
M  V30 16461 H 1496.07 -2.67673 6.1628 0
M  V30 16462 N 1498.79 -1.41931 -0.685074 0
M  V30 16463 C 1499.72 -1.47385 -1.81107 0
M  V30 16464 C 1500.7 -0.331433 -1.6684 0
M  V30 16465 O 1501.89 -0.544331 -1.86415 0
M  V30 16466 C 1499.02 -1.36555 -3.19327 0
M  V30 16467 C 1497.97 -2.48718 -3.48315 0
M  V30 16468 C 1497.3 -2.2295 -4.86002 0
M  V30 16469 C 1498.6 -3.91047 -3.46237 0
M  V30 16470 H 1500.29 -2.41624 -1.768 0
M  V30 16471 H 1497.84 -1.16297 -0.849178 0
M  V30 16472 H 1499.79 -1.38981 -3.97822 0
M  V30 16473 H 1498.52 -0.388063 -3.24286 0
M  V30 16474 H 1497.18 -2.45592 -2.72176 0
M  V30 16475 H 1496.82 -1.23518 -4.87598 0
M  V30 16476 H 1496.52 -2.98116 -5.0636 0
M  V30 16477 H 1498.05 -2.27108 -5.66793 0
M  V30 16478 H 1499.46 -3.95831 -4.14718 0
M  V30 16479 H 1497.86 -4.65981 -3.7813 0
M  V30 16480 H 1498.93 -4.1845 -2.45006 0
M  V30 16481 N 1500.27 0.920374 -1.27933 0
M  V30 16482 C 1501.69 1.19761 -1.05496 0
M  V30 16483 C 1501.89 2.00435 0.206864 0
M  V30 16484 O 1500.94 2.35518 0.910356 0
M  V30 16485 C 1502.26 1.93863 -2.29864 0
M  V30 16486 C 1503.8 2.06773 -2.34976 0
M  V30 16487 C 1504.28 2.84282 -3.59093 0
M  V30 16488 N 1505.77 2.91847 -3.59694 0
M  V30 16489 C 1506.51 3.52303 -4.52404 0
M  V30 16490 N 1506 4.14092 -5.55427 0
M  V30 16491 N 1507.79 3.49778 -4.40013 0
M  V30 16492 H 1499.95 0.381596 -2.08944 0
M  V30 16493 H 1502.21 0.231451 -0.919312 0
M  V30 16494 H 1501.91 1.42008 -3.21756 0
M  V30 16495 H 1501.79 2.94446 -2.35757 0
M  V30 16496 H 1504.18 2.57812 -1.43586 0
M  V30 16497 H 1504.26 1.05388 -2.33082 0
M  V30 16498 H 1503.9 2.33925 -4.50823 0
M  V30 16499 H 1503.83 3.85968 -3.5824 0
M  V30 16500 H 1506.32 2.4794 -2.85191 0
M  V30 16501 H 1506.63 4.58183 -6.22325 0
M  V30 16502 H 1504.98 4.12616 -5.59261 0
M  V30 16503 H 1508.17 3.00712 -3.58733 0
M  V30 16504 H 1508.34 3.96603 -5.12455 0
M  V30 16505 N 1501.75 1.10074 1.1279 0
M  V30 16506 C 1503.03 0.753069 1.80522 0
M  V30 16507 C 1503.41 -0.760982 1.96907 0
M  V30 16508 O 1502.75 -1.68584 1.54245 0
M  V30 16509 C 1502.96 1.49982 3.15129 0
M  V30 16510 C 1504.31 1.66993 3.90382 0
M  V30 16511 O 1505.34 1.46289 3.24774 0
M  V30 16512 O 1504.2 2.01293 5.08078 0
M  V30 16513 H 1501.29 0.271277 0.781241 0
M  V30 16514 H 1503.84 1.20333 1.19658 0
M  V30 16515 H 1502.61 2.53043 2.98471 0
M  V30 16516 H 1502.23 1.04217 3.83699 0
M  V30 16517 N 1503.23 -1.30138 0.888926 0
M  V30 16518 C 1504.47 -1.95989 0.509365 0
M  V30 16519 C 1504.8 -1.70153 -0.942249 0
M  V30 16520 O 1504.06 -1.00123 -1.68148 0
M  V30 16521 C 1504.36 -3.4975 0.735488 0
M  V30 16522 C 1504.02 -3.95644 2.1628 0
M  V30 16523 C 1502.68 -4.07886 2.55309 0
M  V30 16524 C 1505.04 -4.1952 3.09277 0
M  V30 16525 C 1502.36 -4.41367 3.86539 0
M  V30 16526 C 1504.72 -4.54472 4.40043 0
M  V30 16527 C 1503.38 -4.64923 4.7896 0
M  V30 16528 H 1502.65 -0.717175 0.18639 0
M  V30 16529 H 1505.3 -1.54932 1.12553 0
M  V30 16530 H 1503.6 -3.91783 0.0363165 0
M  V30 16531 H 1505.3 -3.9878 0.421351 0
M  V30 16532 H 1501.89 -3.86624 1.84985 0
M  V30 16533 H 1506.07 -4.09539 2.80342 0
M  V30 16534 H 1501.33 -4.47659 4.16427 0
M  V30 16535 H 1505.5 -4.71897 5.12138 0
M  V30 16536 H 1503.13 -4.90622 5.80685 0
M  V30 16537 N 1504.71 -0.650285 -1.43559 0
M  V30 16538 C 1505.64 0.0295939 -2.33481 0
M  V30 16539 C 1506.62 0.815017 -1.49303 0
M  V30 16540 O 1507.8 0.77708 -1.77975 0
M  V30 16541 C 1504.93 0.998683 -3.32631 0
M  V30 16542 C 1503.89 0.323577 -4.26775 0
M  V30 16543 C 1503.21 1.40391 -5.1594 0
M  V30 16544 C 1504.51 -0.782197 -5.1641 0
M  V30 16545 H 1506.21 -0.721349 -2.9058 0
M  V30 16546 H 1503.75 -0.348339 -1.39723 0
M  V30 16547 H 1505.7 1.4832 -3.94435 0
M  V30 16548 H 1504.43 1.78075 -2.73782 0
M  V30 16549 H 1503.09 -0.140467 -3.66331 0
M  V30 16550 H 1502.74 2.17734 -4.53432 0
M  V30 16551 H 1502.44 0.957462 -5.79747 0
M  V30 16552 H 1503.96 1.88985 -5.80618 0
M  V30 16553 H 1505.37 -0.379966 -5.72039 0
M  V30 16554 H 1503.77 -1.15293 -5.88921 0
M  V30 16555 H 1504.84 -1.6414 -4.56274 0
M  V30 16556 N 1506.18 1.52647 -0.392018 0
M  V30 16557 C 1507.43 2.01912 0.18958 0
M  V30 16558 C 1507.76 1.27786 1.46234 0
M  V30 16559 O 1507.04 0.379124 1.90769 0
M  V30 16560 C 1507.32 3.57217 0.454734 0
M  V30 16561 C 1507.17 4.4201 -0.833501 0
M  V30 16562 C 1508.49 4.22146 1.24421 0
M  V30 16563 H 1505.61 0.733909 0.0674281 0
M  V30 16564 H 1508.25 1.82685 -0.52212 0
M  V30 16565 H 1506.4 3.73731 1.06101 0
M  V30 16566 H 1508.08 4.37242 -1.47027 0
M  V30 16567 H 1506.32 4.08912 -1.44823 0
M  V30 16568 H 1506.99 5.48701 -0.602585 0
M  V30 16569 H 1509.47 4.09627 0.731093 0
M  V30 16570 H 1508.34 5.30786 1.39848 0
M  V30 16571 H 1508.6 3.7996 2.26016 0
M  V30 16572 N 1507.66 0.121921 1.57128 0
M  V30 16573 C 1508.59 -0.857725 2.12546 0
M  V30 16574 C 1509.61 -1.22797 1.06886 0
M  V30 16575 O 1510.8 -1.17641 1.34249 0
M  V30 16576 C 1507.9 -2.15869 2.61254 0
M  V30 16577 C 1507.07 -1.95969 3.91043 0
M  V30 16578 C 1506.13 -3.09822 4.2532 0
M  V30 16579 O 1505.15 -2.82608 4.94087 0
M  V30 16580 N 1506.36 -4.36333 3.82875 0
M  V30 16581 H 1509.12 -0.384239 2.97227 0
M  V30 16582 H 1506.68 -0.062416 1.6178 0
M  V30 16583 H 1508.67 -2.91035 2.81213 0
M  V30 16584 H 1507.24 -2.54557 1.81437 0
M  V30 16585 H 1506.46 -1.04979 3.79965 0
M  V30 16586 H 1507.75 -1.79981 4.75904 0
M  V30 16587 H 1507.15 -4.61318 3.27417 0
M  V30 16588 H 1505.71 -5.08362 4.07936 0
M  V30 16589 N 1509.14 -1.56867 -0.151857 0
M  V30 16590 C 1510.39 -1.82273 -0.863689 0
M  V30 16591 C 1510.7 -0.702377 -1.82554 0
M  V30 16592 O 1511.91 -0.841903 -2.58117 0
M  V30 16593 C 1510.36 -3.23046 -1.58649 0
M  V30 16594 C 1509.97 -4.43003 -0.667292 0
M  V30 16595 C 1511.72 -3.57729 -2.28539 0
M  V30 16596 C 1509.62 -5.74798 -1.39144 0
M  V30 16597 H 1508.55 -0.679753 -0.326269 0
M  V30 16598 H 1511.2 -1.8313 -0.116454 0
M  V30 16599 H 1509.59 -3.16561 -2.37918 0
M  V30 16600 H 1510.76 -4.60712 0.0898254 0
M  V30 16601 H 1509.08 -4.16329 -0.0770521 0
M  V30 16602 H 1511.67 -4.53451 -2.83348 0
M  V30 16603 H 1512.02 -2.8355 -3.04803 0
M  V30 16604 H 1512.55 -3.65853 -1.56194 0
M  V30 16605 H 1509.29 -6.52059 -0.670747 0
M  V30 16606 H 1508.81 -5.61032 -2.12139 0
M  V30 16607 H 1510.49 -6.17429 -1.93367 0
M  V30 16608 N 1510.62 0.421051 -1.51871 0
M  V30 16609 C 1511.57 1.5122 -1.74359 0
M  V30 16610 C 1512.54 1.55432 -0.585667 0
M  V30 16611 O 1513.72 1.7219 -0.821912 0
M  V30 16612 C 1510.86 2.88787 -1.88935 0
M  V30 16613 C 1509.97 2.93977 -3.16546 0
M  V30 16614 C 1509.11 4.22768 -3.21622 0
M  V30 16615 C 1508.15 4.21888 -4.43483 0
M  V30 16616 N 1507.28 5.4223 -4.46017 0
M  V30 16617 H 1512.12 1.31348 -2.67492 0
M  V30 16618 H 1509.66 0.637779 -1.32555 0
M  V30 16619 H 1511.62 3.68629 -1.95368 0
M  V30 16620 H 1510.25 3.07181 -0.991942 0
M  V30 16621 H 1509.3 2.06699 -3.19343 0
M  V30 16622 H 1510.61 2.8919 -4.06412 0
M  V30 16623 H 1509.77 5.10995 -3.27061 0
M  V30 16624 H 1508.51 4.30234 -2.29674 0
M  V30 16625 H 1507.51 3.32052 -4.38202 0
M  V30 16626 H 1508.74 4.16072 -5.36713 0
M  V30 16627 H 1506.68 5.50386 -3.56947 0
M  V30 16628 H 1506.6 5.39389 -5.29713 0
M  V30 16629 H 1507.87 6.32443 -4.55671 0
M  V30 16630 N 1512.1 1.42293 0.677538 0
M  V30 16631 C 1513.01 1.47953 1.82063 0
M  V30 16632 C 1514.02 0.36851 1.70053 0
M  V30 16633 O 1515.2 0.618996 1.91652 0
M  V30 16634 C 1512.26 1.3769 3.18186 0
M  V30 16635 C 1511.32 2.59261 3.42173 0
M  V30 16636 C 1510.56 2.49478 4.71801 0
M  V30 16637 O 1510.78 1.52915 5.49521 0
M  V30 16638 O 1509.71 3.39562 4.96972 0
M  V30 16639 H 1513.54 2.4443 1.80244 0
M  V30 16640 H 1511.13 1.24027 0.832932 0
M  V30 16641 H 1513.01 1.34319 3.9942 0
M  V30 16642 H 1511.68 0.443377 3.20649 0
M  V30 16643 H 1510.59 2.68207 2.60798 0
M  V30 16644 H 1511.92 3.51503 3.44538 0
M  V30 16645 N 1513.57 -0.913576 1.28419 0
M  V30 16646 C 1514.82 -1.66273 1.15584 0
M  V30 16647 C 1515.15 -1.92242 -0.295541 0
M  V30 16648 O 1514.4 -1.52104 -1.23137 0
M  V30 16649 C 1514.7 -3.02722 1.89985 0
M  V30 16650 C 1514.37 -2.96413 3.3978 0
M  V30 16651 C 1513.03 -2.94399 3.80635 0
M  V30 16652 C 1515.38 -2.86648 4.35296 0
M  V30 16653 C 1512.71 -2.80422 5.15345 0
M  V30 16654 C 1515.06 -2.74211 5.7008 0
M  V30 16655 C 1513.73 -2.70556 6.1021 0
M  V30 16656 H 1513 -0.608435 0.422951 0
M  V30 16657 H 1515.64 -1.06438 1.59196 0
M  V30 16658 H 1513.95 -3.66344 1.38923 0
M  V30 16659 H 1515.65 -3.59591 1.7747 0
M  V30 16660 H 1512.24 -2.98775 3.07297 0
M  V30 16661 H 1516.42 -2.87291 4.04695 0
M  V30 16662 H 1511.68 -2.75987 5.45565 0
M  V30 16663 H 1515.85 -2.65624 6.43752 0
M  V30 16664 H 1513.48 -2.59483 7.14544 0
M  V30 16665 N 1515.05 -1.1067 -1.12204 0
M  V30 16666 C 1516.02 -0.761145 -2.16193 0
M  V30 16667 C 1517.02 0.215599 -1.59348 0
M  V30 16668 O 1518.21 -0.00786723 -1.74198 0
M  V30 16669 C 1515.34 -0.127863 -3.4066 0
M  V30 16670 H 1516.53 -1.68225 -2.48275 0
M  V30 16671 H 1514.08 -0.907542 -1.27253 0
M  V30 16672 H 1514.82 0.803851 -3.14179 0
M  V30 16673 H 1514.6 -0.83085 -3.83196 0
M  V30 16674 H 1516.09 0.0980593 -4.17485 0
M  V30 16675 N 1516.53 1.29665 -0.895815 0
M  V30 16676 C 1517.78 1.9533 -0.518725 0
M  V30 16677 C 1518.1 1.70995 0.937322 0
M  V30 16678 O 1517.37 1.03955 1.66043 0
M  V30 16679 H 1515.95 0.722736 -0.188841 0
M  V30 16680 H 1518.61 1.57991 -1.14126 0
M  V30 16681 H 1517.71 3.04193 -0.698057 0
M  V30 16682 N 1518.01 0.657889 1.43212 0
M  V30 16683 C 1518.92 -0.0313677 2.34579 0
M  V30 16684 C 1519.93 -0.807153 1.54146 0
M  V30 16685 O 1521.11 -0.753335 1.8678 0
M  V30 16686 C 1518.18 -0.982659 3.32483 0
M  V30 16687 C 1517.24 -0.203288 4.28818 0
M  V30 16688 C 1516.47 -1.10927 5.22045 0
M  V30 16689 O 1516.69 -2.34861 5.19804 0
M  V30 16690 O 1515.63 -0.57916 5.99107 0
M  V30 16691 H 1519.45 0.720808 2.95022 0
M  V30 16692 H 1517.04 0.418083 1.43431 0
M  V30 16693 H 1518.92 -1.52923 3.92673 0
M  V30 16694 H 1517.59 -1.71498 2.74536 0
M  V30 16695 H 1516.5 0.386982 3.72093 0
M  V30 16696 H 1517.83 0.489562 4.89759 0
M  V30 16697 N 1519.49 -1.52437 0.400108 0
M  V30 16698 C 1520.76 -1.94162 -0.23671 0
M  V30 16699 C 1521.14 -1.33636 -1.63416 0
M  V30 16700 O 1520.49 -0.508643 -2.22767 0
M  V30 16701 C 1520.7 -3.48088 -0.252159 0
M  V30 16702 C 1522.05 -4.21925 -0.475887 0
M  V30 16703 O 1523.07 -3.5465 -0.331905 0
M  V30 16704 O 1521.93 -5.41205 -0.758895 0
M  V30 16705 H 1519.03 -0.813294 -0.14994 0
M  V30 16706 H 1521.57 -1.63475 0.455399 0
M  V30 16707 H 1520.34 -3.84501 0.726263 0
M  V30 16708 H 1519.97 -3.8511 -0.988742 0
M  V30 16709 N 1520.96 -0.130252 -1.57061 0
M  V30 16710 C 1522.19 0.532416 -1.99932 0
M  V30 16711 C 1522.61 1.59505 -1.01013 0
M  V30 16712 O 1521.96 1.82499 -0.00463158 0
M  V30 16713 C 1522.02 1.14833 -3.42776 0
M  V30 16714 O 1521.74 0.128163 -4.37912 0
M  V30 16715 C 1523.24 1.89324 -4.00838 0
M  V30 16716 H 1520.46 0.140046 -0.656223 0
M  V30 16717 H 1523 -0.219905 -2.03314 0
M  V30 16718 H 1521.16 1.85137 -3.40298 0
M  V30 16719 H 1521.57 0.577135 -5.21315 0
M  V30 16720 H 1523.04 2.27731 -5.02835 0
M  V30 16721 H 1523.52 2.77277 -3.40608 0
M  V30 16722 H 1524.13 1.23757 -4.06896 0
M  V30 16723 N 1522.44 1.56945 0.143535 0
M  V30 16724 C 1523.67 1.88067 0.874385 0
M  V30 16725 C 1524.09 0.719645 1.73789 0
M  V30 16726 O 1523.45 -0.330654 1.78259 0
M  V30 16727 C 1523.5 3.17795 1.70408 0
M  V30 16728 O 1522.6 3.01973 2.80867 0
M  V30 16729 H 1521.94 0.617808 0.24333 0
M  V30 16730 H 1524.47 2.04165 0.133309 0
M  V30 16731 H 1524.48 3.49903 2.09838 0
M  V30 16732 H 1523.16 4.019 1.07001 0
M  V30 16733 H 1521.74 2.8128 2.44818 0
M  V30 16734 N 1523.92 -0.412991 1.52093 0
M  V30 16735 C 1525.2 -1.17304 1.56522 0
M  V30 16736 C 1525.58 -2.0828 0.343926 0
M  V30 16737 O 1524.93 -2.18473 -0.669475 0
M  V30 16738 C 1525.14 -1.95371 2.89191 0
M  V30 16739 C 1526.48 -2.51571 3.42048 0
M  V30 16740 O 1527.51 -2.05555 2.90905 0
M  V30 16741 O 1526.37 -3.35563 4.31347 0
M  V30 16742 H 1523.46 -0.535386 0.63031 0
M  V30 16743 H 1526.01 -0.420084 1.64418 0
M  V30 16744 H 1524.78 -1.28701 3.69529 0
M  V30 16745 H 1524.4 -2.7768 2.84569 0
M  V30 16746 N 1525.4 -1.4265 -0.669982 0
M  V30 16747 C 1526.33 -1.49298 -1.79534 0
M  V30 16748 C 1527.31 -0.34911 -1.66479 0
M  V30 16749 O 1528.5 -0.564072 -1.85828 0
M  V30 16750 C 1525.63 -1.39935 -3.17861 0
M  V30 16751 C 1524.58 -2.52398 -3.45657 0
M  V30 16752 C 1523.91 -2.28092 -4.8361 0
M  V30 16753 C 1525.21 -3.94697 -3.4207 0
M  V30 16754 H 1526.9 -2.43486 -1.74227 0
M  V30 16755 H 1524.45 -1.17191 -0.836796 0
M  V30 16756 H 1526.4 -1.43193 -3.96325 0
M  V30 16757 H 1525.12 -0.422436 -3.23857 0
M  V30 16758 H 1523.78 -2.48465 -2.69556 0
M  V30 16759 H 1523.43 -1.28683 -4.86261 0
M  V30 16760 H 1523.13 -3.03469 -5.0317 0
M  V30 16761 H 1524.65 -2.33107 -5.64352 0
M  V30 16762 H 1526.07 -4.00207 -4.10496 0
M  V30 16763 H 1524.46 -4.69965 -3.73166 0
M  V30 16764 H 1525.53 -4.21025 -2.40554 0
M  V30 16765 N 1526.88 0.906753 -1.28902 0
M  V30 16766 C 1528.12 1.65658 -1.16464 0
M  V30 16767 C 1528.45 1.92396 0.285342 0
M  V30 16768 O 1527.71 1.52755 1.22329 0
M  V30 16769 C 1528.01 3.0171 -1.91588 0
M  V30 16770 C 1527.67 2.94606 -3.41347 0
M  V30 16771 C 1526.33 2.92376 -3.8219 0
M  V30 16772 C 1528.69 2.84335 -4.3681 0
M  V30 16773 C 1526.01 2.77685 -5.16825 0
M  V30 16774 C 1528.37 2.71184 -5.71526 0
M  V30 16775 C 1527.03 2.67316 -6.11636 0
M  V30 16776 H 1526.3 0.606184 -0.426171 0
M  V30 16777 H 1528.95 1.05592 -1.59758 0
M  V30 16778 H 1527.25 3.65602 -1.40863 0
M  V30 16779 H 1528.95 3.58645 -1.79374 0
M  V30 16780 H 1525.54 2.97141 -3.08878 0
M  V30 16781 H 1529.72 2.85141 -4.06212 0
M  V30 16782 H 1524.98 2.7309 -5.47021 0
M  V30 16783 H 1529.15 2.62206 -6.45152 0
M  V30 16784 H 1526.78 2.5569 -7.1591 0
M  V30 16785 N 1528.36 1.11264 1.11616 0
M  V30 16786 C 1529.29 0.79149 2.19676 0
M  V30 16787 C 1530.27 -0.239351 1.68408 0
M  V30 16788 O 1531.45 -0.103228 1.93925 0
M  V30 16789 C 1528.58 0.231891 3.46525 0
M  V30 16790 C 1527.54 1.19439 4.10997 0
M  V30 16791 C 1526.86 0.495593 5.32398 0
M  V30 16792 C 1528.16 2.54437 4.56135 0
M  V30 16793 H 1529.86 1.69503 2.46797 0
M  V30 16794 H 1527.4 0.816433 1.18619 0
M  V30 16795 H 1529.35 -0.00497468 4.214 0
M  V30 16796 H 1528.08 -0.706938 3.18857 0
M  V30 16797 H 1526.74 1.41686 3.38113 0
M  V30 16798 H 1526.39 -0.447984 5.01001 0
M  V30 16799 H 1526.09 1.13753 5.76484 0
M  V30 16800 H 1527.61 0.267476 6.10014 0
M  V30 16801 H 1529.02 2.36289 5.22341 0
M  V30 16802 H 1527.42 3.14595 5.11028 0
M  V30 16803 H 1528.49 3.13795 3.69676 0
M  V30 16804 N 1529.83 -1.29188 0.902679 0
M  V30 16805 C 1530.74 -2.3138 0.387363 0
M  V30 16806 C 1531.76 -1.66067 -0.519396 0
M  V30 16807 O 1532.94 -1.97219 -0.408257 0
M  V30 16808 C 1530 -3.44675 -0.374137 0
M  V30 16809 C 1529.06 -4.25572 0.564503 0
M  V30 16810 C 1528.29 -5.33458 -0.160748 0
M  V30 16811 O 1528.52 -5.53349 -1.38423 0
M  V30 16812 O 1527.45 -5.99834 0.498259 0
M  V30 16813 H 1531.28 -2.77444 1.23525 0
M  V30 16814 H 1528.86 -1.33679 0.667106 0
M  V30 16815 H 1530.74 -4.13647 -0.80464 0
M  V30 16816 H 1529.42 -3.00714 -1.19804 0
M  V30 16817 H 1528.33 -3.59232 1.04418 0
M  V30 16818 H 1529.66 -4.73184 1.3549 0
M  V30 16819 N 1531.31 -0.665475 -1.42861 0
M  V30 16820 C 1532.22 0.018927 -2.34592 0
M  V30 16821 C 1533.24 0.798967 -1.54572 0
M  V30 16822 O 1534.41 0.743419 -1.87177 0
M  V30 16823 C 1531.48 0.965013 -3.32999 0
M  V30 16824 C 1530.54 0.180544 -4.2892 0
M  V30 16825 C 1529.77 1.08157 -5.22626 0
M  V30 16826 O 1530 2.32101 -5.21043 0
M  V30 16827 O 1528.93 0.54738 -5.99406 0
M  V30 16828 H 1532.76 -0.736444 -2.94636 0
M  V30 16829 H 1530.34 -0.425684 -1.43207 0
M  V30 16830 H 1532.22 1.50839 -3.93479 0
M  V30 16831 H 1530.9 1.7004 -2.75442 0
M  V30 16832 H 1529.8 -0.40671 -3.71883 0
M  V30 16833 H 1531.14 -0.515529 -4.89493 0
M  V30 16834 N 1532.79 1.52222 -0.408187 0
M  V30 16835 C 1534.21 1.59491 -0.0590201 0
M  V30 16836 C 1534.41 1.42109 1.42854 0
M  V30 16837 O 1533.46 1.24757 2.19527 0
M  V30 16838 C 1534.77 2.9557 -0.553093 0
M  V30 16839 C 1536.32 3.08801 -0.510986 0
M  V30 16840 C 1536.8 4.47358 -0.981554 0
M  V30 16841 N 1538.29 4.53596 -0.938335 0
M  V30 16842 C 1539.02 5.59076 -1.27364 0
M  V30 16843 N 1538.52 6.72113 -1.68035 0
M  V30 16844 N 1540.31 5.49279 -1.19367 0
M  V30 16845 H 1532.46 1.61768 -1.37641 0
M  V30 16846 H 1534.73 0.760959 -0.565372 0
M  V30 16847 H 1534.43 3.13566 -1.59276 0
M  V30 16848 H 1534.31 3.77181 0.0377629 0
M  V30 16849 H 1536.69 2.90489 0.519637 0
M  V30 16850 H 1536.77 2.29098 -1.13788 0
M  V30 16851 H 1536.42 4.66413 -2.0105 0
M  V30 16852 H 1536.35 5.25556 -0.331478 0
M  V30 16853 H 1538.84 3.72453 -0.639297 0
M  V30 16854 H 1539.15 7.48586 -1.91934 0
M  V30 16855 H 1537.5 6.73396 -1.71938 0
M  V30 16856 H 1540.69 4.59853 -0.8748 0
M  V30 16857 H 1540.86 6.31378 -1.45829 0
M  V30 16858 N 1534.27 0.138579 1.5699 0
M  V30 16859 C 1535.18 -0.817548 2.19894 0
M  V30 16860 C 1536.19 -1.27806 1.18075 0
M  V30 16861 O 1537.37 -1.33699 1.5062 0
M  V30 16862 C 1534.43 -2.04244 2.80152 0
M  V30 16863 C 1533.5 -1.63197 3.97071 0
M  V30 16864 C 1532.73 -2.79847 4.54446 0
M  V30 16865 O 1532.95 -3.95827 4.10703 0
M  V30 16866 O 1531.89 -2.55804 5.44838 0
M  V30 16867 H 1535.71 -0.312123 3.02092 0
M  V30 16868 H 1533.3 -0.0880281 1.4914 0
M  V30 16869 H 1535.18 -2.75945 3.18485 0
M  V30 16870 H 1533.85 -2.53755 2.00973 0
M  V30 16871 H 1532.76 -0.885448 3.6347 0
M  V30 16872 H 1534.09 -1.1841 4.77745 0
M  V30 16873 N 1535.75 -1.57019 -0.13521 0
M  V30 16874 C 1536.99 -1.83178 -0.844308 0
M  V30 16875 C 1537.31 -0.7217 -1.81799 0
M  V30 16876 O 1538.51 -0.869232 -2.57209 0
M  V30 16877 C 1536.97 -3.2471 -1.55214 0
M  V30 16878 C 1536.58 -4.43685 -0.620268 0
M  V30 16879 C 1538.32 -3.60133 -2.24732 0
M  V30 16880 C 1536.23 -5.76242 -1.3304 0
M  V30 16881 H 1535.16 -0.683175 -0.319041 0
M  V30 16882 H 1537.81 -1.83243 -0.0970242 0
M  V30 16883 H 1536.19 -3.19067 -2.34547 0
M  V30 16884 H 1537.37 -4.60591 0.138685 0
M  V30 16885 H 1535.68 -4.16387 -0.0328906 0
M  V30 16886 H 1538.28 -4.56431 -2.78522 0
M  V30 16887 H 1538.62 -2.86767 -3.01779 0
M  V30 16888 H 1539.15 -3.67489 -1.52305 0
M  V30 16889 H 1535.89 -6.52734 -0.60155 0
M  V30 16890 H 1535.41 -5.63251 -2.06176 0
M  V30 16891 H 1537.09 -6.19445 -1.86808 0
M  V30 16892 N 1537.22 0.404919 -1.52309 0
M  V30 16893 C 1538.19 1.47627 -1.75325 0
M  V30 16894 C 1539.19 1.48234 -0.623153 0
M  V30 16895 O 1540.38 1.49685 -0.891069 0
M  V30 16896 C 1537.51 2.87013 -1.83947 0
M  V30 16897 H 1538.7 1.2851 -2.70971 0
M  V30 16898 H 1536.26 0.635677 -1.42789 0
M  V30 16899 H 1536.99 3.11495 -0.902309 0
M  V30 16900 H 1536.78 2.87974 -2.66108 0
M  V30 16901 H 1538.27 3.64671 -2.03481 0
M  V30 16902 N 1538.7 1.43003 0.662408 0
M  V30 16903 C 1539.63 1.50248 1.78739 0
M  V30 16904 C 1540.61 0.357934 1.66291 0
M  V30 16905 O 1541.8 0.573919 1.85526 0
M  V30 16906 C 1538.93 1.41618 3.17114 0
M  V30 16907 C 1537.88 2.54228 3.44314 0
M  V30 16908 C 1537.21 2.30653 4.82393 0
M  V30 16909 C 1538.51 3.96505 3.39972 0
M  V30 16910 H 1540.2 2.44406 1.72934 0
M  V30 16911 H 1537.75 1.17633 0.830569 0
M  V30 16912 H 1539.7 1.45293 3.9556 0
M  V30 16913 H 1538.43 0.439605 3.23628 0
M  V30 16914 H 1537.08 2.49891 2.68235 0
M  V30 16915 H 1536.73 1.3126 4.85572 0
M  V30 16916 H 1536.43 3.06134 5.01554 0
M  V30 16917 H 1537.96 2.36096 5.63108 0
M  V30 16918 H 1539.37 4.02378 4.08368 0
M  V30 16919 H 1537.77 4.71937 3.70668 0
M  V30 16920 H 1538.84 4.22295 2.38318 0
M  V30 16921 N 1540.18 -0.899904 1.29381 0
M  V30 16922 C 1541.6 -1.18067 1.07388 0
M  V30 16923 C 1541.8 -2.00739 -0.174951 0
M  V30 16924 O 1540.85 -2.36937 -0.872771 0
M  V30 16925 C 1542.17 -1.90182 2.32919 0
M  V30 16926 C 1543.71 -2.03009 2.38236 0
M  V30 16927 C 1544.19 -2.78533 3.6357 0
M  V30 16928 N 1545.68 -2.86088 3.64291 0
M  V30 16929 C 1546.41 -3.45062 4.57952 0
M  V30 16930 N 1545.91 -4.05204 5.61945 0
M  V30 16931 N 1547.7 -3.42734 4.45522 0
M  V30 16932 H 1539.85 -0.348306 2.09525 0
M  V30 16933 H 1542.12 -0.216796 0.922878 0
M  V30 16934 H 1541.82 -1.36871 3.23974 0
M  V30 16935 H 1541.7 -2.90658 2.40412 0
M  V30 16936 H 1544.08 -2.55495 1.47669 0
M  V30 16937 H 1544.17 -1.01666 2.34729 0
M  V30 16938 H 1543.81 -2.26723 4.54488 0
M  V30 16939 H 1543.74 -3.8022 3.64335 0
M  V30 16940 H 1546.23 -2.43372 2.891 0
M  V30 16941 H 1546.54 -4.48225 6.29535 0
M  V30 16942 H 1544.89 -4.03667 5.65755 0
M  V30 16943 H 1548.08 -2.94967 3.63472 0
M  V30 16944 H 1548.25 -3.884 5.187 0
M  V30 16945 N 1541.66 -1.11854 -1.11024 0
M  V30 16946 C 1542.59 -0.738635 -2.16972 0
M  V30 16947 C 1543.6 0.231814 -1.61141 0
M  V30 16948 O 1544.79 0.0140607 -1.78494 0
M  V30 16949 C 1541.89 -0.0715797 -3.38824 0
M  V30 16950 C 1541.07 -1.06995 -4.24112 0
M  V30 16951 C 1540.12 -0.431644 -5.24427 0
M  V30 16952 O 1539.15 -1.08685 -5.58727 0
M  V30 16953 N 1540.35 0.803593 -5.74911 0
M  V30 16954 H 1543.12 -1.65025 -2.50174 0
M  V30 16955 H 1540.68 -1.00933 -1.26586 0
M  V30 16956 H 1542.67 0.367274 -4.0303 0
M  V30 16957 H 1541.24 0.742686 -3.03649 0
M  V30 16958 H 1540.46 -1.68662 -3.56296 0
M  V30 16959 H 1541.75 -1.74525 -4.77931 0
M  V30 16960 H 1541.15 1.355 -5.49232 0
M  V30 16961 H 1539.7 1.18536 -6.40931 0
M  V30 16962 N 1543.14 1.28707 -0.909517 0
M  V30 16963 C 1544.1 2.25692 -0.39946 0
M  V30 16964 C 1545.1 1.53721 0.471848 0
M  V30 16965 O 1546.29 1.72008 0.275504 0
M  V30 16966 C 1543.42 3.38205 0.427793 0
M  V30 16967 H 1544.61 2.72326 -1.25613 0
M  V30 16968 H 1542.17 1.40317 -0.688535 0
M  V30 16969 H 1542.9 2.96926 1.30404 0
M  V30 16970 H 1542.69 3.91606 -0.19667 0
M  V30 16971 H 1544.18 4.10334 0.775634 0
M  V30 16972 N 1544.61 0.673042 1.42506 0
M  V30 16973 C 1545.89 0.123606 1.95209 0
M  V30 16974 C 1546.27 -1.36118 1.61354 0
M  V30 16975 O 1545.62 -2.0965 0.908793 0
M  V30 16976 C 1545.83 0.39088 3.46804 0
M  V30 16977 C 1547.18 0.306445 4.23493 0
M  V30 16978 O 1548.2 0.32453 3.54719 0
M  V30 16979 O 1547.06 0.247127 5.45941 0
M  V30 16980 H 1544.15 0.00184868 0.826998 0
M  V30 16981 H 1546.7 0.74765 1.52343 0
M  V30 16982 H 1545.47 1.41951 3.64645 0
M  V30 16983 H 1545.1 -0.265259 3.96714 0
M  V30 16984 N 1546.09 -1.52004 0.416254 0
M  V30 16985 C 1547 -2.30947 -0.412403 0
M  V30 16986 C 1548.02 -1.38969 -1.04707 0
M  V30 16987 O 1549.19 -1.72044 -1.04703 0
M  V30 16988 C 1546.26 -3.12078 -1.51024 0
M  V30 16989 C 1545.32 -4.19805 -0.897892 0
M  V30 16990 C 1544.55 -4.97059 -1.94341 0
M  V30 16991 O 1544.78 -4.74695 -3.16261 0
M  V30 16992 O 1543.71 -5.81715 -1.54567 0
M  V30 16993 H 1547.54 -3.02817 0.231473 0
M  V30 16994 H 1545.12 -1.4832 0.179283 0
M  V30 16995 H 1547 -3.6258 -2.14741 0
M  V30 16996 H 1545.68 -2.42995 -2.13858 0
M  V30 16997 H 1544.59 -3.73433 -0.223236 0
M  V30 16998 H 1545.92 -4.91201 -0.31336 0
M  V30 16999 N 1547.57 -0.146903 -1.56914 0
M  V30 17000 C 1548.48 0.805875 -2.20324 0
M  V30 17001 C 1549.5 1.27178 -1.18751 0
M  V30 17002 O 1550.67 1.32899 -1.51327 0
M  V30 17003 C 1547.74 2.02755 -2.81232 0
M  V30 17004 C 1546.8 1.61089 -3.97931 0
M  V30 17005 C 1546.03 2.77433 -4.55924 0
M  V30 17006 O 1546.25 3.93643 -4.12797 0
M  V30 17007 O 1545.19 2.52911 -5.46187 0
M  V30 17008 H 1549.01 0.296098 -3.02253 0
M  V30 17009 H 1546.6 0.0801175 -1.49185 0
M  V30 17010 H 1548.48 2.74252 -3.19944 0
M  V30 17011 H 1547.16 2.52686 -2.02316 0
M  V30 17012 H 1546.06 0.86616 -3.63935 0
M  V30 17013 H 1547.4 1.15874 -4.78366 0
M  V30 17014 N 1549.05 1.57088 0.126881 0
M  V30 17015 C 1550 1.99764 1.15599 0
M  V30 17016 C 1550.97 0.868468 1.41587 0
M  V30 17017 O 1552.15 1.13209 1.53585 0
M  V30 17018 C 1549.29 2.40038 2.47943 0
M  V30 17019 C 1548.4 3.66336 2.28958 0
M  V30 17020 C 1547.54 3.95626 3.54477 0
M  V30 17021 C 1546.58 5.15131 3.30616 0
M  V30 17022 N 1545.71 5.4033 4.48317 0
M  V30 17023 H 1550.55 2.87473 0.785078 0
M  V30 17024 H 1548.09 1.42209 0.376169 0
M  V30 17025 H 1550.05 2.61423 3.25136 0
M  V30 17026 H 1548.68 1.55382 2.82942 0
M  V30 17027 H 1547.73 3.52612 1.4272 0
M  V30 17028 H 1549.04 4.53684 2.07298 0
M  V30 17029 H 1548.2 4.17617 4.40092 0
M  V30 17030 H 1546.94 3.06738 3.79161 0
M  V30 17031 H 1545.94 4.92992 2.43391 0
M  V30 17032 H 1547.17 6.05588 3.0731 0
M  V30 17033 H 1545.11 4.54399 4.73136 0
M  V30 17034 H 1545.03 6.21985 4.29733 0
M  V30 17035 H 1546.3 5.66835 5.35088 0
M  V30 17036 N 1550.53 -0.396836 1.52522 0
M  V30 17037 C 1551.48 -1.48365 1.73123 0
M  V30 17038 C 1552.46 -1.4988 0.585224 0
M  V30 17039 O 1553.65 -1.55649 0.842763 0
M  V30 17040 C 1550.78 -2.86165 1.89644 0
M  V30 17041 C 1549.87 -2.8925 3.10153 0
M  V30 17042 N 1550.26 -2.62017 4.32644 0
M  V30 17043 C 1548.56 -3.20419 3.10238 0
M  V30 17044 C 1549.26 -2.71985 5.14197 0
M  V30 17045 N 1548.23 -3.05385 4.49712 0
M  V30 17046 H 1552.04 -1.26124 2.65462 0
M  V30 17047 H 1549.55 -0.604696 1.50722 0
M  V30 17048 H 1551.55 -3.64404 2.02522 0
M  V30 17049 H 1550.21 -3.09395 0.985134 0
M  V30 17050 H 1551.22 -2.36183 4.6091 0
M  V30 17051 H 1547.89 -3.49164 2.2889 0
M  V30 17052 H 1549.28 -2.54541 6.21819 0
M  V30 17053 N 1552.01 -1.43353 -0.654814 0
M  V30 17054 C 1552.95 -1.48387 -1.76776 0
M  V30 17055 C 1553.92 -0.333755 -1.62712 0
M  V30 17056 O 1555.11 -0.540683 -1.82979 0
M  V30 17057 C 1552.25 -1.41132 -3.14922 0
M  V30 17058 C 1551.36 -2.66336 -3.40131 0
M  V30 17059 C 1550.5 -2.5108 -4.68116 0
M  V30 17060 C 1549.53 -3.71561 -4.86425 0
M  V30 17061 N 1548.67 -3.55125 -6.05666 0
M  V30 17062 H 1553.51 -2.43487 -1.71808 0
M  V30 17063 H 1551.05 -1.20866 -0.838442 0
M  V30 17064 H 1553.01 -1.3492 -3.94782 0
M  V30 17065 H 1551.64 -0.496149 -3.18964 0
M  V30 17066 H 1550.69 -2.82834 -2.5438 0
M  V30 17067 H 1552 -3.55835 -3.49546 0
M  V30 17068 H 1551.15 -2.42567 -5.56099 0
M  V30 17069 H 1549.89 -1.59103 -4.61018 0
M  V30 17070 H 1548.9 -3.80484 -3.96877 0
M  V30 17071 H 1550.12 -4.64545 -4.95353 0
M  V30 17072 H 1548.07 -2.65881 -5.99703 0
M  V30 17073 H 1547.99 -4.38224 -6.16032 0
M  V30 17074 H 1549.25 -3.5046 -6.96274 0
M  V30 17075 N 1553.48 0.89303 -1.29857 0
M  V30 17076 C 1554.9 1.17496 -1.08013 0
M  V30 17077 C 1555.1 2.00829 0.164302 0
M  V30 17078 O 1554.16 2.37396 0.860194 0
M  V30 17079 C 1555.47 1.88944 -2.33924 0
M  V30 17080 C 1557.02 2.01742 -2.3931 0
M  V30 17081 C 1557.49 2.76601 -3.65042 0
M  V30 17082 N 1558.98 2.84152 -3.65803 0
M  V30 17083 C 1559.72 3.42628 -4.59776 0
M  V30 17084 N 1559.21 4.02218 -5.64086 0
M  V30 17085 N 1561.01 3.40366 -4.47334 0
M  V30 17086 H 1553.16 0.33719 -2.09706 0
M  V30 17087 H 1555.42 0.211899 -0.924014 0
M  V30 17088 H 1555.13 1.35151 -3.24695 0
M  V30 17089 H 1555 2.89379 -2.4195 0
M  V30 17090 H 1557.39 2.54708 -1.49022 0
M  V30 17091 H 1557.47 1.0042 -2.35265 0
M  V30 17092 H 1557.11 2.24309 -4.55684 0
M  V30 17093 H 1557.04 3.78283 -3.66346 0
M  V30 17094 H 1559.53 2.41835 -2.90386 0
M  V30 17095 H 1559.85 4.4488 -6.31903 0
M  V30 17096 H 1558.19 4.00661 -5.67887 0
M  V30 17097 H 1561.38 2.93035 -3.65031 0
M  V30 17098 H 1561.56 3.85644 -5.20752 0
M  V30 17099 N 1554.96 1.12442 1.10429 0
M  V30 17100 C 1555.89 0.750131 2.16577 0
M  V30 17101 C 1556.91 -0.223265 1.61262 0
M  V30 17102 O 1558.1 -0.00459454 1.78499 0
M  V30 17103 C 1555.2 0.0895474 3.38782 0
M  V30 17104 C 1554.37 1.09242 4.23539 0
M  V30 17105 C 1553.43 0.45945 5.2419 0
M  V30 17106 O 1552.45 1.11646 5.58143 0
M  V30 17107 N 1553.66 -0.773093 5.75329 0
M  V30 17108 H 1556.42 1.66349 2.49295 0
M  V30 17109 H 1553.98 1.01603 1.26049 0
M  V30 17110 H 1555.97 -0.345895 4.03219 0
M  V30 17111 H 1554.54 -0.726572 3.04039 0
M  V30 17112 H 1553.76 1.70549 3.55396 0
M  V30 17113 H 1555.05 1.77057 4.76999 0
M  V30 17114 H 1554.45 -1.32585 5.49943 0
M  V30 17115 H 1553.01 -1.15135 6.41551 0
M  V30 17116 N 1556.44 -1.28223 0.91633 0
M  V30 17117 C 1557.37 -2.25482 0.351128 0
M  V30 17118 C 1558.35 -1.53155 -0.546108 0
M  V30 17119 O 1559.53 -1.82042 -0.489182 0
M  V30 17120 C 1556.66 -3.35021 -0.497832 0
M  V30 17121 C 1555.71 -4.25187 0.334384 0
M  V30 17122 S 1556.54 -5.06348 1.74276 0
M  V30 17123 C 1557.7 -6.19378 0.901172 0
M  V30 17124 H 1557.93 -2.73075 1.17547 0
M  V30 17125 H 1555.46 -1.36703 0.717752 0
M  V30 17126 H 1557.42 -3.98586 -0.98182 0
M  V30 17127 H 1556.08 -2.8609 -1.29658 0
M  V30 17128 H 1555.27 -5.03015 -0.314884 0
M  V30 17129 H 1554.88 -3.66359 0.75212 0
M  V30 17130 H 1557.17 -6.77371 0.131985 0
M  V30 17131 H 1558.11 -6.88558 1.65208 0
M  V30 17132 H 1558.52 -5.62718 0.448206 0
M  V30 17133 N 1557.92 -0.68059 -1.42147 0
M  V30 17134 C 1559.14 -0.212293 -2.06311 0
M  V30 17135 C 1559.57 1.12402 -1.50822 0
M  V30 17136 O 1558.93 1.70037 -0.629051 0
M  V30 17137 C 1558.97 -0.164156 -3.60226 0
M  V30 17138 O 1558.08 0.865582 -4.03214 0
M  V30 17139 H 1557.42 -0.107451 -0.655248 0
M  V30 17140 H 1559.95 -0.931233 -1.82179 0
M  V30 17141 H 1559.96 0.0100422 -4.07999 0
M  V30 17142 H 1558.63 -1.13952 -3.99985 0
M  V30 17143 H 1557.21 0.661955 -3.66978 0
M  V30 17144 N 1559.4 1.51781 -0.424309 0
M  V30 17145 C 1560.64 2.02269 0.146709 0
M  V30 17146 C 1560.97 1.30859 1.4349 0
M  V30 17147 O 1560.25 0.419504 1.89922 0
M  V30 17148 C 1560.53 3.58101 0.378861 0
M  V30 17149 C 1560.39 4.40143 -0.92707 0
M  V30 17150 C 1561.7 4.2469 1.15438 0
M  V30 17151 H 1558.82 0.735174 0.0518456 0
M  V30 17152 H 1561.47 1.81537 -0.560753 0
M  V30 17153 H 1559.62 3.75897 0.981496 0
M  V30 17154 H 1561.29 4.34025 -1.56268 0
M  V30 17155 H 1559.53 4.05748 -1.53464 0
M  V30 17156 H 1560.2 5.47299 -0.718837 0
M  V30 17157 H 1562.68 4.11086 0.644041 0
M  V30 17158 H 1561.55 5.33633 1.28557 0
M  V30 17159 H 1561.81 3.84668 2.17905 0
M  V30 17160 N 1560.87 0.155222 1.56834 0
M  V30 17161 C 1562.28 -0.364232 1.83113 0
M  V30 17162 C 1562.64 -1.64173 1.07432 0
M  V30 17163 O 1561.76 -2.13988 0.322202 0
M  V30 17164 C 1562.36 -0.667608 3.32157 0
M  V30 17165 C 1560.91 -1.13156 3.58989 0
M  V30 17166 C 1560.06 -0.158941 2.76844 0
M  V30 17167 H 1563.01 0.379779 1.54089 0
M  V30 17168 H 1563.03 -1.52141 3.4876 0
M  V30 17169 H 1562.55 0.262355 3.87212 0
M  V30 17170 H 1560.65 -2.07717 3.09329 0
M  V30 17171 H 1560.76 -1.05184 4.67411 0
M  V30 17172 H 1559.12 -0.653181 2.46182 0
M  V30 17173 H 1559.91 0.764757 3.34674 0
M  V30 17174 N 1562.35 -1.57153 -0.118549 0
M  V30 17175 C 1563.6 -1.84511 -0.824623 0
M  V30 17176 C 1563.92 -0.740473 -1.80394 0
M  V30 17177 O 1563.19 0.235481 -1.9448 0
M  V30 17178 H 1561.77 -0.680764 -0.307522 0
M  V30 17179 H 1564.43 -1.94613 -0.105764 0
M  V30 17180 H 1563.53 -2.80444 -1.36958 0
M  V30 17181 N 1563.83 0.388742 -1.5273 0
M  V30 17182 C 1565.08 1.13094 -1.67011 0
M  V30 17183 C 1565.39 1.91115 -0.416467 0
M  V30 17184 O 1566.6 2.67921 -0.43941 0
M  V30 17185 C 1565.05 2.0595 -2.95149 0
M  V30 17186 C 1564.66 1.3335 -4.27694 0
M  V30 17187 C 1566.41 2.80303 -3.18795 0
M  V30 17188 C 1564.31 2.24973 -5.46938 0
M  V30 17189 H 1563.24 0.425887 -0.622203 0
M  V30 17190 H 1565.89 0.393708 -1.79227 0
M  V30 17191 H 1564.28 2.83309 -2.7668 0
M  V30 17192 H 1565.45 0.612137 -4.56716 0
M  V30 17193 H 1563.76 0.709547 -4.1031 0
M  V30 17194 H 1566.36 3.49036 -4.05065 0
M  V30 17195 H 1566.7 3.44394 -2.33877 0
M  V30 17196 H 1567.24 2.10036 -3.37831 0
M  V30 17197 H 1563.98 1.65497 -6.34264 0
M  V30 17198 H 1563.5 2.95024 -5.22227 0
M  V30 17199 H 1565.18 2.8505 -5.80823 0
M  V30 17200 N 1565.31 1.43698 0.647203 0
M  V30 17201 C 1566.55 1.45633 1.40703 0
M  V30 17202 C 1566.88 0.0828643 1.94323 0
M  V30 17203 O 1566.14 -0.913033 1.73096 0
M  V30 17204 C 1566.44 2.45083 2.60133 0
M  V30 17205 C 1566.1 3.9081 2.24896 0
M  V30 17206 C 1564.76 4.30499 2.14998 0
M  V30 17207 C 1567.12 4.8262 1.96794 0
M  V30 17208 C 1564.44 5.59942 1.75163 0
M  V30 17209 C 1566.8 6.12433 1.58456 0
M  V30 17210 C 1565.46 6.51092 1.47088 0
M  V30 17211 H 1564.73 0.53291 0.514867 0
M  V30 17212 H 1567.38 1.76814 0.735458 0
M  V30 17213 H 1565.68 2.07327 3.3245 0
M  V30 17214 H 1567.38 2.43833 3.1835 0
M  V30 17215 H 1563.97 3.59403 2.33512 0
M  V30 17216 H 1568.15 4.52724 2.03359 0
M  V30 17217 H 1563.41 5.88728 1.64952 0
M  V30 17218 H 1567.58 6.83042 1.35745 0
M  V30 17219 H 1565.21 7.51299 1.15992 0
M  V30 17220 N 1566.79 -0.886131 1.30328 0
M  V30 17221 C 1567.73 -2.01312 1.16516 0
M  V30 17222 C 1568.73 -1.69223 0.0773431 0
M  V30 17223 O 1569.93 -1.78418 0.238111 0
M  V30 17224 H 1566.31 -0.66006 0.360312 0
M  V30 17225 H 1568.28 -2.10097 2.11901 0
M  V30 17226 C 1567.03 -3.36573 0.872592 0
M  V30 17227 H 1566.35 -3.61775 1.70172 0
M  V30 17228 H 1567.79 -4.16073 0.816049 0
M  V30 17229 C 1566.25 -3.34215 -0.424465 0
M  V30 17230 O 1566.78 -3.74758 -1.44634 0
M  V30 17231 N 1564.99 -2.87323 -0.435207 0
M  V30 17232 H 1564.53 -2.54525 0.396851 0
M  V30 17233 H 1564.49 -2.86128 -1.303 0
M  V30 17234 N 1568.26 -1.13026 -1.09832 0
M  V30 17235 C 1569.68 -0.902826 -1.6342 0
M  V30 17236 C 1570.03 0.561547 -1.87992 0
M  V30 17237 O 1569.15 1.42735 -1.62652 0
M  V30 17238 C 1569.75 -1.6324 -2.96881 0
M  V30 17239 C 1568.31 -1.45095 -3.4731 0
M  V30 17240 C 1567.45 -1.66431 -2.21802 0
M  V30 17241 H 1570.4 -1.28414 -0.932492 0
M  V30 17242 H 1570.42 -1.08706 -3.64641 0
M  V30 17243 H 1569.94 -2.69816 -2.78964 0
M  V30 17244 H 1568.04 -0.408031 -3.70359 0
M  V30 17245 H 1568.15 -2.21123 -4.25019 0
M  V30 17246 H 1566.51 -1.08885 -2.30252 0
M  V30 17247 H 1567.3 -2.74317 -2.0641 0
M  V30 17248 N 1569.74 1.27735 -0.923117 0
M  V30 17249 C 1570.69 2.24644 -0.389748 0
M  V30 17250 C 1571.68 1.52822 0.50341 0
M  V30 17251 O 1572.87 1.73672 0.341602 0
M  V30 17252 C 1570 3.41402 0.360535 0
M  V30 17253 C 1569.08 4.20533 -0.548877 0
M  V30 17254 N 1569.47 4.77552 -1.66667 0
M  V30 17255 C 1567.77 4.44617 -0.35102 0
M  V30 17256 C 1568.47 5.37179 -2.23191 0
M  V30 17257 N 1567.45 5.21857 -1.52204 0
M  V30 17258 H 1571.25 2.66308 -1.24328 0
M  V30 17259 H 1568.77 1.42614 -0.776856 0
M  V30 17260 H 1570.76 4.09922 0.759555 0
M  V30 17261 H 1569.42 3.0127 1.21105 0
M  V30 17262 H 1570.43 4.75638 -2.04912 0
M  V30 17263 H 1567.11 4.14967 0.459214 0
M  V30 17264 H 1568.5 5.92274 -3.17272 0
M  V30 17265 N 1571.22 0.688118 1.41784 0
M  V30 17266 C 1572.13 0.018397 2.34593 0
M  V30 17267 C 1573.15 -0.774275 1.55824 0
M  V30 17268 O 1574.32 -0.713546 1.88336 0
M  V30 17269 C 1571.39 -0.911914 3.34492 0
M  V30 17270 C 1570.45 -0.112284 4.29153 0
M  V30 17271 C 1569.68 -0.998285 5.2428 0
M  V30 17272 O 1569.9 -2.23782 5.24669 0
M  V30 17273 O 1568.84 -0.451951 6.00201 0
M  V30 17274 H 1572.66 0.783224 2.93427 0
M  V30 17275 H 1570.25 0.448413 1.42512 0
M  V30 17276 H 1572.13 -1.4456 3.95829 0
M  V30 17277 H 1570.81 -1.65636 2.78112 0
M  V30 17278 H 1569.71 0.465822 3.71189 0
M  V30 17279 H 1571.05 0.593338 4.88611 0
M  V30 17280 N 1572.7 -1.51554 0.432352 0
M  V30 17281 C 1573.95 -2.01232 -0.137255 0
M  V30 17282 C 1574.26 -1.32135 -1.44221 0
M  V30 17283 O 1575.47 -1.72756 -2.09446 0
M  V30 17284 C 1573.92 -3.58688 -0.295152 0
M  V30 17285 C 1573.53 -4.36718 0.999072 0
M  V30 17286 C 1575.27 -4.16528 -0.818798 0
M  V30 17287 C 1573.18 -5.85867 0.80709 0
M  V30 17288 H 1572.11 -0.751986 -0.0550696 0
M  V30 17289 H 1574.76 -1.74703 0.561352 0
M  V30 17290 H 1573.14 -3.81643 -1.05664 0
M  V30 17291 H 1574.32 -4.25512 1.76851 0
M  V30 17292 H 1572.63 -3.90306 1.45087 0
M  V30 17293 H 1575.23 -5.25664 -0.978841 0
M  V30 17294 H 1575.57 -3.75379 -1.79989 0
M  V30 17295 H 1576.11 -3.97632 -0.11575 0
M  V30 17296 H 1572.85 -6.31419 1.76041 0
M  V30 17297 H 1572.37 -5.9975 0.0773617 0
M  V30 17298 H 1574.04 -6.45375 0.458328 0
M  V30 17299 N 1574.18 -0.163538 -1.56749 0
M  V30 17300 C 1575.59 0.354516 -1.83303 0
M  V30 17301 C 1575.94 1.63601 -1.08301 0
M  V30 17302 O 1575.06 2.13814 -0.333546 0
M  V30 17303 C 1575.66 0.649983 -3.32507 0
M  V30 17304 C 1574.22 1.1125 -3.59584 0
M  V30 17305 C 1573.36 0.144257 -2.76925 0
M  V30 17306 H 1576.32 -0.387945 -1.53885 0
M  V30 17307 H 1576.34 1.5029 -3.49562 0
M  V30 17308 H 1575.85 -0.282886 -3.87068 0
M  V30 17309 H 1573.95 2.06074 -3.10426 0
M  V30 17310 H 1574.06 1.02704 -4.67962 0
M  V30 17311 H 1572.43 0.640116 -2.46525 0
M  V30 17312 H 1573.21 -0.782495 -3.34263 0
M  V30 17313 N 1575.65 1.57214 0.110213 0
M  V30 17314 C 1576.56 2.04287 1.15342 0
M  V30 17315 C 1577.58 0.964895 1.44796 0
M  V30 17316 O 1578.76 1.27702 1.55737 0
M  V30 17317 C 1575.82 2.44518 2.45788 0
M  V30 17318 C 1574.88 3.66439 2.23653 0
M  V30 17319 C 1574.12 4.04742 3.47879 0
M  V30 17320 O 1574.34 3.43291 4.5553 0
M  V30 17321 O 1573.27 4.97791 3.38361 0
M  V30 17322 H 1577.1 2.93415 0.783656 0
M  V30 17323 H 1574.68 1.45897 0.321644 0
M  V30 17324 H 1576.57 2.71089 3.22628 0
M  V30 17325 H 1575.24 1.58533 2.82221 0
M  V30 17326 H 1574.15 3.45006 1.44643 0
M  V30 17327 H 1575.48 4.53156 1.9212 0
M  V30 17328 N 1577.13 -0.380637 1.52934 0
M  V30 17329 C 1578.04 -1.48957 1.81243 0
M  V30 17330 C 1579.06 -1.5931 0.69974 0
M  V30 17331 O 1580.23 -1.75488 0.988218 0
M  V30 17332 C 1577.3 -2.84397 1.9829 0
M  V30 17333 C 1576.36 -2.83697 3.22202 0
M  V30 17334 C 1575.59 -4.12677 3.38427 0
M  V30 17335 O 1575.82 -5.08068 2.59274 0
M  V30 17336 O 1574.75 -4.19407 4.31719 0
M  V30 17337 H 1578.58 -1.27964 2.75425 0
M  V30 17338 H 1576.16 -0.56929 1.38128 0
M  V30 17339 H 1578.04 -3.64676 2.11161 0
M  V30 17340 H 1576.72 -3.054 1.07298 0
M  V30 17341 H 1575.63 -2.0217 3.14767 0
M  V30 17342 H 1576.96 -2.67648 4.13068 0
M  V30 17343 N 1578.61 -1.44039 -0.639573 0
M  V30 17344 C 1579.54 -1.44715 -1.76445 0
M  V30 17345 C 1580.52 -0.306957 -1.59676 0
M  V30 17346 O 1581.71 -0.502643 -1.81675 0
M  V30 17347 C 1578.83 -1.27177 -3.13917 0
M  V30 17348 C 1577.88 -2.44649 -3.49355 0
M  V30 17349 S 1578.71 -4.07191 -3.47787 0
M  V30 17350 C 1579.87 -3.92061 -4.87893 0
M  V30 17351 H 1580.1 -2.39897 -1.75603 0
M  V30 17352 H 1577.63 -1.31235 -0.813438 0
M  V30 17353 H 1579.59 -1.17745 -3.93251 0
M  V30 17354 H 1578.25 -0.335196 -3.12306 0
M  V30 17355 H 1577.45 -2.28219 -4.49369 0
M  V30 17356 H 1577.05 -2.50777 -2.77465 0
M  V30 17357 H 1579.34 -3.55229 -5.76904 0
M  V30 17358 H 1580.28 -4.91875 -5.09377 0
M  V30 17359 H 1580.69 -3.24271 -4.6207 0
M  V30 17360 N 1580.09 0.879207 -1.30796 0
M  V30 17361 C 1581.33 1.6456 -1.21242 0
M  V30 17362 C 1581.69 1.90642 0.227986 0
M  V30 17363 O 1582.89 2.65059 0.446875 0
M  V30 17364 C 1581.16 2.94576 -2.02386 0
M  V30 17365 S 1582.72 3.85508 -2.09592 0
M  V30 17366 H 1579.54 0.564732 -0.43197 0
M  V30 17367 H 1582.14 1.04314 -1.65345 0
M  V30 17368 H 1580.85 2.73322 -3.06142 0
M  V30 17369 H 1580.38 3.59852 -1.58966 0
M  V30 17370 H 1582.39 4.80777 -1.2275 0
M  V30 17371 N 1581.57 1.13606 1.09231 0
M  V30 17372 C 1582.84 0.81012 1.78035 0
M  V30 17373 C 1583.22 -0.697953 1.99228 0
M  V30 17374 O 1582.57 -1.63592 1.5953 0
M  V30 17375 C 1582.78 1.59932 3.10198 0
M  V30 17376 C 1584.13 1.79328 3.84872 0
M  V30 17377 O 1585.15 1.56547 3.19955 0
M  V30 17378 O 1584.01 2.17355 5.01417 0
M  V30 17379 H 1581.11 0.295995 0.772215 0
M  V30 17380 H 1583.65 1.24079 1.15769 0
M  V30 17381 H 1582.43 2.6241 2.9027 0
M  V30 17382 H 1582.05 1.16371 3.80189 0
M  V30 17383 O 1583.08 -1.21754 1.06105 0
M  V30 17384 H 1583.78 -1.78946 0.74149 0
M  V30 END ATOM
M  V30 BEGIN BOND
M  V30 END BOND
M  V30 END CTAB
M  END
$$$$
