drugbank_target|O14958 Calsequestrin-2 (DB11093; DB11348; DB14481)
 OpenBabel12092121053D

  0  0  0     0  0            999 V3000
M  V30 BEGIN CTAB
M  V30 COUNTS 6401 6474 0 0 0
M  V30 BEGIN ATOM
M  V30 1 H -0.908 1.98254 -0.117106 0
M  V30 2 N 0 1.576 0 0
M  V30 3 C 0.933 2.03868 1.02534 0
M  V30 4 C 1.911 0.928543 1.3348 0
M  V30 5 O 3.095 1.19667 1.45644 0
M  V30 6 C 0.222 2.43627 2.35294 0
M  V30 7 C -0.732 3.65373 2.2001 0
M  V30 8 S 0.101 5.13292 1.52614 0
M  V30 9 C 1.257 5.56322 2.86805 0
M  V30 10 H 1.49 2.90518 0.631377 0
M  V30 11 H -0.977 1.52953 0.210867 0
M  V30 12 H 0.981 2.67203 3.11629 0
M  V30 13 H -0.358 1.57376 2.7183 0
M  V30 14 H -1.165 3.90944 3.18086 0
M  V30 15 H -1.563 3.418 1.51819 0
M  V30 16 H 0.729 5.58782 3.83104 0
M  V30 17 H 1.672 6.56266 2.65933 0
M  V30 18 H 2.08 4.83886 2.90714 0
M  V30 19 N 1.4781 -0.272755 1.55222 0
M  V30 20 C 2.4251 -1.33716 1.88119 0
M  V30 21 C 3.3951 -1.49066 0.73271 0
M  V30 22 O 4.5801 -1.63469 0.984002 0
M  V30 23 C 1.7201 -2.69238 2.15882 0
M  V30 24 C 0.8331 -2.62108 3.43399 0
M  V30 25 C -0.0319 -3.89811 3.60861 0
M  V30 26 C -0.9929 -3.77193 4.8207 0
M  V30 27 N -1.8559 -4.9673 4.96189 0
M  V30 28 H 2.9841 -1.04962 2.78903 0
M  V30 29 H 0.5211 -0.507088 1.38083 0
M  V30 30 H 2.4791 -3.48089 2.29978 0
M  V30 31 H 1.1091 -2.96194 1.28331 0
M  V30 32 H 0.1611 -1.74967 3.37773 0
M  V30 33 H 1.4731 -2.48685 4.32386 0
M  V30 34 H 0.6271 -4.77103 3.74777 0
M  V30 35 H -0.6339 -4.06102 2.7006 0
M  V30 36 H -1.6289 -2.88284 4.68159 0
M  V30 37 H -0.4039 -3.62421 5.74307 0
M  V30 38 H -2.4579 -5.13431 4.08319 0
M  V30 39 H -2.5409 -4.85839 5.79221 0
M  V30 40 H -1.2729 -5.85594 5.1449 0
M  V30 41 N 2.9562 -1.48159 -0.537278 0
M  V30 42 C 4.3722 -1.34118 -0.865129 0
M  V30 43 C 4.5722 -0.346678 -1.98495 0
M  V30 44 O 3.6282 0.234715 -2.51407 0
M  V30 45 C 4.9412 -2.73963 -1.23954 0
M  V30 46 C 6.4892 -2.82397 -1.34984 0
M  V30 47 C 6.9642 -4.22928 -1.75772 0
M  V30 48 N 8.4552 -4.25566 -1.82887 0
M  V30 49 C 9.1902 -5.31235 -2.15817 0
M  V30 50 N 8.6862 -6.47189 -2.47222 0
M  V30 51 N 10.4792 -5.18624 -2.16761 0
M  V30 52 H 2.6302 -2.1144 0.201715 0
M  V30 53 H 4.8932 -0.947598 0.0275949 0
M  V30 54 H 4.5992 -3.48264 -0.490381 0
M  V30 55 H 4.4732 -3.0702 -2.19132 0
M  V30 56 H 6.8602 -2.08356 -2.08978 0
M  V30 57 H 6.9412 -2.5297 -0.379448 0
M  V30 58 H 6.5852 -4.97482 -1.02341 0
M  V30 59 H 6.5152 -4.49794 -2.73848 0
M  V30 60 H 9.0062 -3.41924 -1.60924 0
M  V30 61 H 9.3192 -7.23564 -2.71433 0
M  V30 62 H 7.6642 -6.50476 -2.44757 0
M  V30 63 H 10.8552 -4.27056 -1.91679 0
M  V30 64 H 11.0282 -6.01078 -2.42093 0
M  V30 65 N 4.4343 0.785586 -1.36625 0
M  V30 66 C 5.6623 1.57448 -1.3423 0
M  V30 67 C 6.0773 1.88649 0.0755653 0
M  V30 68 O 5.4343 1.50414 1.03354 0
M  V30 69 C 5.4853 2.89316 -2.16745 0
M  V30 70 O 5.2063 2.59459 -3.53005 0
M  V30 71 C 6.7073 3.83606 -2.22174 0
M  V30 72 H 3.9273 0.488226 -0.4603 0
M  V30 73 H 6.4713 0.974733 -1.79775 0
M  V30 74 H 4.6263 3.4575 -1.74745 0
M  V30 75 H 5.0403 3.43804 -3.96105 0
M  V30 76 H 6.5143 4.73181 -2.8426 0
M  V30 77 H 6.9913 4.21734 -1.22627 0
M  V30 78 H 7.5973 3.33104 -2.64427 0
M  V30 79 N 5.9124 1.20967 1.01018 0
M  V30 80 C 6.8624 0.93182 2.08089 0
M  V30 81 C 7.8464 -0.110898 1.60517 0
M  V30 82 O 9.0384 0.0973392 1.76732 0
M  V30 83 C 6.1674 0.492719 3.39746 0
M  V30 84 C 5.2534 1.56922 3.94 0
M  V30 85 N 5.6444 2.79312 4.21686 0
M  V30 86 C 3.9424 1.43688 4.2222 0
M  V30 87 C 4.6434 3.48797 4.65527 0
M  V30 88 N 3.6194 2.76224 4.68189 0
M  V30 89 H 7.4214 1.86175 2.27412 0
M  V30 90 H 4.9354 1.10463 1.19045 0
M  V30 91 H 6.9324 0.275044 4.15992 0
M  V30 92 H 5.5924 -0.430509 3.21833 0
M  V30 93 H 6.6034 3.15903 4.10397 0
M  V30 94 H 3.2804 0.578548 4.13472 0
M  V30 95 H 4.6704 4.53561 4.95714 0
M  V30 96 N 7.3905 -1.2043 1.01659 0
M  V30 97 C 8.3205 -2.25466 0.607226 0
M  V30 98 C 9.3015 -1.65853 -0.377716 0
M  V30 99 O 10.4865 -1.92409 -0.263149 0
M  V30 100 C 7.6165 -3.47256 -0.0552949 0
M  V30 101 C 6.5705 -4.19462 0.850632 0
M  V30 102 C 5.8965 -5.34673 0.0538859 0
M  V30 103 C 7.1965 -4.75603 2.15868 0
M  V30 104 H 8.8905 -2.59962 1.48526 0
M  V30 105 H 6.4365 -1.2496 0.715605 0
M  V30 106 H 8.3895 -4.19917 -0.353233 0
M  V30 107 H 7.1135 -3.11924 -0.968045 0
M  V30 108 H 5.7725 -3.48667 1.13257 0
M  V30 109 H 5.4205 -4.95585 -0.860514 0
M  V30 110 H 5.1205 -5.83913 0.657192 0
M  V30 111 H 6.6445 -6.10138 -0.237598 0
M  V30 112 H 8.0585 -5.40083 1.92311 0
M  V30 113 H 6.4555 -5.3528 2.71284 0
M  V30 114 H 7.5255 -3.94346 2.82169 0
M  V30 115 N 8.8686 -0.792821 -1.36206 0
M  V30 116 C 10.1156 -0.366786 -1.99151 0
M  V30 117 C 10.4436 1.06243 -1.62919 0
M  V30 118 O 9.6986 1.74927 -0.877442 0
M  V30 119 C 9.9976 -0.481501 -3.54142 0
M  V30 120 C 9.6636 -1.87202 -4.10203 0
M  V30 121 C 8.3256 -2.25248 -4.25226 0
M  V30 122 C 10.6776 -2.78237 -4.40719 0
M  V30 123 C 8.0056 -3.53723 -4.68078 0
M  V30 124 C 10.3576 -4.06144 -4.85005 0
M  V30 125 C 9.0216 -4.44207 -4.98234 0
M  V30 126 H 8.2916 -0.134217 -0.728743 0
M  V30 127 H 10.9386 -1.01094 -1.62641 0
M  V30 128 H 9.2436 0.246146 -3.91026 0
M  V30 129 H 10.9406 -0.132844 -4.0078 0
M  V30 130 H 7.5306 -1.56639 -3.98951 0
M  V30 131 H 11.7146 -2.50097 -4.28679 0
M  V30 132 H 6.9706 -3.8308 -4.76508 0
M  V30 133 H 11.1446 -4.76796 -5.07581 0
M  V30 134 H 8.7716 -5.43814 -5.31197 0
M  V30 135 N 10.3467 1.47872 -0.545128 0
M  V30 136 C 11.5957 2.01695 -0.0145033 0
M  V30 137 C 11.9087 1.42609 1.33873 0
M  V30 138 O 13.1147 1.88021 1.95858 0
M  V30 139 C 11.5707 3.59892 0.0245068 0
M  V30 140 C 11.1787 4.27966 -1.32475 0
M  V30 141 C 12.9227 4.21507 0.50316 0
M  V30 142 C 10.8297 5.78136 -1.2455 0
M  V30 143 H 9.7597 0.753998 -0.00165172 0
M  V30 144 H 12.4107 1.69985 -0.691175 0
M  V30 145 H 10.7927 3.88509 0.766575 0
M  V30 146 H 11.9667 4.11003 -2.08357 0
M  V30 147 H 10.2817 3.78286 -1.74036 0
M  V30 148 H 12.8787 5.31538 0.580656 0
M  V30 149 H 13.2217 3.87855 1.51243 0
M  V30 150 H 13.7547 3.97376 -0.183681 0
M  V30 151 H 10.4937 6.16388 -2.23039 0
M  V30 152 H 10.0137 5.97469 -0.528282 0
M  V30 153 H 11.6927 6.40099 -0.942488 0
M  V30 154 N 11.8248 0.280983 1.55075 0
M  V30 155 C 13.0708 -0.33461 2.00021 0
M  V30 156 C 13.4038 -1.55063 1.16915 0
M  V30 157 O 12.6788 -1.93006 0.240646 0
M  V30 158 C 12.9618 -0.711007 3.53011 0
M  V30 159 C 12.8148 0.512766 4.46868 0
M  V30 160 C 14.1338 -1.54522 4.12081 0
M  V30 161 H 11.2528 -0.120147 0.727141 0
M  V30 162 H 13.8948 0.389097 1.85973 0
M  V30 163 H 12.0448 -1.32761 3.65112 0
M  V30 164 H 13.7168 1.15131 4.46702 0
M  V30 165 H 11.9598 1.14975 4.18286 0
M  V30 166 H 12.6308 0.205556 5.51617 0
M  V30 167 H 15.1068 -1.02442 4.03293 0
M  V30 168 H 13.9828 -1.77739 5.19327 0
M  V30 169 H 14.2438 -2.52813 3.62682 0
M  V30 170 N 13.3029 -1.57598 0.00835791 0
M  V30 171 C 14.5509 -1.90551 -0.6734 0
M  V30 172 C 14.8719 -0.883301 -1.73847 0
M  V30 173 O 14.1419 0.0781442 -1.95744 0
M  V30 174 H 12.7219 -0.703312 -0.251717 0
M  V30 175 H 15.3839 -1.94833 0.0512592 0
M  V30 176 H 14.4799 -2.9056 -1.13935 0
M  V30 177 N 14.781 0.264519 -1.55364 0
M  V30 178 C 16.03 0.992812 -1.75574 0
M  V30 179 C 16.343 1.87142 -0.568979 0
M  V30 180 O 17.549 2.63513 -0.653682 0
M  V30 181 C 16.005 1.81519 -3.10771 0
M  V30 182 C 15.613 0.984839 -4.37041 0
M  V30 183 C 17.357 2.53727 -3.40327 0
M  V30 184 C 15.264 1.80209 -5.63275 0
M  V30 185 H 14.194 0.374412 -0.65447 0
M  V30 186 H 16.845 0.248138 -1.81815 0
M  V30 187 H 15.227 2.60115 -2.98591 0
M  V30 188 H 16.401 0.242455 -4.60162 0
M  V30 189 H 14.716 0.37691 -4.14691 0
M  V30 190 H 17.313 3.15292 -4.3185 0
M  V30 191 H 17.656 3.24447 -2.60845 0
M  V30 192 H 18.189 1.82156 -3.53644 0
M  V30 193 H 14.928 1.13896 -6.45529 0
M  V30 194 H 14.448 2.52022 -5.44284 0
M  V30 195 H 16.127 2.37364 -6.01887 0
M  V30 196 N 16.2591 1.48442 0.529413 0
M  V30 197 C 17.4891 1.59919 1.30804 0
M  V30 198 C 17.8971 0.258792 1.87422 0
M  V30 199 O 17.2401 -0.762096 1.67146 0
M  V30 200 C 17.3021 2.58693 2.49636 0
M  V30 201 C 16.9661 4.03745 2.14101 0
M  V30 202 C 17.9631 4.9141 1.6974 0
M  V30 203 C 15.6481 4.49285 2.24607 0
M  V30 204 C 17.6421 6.22645 1.36351 0
M  V30 205 C 15.3291 5.8054 1.9083 0
M  V30 206 C 16.3271 6.67043 1.46773 0
M  V30 207 O 16.0151 7.95856 1.1344 0
M  V30 208 H 15.7471 0.541981 0.404021 0
M  V30 209 H 18.3011 1.95 0.645309 0
M  V30 210 H 16.5311 2.18734 3.18892 0
M  V30 211 H 18.2201 2.59999 3.11698 0
M  V30 212 H 18.9861 4.57465 1.61094 0
M  V30 213 H 14.8651 3.82142 2.57854 0
M  V30 214 H 18.4091 6.90119 1.01891 0
M  V30 215 H 14.3061 6.14022 1.99117 0
M  V30 216 H 15.0741 8.08613 1.26832 0
M  V30 217 N 17.7372 -0.778329 1.37039 0
M  V30 218 C 18.9842 -1.53665 1.31884 0
M  V30 219 C 19.3122 -1.9425 -0.0986303 0
M  V30 220 O 18.5672 -1.63832 -1.07041 0
M  V30 221 C 18.8662 -2.81845 2.19768 0
M  V30 222 C 18.5322 -2.60345 3.68146 0
M  V30 223 C 17.1942 -2.5419 4.08584 0
M  V30 224 C 19.5462 -2.40923 4.62175 0
M  V30 225 C 16.8742 -2.26594 5.41177 0
M  V30 226 C 19.2262 -2.14852 5.94997 0
M  V30 227 C 17.8902 -2.07137 6.34547 0
M  V30 228 H 17.1602 -0.562299 0.482598 0
M  V30 229 H 19.8072 -0.897069 1.69189 0
M  V30 230 H 18.1122 -3.50328 1.75436 0
M  V30 231 H 19.8092 -3.39692 2.13097 0
M  V30 232 H 16.3992 -2.65996 3.36072 0
M  V30 233 H 20.5832 -2.44673 4.31797 0
M  V30 234 H 15.8392 -2.19111 5.70789 0
M  V30 235 H 20.0132 -1.98822 6.67415 0
M  V30 236 H 17.6402 -1.85518 7.37216 0
M  V30 237 N 19.2153 -1.21501 -1.00376 0
M  V30 238 C 20.1453 -0.999478 -2.11028 0
M  V30 239 C 21.1263 0.0759671 -1.6993 0
M  V30 240 O 22.3113 -0.0841106 -1.94018 0
M  V30 241 C 19.4413 -0.564709 -3.42678 0
M  V30 242 C 18.3953 -1.58486 -3.97576 0
M  V30 243 C 17.7213 -1.00628 -5.25146 0
M  V30 244 C 19.0213 -2.97204 -4.29496 0
M  V30 245 H 20.7153 -1.92495 -2.29317 0
M  V30 246 H 18.2613 -0.92693 -1.102 0
M  V30 247 H 20.2143 -0.401091 -4.19487 0
M  V30 248 H 18.9383 0.396411 -3.24185 0
M  V30 249 H 17.5973 -1.73606 -3.22888 0
M  V30 250 H 17.2453 -0.0368439 -5.02987 0
M  V30 251 H 16.9453 -1.68771 -5.62841 0
M  V30 252 H 18.4693 -0.854015 -6.04598 0
M  V30 253 H 19.8833 -2.8552 -4.97143 0
M  V30 254 H 18.2803 -3.62372 -4.78338 0
M  V30 255 H 19.3503 -3.47956 -3.3772 0
M  V30 256 N 20.6934 1.19889 -1.02296 0
M  V30 257 C 21.9184 1.9393 -0.735237 0
M  V30 258 C 22.3434 1.74639 0.698782 0
M  V30 259 O 21.7014 1.04481 1.48167 0
M  V30 260 C 21.7494 3.43916 -1.08417 0
M  V30 261 O 20.8534 4.11917 -0.199446 0
M  V30 262 H 20.1944 0.605645 -0.272196 0
M  V30 263 H 22.7244 1.52137 -1.36804 0
M  V30 264 H 22.7344 3.9456 -1.03856 0
M  V30 265 H 21.4094 3.5728 -2.12894 0
M  V30 266 H 19.9864 3.71666 -0.303136 0
M  V30 267 N 22.1715 0.800033 1.35784 0
M  V30 268 C 23.3965 0.388511 2.03729 0
M  V30 269 C 23.8215 -0.990481 1.5991 0
M  V30 270 O 23.1795 -1.64013 0.772612 0
M  V30 271 C 23.2275 0.4726 3.5749 0
M  V30 272 O 22.3315 -0.51646 4.09153 0
M  V30 273 H 21.6725 0.163271 0.643614 0
M  V30 274 H 24.2025 1.0841 1.73518 0
M  V30 275 H 24.2125 0.34003 4.06581 0
M  V30 276 H 22.8875 1.47848 3.88734 0
M  V30 277 H 21.4645 -0.344673 3.71304 0
M  V30 278 N 23.6496 -1.47581 0.552962 0
M  V30 279 C 24.8896 -2.04379 0.0296245 0
M  V30 280 C 25.2536 -1.4185 -1.29393 0
M  V30 281 O 26.4546 -1.89669 -1.90471 0
M  V30 282 C 24.7256 -3.57339 -0.0661371 0
M  V30 283 S 26.2846 -4.35511 -0.536213 0
M  V30 284 H 23.1026 -0.710625 0.0230991 0
M  V30 285 H 25.7046 -1.81005 0.738734 0
M  V30 286 H 24.4086 -4.00374 0.901596 0
M  V30 287 H 23.9396 -3.85202 -0.798931 0
M  V30 288 H 25.9546 -4.6253 -1.79668 0
M  V30 289 N 25.1277 -0.289203 -1.54924 0
M  V30 290 C 26.5437 0.0645403 -1.59469 0
M  V30 291 C 26.7437 1.53419 -1.30632 0
M  V30 292 O 25.7997 2.2852 -1.074 0
M  V30 293 C 27.1127 -0.32278 -2.98963 0
M  V30 294 C 28.6607 -0.270564 -3.11828 0
M  V30 295 C 29.1357 -0.632532 -4.53611 0
M  V30 296 N 30.6267 -0.584617 -4.59496 0
M  V30 297 C 31.3617 -0.837314 -5.67254 0
M  V30 298 N 30.8577 -1.15536 -6.83098 0
M  V30 299 N 32.6507 -0.765166 -5.56868 0
M  V30 300 H 24.8017 -1.24714 -1.71931 0
M  V30 301 H 27.0647 -0.504809 -0.802416 0
M  V30 302 H 26.7707 -1.34541 -3.24948 0
M  V30 303 H 26.6447 0.32944 -3.75759 0
M  V30 304 H 29.0317 0.742805 -2.85598 0
M  V30 305 H 29.1127 -0.957242 -2.37214 0
M  V30 306 H 28.7567 -1.64365 -4.80569 0
M  V30 307 H 28.6867 0.07609 -5.26545 0
M  V30 308 H 31.1777 -0.349248 -3.76283 0
M  V30 309 H 31.4907 -1.33447 -7.61191 0
M  V30 310 H 29.8357 -1.19328 -6.84679 0
M  V30 311 H 33.0267 -0.516432 -4.65243 0
M  V30 312 H 33.1997 -0.965477 -6.40767 0
M  V30 313 N 26.6058 1.57591 -0.0167156 0
M  V30 314 C 27.5688 2.08393 0.954204 0
M  V30 315 C 28.5688 0.996531 1.26198 0
M  V30 316 O 29.7588 1.25858 1.20438 0
M  V30 317 C 26.8908 2.5394 2.27436 0
M  V30 318 H 28.0838 2.95455 0.514451 0
M  V30 319 H 25.6368 1.54582 0.231089 0
M  V30 320 H 26.3718 1.70171 2.76066 0
M  V30 321 H 26.1568 3.33371 2.06412 0
M  V30 322 H 27.6468 2.93512 2.97053 0
M  V30 323 N 28.0839 -0.256276 1.55502 0
M  V30 324 C 28.9939 -1.33882 1.92647 0
M  V30 325 C 30.0099 -1.53159 0.825727 0
M  V30 326 O 31.1859 -1.66963 1.12629 0
M  V30 327 C 28.2509 -2.6751 2.20543 0
M  V30 328 C 27.3119 -2.56836 3.43997 0
M  V30 329 C 26.5449 -3.84092 3.70553 0
M  V30 330 O 26.7679 -4.85545 2.99336 0
M  V30 331 O 25.7019 -3.83288 4.64084 0
M  V30 332 H 29.5279 -1.05374 2.84833 0
M  V30 333 H 27.1129 -0.456237 1.42263 0
M  V30 334 H 28.9949 -3.46492 2.39835 0
M  V30 335 H 27.6699 -2.9577 1.31536 0
M  V30 336 H 26.5769 -1.76172 3.30021 0
M  V30 337 H 27.9099 -2.33523 4.33275 0
M  V30 338 N 29.562 -1.4872 -0.521534 0
M  V30 339 C 30.472 -1.66569 -1.65203 0
M  V30 340 C 31.488 -0.548197 -1.65139 0
M  V30 341 O 32.664 -0.820339 -1.83936 0
M  V30 342 C 29.729 -1.70917 -3.01642 0
M  V30 343 C 28.79 -2.94356 -3.12495 0
M  V30 344 C 28.023 -2.98487 -4.42426 0
M  V30 345 O 28.246 -2.10786 -5.30024 0
M  V30 346 O 27.18 -3.90746 -4.57822 0
M  V30 347 H 31.006 -2.62298 -1.5308 0
M  V30 348 H 28.591 -1.3222 -0.695565 0
M  V30 349 H 30.473 -1.7625 -3.82771 0
M  V30 350 H 29.148 -0.783633 -3.14071 0
M  V30 351 H 28.055 -2.94552 -2.3063 0
M  V30 352 H 29.388 -3.86322 -3.04986 0
M  V30 353 N 31.0401 0.771051 -1.3745 0
M  V30 354 C 32.2881 1.52661 -1.32435 0
M  V30 355 C 32.6091 1.9479 0.0905024 0
M  V30 356 O 31.8791 1.66348 1.03466 0
M  V30 357 H 30.4591 0.566218 -0.487244 0
M  V30 358 H 33.1211 0.917636 -1.71946 0
M  V30 359 H 32.2171 2.42568 -1.96385 0
M  V30 360 N 32.5182 1.22032 0.997298 0
M  V30 361 C 33.4482 1.01065 2.10495 0
M  V30 362 C 34.4292 -0.0669542 1.69968 0
M  V30 363 O 35.6142 0.0943987 1.9397 0
M  V30 364 C 32.7442 0.582874 3.42374 0
M  V30 365 C 31.6982 1.60592 3.96729 0
M  V30 366 C 31.0242 1.03412 5.24605 0
M  V30 367 C 32.3242 2.99478 4.27914 0
M  V30 368 H 34.0182 1.93708 2.28292 0
M  V30 369 H 31.5642 0.932761 1.09707 0
M  V30 370 H 33.5172 0.423332 4.19268 0
M  V30 371 H 32.2412 -0.379213 3.24391 0
M  V30 372 H 30.9002 1.75316 3.21963 0
M  V30 373 H 30.5482 0.063518 5.0296 0
M  V30 374 H 30.2482 1.71754 5.61938 0
M  V30 375 H 31.7722 0.886066 6.04137 0
M  V30 376 H 33.1862 2.88153 4.95622 0
M  V30 377 H 31.5832 3.64903 4.76409 0
M  V30 378 H 32.6532 3.49742 3.3587 0
M  V30 379 N 33.9963 -1.19345 1.0293 0
M  V30 380 C 34.9443 -2.24621 0.604001 0
M  V30 381 C 35.9383 -1.65452 -0.363587 0
M  V30 382 O 37.1443 -1.78497 -0.23212 0
M  V30 383 H 33.5193 -0.730858 0.177061 0
M  V30 384 H 35.4903 -2.5781 1.50255 0
M  V30 385 C 34.2393 -3.47688 -0.0289127 0
M  V30 386 H 33.5623 -3.93505 0.706651 0
M  V30 387 H 35.0023 -4.23011 -0.289432 0
M  V30 388 C 33.4613 -3.11817 -1.2756 0
M  V30 389 O 33.9913 -3.2451 -2.36762 0
M  V30 390 N 32.1973 -2.66246 -1.16453 0
M  V30 391 H 31.7443 -2.56118 -0.275914 0
M  V30 392 H 31.7023 -2.42617 -1.99961 0
M  V30 393 N 35.4744 -0.807222 -1.35358 0
M  V30 394 C 36.7214 -0.387888 -1.9875 0
M  V30 395 C 37.0494 1.04509 -1.64037 0
M  V30 396 O 36.3044 1.73986 -0.895946 0
M  V30 397 C 36.6034 -0.519036 -3.53611 0
M  V30 398 C 36.2694 -1.91542 -4.08194 0
M  V30 399 C 34.9314 -2.29745 -4.22813 0
M  V30 400 C 37.2834 -2.82896 -4.37744 0
M  V30 401 C 34.6114 -3.58668 -4.643 0
M  V30 402 C 36.9634 -4.11265 -4.8067 0
M  V30 403 C 35.6274 -4.49466 -4.93494 0
M  V30 404 H 34.8974 -0.141938 -0.727279 0
M  V30 405 H 37.5444 -1.02814 -1.6156 0
M  V30 406 H 35.8494 0.204658 -3.91265 0
M  V30 407 H 37.5464 -0.175345 -4.00616 0
M  V30 408 H 34.1364 -1.60862 -3.97268 0
M  V30 409 H 38.3204 -2.54629 -4.26002 0
M  V30 410 H 33.5764 -3.88113 -4.72418 0
M  V30 411 H 37.7504 -4.82153 -5.02496 0
M  V30 412 H 35.3774 -5.49418 -5.25399 0
M  V30 413 N 36.9525 1.47285 -0.560781 0
M  V30 414 C 38.3635 1.86258 -0.128343 0
M  V30 415 C 38.7145 1.46699 1.30284 0
M  V30 416 O 37.8395 0.871698 1.98067 0
M  V30 417 C 38.4345 3.38044 -0.22614 0
M  V30 418 C 36.9935 3.76096 0.151283 0
M  V30 419 C 36.1405 2.71335 -0.572084 0
M  V30 420 H 39.0915 1.38752 -0.770297 0
M  V30 421 H 39.1125 3.76441 0.554322 0
M  V30 422 H 38.6245 3.66806 -1.26788 0
M  V30 423 H 36.7255 3.52951 1.19399 0
M  V30 424 H 36.8385 4.78641 -0.209765 0
M  V30 425 H 35.2025 2.54696 -0.0147653 0
M  V30 426 H 35.9855 3.02938 -1.61504 0
M  V30 427 N 38.4306 0.297415 1.54768 0
M  V30 428 C 39.6586 -0.315623 2.04478 0
M  V30 429 C 40.0736 -1.47792 1.17486 0
M  V30 430 O 39.4306 -1.81404 0.19971 0
M  V30 431 C 39.4816 -0.7753 3.53088 0
M  V30 432 O 39.2026 0.340732 4.36773 0
M  V30 433 C 40.7036 -1.45386 4.18781 0
M  V30 434 H 37.9236 -0.0690887 0.667434 0
M  V30 435 H 40.4676 0.436003 1.99798 0
M  V30 436 H 38.6226 -1.47696 3.58141 0
M  V30 437 H 39.0366 -0.0165035 5.24497 0
M  V30 438 H 40.5106 -1.72669 5.24299 0
M  V30 439 H 40.9876 -2.39275 3.68299 0
M  V30 440 H 41.5936 -0.795475 4.17795 0
M  V30 441 N 39.9087 -1.5758 0.0250728 0
M  V30 442 C 41.1387 -1.95646 -0.663783 0
M  V30 443 C 41.5467 -0.899935 -1.66427 0
M  V30 444 O 40.8897 0.127191 -1.83259 0
M  V30 445 C 40.9517 -3.29835 -1.43 0
M  V30 446 C 40.6157 -4.53197 -0.588305 0
M  V30 447 C 41.6127 -5.19726 0.13469 0
M  V30 448 C 39.2977 -4.99529 -0.526897 0
M  V30 449 C 41.2917 -6.30902 0.90781 0
M  V30 450 C 38.9787 -6.10589 0.24993 0
M  V30 451 C 39.9767 -6.76134 0.965994 0
M  V30 452 O 39.6647 -7.85062 1.7301 0
M  V30 453 H 39.3967 -0.649282 -0.188174 0
M  V30 454 H 41.9507 -2.05245 0.0799006 0
M  V30 455 H 40.1807 -3.16716 -2.21873 0
M  V30 456 H 41.8697 -3.52833 -2.00658 0
M  V30 457 H 42.6357 -4.84904 0.0965562 0
M  V30 458 H 38.5147 -4.48319 -1.07381 0
M  V30 459 H 42.0587 -6.81995 1.46724 0
M  V30 460 H 37.9557 -6.44849 0.289795 0
M  V30 461 H 38.7237 -8.01708 1.64944 0
M  V30 462 N 41.3868 0.248026 -1.55636 0
M  V30 463 C 42.6638 0.998988 -1.68165 0
M  V30 464 C 43.0438 2.03409 -0.564621 0
M  V30 465 O 42.3918 2.24378 0.432076 0
M  V30 466 C 42.6018 1.63334 -3.0842 0
M  V30 467 C 43.9498 2.13562 -3.66983 0
M  V30 468 O 44.9738 1.73277 -3.11213 0
M  V30 469 O 43.8328 2.87526 -4.64749 0
M  V30 470 H 40.9268 0.464933 -0.683935 0
M  V30 471 H 43.4728 0.241902 -1.67967 0
M  V30 472 H 42.2448 0.884583 -3.8117 0
M  V30 473 H 41.8678 2.45666 -3.12624 0
M  V30 474 N 42.8649 1.48995 0.513639 0
M  V30 475 C 44.1129 1.57531 1.26604 0
M  V30 476 C 44.4339 0.258236 1.93283 0
M  V30 477 O 43.7039 -0.721502 1.8213 0
M  V30 478 H 42.2839 0.580387 0.470276 0
M  V30 479 H 44.9459 1.85552 0.596373 0
M  V30 480 H 44.0419 2.36486 2.03669 0
M  V30 481 N 44.343 -0.763751 1.37857 0
M  V30 482 C 45.29 -1.87726 1.34267 0
M  V30 483 C 46.26 -1.64807 0.206879 0
M  V30 484 O 47.445 -1.86613 0.397508 0
M  V30 485 C 44.585 -3.24896 1.16346 0
M  V30 486 C 43.698 -3.59716 2.39225 0
M  V30 487 C 42.833 -4.86137 2.14114 0
M  V30 488 C 41.872 -5.13711 3.32817 0
M  V30 489 N 41.009 -6.31323 3.07206 0
M  V30 490 H 45.849 -1.90129 2.29466 0
M  V30 491 H 43.386 -0.929433 1.14017 0
M  V30 492 H 45.344 -4.04036 1.03975 0
M  V30 493 H 43.974 -3.21847 0.247909 0
M  V30 494 H 43.026 -2.75498 2.62307 0
M  V30 495 H 44.338 -3.76027 3.27728 0
M  V30 496 H 43.492 -5.73198 1.9882 0
M  V30 497 H 42.231 -4.71945 1.22961 0
M  V30 498 H 41.236 -4.25123 3.48641 0
M  V30 499 H 42.461 -5.29807 4.24832 0
M  V30 500 H 40.407 -6.18474 2.1869 0
M  V30 501 H 40.324 -6.48087 3.89254 0
M  V30 502 H 41.592 -7.213 2.95546 0
M  V30 503 N 45.8211 -1.22559 -0.990812 0
M  V30 504 C 47.0981 -0.959875 -1.70428 0
M  V30 505 C 47.4781 0.524455 -2.04481 0
M  V30 506 O 46.8261 1.49302 -1.72977 0
M  V30 507 C 47.0361 -1.85955 -2.95333 0
M  V30 508 C 48.3841 -2.11687 -3.68068 0
M  V30 509 O 49.4081 -1.8342 -3.05345 0
M  V30 510 O 48.2671 -2.59572 -4.80921 0
M  V30 511 H 45.3611 -0.361154 -0.743974 0
M  V30 512 H 47.9071 -1.33554 -1.04697 0
M  V30 513 H 46.6791 -2.86346 -2.66687 0
M  V30 514 H 46.3021 -1.4856 -3.68803 0
M  V30 515 N 47.2992 1.18797 -1.03562 0
M  V30 516 C 48.7152 1.40671 -0.753917 0
M  V30 517 C 48.9152 1.9043 0.658686 0
M  V30 518 O 47.9712 2.08538 1.42366 0
M  V30 519 C 49.2842 2.41192 -1.79574 0
M  V30 520 C 50.8322 2.54928 -1.81606 0
M  V30 521 C 51.3072 3.58709 -2.84766 0
M  V30 522 N 52.7982 3.66212 -2.83625 0
M  V30 523 C 53.5332 4.46225 -3.60098 0
M  V30 524 N 53.0292 5.29888 -4.46308 0
M  V30 525 N 54.8222 4.40939 -3.4861 0
M  V30 526 H 46.9732 0.848221 -1.94728 0
M  V30 527 H 49.2362 0.435081 -0.842264 0
M  V30 528 H 48.9422 2.11669 -2.80872 0
M  V30 529 H 48.8162 3.40467 -1.62365 0
M  V30 530 H 51.2032 2.83771 -0.809817 0
M  V30 531 H 51.2842 1.55784 -2.02891 0
M  V30 532 H 50.9282 3.30607 -3.85566 0
M  V30 533 H 50.8582 4.57519 -2.60737 0
M  V30 534 H 53.3492 3.06466 -2.21105 0
M  V30 535 H 53.6622 5.88078 -5.01382 0
M  V30 536 H 52.0072 5.29326 -4.50377 0
M  V30 537 H 55.1982 3.74624 -2.80668 0
M  V30 538 H 55.3712 5.03056 -4.08459 0
M  V30 539 N 48.7773 0.814389 1.34928 0
M  V30 540 C 50.0233 0.399013 1.98836 0
M  V30 541 C 50.3563 -1.03314 1.64438 0
M  V30 542 O 49.6313 -1.71811 0.911659 0
M  V30 543 C 49.9143 0.591629 3.55207 0
M  V30 544 C 49.7673 2.06928 3.99376 0
M  V30 545 C 51.0863 0.022199 4.40094 0
M  V30 546 H 48.2053 0.146451 0.722303 0
M  V30 547 H 50.8473 1.02537 1.59957 0
M  V30 548 H 48.9973 0.0584441 3.88456 0
M  V30 549 H 50.6693 2.66544 3.76499 0
M  V30 550 H 48.9123 2.56287 3.49999 0
M  V30 551 H 49.5833 2.1549 5.08201 0
M  V30 552 H 52.0593 0.477643 4.13349 0
M  V30 553 H 50.9353 0.186832 5.48582 0
M  V30 554 H 51.1963 -1.07215 4.28902 0
M  V30 555 N 50.2554 -1.46986 0.568584 0
M  V30 556 C 51.5014 -2.02741 0.0488709 0
M  V30 557 C 51.8344 -1.44077 -1.30214 0
M  V30 558 O 51.1094 -0.600552 -1.84996 0
M  V30 559 C 51.3924 -3.60086 -0.032047 0
M  V30 560 C 51.2454 -4.29162 1.34686 0
M  V30 561 C 52.5644 -4.33838 -0.739798 0
M  V30 562 H 49.6834 -0.736749 0.0192338 0
M  V30 563 H 52.3254 -1.75289 0.733065 0
M  V30 564 H 50.4754 -3.83606 -0.61473 0
M  V30 565 H 52.1474 -4.16948 1.97362 0
M  V30 566 H 50.3904 -3.89073 1.91846 0
M  V30 567 H 51.0614 -5.37826 1.24285 0
M  V30 568 H 53.5374 -4.15378 -0.244939 0
M  V30 569 H 52.4134 -5.43537 -0.765406 0
M  V30 570 H 52.6744 -4.03875 -1.79827 0
M  V30 571 N 51.7335 -0.305618 -1.54608 0
M  V30 572 C 52.9585 0.307562 -2.05107 0
M  V30 573 C 53.3835 1.46385 -1.18123 0
M  V30 574 O 52.7415 1.8034 -0.186324 0
M  V30 575 C 52.7895 0.73704 -3.52987 0
M  V30 576 O 51.8935 1.84134 -3.6901 0
M  V30 577 H 51.2345 0.0589143 -0.661381 0
M  V30 578 H 53.7645 -0.448807 -1.99617 0
M  V30 579 H 53.7745 1.02459 -3.94925 0
M  V30 580 H 52.4495 -0.108773 -4.15758 0
M  V30 581 H 51.0265 1.55398 -3.38978 0
M  V30 582 N 53.2116 1.57565 -0.0334293 0
M  V30 583 C 54.1416 2.13511 0.945265 0
M  V30 584 C 55.1226 1.05231 1.33643 0
M  V30 585 O 56.3076 1.33084 1.41429 0
M  V30 586 C 53.4376 2.6657 2.22616 0
M  V30 587 C 52.3916 3.79676 1.97561 0
M  V30 588 C 51.7176 4.1918 3.31952 0
M  V30 589 C 53.0176 5.0557 1.31135 0
M  V30 590 H 54.7116 2.95538 0.479325 0
M  V30 591 H 52.2576 1.42166 0.229115 0
M  V30 592 H 54.2106 3.04344 2.91466 0
M  V30 593 H 52.9346 1.8171 2.71384 0
M  V30 594 H 51.5936 3.42347 1.31127 0
M  V30 595 H 51.2416 3.31296 3.78487 0
M  V30 596 H 50.9416 4.95402 3.15992 0
M  V30 597 H 52.4656 4.59541 4.02063 0
M  V30 598 H 53.8796 5.40903 1.89992 0
M  V30 599 H 52.2766 5.86818 1.25559 0
M  V30 600 H 53.3466 4.84062 0.284894 0
M  V30 601 N 54.6897 -0.239769 1.55765 0
M  V30 602 C 55.9147 -0.988373 1.82335 0
M  V30 603 C 56.3397 -1.77886 0.611421 0
M  V30 604 O 55.6977 -1.75889 -0.439639 0
M  V30 605 C 55.7457 -1.89627 3.06715 0
M  V30 606 O 54.8497 -2.98904 2.84131 0
M  V30 607 H 54.1907 -0.280858 0.601677 0
M  V30 608 H 56.7207 -0.258597 2.02959 0
M  V30 609 H 56.7307 -2.30957 3.36338 0
M  V30 610 H 55.4057 -1.31511 3.9456 0
M  V30 611 H 53.9827 -2.61651 2.65694 0
M  V30 612 N 56.1678 -1.49265 -0.50573 0
M  V30 613 C 57.0778 -1.68312 -1.63427 0
M  V30 614 C 58.0938 -0.565682 -1.64548 0
M  V30 615 O 59.2698 -0.839801 -1.83055 0
M  V30 616 C 56.3348 -1.74107 -2.99813 0
M  V30 617 C 55.3958 -2.97653 -3.09356 0
M  V30 618 C 54.6288 -3.03163 -4.39236 0
M  V30 619 O 54.8518 -2.16396 -5.27758 0
M  V30 620 O 53.7858 -3.9558 -4.53652 0
M  V30 621 H 57.6118 -2.63907 -1.50289 0
M  V30 622 H 55.1968 -1.32951 -0.681502 0
M  V30 623 H 57.0788 -1.803 -3.80881 0
M  V30 624 H 55.7538 -0.816901 -3.13223 0
M  V30 625 H 54.6608 -2.96981 -2.27493 0
M  V30 626 H 55.9938 -3.89535 -3.00871 0
M  V30 627 N 57.6459 0.756429 -1.3826 0
M  V30 628 C 58.5929 1.87011 -1.35261 0
M  V30 629 C 59.5629 1.64695 -0.215616 0
M  V30 630 O 60.7479 1.864 -0.407399 0
M  V30 631 C 57.8879 3.24275 -1.18068 0
M  V30 632 C 57.0009 3.58442 -2.41129 0
M  V30 633 C 56.1359 4.84994 -2.16689 0
M  V30 634 C 55.1749 5.11939 -3.35537 0
M  V30 635 N 54.3119 6.29685 -3.10549 0
M  V30 636 H 59.1519 1.8891 -2.30472 0
M  V30 637 H 56.6889 0.923373 -1.14509 0
M  V30 638 H 58.6469 4.03479 -1.06116 0
M  V30 639 H 57.2769 3.21711 -0.264973 0
M  V30 640 H 56.3289 2.74103 -2.63764 0
M  V30 641 H 57.6409 3.74283 -3.29717 0
M  V30 642 H 56.7949 5.72135 -2.01857 0
M  V30 643 H 55.5339 4.71286 -1.25462 0
M  V30 644 H 54.5389 4.23268 -3.50891 0
M  V30 645 H 55.7639 5.27546 -4.27635 0
M  V30 646 H 53.7099 6.17306 -2.21967 0
M  V30 647 H 53.6269 6.46014 -3.92686 0
M  V30 648 H 54.8949 7.19722 -2.99367 0
M  V30 649 N 59.124 1.23083 0.984299 0
M  V30 650 C 60.072 1.00593 2.09723 0
M  V30 651 C 61.066 -0.0538014 1.69315 0
M  V30 652 O 62.272 0.0993719 1.79725 0
M  V30 653 H 58.647 0.30817 0.685956 0
M  V30 654 H 60.618 1.95012 2.2586 0
M  V30 655 C 59.367 0.609601 3.42314 0
M  V30 656 H 58.69 1.41675 3.73856 0
M  V30 657 H 60.13 0.491726 4.21139 0
M  V30 658 C 58.589 -0.681745 3.2993 0
M  V30 659 O 59.119 -1.73192 3.62446 0
M  V30 660 N 57.325 -0.656178 2.83095 0
M  V30 661 H 56.872 0.198759 2.56832 0
M  V30 662 H 56.83 -1.52044 2.75191 0
M  V30 663 N 60.6021 -1.18246 1.0419 0
M  V30 664 C 61.8491 -1.88257 0.746017 0
M  V30 665 C 62.1771 -1.80429 -0.726331 0
M  V30 666 O 61.4321 -1.2 -1.54591 0
M  V30 667 C 61.7311 -3.38082 1.15911 0
M  V30 668 C 61.3971 -3.66114 2.63195 0
M  V30 669 C 60.0591 -3.73474 3.03432 0
M  V30 670 C 62.4111 -3.78398 3.5842 0
M  V30 671 C 59.7391 -3.90599 4.37778 0
M  V30 672 C 62.0911 -3.97039 4.92487 0
M  V30 673 C 60.7551 -4.02635 5.32392 0
M  V30 674 H 60.0251 -0.688883 0.272987 0
M  V30 675 H 62.6721 -1.3995 1.30715 0
M  V30 676 H 60.9771 -3.88377 0.516806 0
M  V30 677 H 62.6741 -3.90596 0.907516 0
M  V30 678 H 59.2641 -3.61003 2.3103 0
M  V30 679 H 63.4481 -3.72042 3.28479 0
M  V30 680 H 58.7041 -3.93175 4.68213 0
M  V30 681 H 62.8781 -4.05486 5.66175 0
M  V30 682 H 60.5051 -4.15657 6.36501 0
M  V30 683 N 62.0802 -0.821533 -1.34494 0
M  V30 684 C 63.0272 -0.240397 -2.29545 0
M  V30 685 C 63.9972 0.634031 -1.53523 0
M  V30 686 O 65.1822 0.575966 -1.81899 0
M  V30 687 C 62.3222 0.592869 -3.39969 0
M  V30 688 C 61.4352 -0.30365 -4.30932 0
M  V30 689 C 60.5702 0.539049 -5.28458 0
M  V30 690 C 59.6092 -0.356942 -6.11058 0
M  V30 691 N 58.7462 0.446603 -7.00678 0
M  V30 692 H 63.5862 -1.05632 -2.7865 0
M  V30 693 H 61.1232 -0.532413 -1.37127 0
M  V30 694 H 63.0812 1.09129 -4.02675 0
M  V30 695 H 61.7112 1.37392 -2.92102 0
M  V30 696 H 60.7632 -0.920276 -3.691 0
M  V30 697 H 62.0752 -0.992661 -4.88823 0
M  V30 698 H 61.2292 1.102 -5.96608 0
M  V30 699 H 59.9682 1.26157 -4.71101 0
M  V30 700 H 58.9732 -0.932047 -5.41842 0
M  V30 701 H 60.1982 -1.07755 -6.70497 0
M  V30 702 H 58.1442 1.15282 -6.45791 0
M  V30 703 H 58.0612 -0.184048 -7.55776 0
M  V30 704 H 59.3292 0.992352 -7.73158 0
M  V30 705 N 63.5583 1.46682 -0.576371 0
M  V30 706 C 64.4903 2.28341 0.198231 0
M  V30 707 C 65.5033 1.38141 0.861453 0
M  V30 708 O 66.6923 1.62797 0.732082 0
M  V30 709 C 63.7923 3.12986 1.29972 0
M  V30 710 C 62.9653 4.31271 0.729639 0
M  V30 711 C 62.0243 4.97363 1.71803 0
M  V30 712 O 61.0503 5.55156 1.25658 0
M  V30 713 N 62.2523 4.93796 3.05198 0
M  V30 714 H 65.0173 2.9546 -0.502324 0
M  V30 715 H 62.5783 1.56525 -0.413715 0
M  V30 716 H 64.5703 3.54066 1.96008 0
M  V30 717 H 63.1403 2.47984 1.90323 0
M  V30 718 H 62.3603 3.94052 -0.108012 0
M  V30 719 H 63.6483 5.07739 0.328438 0
M  V30 720 H 63.0463 4.48077 3.45317 0
M  V30 721 H 61.6033 5.38837 3.6674 0
M  V30 722 N 65.0364 0.313813 1.54444 0
M  V30 723 C 66.2824 -0.292108 2.00685 0
M  V30 724 C 66.6154 -1.52548 1.20177 0
M  V30 725 O 65.8904 -1.92452 0.281531 0
M  V30 726 C 66.1734 -0.635968 3.5444 0
M  V30 727 C 66.0264 0.607437 4.4568 0
M  V30 728 C 67.3454 -1.45747 4.15266 0
M  V30 729 H 64.4644 -0.104697 0.729526 0
M  V30 730 H 67.1064 0.428457 1.85106 0
M  V30 731 H 65.2564 -1.24986 3.67846 0
M  V30 732 H 66.9284 1.24581 4.44159 0
M  V30 733 H 65.1714 1.23822 4.15753 0
M  V30 734 H 65.8424 0.322515 5.51057 0
M  V30 735 H 68.3184 -0.938645 4.05375 0
M  V30 736 H 67.1944 -1.66683 5.2298 0
M  V30 737 H 67.4554 -2.45063 3.67963 0
M  V30 738 N 66.5145 -1.57545 0.0417849 0
M  V30 739 C 67.4445 -2.14009 -0.933929 0
M  V30 740 C 68.4255 -1.05938 -1.33083 0
M  V30 741 O 69.6105 -1.33833 -1.40721 0
M  V30 742 C 66.7405 -2.67747 -2.21199 0
M  V30 743 C 65.6945 -3.80718 -1.95544 0
M  V30 744 C 65.0205 -4.20935 -3.29724 0
M  V30 745 C 66.3205 -5.06258 -1.28452 0
M  V30 746 H 68.0145 -2.95788 -0.463645 0
M  V30 747 H 65.5605 -1.42285 -0.221573 0
M  V30 748 H 67.5135 -3.05886 -2.89848 0
M  V30 749 H 66.2375 -1.83147 -2.70416 0
M  V30 750 H 64.8965 -3.43037 -1.2931 0
M  V30 751 H 64.5445 -3.33298 -3.76724 0
M  V30 752 H 64.2445 -4.9707 -3.13361 0
M  V30 753 H 65.7685 -4.61666 -3.9962 0
M  V30 754 H 67.1825 -5.41903 -1.8712 0
M  V30 755 H 65.5795 -5.87475 -1.22445 0
M  V30 756 H 66.6495 -4.84207 -0.259219 0
M  V30 757 N 67.9926 0.231505 -1.5589 0
M  V30 758 C 68.9396 1.28682 -1.91598 0
M  V30 759 C 69.9096 1.47071 -0.771974 0
M  V30 760 O 71.0946 1.60802 -1.027 0
M  V30 761 C 68.2346 2.6342 -2.22944 0
M  V30 762 C 67.3476 2.52912 -3.50228 0
M  V30 763 C 66.4826 3.80106 -3.7107 0
M  V30 764 C 65.5216 3.64279 -4.91902 0
M  V30 765 N 64.6586 4.834 -5.09184 0
M  V30 766 H 69.4986 0.975305 -2.81588 0
M  V30 767 H 67.0356 0.470299 -1.39379 0
M  V30 768 H 68.9936 3.41869 -2.39126 0
M  V30 769 H 67.6236 2.92687 -1.36139 0
M  V30 770 H 66.6756 1.6595 -3.42294 0
M  V30 771 H 67.9876 2.37133 -4.38827 0
M  V30 772 H 67.1416 4.66999 -3.87295 0
M  V30 773 H 65.8806 3.98799 -2.80733 0
M  V30 774 H 64.8856 2.7577 -4.75637 0
M  V30 775 H 66.1106 3.47067 -5.83714 0
M  V30 776 H 64.0566 5.02425 -4.21788 0
M  V30 777 H 63.9736 4.70311 -5.91898 0
M  V30 778 H 65.2416 5.71747 -5.29835 0
M  V30 779 N 69.4707 1.49531 0.497807 0
M  V30 780 C 70.4177 1.66436 1.59899 0
M  V30 781 C 71.3877 0.505793 1.58212 0
M  V30 782 O 72.5727 0.733202 1.7615 0
M  V30 783 C 69.7127 1.7399 2.98029 0
M  V30 784 C 68.8257 3.01172 3.09708 0
M  V30 785 C 67.9607 2.99686 4.38591 0
M  V30 786 C 66.9997 4.21434 4.43914 0
M  V30 787 N 66.1367 4.1784 5.64229 0
M  V30 788 H 70.9767 2.60459 1.44793 0
M  V30 789 H 68.5137 1.29137 0.704423 0
M  V30 790 H 70.4717 1.76352 3.78095 0
M  V30 791 H 69.1017 0.834301 3.11832 0
M  V30 792 H 68.1537 3.08408 2.22685 0
M  V30 793 H 69.4657 3.91165 3.09502 0
M  V30 794 H 68.6197 3.00628 5.2698 0
M  V30 795 H 67.3587 2.07477 4.41367 0
M  V30 796 H 66.3637 4.20733 3.53926 0
M  V30 797 H 67.5887 5.14839 4.42851 0
M  V30 798 H 65.5347 3.28469 5.67841 0
M  V30 799 H 65.4517 5.01571 5.65652 0
M  V30 800 H 66.7197 4.22889 6.54817 0
M  V30 801 N 70.9488 -0.749086 1.3866 0
M  V30 802 C 72.1788 -1.53611 1.38157 0
M  V30 803 C 72.5868 -1.89177 -0.0293595 0
M  V30 804 O 71.9298 -1.53606 -1.00752 0
M  V30 805 C 71.9918 -2.86087 2.17702 0
M  V30 806 C 71.6558 -2.73034 3.66472 0
M  V30 807 C 72.6528 -2.42526 4.59866 0
M  V30 808 C 70.3378 -2.90345 4.09884 0
M  V30 809 C 72.3318 -2.29492 5.94653 0
M  V30 810 C 70.0188 -2.7693 5.4475 0
M  V30 811 C 71.0168 -2.46547 6.36949 0
M  V30 812 O 70.7048 -2.33199 7.69333 0
M  V30 813 H 70.4368 -0.481773 0.474205 0
M  V30 814 H 72.9908 -0.934465 1.82912 0
M  V30 815 H 71.2208 -3.48458 1.67672 0
M  V30 816 H 72.9098 -3.47625 2.09551 0
M  V30 817 H 73.6758 -2.28816 4.27631 0
M  V30 818 H 69.5548 -3.1299 3.38464 0
M  V30 819 H 73.0988 -2.05698 6.66584 0
M  V30 820 H 68.9958 -2.90215 5.76581 0
M  V30 821 H 69.7638 -2.48376 7.79905 0
M  V30 822 N 72.4269 -1.23603 -0.977757 0
M  V30 823 C 73.7039 -0.977897 -1.69401 0
M  V30 824 C 74.0839 0.502738 -2.05026 0
M  V30 825 O 73.4319 1.47459 -1.74551 0
M  V30 826 C 73.6419 -1.89077 -2.93345 0
M  V30 827 C 74.9899 -2.15579 -3.65802 0
M  V30 828 O 76.0139 -1.86648 -3.03383 0
M  V30 829 O 74.8729 -2.64658 -4.78141 0
M  V30 830 H 71.9669 -0.369025 -0.740101 0
M  V30 831 H 74.5129 -1.34657 -1.03274 0
M  V30 832 H 73.2849 -2.89158 -2.63634 0
M  V30 833 H 72.9079 -1.52463 -3.67207 0
M  V30 834 N 73.905 1.17692 -1.04816 0
M  V30 835 C 74.835 2.23777 -0.666791 0
M  V30 836 C 75.816 1.66796 0.33361 0
M  V30 837 O 77.001 1.93039 0.212042 0
M  V30 838 C 74.131 3.47281 -0.0367933 0
M  V30 839 C 73.085 4.17059 -0.961546 0
M  V30 840 C 72.411 5.34342 -0.195626 0
M  V30 841 C 73.711 4.69713 -2.28402 0
M  V30 842 H 75.405 2.55933 -1.55367 0
M  V30 843 H 72.951 1.23019 -0.748484 0
M  V30 844 H 74.904 4.20706 0.241775 0
M  V30 845 H 73.628 3.14381 0.885004 0
M  V30 846 H 72.287 3.45541 -1.22462 0
M  V30 847 H 71.935 4.97692 0.728816 0
M  V30 848 H 71.635 5.81966 -0.811775 0
M  V30 849 H 73.159 6.10553 0.0757473 0
M  V30 850 H 74.573 5.34794 -2.06563 0
M  V30 851 H 72.97 5.279 -2.8538 0
M  V30 852 H 74.04 3.86726 -2.92525 0
M  V30 853 N 75.3831 0.828654 1.34056 0
M  V30 854 C 76.3131 0.269443 2.3194 0
M  V30 855 C 77.2941 -0.617247 1.58506 0
M  V30 856 O 78.4791 -0.542931 1.86456 0
M  V30 857 C 75.6091 -0.564793 3.42677 0
M  V30 858 C 74.5631 0.225241 4.27407 0
M  V30 859 C 73.8891 -0.7321 5.29664 0
M  V30 860 C 75.1891 1.43663 5.02154 0
M  V30 861 H 76.8831 1.08728 2.7896 0
M  V30 862 H 74.4291 0.524283 1.34117 0
M  V30 863 H 76.3821 -0.966233 4.10173 0
M  V30 864 H 75.1061 -1.41574 2.9432 0
M  V30 865 H 73.7651 0.608117 3.61521 0
M  V30 866 H 73.4131 -1.57916 4.77568 0
M  V30 867 H 73.1131 -0.20767 5.87233 0
M  V30 868 H 74.6371 -1.13128 6.00029 0
M  V30 869 H 76.0511 1.1089 5.62473 0
M  V30 870 H 74.4481 1.89711 5.69324 0
M  V30 871 H 75.5181 2.21181 4.31517 0
M  V30 872 N 76.8612 -1.46375 0.584142 0
M  V30 873 C 78.1012 -2.0427 0.0729695 0
M  V30 874 C 78.4652 -1.44563 -1.26355 0
M  V30 875 O 79.6662 -1.93667 -1.86405 0
M  V30 876 C 77.9372 -3.57399 0.00967464 0
M  V30 877 S 79.4962 -4.36551 -0.443714 0
M  V30 878 H 76.3142 -0.709975 0.0381673 0
M  V30 879 H 78.9162 -1.79398 0.776962 0
M  V30 880 H 77.6202 -3.98372 0.986319 0
M  V30 881 H 77.1512 -3.8681 -0.717044 0
M  V30 882 H 79.1662 -4.66237 -1.69816 0
M  V30 883 N 78.3393 -0.321999 -1.54275 0
M  V30 884 C 79.2693 0.537411 -2.27231 0
M  V30 885 C 80.2503 1.12064 -1.27968 0
M  V30 886 O 81.4353 1.14606 -1.56777 0
M  V30 887 C 78.5653 1.69919 -3.02894 0
M  V30 888 C 77.5193 1.24534 -4.09482 0
M  V30 889 C 76.8453 2.49394 -4.72977 0
M  V30 890 C 78.1453 0.361335 -5.21049 0
M  V30 891 H 79.8393 -0.0711406 -2.99315 0
M  V30 892 H 77.3853 -0.0356555 -1.43956 0
M  V30 893 H 79.3383 2.30668 -3.52662 0
M  V30 894 H 78.0623 2.33431 -2.28424 0
M  V30 895 H 76.7213 0.660782 -3.60596 0
M  V30 896 H 76.3693 3.11265 -3.95124 0
M  V30 897 H 76.0693 2.19718 -5.44975 0
M  V30 898 H 77.5933 3.10908 -5.25517 0
M  V30 899 H 79.0073 0.875072 -5.66582 0
M  V30 900 H 77.4043 0.157428 -5.99893 0
M  V30 901 H 78.4743 -0.60822 -4.8107 0
M  V30 902 N 79.8174 1.5752 -0.0501392 0
M  V30 903 C 81.0474 1.96678 0.632573 0
M  V30 904 C 81.4554 0.926298 1.64974 0
M  V30 905 O 80.7984 -0.09802 1.83438 0
M  V30 906 C 80.8604 3.32068 1.37735 0
M  V30 907 C 80.5244 4.54076 0.516131 0
M  V30 908 C 81.5214 5.19445 -0.217357 0
M  V30 909 C 79.2064 5.00304 0.44736 0
M  V30 910 C 81.2004 6.29378 -1.00807 0
M  V30 911 C 78.8874 6.10114 -0.347038 0
M  V30 912 C 79.8854 6.74512 -1.07344 0
M  V30 913 O 79.5734 7.82211 -1.85477 0
M  V30 914 H 79.3054 0.652193 0.177821 0
M  V30 915 H 81.8594 2.05091 -0.112543 0
M  V30 916 H 80.0894 3.20206 2.16807 0
M  V30 917 H 81.7784 3.55981 1.95019 0
M  V30 918 H 82.5444 4.84689 -0.173688 0
M  V30 919 H 78.4234 4.49971 1.00235 0
M  V30 920 H 81.9674 6.79575 -1.57556 0
M  V30 921 H 77.8644 6.44307 -0.392349 0
M  V30 922 H 78.6324 7.98982 -1.77678 0
M  V30 923 N 81.2955 -0.223234 1.56011 0
M  V30 924 C 82.5255 -0.963413 1.82762 0
M  V30 925 C 82.9335 -1.78516 0.626804 0
M  V30 926 O 82.2765 -1.78974 -0.414014 0
M  V30 927 C 82.3385 -1.93126 3.0322 0
M  V30 928 C 82.0025 -1.2942 4.38291 0
M  V30 929 C 82.9995 -0.684916 5.15369 0
M  V30 930 C 80.6845 -1.30647 4.85012 0
M  V30 931 C 82.6785 -0.0963971 6.37327 0
M  V30 932 C 80.3655 -0.71411 6.06913 0
M  V30 933 C 81.3635 -0.110123 6.82911 0
M  V30 934 O 81.0515 0.47303 8.02507 0
M  V30 935 H 80.7835 -0.288011 0.611576 0
M  V30 936 H 83.3375 -0.244103 2.03944 0
M  V30 937 H 81.5675 -2.68952 2.77852 0
M  V30 938 H 83.2565 -2.53685 3.16857 0
M  V30 939 H 84.0225 -0.667774 4.80381 0
M  V30 940 H 79.9015 -1.76598 4.25833 0
M  V30 941 H 83.4455 0.375657 6.96588 0
M  V30 942 H 79.3425 -0.728659 6.41374 0
M  V30 943 H 80.1105 0.367186 8.17676 0
M  V30 944 N 82.7736 -1.49793 -0.48987 0
M  V30 945 C 83.7236 -1.63673 -1.5873 0
M  V30 946 C 84.7076 -0.491956 -1.53195 0
M  V30 947 O 85.8996 -0.745461 -1.60536 0
M  V30 948 C 83.0286 -1.71689 -2.97284 0
M  V30 949 C 82.1146 -2.91781 -3.07774 0
M  V30 950 N 82.5056 -4.15714 -2.88124 0
M  V30 951 C 80.8036 -2.89949 -3.38889 0
M  V30 952 C 81.5046 -4.965 -3.03088 0
M  V30 953 N 80.4806 -4.30083 -3.3246 0
M  V30 954 H 84.2826 -2.57204 -1.42208 0
M  V30 955 H 81.7966 -1.46719 -0.69623 0
M  V30 956 H 83.7936 -1.79732 -3.76168 0
M  V30 957 H 82.4536 -0.793024 -3.14867 0
M  V30 958 H 83.4646 -4.45515 -2.64077 0
M  V30 959 H 80.1416 -2.06987 -3.62578 0
M  V30 960 H 81.5316 -6.04991 -2.92294 0
M  V30 961 N 84.2517 0.741722 -1.39055 0
M  V30 962 C 85.1617 1.88621 -1.39496 0
M  V30 963 C 86.1777 1.71557 -0.290578 0
M  V30 964 O 87.3537 1.94275 -0.530954 0
M  V30 965 C 84.4187 3.24134 -1.23037 0
M  V30 966 C 83.4797 3.5364 -2.43387 0
M  V30 967 C 82.7127 4.82687 -2.27703 0
M  V30 968 O 82.9357 5.55922 -1.27696 0
M  V30 969 O 81.8697 5.1194 -3.16545 0
M  V30 970 H 85.6957 1.91203 -2.35956 0
M  V30 971 H 83.2807 0.888625 -1.20099 0
M  V30 972 H 85.1627 4.0513 -1.15964 0
M  V30 973 H 83.8377 3.22337 -0.296691 0
M  V30 974 H 82.7447 2.72758 -2.56035 0
M  V30 975 H 84.0777 3.60209 -3.35425 0
M  V30 976 N 85.7298 1.2412 0.971189 0
M  V30 977 C 87.1408 1.07236 1.52831 0
M  V30 978 C 87.4918 -0.357352 1.92918 0
M  V30 979 O 86.6168 -1.24528 1.76979 0
M  V30 980 C 87.2118 1.94043 2.77728 0
M  V30 981 C 85.7708 1.81394 3.29808 0
M  V30 982 C 84.9178 1.89189 2.02738 0
M  V30 983 H 87.8688 1.37648 0.789864 0
M  V30 984 H 87.8898 1.47066 3.5093 0
M  V30 985 H 87.4018 2.98093 2.4852 0
M  V30 986 H 85.5028 0.801634 3.63874 0
M  V30 987 H 85.6158 2.65294 3.98944 0
M  V30 988 H 83.9798 1.32877 2.17292 0
M  V30 989 H 84.7628 2.94812 1.759 0
M  V30 990 N 87.2079 -1.17134 1.05439 0
M  V30 991 C 88.4539 -1.87733 0.767077 0
M  V30 992 C 88.7869 -1.8098 -0.704253 0
M  V30 993 O 88.0619 -1.21951 -1.5152 0
M  V30 994 C 88.3449 -3.37659 1.25133 0
M  V30 995 C 88.1979 -3.53149 2.78578 0
M  V30 996 C 89.5169 -4.31768 0.852324 0
M  V30 997 H 86.6359 -0.681687 0.280129 0
M  V30 998 H 89.2779 -1.37732 1.30881 0
M  V30 999 H 87.4279 -3.80373 0.790469 0
M  V30 1000 H 89.0999 -3.19434 3.32806 0
M  V30 1001 H 87.3429 -2.95345 3.17732 0
M  V30 1002 H 88.0139 -4.58403 3.07523 0
M  V30 1003 H 90.4899 -3.96909 1.24911 0
M  V30 1004 H 89.3659 -5.35199 1.21873 0
M  V30 1005 H 89.6269 -4.41429 -0.243485 0
M  V30 1006 N 88.686 -0.835752 -1.33615 0
M  V30 1007 C 89.911 -0.442389 -2.02627 0
M  V30 1008 C 90.336 0.947735 -1.62479 0
M  V30 1009 O 89.694 1.61907 -0.815826 0
M  V30 1010 C 89.742 -0.567216 -3.56111 0
M  V30 1011 O 88.846 0.407799 -4.10379 0
M  V30 1012 H 88.187 -0.180278 -0.639059 0
M  V30 1013 H 90.717 -1.12972 -1.70583 0
M  V30 1014 H 90.727 -0.447708 -4.05536 0
M  V30 1015 H 89.402 -1.58103 -3.84677 0
M  V30 1016 H 87.979 0.246107 -3.72087 0
M  V30 1017 N 90.1641 1.46063 -0.591896 0
M  V30 1018 C 91.3891 2.07226 -0.0850314 0
M  V30 1019 C 91.8141 1.43625 1.21463 0
M  V30 1020 O 91.1721 0.523305 1.73583 0
M  V30 1021 C 91.2201 3.60554 0.0576567 0
M  V30 1022 O 90.3241 3.97128 1.11188 0
M  V30 1023 H 89.6651 0.660615 -0.0669568 0
M  V30 1024 H 92.1951 1.8756 -0.81745 0
M  V30 1025 H 92.2051 4.07165 0.2609 0
M  V30 1026 H 90.8801 4.06235 -0.891416 0
M  V30 1027 H 89.4571 3.62213 0.886356 0
M  V30 1028 N 91.6422 0.330177 1.54103 0
M  V30 1029 C 92.9192 -0.325007 1.92881 0
M  V30 1030 C 93.2992 -1.6934 1.26045 0
M  V30 1031 O 92.6472 -2.24855 0.406526 0
M  V30 1032 C 92.8572 -0.410634 3.46576 0
M  V30 1033 C 94.2052 -0.667801 4.19316 0
M  V30 1034 O 95.2292 -0.49329 3.52768 0
M  V30 1035 O 94.0882 -1.00491 5.37181 0
M  V30 1036 H 91.1822 -0.186873 0.80561 0
M  V30 1037 H 93.7282 0.380376 1.65382 0
M  V30 1038 H 92.5002 0.550164 3.87413 0
M  V30 1039 H 92.1232 -1.16333 3.802 0
M  V30 1040 N 93.1203 -1.57491 0.0584922 0
M  V30 1041 C 94.0673 -2.11958 -0.913376 0
M  V30 1042 C 95.0373 -1.02875 -1.30407 0
M  V30 1043 O 96.2223 -1.30464 -1.39226 0
M  V30 1044 C 93.3623 -2.67497 -2.18035 0
M  V30 1045 C 92.4753 -3.90691 -1.84349 0
M  V30 1046 C 91.6103 -4.3452 -3.05559 0
M  V30 1047 C 90.6493 -5.50395 -2.67827 0
M  V30 1048 N 89.7863 -5.89244 -3.81754 0
M  V30 1049 H 94.6263 -2.94704 -0.442017 0
M  V30 1050 H 92.1633 -1.45643 -0.206545 0
M  V30 1051 H 94.1213 -2.978 -2.92183 0
M  V30 1052 H 92.7513 -1.87537 -2.62735 0
M  V30 1053 H 91.8033 -3.66934 -1.00319 0
M  V30 1054 H 93.1153 -4.7489 -1.5258 0
M  V30 1055 H 92.2693 -4.66414 -3.87998 0
M  V30 1056 H 91.0083 -3.49147 -3.40511 0
M  V30 1057 H 90.0133 -5.18165 -1.83806 0
M  V30 1058 H 91.2383 -6.3749 -2.34059 0
M  V30 1059 H 89.1843 -5.06823 -4.16493 0
M  V30 1060 H 89.1013 -6.68151 -3.53708 0
M  V30 1061 H 90.3693 -6.25756 -4.64811 0
M  V30 1062 N 94.5984 0.214957 -1.56127 0
M  V30 1063 C 95.8444 0.939762 -1.79712 0
M  V30 1064 C 96.1774 1.83723 -0.629247 0
M  V30 1065 O 95.4524 1.90925 0.371197 0
M  V30 1066 C 95.7354 1.77306 -3.13424 0
M  V30 1067 C 95.5884 0.90164 -4.40671 0
M  V30 1068 C 96.9074 2.74956 -3.43638 0
M  V30 1069 H 94.0264 0.340214 -0.653776 0
M  V30 1070 H 96.6684 0.20824 -1.88855 0
M  V30 1071 H 94.8184 2.39673 -3.0576 0
M  V30 1072 H 96.4904 0.294206 -4.60361 0
M  V30 1073 H 94.7334 0.207368 -4.33304 0
M  V30 1074 H 95.4044 1.51923 -5.30682 0
M  V30 1075 H 97.8804 2.22724 -3.51473 0
M  V30 1076 H 96.7564 3.30358 -4.38355 0
M  V30 1077 H 97.0174 3.53023 -2.66134 0
M  V30 1078 N 96.0765 1.50051 0.48192 0
M  V30 1079 C 97.3045 1.64237 1.25832 0
M  V30 1080 C 97.7195 0.321336 1.86045 0
M  V30 1081 O 97.0765 -0.695478 1.68729 0
M  V30 1082 C 97.1275 2.72548 2.37487 0
M  V30 1083 O 96.8485 3.99529 1.79745 0
M  V30 1084 C 98.3495 2.9761 3.28547 0
M  V30 1085 H 95.5695 0.55237 0.380957 0
M  V30 1086 H 98.1135 1.96207 0.576467 0
M  V30 1087 H 96.2685 2.43303 3.01467 0
M  V30 1088 H 96.6825 4.59342 2.5319 0
M  V30 1089 H 98.1565 3.77084 4.03127 0
M  V30 1090 H 98.6335 2.0826 3.86684 0
M  V30 1091 H 99.2395 3.28345 2.70314 0
M  V30 1092 N 97.5546 -0.734337 1.39446 0
M  V30 1093 C 98.4866 -1.85861 1.34121 0
M  V30 1094 C 99.4996 -1.60871 0.249864 0
M  V30 1095 O 100.689 -1.71093 0.508865 0
M  V30 1096 C 97.7886 -3.21899 1.05991 0
M  V30 1097 C 96.9616 -3.74239 2.26415 0
M  V30 1098 C 96.0206 -4.88841 1.94733 0
M  V30 1099 O 95.0466 -5.02468 2.67422 0
M  V30 1100 N 96.2486 -5.73261 0.913884 0
M  V30 1101 H 99.0136 -1.90934 2.31007 0
M  V30 1102 H 96.5746 -0.915102 1.33557 0
M  V30 1103 H 98.5666 -3.96136 0.828147 0
M  V30 1104 H 97.1366 -3.12091 0.178361 0
M  V30 1105 H 96.3566 -2.91347 2.65539 0
M  V30 1106 H 97.6446 -4.05942 3.06738 0
M  V30 1107 H 97.0426 -5.64842 0.311476 0
M  V30 1108 H 95.5996 -6.47563 0.742015 0
M  V30 1109 N 99.0327 -1.24633 -0.964593 0
M  V30 1110 C 99.9797 -1.04144 -2.05968 0
M  V30 1111 C 100.95 0.046262 -1.66036 0
M  V30 1112 O 102.135 -0.108972 -1.90489 0
M  V30 1113 C 99.2747 -0.65563 -3.38815 0
M  V30 1114 C 98.3877 -1.81714 -3.91923 0
M  V30 1115 C 97.5227 -1.37662 -5.13052 0
M  V30 1116 C 96.5617 -2.50788 -5.58365 0
M  V30 1117 N 95.6987 -2.07582 -6.70712 0
M  V30 1118 H 100.539 -1.9787 -2.22827 0
M  V30 1119 H 98.0757 -0.9855 -1.09208 0
M  V30 1120 H 100.034 -0.412954 -4.15151 0
M  V30 1121 H 98.6637 0.244627 -3.21872 0
M  V30 1122 H 97.7157 -2.1734 -3.12198 0
M  V30 1123 H 99.0277 -2.66705 -4.21509 0
M  V30 1124 H 98.1817 -1.093 -5.96773 0
M  V30 1125 H 96.9207 -0.497293 -4.85158 0
M  V30 1126 H 95.9257 -2.79906 -4.73215 0
M  V30 1127 H 97.1507 -3.39283 -5.88272 0
M  V30 1128 H 95.0967 -1.22051 -6.44546 0
M  V30 1129 H 95.0137 -2.86125 -6.99763 0
M  V30 1130 H 96.2817 -1.82369 -7.57867 0
M  V30 1131 N 100.511 1.16574 -1.06058 0
M  V30 1132 C 101.443 2.2045 -0.627239 0
M  V30 1133 C 102.456 1.59752 0.313534 0
M  V30 1134 O 103.645 1.78192 0.104896 0
M  V30 1135 C 100.745 3.3875 0.100974 0
M  V30 1136 C 99.9178 4.29008 -0.852687 0
M  V30 1137 C 98.9768 5.25944 -0.164152 0
M  V30 1138 O 98.0028 5.63535 -0.801047 0
M  V30 1139 N 99.2048 5.70075 1.09518 0
M  V30 1140 H 101.97 2.58249 -1.52077 0
M  V30 1141 H 99.5308 1.3156 -0.943594 0
M  V30 1142 H 101.523 4.00638 0.57194 0
M  V30 1143 H 100.093 2.99476 0.89628 0
M  V30 1144 H 99.3128 3.64419 -1.50308 0
M  V30 1145 H 100.601 4.86195 -1.49972 0
M  V30 1146 H 99.9988 5.41624 1.6328 0
M  V30 1147 H 98.5558 6.34067 1.51006 0
M  V30 1148 N 101.989 0.842826 1.3317 0
M  V30 1149 C 103.236 0.440447 1.97652 0
M  V30 1150 C 103.564 -1.00123 1.6675 0
M  V30 1151 O 102.819 -1.7155 0.941761 0
M  V30 1152 C 103.118 0.612607 3.52111 0
M  V30 1153 C 102.784 2.02297 4.02972 0
M  V30 1154 C 101.446 2.40874 4.16573 0
M  V30 1155 C 103.798 2.94402 4.30089 0
M  V30 1156 C 101.126 3.70852 4.54627 0
M  V30 1157 C 103.478 4.23865 4.69597 0
M  V30 1158 C 102.142 4.62392 4.81404 0
M  V30 1159 H 101.412 0.161171 0.72326 0
M  V30 1160 H 104.059 1.07061 1.58777 0
M  V30 1161 H 102.364 -0.100849 3.9167 0
M  V30 1162 H 104.061 0.2815 4.00011 0
M  V30 1163 H 100.651 1.71338 3.92863 0
M  V30 1164 H 104.835 2.65835 4.19101 0
M  V30 1165 H 100.091 4.00501 4.61962 0
M  V30 1166 H 104.265 4.95306 4.89536 0
M  V30 1167 H 101.892 5.63154 5.10648 0
M  V30 1168 N 103.467 -1.45747 0.599634 0
M  V30 1169 C 104.399 -2.28628 -0.161879 0
M  V30 1170 C 105.412 -1.39494 -0.839367 0
M  V30 1171 O 106.601 -1.63941 -0.706089 0
M  V30 1172 C 103.701 -3.15014 -1.24976 0
M  V30 1173 C 102.874 -4.32378 -0.660935 0
M  V30 1174 C 101.933 -5.00033 -1.63869 0
M  V30 1175 O 100.959 -5.57085 -1.1681 0
M  V30 1176 N 102.161 -4.98589 -2.97303 0
M  V30 1177 H 104.926 -2.94624 0.549265 0
M  V30 1178 H 102.487 -1.55847 0.438565 0
M  V30 1179 H 104.479 -3.5714 -1.9035 0
M  V30 1180 H 103.049 -2.5098 -1.86354 0
M  V30 1181 H 102.269 -3.9383 0.170688 0
M  V30 1182 H 103.557 -5.08197 -0.247619 0
M  V30 1183 H 102.955 -4.53514 -3.38145 0
M  V30 1184 H 101.512 -5.44603 -3.58121 0
M  V30 1185 N 104.945 -0.338344 -1.53925 0
M  V30 1186 C 105.875 0.51328 -2.27789 0
M  V30 1187 C 106.856 1.107 -1.29149 0
M  V30 1188 O 108.041 1.12937 -1.57984 0
M  V30 1189 C 105.171 1.66697 -3.04679 0
M  V30 1190 C 104.125 1.20183 -4.1078 0
M  V30 1191 C 103.451 2.44363 -4.75595 0
M  V30 1192 C 104.751 0.30605 -5.21403 0
M  V30 1193 H 106.445 -0.102883 -2.99223 0
M  V30 1194 H 103.991 -0.0509219 -1.4391 0
M  V30 1195 H 105.944 2.26915 -3.55088 0
M  V30 1196 H 104.668 2.30995 -2.30887 0
M  V30 1197 H 103.327 0.622499 -3.61276 0
M  V30 1198 H 102.975 3.07057 -3.98403 0
M  V30 1199 H 102.675 2.13925 -5.47275 0
M  V30 1200 H 104.199 3.05317 -5.28786 0
M  V30 1201 H 105.613 0.814929 -5.67478 0
M  V30 1202 H 104.01 0.0937929 -6.00027 0
M  V30 1203 H 105.08 -0.65921 -4.80398 0
M  V30 1204 N 106.423 1.57458 -0.0668435 0
M  V30 1205 C 107.37 2.12439 0.902122 0
M  V30 1206 C 108.34 1.03565 1.2986 0
M  V30 1207 O 109.525 1.312 1.38532 0
M  V30 1208 C 106.665 2.6865 2.16614 0
M  V30 1209 C 105.778 3.91663 1.82274 0
M  V30 1210 C 104.913 4.36134 3.0325 0
M  V30 1211 C 103.952 5.51808 2.64904 0
M  V30 1212 N 103.089 5.9126 3.78624 0
M  V30 1213 H 107.929 2.94934 0.426382 0
M  V30 1214 H 105.466 1.4575 0.198819 0
M  V30 1215 H 107.424 2.99346 2.90599 0
M  V30 1216 H 106.054 1.88928 2.61737 0
M  V30 1217 H 105.106 3.6746 0.983719 0
M  V30 1218 H 106.418 4.75693 1.50059 0
M  V30 1219 H 105.572 4.68465 3.85519 0
M  V30 1220 H 104.311 3.50948 3.38655 0
M  V30 1221 H 103.316 5.19133 1.81055 0
M  V30 1222 H 104.541 6.38722 2.30675 0
M  V30 1223 H 102.487 5.09024 4.138 0
M  V30 1224 H 102.404 6.70018 3.5016 0
M  V30 1225 H 103.672 6.28212 4.61486 0
M  V30 1226 N 107.901 -0.206675 1.56239 0
M  V30 1227 C 108.811 -1.27686 1.96808 0
M  V30 1228 C 109.827 -1.50455 0.874035 0
M  V30 1229 O 111.003 -1.63295 1.17884 0
M  V30 1230 C 108.068 -2.60358 2.28942 0
M  V30 1231 C 107.129 -2.45762 3.51994 0
M  V30 1232 C 106.362 -3.72108 3.82585 0
M  V30 1233 O 106.585 -4.75776 3.14631 0
M  V30 1234 O 105.519 -3.6833 4.76043 0
M  V30 1235 H 109.345 -0.962593 2.88041 0
M  V30 1236 H 106.93 -0.410746 1.43643 0
M  V30 1237 H 108.812 -3.38687 2.50737 0
M  V30 1238 H 107.487 -2.91435 1.4088 0
M  V30 1239 H 106.394 -1.65584 3.35459 0
M  V30 1240 H 107.727 -2.19621 4.40486 0
M  V30 1241 N 109.379 -1.50304 -0.473955 0
M  V30 1242 C 110.628 -1.60392 -1.22301 0
M  V30 1243 C 110.941 -0.308411 -1.93153 0
M  V30 1244 O 112.147 -0.288156 -2.69966 0
M  V30 1245 C 110.603 -2.83109 -2.2221 0
M  V30 1246 C 110.211 -4.19524 -1.57173 0
M  V30 1247 C 111.955 -3.0254 -2.97775 0
M  V30 1248 C 109.862 -5.33431 -2.55353 0
M  V30 1249 H 108.792 -0.597286 -0.460179 0
M  V30 1250 H 111.443 -1.76731 -0.493803 0
M  V30 1251 H 109.825 -2.60322 -2.9841 0
M  V30 1252 H 110.999 -4.52554 -0.867824 0
M  V30 1253 H 109.314 -4.05674 -0.939002 0
M  V30 1254 H 111.911 -3.84811 -3.71248 0
M  V30 1255 H 112.254 -2.14154 -3.56992 0
M  V30 1256 H 112.787 -3.25494 -2.28688 0
M  V30 1257 H 109.526 -6.23962 -2.00878 0
M  V30 1258 H 109.046 -5.04823 -3.23904 0
M  V30 1259 H 110.725 -5.63887 -3.17239 0
M  V30 1260 N 110.857 0.726932 -1.39834 0
M  V30 1261 C 112.103 1.48884 -1.377 0
M  V30 1262 C 112.436 1.94185 0.0244852 0
M  V30 1263 O 111.711 1.67361 0.990986 0
M  V30 1264 C 111.994 2.72288 -2.3565 0
M  V30 1265 C 111.847 2.32956 -3.84775 0
M  V30 1266 C 113.166 3.74414 -2.31306 0
M  V30 1267 H 110.285 0.540062 -0.5015 0
M  V30 1268 H 112.927 0.830547 -1.70886 0
M  V30 1269 H 111.077 3.28457 -2.07481 0
M  V30 1270 H 112.749 1.82356 -4.23726 0
M  V30 1271 H 110.992 1.65088 -4.01159 0
M  V30 1272 H 111.663 3.21362 -4.4881 0
M  V30 1273 H 114.139 3.27849 -2.56231 0
M  V30 1274 H 113.015 4.58414 -3.01907 0
M  V30 1275 H 113.276 4.21909 -1.32081 0
M  V30 1276 N 112.336 1.25143 0.95797 0
M  V30 1277 C 113.266 1.07711 2.07173 0
M  V30 1278 C 114.247 -0.0128462 1.70095 0
M  V30 1279 O 115.432 0.156061 1.93572 0
M  V30 1280 C 112.562 0.691503 3.40346 0
M  V30 1281 C 111.516 1.73132 3.9142 0
M  V30 1282 C 110.842 1.20049 5.21049 0
M  V30 1283 C 112.142 3.1294 4.1817 0
M  V30 1284 H 113.836 2.00873 2.22014 0
M  V30 1285 H 111.382 0.967191 1.06684 0
M  V30 1286 H 113.335 0.556505 4.17709 0
M  V30 1287 H 112.059 -0.275819 3.25433 0
M  V30 1288 H 110.718 1.8547 3.16222 0
M  V30 1289 H 110.366 0.223499 5.02503 0
M  V30 1290 H 110.066 1.89545 5.56189 0
M  V30 1291 H 111.59 1.07782 6.01012 0
M  V30 1292 H 113.004 3.03775 4.86203 0
M  V30 1293 H 111.401 3.79875 4.64559 0
M  V30 1294 H 112.471 3.6025 3.24573 0
M  V30 1295 N 113.814 -1.1601 1.06675 0
M  V30 1296 C 114.724 -2.24156 0.692179 0
M  V30 1297 C 115.74 -1.71507 -0.293513 0
M  V30 1298 O 116.916 -2.009 -0.141861 0
M  V30 1299 C 113.981 -3.46587 0.0884131 0
M  V30 1300 C 113.042 -4.14257 1.12646 0
M  V30 1301 C 112.275 -5.30844 0.551416 0
M  V30 1302 O 112.498 -5.66858 -0.634656 0
M  V30 1303 O 111.432 -5.87848 1.29298 0
M  V30 1304 H 115.258 -2.58513 1.59388 0
M  V30 1305 H 112.843 -1.23599 0.83926 0
M  V30 1306 H 114.725 -4.20679 -0.246361 0
M  V30 1307 H 113.4 -3.13994 -0.786712 0
M  V30 1308 H 112.307 -3.42118 1.51348 0
M  V30 1309 H 113.64 -4.50914 1.97325 0
M  V30 1310 N 115.292 -0.849877 -1.32721 0
M  V30 1311 C 116.222 -0.306308 -2.31482 0
M  V30 1312 C 117.203 0.591952 -1.59468 0
M  V30 1313 O 118.388 0.513199 -1.87296 0
M  V30 1314 C 115.518 0.510204 -3.43532 0
M  V30 1315 C 114.472 -0.293209 -4.26994 0
M  V30 1316 C 113.798 0.647743 -5.30762 0
M  V30 1317 C 115.098 -1.51634 -4.99804 0
M  V30 1318 H 116.792 -1.13153 -2.77195 0
M  V30 1319 H 114.338 -0.545553 -1.33266 0
M  V30 1320 H 116.291 0.900856 -4.11658 0
M  V30 1321 H 115.015 1.36874 -2.96535 0
M  V30 1322 H 113.674 -0.665555 -3.60508 0
M  V30 1323 H 113.322 1.50299 -4.8002 0
M  V30 1324 H 113.022 0.11422 -5.87489 0
M  V30 1325 H 114.546 1.03567 -6.01753 0
M  V30 1326 H 115.96 -1.19824 -5.60638 0
M  V30 1327 H 114.357 -1.98745 -5.66234 0
M  V30 1328 H 115.427 -2.28018 -4.27943 0
M  V30 1329 N 116.77 1.45427 -0.607355 0
M  V30 1330 C 118.016 2.0254 -0.102607 0
M  V30 1331 C 118.349 1.47478 1.26348 0
M  V30 1332 O 117.624 0.64939 1.83339 0
M  V30 1333 C 117.907 3.60044 -0.0634347 0
M  V30 1334 C 117.76 4.2544 -1.46017 0
M  V30 1335 C 119.079 4.35646 0.624514 0
M  V30 1336 H 116.198 0.73598 -0.0387607 0
M  V30 1337 H 118.84 1.73284 -0.779282 0
M  V30 1338 H 116.99 3.85101 0.512808 0
M  V30 1339 H 118.662 4.11569 -2.08347 0
M  V30 1340 H 116.905 3.83849 -2.02094 0
M  V30 1341 H 117.576 5.34342 -1.385 0
M  V30 1342 H 120.052 4.15882 0.134723 0
M  V30 1343 H 118.928 5.45376 0.621028 0
M  V30 1344 H 119.189 4.08501 1.69055 0
M  V30 1345 N 118.248 0.346503 1.53744 0
M  V30 1346 C 119.211 -0.496439 2.23759 0
M  V30 1347 C 120.211 -1.0252 1.2388 0
M  V30 1348 O 121.401 -0.913974 1.48297 0
M  V30 1349 C 118.533 -1.69187 2.95954 0
M  V30 1350 H 119.726 0.115952 2.99676 0
M  V30 1351 H 117.279 0.0978939 1.55993 0
M  V30 1352 H 118.014 -2.34288 2.24231 0
M  V30 1353 H 117.799 -1.31989 3.69217 0
M  V30 1354 H 119.289 -2.28969 3.49232 0
M  V30 1355 N 119.726 -1.57421 0.075193 0
M  V30 1356 C 120.658 -2.09904 -0.920483 0
M  V30 1357 C 121.671 -1.03191 -1.25918 0
M  V30 1358 O 122.86 -1.30695 -1.21577 0
M  V30 1359 C 119.96 -2.54726 -2.23534 0
M  V30 1360 C 119.133 -3.8505 -2.07498 0
M  V30 1361 C 118.192 -4.15929 -3.22319 0
M  V30 1362 O 117.218 -4.85474 -2.9716 0
M  V30 1363 N 118.42 -3.69745 -4.47514 0
M  V30 1364 H 121.185 -2.95954 -0.472359 0
M  V30 1365 H 118.746 -1.61523 -0.110444 0
M  V30 1366 H 120.738 -2.72443 -2.9926 0
M  V30 1367 H 119.308 -1.73795 -2.59835 0
M  V30 1368 H 118.528 -3.76679 -1.16219 0
M  V30 1369 H 119.816 -4.70348 -1.94038 0
M  V30 1370 H 119.214 -3.13569 -4.7084 0
M  V30 1371 H 117.771 -3.92655 -5.20255 0
M  V30 1372 N 121.204 0.198386 -1.56346 0
M  V30 1373 C 122.45 0.920648 -1.80698 0
M  V30 1374 C 122.783 1.83045 -0.648697 0
M  V30 1375 O 122.058 1.91308 0.350925 0
M  V30 1376 C 122.341 1.73971 -3.15287 0
M  V30 1377 C 122.194 0.85485 -4.41602 0
M  V30 1378 C 123.513 2.71296 -3.46535 0
M  V30 1379 H 120.632 0.333261 -0.657348 0
M  V30 1380 H 123.274 0.188198 -1.89066 0
M  V30 1381 H 121.424 2.36416 -3.08285 0
M  V30 1382 H 123.096 0.245362 -4.60647 0
M  V30 1383 H 121.339 0.161398 -4.335 0
M  V30 1384 H 122.01 1.46286 -5.32264 0
M  V30 1385 H 124.486 2.18983 -3.53816 0
M  V30 1386 H 123.362 3.2569 -4.41834 0
M  V30 1387 H 123.623 3.5018 -2.69864 0
M  V30 1388 N 122.682 1.50554 0.465978 0
M  V30 1389 C 123.612 1.72722 1.57128 0
M  V30 1390 C 124.593 0.576294 1.6004 0
M  V30 1391 O 125.778 0.81598 1.76225 0
M  V30 1392 C 122.908 1.82605 2.95419 0
M  V30 1393 C 121.862 2.97835 3.07373 0
M  V30 1394 C 121.188 2.92867 4.47363 0
M  V30 1395 C 122.488 4.38265 2.84114 0
M  V30 1396 H 124.182 2.65267 1.38829 0
M  V30 1397 H 121.728 1.2765 0.666441 0
M  V30 1398 H 123.681 1.96698 3.72677 0
M  V30 1399 H 122.405 0.866858 3.14886 0
M  V30 1400 H 121.064 2.83401 2.3255 0
M  V30 1401 H 120.712 1.94783 4.63755 0
M  V30 1402 H 120.412 3.70227 4.56296 0
M  V30 1403 H 121.936 3.09015 5.26633 0
M  V30 1404 H 123.35 4.53198 3.51118 0
M  V30 1405 H 121.747 5.17115 3.04487 0
M  V30 1406 H 122.817 4.50281 1.7993 0
M  V30 1407 N 124.16 -0.719506 1.40217 0
M  V30 1408 C 125.07 -1.86378 1.42479 0
M  V30 1409 C 126.086 -1.71073 0.317834 0
M  V30 1410 O 127.262 -1.93406 0.561794 0
M  V30 1411 C 124.327 -3.22136 1.28178 0
M  V30 1412 C 123.388 -3.49723 2.48982 0
M  V30 1413 C 122.621 -4.79004 2.35353 0
M  V30 1414 O 122.844 -5.53821 1.36524 0
M  V30 1415 O 121.778 -5.06839 3.2465 0
M  V30 1416 H 125.604 -1.87425 2.38968 0
M  V30 1417 H 123.189 -0.869405 1.21498 0
M  V30 1418 H 125.071 -4.03234 1.22395 0
M  V30 1419 H 123.746 -3.21825 0.347934 0
M  V30 1420 H 122.653 -2.6865 2.60342 0
M  V30 1421 H 123.986 -3.54828 3.41113 0
M  V30 1422 N 125.638 -1.25649 -0.95132 0
M  V30 1423 C 126.588 -1.03004 -2.03406 0
M  V30 1424 C 127.572 0.034187 -1.60864 0
M  V30 1425 O 128.764 -0.181549 -1.76066 0
M  V30 1426 C 125.893 -0.654255 -3.37008 0
M  V30 1427 C 124.979 -1.75542 -3.86065 0
M  V30 1428 N 125.37 -2.99113 -4.07879 0
M  V30 1429 C 123.668 -1.63669 -4.14884 0
M  V30 1430 C 124.369 -3.70611 -4.48356 0
M  V30 1431 N 123.345 -2.98247 -4.54477 0
M  V30 1432 H 127.147 -1.96813 -2.1827 0
M  V30 1433 H 124.661 -1.16017 -1.13639 0
M  V30 1434 H 126.658 -0.473206 -4.14206 0
M  V30 1435 H 125.318 0.276468 -3.23521 0
M  V30 1436 H 126.329 -3.35124 -3.94857 0
M  V30 1437 H 123.006 -0.775161 -4.10241 0
M  V30 1438 H 124.396 -4.76695 -4.73509 0
M  V30 1439 N 127.117 1.15442 -1.07289 0
M  V30 1440 C 128.064 2.20161 -0.692653 0
M  V30 1441 C 129.034 1.63073 0.31564 0
M  V30 1442 O 130.219 1.89725 0.202235 0
M  V30 1443 C 127.359 3.44967 -0.0959509 0
M  V30 1444 C 126.472 4.16256 -1.15564 0
M  V30 1445 C 125.607 5.28609 -0.524011 0
M  V30 1446 C 124.646 5.91715 -1.56653 0
M  V30 1447 N 123.783 6.9554 -0.957531 0
M  V30 1448 H 128.623 2.52037 -1.59002 0
M  V30 1449 H 126.16 1.2378 -0.794798 0
M  V30 1450 H 128.118 4.16341 0.267628 0
M  V30 1451 H 126.748 3.1361 0.764772 0
M  V30 1452 H 125.8 3.43385 -1.6368 0
M  V30 1453 H 127.112 4.59268 -1.94613 0
M  V30 1454 H 126.266 6.06604 -0.108032 0
M  V30 1455 H 125.005 4.86787 0.29825 0
M  V30 1456 H 124.01 5.12433 -1.9923 0
M  V30 1457 H 125.235 6.35614 -2.39107 0
M  V30 1458 H 123.181 6.55814 -0.156162 0
M  V30 1459 H 123.098 7.36977 -1.68526 0
M  V30 1460 H 124.366 7.77435 -0.567032 0
M  V30 1461 N 128.595 0.856903 1.32268 0
M  V30 1462 C 129.558 0.308171 2.27119 0
M  V30 1463 C 130.558 -0.533421 1.51695 0
M  V30 1464 O 131.748 -0.344607 1.70757 0
M  V30 1465 C 128.88 -0.563757 3.36206 0
M  V30 1466 H 130.073 1.14535 2.77167 0
M  V30 1467 H 127.626 0.631421 1.42978 0
M  V30 1468 H 128.361 -1.42266 2.91429 0
M  V30 1469 H 128.146 0.0386749 3.92081 0
M  V30 1470 H 129.636 -0.940386 4.06874 0
M  V30 1471 N 130.073 -1.45103 0.615059 0
M  V30 1472 C 131.322 -2.01396 0.110718 0
M  V30 1473 C 131.635 -1.48834 -1.26916 0
M  V30 1474 O 132.841 -1.97152 -1.86664 0
M  V30 1475 C 131.297 -3.59599 0.14723 0
M  V30 1476 C 130.905 -4.21158 1.52743 0
M  V30 1477 C 132.649 -4.23428 -0.30148 0
M  V30 1478 C 130.556 -5.71535 1.51992 0
M  V30 1479 H 129.486 -0.753061 0.0376241 0
M  V30 1480 H 132.137 -1.66494 0.77149 0
M  V30 1481 H 130.519 -3.91724 -0.580339 0
M  V30 1482 H 131.693 -4.00594 2.2773 0
M  V30 1483 H 130.008 -3.69552 1.91886 0
M  V30 1484 H 132.605 -5.33703 -0.326392 0
M  V30 1485 H 132.948 -3.94629 -1.32565 0
M  V30 1486 H 133.481 -3.96047 0.373065 0
M  V30 1487 H 130.22 -6.05044 2.52193 0
M  V30 1488 H 129.74 -5.94268 0.81274 0
M  V30 1489 H 131.419 -6.34873 1.24681 0
M  V30 1490 N 131.551 -0.354651 -1.53558 0
M  V30 1491 C 132.799 0.237972 -2.00694 0
M  V30 1492 C 133.12 1.50173 -1.24391 0
M  V30 1493 O 132.39 1.92673 -0.354135 0
M  V30 1494 H 130.97 0.0909256 -0.741446 0
M  V30 1495 H 133.632 -0.478368 -1.88938 0
M  V30 1496 H 132.728 0.47264 -3.085 0
M  V30 1497 N 133.029 1.57378 -0.0835403 0
M  V30 1498 C 134.276 1.9393 0.58287 0
M  V30 1499 C 134.604 0.964455 1.68904 0
M  V30 1500 O 133.859 -0.0179474 1.95692 0
M  V30 1501 C 134.158 3.37063 1.1884 0
M  V30 1502 C 133.824 4.50424 0.207194 0
M  V30 1503 C 132.486 4.81159 -0.0627115 0
M  V30 1504 C 134.838 5.19136 -0.463426 0
M  V30 1505 C 132.166 5.77939 -1.01012 0
M  V30 1506 C 134.518 6.16931 -1.39924 0
M  V30 1507 C 133.182 6.46078 -1.67749 0
M  V30 1508 H 132.452 0.70964 0.213287 0
M  V30 1509 H 135.099 1.90856 -0.156916 0
M  V30 1510 H 133.404 3.3666 2.00418 0
M  V30 1511 H 135.101 3.6264 1.71153 0
M  V30 1512 H 131.691 4.2646 0.427747 0
M  V30 1513 H 135.875 4.95576 -0.268034 0
M  V30 1514 H 131.131 5.98842 -1.23283 0
M  V30 1515 H 135.305 6.69273 -1.92476 0
M  V30 1516 H 132.932 7.2088 -2.41321 0
M  V30 1517 N 134.507 -0.190092 1.56449 0
M  V30 1518 C 135.753 -0.911052 1.81184 0
M  V30 1519 C 136.086 -1.82699 0.658396 0
M  V30 1520 O 135.361 -1.91491 -0.340775 0
M  V30 1521 C 135.644 -1.72297 3.16205 0
M  V30 1522 C 135.497 -0.831419 4.42049 0
M  V30 1523 C 136.816 -2.69454 3.47969 0
M  V30 1524 H 133.935 -0.32977 0.659106 0
M  V30 1525 H 136.577 -0.178169 1.89163 0
M  V30 1526 H 134.727 -2.34778 3.09534 0
M  V30 1527 H 136.399 -0.220929 4.60771 0
M  V30 1528 H 134.642 -0.138406 4.33579 0
M  V30 1529 H 135.313 -1.43461 5.33032 0
M  V30 1530 H 137.789 -2.17104 3.54972 0
M  V30 1531 H 136.665 -3.23342 4.43555 0
M  V30 1532 H 136.926 -3.48744 2.71717 0
M  V30 1533 N 135.985 -1.50799 -0.457987 0
M  V30 1534 C 136.918 -1.65273 -1.57353 0
M  V30 1535 C 137.896 -0.500578 -1.54703 0
M  V30 1536 O 139.08 -0.721781 -1.74134 0
M  V30 1537 C 136.207 -1.64737 -2.95938 0
M  V30 1538 C 135.253 -2.8567 -3.16693 0
M  V30 1539 S 136.086 -4.46791 -2.95191 0
M  V30 1540 C 137.242 -4.48968 -4.36095 0
M  V30 1541 H 137.475 -2.59633 -1.44838 0
M  V30 1542 H 135.008 -1.40225 -0.64625 0
M  V30 1543 H 136.966 -1.65112 -3.7583 0
M  V30 1544 H 135.627 -0.715899 -3.05833 0
M  V30 1545 H 134.82 -2.81637 -4.17967 0
M  V30 1546 H 134.422 -2.8293 -2.44594 0
M  V30 1547 H 136.714 -4.23337 -5.28954 0
M  V30 1548 H 137.657 -5.50664 -4.45168 0
M  V30 1549 H 138.065 -3.78522 -4.18786 0
M  V30 1550 N 137.463 0.71206 -1.40597 0
M  V30 1551 C 138.709 1.47416 -1.39271 0
M  V30 1552 C 139.042 1.942 0.00388791 0
M  V30 1553 O 138.317 1.68403 0.973179 0
M  V30 1554 C 138.6 2.69774 -2.38525 0
M  V30 1555 C 138.453 2.28861 -3.87224 0
M  V30 1556 C 139.772 3.71939 -2.35264 0
M  V30 1557 H 136.891 0.534713 -0.5072 0
M  V30 1558 H 139.533 0.812375 -1.71757 0
M  V30 1559 H 137.683 3.26238 -2.10953 0
M  V30 1560 H 139.355 1.77852 -4.25636 0
M  V30 1561 H 137.598 1.60824 -4.02887 0
M  V30 1562 H 138.269 3.16584 -4.52193 0
M  V30 1563 H 140.745 3.25113 -2.59694 0
M  V30 1564 H 139.621 4.55186 -3.06753 0
M  V30 1565 H 139.882 4.20484 -1.36549 0
M  V30 1566 N 138.941 1.26152 0.944643 0
M  V30 1567 C 140.218 1.02247 1.66748 0
M  V30 1568 C 140.598 -0.448202 2.06287 0
M  V30 1569 O 139.946 -1.42779 1.78399 0
M  V30 1570 C 140.156 1.96788 2.88228 0
M  V30 1571 C 141.504 2.25201 3.59958 0
M  V30 1572 O 142.528 1.94626 2.98327 0
M  V30 1573 O 141.387 2.77242 4.70956 0
M  V30 1574 H 138.481 0.388517 0.730057 0
M  V30 1575 H 141.027 1.37348 0.99668 0
M  V30 1576 H 139.799 2.96047 2.55875 0
M  V30 1577 H 139.422 1.62145 3.63035 0
M  V30 1578 N 140.419 -1.14872 1.07899 0
M  V30 1579 C 141.382 -2.17986 0.708161 0
M  V30 1580 C 142.382 -1.58775 -0.25442 0
M  V30 1581 O 143.572 -1.74166 -0.034645 0
M  V30 1582 C 140.704 -3.40871 0.0446929 0
M  V30 1583 H 141.897 -2.52306 1.62116 0
M  V30 1584 H 139.45 -1.2943 0.876218 0
M  V30 1585 H 140.185 -3.12124 -0.880281 0
M  V30 1586 H 139.97 -3.8511 0.737091 0
M  V30 1587 H 141.46 -4.17121 -0.19991 0
M  V30 1588 N 141.898 -0.863906 -1.31812 0
M  V30 1589 C 142.845 -0.313303 -2.28664 0
M  V30 1590 C 143.815 0.584868 -1.55462 0
M  V30 1591 O 145 0.517805 -1.83639 0
M  V30 1592 C 142.14 0.48441 -3.41683 0
M  V30 1593 C 141.253 -0.440594 -4.29747 0
M  V30 1594 C 140.388 0.370652 -5.29905 0
M  V30 1595 C 139.427 -0.551164 -6.09613 0
M  V30 1596 N 138.564 0.223462 -7.01744 0
M  V30 1597 H 143.404 -1.14444 -2.75148 0
M  V30 1598 H 140.941 -0.575769 -1.35364 0
M  V30 1599 H 142.899 0.962627 -4.05943 0
M  V30 1600 H 141.529 1.28029 -2.96325 0
M  V30 1601 H 140.581 -1.03724 -3.65986 0
M  V30 1602 H 141.893 -1.14767 -4.85417 0
M  V30 1603 H 141.047 0.911638 -5.99812 0
M  V30 1604 H 139.786 1.11105 -4.74876 0
M  V30 1605 H 138.791 -1.10396 -5.38603 0
M  V30 1606 H 140.016 -1.29032 -6.66729 0
M  V30 1607 H 137.962 0.946787 -6.49132 0
M  V30 1608 H 137.879 -0.424399 -7.54808 0
M  V30 1609 H 139.147 0.745876 -7.75923 0
M  V30 1610 N 143.376 1.44774 -0.622745 0
M  V30 1611 C 144.323 2.30635 0.0871679 0
M  V30 1612 C 145.293 1.42994 0.845097 0
M  V30 1613 O 146.478 1.71907 0.827812 0
M  V30 1614 C 143.618 3.28144 1.06844 0
M  V30 1615 C 142.731 4.30888 0.309809 0
M  V30 1616 C 141.866 5.15494 1.28215 0
M  V30 1617 C 140.905 6.09953 0.512198 0
M  V30 1618 N 140.042 6.87287 1.43458 0
M  V30 1619 H 144.882 2.90803 -0.650974 0
M  V30 1620 H 142.419 1.43286 -0.33281 0
M  V30 1621 H 144.377 3.83157 1.65066 0
M  V30 1622 H 143.007 2.69695 1.77382 0
M  V30 1623 H 142.059 3.78414 -0.388181 0
M  V30 1624 H 143.371 4.97955 -0.290254 0
M  V30 1625 H 142.525 5.74983 1.93596 0
M  V30 1626 H 141.264 4.48481 1.91614 0
M  V30 1627 H 140.269 5.49581 -0.155151 0
M  V30 1628 H 141.494 6.78999 -0.116958 0
M  V30 1629 H 139.44 6.2295 2.05594 0
M  V30 1630 H 139.357 7.50763 0.888335 0
M  V30 1631 H 140.625 7.51306 2.07749 0
M  V30 1632 N 144.854 0.36279 1.53368 0
M  V30 1633 C 145.764 -0.492994 2.29362 0
M  V30 1634 C 146.78 -1.09507 1.35219 0
M  V30 1635 O 147.956 -1.10662 1.68273 0
M  V30 1636 C 145.021 -1.61855 3.066 0
M  V30 1637 C 144.082 -1.04429 4.16405 0
M  V30 1638 C 143.315 -2.11621 4.89951 0
M  V30 1639 O 143.538 -3.32684 4.63333 0
M  V30 1640 O 142.472 -1.74835 5.75948 0
M  V30 1641 H 146.298 0.125331 3.03441 0
M  V30 1642 H 143.883 0.127253 1.48857 0
M  V30 1643 H 145.765 -2.27302 3.54841 0
M  V30 1644 H 144.44 -2.22233 2.3536 0
M  V30 1645 H 143.347 -0.353819 3.72423 0
M  V30 1646 H 144.68 -0.485113 4.89804 0
M  V30 1647 N 146.332 -1.57332 0.0918853 0
M  V30 1648 C 147.295 -2.12708 -0.85369 0
M  V30 1649 C 148.295 -1.05561 -1.213 0
M  V30 1650 O 149.485 -1.31461 -1.14296 0
M  V30 1651 C 146.617 -2.64503 -2.15061 0
M  V30 1652 H 147.81 -2.97573 -0.3729 0
M  V30 1653 H 145.363 -1.55509 -0.157072 0
M  V30 1654 H 146.098 -1.83149 -2.67632 0
M  V30 1655 H 145.883 -3.4284 -1.90272 0
M  V30 1656 H 147.373 -3.07351 -2.82711 0
M  V30 1657 N 147.81 0.181792 -1.56548 0
M  V30 1658 C 148.757 1.22521 -1.95595 0
M  V30 1659 C 149.727 1.4454 -0.818373 0
M  V30 1660 O 150.912 1.57454 -1.07763 0
M  V30 1661 C 148.052 2.56193 -2.31212 0
M  V30 1662 C 147.165 2.41641 -3.58097 0
M  V30 1663 C 146.3 3.68108 -3.82975 0
M  V30 1664 C 145.339 3.48445 -5.03242 0
M  V30 1665 N 144.476 4.66956 -5.24306 0
M  V30 1666 H 149.316 0.885226 -2.84548 0
M  V30 1667 H 146.853 0.425718 -1.40805 0
M  V30 1668 H 148.811 3.34088 -2.49882 0
M  V30 1669 H 147.441 2.88208 -1.45382 0
M  V30 1670 H 146.493 1.54976 -3.474 0
M  V30 1671 H 147.805 2.23052 -4.46149 0
M  V30 1672 H 146.959 4.54441 -4.01956 0
M  V30 1673 H 145.698 3.89666 -2.93278 0
M  V30 1674 H 144.703 2.60499 -4.8417 0
M  V30 1675 H 145.928 3.2832 -5.9446 0
M  V30 1676 H 143.874 4.88752 -4.37559 0
M  V30 1677 H 143.791 4.51242 -6.06561 0
M  V30 1678 H 145.059 5.54602 -5.47756 0
M  V30 1679 N 149.288 1.51039 0.449983 0
M  V30 1680 C 150.218 1.74379 1.55288 0
M  V30 1681 C 151.199 0.593236 1.5942 0
M  V30 1682 O 152.384 0.834625 1.7535 0
M  V30 1683 C 149.514 1.85728 2.93466 0
M  V30 1684 C 148.468 3.01078 3.04197 0
M  V30 1685 C 147.794 2.97595 4.44231 0
M  V30 1686 C 149.094 4.41254 2.7945 0
M  V30 1687 H 150.788 2.66725 1.36008 0
M  V30 1688 H 148.334 1.2835 0.652864 0
M  V30 1689 H 150.287 2.0064 3.70569 0
M  V30 1690 H 149.011 0.900207 3.13949 0
M  V30 1691 H 147.67 2.85851 2.29531 0
M  V30 1692 H 147.318 1.99691 4.61663 0
M  V30 1693 H 147.018 3.75046 4.52343 0
M  V30 1694 H 148.542 3.14583 5.23326 0
M  V30 1695 H 149.956 4.56897 3.46292 0
M  V30 1696 H 148.353 5.20315 2.98985 0
M  V30 1697 H 149.423 4.52164 1.75144 0
M  V30 1698 N 150.766 -0.704594 1.40972 0
M  V30 1699 C 151.729 -1.80035 1.41845 0
M  V30 1700 C 152.729 -1.57774 0.310474 0
M  V30 1701 O 153.919 -1.64613 0.56992 0
M  V30 1702 C 151.051 -3.18284 1.22098 0
M  V30 1703 H 152.244 -1.80658 2.3938 0
M  V30 1704 H 149.797 -0.911329 1.26982 0
M  V30 1705 H 150.532 -3.23306 0.253672 0
M  V30 1706 H 150.317 -3.35843 2.02366 0
M  V30 1707 H 151.807 -3.98289 1.25522 0
M  V30 1708 N 152.244 -1.26651 -0.937939 0
M  V30 1709 C 153.191 -1.0849 -2.03712 0
M  V30 1710 C 154.161 0.011033 -1.66096 0
M  V30 1711 O 155.346 -0.149353 -1.90215 0
M  V30 1712 C 152.486 -0.72735 -3.37348 0
M  V30 1713 C 151.599 -1.89986 -3.87981 0
M  V30 1714 C 150.734 -1.48513 -5.10017 0
M  V30 1715 C 149.773 -2.62575 -5.5292 0
M  V30 1716 N 148.91 -2.21762 -6.66158 0
M  V30 1717 H 153.75 -2.02551 -2.18579 0
M  V30 1718 H 151.287 -1.00844 -1.07093 0
M  V30 1719 H 153.245 -0.50092 -4.14182 0
M  V30 1720 H 151.875 0.176298 -3.22318 0
M  V30 1721 H 150.927 -2.23913 -3.07518 0
M  V30 1722 H 152.239 -2.75586 -4.15757 0
M  V30 1723 H 151.393 -1.21934 -5.94321 0
M  V30 1724 H 150.132 -0.60009 -4.83994 0
M  V30 1725 H 149.137 -2.8988 -4.67172 0
M  V30 1726 H 150.362 -3.51685 -5.80943 0
M  V30 1727 H 148.308 -1.35696 -6.41812 0
M  V30 1728 H 148.225 -3.00903 -6.93537 0
M  V30 1729 H 149.493 -1.98403 -7.53828 0
M  V30 1730 N 153.722 1.14298 -1.08507 0
M  V30 1731 C 154.669 2.19414 -0.715965 0
M  V30 1732 C 155.639 1.63399 0.298326 0
M  V30 1733 O 156.824 1.89929 0.182101 0
M  V30 1734 C 153.964 3.44845 -0.132534 0
M  V30 1735 C 153.077 4.15007 -1.19973 0
M  V30 1736 C 152.212 5.28024 -0.580048 0
M  V30 1737 C 151.251 5.9002 -1.62921 0
M  V30 1738 N 150.388 6.94485 -1.03125 0
M  V30 1739 H 155.228 2.50336 -1.61666 0
M  V30 1740 H 152.765 1.2293 -0.807882 0
M  V30 1741 H 154.723 4.16601 0.223454 0
M  V30 1742 H 153.353 3.14403 0.731467 0
M  V30 1743 H 152.405 3.41629 -1.67313 0
M  V30 1744 H 153.717 4.57178 -1.99473 0
M  V30 1745 H 152.871 6.06455 -0.172364 0
M  V30 1746 H 151.61 4.87076 0.246603 0
M  V30 1747 H 150.615 5.10291 -2.04654 0
M  V30 1748 H 151.84 6.33042 -2.45835 0
M  V30 1749 H 149.786 6.55612 -0.225711 0
M  V30 1750 H 149.703 7.35148 -1.76334 0
M  V30 1751 H 150.971 7.7679 -0.649458 0
M  V30 1752 N 155.201 0.870884 1.31352 0
M  V30 1753 C 156.131 0.343096 2.30966 0
M  V30 1754 C 157.112 -0.566507 1.60389 0
M  V30 1755 O 158.297 -0.483336 1.88089 0
M  V30 1756 C 155.427 -0.455487 3.443 0
M  V30 1757 C 154.381 0.361103 4.26474 0
M  V30 1758 C 153.707 -0.563221 5.31725 0
M  V30 1759 C 155.007 1.59566 4.97329 0
M  V30 1760 H 156.701 1.17548 2.75359 0
M  V30 1761 H 154.247 0.566686 1.32381 0
M  V30 1762 H 156.2 -0.83525 4.13039 0
M  V30 1763 H 154.924 -1.32139 2.98675 0
M  V30 1764 H 153.583 0.722825 3.59403 0
M  V30 1765 H 153.231 -1.42643 4.82351 0
M  V30 1766 H 152.931 -0.0207409 5.87596 0
M  V30 1767 H 154.455 -0.939808 6.03324 0
M  V30 1768 H 155.869 1.28728 5.58661 0
M  V30 1769 H 154.266 2.07728 5.63 0
M  V30 1770 H 155.336 2.34798 4.24262 0
M  V30 1771 N 156.679 -1.44442 0.630414 0
M  V30 1772 C 157.927 -2.01653 0.134351 0
M  V30 1773 C 158.248 -1.49836 -1.24796 0
M  V30 1774 O 157.518 -0.701684 -1.82902 0
M  V30 1775 H 156.098 -0.74554 0.0466769 0
M  V30 1776 H 158.76 -1.76952 0.816955 0
M  V30 1777 H 157.856 -3.11935 0.101498 0
M  V30 1778 N 158.157 -0.370918 -1.53173 0
M  V30 1779 C 159.404 0.217102 -2.01333 0
M  V30 1780 C 159.732 1.48338 -1.25802 0
M  V30 1781 O 158.987 1.92698 -0.34146 0
M  V30 1782 C 159.286 0.549696 -3.53147 0
M  V30 1783 C 158.952 -0.622872 -4.46577 0
M  V30 1784 C 157.614 -0.944595 -4.71838 0
M  V30 1785 C 159.966 -1.40819 -5.01816 0
M  V30 1786 C 157.294 -2.05351 -5.49589 0
M  V30 1787 C 159.646 -2.50757 -5.80778 0
M  V30 1788 C 158.31 -2.83458 -6.04324 0
M  V30 1789 H 157.58 0.0794431 -0.736729 0
M  V30 1790 H 160.227 -0.504481 -1.84736 0
M  V30 1791 H 158.532 1.35237 -3.6772 0
M  V30 1792 H 160.229 1.017 -3.87889 0
M  V30 1793 H 156.819 -0.36209 -4.27068 0
M  V30 1794 H 161.003 -1.17289 -4.82242 0
M  V30 1795 H 156.259 -2.3108 -5.6605 0
M  V30 1796 H 160.433 -3.12022 -6.22588 0
M  V30 1797 H 158.06 -3.69508 -6.64355 0
M  V30 1798 N 159.635 1.57281 -0.100228 0
M  V30 1799 C 160.912 1.86014 0.604812 0
M  V30 1800 C 161.292 0.998025 1.86018 0
M  V30 1801 O 160.64 0.0718184 2.28387 0
M  V30 1802 C 160.85 3.36784 0.915278 0
M  V30 1803 C 162.198 4.04957 1.27651 0
M  V30 1804 O 163.222 3.41695 1.00613 0
M  V30 1805 O 162.081 5.16593 1.7831 0
M  V30 1806 H 159.175 0.76942 0.303185 0
M  V30 1807 H 161.721 1.69176 -0.133313 0
M  V30 1808 H 160.493 3.91292 0.0248896 0
M  V30 1809 H 160.116 3.58987 1.70921 0
M  V30 1810 N 161.113 -0.173488 1.56642 0
M  V30 1811 C 162.023 -1.23482 1.99473 0
M  V30 1812 C 163.039 -1.48567 0.905752 0
M  V30 1813 O 164.215 -1.60758 1.21321 0
M  V30 1814 C 161.28 -2.55444 2.34413 0
M  V30 1815 C 160.341 -2.38241 3.57127 0
M  V30 1816 C 159.574 -3.63909 3.90392 0
M  V30 1817 O 159.797 -4.68996 3.24653 0
M  V30 1818 O 158.731 -3.58149 4.83749 0
M  V30 1819 H 162.557 -0.901279 2.90018 0
M  V30 1820 H 160.142 -0.380185 1.44482 0
M  V30 1821 H 162.024 -3.33292 2.57865 0
M  V30 1822 H 160.699 -2.88382 1.4703 0
M  V30 1823 H 159.606 -1.58431 3.38896 0
M  V30 1824 H 160.939 -2.10228 4.45045 0
M  V30 1825 N 162.591 -1.51276 -0.441967 0
M  V30 1826 C 163.501 -1.75092 -1.56141 0
M  V30 1827 C 164.517 -0.634963 -1.62001 0
M  V30 1828 O 165.693 -0.916686 -1.79329 0
M  V30 1829 C 162.758 -1.86666 -2.92158 0
M  V30 1830 C 161.819 -3.10506 -2.96453 0
M  V30 1831 C 161.052 -3.21519 -4.25982 0
M  V30 1832 O 161.275 -2.38586 -5.18105 0
M  V30 1833 O 160.209 -4.14465 -4.36466 0
M  V30 1834 H 164.035 -2.70044 -1.38961 0
M  V30 1835 H 161.62 -1.35722 -0.624499 0
M  V30 1836 H 163.502 -1.96292 -3.72891 0
M  V30 1837 H 162.177 -0.949014 -3.09476 0
M  V30 1838 H 161.084 -3.06363 -2.14692 0
M  V30 1839 H 162.417 -4.01945 -2.84079 0
M  V30 1840 N 164.069 0.697108 -1.41344 0
M  V30 1841 C 165.317 1.45426 -1.40341 0
M  V30 1842 C 165.638 1.94996 -0.0128787 0
M  V30 1843 O 164.908 1.71599 0.945027 0
M  V30 1844 H 163.488 0.539594 -0.516573 0
M  V30 1845 H 166.15 0.825201 -1.76569 0
M  V30 1846 H 165.246 2.31817 -2.08967 0
M  V30 1847 N 165.547 1.27147 0.931209 0
M  V30 1848 C 166.772 1.16191 1.71797 0
M  V30 1849 C 167.197 -0.278004 1.86034 0
M  V30 1850 O 166.555 -1.20137 1.35782 0
M  V30 1851 C 166.603 1.84673 3.09723 0
M  V30 1852 O 165.707 1.14231 3.96264 0
M  V30 1853 H 165.048 0.404303 0.526721 0
M  V30 1854 H 167.578 1.68152 1.1656 0
M  V30 1855 H 167.588 1.91893 3.60057 0
M  V30 1856 H 166.263 2.89421 2.98677 0
M  V30 1857 H 164.84 1.15056 3.54706 0
M  V30 1858 N 167.025 -1.13721 1.09112 0
M  V30 1859 C 167.955 -2.21148 0.749385 0
M  V30 1860 C 168.936 -1.6792 -0.271475 0
M  V30 1861 O 170.121 -1.93693 -0.140251 0
M  V30 1862 C 167.251 -3.46905 0.165659 0
M  V30 1863 C 166.205 -4.13203 1.11567 0
M  V30 1864 C 165.531 -5.33248 0.393809 0
M  V30 1865 C 166.831 -4.60912 2.45678 0
M  V30 1866 H 168.525 -2.4999 1.64758 0
M  V30 1867 H 166.071 -1.20156 0.793626 0
M  V30 1868 H 168.024 -4.21313 -0.085466 0
M  V30 1869 H 166.748 -3.17449 -0.767714 0
M  V30 1870 H 165.407 -3.40758 1.35202 0
M  V30 1871 H 165.055 -5.00054 -0.543599 0
M  V30 1872 H 164.755 -5.78552 1.02721 0
M  V30 1873 H 166.279 -6.10413 0.150908 0
M  V30 1874 H 167.693 -5.26759 2.26269 0
M  V30 1875 H 166.09 -5.16944 3.04776 0
M  V30 1876 H 167.16 -3.75603 3.06677 0
M  V30 1877 N 168.503 -0.877838 -1.30888 0
M  V30 1878 C 169.733 -0.506678 -2.00291 0
M  V30 1879 C 170.141 0.907449 -1.66018 0
M  V30 1880 O 169.484 1.60719 -0.88967 0
M  V30 1881 C 169.546 -0.59323 -3.54572 0
M  V30 1882 C 169.21 -1.97038 -4.12341 0
M  V30 1883 C 170.207 -2.93889 -4.28865 0
M  V30 1884 C 167.892 -2.27383 -4.47886 0
M  V30 1885 C 169.886 -4.19224 -4.80136 0
M  V30 1886 C 167.573 -3.52965 -4.98857 0
M  V30 1887 C 168.571 -4.48701 -5.14934 0
M  V30 1888 O 168.259 -5.72056 -5.64808 0
M  V30 1889 H 167.991 -0.1951 -0.647234 0
M  V30 1890 H 170.545 -1.18301 -1.6791 0
M  V30 1891 H 168.775 0.140057 -3.86446 0
M  V30 1892 H 170.464 -0.234372 -4.05223 0
M  V30 1893 H 171.23 -2.71756 -4.01714 0
M  V30 1894 H 167.109 -1.53639 -4.34645 0
M  V30 1895 H 170.653 -4.93956 -4.92599 0
M  V30 1896 H 166.55 -3.74939 -5.25443 0
M  V30 1897 H 167.318 -5.74337 -5.83163 0
M  V30 1898 N 169.982 1.44106 -0.638065 0
M  V30 1899 C 171.231 2.01194 -0.142744 0
M  V30 1900 C 171.544 1.50835 1.24532 0
M  V30 1901 O 172.75 2.00096 1.83504 0
M  V30 1902 C 171.206 3.59319 -0.20442 0
M  V30 1903 C 170.814 4.18674 -1.59423 0
M  V30 1904 C 172.558 4.23854 0.234079 0
M  V30 1905 C 170.465 5.69045 -1.61065 0
M  V30 1906 H 169.395 0.752367 -0.0495998 0
M  V30 1907 H 172.046 1.65246 -0.797881 0
M  V30 1908 H 170.428 3.92598 0.517946 0
M  V30 1909 H 171.602 3.96921 -2.34074 0
M  V30 1910 H 169.917 3.66453 -1.97741 0
M  V30 1911 H 172.514 5.34155 0.241443 0
M  V30 1912 H 172.857 3.96688 1.2627 0
M  V30 1913 H 173.39 3.95403 -0.436025 0
M  V30 1914 H 170.129 6.00956 -2.61787 0
M  V30 1915 H 169.649 5.929 -0.90718 0
M  V30 1916 H 171.328 6.32809 -1.34766 0
M  V30 1917 N 171.46 0.379036 1.52974 0
M  V30 1918 C 172.39 -0.452706 2.29069 0
M  V30 1919 C 173.371 -1.07237 1.32039 0
M  V30 1920 O 174.556 -1.08708 1.60923 0
M  V30 1921 C 171.686 -1.5856 3.08992 0
M  V30 1922 C 170.64 -1.0925 4.13822 0
M  V30 1923 C 169.966 -2.31668 4.81907 0
M  V30 1924 C 171.266 -0.167702 5.22031 0
M  V30 1925 H 172.96 0.182181 2.98845 0
M  V30 1926 H 170.506 0.0890592 1.43724 0
M  V30 1927 H 172.459 -2.1742 3.6098 0
M  V30 1928 H 171.183 -2.24792 2.36931 0
M  V30 1929 H 169.842 -0.526494 3.628 0
M  V30 1930 H 169.49 -2.96386 4.06404 0
M  V30 1931 H 169.19 -1.9934 5.52754 0
M  V30 1932 H 170.714 -2.91189 5.36695 0
M  V30 1933 H 172.128 -0.664186 5.6944 0
M  V30 1934 H 170.525 0.0653265 6.00064 0
M  V30 1935 H 171.595 0.786347 4.78482 0
M  V30 1936 N 172.938 -1.57226 0.108567 0
M  V30 1937 C 173.885 -2.14756 -0.845481 0
M  V30 1938 C 174.855 -1.06971 -1.27068 0
M  V30 1939 O 176.04 -1.34827 -1.35005 0
M  V30 1940 C 173.18 -2.74298 -2.09415 0
M  V30 1941 C 172.293 -3.96358 -1.71826 0
M  V30 1942 C 171.428 -4.44021 -2.9158 0
M  V30 1943 C 170.467 -5.58637 -2.50181 0
M  V30 1944 N 169.604 -6.01091 -3.62814 0
M  V30 1945 H 174.444 -2.95961 -0.348035 0
M  V30 1946 H 171.981 -1.46226 -0.160106 0
M  V30 1947 H 173.939 -3.06945 -2.82561 0
M  V30 1948 H 172.569 -1.95801 -2.56636 0
M  V30 1949 H 171.621 -3.69939 -0.885947 0
M  V30 1950 H 172.933 -4.79504 -1.37394 0
M  V30 1951 H 172.087 -4.78522 -3.72963 0
M  V30 1952 H 170.826 -3.59803 -3.29231 0
M  V30 1953 H 169.831 -5.23751 -1.67228 0
M  V30 1954 H 171.056 -6.44613 -2.13659 0
M  V30 1955 H 169.002 -5.19817 -4.00158 0
M  V30 1956 H 168.919 -6.79066 -3.32273 0
M  V30 1957 H 170.187 -6.40227 -4.44668 0
M  V30 1958 N 174.416 0.165178 -1.56732 0
M  V30 1959 C 175.664 0.879068 -1.8198 0
M  V30 1960 C 175.985 1.82514 -0.686561 0
M  V30 1961 O 175.255 1.93694 0.293146 0
M  V30 1962 H 173.835 0.327608 -0.671329 0
M  V30 1963 H 176.497 0.163526 -1.94213 0
M  V30 1964 H 175.593 1.45228 -2.76252 0
M  V30 1965 N 175.894 1.51508 0.433938 0
M  V30 1966 C 177.171 1.54888 1.19453 0
M  V30 1967 C 177.551 0.315154 2.08734 0
M  V30 1968 O 176.899 -0.699558 2.17528 0
M  V30 1969 C 177.109 2.86467 1.99342 0
M  V30 1970 C 178.457 3.38545 2.56267 0
M  V30 1971 O 179.481 2.88041 2.0955 0
M  V30 1972 O 178.34 4.26675 3.41483 0
M  V30 1973 H 175.434 0.622863 0.544032 0
M  V30 1974 H 177.98 1.63823 0.442732 0
M  V30 1975 H 176.752 3.67718 1.33788 0
M  V30 1976 H 176.375 2.8071 2.8158 0
M  V30 1977 N 177.372 -0.689602 1.41712 0
M  V30 1978 C 178.788 -1.00093 1.24312 0
M  V30 1979 C 178.988 -2.01036 0.136729 0
M  V30 1980 O 178.044 -2.47562 -0.496918 0
M  V30 1981 C 179.357 -1.51985 2.59463 0
M  V30 1982 C 180.905 -1.63838 2.66695 0
M  V30 1983 C 181.38 -2.1913 4.02177 0
M  V30 1984 N 182.871 -2.26483 4.04054 0
M  V30 1985 C 183.606 -2.70306 5.0569 0
M  V30 1986 N 183.102 -3.13691 6.17713 0
M  V30 1987 N 184.895 -2.69923 4.9305 0
M  V30 1988 H 177.046 -0.0210029 2.1239 0
M  V30 1989 H 179.309 -0.0718733 0.945272 0
M  V30 1990 H 179.015 -0.85269 3.41207 0
M  V30 1991 H 178.889 -2.50103 2.82362 0
M  V30 1992 H 181.276 -2.29664 1.85306 0
M  V30 1993 H 181.357 -0.642492 2.476 0
M  V30 1994 H 181.001 -1.53918 4.84016 0
M  V30 1995 H 180.931 -3.19482 4.18615 0
M  V30 1996 H 183.422 -1.95874 3.23174 0
M  V30 1997 H 183.735 -3.45773 6.9113 0
M  V30 1998 H 182.08 -3.11585 6.21241 0
M  V30 1999 H 185.271 -2.35382 4.04614 0
M  V30 2000 H 185.444 -3.03758 5.72394 0
M  V30 2001 N 178.85 -1.27639 -0.924453 0
M  V30 2002 C 180.078 -1.16989 -1.70649 0
M  V30 2003 C 180.493 0.272869 -1.86818 0
M  V30 2004 O 179.85 1.18549 -1.38753 0
M  V30 2005 C 179.901 -1.85229 -3.10439 0
M  V30 2006 O 179.622 -3.23868 -2.95028 0
M  V30 2007 C 181.123 -1.80746 -4.04779 0
M  V30 2008 H 178.343 -0.406595 -0.53378 0
M  V30 2009 H 180.887 -1.68569 -1.15778 0
M  V30 2010 H 179.042 -1.37545 -3.6216 0
M  V30 2011 H 179.456 -3.57889 -3.83426 0
M  V30 2012 H 180.93 -2.33101 -5.00368 0
M  V30 2013 H 181.407 -0.777499 -4.32263 0
M  V30 2014 H 182.013 -2.28059 -3.58984 0
M  V30 2015 N 180.328 1.1314 -1.09713 0
M  V30 2016 C 181.577 1.83838 -0.829851 0
M  V30 2017 C 181.89 1.84599 0.646728 0
M  V30 2018 O 183.096 2.51218 1.02965 0
M  V30 2019 C 181.552 3.30069 -1.43466 0
M  V30 2020 C 181.16 3.37688 -2.94399 0
M  V30 2021 C 182.904 4.05788 -1.24645 0
M  V30 2022 C 180.811 4.78209 -3.47952 0
M  V30 2023 H 179.741 0.68877 -0.306777 0
M  V30 2024 H 182.392 1.27448 -1.3202 0
M  V30 2025 H 180.774 3.8628 -0.871996 0
M  V30 2026 H 181.948 2.91456 -3.56918 0
M  V30 2027 H 180.263 2.75436 -3.12289 0
M  V30 2028 H 182.86 5.09535 -1.62107 0
M  V30 2029 H 183.203 4.15878 -0.187357 0
M  V30 2030 H 183.736 3.55915 -1.77678 0
M  V30 2031 H 180.475 4.73311 -4.53495 0
M  V30 2032 H 179.995 5.24924 -2.90198 0
M  V30 2033 H 181.674 5.47133 -3.45332 0
M  V30 2034 N 181.806 0.884767 1.30421 0
M  V30 2035 C 182.716 0.355398 2.31892 0
M  V30 2036 C 183.732 -0.542261 1.65335 0
M  V30 2037 O 184.908 -0.435432 1.96637 0
M  V30 2038 C 181.973 -0.421661 3.44126 0
M  V30 2039 C 181.034 0.505727 4.26311 0
M  V30 2040 C 180.267 -0.234343 5.33185 0
M  V30 2041 O 180.49 -1.46045 5.51386 0
M  V30 2042 O 179.424 0.415443 6.00465 0
M  V30 2043 H 183.25 1.19685 2.79122 0
M  V30 2044 H 180.835 0.648596 1.34587 0
M  V30 2045 H 182.717 -0.861641 4.12497 0
M  V30 2046 H 181.392 -1.23942 2.99032 0
M  V30 2047 H 180.299 0.994513 3.60639 0
M  V30 2048 H 181.632 1.28948 4.75009 0
M  V30 2049 N 183.284 -1.43765 0.645699 0
M  V30 2050 C 184.531 -2.01898 0.15604 0
M  V30 2051 C 184.859 -1.50887 -1.22733 0
M  V30 2052 O 184.114 -0.689271 -1.8316 0
M  V30 2053 C 184.413 -3.57238 0.107679 0
M  V30 2054 C 184.079 -4.27564 1.43178 0
M  V30 2055 C 182.741 -4.46492 1.7944 0
M  V30 2056 C 185.093 -4.67454 2.30513 0
M  V30 2057 C 182.421 -5.02573 3.02716 0
M  V30 2058 C 184.773 -5.24901 3.53074 0
M  V30 2059 C 183.437 -5.42046 3.89541 0
M  V30 2060 H 182.707 -0.738797 0.057099 0
M  V30 2061 H 185.354 -1.72341 0.834912 0
M  V30 2062 H 183.659 -3.86293 -0.654618 0
M  V30 2063 H 185.356 -3.99965 -0.287938 0
M  V30 2064 H 181.946 -4.13171 1.13963 0
M  V30 2065 H 186.13 -4.5253 2.0379 0
M  V30 2066 H 181.386 -5.14033 3.31028 0
M  V30 2067 H 185.56 -5.54758 4.20971 0
M  V30 2068 H 183.187 -5.85268 4.85145 0
M  V30 2069 N 184.763 -0.387143 -1.52771 0
M  V30 2070 C 186.04 0.253197 -1.93954 0
M  V30 2071 C 186.42 1.64545 -1.32243 0
M  V30 2072 O 185.768 2.23191 -0.489699 0
M  V30 2073 C 185.978 0.281722 -3.47861 0
M  V30 2074 C 187.326 0.511715 -4.21505 0
M  V30 2075 O 188.35 0.362023 -3.54356 0
M  V30 2076 O 187.209 0.804847 -5.40541 0
M  V30 2077 H 184.303 0.156845 -0.811991 0
M  V30 2078 H 186.849 -0.441494 -1.63856 0
M  V30 2079 H 185.621 -0.693571 -3.85104 0
M  V30 2080 H 185.244 1.02142 -3.84256 0
M  V30 2081 N 186.241 1.57166 -0.116904 0
M  V30 2082 C 187.489 1.94737 0.540533 0
M  V30 2083 C 187.81 1.00096 1.67349 0
M  V30 2084 O 187.08 0.0568854 1.95817 0
M  V30 2085 H 185.66 0.718981 0.202669 0
M  V30 2086 H 188.322 1.94017 -0.185353 0
M  V30 2087 H 187.418 2.97719 0.936483 0
M  V30 2088 N 187.719 -0.156864 1.56817 0
M  V30 2089 C 188.629 -1.2136 2.00771 0
M  V30 2090 C 189.645 -1.47598 0.921459 0
M  V30 2091 O 190.821 -1.59462 1.2302 0
M  V30 2092 C 187.886 -2.52943 2.37109 0
M  V30 2093 C 186.947 -2.34439 3.59634 0
M  V30 2094 C 186.18 -3.59748 3.94229 0
M  V30 2095 O 186.403 -4.65526 3.29609 0
M  V30 2096 O 185.337 -3.52998 4.8752 0
M  V30 2097 H 189.163 -0.870468 2.90958 0
M  V30 2098 H 186.748 -0.36484 1.44877 0
M  V30 2099 H 188.63 -3.30538 2.61386 0
M  V30 2100 H 187.305 -2.86806 1.5008 0
M  V30 2101 H 186.212 -1.54828 3.40557 0
M  V30 2102 H 187.545 -2.05496 4.4725 0
M  V30 2103 N 189.197 -1.51736 -0.425897 0
M  V30 2104 C 190.444 -1.6497 -1.17436 0
M  V30 2105 C 190.772 -0.371445 -1.9092 0
M  V30 2106 O 190.027 0.644963 -1.84767 0
M  V30 2107 C 190.326 -2.81103 -2.20717 0
M  V30 2108 C 189.992 -4.19954 -1.64162 0
M  V30 2109 C 188.654 -4.57725 -1.48462 0
M  V30 2110 C 191.006 -5.06552 -1.22696 0
M  V30 2111 C 188.334 -5.79789 -0.897873 0
M  V30 2112 C 190.686 -6.29205 -0.654464 0
M  V30 2113 C 189.35 -6.6574 -0.484456 0
M  V30 2114 H 188.62 -0.603668 -0.429727 0
M  V30 2115 H 191.267 -1.85798 -0.463829 0
M  V30 2116 H 189.572 -2.54542 -2.97852 0
M  V30 2117 H 191.269 -2.8854 -2.78471 0
M  V30 2118 H 187.859 -3.90181 -1.77361 0
M  V30 2119 H 192.043 -4.77968 -1.33642 0
M  V30 2120 H 187.299 -6.06733 -0.75402 0
M  V30 2121 H 191.473 -6.95643 -0.324694 0
M  V30 2122 H 189.1 -7.60195 -0.0276833 0
M  V30 2123 N 190.675 0.682077 -1.42076 0
M  V30 2124 C 191.638 1.77756 -1.44691 0
M  V30 2125 C 192.638 1.5726 -0.335535 0
M  V30 2126 O 193.828 1.63686 -0.596037 0
M  V30 2127 C 190.96 3.16301 -1.27146 0
M  V30 2128 H 192.153 1.76826 -2.42224 0
M  V30 2129 H 189.706 0.891012 -1.28416 0
M  V30 2130 H 190.441 3.22862 -0.305075 0
M  V30 2131 H 190.226 3.32581 -2.07683 0
M  V30 2132 H 191.716 3.96241 -1.31843 0
M  V30 2133 N 192.153 1.28127 0.917671 0
M  V30 2134 C 193.116 1.11744 2.00115 0
M  V30 2135 C 194.116 0.0583052 1.60694 0
M  V30 2136 O 195.306 0.303755 1.71531 0
M  V30 2137 C 192.438 0.704862 3.33533 0
M  V30 2138 H 193.631 2.07966 2.16079 0
M  V30 2139 H 191.184 1.11058 1.09981 0
M  V30 2140 H 191.919 -0.258299 3.2327 0
M  V30 2141 H 191.704 1.4699 3.63505 0
M  V30 2142 H 193.194 0.612768 4.1308 0
M  V30 2143 N 193.631 -1.12557 1.10312 0
M  V30 2144 C 194.908 -1.80363 0.756878 0
M  V30 2145 C 195.288 -1.97067 -0.756824 0
M  V30 2146 O 194.636 -1.54601 -1.68259 0
M  V30 2147 C 194.846 -3.14812 1.50647 0
M  V30 2148 C 196.194 -3.90029 1.67817 0
M  V30 2149 O 197.218 -3.24464 1.46974 0
M  V30 2150 O 196.077 -5.07652 2.02365 0
M  V30 2151 H 193.171 -0.780667 0.272926 0
M  V30 2152 H 195.717 -1.19404 1.20586 0
M  V30 2153 H 194.489 -2.97936 2.53672 0
M  V30 2154 H 194.112 -3.83478 1.05026 0
M  V30 2155 N 195.109 -0.891671 -1.2995 0
M  V30 2156 C 196.355 -0.514261 -1.96171 0
M  V30 2157 C 196.688 0.935506 -1.70182 0
M  V30 2158 O 195.963 1.66204 -1.01028 0
M  V30 2159 C 196.246 -0.797719 -3.51153 0
M  V30 2160 C 196.099 -2.2986 -3.86632 0
M  V30 2161 C 197.418 -0.278749 -4.39216 0
M  V30 2162 H 194.537 -0.188314 -0.712535 0
M  V30 2163 H 197.179 -1.11689 -1.53706 0
M  V30 2164 H 195.329 -0.284826 -3.87455 0
M  V30 2165 H 197.001 -2.88042 -3.60319 0
M  V30 2166 H 195.244 -2.76257 -3.34462 0
M  V30 2167 H 195.915 -2.44753 -4.94773 0
M  V30 2168 H 198.391 -0.717825 -4.09862 0
M  V30 2169 H 197.267 -0.506353 -5.46559 0
M  V30 2170 H 197.528 0.820266 -4.34424 0
M  V30 2171 N 196.587 1.43421 -0.653314 0
M  V30 2172 C 197.517 2.33487 0.0246656 0
M  V30 2173 C 198.498 1.49475 0.811863 0
M  V30 2174 O 199.683 1.78139 0.773322 0
M  V30 2175 C 196.813 3.32841 0.99166 0
M  V30 2176 C 195.767 4.26842 0.314568 0
M  V30 2177 C 195.093 5.16236 1.39302 0
M  V30 2178 C 196.393 5.16243 -0.793095 0
M  V30 2179 H 198.087 2.90427 -0.727481 0
M  V30 2180 H 195.633 1.39649 -0.351287 0
M  V30 2181 H 197.586 3.94747 1.47487 0
M  V30 2182 H 196.31 2.74158 1.77497 0
M  V30 2183 H 194.969 3.663 -0.148199 0
M  V30 2184 H 194.617 4.53891 2.16776 0
M  V30 2185 H 194.317 5.79948 0.945223 0
M  V30 2186 H 195.841 5.81015 1.87759 0
M  V30 2187 H 197.255 5.71958 -0.392039 0
M  V30 2188 H 195.652 5.88676 -1.16536 0
M  V30 2189 H 196.722 4.55927 -1.65103 0
M  V30 2190 N 198.065 0.39524 1.52563 0
M  V30 2191 C 199.311 -0.185318 2.01952 0
M  V30 2192 C 199.644 -1.45964 1.28095 0
M  V30 2193 O 198.919 -1.90689 0.38315 0
M  V30 2194 C 199.202 -0.447193 3.57312 0
M  V30 2195 C 199.055 0.842828 4.41833 0
M  V30 2196 C 200.374 -1.23529 4.22408 0
M  V30 2197 H 197.493 -0.0658788 0.73405 0
M  V30 2198 H 200.135 0.525975 1.82575 0
M  V30 2199 H 198.285 -1.05312 3.73954 0
M  V30 2200 H 199.957 1.4795 4.36931 0
M  V30 2201 H 198.2 1.45686 4.08605 0
M  V30 2202 H 198.871 0.614165 5.48573 0
M  V30 2203 H 201.347 -0.722445 4.0978 0
M  V30 2204 H 200.223 -1.38727 5.3108 0
M  V30 2205 H 200.484 -2.25213 3.80436 0
M  V30 2206 N 199.544 -1.57102 0.125237 0
M  V30 2207 C 200.454 -2.19191 -0.8362 0
M  V30 2208 C 201.47 -1.16985 -1.28805 0
M  V30 2209 O 202.646 -1.49479 -1.34974 0
M  V30 2210 C 199.711 -2.78407 -2.06617 0
M  V30 2211 C 198.772 -3.9567 -1.66565 0
M  V30 2212 C 198.005 -4.52052 -2.83698 0
M  V30 2213 O 198.228 -4.07326 -3.99302 0
M  V30 2214 O 197.162 -5.42645 -2.60423 0
M  V30 2215 H 200.988 -3.01816 -0.337776 0
M  V30 2216 H 198.573 -1.4906 -0.100695 0
M  V30 2217 H 200.455 -3.16129 -2.7864 0
M  V30 2218 H 199.13 -1.9881 -2.55453 0
M  V30 2219 H 198.037 -3.62705 -0.916296 0
M  V30 2220 H 199.37 -4.76722 -1.22464 0
M  V30 2221 N 201.022 0.148545 -1.56898 0
M  V30 2222 C 202.269 0.861418 -1.83264 0
M  V30 2223 C 202.597 1.81239 -0.705883 0
M  V30 2224 O 201.852 1.93305 0.305212 0
M  V30 2225 C 202.151 1.67064 -3.1595 0
M  V30 2226 C 201.817 0.866591 -4.42494 0
M  V30 2227 C 200.479 0.644762 -4.76861 0
M  V30 2228 C 202.831 0.30418 -5.20312 0
M  V30 2229 C 200.159 -0.15021 -5.86508 0
M  V30 2230 C 202.511 -0.477824 -6.30793 0
M  V30 2231 C 201.175 -0.710244 -6.63711 0
M  V30 2232 H 200.445 0.315215 -0.670612 0
M  V30 2233 H 203.092 0.125142 -1.91091 0
M  V30 2234 H 201.397 2.47698 -3.03567 0
M  V30 2235 H 203.094 2.22566 -3.33565 0
M  V30 2236 H 199.684 1.04955 -4.15551 0
M  V30 2237 H 203.868 0.462844 -4.94137 0
M  V30 2238 H 199.124 -0.339796 -6.10455 0
M  V30 2239 H 203.298 -0.92076 -6.90286 0
M  V30 2240 H 200.925 -1.3281 -7.48509 0
M  V30 2241 N 202.5 1.5196 0.417844 0
M  V30 2242 C 203.43 1.77634 1.51554 0
M  V30 2243 C 204.411 0.626918 1.58126 0
M  V30 2244 O 205.596 0.871632 1.7354 0
M  V30 2245 C 202.726 1.91911 2.8946 0
M  V30 2246 C 201.68 3.07463 2.97743 0
M  V30 2247 C 201.006 3.06951 4.37819 0
M  V30 2248 C 202.306 4.47082 2.70027 0
M  V30 2249 H 204 2.6955 1.3032 0
M  V30 2250 H 201.546 1.29706 0.625492 0
M  V30 2251 H 203.499 2.08455 3.6623 0
M  V30 2252 H 202.223 0.966598 3.11969 0
M  V30 2253 H 200.882 2.90656 2.23416 0
M  V30 2254 H 200.53 2.09438 4.57323 0
M  V30 2255 H 200.23 3.84556 4.44286 0
M  V30 2256 H 201.754 3.25613 5.16535 0
M  V30 2257 H 203.168 4.6414 3.36522 0
M  V30 2258 H 201.565 5.2654 2.87881 0
M  V30 2259 H 202.635 4.55777 1.65514 0
M  V30 2260 N 203.978 -0.674533 1.42435 0
M  V30 2261 C 204.908 -1.80009 1.48724 0
M  V30 2262 C 205.889 -1.6659 0.343793 0
M  V30 2263 O 207.074 -1.86007 0.558137 0
M  V30 2264 C 204.204 -3.18306 1.38919 0
M  V30 2265 C 203.158 -3.46461 2.51294 0
M  V30 2266 C 202.484 -4.84335 2.26547 0
M  V30 2267 C 203.784 -3.43328 3.93603 0
M  V30 2268 H 205.478 -1.75004 2.42928 0
M  V30 2269 H 203.024 -0.840533 1.16923 0
M  V30 2270 H 204.977 -3.9678 1.41927 0
M  V30 2271 H 203.701 -3.2399 0.412094 0
M  V30 2272 H 202.36 -2.70348 2.47604 0
M  V30 2273 H 202.008 -4.86669 1.2713 0
M  V30 2274 H 201.708 -5.04136 3.01861 0
M  V30 2275 H 203.232 -5.65094 2.31304 0
M  V30 2276 H 204.646 -4.11772 3.98894 0
M  V30 2277 H 203.043 -3.74664 4.68771 0
M  V30 2278 H 204.113 -2.41897 4.20255 0
M  V30 2279 N 205.456 -1.28612 -0.910864 0
M  V30 2280 C 206.733 -1.06632 -1.63979 0
M  V30 2281 C 207.113 0.393351 -2.07403 0
M  V30 2282 O 206.461 1.37999 -1.82122 0
M  V30 2283 C 206.671 -2.0436 -2.8291 0
M  V30 2284 C 208.019 -2.34666 -3.5386 0
M  V30 2285 O 209.043 -2.02467 -2.93062 0
M  V30 2286 O 207.902 -2.89631 -4.63439 0
M  V30 2287 H 204.996 -0.407737 -0.7195 0
M  V30 2288 H 207.542 -1.39942 -0.959914 0
M  V30 2289 H 206.314 -3.02727 -2.47936 0
M  V30 2290 H 205.937 -1.71714 -3.58609 0
M  V30 2291 N 206.934 1.1197 -1.10907 0
M  V30 2292 C 207.864 2.19928 -0.784473 0
M  V30 2293 C 208.845 1.6833 0.244726 0
M  V30 2294 O 210.03 1.93892 0.109418 0
M  V30 2295 C 207.16 3.46597 -0.220827 0
M  V30 2296 C 206.114 4.11376 -1.18127 0
M  V30 2297 C 205.44 5.32554 -0.478594 0
M  V30 2298 C 206.74 4.56945 -2.52979 0
M  V30 2299 H 208.434 2.47337 -1.68715 0
M  V30 2300 H 205.98 1.18879 -0.812642 0
M  V30 2301 H 207.933 4.21396 0.0184278 0
M  V30 2302 H 206.657 3.1863 0.717113 0
M  V30 2303 H 205.316 3.38564 -1.40606 0
M  V30 2304 H 204.964 5.00856 0.463976 0
M  V30 2305 H 204.664 5.76844 -1.11912 0
M  V30 2306 H 206.188 6.10096 -0.248 0
M  V30 2307 H 207.602 5.23093 -2.3462 0
M  V30 2308 H 205.999 5.1203 -3.12962 0
M  V30 2309 H 207.069 3.70676 -3.12614 0
M  V30 2310 N 208.412 0.89855 1.29475 0
M  V30 2311 C 209.661 0.519863 1.94885 0
M  V30 2312 C 209.974 -0.9383 1.71625 0
M  V30 2313 O 211.18 -1.42445 2.31131 0
M  V30 2314 C 209.636 0.878836 3.49005 0
M  V30 2315 C 209.244 2.35569 3.81066 0
M  V30 2316 C 210.988 0.570004 4.20656 0
M  V30 2317 C 208.895 2.65558 5.28425 0
M  V30 2318 H 207.825 0.190692 0.729488 0
M  V30 2319 H 210.476 1.09539 1.47219 0
M  V30 2320 H 208.858 0.232253 3.95318 0
M  V30 2321 H 210.032 3.04773 3.45616 0
M  V30 2322 H 208.347 2.63343 3.22552 0
M  V30 2323 H 210.944 0.770925 5.29113 0
M  V30 2324 H 211.287 -0.491404 4.1339 0
M  V30 2325 H 211.82 1.17438 3.8007 0
M  V30 2326 H 208.559 3.70493 5.40754 0
M  V30 2327 H 208.079 2.00977 5.65127 0
M  V30 2328 H 209.758 2.51765 5.96006 0
M  V30 2329 N 209.89 -1.43072 0.660911 0
M  V30 2330 C 210.8 -2.34585 -0.0264163 0
M  V30 2331 C 211.816 -1.54316 -0.803898 0
M  V30 2332 O 212.992 -1.86939 -0.749391 0
M  V30 2333 C 210.057 -3.32689 -0.975639 0
M  V30 2334 C 209.118 -4.2886 -0.194236 0
M  V30 2335 C 208.351 -5.22278 -1.09825 0
M  V30 2336 O 208.574 -5.20299 -2.33763 0
M  V30 2337 O 207.508 -5.99228 -0.566513 0
M  V30 2338 H 211.334 -2.94869 0.727034 0
M  V30 2339 H 208.919 -1.43342 0.42111 0
M  V30 2340 H 210.801 -3.92995 -1.52094 0
M  V30 2341 H 209.476 -2.74898 -1.70918 0
M  V30 2342 H 208.383 -3.72011 0.394835 0
M  V30 2343 H 209.716 -4.89655 0.499899 0
M  V30 2344 N 211.368 -0.403325 -1.52352 0
M  V30 2345 C 212.645 0.232611 -1.94212 0
M  V30 2346 C 213.025 1.63133 -1.33981 0
M  V30 2347 O 212.373 2.22659 -0.513344 0
M  V30 2348 C 212.583 0.244811 -3.4814 0
M  V30 2349 C 213.931 0.46698 -4.22024 0
M  V30 2350 O 214.955 0.324419 -3.5472 0
M  V30 2351 O 213.814 0.74747 -5.41364 0
M  V30 2352 H 210.908 0.148223 -0.813609 0
M  V30 2353 H 213.454 -0.458848 -1.63379 0
M  V30 2354 H 212.226 -0.734378 -3.84347 0
M  V30 2355 H 211.849 0.980611 -3.85318 0
M  V30 2356 N 212.846 1.57033 -0.133567 0
M  V30 2357 C 214.257 1.82593 0.389464 0
M  V30 2358 C 214.608 1.05156 1.6564 0
M  V30 2359 O 213.733 0.292644 2.14412 0
M  V30 2360 C 214.328 3.31204 0.713377 0
M  V30 2361 C 212.887 3.57393 1.18098 0
M  V30 2362 C 212.034 2.76598 0.197126 0
M  V30 2363 H 214.985 1.54598 -0.358481 0
M  V30 2364 H 215.006 3.46627 1.56939 0
M  V30 2365 H 214.518 3.87537 -0.2089 0
M  V30 2366 H 212.619 3.06433 2.11966 0
M  V30 2367 H 212.732 4.65915 1.11624 0
M  V30 2368 H 211.096 2.45257 0.687088 0
M  V30 2369 H 211.879 3.35697 -0.718504 0
M  V30 2370 N 214.325 -0.140222 1.56975 0
M  V30 2371 C 215.571 -0.852949 1.83991 0
M  V30 2372 C 215.904 -1.80512 0.716187 0
M  V30 2373 O 215.179 -1.92479 -0.279681 0
M  V30 2374 C 215.462 -1.6215 3.21527 0
M  V30 2375 C 215.315 -0.690363 4.4447 0
M  V30 2376 C 216.634 -2.58247 3.56366 0
M  V30 2377 H 213.753 -0.308634 0.669264 0
M  V30 2378 H 216.395 -0.117898 1.89634 0
M  V30 2379 H 214.545 -2.24812 3.16847 0
M  V30 2380 H 216.217 -0.0742264 4.6124 0
M  V30 2381 H 214.46 -0.000396433 4.338 0
M  V30 2382 H 215.131 -1.2643 5.37326 0
M  V30 2383 H 217.607 -2.05701 3.61699 0
M  V30 2384 H 216.483 -3.09067 4.53617 0
M  V30 2385 H 216.744 -3.39923 2.82674 0
M  V30 2386 N 215.803 -1.52179 -0.40978 0
M  V30 2387 C 216.713 -1.78364 -1.52392 0
M  V30 2388 C 217.729 -0.669183 -1.60617 0
M  V30 2389 O 218.905 -0.954518 -1.77344 0
M  V30 2390 C 215.97 -1.92822 -2.88133 0
M  V30 2391 C 215.031 -3.16725 -2.898 0
M  V30 2392 C 214.264 -3.30483 -4.19067 0
M  V30 2393 O 214.487 -2.49522 -5.12928 0
M  V30 2394 O 213.421 -4.2363 -4.27576 0
M  V30 2395 H 217.247 -2.72931 -1.33201 0
M  V30 2396 H 214.832 -1.37016 -0.59557 0
M  V30 2397 H 216.714 -2.04157 -3.68643 0
M  V30 2398 H 215.389 -1.01444 -3.07393 0
M  V30 2399 H 214.296 -3.10848 -2.08146 0
M  V30 2400 H 215.629 -4.07881 -2.75489 0
M  V30 2401 N 217.281 0.66697 -1.42791 0
M  V30 2402 C 218.53 1.42278 -1.42968 0
M  V30 2403 C 218.843 1.9553 -0.0524489 0
M  V30 2404 O 220.049 2.71414 0.068363 0
M  V30 2405 C 218.505 2.57418 -2.51524 0
M  V30 2406 C 218.113 2.10832 -3.9529 0
M  V30 2407 C 219.857 3.34878 -2.60877 0
M  V30 2408 C 217.764 3.23101 -4.95338 0
M  V30 2409 H 216.694 0.534533 -0.531781 0
M  V30 2410 H 219.345 0.721302 -1.68729 0
M  V30 2411 H 217.727 3.29971 -2.18941 0
M  V30 2412 H 218.901 1.4538 -4.37266 0
M  V30 2413 H 217.216 1.46289 -3.89857 0
M  V30 2414 H 219.813 4.18505 -3.32802 0
M  V30 2415 H 220.156 3.81993 -1.6549 0
M  V30 2416 H 220.689 2.69398 -2.92693 0
M  V30 2417 H 217.428 2.80969 -5.9223 0
M  V30 2418 H 216.948 3.87309 -4.57987 0
M  V30 2419 H 218.627 3.88447 -5.17415 0
M  V30 2420 N 218.759 1.29093 0.90403 0
M  V30 2421 C 220.008 1.16187 1.64874 0
M  V30 2422 C 220.321 -0.286742 1.93487 0
M  V30 2423 O 221.527 -0.537062 2.66135 0
M  V30 2424 C 219.983 2.03177 2.97064 0
M  V30 2425 C 219.591 3.52836 2.76062 0
M  V30 2426 C 221.335 1.98984 3.74974 0
M  V30 2427 C 219.242 4.31945 4.03952 0
M  V30 2428 H 218.172 0.431246 0.618501 0
M  V30 2429 H 220.823 1.53699 1.00243 0
M  V30 2430 H 219.205 1.5853 3.62883 0
M  V30 2431 H 220.379 4.05507 2.18863 0
M  V30 2432 H 218.694 3.58656 2.11553 0
M  V30 2433 H 221.291 2.55351 4.69787 0
M  V30 2434 H 221.634 0.968815 4.0487 0
M  V30 2435 H 222.167 2.41652 3.15989 0
M  V30 2436 H 218.906 5.34667 3.79225 0
M  V30 2437 H 218.426 3.84045 4.60727 0
M  V30 2438 H 220.105 4.42379 4.72133 0
M  V30 2439 N 220.237 -1.11381 1.11499 0
M  V30 2440 C 221.462 -1.87475 0.887019 0
M  V30 2441 C 221.887 -1.79639 -0.557796 0
M  V30 2442 O 221.245 -1.15924 -1.39396 0
M  V30 2443 C 221.293 -3.34213 1.35403 0
M  V30 2444 O 220.397 -4.0903 0.526146 0
M  V30 2445 H 219.738 -0.582099 0.319463 0
M  V30 2446 H 222.268 -1.40785 1.48461 0
M  V30 2447 H 222.278 -3.8506 1.34881 0
M  V30 2448 H 220.953 -3.39232 2.40612 0
M  V30 2449 H 219.53 -3.68082 0.597522 0
M  V30 2450 N 221.715 -0.905404 -1.28997 0
M  V30 2451 C 222.94 -0.549175 -1.99997 0
M  V30 2452 C 223.365 0.860276 -1.67275 0
M  V30 2453 O 222.723 1.57355 -0.900502 0
M  V30 2454 C 222.771 -0.755185 -3.52604 0
M  V30 2455 O 221.875 0.189692 -4.11964 0
M  V30 2456 H 221.216 -0.213899 -0.628604 0
M  V30 2457 H 223.746 -1.21856 -1.64354 0
M  V30 2458 H 223.756 -0.662045 -4.02593 0
M  V30 2459 H 222.431 -1.78271 -3.75755 0
M  V30 2460 H 221.008 0.0485257 -3.72868 0
M  V30 2461 N 223.193 1.4272 -0.668489 0
M  V30 2462 C 224.14 2.30796 0.0137489 0
M  V30 2463 C 225.11 1.4561 0.799177 0
M  V30 2464 O 226.295 1.74453 0.772702 0
M  V30 2465 C 223.435 3.31377 0.963507 0
M  V30 2466 C 222.548 4.31655 0.172569 0
M  V30 2467 C 221.683 5.19312 1.1175 0
M  V30 2468 C 220.722 6.11274 0.317886 0
M  V30 2469 N 219.859 6.91504 1.2152 0
M  V30 2470 H 224.699 2.88585 -0.743161 0
M  V30 2471 H 222.236 1.42154 -0.378226 0
M  V30 2472 H 224.194 3.88214 1.52792 0
M  V30 2473 H 222.824 2.75202 1.68712 0
M  V30 2474 H 221.876 3.76988 -0.508374 0
M  V30 2475 H 223.188 4.96779 -0.448527 0
M  V30 2476 H 222.342 5.80851 1.75206 0
M  V30 2477 H 221.081 4.5435 1.77249 0
M  V30 2478 H 220.086 5.48809 -0.329918 0
M  V30 2479 H 221.311 6.78283 -0.332917 0
M  V30 2480 H 219.257 6.29176 1.85671 0
M  V30 2481 H 219.174 7.53209 0.649036 0
M  V30 2482 H 220.442 7.57535 1.83742 0
M  V30 2483 N 224.671 0.411399 1.52136 0
M  V30 2484 C 225.601 -0.404015 2.29978 0
M  V30 2485 C 226.582 -1.04412 1.34284 0
M  V30 2486 O 227.767 -1.0527 1.63192 0
M  V30 2487 C 224.897 -1.5197 3.12286 0
M  V30 2488 C 223.851 -1.00448 4.16046 0
M  V30 2489 C 223.177 -2.21393 4.86712 0
M  V30 2490 C 224.477 -0.0569336 5.22269 0
M  V30 2491 H 226.171 0.245529 2.98392 0
M  V30 2492 H 223.717 0.119525 1.43503 0
M  V30 2493 H 225.67 -2.09715 3.6551 0
M  V30 2494 H 224.394 -2.19716 2.41646 0
M  V30 2495 H 223.053 -0.449421 3.63835 0
M  V30 2496 H 222.701 -2.87699 4.12599 0
M  V30 2497 H 222.401 -1.87571 5.56858 0
M  V30 2498 H 223.925 -2.7974 5.4275 0
M  V30 2499 H 225.339 -0.54325 5.7072 0
M  V30 2500 H 223.736 0.192594 5.99791 0
M  V30 2501 H 224.806 0.887663 4.76706 0
M  V30 2502 N 226.149 -1.5696 0.141893 0
M  V30 2503 C 227.059 -2.20066 -0.812905 0
M  V30 2504 C 228.075 -1.18344 -1.27557 0
M  V30 2505 O 229.251 -1.50902 -1.33381 0
M  V30 2506 C 226.316 -2.80583 -2.03652 0
M  V30 2507 C 225.377 -3.97414 -1.62359 0
M  V30 2508 C 224.61 -4.55036 -2.78887 0
M  V30 2509 O 224.833 -4.11538 -3.94959 0
M  V30 2510 O 223.767 -5.45376 -2.54653 0
M  V30 2511 H 227.593 -3.02157 -0.305746 0
M  V30 2512 H 225.178 -1.49159 -0.0848799 0
M  V30 2513 H 227.06 -3.19067 -2.75272 0
M  V30 2514 H 225.735 -2.01508 -2.5333 0
M  V30 2515 H 224.642 -3.63656 -0.877775 0
M  V30 2516 H 225.975 -4.77994 -1.17401 0
M  V30 2517 N 227.627 0.131896 -1.57047 0
M  V30 2518 C 228.873 0.843179 -1.84441 0
M  V30 2519 C 229.206 1.80129 -0.725749 0
M  V30 2520 O 228.481 1.92624 0.269469 0
M  V30 2521 C 228.764 1.60442 -3.22382 0
M  V30 2522 C 228.617 0.666782 -4.4483 0
M  V30 2523 C 229.936 2.56354 -3.5773 0
M  V30 2524 H 227.055 0.305081 -0.670891 0
M  V30 2525 H 229.697 0.107839 -1.89694 0
M  V30 2526 H 227.847 2.23128 -3.18035 0
M  V30 2527 H 229.519 0.0497646 -4.61273 0
M  V30 2528 H 227.762 -0.022609 -4.33794 0
M  V30 2529 H 228.433 1.23579 -5.37989 0
M  V30 2530 H 230.909 2.0378 -3.62785 0
M  V30 2531 H 229.785 3.06657 -4.5525 0
M  V30 2532 H 230.046 3.38419 -2.84473 0
M  V30 2533 N 229.106 1.52395 0.401703 0
M  V30 2534 C 230.038 1.72505 1.50912 0
M  V30 2535 C 231.051 0.605468 1.51122 0
M  V30 2536 O 232.24 0.880828 1.55254 0
M  V30 2537 C 229.34 1.75711 2.89791 0
M  V30 2538 C 228.513 3.04824 3.1369 0
M  V30 2539 C 227.572 2.99743 4.32482 0
M  V30 2540 O 226.598 3.73635 4.29402 0
M  V30 2541 N 227.8 2.18047 5.37992 0
M  V30 2542 H 230.565 2.68049 1.34052 0
M  V30 2543 H 228.126 1.50724 0.591084 0
M  V30 2544 H 230.118 1.69834 3.6734 0
M  V30 2545 H 228.688 0.876092 3.00072 0
M  V30 2546 H 227.908 3.2429 2.24119 0
M  V30 2547 H 229.196 3.90221 3.26504 0
M  V30 2548 H 228.594 1.57456 5.43345 0
M  V30 2549 H 227.151 2.18021 6.14256 0
M  V30 2550 N 230.584 -0.659388 1.43143 0
M  V30 2551 C 231.547 -1.75432 1.47501 0
M  V30 2552 C 232.547 -1.56707 0.360512 0
M  V30 2553 O 233.737 -1.62717 0.622002 0
M  V30 2554 C 230.869 -3.14239 1.32162 0
M  V30 2555 H 232.062 -1.7295 2.45006 0
M  V30 2556 H 229.615 -0.870469 1.29817 0
M  V30 2557 H 230.35 -3.22336 0.356401 0
M  V30 2558 H 230.135 -3.29235 2.12948 0
M  V30 2559 H 231.625 -3.94094 1.3813 0
M  V30 2560 N 232.062 -1.29571 -0.897171 0
M  V30 2561 C 233.309 -1.17689 -1.6479 0
M  V30 2562 C 233.637 0.27107 -1.92602 0
M  V30 2563 O 232.892 1.21193 -1.53658 0
M  V30 2564 C 233.191 -1.9382 -3.00281 0
M  V30 2565 C 232.857 -3.43522 -2.92068 0
M  V30 2566 C 231.519 -3.84348 -2.89535 0
M  V30 2567 C 233.871 -4.38906 -2.81089 0
M  V30 2568 C 231.199 -5.18869 -2.73846 0
M  V30 2569 C 233.551 -5.73521 -2.66939 0
M  V30 2570 C 232.215 -6.13601 -2.62774 0
M  V30 2571 H 231.485 -0.430654 -0.603008 0
M  V30 2572 H 234.132 -1.60536 -1.04404 0
M  V30 2573 H 232.437 -1.4357 -3.64547 0
M  V30 2574 H 234.134 -1.82028 -3.57305 0
M  V30 2575 H 230.724 -3.11072 -2.94842 0
M  V30 2576 H 234.908 -4.08315 -2.82121 0
M  V30 2577 H 230.164 -5.4903 -2.69027 0
M  V30 2578 H 234.338 -6.47078 -2.57416 0
M  V30 2579 H 231.965 -7.17786 -2.50375 0
M  V30 2580 N 233.54 1.10788 -1.12088 0
M  V30 2581 C 234.45 2.20599 -0.798338 0
M  V30 2582 C 235.466 1.72712 0.21135 0
M  V30 2583 O 236.642 2.01348 0.0458477 0
M  V30 2584 C 233.707 3.45771 -0.253674 0
M  V30 2585 C 232.768 4.08411 -1.32283 0
M  V30 2586 C 232.001 5.27608 -0.80406 0
M  V30 2587 O 232.224 5.69241 0.363478 0
M  V30 2588 O 231.158 5.8101 -1.57198 0
M  V30 2589 H 234.984 2.50614 -1.7154 0
M  V30 2590 H 232.569 1.19454 -0.897275 0
M  V30 2591 H 234.451 4.21376 0.0453691 0
M  V30 2592 H 233.126 3.1739 0.636005 0
M  V30 2593 H 232.033 3.34507 -1.67499 0
M  V30 2594 H 233.366 4.40986 -2.18614 0
M  V30 2595 N 235.018 0.912232 1.28515 0
M  V30 2596 C 236.434 0.610159 1.47476 0
M  V30 2597 C 236.634 -0.844955 1.82928 0
M  V30 2598 O 235.69 -1.62416 1.93332 0
M  V30 2599 C 237.003 1.54675 2.57868 0
M  V30 2600 C 238.551 1.55331 2.71738 0
M  V30 2601 C 239.026 2.47649 3.85272 0
M  V30 2602 N 240.517 2.45767 3.92623 0
M  V30 2603 C 241.252 3.13896 4.79851 0
M  V30 2604 N 240.748 3.9135 5.71679 0
M  V30 2605 N 242.541 3.02991 4.73448 0
M  V30 2606 H 234.692 1.85318 1.03783 0
M  V30 2607 H 236.955 0.794777 0.516753 0
M  V30 2608 H 236.661 2.5841 2.38574 0
M  V30 2609 H 236.535 1.27671 3.54937 0
M  V30 2610 H 238.922 0.52335 2.90422 0
M  V30 2611 H 239.003 1.86378 1.75205 0
M  V30 2612 H 238.647 3.50745 3.67342 0
M  V30 2613 H 238.577 2.13904 4.81199 0
M  V30 2614 H 241.068 1.89503 3.26951 0
M  V30 2615 H 241.381 4.40359 6.35062 0
M  V30 2616 H 239.726 3.95455 5.71524 0
M  V30 2617 H 242.917 2.41987 4.007 0
M  V30 2618 H 243.09 3.5636 5.41213 0
M  V30 2619 N 236.496 -1.42363 0.676048 0
M  V30 2620 C 237.745 -2.00745 0.196037 0
M  V30 2621 C 238.058 -1.54083 -1.20489 0
M  V30 2622 O 239.264 -2.04891 -1.78134 0
M  V30 2623 C 237.72 -3.58651 0.299616 0
M  V30 2624 C 237.328 -4.143 1.70468 0
M  V30 2625 C 239.072 -4.24326 -0.121619 0
M  V30 2626 C 236.979 -5.64574 1.76096 0
M  V30 2627 H 235.909 -0.750787 0.0695301 0
M  V30 2628 H 238.56 -1.63072 0.841412 0
M  V30 2629 H 236.942 -3.93833 -0.413673 0
M  V30 2630 H 238.116 -3.90575 2.44515 0
M  V30 2631 H 236.431 -3.61081 2.07387 0
M  V30 2632 H 239.028 -5.34607 -0.0997362 0
M  V30 2633 H 239.371 -3.99897 -1.15708 0
M  V30 2634 H 239.904 -3.94108 0.540706 0
M  V30 2635 H 236.643 -5.93804 2.77628 0
M  V30 2636 H 236.163 -5.90286 1.06406 0
M  V30 2637 H 237.842 -6.29013 1.51496 0
M  V30 2638 N 237.974 -0.419461 -1.51915 0
M  V30 2639 C 238.884 0.407528 -2.31033 0
M  V30 2640 C 239.9 1.04413 -1.3919 0
M  V30 2641 O 241.076 1.0434 -1.72265 0
M  V30 2642 C 238.141 1.50365 -3.12396 0
M  V30 2643 C 237.202 0.889029 -4.19994 0
M  V30 2644 C 236.435 1.93291 -4.97468 0
M  V30 2645 O 236.658 3.15259 -4.75361 0
M  V30 2646 O 235.592 1.53339 -5.8204 0
M  V30 2647 H 239.418 -0.237865 -3.02767 0
M  V30 2648 H 237.003 -0.182413 -1.48282 0
M  V30 2649 H 238.885 2.13975 -3.63032 0
M  V30 2650 H 237.56 2.13345 -2.43445 0
M  V30 2651 H 236.467 0.215353 -3.7348 0
M  V30 2652 H 237.8 0.302991 -4.91267 0
M  V30 2653 N 239.452 1.56882 -0.150215 0
M  V30 2654 C 240.729 1.87844 0.545327 0
M  V30 2655 C 241.109 1.0567 1.82749 0
M  V30 2656 O 240.457 0.144442 2.28043 0
M  V30 2657 C 240.667 3.39526 0.80767 0
M  V30 2658 C 242.015 4.08814 1.14703 0
M  V30 2659 O 243.039 3.44723 0.896917 0
M  V30 2660 O 241.898 5.22004 1.61784 0
M  V30 2661 H 238.992 0.778677 0.278553 0
M  V30 2662 H 241.538 1.68666 -0.187068 0
M  V30 2663 H 240.31 3.91173 -0.0996096 0
M  V30 2664 H 239.933 3.64243 1.59413 0
M  V30 2665 N 240.93 -0.123565 1.57115 0
M  V30 2666 C 242.16 -0.845233 1.88519 0
M  V30 2667 C 242.568 -1.74168 0.739064 0
M  V30 2668 O 241.911 -1.81244 -0.299355 0
M  V30 2669 C 241.973 -1.73452 3.14888 0
M  V30 2670 C 241.637 -1.01285 4.45635 0
M  V30 2671 C 242.634 -0.355774 5.18681 0
M  V30 2672 C 240.319 -0.99538 4.92339 0
M  V30 2673 C 242.313 0.309114 6.3665 0
M  V30 2674 C 240 -0.32669 6.10226 0
M  V30 2675 C 240.998 0.324406 6.82229 0
M  V30 2676 O 240.686 0.982437 7.97874 0
M  V30 2677 H 240.418 -0.248534 0.628655 0
M  V30 2678 H 242.972 -0.113907 2.05084 0
M  V30 2679 H 241.202 -2.50737 2.94394 0
M  V30 2680 H 242.891 -2.33021 3.32349 0
M  V30 2681 H 243.657 -0.360918 4.83655 0
M  V30 2682 H 239.536 -1.49159 4.36202 0
M  V30 2683 H 243.08 0.8179 6.92789 0
M  V30 2684 H 238.977 -0.319294 6.4471 0
M  V30 2685 H 239.745 0.886454 8.13686 0
M  V30 2686 N 242.408 -1.52605 -0.393616 0
M  V30 2687 C 243.657 -1.66649 -1.13627 0
M  V30 2688 C 243.97 -0.410364 -1.91247 0
M  V30 2689 O 245.176 -0.430854 -2.68059 0
M  V30 2690 C 243.632 -2.9449 -2.06891 0
M  V30 2691 C 243.24 -4.27266 -1.34714 0
M  V30 2692 C 244.984 -3.17899 -2.81319 0
M  V30 2693 C 242.891 -5.46217 -2.26717 0
M  V30 2694 H 241.821 -0.62084 -0.427871 0
M  V30 2695 H 244.472 -1.791 -0.399428 0
M  V30 2696 H 242.854 -2.75774 -2.84191 0
M  V30 2697 H 244.028 -4.56518 -0.626714 0
M  V30 2698 H 242.343 -4.10081 -0.722643 0
M  V30 2699 H 244.94 -4.03949 -3.50328 0
M  V30 2700 H 245.283 -2.32777 -3.45139 0
M  V30 2701 H 245.816 -3.37159 -2.11113 0
M  V30 2702 H 242.555 -6.33733 -1.67521 0
M  V30 2703 H 242.075 -5.21283 -2.96689 0
M  V30 2704 H 243.754 -5.7991 -2.86903 0
M  V30 2705 N 243.887 0.651787 -1.4349 0
M  V30 2706 C 244.834 1.76462 -1.4876 0
M  V30 2707 C 245.804 1.62641 -0.337189 0
M  V30 2708 O 246.989 1.82864 -0.544544 0
M  V30 2709 C 244.129 3.14623 -1.41796 0
M  V30 2710 C 243.242 3.39568 -2.67053 0
M  V30 2711 C 242.377 4.67585 -2.52068 0
M  V30 2712 C 241.416 4.85639 -3.72587 0
M  V30 2713 N 240.553 6.04915 -3.56402 0
M  V30 2714 H 245.393 1.71293 -2.43849 0
M  V30 2715 H 242.93 0.835889 -1.21043 0
M  V30 2716 H 244.888 3.94496 -1.35753 0
M  V30 2717 H 243.518 3.18859 -0.50288 0
M  V30 2718 H 242.57 2.53783 -2.8337 0
M  V30 2719 H 243.882 3.48795 -3.56572 0
M  V30 2720 H 243.036 5.55586 -2.4374 0
M  V30 2721 H 241.775 4.60681 -1.60075 0
M  V30 2722 H 240.78 3.96073 -3.81321 0
M  V30 2723 H 242.005 4.94372 -4.65589 0
M  V30 2724 H 239.951 5.9914 -2.67146 0
M  V30 2725 H 239.868 6.15106 -4.39524 0
M  V30 2726 H 241.136 6.95533 -3.51929 0
M  V30 2727 N 245.365 1.30045 0.890287 0
M  V30 2728 C 246.295 1.18541 2.01172 0
M  V30 2729 C 247.276 0.0773356 1.69924 0
M  V30 2730 O 248.461 0.25845 1.92473 0
M  V30 2731 C 245.591 0.870941 3.36202 0
M  V30 2732 C 244.545 1.93637 3.81692 0
M  V30 2733 C 243.871 1.475 5.13953 0
M  V30 2734 C 245.171 3.34666 4.00994 0
M  V30 2735 H 246.865 2.12359 2.11054 0
M  V30 2736 H 244.411 1.02238 1.01407 0
M  V30 2737 H 246.364 0.777141 4.14172 0
M  V30 2738 H 245.088 -0.102926 3.26438 0
M  V30 2739 H 243.747 2.01972 3.05946 0
M  V30 2740 H 243.395 0.489551 5.00612 0
M  V30 2741 H 243.095 2.1876 5.4536 0
M  V30 2742 H 244.619 1.39489 5.94454 0
M  V30 2743 H 246.033 3.2912 4.69417 0
M  V30 2744 H 244.43 4.03966 4.43769 0
M  V30 2745 H 245.5 3.76949 3.05021 0
M  V30 2746 N 246.843 -1.10192 1.12674 0
M  V30 2747 C 248.092 -1.81573 0.8783 0
M  V30 2748 C 248.405 -1.86249 -0.597557 0
M  V30 2749 O 249.611 -2.5386 -0.962681 0
M  V30 2750 C 248.067 -3.26149 1.52167 0
M  V30 2751 C 247.675 -3.29763 3.03249 0
M  V30 2752 C 249.419 -4.0234 1.3536 0
M  V30 2753 C 247.326 -4.68815 3.60508 0
M  V30 2754 H 246.256 -0.680394 0.324931 0
M  V30 2755 H 248.907 -1.23902 1.35353 0
M  V30 2756 H 247.289 -3.83832 0.974104 0
M  V30 2757 H 248.463 -2.8189 3.6452 0
M  V30 2758 H 246.778 -2.67059 3.19481 0
M  V30 2759 H 249.375 -5.05058 1.75559 0
M  V30 2760 H 249.718 -4.15235 0.297554 0
M  V30 2761 H 250.251 -3.51079 1.87052 0
M  V30 2762 H 246.99 -4.61121 4.65884 0
M  V30 2763 H 246.51 -5.17045 3.04014 0
M  V30 2764 H 248.189 -5.37785 3.59717 0
M  V30 2765 N 248.321 -0.919034 -1.28029 0
M  V30 2766 C 249.569 -0.553838 -1.94363 0
M  V30 2767 C 249.89 0.906357 -1.72656 0
M  V30 2768 O 249.16 1.64143 -1.0693 0
M  V30 2769 H 247.74 -0.201834 -0.719216 0
M  V30 2770 H 250.402 -1.16954 -1.55909 0
M  V30 2771 H 249.498 -0.752758 -3.02886 0
M  V30 2772 N 249.799 1.42003 -0.683588 0
M  V30 2773 C 251.046 2.01413 -0.209514 0
M  V30 2774 C 251.374 1.54088 1.1869 0
M  V30 2775 O 250.629 0.737591 1.81268 0
M  V30 2776 C 250.928 3.56827 -0.202357 0
M  V30 2777 C 250.594 4.23617 -1.54464 0
M  V30 2778 C 249.256 4.41577 -1.91215 0
M  V30 2779 C 251.608 4.61178 -2.42826 0
M  V30 2780 C 248.936 4.9437 -3.15935 0
M  V30 2781 C 251.288 5.15355 -3.66867 0
M  V30 2782 C 249.952 5.31528 -4.03776 0
M  V30 2783 H 249.222 0.737023 -0.0766668 0
M  V30 2784 H 251.869 1.70067 -0.880312 0
M  V30 2785 H 250.174 3.87892 0.551969 0
M  V30 2786 H 251.871 4.00588 0.181793 0
M  V30 2787 H 248.461 4.10004 -1.24877 0
M  V30 2788 H 252.645 4.46968 -2.15717 0
M  V30 2789 H 247.901 5.05076 -3.44541 0
M  V30 2790 H 252.075 5.43402 -4.35531 0
M  V30 2791 H 249.702 5.72199 -5.00492 0
M  V30 2792 N 251.277 0.427512 1.51691 0
M  V30 2793 C 252.524 -0.142229 2.02 0
M  V30 2794 C 252.852 -1.43566 1.31221 0
M  V30 2795 O 252.107 -1.91298 0.412744 0
M  V30 2796 C 252.406 -0.418249 3.54944 0
M  V30 2797 C 252.072 0.788187 4.43958 0
M  V30 2798 C 250.734 1.11906 4.68007 0
M  V30 2799 C 253.086 1.59347 4.96244 0
M  V30 2800 C 250.414 2.25608 5.41588 0
M  V30 2801 C 252.766 2.7214 5.71072 0
M  V30 2802 C 251.43 3.05692 5.93387 0
M  V30 2803 H 250.7 -0.0520451 0.73917 0
M  V30 2804 H 253.347 0.572697 1.82736 0
M  V30 2805 H 251.652 -1.21496 3.72486 0
M  V30 2806 H 253.349 -0.872339 3.91397 0
M  V30 2807 H 249.939 0.520344 4.2543 0
M  V30 2808 H 254.123 1.35106 4.77556 0
M  V30 2809 H 249.379 2.51929 5.57083 0
M  V30 2810 H 253.553 3.34914 6.10578 0
M  V30 2811 H 251.18 3.9391 6.50184 0
M  V30 2812 N 252.755 -1.56801 0.158532 0
M  V30 2813 C 253.702 -2.17337 -0.776729 0
M  V30 2814 C 254.672 -1.1096 -1.23601 0
M  V30 2815 O 255.857 -1.39054 -1.30647 0
M  V30 2816 C 252.997 -2.80822 -2.00582 0
M  V30 2817 C 252.11 -4.01624 -1.59129 0
M  V30 2818 C 251.245 -4.53072 -2.77306 0
M  V30 2819 C 250.284 -5.66314 -2.32282 0
M  V30 2820 N 249.421 -6.12329 -3.43508 0
M  V30 2821 H 254.261 -2.96918 -0.253701 0
M  V30 2822 H 251.798 -1.46661 -0.113504 0
M  V30 2823 H 253.756 -3.15779 -2.72652 0
M  V30 2824 H 252.386 -2.03866 -2.50277 0
M  V30 2825 H 251.438 -3.72571 -0.767806 0
M  V30 2826 H 252.75 -4.83633 -1.2207 0
M  V30 2827 H 251.904 -4.90145 -3.57551 0
M  V30 2828 H 250.643 -3.70095 -3.17617 0
M  V30 2829 H 249.648 -5.28806 -1.5048 0
M  V30 2830 H 250.873 -6.51085 -1.93043 0
M  V30 2831 H 248.819 -5.32284 -3.83418 0
M  V30 2832 H 248.736 -6.89293 -3.105 0
M  V30 2833 H 250.004 -6.5405 -4.24075 0
M  V30 2834 N 254.233 0.115231 -1.57178 0
M  V30 2835 C 255.458 0.840354 -1.89612 0
M  V30 2836 C 255.883 1.72464 -0.750845 0
M  V30 2837 O 255.241 1.78826 0.298478 0
M  V30 2838 C 255.289 1.64654 -3.20814 0
M  V30 2839 O 254.393 2.7538 -3.06985 0
M  V30 2840 H 253.734 0.232158 -0.622092 0
M  V30 2841 H 256.264 0.0964977 -2.04372 0
M  V30 2842 H 256.274 2.03499 -3.53627 0
M  V30 2843 H 254.949 0.997416 -4.03763 0
M  V30 2844 H 253.526 2.3971 -2.85646 0
M  V30 2845 N 255.711 1.52812 0.385517 0
M  V30 2846 C 256.621 1.80766 1.49535 0
M  V30 2847 C 257.637 0.694651 1.59532 0
M  V30 2848 O 258.813 0.982611 1.75803 0
M  V30 2849 C 255.878 1.97381 2.85029 0
M  V30 2850 C 254.939 3.21295 2.84724 0
M  V30 2851 C 254.172 3.37108 4.13756 0
M  V30 2852 O 254.395 2.5765 5.08893 0
M  V30 2853 O 253.329 4.30378 4.20783 0
M  V30 2854 H 257.155 2.75015 1.28842 0
M  V30 2855 H 254.74 1.37946 0.573697 0
M  V30 2856 H 256.622 2.09996 3.65349 0
M  V30 2857 H 255.297 1.06322 3.05741 0
M  V30 2858 H 254.204 3.1412 2.03174 0
M  V30 2859 H 255.537 4.12212 2.68965 0
M  V30 2860 N 257.189 -0.644168 1.43834 0
M  V30 2861 C 258.466 -1.40188 1.36406 0
M  V30 2862 C 258.846 -2.11094 0.0163124 0
M  V30 2863 O 258.194 -2.05426 -1.00062 0
M  V30 2864 C 258.404 -2.3791 2.55343 0
M  V30 2865 C 259.752 -3.01637 2.98832 0
M  V30 2866 O 260.776 -2.48237 2.55455 0
M  V30 2867 O 259.635 -3.98477 3.74003 0
M  V30 2868 H 256.729 -0.626773 0.539523 0
M  V30 2869 H 259.275 -0.670317 1.559 0
M  V30 2870 H 258.047 -1.84525 3.4506 0
M  V30 2871 H 257.67 -3.18503 2.37995 0
M  V30 2872 N 258.668 -1.30515 -0.883378 0
M  V30 2873 C 259.893 -1.22487 -1.67367 0
M  V30 2874 C 260.318 0.208767 -1.86938 0
M  V30 2875 O 259.676 1.15015 -1.40148 0
M  V30 2876 C 259.724 -1.96041 -3.02655 0
M  V30 2877 O 258.828 -1.28859 -3.91751 0
M  V30 2878 H 258.169 -0.423573 -0.511353 0
M  V30 2879 H 260.699 -1.72362 -1.10239 0
M  V30 2880 H 260.709 -2.05124 -3.52687 0
M  V30 2881 H 259.384 -3.00307 -2.8773 0
M  V30 2882 H 257.961 -1.28141 -3.50192 0
M  V30 2883 N 260.146 1.09593 -1.13257 0
M  V30 2884 C 261.056 2.19739 -0.821691 0
M  V30 2885 C 262.072 1.72926 0.19302 0
M  V30 2886 O 263.248 2.01385 0.0244895 0
M  V30 2887 C 260.313 3.45482 -0.290333 0
M  V30 2888 C 259.374 4.06985 -1.36607 0
M  V30 2889 C 258.607 5.26726 -0.859975 0
M  V30 2890 O 258.83 5.69594 0.303082 0
M  V30 2891 O 257.764 5.7931 -1.63351 0
M  V30 2892 H 261.59 2.48781 -1.74189 0
M  V30 2893 H 259.175 1.18496 -0.909894 0
M  V30 2894 H 261.057 4.214 0.000674022 0
M  V30 2895 H 259.732 3.18047 0.602306 0
M  V30 2896 H 258.639 3.32712 -1.71037 0
M  V30 2897 H 259.972 4.38643 -2.23279 0
M  V30 2898 N 261.624 0.925811 1.2754 0
M  V30 2899 C 262.854 0.580666 1.98272 0
M  V30 2900 C 263.262 -0.845207 1.69272 0
M  V30 2901 O 262.605 -1.57306 0.948707 0
M  V30 2902 C 262.667 0.724418 3.52126 0
M  V30 2903 C 262.331 2.12206 4.04744 0
M  V30 2904 C 263.328 3.09604 4.17662 0
M  V30 2905 C 261.013 2.4385 4.39138 0
M  V30 2906 C 263.007 4.36755 4.64246 0
M  V30 2907 C 260.694 3.71237 4.85414 0
M  V30 2908 C 261.692 4.67503 4.97926 0
M  V30 2909 O 261.38 5.92624 5.43187 0
M  V30 2910 H 261.112 0.218987 0.639547 0
M  V30 2911 H 263.666 1.24452 1.63404 0
M  V30 2912 H 261.896 0.0034663 3.867 0
M  V30 2913 H 263.585 0.384607 4.04074 0
M  V30 2914 H 264.351 2.86478 3.91351 0
M  V30 2915 H 260.23 1.69665 4.28643 0
M  V30 2916 H 263.774 5.11898 4.73927 0
M  V30 2917 H 259.671 3.94182 5.11166 0
M  V30 2918 H 260.439 5.95585 5.61445 0
M  V30 2919 N 263.102 -1.41638 0.69111 0
M  V30 2920 C 264.332 -2.0533 0.228758 0
M  V30 2921 C 264.74 -1.52089 -1.12541 0
M  V30 2922 O 264.083 -0.662145 -1.71351 0
M  V30 2923 C 264.145 -3.59349 0.10407 0
M  V30 2924 C 263.809 -4.35362 1.38956 0
M  V30 2925 C 264.806 -4.64942 2.32648 0
M  V30 2926 C 262.491 -4.74714 1.64169 0
M  V30 2927 C 264.485 -5.32828 3.49818 0
M  V30 2928 C 262.172 -5.42338 2.81625 0
M  V30 2929 C 263.17 -5.71322 3.74273 0
M  V30 2930 O 262.858 -6.37554 4.89673 0
M  V30 2931 H 262.59 -0.667796 0.104997 0
M  V30 2932 H 265.144 -1.82477 0.942938 0
M  V30 2933 H 263.374 -3.80924 -0.665839 0
M  V30 2934 H 265.063 -4.04633 -0.320519 0
M  V30 2935 H 265.829 -4.35025 2.14425 0
M  V30 2936 H 261.708 -4.51538 0.929202 0
M  V30 2937 H 265.252 -5.55368 4.22152 0
M  V30 2938 H 261.149 -5.71673 2.99768 0
M  V30 2939 H 261.917 -6.56049 4.8943 0
M  V30 2940 N 264.58 -0.43555 -1.51462 0
M  V30 2941 C 265.527 0.376797 -2.27703 0
M  V30 2942 C 266.497 1.01838 -1.31219 0
M  V30 2943 O 267.682 1.03762 -1.60119 0
M  V30 2944 C 264.822 1.47301 -3.12084 0
M  V30 2945 C 263.935 0.849744 -4.2356 0
M  V30 2946 C 263.07 1.92086 -4.95254 0
M  V30 2947 C 262.109 1.27593 -5.98654 0
M  V30 2948 N 261.246 2.28833 -6.63762 0
M  V30 2949 H 266.086 -0.279734 -2.96684 0
M  V30 2950 H 263.623 -0.149795 -1.46335 0
M  V30 2951 H 265.581 2.11984 -3.59331 0
M  V30 2952 H 264.211 2.0992 -2.45221 0
M  V30 2953 H 263.263 0.0912529 -3.80291 0
M  V30 2954 H 264.575 0.338878 -4.97648 0
M  V30 2955 H 263.729 2.64435 -5.46039 0
M  V30 2956 H 262.468 2.46545 -4.20793 0
M  V30 2957 H 261.473 0.537893 -5.47162 0
M  V30 2958 H 262.698 0.738693 -6.7507 0
M  V30 2959 H 260.644 2.82375 -5.92115 0
M  V30 2960 H 260.561 1.82632 -7.33608 0
M  V30 2961 H 261.829 3.00671 -7.19178 0
M  V30 2962 N 266.058 1.56714 -0.166846 0
M  V30 2963 C 267.021 2.16539 0.751232 0
M  V30 2964 C 268.021 1.11228 1.16125 0
M  V30 2965 O 269.211 1.36765 1.07894 0
M  V30 2966 C 266.343 2.74462 2.02196 0
M  V30 2967 H 267.536 2.99013 0.230499 0
M  V30 2968 H 265.089 1.56081 0.0826982 0
M  V30 2969 H 265.824 1.95709 2.58589 0
M  V30 2970 H 265.609 3.51527 1.73698 0
M  V30 2971 H 267.099 3.20489 2.67725 0
M  V30 2972 N 267.536 -0.106894 1.57237 0
M  V30 2973 C 268.783 -0.812526 1.85484 0
M  V30 2974 C 269.111 -1.79304 0.753687 0
M  V30 2975 O 268.366 -1.94047 -0.253853 0
M  V30 2976 C 268.665 -1.58628 3.20268 0
M  V30 2977 C 268.331 -0.748967 4.44636 0
M  V30 2978 C 266.993 -0.518104 4.78403 0
M  V30 2979 C 269.345 -0.166122 5.20935 0
M  V30 2980 C 266.673 0.305659 5.85903 0
M  V30 2981 C 269.025 0.644899 6.29304 0
M  V30 2982 C 267.689 0.885965 6.61594 0
M  V30 2983 H 266.959 -0.297324 0.678734 0
M  V30 2984 H 269.606 -0.0744332 1.91355 0
M  V30 2985 H 267.911 -2.39562 3.10028 0
M  V30 2986 H 269.608 -2.13643 3.39349 0
M  V30 2987 H 266.198 -0.939006 4.18187 0
M  V30 2988 H 270.382 -0.33167 4.95191 0
M  V30 2989 H 265.638 0.501528 6.0934 0
M  V30 2990 H 269.812 1.10345 6.87602 0
M  V30 2991 H 267.439 1.52609 7.44725 0
M  V30 2992 N 269.014 -1.53014 -0.377408 0
M  V30 2993 C 269.924 -1.81557 -1.48574 0
M  V30 2994 C 270.94 -0.703102 -1.59162 0
M  V30 2995 O 272.116 -0.99192 -1.75279 0
M  V30 2996 C 269.181 -1.9889 -2.83978 0
M  V30 2997 C 268.242 -3.22801 -2.83016 0
M  V30 2998 C 267.475 -3.39298 -4.11962 0
M  V30 2999 O 267.698 -2.60345 -5.0752 0
M  V30 3000 O 266.632 -4.32604 -4.18494 0
M  V30 3001 H 270.458 -2.75695 -1.27382 0
M  V30 3002 H 268.043 -1.38248 -0.566373 0
M  V30 3003 H 269.925 -2.11931 -3.6423 0
M  V30 3004 H 268.6 -1.07942 -3.05172 0
M  V30 3005 H 267.507 -3.15193 -2.01505 0
M  V30 3006 H 268.84 -4.13632 -2.66775 0
M  V30 3007 N 270.492 0.636531 -1.44174 0
M  V30 3008 C 271.402 1.77754 -1.53103 0
M  V30 3009 C 272.418 1.68928 -0.417034 0
M  V30 3010 O 273.594 1.89801 -0.6736 0
M  V30 3011 C 270.659 3.14115 -1.46741 0
M  V30 3012 C 269.72 3.34612 -2.68948 0
M  V30 3013 C 268.953 4.64467 -2.6288 0
M  V30 3014 O 269.176 5.44919 -1.68581 0
M  V30 3015 O 268.11 4.87049 -3.53648 0
M  V30 3016 H 271.936 1.73174 -2.49489 0
M  V30 3017 H 269.521 0.79709 -1.2636 0
M  V30 3018 H 271.403 3.95412 -1.45696 0
M  V30 3019 H 270.078 3.19249 -0.534975 0
M  V30 3020 H 268.985 2.53014 -2.75562 0
M  V30 3021 H 270.318 3.34336 -3.61221 0
M  V30 3022 N 271.97 1.30982 0.876444 0
M  V30 3023 C 272.933 1.18054 1.96459 0
M  V30 3024 C 273.933 0.109399 1.60427 0
M  V30 3025 O 275.123 0.358173 1.70478 0
M  V30 3026 C 272.255 0.810616 3.31122 0
M  V30 3027 H 273.448 2.14735 2.09354 0
M  V30 3028 H 271.001 1.145 1.06392 0
M  V30 3029 H 271.736 -0.155322 3.23928 0
M  V30 3030 H 271.521 1.58481 3.58645 0
M  V30 3031 H 273.011 0.743876 4.10921 0
M  V30 3032 N 273.449 -1.08991 1.13837 0
M  V30 3033 C 274.412 -2.13925 0.822715 0
M  V30 3034 C 275.412 -1.599 -0.1699 0
M  V30 3035 O 276.602 -1.74104 0.0577251 0
M  V30 3036 C 273.734 -3.40155 0.225318 0
M  V30 3037 H 274.927 -2.43358 1.75262 0
M  V30 3038 H 272.48 -1.24603 0.943594 0
M  V30 3039 H 273.215 -3.16352 -0.713594 0
M  V30 3040 H 273 -3.80661 0.940193 0
M  V30 3041 H 274.49 -4.17594 0.0214784 0
M  V30 3042 N 274.927 -0.932562 -1.27047 0
M  V30 3043 C 275.837 -0.441219 -2.30414 0
M  V30 3044 C 276.853 0.480525 -1.67233 0
M  V30 3045 O 278.029 0.362151 -1.98117 0
M  V30 3046 C 275.094 0.293651 -3.45454 0
M  V30 3047 C 274.155 -0.663601 -4.2414 0
M  V30 3048 C 273.388 0.0362932 -5.33688 0
M  V30 3049 O 273.611 1.2548 -5.56427 0
M  V30 3050 O 272.545 -0.638015 -5.98509 0
M  V30 3051 H 276.371 -1.29962 -2.74488 0
M  V30 3052 H 273.956 -0.6981 -1.32087 0
M  V30 3053 H 275.838 0.707951 -4.15411 0
M  V30 3054 H 274.513 1.12758 -3.03426 0
M  V30 3055 H 273.42 -1.12768 -3.56699 0
M  V30 3056 H 274.753 -1.46489 -4.69896 0
M  V30 3057 N 276.405 1.4127 -0.698611 0
M  V30 3058 C 277.355 2.27997 -0.0119836 0
M  V30 3059 C 278.339 1.42363 0.749765 0
M  V30 3060 O 279.531 1.65607 0.624758 0
M  V30 3061 C 276.66 3.30702 0.921458 0
M  V30 3062 C 275.746 4.23814 0.155796 0
M  V30 3063 N 276.137 4.98572 -0.852015 0
M  V30 3064 C 274.435 4.44284 0.390836 0
M  V30 3065 C 275.136 5.66744 -1.3106 0
M  V30 3066 N 274.112 5.39867 -0.635944 0
M  V30 3067 H 277.914 2.83232 -0.784649 0
M  V30 3068 H 275.428 1.53518 -0.529711 0
M  V30 3069 H 277.425 3.91661 1.42854 0
M  V30 3070 H 276.085 2.77028 1.69369 0
M  V30 3071 H 277.096 5.03024 -1.23235 0
M  V30 3072 H 273.773 4.01614 1.14071 0
M  V30 3073 H 275.163 6.36672 -2.14707 0
M  V30 3074 N 277.883 0.443576 1.51229 0
M  V30 3075 C 279.13 -0.120796 2.02139 0
M  V30 3076 C 279.458 -1.42166 1.32736 0
M  V30 3077 O 278.713 -1.90849 0.43301 0
M  V30 3078 C 279.012 -0.380579 3.55368 0
M  V30 3079 C 278.678 0.83523 4.43097 0
M  V30 3080 C 277.34 1.16864 4.66794 0
M  V30 3081 C 279.692 1.64601 4.94526 0
M  V30 3082 C 277.02 2.31339 5.39165 0
M  V30 3083 C 279.372 2.78181 5.68153 0
M  V30 3084 C 278.036 3.11969 5.90112 0
M  V30 3085 H 277.306 -0.0442023 0.73968 0
M  V30 3086 H 279.953 0.592046 1.82118 0
M  V30 3087 H 278.258 -1.17538 3.73754 0
M  V30 3088 H 279.955 -0.830777 3.923 0
M  V30 3089 H 276.545 0.565437 4.24854 0
M  V30 3090 H 280.729 1.40163 4.76097 0
M  V30 3091 H 275.985 2.57823 5.5438 0
M  V30 3092 H 280.159 3.41371 6.06992 0
M  V30 3093 H 277.786 4.00784 6.45969 0
M  V30 3094 N 279.361 -1.56624 0.175154 0
M  V30 3095 C 280.293 -2.15333 -0.785128 0
M  V30 3096 C 281.306 -1.1099 -1.19101 0
M  V30 3097 O 282.495 -1.38162 -1.13019 0
M  V30 3098 C 279.595 -2.68427 -2.06882 0
M  V30 3099 C 278.768 -3.97466 -1.8259 0
M  V30 3100 C 277.827 -4.35585 -2.95215 0
M  V30 3101 O 276.853 -5.03389 -2.65684 0
M  V30 3102 N 278.055 -3.97457 -4.23094 0
M  V30 3103 H 280.82 -2.98359 -0.283187 0
M  V30 3104 H 278.381 -1.61898 -0.00749817 0
M  V30 3105 H 280.373 -2.90924 -2.81328 0
M  V30 3106 H 278.943 -1.89968 -2.48256 0
M  V30 3107 H 278.163 -3.83307 -0.920287 0
M  V30 3108 H 279.451 -4.81736 -1.63733 0
M  V30 3109 H 278.849 -3.42878 -4.49945 0
M  V30 3110 H 277.406 -4.24947 -4.9423 0
M  V30 3111 N 280.839 0.0985539 -1.57292 0
M  V30 3112 C 282.25 0.653457 -1.74891 0
M  V30 3113 C 282.601 1.7929 -0.796838 0
M  V30 3114 O 281.726 2.16385 0.0254886 0
M  V30 3115 C 282.321 1.19216 -3.17133 0
M  V30 3116 C 280.88 1.69316 -3.36168 0
M  V30 3117 C 280.027 0.601294 -2.70702 0
M  V30 3118 H 282.978 -0.127497 -1.58187 0
M  V30 3119 H 282.999 2.06154 -3.19814 0
M  V30 3120 H 282.511 0.362635 -3.86402 0
M  V30 3121 H 280.612 2.5468 -2.71972 0
M  V30 3122 H 280.725 1.78853 -4.44464 0
M  V30 3123 H 279.089 1.0399 -2.32504 0
M  V30 3124 H 279.872 -0.217592 -3.4261 0
M  V30 3125 N 282.317 1.53212 0.369288 0
M  V30 3126 C 283.547 1.72868 1.13139 0
M  V30 3127 C 283.955 0.455754 1.83629 0
M  V30 3128 O 283.298 -0.580861 1.74275 0
M  V30 3129 C 283.36 2.83667 2.20847 0
M  V30 3130 C 283.024 4.24142 1.70155 0
M  V30 3131 C 284.021 5.06619 1.16763 0
M  V30 3132 C 281.706 4.70539 1.7578 0
M  V30 3133 C 283.7 6.33581 0.696678 0
M  V30 3134 C 281.387 5.97481 1.28297 0
M  V30 3135 C 282.385 6.78833 0.753307 0
M  V30 3136 O 282.073 8.03393 0.285475 0
M  V30 3137 H 281.805 0.581707 0.344373 0
M  V30 3138 H 284.359 2.00736 0.435243 0
M  V30 3139 H 282.589 2.51265 2.93944 0
M  V30 3140 H 284.278 2.91536 2.82421 0
M  V30 3141 H 285.044 4.71948 1.11758 0
M  V30 3142 H 280.923 4.07293 2.15949 0
M  V30 3143 H 284.467 6.97027 0.282581 0
M  V30 3144 H 280.364 6.31651 1.32994 0
M  V30 3145 H 281.132 8.17497 0.405145 0
M  V30 3146 N 283.795 -0.628877 1.44509 0
M  V30 3147 C 285.044 -1.38437 1.4669 0
M  V30 3148 C 285.357 -1.95322 0.104272 0
M  V30 3149 O 286.563 -2.715 0.00362163 0
M  V30 3150 C 285.019 -2.50659 2.5826 0
M  V30 3151 C 284.627 -2.00277 4.0074 0
M  V30 3152 C 286.371 -3.27844 2.69664 0
M  V30 3153 C 284.278 -3.09854 5.0373 0
M  V30 3154 H 283.208 -0.520245 0.545766 0
M  V30 3155 H 285.859 -0.676313 1.70582 0
M  V30 3156 H 284.241 -3.2405 2.27612 0
M  V30 3157 H 285.415 -1.33736 4.40966 0
M  V30 3158 H 283.73 -1.35901 3.93599 0
M  V30 3159 H 286.327 -4.09534 3.43781 0
M  V30 3160 H 286.67 -3.77471 1.75559 0
M  V30 3161 H 287.203 -2.61543 2.99733 0
M  V30 3162 H 283.942 -2.65168 5.99472 0
M  V30 3163 H 283.462 -3.7503 4.68095 0
M  V30 3164 H 285.141 -3.74592 5.27532 0
M  V30 3165 N 285.273 -1.31445 -0.869486 0
M  V30 3166 C 286.22 -1.19135 -1.97675 0
M  V30 3167 C 287.19 -0.0770266 -1.65921 0
M  V30 3168 O 288.375 -0.249972 -1.89155 0
M  V30 3169 C 285.515 -0.905149 -3.33018 0
M  V30 3170 C 284.628 -2.10285 -3.77365 0
M  V30 3171 C 283.763 -1.75339 -5.01427 0
M  V30 3172 C 282.802 -2.91515 -5.38224 0
M  V30 3173 N 281.939 -2.56762 -6.53466 0
M  V30 3174 H 286.779 -2.13853 -2.07535 0
M  V30 3175 H 284.316 -1.06379 -1.01597 0
M  V30 3176 H 286.274 -0.719765 -4.10944 0
M  V30 3177 H 284.904 0.00519624 -3.228 0
M  V30 3178 H 283.956 -2.39899 -2.95216 0
M  V30 3179 H 285.268 -2.97237 -4.00564 0
M  V30 3180 H 284.422 -1.53266 -5.87022 0
M  V30 3181 H 283.161 -0.855801 -4.80133 0
M  V30 3182 H 282.166 -3.14237 -4.51149 0
M  V30 3183 H 283.391 -3.81985 -5.61484 0
M  V30 3184 H 281.337 -1.69526 -6.33717 0
M  V30 3185 H 281.254 -3.37243 -6.76612 0
M  V30 3186 H 282.522 -2.38083 -7.42251 0
M  V30 3187 N 286.751 1.08385 -1.14413 0
M  V30 3188 C 287.998 1.80776 -0.912482 0
M  V30 3189 C 288.326 1.86236 0.560934 0
M  V30 3190 O 287.581 1.33431 1.43159 0
M  V30 3191 C 287.88 3.26273 -1.45879 0
M  V30 3192 C 287.546 3.4093 -2.95089 0
M  V30 3193 C 286.208 3.44638 -3.35824 0
M  V30 3194 C 288.56 3.44591 -3.91033 0
M  V30 3195 C 285.888 3.49597 -4.71167 0
M  V30 3196 C 288.24 3.51086 -5.26233 0
M  V30 3197 C 286.904 3.53067 -5.6648 0
M  V30 3198 H 286.174 0.661507 -0.333901 0
M  V30 3199 H 288.821 1.27613 -1.42784 0
M  V30 3200 H 287.126 3.82146 -0.864376 0
M  V30 3201 H 288.823 3.80839 -1.2555 0
M  V30 3202 H 285.413 3.38736 -2.62594 0
M  V30 3203 H 289.597 3.40957 -3.60641 0
M  V30 3204 H 284.853 3.49424 -5.0171 0
M  V30 3205 H 289.027 3.52864 -6.00383 0
M  V30 3206 H 286.654 3.56662 -6.71339 0
M  V30 3207 N 288.23 0.939286 1.26551 0
M  V30 3208 C 289.477 0.585847 1.9384 0
M  V30 3209 C 289.805 -0.874784 1.73718 0
M  V30 3210 O 289.06 -1.64092 1.06642 0
M  V30 3211 C 289.359 0.872106 3.46596 0
M  V30 3212 C 289.025 2.31632 3.86856 0
M  V30 3213 C 287.687 2.71111 3.97558 0
M  V30 3214 C 290.039 3.25494 4.07066 0
M  V30 3215 C 287.367 4.03553 4.25866 0
M  V30 3216 C 289.719 4.57531 4.36862 0
M  V30 3217 C 288.383 4.96828 4.45778 0
M  V30 3218 H 287.653 0.214377 0.709312 0
M  V30 3219 H 290.3 1.18544 1.50398 0
M  V30 3220 H 288.605 0.18996 3.91339 0
M  V30 3221 H 290.302 0.577442 3.96821 0
M  V30 3222 H 286.892 2.00008 3.79071 0
M  V30 3223 H 291.076 2.9619 3.98227 0
M  V30 3224 H 286.332 4.33665 4.30981 0
M  V30 3225 H 290.506 5.30254 4.51446 0
M  V30 3226 H 288.133 5.99482 4.67468 0
M  V30 3227 N 289.708 -1.40897 0.706093 0
M  V30 3228 C 290.671 -2.29131 0.0562841 0
M  V30 3229 C 291.671 -1.44901 -0.697166 0
M  V30 3230 O 292.861 -1.65926 -0.530484 0
M  V30 3231 C 289.993 -3.27957 -0.93043 0
M  V30 3232 H 291.186 -2.88091 0.833284 0
M  V30 3233 H 288.739 -1.4906 0.470192 0
M  V30 3234 H 289.474 -2.73997 -1.73482 0
M  V30 3235 H 289.259 -3.90124 -0.393166 0
M  V30 3236 H 290.749 -3.94049 -1.38256 0
M  V30 3237 N 291.186 -0.45159 -1.50991 0
M  V30 3238 C 292.414 0.108334 -2.06616 0
M  V30 3239 C 292.829 1.35224 -1.31757 0
M  V30 3240 O 292.186 1.78475 -0.381174 0
M  V30 3241 C 292.237 0.41619 -3.59096 0
M  V30 3242 O 291.958 -0.778361 -4.3113 0
M  V30 3243 C 293.459 1.02523 -4.31282 0
M  V30 3244 H 290.679 0.00159995 -0.670998 0
M  V30 3245 H 293.223 -0.634771 -1.94399 0
M  V30 3246 H 291.378 1.10921 -3.71181 0
M  V30 3247 H 291.792 -0.511181 -5.22003 0
M  V30 3248 H 293.266 1.19053 -5.39009 0
M  V30 3249 H 293.743 2.01013 -3.905 0
M  V30 3250 H 294.349 0.371173 -4.23677 0
M  V30 3251 N 292.664 1.56529 -0.183458 0
M  V30 3252 C 293.911 1.97244 0.458357 0
M  V30 3253 C 294.239 1.06992 1.62428 0
M  V30 3254 O 293.494 0.106542 1.9541 0
M  V30 3255 C 293.793 3.43939 0.971637 0
M  V30 3256 C 293.459 4.5083 -0.0796784 0
M  V30 3257 C 292.121 4.79786 -0.368584 0
M  V30 3258 C 294.473 5.15138 -0.792638 0
M  V30 3259 C 291.801 5.70345 -1.37563 0
M  V30 3260 C 294.153 6.06784 -1.78875 0
M  V30 3261 C 292.817 6.34102 -2.08497 0
M  V30 3262 H 292.087 0.721768 0.167725 0
M  V30 3263 H 294.734 1.89472 -0.277976 0
M  V30 3264 H 293.039 3.48724 1.78602 0
M  V30 3265 H 294.736 3.72791 1.47744 0
M  V30 3266 H 291.326 4.28317 0.155668 0
M  V30 3267 H 295.51 4.92868 -0.582659 0
M  V30 3268 H 290.766 5.89789 -1.61118 0
M  V30 3269 H 294.94 6.55677 -2.3465 0
M  V30 3270 H 292.567 7.04074 -2.86678 0
M  V30 3271 N 294.142 -0.090211 1.57342 0
M  V30 3272 C 295.419 -0.824761 1.77361 0
M  V30 3273 C 295.799 -1.96698 0.76637 0
M  V30 3274 O 295.147 -2.27586 -0.204179 0
M  V30 3275 C 295.357 -1.31481 3.23286 0
M  V30 3276 C 296.705 -1.75563 3.86604 0
M  V30 3277 O 297.729 -1.41093 3.27065 0
M  V30 3278 O 296.588 -2.39317 4.91314 0
M  V30 3279 H 293.682 -0.393776 0.727234 0
M  V30 3280 H 296.228 -0.0717138 1.69548 0
M  V30 3281 H 295 -0.496671 3.88135 0
M  V30 3282 H 294.623 -2.12973 3.35751 0
M  V30 3283 N 295.62 -1.53406 -0.361157 0
M  V30 3284 C 296.567 -1.80156 -1.44265 0
M  V30 3285 C 297.537 -0.646183 -1.53015 0
M  V30 3286 O 298.722 -0.888818 -1.68833 0
M  V30 3287 C 295.862 -2.00116 -2.81154 0
M  V30 3288 C 294.975 -3.27833 -2.81335 0
M  V30 3289 C 294.11 -3.37957 -4.09828 0
M  V30 3290 C 293.149 -4.59689 -4.04168 0
M  V30 3291 N 292.286 -4.66942 -5.24318 0
M  V30 3292 H 297.126 -2.72438 -1.20754 0
M  V30 3293 H 294.663 -1.34954 -0.585296 0
M  V30 3294 H 296.621 -2.09677 -3.60682 0
M  V30 3295 H 295.251 -1.11167 -3.03054 0
M  V30 3296 H 294.303 -3.27204 -1.94014 0
M  V30 3297 H 295.615 -4.17442 -2.73027 0
M  V30 3298 H 294.769 -3.46853 -4.97773 0
M  V30 3299 H 293.508 -2.46372 -4.20894 0
M  V30 3300 H 292.513 -4.50889 -3.14609 0
M  V30 3301 H 293.738 -5.5262 -3.947 0
M  V30 3302 H 291.684 -3.7826 -5.35962 0
M  V30 3303 H 291.601 -5.50462 -5.18197 0
M  V30 3304 H 292.869 -4.80127 -6.14084 0
M  V30 3305 N 297.098 0.621204 -1.44841 0
M  V30 3306 C 298.346 1.37783 -1.47852 0
M  V30 3307 C 298.667 1.94653 -0.116224 0
M  V30 3308 O 297.937 1.76367 0.852737 0
M  V30 3309 H 296.517 0.511453 -0.544449 0
M  V30 3310 H 299.179 0.730446 -1.80694 0
M  V30 3311 H 298.275 2.20414 -2.20961 0
M  V30 3312 N 298.576 1.31904 0.862503 0
M  V30 3313 C 299.822 1.22197 1.61851 0
M  V30 3314 C 300.155 -0.217641 1.92977 0
M  V30 3315 O 299.43 -1.15264 1.56666 0
M  V30 3316 C 299.713 2.07378 2.94391 0
M  V30 3317 C 299.566 3.59678 2.70096 0
M  V30 3318 C 300.885 1.92891 3.95577 0
M  V30 3319 H 298.004 0.445255 0.587296 0
M  V30 3320 H 300.646 1.6177 0.99651 0
M  V30 3321 H 298.796 1.73758 3.47477 0
M  V30 3322 H 300.468 4.03472 2.23625 0
M  V30 3323 H 298.711 3.82735 2.04197 0
M  V30 3324 H 299.382 4.14595 3.64438 0
M  V30 3325 H 301.858 2.22327 3.51724 0
M  V30 3326 H 300.734 2.54781 4.86187 0
M  V30 3327 H 300.995 0.894315 4.3296 0
M  V30 3328 N 300.054 -1.07777 1.14986 0
M  V30 3329 C 301.017 -2.13041 0.845358 0
M  V30 3330 C 302.017 -1.60071 -0.152931 0
M  V30 3331 O 303.207 -1.74033 0.0761879 0
M  V30 3332 C 300.339 -3.39896 0.261383 0
M  V30 3333 H 301.532 -2.41485 1.77834 0
M  V30 3334 H 299.085 -1.23595 0.956757 0
M  V30 3335 H 299.82 -3.17091 -0.68 0
M  V30 3336 H 299.605 -3.79642 0.980514 0
M  V30 3337 H 301.095 -4.17548 0.0657687 0
M  V30 3338 N 301.532 -0.945985 -1.26051 0
M  V30 3339 C 302.479 -0.45809 -2.26208 0
M  V30 3340 C 303.449 0.484816 -1.58867 0
M  V30 3341 O 304.634 0.399969 -1.86561 0
M  V30 3342 C 301.774 0.266131 -3.44072 0
M  V30 3343 C 300.887 -0.713005 -4.26075 0
M  V30 3344 C 300.022 0.0329013 -5.3119 0
M  V30 3345 C 299.061 -0.93774 -6.04874 0
M  V30 3346 N 298.198 -0.223274 -7.01745 0
M  V30 3347 H 303.038 -1.3171 -2.67313 0
M  V30 3348 H 300.575 -0.66069 -1.31428 0
M  V30 3349 H 302.533 0.702514 -4.11243 0
M  V30 3350 H 301.163 1.08925 -3.03867 0
M  V30 3351 H 300.215 -1.26789 -3.58648 0
M  V30 3352 H 301.527 -1.45406 -4.77136 0
M  V30 3353 H 300.681 0.528335 -6.04395 0
M  V30 3354 H 299.42 0.806801 -4.8098 0
M  V30 3355 H 298.425 -1.44425 -5.30492 0
M  V30 3356 H 299.65 -1.71172 -6.57173 0
M  V30 3357 H 297.596 0.532046 -6.53839 0
M  V30 3358 H 297.513 -0.90357 -7.50581 0
M  V30 3359 H 298.781 0.250907 -7.79096 0
M  V30 3360 N 303.011 1.40521 -0.713556 0
M  V30 3361 C 303.958 2.30723 -0.059684 0
M  V30 3362 C 304.928 1.48079 0.752448 0
M  V30 3363 O 306.113 1.76823 0.71681 0
M  V30 3364 C 303.253 3.34274 0.857594 0
M  V30 3365 C 302.366 4.31986 0.0351536 0
M  V30 3366 C 301.501 5.22605 0.951724 0
M  V30 3367 C 300.54 6.11976 0.123253 0
M  V30 3368 N 299.677 6.9502 0.99459 0
M  V30 3369 H 304.517 2.86074 -0.834596 0
M  V30 3370 H 302.054 1.40879 -0.42326 0
M  V30 3371 H 304.012 3.92879 1.40364 0
M  V30 3372 H 302.642 2.8043 1.59871 0
M  V30 3373 H 301.694 3.7518 -0.628052 0
M  V30 3374 H 303.006 4.95101 -0.606347 0
M  V30 3375 H 302.16 5.86131 1.56638 0
M  V30 3376 H 300.899 4.59759 1.62705 0
M  V30 3377 H 299.904 5.47482 -0.50435 0
M  V30 3378 H 301.129 6.76881 -0.548539 0
M  V30 3379 H 299.075 6.34764 1.6556 0
M  V30 3380 H 298.992 7.54892 0.40908 0
M  V30 3381 H 300.26 7.62997 1.59549 0
M  V30 3382 N 304.489 0.459591 1.5075 0
M  V30 3383 C 305.419 -0.330644 2.31147 0
M  V30 3384 C 306.4 -1.00087 1.37538 0
M  V30 3385 O 307.585 -1.00025 1.66459 0
M  V30 3386 C 304.715 -1.41958 3.16962 0
M  V30 3387 C 303.669 -0.871608 4.19031 0
M  V30 3388 C 302.995 -2.05797 4.9351 0
M  V30 3389 C 304.295 0.109251 5.22186 0
M  V30 3390 H 305.989 0.340336 2.97459 0
M  V30 3391 H 303.535 0.165119 1.4305 0
M  V30 3392 H 305.488 -1.9798 3.71997 0
M  V30 3393 H 304.212 -2.11917 2.48513 0
M  V30 3394 H 302.871 -0.333442 3.6508 0
M  V30 3395 H 302.519 -2.74427 4.21544 0
M  V30 3396 H 302.219 -1.6976 5.62544 0
M  V30 3397 H 303.743 -2.62331 5.51375 0
M  V30 3398 H 305.157 -0.361405 5.7216 0
M  V30 3399 H 303.554 0.383316 5.98875 0
M  V30 3400 H 304.624 1.03887 4.73641 0
M  V30 3401 N 305.967 -1.56429 0.191757 0
M  V30 3402 C 307.192 -2.02309 -0.456706 0
M  V30 3403 C 307.617 -1.07103 -1.5463 0
M  V30 3404 O 306.975 -0.0539677 -1.8122 0
M  V30 3405 C 307.023 -3.46654 -0.993159 0
M  V30 3406 O 306.127 -3.54559 -2.10622 0
M  V30 3407 H 305.468 -0.655303 -0.107114 0
M  V30 3408 H 307.998 -2.02364 0.301653 0
M  V30 3409 H 308.008 -3.86377 -1.31061 0
M  V30 3410 H 306.683 -4.1544 -0.195504 0
M  V30 3411 H 305.26 -3.26708 -1.79767 0
M  V30 3412 N 307.445 0.0818655 -1.57387 0
M  V30 3413 C 308.375 1.09885 -2.06028 0
M  V30 3414 C 309.356 1.4098 -0.951774 0
M  V30 3415 O 310.541 1.50781 -1.22387 0
M  V30 3416 C 307.671 2.4151 -2.4958 0
M  V30 3417 C 306.625 2.24792 -3.64215 0
M  V30 3418 C 305.951 3.61712 -3.93787 0
M  V30 3419 C 307.251 1.67749 -4.94629 0
M  V30 3420 H 308.945 0.694128 -2.91243 0
M  V30 3421 H 306.491 0.332448 -1.4011 0
M  V30 3422 H 308.444 3.12939 -2.82219 0
M  V30 3423 H 307.168 2.83943 -1.61381 0
M  V30 3424 H 305.827 1.55807 -3.31843 0
M  V30 3425 H 305.475 4.01697 -3.02735 0
M  V30 3426 H 305.175 3.51368 -4.70971 0
M  V30 3427 H 306.699 4.34587 -4.28913 0
M  V30 3428 H 308.113 2.29032 -5.25564 0
M  V30 3429 H 306.51 1.68128 -5.76067 0
M  V30 3430 H 307.58 0.638059 -4.80684 0
M  V30 3431 N 308.923 1.53595 0.353017 0
M  V30 3432 C 309.87 1.80919 1.43308 0
M  V30 3433 C 310.84 0.654288 1.5267 0
M  V30 3434 O 312.025 0.897759 1.6836 0
M  V30 3435 C 309.165 2.01605 2.80089 0
M  V30 3436 C 308.278 3.29321 2.79593 0
M  V30 3437 C 307.413 3.40125 4.0803 0
M  V30 3438 C 306.452 4.61826 4.01725 0
M  V30 3439 N 305.589 4.69716 5.21834 0
M  V30 3440 H 310.429 2.73074 1.19308 0
M  V30 3441 H 307.966 1.35263 0.578131 0
M  V30 3442 H 309.924 2.11586 3.59565 0
M  V30 3443 H 308.554 1.12772 3.0246 0
M  V30 3444 H 307.606 3.28229 1.92276 0
M  V30 3445 H 308.918 4.18884 2.70809 0
M  V30 3446 H 308.072 3.49488 4.95927 0
M  V30 3447 H 306.811 2.48601 4.19582 0
M  V30 3448 H 305.816 4.52552 3.12213 0
M  V30 3449 H 307.041 5.54705 3.91764 0
M  V30 3450 H 304.987 3.81097 5.33948 0
M  V30 3451 H 304.904 5.53202 5.1527 0
M  V30 3452 H 306.172 4.83376 6.11529 0
M  V30 3453 N 310.401 -0.613514 1.45168 0
M  V30 3454 C 311.334 -1.73809 1.47871 0
M  V30 3455 C 312.312 -1.59097 0.33568 0
M  V30 3456 O 313.496 -1.8074 0.535299 0
M  V30 3457 C 310.623 -3.11574 1.32813 0
M  V30 3458 C 309.669 -3.4489 2.50905 0
M  V30 3459 S 310.502 -3.40393 4.13392 0
M  V30 3460 C 311.658 -4.80749 4.00789 0
M  V30 3461 H 311.891 -1.71252 2.43023 0
M  V30 3462 H 309.424 -0.789658 1.32679 0
M  V30 3463 H 311.382 -3.91065 1.24812 0
M  V30 3464 H 310.043 -3.11652 0.391418 0
M  V30 3465 H 309.236 -4.45183 2.36279 0
M  V30 3466 H 308.838 -2.72901 2.55736 0
M  V30 3467 H 311.13 -5.7041 3.65567 0
M  V30 3468 H 312.073 -5.00431 5.00974 0
M  V30 3469 H 312.481 -4.56151 3.32545 0
M  V30 3470 N 311.879 -1.3236 -0.855495 0
M  V30 3471 C 312.827 -1.2118 -1.9854 0
M  V30 3472 C 313.821 -0.116788 -1.68997 0
M  V30 3473 O 315.027 -0.279657 -1.77814 0
M  V30 3474 H 311.402 -0.375608 -0.651477 0
M  V30 3475 H 313.373 -2.16743 -2.05098 0
M  V30 3476 C 312.122 -0.950849 -3.34446 0
M  V30 3477 H 311.445 -1.78563 -3.57708 0
M  V30 3478 H 312.885 -0.912863 -4.14057 0
M  V30 3479 C 311.344 0.346404 -3.35114 0
M  V30 3480 O 311.874 1.35855 -3.7803 0
M  V30 3481 N 310.08 0.36808 -2.88259 0
M  V30 3482 H 309.627 -0.456102 -2.5353 0
M  V30 3483 H 309.585 1.23591 -2.89089 0
M  V30 3484 N 313.357 1.07166 -1.15556 0
M  V30 3485 C 314.267 2.17947 -0.868116 0
M  V30 3486 C 315.283 1.73297 0.156297 0
M  V30 3487 O 316.459 2.01392 -0.0182327 0
M  V30 3488 C 313.524 3.44789 -0.36355 0
M  V30 3489 C 312.585 4.03996 -1.45209 0
M  V30 3490 C 311.818 5.24783 -0.971508 0
M  V30 3491 O 312.041 5.70109 0.182194 0
M  V30 3492 O 310.975 5.75715 -1.75603 0
M  V30 3493 H 314.801 2.4503 -1.79427 0
M  V30 3494 H 312.386 1.16539 -0.934824 0
M  V30 3495 H 314.268 4.21307 -0.0887113 0
M  V30 3496 H 312.943 3.19253 0.534708 0
M  V30 3497 H 311.85 3.29009 -1.78056 0
M  V30 3498 H 313.183 4.33808 -2.32533 0
M  V30 3499 N 314.835 0.952656 1.25548 0
M  V30 3500 C 316.081 0.607272 1.93494 0
M  V30 3501 C 316.414 -0.853245 1.74452 0
M  V30 3502 O 315.689 -1.61194 1.08843 0
M  V30 3503 C 315.972 0.96435 3.46947 0
M  V30 3504 C 315.825 2.48045 3.75225 0
M  V30 3505 C 317.144 0.487987 4.37386 0
M  V30 3506 H 314.263 0.222096 0.702739 0
M  V30 3507 H 316.905 1.18895 1.48203 0
M  V30 3508 H 315.055 0.469361 3.85654 0
M  V30 3509 H 316.727 3.04905 3.46166 0
M  V30 3510 H 314.97 2.919 3.209 0
M  V30 3511 H 315.641 2.6808 4.82532 0
M  V30 3512 H 318.117 0.912558 4.0597 0
M  V30 3513 H 316.993 0.766547 5.43521 0
M  V30 3514 H 317.254 -0.612063 4.37843 0
M  V30 3515 N 316.313 -1.40141 0.720998 0
M  V30 3516 C 317.59 -1.94677 0.189757 0
M  V30 3517 C 317.97 -1.65879 -1.30566 0
M  V30 3518 O 317.318 -0.979391 -2.06447 0
M  V30 3519 C 317.528 -3.45279 0.508304 0
M  V30 3520 C 318.876 -4.22209 0.449934 0
M  V30 3521 O 319.9 -3.53413 0.444677 0
M  V30 3522 O 318.759 -5.44788 0.432189 0
M  V30 3523 H 315.853 -0.826459 0.0299026 0
M  V30 3524 H 318.399 -1.49719 0.7989 0
M  V30 3525 H 317.171 -3.59619 1.54239 0
M  V30 3526 H 316.794 -3.97386 -0.130525 0
M  V30 3527 N 317.792 -0.46758 -1.50504 0
M  V30 3528 C 319.039 0.0886219 -2.02306 0
M  V30 3529 C 319.367 1.40037 -1.34981 0
M  V30 3530 O 318.622 1.90136 -0.463318 0
M  V30 3531 C 318.921 0.323995 -3.55928 0
M  V30 3532 C 318.587 -0.905618 -4.41712 0
M  V30 3533 C 317.249 -1.24275 -4.64875 0
M  V30 3534 C 319.601 -1.72448 -4.91845 0
M  V30 3535 C 316.929 -2.39888 -5.35417 0
M  V30 3536 C 319.281 -2.87185 -5.63656 0
M  V30 3537 C 317.945 -3.21317 -5.85074 0
M  V30 3538 H 317.215 0.0324291 -0.74029 0
M  V30 3539 H 319.862 -0.620945 -1.81153 0
M  V30 3540 H 318.167 1.11577 -3.75577 0
M  V30 3541 H 319.864 0.76826 -3.93572 0
M  V30 3542 H 316.454 -0.632956 -4.239 0
M  V30 3543 H 320.638 -1.4772 -4.73806 0
M  V30 3544 H 315.894 -2.66611 -5.50208 0
M  V30 3545 H 320.068 -3.50985 -6.01484 0
M  V30 3546 H 317.695 -4.1101 -6.39511 0
M  V30 3547 N 319.27 1.56325 -0.20005 0
M  V30 3548 C 320.5 2.01811 0.442232 0
M  V30 3549 C 320.908 1.07932 1.55394 0
M  V30 3550 O 320.251 0.0772685 1.83537 0
M  V30 3551 C 320.313 3.43685 1.05457 0
M  V30 3552 C 319.977 4.56928 0.0809833 0
M  V30 3553 C 320.974 5.15009 -0.711471 0
M  V30 3554 C 318.659 5.0229 -0.0315364 0
M  V30 3555 C 320.653 6.16904 -1.60336 0
M  V30 3556 C 318.34 6.04028 -0.926981 0
M  V30 3557 C 319.338 6.6121 -1.71146 0
M  V30 3558 O 319.026 7.60971 -2.59189 0
M  V30 3559 H 318.758 0.666173 0.114848 0
M  V30 3560 H 321.312 2.03085 -0.307511 0
M  V30 3561 H 319.542 3.39413 1.85299 0
M  V30 3562 H 321.231 3.72948 1.60201 0
M  V30 3563 H 321.997 4.80827 -0.634873 0
M  V30 3564 H 317.876 4.57476 0.568902 0
M  V30 3565 H 321.42 6.61464 -2.21611 0
M  V30 3566 H 317.317 6.37634 -1.00468 0
M  V30 3567 H 318.085 7.7841 -2.53023 0
M  V30 3568 N 320.748 -0.0735177 1.57428 0
M  V30 3569 C 321.658 -1.10547 2.06922 0
M  V30 3570 C 322.674 -1.42506 0.998402 0
M  V30 3571 O 323.85 -1.52717 1.31299 0
M  V30 3572 C 320.915 -2.40019 2.50184 0
M  V30 3573 C 319.976 -2.15046 3.71556 0
M  V30 3574 C 319.209 -3.38345 4.12745 0
M  V30 3575 O 319.432 -4.47399 3.53822 0
M  V30 3576 O 318.366 -3.2666 5.05546 0
M  V30 3577 H 322.192 -0.715013 2.95163 0
M  V30 3578 H 319.777 -0.287531 1.46607 0
M  V30 3579 H 321.659 -3.16218 2.78539 0
M  V30 3580 H 320.334 -2.78447 1.65072 0
M  V30 3581 H 319.241 -1.36558 3.48285 0
M  V30 3582 H 320.574 -1.81499 4.57514 0
M  V30 3583 N 322.226 -1.5378 -0.344866 0
M  V30 3584 C 323.637 -1.62428 -0.920552 0
M  V30 3585 C 323.988 -0.504747 -1.89596 0
M  V30 3586 O 323.113 0.365711 -2.13287 0
M  V30 3587 C 323.708 -2.94419 -1.67639 0
M  V30 3588 C 322.267 -3.05333 -2.20111 0
M  V30 3589 C 321.414 -2.57866 -1.01982 0
M  V30 3590 H 324.365 -1.58222 -0.123042 0
M  V30 3591 H 324.386 -2.83384 -2.53917 0
M  V30 3592 H 323.898 -3.7588 -0.966224 0
M  V30 3593 H 321.999 -2.28502 -2.94308 0
M  V30 3594 H 322.112 -4.10778 -2.46573 0
M  V30 3595 H 320.476 -2.13241 -1.39285 0
M  V30 3596 H 321.259 -3.41765 -0.324308 0
M  V30 3597 N 323.704 0.605807 -1.45491 0
M  V30 3598 C 324.951 1.36476 -1.49601 0
M  V30 3599 C 325.279 1.94007 -0.138452 0
M  V30 3600 O 324.534 1.75638 0.863114 0
M  V30 3601 C 324.833 2.53012 -2.52428 0
M  V30 3602 C 324.499 2.13617 -3.97087 0
M  V30 3603 C 323.161 2.02587 -4.36477 0
M  V30 3604 C 325.513 1.82899 -4.88055 0
M  V30 3605 C 322.841 1.59064 -5.64726 0
M  V30 3606 C 325.193 1.40861 -6.16718 0
M  V30 3607 C 323.857 1.28391 -6.55036 0
M  V30 3608 H 323.127 0.499402 -0.547429 0
M  V30 3609 H 325.774 0.684546 -1.78847 0
M  V30 3610 H 324.079 3.26379 -2.16758 0
M  V30 3611 H 325.776 3.1124 -2.52845 0
M  V30 3612 H 322.366 2.23129 -3.65939 0
M  V30 3613 H 326.55 1.90317 -4.58359 0
M  V30 3614 H 321.806 1.48034 -5.93208 0
M  V30 3615 H 325.98 1.16138 -6.86648 0
M  V30 3616 H 323.607 0.944403 -7.54311 0
M  V30 3617 N 325.182 1.32811 0.848464 0
M  V30 3618 C 326.115 1.16601 1.96162 0
M  V30 3619 C 327.093 0.0638855 1.62474 0
M  V30 3620 O 328.277 0.224348 1.8716 0
M  V30 3621 C 325.404 0.786333 3.29446 0
M  V30 3622 C 324.45 1.89459 3.8211 0
M  V30 3623 S 325.283 3.50395 4.04949 0
M  V30 3624 C 326.439 3.14413 5.41198 0
M  V30 3625 H 326.672 2.10832 2.09612 0
M  V30 3626 H 324.205 1.17543 1.00115 0
M  V30 3627 H 326.163 0.574044 4.06466 0
M  V30 3628 H 324.824 -0.137218 3.138 0
M  V30 3629 H 324.017 1.58207 4.78526 0
M  V30 3630 H 323.619 2.06304 3.11953 0
M  V30 3631 H 325.911 2.64642 6.23675 0
M  V30 3632 H 326.854 4.09874 5.77416 0
M  V30 3633 H 327.262 2.51266 5.05495 0
M  V30 3634 N 326.66 -1.06551 1.16123 0
M  V30 3635 C 327.937 -1.76097 0.85142 0
M  V30 3636 C 328.317 -2.00802 -0.6513 0
M  V30 3637 O 327.665 -1.63302 -1.59827 0
M  V30 3638 C 327.875 -3.06384 1.67122 0
M  V30 3639 C 329.223 -3.80585 1.88255 0
M  V30 3640 O 330.247 -3.16218 1.63966 0
M  V30 3641 O 329.106 -4.96212 2.2899 0
M  V30 3642 H 326.2 -0.765102 0.313923 0
M  V30 3643 H 328.746 -1.12844 1.26745 0
M  V30 3644 H 327.518 -2.84071 2.69108 0
M  V30 3645 H 327.141 -3.77371 1.25206 0
M  V30 3646 N 328.138 -0.959301 -1.25041 0
M  V30 3647 C 329.048 -0.489994 -2.29426 0
M  V30 3648 C 330.064 0.444944 -1.68215 0
M  V30 3649 O 331.24 0.320046 -1.98841 0
M  V30 3650 C 328.305 0.220309 -3.45999 0
M  V30 3651 C 327.366 -0.753418 -4.22637 0
M  V30 3652 C 326.599 -0.076918 -5.33645 0
M  V30 3653 O 326.822 1.13649 -5.58963 0
M  V30 3654 O 325.756 -0.764824 -5.97021 0
M  V30 3655 H 329.582 -1.35755 -2.71669 0
M  V30 3656 H 327.167 -0.725961 -1.30576 0
M  V30 3657 H 329.049 0.619677 -4.16819 0
M  V30 3658 H 327.724 1.06296 -3.0575 0
M  V30 3659 H 326.631 -1.20308 -3.54227 0
M  V30 3660 H 327.964 -1.56423 -4.66683 0
M  V30 3661 N 329.616 1.39756 -0.72842 0
M  V30 3662 C 331.027 1.83498 -0.344289 0
M  V30 3663 C 331.378 1.60868 1.12321 0
M  V30 3664 O 330.503 1.09634 1.86573 0
M  V30 3665 C 331.098 3.33114 -0.618112 0
M  V30 3666 C 329.657 3.753 -0.287549 0
M  V30 3667 C 328.804 2.62831 -0.884048 0
M  V30 3668 H 331.755 1.28842 -0.926578 0
M  V30 3669 H 331.776 3.80334 0.112349 0
M  V30 3670 H 331.288 3.49553 -1.68625 0
M  V30 3671 H 329.389 3.64451 0.775012 0
M  V30 3672 H 329.502 4.72945 -0.765512 0
M  V30 3673 H 327.866 2.52792 -0.311149 0
M  V30 3674 H 328.649 2.82078 -1.95671 0
M  V30 3675 N 331.094 0.475555 1.50254 0
M  V30 3676 C 332.343 -0.0795996 2.01543 0
M  V30 3677 C 332.656 -1.4038 1.36209 0
M  V30 3678 O 333.862 -2.04415 1.7868 0
M  V30 3679 C 332.318 -0.192363 3.59386 0
M  V30 3680 C 331.926 1.12367 4.33679 0
M  V30 3681 C 333.67 -0.699238 4.18701 0
M  V30 3682 C 331.577 0.974453 5.83317 0
M  V30 3683 H 330.507 -0.0335228 0.753254 0
M  V30 3684 H 333.158 0.611128 1.73025 0
M  V30 3685 H 331.54 -0.946974 3.84511 0
M  V30 3686 H 332.714 1.88958 4.20276 0
M  V30 3687 H 331.029 1.562 3.85993 0
M  V30 3688 H 333.626 -0.827978 5.28251 0
M  V30 3689 H 333.969 -1.69171 3.80377 0
M  V30 3690 H 334.502 -0.00188807 3.978 0
M  V30 3691 H 331.241 1.94042 6.26121 0
M  V30 3692 H 330.761 0.248998 5.99283 0
M  V30 3693 H 332.44 0.642867 6.43798 0
M  V30 3694 N 332.573 -1.56217 0.208337 0
M  V30 3695 C 333.536 -2.18455 -0.693557 0
M  V30 3696 C 334.536 -1.14268 -1.13135 0
M  V30 3697 O 335.726 -1.39577 -1.0423 0
M  V30 3698 C 332.858 -2.79727 -1.94848 0
M  V30 3699 H 334.051 -2.99519 -0.15114 0
M  V30 3700 H 331.604 -1.56245 -0.041287 0
M  V30 3701 H 332.339 -2.02497 -2.53309 0
M  V30 3702 H 332.124 -3.56009 -1.64316 0
M  V30 3703 H 333.614 -3.27475 -2.59133 0
M  V30 3704 N 334.051 0.0651679 -1.57465 0
M  V30 3705 C 335.3 0.761916 -1.86756 0
M  V30 3706 C 335.613 1.78406 -0.801925 0
M  V30 3707 O 336.819 2.53084 -0.982885 0
M  V30 3708 C 335.275 1.40603 -3.31299 0
M  V30 3709 C 334.883 0.422115 -4.46007 0
M  V30 3710 C 336.627 2.08476 -3.69781 0
M  V30 3711 C 334.534 1.07252 -5.81593 0
M  V30 3712 H 333.464 0.288308 -0.696702 0
M  V30 3713 H 336.115 0.015344 -1.83494 0
M  V30 3714 H 334.497 2.20109 -3.29193 0
M  V30 3715 H 335.671 -0.343613 -4.59517 0
M  V30 3716 H 333.986 -0.152527 -4.16121 0
M  V30 3717 H 336.583 2.57925 -4.68379 0
M  V30 3718 H 336.926 2.88712 -2.99919 0
M  V30 3719 H 337.459 1.35792 -3.73905 0
M  V30 3720 H 334.198 0.310342 -6.54765 0
M  V30 3721 H 333.718 1.80895 -5.71872 0
M  V30 3722 H 335.397 1.59043 -6.27148 0
M  V30 3723 N 335.529 1.53961 0.336706 0
M  V30 3724 C 336.94 1.62914 0.911925 0
M  V30 3725 C 337.291 0.514795 1.89326 0
M  V30 3726 O 336.416 -0.354395 2.13478 0
M  V30 3727 C 337.011 2.95304 1.66076 0
M  V30 3728 C 335.57 3.06496 2.18489 0
M  V30 3729 C 334.717 2.58403 1.00613 0
M  V30 3730 H 337.668 1.58285 0.114649 0
M  V30 3731 H 337.689 2.84727 2.5241 0
M  V30 3732 H 337.201 3.76387 0.946276 0
M  V30 3733 H 335.302 2.3006 2.93092 0
M  V30 3734 H 335.415 4.1208 2.44391 0
M  V30 3735 H 333.779 2.13977 1.38152 0
M  V30 3736 H 334.562 3.41932 0.306179 0
M  V30 3737 N 337.007 -0.598083 1.45811 0
M  V30 3738 C 337.955 -1.72932 1.55555 0
M  V30 3739 C 338.949 -1.63984 0.424921 0
M  V30 3740 O 340.155 -1.69663 0.601205 0
M  V30 3741 H 336.53 -0.571489 0.488779 0
M  V30 3742 H 338.501 -1.61842 2.50699 0
M  V30 3743 C 337.25 -3.11318 1.54843 0
M  V30 3744 H 336.573 -3.18867 2.41172 0
M  V30 3745 H 338.013 -3.90274 1.65717 0
M  V30 3746 C 336.472 -3.3578 0.274427 0
M  V30 3747 O 337.002 -3.9654 -0.641778 0
M  V30 3748 N 335.208 -2.90119 0.167139 0
M  V30 3749 H 334.755 -2.40855 0.913596 0
M  V30 3750 H 334.713 -3.0686 -0.684435 0
M  V30 3751 N 338.485 -1.33259 -0.841409 0
M  V30 3752 C 339.432 -1.23302 -1.95103 0
M  V30 3753 C 340.402 -0.112204 -1.65721 0
M  V30 3754 O 341.587 -0.290038 -1.88583 0
M  V30 3755 C 338.727 -0.975583 -3.31023 0
M  V30 3756 C 337.84 -2.18243 -3.72819 0
M  V30 3757 C 336.975 -1.85936 -4.97595 0
M  V30 3758 C 336.014 -3.02866 -5.3192 0
M  V30 3759 N 335.151 -2.70565 -6.47873 0
M  V30 3760 H 339.991 -2.18207 -2.02952 0
M  V30 3761 H 337.528 -1.0851 -0.993173 0
M  V30 3762 H 339.486 -0.80677 -4.09325 0
M  V30 3763 H 338.116 -0.0632755 -3.22738 0
M  V30 3764 H 337.168 -2.46107 -2.90061 0
M  V30 3765 H 338.48 -3.05666 -3.94169 0
M  V30 3766 H 337.634 -1.65684 -5.83638 0
M  V30 3767 H 336.373 -0.957452 -4.78209 0
M  V30 3768 H 335.378 -3.23736 -4.44382 0
M  V30 3769 H 336.603 -3.93809 -5.53255 0
M  V30 3770 H 334.549 -1.8293 -6.29978 0
M  V30 3771 H 334.466 -3.51519 -6.69306 0
M  V30 3772 H 335.734 -2.53774 -7.37034 0
M  V30 3773 N 339.963 1.05934 -1.16686 0
M  V30 3774 C 341.374 1.60263 -0.957745 0
M  V30 3775 C 341.725 1.89789 0.49745 0
M  V30 3776 O 340.85 1.67401 1.37135 0
M  V30 3777 C 341.445 2.91172 -1.73218 0
M  V30 3778 C 340.004 3.42188 -1.56794 0
M  V30 3779 C 339.151 2.16028 -1.73859 0
M  V30 3780 H 342.102 0.888392 -1.31504 0
M  V30 3781 H 342.123 3.60744 -1.21014 0
M  V30 3782 H 341.635 2.6965 -2.79124 0
M  V30 3783 H 339.736 3.68762 -0.533437 0
M  V30 3784 H 339.849 4.17273 -2.35414 0
M  V30 3785 H 338.213 2.26426 -1.16633 0
M  V30 3786 H 338.996 1.96985 -2.81161 0
M  V30 3787 N 341.441 0.965919 1.2453 0
M  V30 3788 C 342.671 0.643451 1.96324 0
M  V30 3789 C 343.079 -0.790927 1.71875 0
M  V30 3790 O 342.422 -1.54208 0.998273 0
M  V30 3791 C 342.484 0.836078 3.49643 0
M  V30 3792 C 342.148 2.24975 3.97788 0
M  V30 3793 C 343.145 3.22735 4.07601 0
M  V30 3794 C 340.83 2.57697 4.31158 0
M  V30 3795 C 342.824 4.51303 4.50116 0
M  V30 3796 C 340.511 3.86492 4.73357 0
M  V30 3797 C 341.509 4.83107 4.828 0
M  V30 3798 O 341.197 6.09605 5.24058 0
M  V30 3799 H 340.929 0.239223 0.632257 0
M  V30 3800 H 343.483 1.29587 1.59362 0
M  V30 3801 H 341.713 0.12649 3.86493 0
M  V30 3802 H 343.402 0.512965 4.02646 0
M  V30 3803 H 344.168 2.98783 3.82039 0
M  V30 3804 H 340.047 1.83216 4.23028 0
M  V30 3805 H 343.591 5.26716 4.57401 0
M  V30 3806 H 339.488 4.10245 4.98366 0
M  V30 3807 H 340.256 6.13146 5.42213 0
M  V30 3808 N 342.919 -1.39368 0.735821 0
M  V30 3809 C 344.147 -2.04795 0.294393 0
M  V30 3810 C 344.562 -1.55478 -1.07107 0
M  V30 3811 O 343.919 -0.720038 -1.67695 0
M  V30 3812 C 343.97 -3.6035 0.288071 0
M  V30 3813 O 343.691 -4.07852 1.59963 0
M  V30 3814 C 345.192 -4.42976 -0.169422 0
M  V30 3815 H 342.412 -0.658571 0.128551 0
M  V30 3816 H 344.956 -1.78399 0.999701 0
M  V30 3817 H 343.111 -3.85645 -0.368355 0
M  V30 3818 H 343.525 -5.02181 1.51375 0
M  V30 3819 H 344.999 -5.51864 -0.122687 0
M  V30 3820 H 345.476 -4.22068 -1.21472 0
M  V30 3821 H 346.082 -4.22832 0.457469 0
M  V30 3822 N 344.397 -0.483516 -1.5 0
M  V30 3823 C 345.307 0.309172 -2.32554 0
M  V30 3824 C 346.323 0.984159 -1.43493 0
M  V30 3825 O 347.499 0.969399 -1.76535 0
M  V30 3826 C 344.564 1.36979 -3.18493 0
M  V30 3827 C 343.625 0.710095 -4.23387 0
M  V30 3828 C 342.858 1.72018 -5.05218 0
M  V30 3829 O 343.081 2.94813 -4.88305 0
M  V30 3830 O 342.015 1.28515 -5.8802 0
M  V30 3831 H 345.841 -0.366064 -3.01486 0
M  V30 3832 H 343.426 -0.24514 -1.47375 0
M  V30 3833 H 345.308 1.98385 -3.71781 0
M  V30 3834 H 343.983 2.02828 -2.52275 0
M  V30 3835 H 342.89 0.0567539 -3.74057 0
M  V30 3836 H 344.223 0.0943557 -4.9211 0
M  V30 3837 N 345.875 1.56104 -0.216619 0
M  V30 3838 C 346.785 2.23694 0.706982 0
M  V30 3839 C 347.801 1.24295 1.21765 0
M  V30 3840 O 348.977 1.57094 1.2603 0
M  V30 3841 C 346.042 2.8998 1.90033 0
M  V30 3842 C 345.103 4.04708 1.43213 0
M  V30 3843 C 344.336 4.67824 2.56859 0
M  V30 3844 O 344.559 4.29913 3.74874 0
M  V30 3845 O 343.493 5.56905 2.28343 0
M  V30 3846 H 347.319 3.03272 0.161235 0
M  V30 3847 H 344.904 1.49394 0.0136177 0
M  V30 3848 H 346.786 3.31837 2.59735 0
M  V30 3849 H 345.461 2.13365 2.43428 0
M  V30 3850 H 344.368 3.6743 0.70327 0
M  V30 3851 H 345.701 4.83051 0.944615 0
M  V30 3852 N 347.353 -0.0568162 1.57498 0
M  V30 3853 C 348.263 -1.08346 2.08083 0
M  V30 3854 C 349.279 -1.41439 1.01346 0
M  V30 3855 O 350.455 -1.51316 1.32912 0
M  V30 3856 C 347.52 -2.37352 2.52715 0
M  V30 3857 C 346.581 -2.11093 3.73816 0
M  V30 3858 C 345.814 -3.33949 4.1631 0
M  V30 3859 O 346.037 -4.43622 3.58547 0
M  V30 3860 O 344.971 -3.21279 5.08983 0
M  V30 3861 H 348.797 -0.683667 2.95905 0
M  V30 3862 H 346.382 -0.271965 1.46904 0
M  V30 3863 H 348.264 -3.13246 2.81877 0
M  V30 3864 H 346.939 -2.76681 1.68016 0
M  V30 3865 H 345.846 -1.32856 3.49714 0
M  V30 3866 H 347.179 -1.76637 4.59413 0
M  V30 3867 N 348.832 -1.54138 -0.328536 0
M  V30 3868 C 349.762 -1.86167 -1.40939 0
M  V30 3869 C 350.743 -0.718044 -1.54202 0
M  V30 3870 O 351.928 -0.971328 -1.68163 0
M  V30 3871 C 349.058 -2.08461 -2.77779 0
M  V30 3872 C 348.012 -3.24299 -2.7931 0
M  V30 3873 C 347.338 -3.31955 -4.19178 0
M  V30 3874 C 348.638 -4.62065 -2.43502 0
M  V30 3875 H 350.332 -2.76689 -1.14383 0
M  V30 3876 H 347.878 -1.33132 -0.548806 0
M  V30 3877 H 349.831 -2.29453 -3.53454 0
M  V30 3878 H 348.555 -1.14684 -3.05802 0
M  V30 3879 H 347.214 -3.03187 -2.0609 0
M  V30 3880 H 346.862 -2.35745 -4.44335 0
M  V30 3881 H 346.562 -4.09805 -4.2111 0
M  V30 3882 H 348.086 -3.55175 -4.96672 0
M  V30 3883 H 349.5 -4.8297 -3.08889 0
M  V30 3884 H 347.897 -5.42429 -2.56693 0
M  V30 3885 H 348.967 -4.64652 -1.38659 0
M  V30 3886 N 350.31 0.590341 -1.46126 0
M  V30 3887 C 351.556 1.35082 -1.51264 0
M  V30 3888 C 351.889 1.93534 -0.160711 0
M  V30 3889 O 351.164 1.76045 0.826956 0
M  V30 3890 C 351.447 2.48588 -2.6053 0
M  V30 3891 C 351.3 1.95221 -4.05227 0
M  V30 3892 C 352.619 3.50662 -2.6594 0
M  V30 3893 H 349.738 0.489803 -0.550692 0
M  V30 3894 H 352.38 0.663887 -1.78024 0
M  V30 3895 H 350.53 3.07186 -2.37843 0
M  V30 3896 H 352.202 1.41139 -4.39178 0
M  V30 3897 H 350.445 1.26101 -4.15068 0
M  V30 3898 H 351.116 2.77121 -4.77397 0
M  V30 3899 H 353.592 3.01934 -2.86313 0
M  V30 3900 H 352.468 4.27551 -3.44226 0
M  V30 3901 H 352.729 4.07399 -1.71694 0
M  V30 3902 N 351.788 1.33704 0.83433 0
M  V30 3903 C 352.698 1.26382 1.97648 0
M  V30 3904 C 353.714 0.173548 1.73132 0
M  V30 3905 O 354.89 0.397962 1.97429 0
M  V30 3906 C 351.955 1.00769 3.31733 0
M  V30 3907 C 351.016 2.1884 3.69334 0
M  V30 3908 C 350.249 1.9444 4.9702 0
M  V30 3909 O 350.472 0.896961 5.63303 0
M  V30 3910 O 349.406 2.81093 5.32231 0
M  V30 3911 H 353.232 2.22444 2.06767 0
M  V30 3912 H 350.817 1.13795 0.968037 0
M  V30 3913 H 352.699 0.882186 4.12062 0
M  V30 3914 H 351.374 0.0773783 3.23608 0
M  V30 3915 H 350.281 2.36946 2.89495 0
M  V30 3916 H 351.614 3.10221 3.82131 0
M  V30 3917 N 353.266 -1.05314 1.17247 0
M  V30 3918 C 354.513 -1.78293 0.960091 0
M  V30 3919 C 354.841 -1.87658 -0.51136 0
M  V30 3920 O 354.096 -1.3718 -1.39571 0
M  V30 3921 C 354.395 -3.2229 1.54479 0
M  V30 3922 C 354.061 -3.32987 3.04024 0
M  V30 3923 C 352.723 -3.35613 3.44844 0
M  V30 3924 C 355.075 -3.34102 4.00031 0
M  V30 3925 C 352.403 -3.36982 4.8027 0
M  V30 3926 C 354.755 -3.3701 5.35357 0
M  V30 3927 C 353.419 -3.37923 5.75642 0
M  V30 3928 H 352.689 -0.652422 0.351322 0
M  V30 3929 H 355.336 -1.23782 1.46117 0
M  V30 3930 H 353.641 -3.7972 0.965391 0
M  V30 3931 H 355.338 -3.77376 1.35603 0
M  V30 3932 H 351.928 -3.31655 2.71483 0
M  V30 3933 H 356.112 -3.31276 3.69554 0
M  V30 3934 H 351.368 -3.35999 5.10798 0
M  V30 3935 H 355.542 -3.36822 6.09528 0
M  V30 3936 H 353.169 -3.38738 6.80559 0
M  V30 3937 N 354.744 -0.972509 -1.24016 0
M  V30 3938 C 355.99 -0.637978 -1.92504 0
M  V30 3939 C 356.323 0.825383 -1.75787 0
M  V30 3940 O 355.598 1.59442 -1.11393 0
M  V30 3941 C 355.881 -1.01942 -3.45369 0
M  V30 3942 C 355.734 -2.53983 -3.71231 0
M  V30 3943 C 357.053 -0.55751 -4.36555 0
M  V30 3944 H 354.172 -0.233248 -0.699117 0
M  V30 3945 H 356.814 -1.21238 -1.46292 0
M  V30 3946 H 354.964 -0.530656 -3.84859 0
M  V30 3947 H 356.636 -3.10374 -3.41271 0
M  V30 3948 H 354.879 -2.96968 -3.16216 0
M  V30 3949 H 355.55 -2.75723 -4.78206 0
M  V30 3950 H 358.026 -0.977029 -4.04467 0
M  V30 3951 H 356.902 -0.85292 -5.42233 0
M  V30 3952 H 357.163 0.542328 -4.38761 0
M  V30 3953 N 356.222 1.38976 -0.743202 0
M  V30 3954 C 357.169 2.30544 -0.10861 0
M  V30 3955 C 358.139 1.49642 0.720869 0
M  V30 3956 O 359.324 1.78304 0.679142 0
M  V30 3957 C 356.464 3.36018 0.786496 0
M  V30 3958 C 355.577 4.31963 -0.0564849 0
M  V30 3959 C 354.712 5.24506 0.840657 0
M  V30 3960 C 353.751 6.121 -0.00658363 0
M  V30 3961 N 352.888 6.96973 0.846943 0
M  V30 3962 H 357.728 2.8424 -0.895088 0
M  V30 3963 H 355.265 1.3995 -0.453048 0
M  V30 3964 H 357.223 3.95768 1.31999 0
M  V30 3965 H 355.853 2.83758 1.53887 0
M  V30 3966 H 354.905 3.73763 -0.707492 0
M  V30 3967 H 356.217 4.93703 -0.711229 0
M  V30 3968 H 355.371 5.89322 1.4417 0
M  V30 3969 H 354.11 4.63107 1.52916 0
M  V30 3970 H 353.115 5.46289 -0.620366 0
M  V30 3971 H 354.34 6.75565 -0.691992 0
M  V30 3972 H 352.286 6.38133 1.52059 0
M  V30 3973 H 352.203 7.5559 0.248864 0
M  V30 3974 H 353.471 7.6621 1.43328 0
M  V30 3975 N 357.7 0.491464 1.49741 0
M  V30 3976 C 358.61 -0.296835 2.32715 0
M  V30 3977 C 359.626 -0.976536 1.44013 0
M  V30 3978 O 360.802 -0.960023 1.77047 0
M  V30 3979 C 357.867 -1.35288 3.19215 0
M  V30 3980 C 356.928 -0.687632 4.23757 0
M  V30 3981 C 356.161 -1.69336 5.06123 0
M  V30 3982 O 356.384 -2.92219 4.89861 0
M  V30 3983 O 355.318 -1.25394 5.88693 0
M  V30 3984 H 359.144 0.382048 3.01287 0
M  V30 3985 H 356.729 0.252953 1.47243 0
M  V30 3986 H 358.611 -1.96411 3.72828 0
M  V30 3987 H 357.286 -2.01487 2.53347 0
M  V30 3988 H 356.193 -0.0369159 3.74082 0
M  V30 3989 H 357.526 -0.0682566 4.92153 0
M  V30 3990 N 359.178 -1.55987 0.224894 0
M  V30 3991 C 360.128 -2.17076 -0.697296 0
M  V30 3992 C 361.112 -1.12006 -1.15514 0
M  V30 3993 O 362.304 -1.37985 -1.10857 0
M  V30 3994 C 359.433 -2.85679 -1.90374 0
M  V30 3995 C 358.519 -3.97977 -1.46543 0
M  V30 3996 N 358.91 -5.00359 -0.739909 0
M  V30 3997 C 357.208 -4.10128 -1.75245 0
M  V30 3998 C 357.909 -5.79407 -0.515939 0
M  V30 3999 N 356.885 -5.32892 -1.07364 0
M  V30 4000 H 360.687 -2.93592 -0.134594 0
M  V30 4001 H 358.201 -1.62379 0.0262885 0
M  V30 4002 H 360.198 -3.27857 -2.57518 0
M  V30 4003 H 358.858 -2.1066 -2.47088 0
M  V30 4004 H 359.869 -5.16412 -0.392253 0
M  V30 4005 H 356.546 -3.46263 -2.33255 0
M  V30 4006 H 357.936 -6.71872 0.0617349 0
M  V30 4007 N 360.656 0.0484629 -1.57525 0
M  V30 4008 C 361.588 1.08222 -2.02041 0
M  V30 4009 C 362.601 1.33621 -0.930012 0
M  V30 4010 O 363.79 1.3145 -1.20761 0
M  V30 4011 C 360.89 2.42818 -2.36416 0
M  V30 4012 C 360.063 2.37049 -3.67596 0
M  V30 4013 C 359.122 3.53937 -3.89378 0
M  V30 4014 O 358.148 3.34308 -4.60681 0
M  V30 4015 N 359.35 4.75126 -3.3352 0
M  V30 4016 H 362.115 0.702946 -2.9134 0
M  V30 4017 H 359.676 0.236745 -1.6016 0
M  V30 4018 H 361.668 3.197 -2.48141 0
M  V30 4019 H 360.238 2.72661 -1.52888 0
M  V30 4020 H 359.458 1.45395 -3.66407 0
M  V30 4021 H 360.746 2.30318 -4.53686 0
M  V30 4022 H 360.144 4.93976 -2.75688 0
M  V30 4023 H 358.701 5.49439 -3.50656 0
M  V30 4024 N 362.134 1.5431 0.320358 0
M  V30 4025 C 363.55 1.45091 0.664889 0
M  V30 4026 C 363.75 0.626382 1.91517 0
M  V30 4027 O 362.806 0.126443 2.52183 0
M  V30 4028 C 364.119 2.88848 0.83591 0
M  V30 4029 C 365.667 2.9877 0.933046 0
M  V30 4030 C 366.142 4.43683 1.13621 0
M  V30 4031 N 367.633 4.47309 1.20287 0
M  V30 4032 C 368.368 5.56595 1.37801 0
M  V30 4033 N 367.864 6.75844 1.52338 0
M  V30 4034 N 369.657 5.44248 1.40535 0
M  V30 4035 H 361.808 2.06398 -0.501374 0
M  V30 4036 H 364.071 0.933963 -0.162534 0
M  V30 4037 H 363.777 3.51698 -0.0116092 0
M  V30 4038 H 363.651 3.35148 1.73078 0
M  V30 4039 H 366.038 2.36045 1.77107 0
M  V30 4040 H 366.119 2.55796 0.0145782 0
M  V30 4041 H 365.763 5.06995 0.303032 0
M  V30 4042 H 365.693 4.84269 2.0686 0
M  V30 4043 H 368.184 3.61388 1.10485 0
M  V30 4044 H 368.497 7.54892 1.65403 0
M  V30 4045 H 366.842 6.78746 1.4943 0
M  V30 4046 H 370.033 4.50038 1.28777 0
M  V30 4047 H 370.206 6.29473 1.53842 0
M  V30 4048 N 363.613 -0.582584 1.46437 0
M  V30 4049 C 365.024 -1.1647 1.45916 0
M  V30 4050 C 365.375 -1.95177 0.200077 0
M  V30 4051 O 364.5 -2.04874 -0.696819 0
M  V30 4052 C 365.095 -2.11885 2.64367 0
M  V30 4053 C 363.654 -2.65421 2.66887 0
M  V30 4054 C 362.801 -1.41294 2.38603 0
M  V30 4055 H 365.752 -0.370514 1.54314 0
M  V30 4056 H 365.773 -2.9535 2.39892 0
M  V30 4057 H 365.285 -1.54573 3.5599 0
M  V30 4058 H 363.386 -3.26602 1.79338 0
M  V30 4059 H 363.499 -3.08147 3.66854 0
M  V30 4060 H 361.863 -1.71109 1.88663 0
M  V30 4061 H 362.646 -0.858125 3.32402 0
M  V30 4062 N 365.091 -1.34144 -0.827227 0
M  V30 4063 C 366.319 -1.29325 -1.61501 0
M  V30 4064 C 366.734 0.13354 -1.88327 0
M  V30 4065 O 366.091 1.0793 -1.47164 0
M  V30 4066 C 366.142 -2.07746 -2.95844 0
M  V30 4067 O 365.863 -3.4486 -2.70191 0
M  V30 4068 C 367.364 -2.10273 -3.90256 0
M  V30 4069 H 364.584 -0.445069 -0.50215 0
M  V30 4070 H 367.128 -1.76693 -1.02955 0
M  V30 4071 H 365.283 -1.6403 -3.5096 0
M  V30 4072 H 365.697 -3.85345 -3.55822 0
M  V30 4073 H 367.171 -2.69575 -4.81698 0
M  V30 4074 H 367.648 -1.096 -4.25305 0
M  V30 4075 H 368.254 -2.54059 -3.41078 0
M  V30 4076 N 366.569 1.04691 -1.17803 0
M  V30 4077 C 367.499 2.14494 -0.92275 0
M  V30 4078 C 368.48 1.69546 0.137179 0
M  V30 4079 O 369.665 1.94195 -0.0141108 0
M  V30 4080 C 366.795 3.44491 -0.440803 0
M  V30 4081 C 365.749 4.03031 -1.4405 0
M  V30 4082 C 365.075 5.28432 -0.81631 0
M  V30 4083 C 366.375 4.39932 -2.81527 0
M  V30 4084 H 368.069 2.36107 -1.84103 0
M  V30 4085 H 365.615 1.1347 -0.886599 0
M  V30 4086 H 367.568 4.2066 -0.249602 0
M  V30 4087 H 366.292 3.22546 0.513025 0
M  V30 4088 H 364.951 3.28937 -1.61853 0
M  V30 4089 H 364.599 5.02792 0.144511 0
M  V30 4090 H 364.299 5.68559 -1.48371 0
M  V30 4091 H 365.823 6.07284 -0.635496 0
M  V30 4092 H 367.237 5.07113 -2.67412 0
M  V30 4093 H 365.634 4.9109 -3.44892 0
M  V30 4094 H 366.704 3.50045 -3.35554 0
M  V30 4095 N 368.047 0.979072 1.23499 0
M  V30 4096 C 369.463 0.687475 1.44034 0
M  V30 4097 C 369.663 -0.746801 1.8715 0
M  V30 4098 O 368.719 -1.51939 2.0167 0
M  V30 4099 C 370.032 1.68127 2.49307 0
M  V30 4100 C 371.58 1.69516 2.63122 0
M  V30 4101 C 372.055 2.67723 3.71603 0
M  V30 4102 N 373.546 2.66233 3.79044 0
M  V30 4103 C 374.281 3.38891 4.62537 0
M  V30 4104 N 373.777 4.21103 5.50131 0
M  V30 4105 N 375.57 3.27661 4.56721 0
M  V30 4106 H 367.721 1.90559 0.938135 0
M  V30 4107 H 369.984 0.821051 0.473897 0
M  V30 4108 H 369.69 2.70693 2.2454 0
M  V30 4109 H 369.564 1.46306 3.4767 0
M  V30 4110 H 371.951 0.676561 2.8724 0
M  V30 4111 H 372.032 1.95404 1.65079 0
M  V30 4112 H 371.676 3.69724 3.48233 0
M  V30 4113 H 371.606 2.39111 4.69184 0
M  V30 4114 H 374.097 2.06568 3.16446 0
M  V30 4115 H 374.41 4.73403 6.10827 0
M  V30 4116 H 372.755 4.25195 5.49759 0
M  V30 4117 H 375.946 2.62887 3.87309 0
M  V30 4118 H 376.119 3.84547 5.21562 0
M  V30 4119 N 369.525 -1.3858 0.750561 0
M  V30 4120 C 370.941 -1.53759 0.427824 0
M  V30 4121 C 371.141 -1.71401 -1.05943 0
M  V30 4122 O 370.197 -1.72331 -1.84549 0
M  V30 4123 C 371.51 -2.74642 1.22443 0
M  V30 4124 C 373.058 -2.88489 1.2142 0
M  V30 4125 C 373.533 -4.12329 1.9937 0
M  V30 4126 N 375.024 -4.194 1.96616 0
M  V30 4127 C 375.759 -5.14209 2.53727 0
M  V30 4128 N 375.255 -6.14709 3.19539 0
M  V30 4129 N 377.048 -5.06537 2.43673 0
M  V30 4130 H 369.199 -1.25377 1.71447 0
M  V30 4131 H 371.462 -0.608844 0.726645 0
M  V30 4132 H 371.168 -2.68 2.27747 0
M  V30 4133 H 371.042 -3.67745 0.839273 0
M  V30 4134 H 373.429 -2.94614 0.169232 0
M  V30 4135 H 373.51 -1.96406 1.63885 0
M  V30 4136 H 373.154 -4.06966 3.03877 0
M  V30 4137 H 373.084 -5.03486 1.54302 0
M  V30 4138 H 375.575 -3.47421 1.48684 0
M  V30 4139 H 375.888 -6.8354 3.60545 0
M  V30 4140 H 374.233 -6.1505 3.23633 0
M  V30 4141 H 377.424 -4.26962 1.91889 0
M  V30 4142 H 377.597 -5.80245 2.88479 0
M  V30 4143 N 371.003 -0.499398 -1.49478 0
M  V30 4144 C 371.933 0.269244 -2.31943 0
M  V30 4145 C 372.914 0.964054 -1.40143 0
M  V30 4146 O 374.099 0.955767 -1.69052 0
M  V30 4147 C 371.229 1.33504 -3.20615 0
M  V30 4148 C 370.183 0.760202 -4.21195 0
M  V30 4149 C 369.509 1.9264 -4.98792 0
M  V30 4150 C 370.809 -0.247661 -5.21712 0
M  V30 4151 H 372.503 -0.419082 -2.96452 0
M  V30 4152 H 370.049 -0.202988 -1.42562 0
M  V30 4153 H 372.002 1.88048 -3.77115 0
M  V30 4154 H 370.726 2.05253 -2.54045 0
M  V30 4155 H 369.385 0.23653 -3.65836 0
M  V30 4156 H 369.033 2.63154 -4.28671 0
M  V30 4157 H 368.733 1.54785 -5.66847 0
M  V30 4158 H 370.257 2.4762 -5.58137 0
M  V30 4159 H 371.671 0.209579 -5.72917 0
M  V30 4160 H 370.068 -0.541962 -5.97648 0
M  V30 4161 H 371.138 -1.16409 -4.7072 0
M  V30 4162 N 372.481 1.55866 -0.233164 0
M  V30 4163 C 373.897 1.59133 0.121988 0
M  V30 4164 C 374.097 1.25016 1.58029 0
M  V30 4165 O 373.153 0.990922 2.32243 0
M  V30 4166 C 374.466 2.99932 -0.214792 0
M  V30 4167 C 376.014 3.12601 -0.157971 0
M  V30 4168 C 376.489 4.55597 -0.46859 0
M  V30 4169 N 377.98 4.61305 -0.418585 0
M  V30 4170 C 378.715 5.69903 -0.63227 0
M  V30 4171 N 378.211 6.86819 -0.90835 0
M  V30 4172 N 380.004 5.59264 -0.563913 0
M  V30 4173 H 372.155 1.76315 -1.18434 0
M  V30 4174 H 374.418 0.820093 -0.475553 0
M  V30 4175 H 374.124 3.29588 -1.22739 0
M  V30 4176 H 373.998 3.74327 0.464691 0
M  V30 4177 H 376.385 2.82735 0.845283 0
M  V30 4178 H 376.466 2.40511 -0.871102 0
M  V30 4179 H 376.11 4.86182 -1.46934 0
M  V30 4180 H 376.04 5.25928 0.265865 0
M  V30 4181 H 378.531 3.77297 -0.213368 0
M  V30 4182 H 378.844 7.65507 -1.05919 0
M  V30 4183 H 377.189 6.88536 -0.945673 0
M  V30 4184 H 380.38 4.66802 -0.348372 0
M  V30 4185 H 380.553 6.43831 -0.733847 0
M  V30 4186 N 373.959 -0.0401083 1.57549 0
M  V30 4187 C 375.37 -0.588097 1.77196 0
M  V30 4188 C 375.721 -1.76209 0.862832 0
M  V30 4189 O 374.846 -2.16331 0.0548389 0
M  V30 4190 C 375.441 -1.07363 3.21339 0
M  V30 4191 C 374 -1.56723 3.42221 0
M  V30 4192 C 373.147 -0.50041 2.72747 0
M  V30 4193 H 376.098 0.186119 1.57605 0
M  V30 4194 H 376.119 -1.94143 3.27244 0
M  V30 4195 H 375.631 -0.218975 3.87482 0
M  V30 4196 H 373.732 -2.4441 2.81237 0
M  V30 4197 H 373.845 -1.62234 4.50796 0
M  V30 4198 H 372.209 -0.952894 2.36203 0
M  V30 4199 H 372.992 0.344599 3.41566 0
M  V30 4200 N 375.437 -1.54477 -0.31217 0
M  V30 4201 C 376.347 -1.87695 -1.4074 0
M  V30 4202 C 377.363 -0.769975 -1.56036 0
M  V30 4203 O 378.539 -1.06537 -1.70915 0
M  V30 4204 C 375.604 -2.10755 -2.75287 0
M  V30 4205 C 374.665 -3.34514 -2.69071 0
M  V30 4206 C 373.898 -3.56465 -3.97201 0
M  V30 4207 O 374.121 -2.81637 -4.96021 0
M  V30 4208 O 373.055 -4.49964 -3.9977 0
M  V30 4209 H 376.881 -2.80849 -1.15574 0
M  V30 4210 H 374.466 -1.40526 -0.507228 0
M  V30 4211 H 376.348 -2.27188 -3.54913 0
M  V30 4212 H 375.023 -1.20788 -3.0032 0
M  V30 4213 H 373.93 -3.23456 -1.87955 0
M  V30 4214 H 375.263 -4.24575 -2.48992 0
M  V30 4215 N 376.915 0.57481 -1.46744 0
M  V30 4216 C 377.825 1.711 -1.60505 0
M  V30 4217 C 378.841 1.67008 -0.488307 0
M  V30 4218 O 380.017 1.86774 -0.753495 0
M  V30 4219 C 377.082 3.07608 -1.59932 0
M  V30 4220 C 376.143 3.22904 -2.82898 0
M  V30 4221 C 375.376 4.529 -2.82343 0
M  V30 4222 O 375.599 5.37278 -1.91542 0
M  V30 4223 O 374.533 4.71611 -3.73987 0
M  V30 4224 H 378.359 1.62436 -2.56609 0
M  V30 4225 H 375.944 0.742779 -1.29627 0
M  V30 4226 H 377.826 3.88877 -1.62336 0
M  V30 4227 H 376.501 3.16692 -0.669898 0
M  V30 4228 H 375.408 2.41099 -2.86046 0
M  V30 4229 H 376.741 3.18715 -3.75076 0
M  V30 4230 N 378.394 1.34581 0.820102 0
M  V30 4231 C 379.327 1.20735 1.93644 0
M  V30 4232 C 380.305 0.0983343 1.62302 0
M  V30 4233 O 381.489 0.263997 1.86642 0
M  V30 4234 C 378.616 0.856037 3.27704 0
M  V30 4235 C 377.662 1.97521 3.78005 0
M  V30 4236 S 378.495 3.58906 3.97425 0
M  V30 4237 C 379.651 3.25822 5.34407 0
M  V30 4238 H 379.884 2.15231 2.05093 0
M  V30 4239 H 377.417 1.1964 0.97599 0
M  V30 4240 H 379.375 0.660133 4.05157 0
M  V30 4241 H 378.036 -0.0706253 3.14021 0
M  V30 4242 H 377.229 1.68321 4.75062 0
M  V30 4243 H 376.831 2.12875 3.07507 0
M  V30 4244 H 379.123 2.77812 6.17922 0
M  V30 4245 H 380.066 4.22029 5.68592 0
M  V30 4246 H 380.474 2.61932 5.00052 0
M  V30 4247 N 379.872 -1.04064 1.18357 0
M  V30 4248 C 381.119 -1.77265 0.978947 0
M  V30 4249 C 381.447 -1.88189 -0.491428 0
M  V30 4250 O 380.702 -1.38653 -1.38108 0
M  V30 4251 C 381.001 -3.20634 1.57888 0
M  V30 4252 C 380.667 -3.29743 3.07539 0
M  V30 4253 C 379.329 -3.31937 3.48384 0
M  V30 4254 C 381.681 -3.29841 4.03552 0
M  V30 4255 C 379.009 -3.3187 4.83818 0
M  V30 4256 C 381.361 -3.31313 5.38901 0
M  V30 4257 C 380.025 -3.31799 5.79194 0
M  V30 4258 H 379.295 -0.648659 0.358222 0
M  V30 4259 H 381.942 -1.22225 1.47422 0
M  V30 4260 H 380.247 -3.78675 1.00561 0
M  V30 4261 H 381.944 -3.75917 1.39598 0
M  V30 4262 H 378.534 -3.28757 2.74986 0
M  V30 4263 H 382.718 -3.27337 3.73047 0
M  V30 4264 H 377.974 -3.30562 5.14333 0
M  V30 4265 H 382.148 -3.30338 6.13066 0
M  V30 4266 H 379.775 -3.315 6.84114 0
M  V30 4267 N 381.35 -0.985608 -1.22978 0
M  V30 4268 C 382.26 -0.538548 -2.28335 0
M  V30 4269 C 383.276 0.409163 -1.69121 0
M  V30 4270 O 384.452 0.277797 -1.99475 0
M  V30 4271 C 381.517 0.146867 -3.46389 0
M  V30 4272 C 380.578 -0.842896 -4.20944 0
M  V30 4273 C 379.811 -0.190095 -5.33361 0
M  V30 4274 O 380.034 1.01767 -5.61248 0
M  V30 4275 O 378.968 -0.891289 -5.95264 0
M  V30 4276 H 382.794 -1.41487 -2.68729 0
M  V30 4277 H 380.379 -0.753495 -1.29007 0
M  V30 4278 H 382.261 0.531125 -4.1804 0
M  V30 4279 H 380.936 0.997871 -3.07935 0
M  V30 4280 H 379.843 -1.27795 -3.51595 0
M  V30 4281 H 381.176 -1.66287 -4.6326 0
M  V30 4282 N 382.828 1.3818 -0.7579 0
M  V30 4283 C 384.056 2.04301 -0.326937 0
M  V30 4284 C 384.471 1.57163 1.0462 0
M  V30 4285 O 383.828 0.746626 1.66529 0
M  V30 4286 C 383.879 3.59846 -0.345363 0
M  V30 4287 O 383.6 4.05256 -1.66432 0
M  V30 4288 C 385.101 4.4319 0.098927 0
M  V30 4289 H 382.321 0.656443 -0.139012 0
M  V30 4290 H 384.865 1.76786 -1.02796 0
M  V30 4291 H 383.02 3.86182 0.306955 0
M  V30 4292 H 383.434 4.99709 -1.59345 0
M  V30 4293 H 384.908 5.51989 0.0348745 0
M  V30 4294 H 385.385 4.23947 1.14741 0
M  V30 4295 H 385.991 4.22051 -0.52468 0
M  V30 4296 N 384.306 0.507319 1.49211 0
M  V30 4297 C 385.552 -0.0269732 2.03382 0
M  V30 4298 C 385.907 -1.34111 1.37957 0
M  V30 4299 O 385.2 -1.84733 0.508351 0
M  V30 4300 C 385.394 -0.229513 3.56662 0
M  V30 4301 C 385.223 1.06344 4.36945 0
M  V30 4302 C 383.993 1.617 4.78729 0
M  V30 4303 C 386.191 1.96833 4.75143 0
M  V30 4304 N 384.173 2.8552 5.43463 0
M  V30 4305 C 385.544 3.0523 5.39661 0
M  V30 4306 C 387.599 1.97434 4.57082 0
M  V30 4307 C 386.302 4.14265 5.88028 0
M  V30 4308 C 388.328 3.05448 5.06414 0
M  V30 4309 C 387.69 4.12564 5.70938 0
M  V30 4310 H 383.789 0.0310673 0.781383 0
M  V30 4311 H 386.373 0.683579 1.82305 0
M  V30 4312 H 384.544 -0.909127 3.7761 0
M  V30 4313 H 386.276 -0.761377 3.97473 0
M  V30 4314 H 383.031 1.16132 4.59141 0
M  V30 4315 H 383.455 3.48499 5.80412 0
M  V30 4316 H 388.097 1.15924 4.06597 0
M  V30 4317 H 385.815 4.96569 6.3753 0
M  V30 4318 H 389.401 3.06941 4.94246 0
M  V30 4319 H 388.281 4.94767 6.0842 0
M  V30 4320 N 385.784 -1.5574 0.241426 0
M  V30 4321 C 386.694 -2.2479 -0.671305 0
M  V30 4322 C 387.71 -1.26217 -1.19772 0
M  V30 4323 O 388.886 -1.59079 -1.23514 0
M  V30 4324 C 385.951 -2.92966 -1.85396 0
M  V30 4325 C 385.012 -4.06935 -1.36756 0
M  V30 4326 C 384.245 -4.71851 -2.49384 0
M  V30 4327 O 384.468 -4.35823 -3.67987 0
M  V30 4328 O 383.402 -5.60467 -2.19454 0
M  V30 4329 H 387.228 -3.0349 -0.112966 0
M  V30 4330 H 384.813 -1.49397 0.0101513 0
M  V30 4331 H 386.695 -3.35927 -2.54423 0
M  V30 4332 H 385.37 -2.17211 -2.40002 0
M  V30 4333 H 384.277 -3.68503 -0.644726 0
M  V30 4334 H 385.61 -4.84492 -0.867647 0
M  V30 4335 N 387.262 0.0317525 -1.57568 0
M  V30 4336 C 388.539 0.758366 -1.803 0
M  V30 4337 C 388.919 1.93718 -0.838845 0
M  V30 4338 O 388.267 2.28187 0.119571 0
M  V30 4339 C 388.477 1.19392 -3.27943 0
M  V30 4340 C 389.825 1.61094 -3.92854 0
M  V30 4341 O 390.849 1.28857 -3.32076 0
M  V30 4342 O 389.708 2.20918 -4.99858 0
M  V30 4343 H 386.802 0.366514 -0.741348 0
M  V30 4344 H 389.348 0.00873765 -1.69698 0
M  V30 4345 H 388.12 0.352275 -3.89711 0
M  V30 4346 H 387.743 2.00365 -3.43424 0
M  V30 4347 N 388.74 1.54641 0.303973 0
M  V30 4348 C 390.017 1.64455 1.05896 0
M  V30 4349 C 390.397 0.490923 2.05312 0
M  V30 4350 O 389.745 -0.512685 2.22674 0
M  V30 4351 C 389.955 3.02331 1.74347 0
M  V30 4352 C 391.303 3.59045 2.26653 0
M  V30 4353 O 392.327 3.04764 1.84384 0
M  V30 4354 O 391.186 4.54081 3.04093 0
M  V30 4355 H 388.28 0.666729 0.489287 0
M  V30 4356 H 390.826 1.66986 0.302298 0
M  V30 4357 H 389.598 3.77734 1.02142 0
M  V30 4358 H 389.221 3.03565 2.56777 0
M  V30 4359 N 390.218 -0.567019 1.47046 0
M  V30 4360 C 391.148 -1.68482 1.61667 0
M  V30 4361 C 392.129 -1.6358 0.466418 0
M  V30 4362 O 393.314 -1.81354 0.694574 0
M  V30 4363 C 390.444 -3.07124 1.62148 0
M  V30 4364 C 389.398 -3.26867 2.76301 0
M  V30 4365 C 388.724 -4.66196 2.61849 0
M  V30 4366 C 390.024 -3.13186 4.17986 0
M  V30 4367 H 391.718 -1.56502 2.5524 0
M  V30 4368 H 389.264 -0.751486 1.22836 0
M  V30 4369 H 391.217 -3.8516 1.70968 0
M  V30 4370 H 389.941 -3.2004 0.651287 0
M  V30 4371 H 388.6 -2.51237 2.66975 0
M  V30 4372 H 388.248 -4.75898 1.62879 0
M  V30 4373 H 387.948 -4.80356 3.38425 0
M  V30 4374 H 389.472 -5.46379 2.72584 0
M  V30 4375 H 390.886 -3.81049 4.2834 0
M  V30 4376 H 389.283 -3.3886 4.95272 0
M  V30 4377 H 390.353 -2.10057 4.3704 0
M  V30 4378 N 391.696 -1.35014 -0.812953 0
M  V30 4379 C 392.644 -1.27435 -1.94585 0
M  V30 4380 C 393.638 -0.170494 -1.6854 0
M  V30 4381 O 394.844 -0.336085 -1.76835 0
M  V30 4382 H 391.219 -0.396144 -0.639198 0
M  V30 4383 H 393.19 -2.23158 -1.98098 0
M  V30 4384 C 391.939 -1.05677 -3.31252 0
M  V30 4385 H 391.262 -1.89853 -3.51846 0
M  V30 4386 H 392.702 -1.04413 -4.10943 0
M  V30 4387 C 391.161 0.239615 -3.36047 0
M  V30 4388 O 391.691 1.23759 -3.8216 0
M  V30 4389 N 389.897 0.276186 -2.89285 0
M  V30 4390 H 389.444 -0.53653 -2.51951 0
M  V30 4391 H 389.402 1.14332 -2.92875 0
M  V30 4392 N 393.175 1.03435 -1.18907 0
M  V30 4393 C 394.423 1.76394 -0.986382 0
M  V30 4394 C 394.744 1.88883 0.484567 0
M  V30 4395 O 394.014 1.41843 1.3512 0
M  V30 4396 H 392.594 0.65344 -0.361975 0
M  V30 4397 H 395.256 1.248 -1.49703 0
M  V30 4398 H 394.352 2.77424 -1.42978 0
M  V30 4399 N 394.653 0.992116 1.22453 0
M  V30 4400 C 395.902 0.662992 1.90492 0
M  V30 4401 C 396.215 -0.808407 1.78113 0
M  V30 4402 O 397.421 -1.24908 2.41061 0
M  V30 4403 C 395.877 1.1353 3.41524 0
M  V30 4404 C 395.485 2.63187 3.62542 0
M  V30 4405 C 397.229 0.880465 4.15269 0
M  V30 4406 C 395.136 3.04024 5.0727 0
M  V30 4407 H 394.066 0.244278 0.713333 0
M  V30 4408 H 396.717 1.20157 1.38688 0
M  V30 4409 H 395.099 0.52485 3.92506 0
M  V30 4410 H 396.273 3.2957 3.22056 0
M  V30 4411 H 394.588 2.86543 3.02129 0
M  V30 4412 H 397.185 1.16128 5.21937 0
M  V30 4413 H 397.528 -0.183408 4.15896 0
M  V30 4414 H 398.061 1.45307 3.70312 0
M  V30 4415 H 394.8 4.09584 5.11782 0
M  V30 4416 H 394.32 2.42343 5.48662 0
M  V30 4417 H 395.999 2.95282 5.75689 0
M  V30 4418 N 396.131 -1.37776 0.765217 0
M  V30 4419 C 397.081 -2.2768 0.12075 0
M  V30 4420 C 398.065 -1.45778 -0.680988 0
M  V30 4421 O 399.257 -1.684 -0.545033 0
M  V30 4422 C 396.386 -3.34722 -0.762626 0
M  V30 4423 C 395.472 -4.24074 0.0465881 0
M  V30 4424 N 395.863 -4.93939 1.08892 0
M  V30 4425 C 394.161 -4.45643 -0.178418 0
M  V30 4426 C 394.862 -5.59845 1.57951 0
M  V30 4427 N 393.838 -5.36218 0.892797 0
M  V30 4428 H 397.64 -2.79166 0.918889 0
M  V30 4429 H 395.154 -1.50816 0.602353 0
M  V30 4430 H 397.151 -3.98031 -1.24005 0
M  V30 4431 H 395.811 -2.84793 -1.55959 0
M  V30 4432 H 396.822 -4.96572 1.47095 0
M  V30 4433 H 393.499 -4.06599 -0.9478 0
M  V30 4434 H 394.889 -6.25703 2.44838 0
M  V30 4435 N 397.609 -0.515225 -1.4894 0
M  V30 4436 C 398.858 0.0261361 -2.01683 0
M  V30 4437 C 399.171 1.36719 -1.39883 0
M  V30 4438 O 400.377 1.99606 -1.84037 0
M  V30 4439 C 398.833 0.0970111 -3.59769 0
M  V30 4440 C 398.441 -1.23825 -4.30548 0
M  V30 4441 C 400.185 0.587981 -4.20408 0
M  V30 4442 C 398.092 -1.12877 -5.80528 0
M  V30 4443 H 397.022 0.0135398 -0.753878 0
M  V30 4444 H 399.673 -0.656787 -1.71343 0
M  V30 4445 H 398.055 0.844694 -3.86886 0
M  V30 4446 H 399.229 -2.00034 -4.15118 0
M  V30 4447 H 397.544 -1.66379 -3.81716 0
M  V30 4448 H 400.141 0.68763 -5.3026 0
M  V30 4449 H 400.484 1.59026 -3.84729 0
M  V30 4450 H 401.017 -0.103582 -3.97665 0
M  V30 4451 H 397.756 -2.10575 -6.20756 0
M  V30 4452 H 397.276 -0.407799 -5.98412 0
M  V30 4453 H 398.955 -0.813332 -6.41868 0
M  V30 4454 N 399.087 1.5561 -0.249682 0
M  V30 4455 C 400.333 1.99306 0.374841 0
M  V30 4456 C 400.666 1.13767 1.57387 0
M  V30 4457 O 399.941 0.201711 1.93451 0
M  V30 4458 C 400.224 3.51507 0.781986 0
M  V30 4459 C 400.077 4.4781 -0.422629 0
M  V30 4460 C 401.396 4.08884 1.62793 0
M  V30 4461 H 398.515 0.724572 0.134773 0
M  V30 4462 H 401.157 1.86719 -0.351549 0
M  V30 4463 H 399.307 3.62363 1.4009 0
M  V30 4464 H 400.979 4.48931 -1.06108 0
M  V30 4465 H 399.222 4.20518 -1.06524 0
M  V30 4466 H 399.893 5.51919 -0.0943766 0
M  V30 4467 H 402.369 4.01147 1.10547 0
M  V30 4468 H 401.245 5.1564 1.88166 0
M  V30 4469 H 401.506 3.57515 2.60068 0
M  V30 4470 N 400.565 -0.0233959 1.57583 0
M  V30 4471 C 401.528 -1.00693 2.05897 0
M  V30 4472 C 402.528 -1.28693 0.964092 0
M  V30 4473 O 403.718 -1.23602 1.22753 0
M  V30 4474 C 400.85 -2.33825 2.4807 0
M  V30 4475 H 402.043 -0.589476 2.9405 0
M  V30 4476 H 399.596 -0.270354 1.53944 0
M  V30 4477 H 400.331 -2.80307 1.6309 0
M  V30 4478 H 400.116 -2.1483 3.2801 0
M  V30 4479 H 401.606 -3.04426 2.85857 0
M  V30 4480 N 402.043 -1.548 -0.295768 0
M  V30 4481 C 403.29 -1.74329 -1.03032 0
M  V30 4482 C 403.618 -0.531915 -1.87085 0
M  V30 4483 O 402.873 0.486052 -1.89568 0
M  V30 4484 C 403.172 -2.98797 -1.961 0
M  V30 4485 C 402.838 -4.32356 -1.2798 0
M  V30 4486 C 401.5 -4.68661 -1.09135 0
M  V30 4487 C 403.852 -5.15128 -0.793243 0
M  V30 4488 C 401.18 -5.85312 -0.403269 0
M  V30 4489 C 403.532 -6.32488 -0.118854 0
M  V30 4490 C 402.196 -6.6745 0.0815043 0
M  V30 4491 H 401.466 -0.637916 -0.37702 0
M  V30 4492 H 404.113 -1.8906 -0.304696 0
M  V30 4493 H 402.418 -2.78869 -2.75207 0
M  V30 4494 H 404.115 -3.11102 -2.53015 0
M  V30 4495 H 400.705 -4.03808 -1.43655 0
M  V30 4496 H 404.889 -4.87575 -0.92653 0
M  V30 4497 H 400.145 -6.1094 -0.237098 0
M  V30 4498 H 404.319 -6.95892 0.266035 0
M  V30 4499 H 401.946 -7.57695 0.616685 0
M  V30 4500 N 403.521 0.559213 -1.47345 0
M  V30 4501 C 404.484 1.64854 -1.59235 0
M  V30 4502 C 405.484 1.53851 -0.467607 0
M  V30 4503 O 406.674 1.58045 -0.732617 0
M  V30 4504 C 403.806 3.04388 -1.53496 0
M  V30 4505 H 404.999 1.55662 -2.56339 0
M  V30 4506 H 402.552 0.778973 -1.35505 0
M  V30 4507 H 403.287 3.19115 -0.577604 0
M  V30 4508 H 403.072 3.13783 -2.35123 0
M  V30 4509 H 404.562 3.83642 -1.6495 0
M  V30 4510 N 404.999 1.35443 0.805782 0
M  V30 4511 C 405.909 1.30546 1.94923 0
M  V30 4512 C 406.925 0.210233 1.72725 0
M  V30 4513 O 408.101 0.43975 1.9654 0
M  V30 4514 C 405.166 1.07782 3.29521 0
M  V30 4515 C 404.227 2.26625 3.64609 0
M  V30 4516 C 403.46 2.04938 4.92784 0
M  V30 4517 O 403.683 1.01624 5.61274 0
M  V30 4518 O 402.617 2.9232 5.26149 0
M  V30 4519 H 406.443 2.26779 2.02002 0
M  V30 4520 H 404.028 1.15823 0.943682 0
M  V30 4521 H 405.91 0.969392 4.10098 0
M  V30 4522 H 404.585 0.146003 3.23371 0
M  V30 4523 H 403.492 2.43033 2.84404 0
M  V30 4524 H 404.825 3.18257 3.75464 0
M  V30 4525 N 406.477 -1.02803 1.19454 0
M  V30 4526 C 407.424 -2.11099 0.933046 0
M  V30 4527 C 408.394 -1.65571 -0.132447 0
M  V30 4528 O 409.579 -1.90797 0.00987576 0
M  V30 4529 C 406.719 -3.41763 0.478747 0
M  V30 4530 C 405.832 -4.00833 1.6111 0
M  V30 4531 C 404.967 -5.19511 1.10825 0
M  V30 4532 C 404.006 -5.70639 2.21445 0
M  V30 4533 N 403.143 -6.80589 1.72461 0
M  V30 4534 H 407.983 -2.32804 1.86028 0
M  V30 4535 H 405.52 -1.14179 0.927441 0
M  V30 4536 H 407.478 -4.16736 0.196745 0
M  V30 4537 H 406.108 -3.20166 -0.411493 0
M  V30 4538 H 405.16 -3.23066 2.00829 0
M  V30 4539 H 406.472 -4.34794 2.4445 0
M  V30 4540 H 405.626 -6.01645 0.781533 0
M  V30 4541 H 404.365 -4.87086 0.244606 0
M  V30 4542 H 403.37 -4.87116 2.54947 0
M  V30 4543 H 404.595 -6.05102 3.08267 0
M  V30 4544 H 402.541 -6.50016 0.884056 0
M  V30 4545 H 402.458 -7.13681 2.49389 0
M  V30 4546 H 403.726 -7.66317 1.42755 0
M  V30 4547 N 407.956 -0.998596 -1.21925 0
M  V30 4548 C 409.181 -0.696015 -1.95372 0
M  V30 4549 C 409.606 0.733826 -1.73195 0
M  V30 4550 O 408.964 1.50242 -1.01474 0
M  V30 4551 C 409.012 -1.01466 -3.4603 0
M  V30 4552 O 408.116 -0.116415 -4.12236 0
M  V30 4553 H 407.457 -0.259938 -0.611006 0
M  V30 4554 H 409.987 -1.33711 -1.54863 0
M  V30 4555 H 409.997 -0.958855 -3.96573 0
M  V30 4556 H 408.672 -2.05653 -3.61497 0
M  V30 4557 H 407.249 -0.228193 -3.72201 0
M  V30 4558 N 409.434 1.37368 -0.772513 0
M  V30 4559 C 410.711 1.93839 -0.26188 0
M  V30 4560 C 411.091 1.7061 1.24319 0
M  V30 4561 O 410.439 1.05534 2.02669 0
M  V30 4562 C 410.649 3.43154 -0.636102 0
M  V30 4563 C 411.997 4.20249 -0.606324 0
M  V30 4564 O 413.021 3.5152 -0.575538 0
M  V30 4565 O 411.88 5.42809 -0.634086 0
M  V30 4566 H 408.974 0.82478 -0.0605555 0
M  V30 4567 H 411.52 1.4665 -0.853917 0
M  V30 4568 H 410.292 3.53647 -1.6748 0
M  V30 4569 H 409.915 3.97596 -0.0170516 0
M  V30 4570 N 410.912 0.523116 1.48665 0
M  V30 4571 C 412.323 0.0808997 1.86525 0
M  V30 4572 C 412.674 -1.33975 1.43336 0
M  V30 4573 O 411.799 -2.00221 0.821009 0
M  V30 4574 C 412.394 0.140037 3.3851 0
M  V30 4575 C 410.953 -0.246948 3.75589 0
M  V30 4576 C 410.1 0.502845 2.72703 0
M  V30 4577 H 413.051 0.734736 1.40667 0
M  V30 4578 H 413.072 -0.649945 3.74908 0
M  V30 4579 H 412.584 1.17412 3.69914 0
M  V30 4580 H 410.685 -1.28343 3.49798 0
M  V30 4581 H 410.798 0.0878859 4.79019 0
M  V30 4582 H 409.162 -0.0500581 2.54651 0
M  V30 4583 H 409.945 1.53743 3.0695 0
M  V30 4584 N 412.39 -1.55475 0.257931 0
M  V30 4585 C 413.667 -1.91155 -0.414629 0
M  V30 4586 C 414.047 -1.18008 -1.75035 0
M  V30 4587 O 413.395 -0.301193 -2.26506 0
M  V30 4588 C 413.605 -3.44283 -0.571859 0
M  V30 4589 C 414.953 -4.15744 -0.862678 0
M  V30 4590 O 415.977 -3.50083 -0.657314 0
M  V30 4591 O 414.836 -5.31909 -1.2544 0
M  V30 4592 H 411.93 -0.796016 -0.22425 0
M  V30 4593 H 414.476 -1.66976 0.302814 0
M  V30 4594 H 413.248 -3.89558 0.368844 0
M  V30 4595 H 412.871 -3.7436 -1.33943 0
M  V30 4596 N 413.868 0.0150385 -1.57593 0
M  V30 4597 C 415.116 0.701613 -1.8953 0
M  V30 4598 C 415.437 1.75139 -0.857396 0
M  V30 4599 O 414.707 1.95607 0.107194 0
M  V30 4600 H 413.287 0.26213 -0.699498 0
M  V30 4601 H 415.949 -0.0223304 -1.94887 0
M  V30 4602 H 415.045 1.18236 -2.88837 0
M  V30 4603 N 415.346 1.54954 0.287554 0
M  V30 4604 C 416.576 1.78622 1.03816 0
M  V30 4605 C 416.984 0.552451 1.80955 0
M  V30 4606 O 416.327 -0.487665 1.77109 0
M  V30 4607 C 416.389 2.94975 2.055 0
M  V30 4608 C 416.053 4.32565 1.47433 0
M  V30 4609 C 417.05 5.12096 0.897436 0
M  V30 4610 C 414.735 4.79195 1.50591 0
M  V30 4611 C 416.729 6.36383 0.359851 0
M  V30 4612 C 414.416 6.03441 0.964459 0
M  V30 4613 C 415.414 6.81872 0.392413 0
M  V30 4614 O 415.102 8.03777 -0.140788 0
M  V30 4615 H 414.834 0.599144 0.313053 0
M  V30 4616 H 417.388 2.02761 0.328225 0
M  V30 4617 H 415.618 2.66493 2.80211 0
M  V30 4618 H 417.307 3.06097 2.6657 0
M  V30 4619 H 418.073 4.77209 0.865841 0
M  V30 4620 H 413.952 4.18167 1.94055 0
M  V30 4621 H 417.496 6.97545 -0.0872951 0
M  V30 4622 H 413.393 6.37813 0.993246 0
M  V30 4623 H 414.161 8.18495 -0.0287617 0
M  V30 4624 N 416.824 -0.551391 1.4764 0
M  V30 4625 C 417.734 -1.68525 1.63207 0
M  V30 4626 C 418.75 -1.6621 0.514815 0
M  V30 4627 O 419.926 -1.85551 0.783113 0
M  V30 4628 C 416.991 -3.05025 1.64805 0
M  V30 4629 C 416.052 -3.18362 2.88 0
M  V30 4630 C 415.285 -4.4835 2.89513 0
M  V30 4631 O 415.508 -5.34163 2.00065 0
M  V30 4632 O 414.442 -4.65602 3.81443 0
M  V30 4633 H 418.268 -1.58333 2.59161 0
M  V30 4634 H 415.853 -0.722063 1.30792 0
M  V30 4635 H 417.735 -3.86245 1.68502 0
M  V30 4636 H 416.41 -3.15587 0.720197 0
M  V30 4637 H 415.317 -2.36518 2.89845 0
M  V30 4638 H 416.65 -3.12707 3.80099 0
M  V30 4639 N 418.302 -1.35869 -0.798587 0
M  V30 4640 C 419.549 -1.29588 -1.55606 0
M  V30 4641 C 419.877 0.127456 -1.94082 0
M  V30 4642 O 419.132 1.09461 -1.62225 0
M  V30 4643 C 419.431 -2.1556 -2.85077 0
M  V30 4644 C 419.097 -3.6424 -2.65781 0
M  V30 4645 C 417.759 -4.04766 -2.60227 0
M  V30 4646 C 420.111 -4.58547 -2.47758 0
M  V30 4647 C 417.439 -5.37753 -2.34603 0
M  V30 4648 C 419.791 -5.91742 -2.23662 0
M  V30 4649 C 418.455 -6.31402 -2.16534 0
M  V30 4650 H 417.725 -0.474197 -0.569402 0
M  V30 4651 H 420.372 -1.67839 -0.922086 0
M  V30 4652 H 418.677 -1.70216 -3.52893 0
M  V30 4653 H 420.374 -2.08031 -3.42818 0
M  V30 4654 H 416.964 -3.32086 -2.70956 0
M  V30 4655 H 421.148 -4.28117 -2.51056 0
M  V30 4656 H 416.404 -5.67474 -2.2756 0
M  V30 4657 H 420.578 -6.6439 -2.08708 0
M  V30 4658 H 418.205 -7.34381 -1.96441 0
M  V30 4659 N 419.78 1.02168 -1.19998 0
M  V30 4660 C 420.71 2.12488 -0.96804 0
M  V30 4661 C 421.691 1.69799 0.101185 0
M  V30 4662 O 422.876 1.94121 -0.0552993 0
M  V30 4663 C 420.006 3.43479 -0.513776 0
M  V30 4664 C 418.96 3.99884 -1.52566 0
M  V30 4665 C 418.286 5.26582 -0.928214 0
M  V30 4666 C 419.586 4.33861 -2.90795 0
M  V30 4667 H 421.28 2.32149 -1.89069 0
M  V30 4668 H 418.826 1.11564 -0.910468 0
M  V30 4669 H 420.779 4.20036 -0.338774 0
M  V30 4670 H 419.503 3.23561 0.444493 0
M  V30 4671 H 418.162 3.25429 -1.68794 0
M  V30 4672 H 417.81 5.02986 0.0378289 0
M  V30 4673 H 417.51 5.65284 -1.60397 0
M  V30 4674 H 419.034 6.05799 -0.764167 0
M  V30 4675 H 420.448 5.01327 -2.78109 0
M  V30 4676 H 418.845 4.83664 -3.55231 0
M  V30 4677 H 419.915 3.42848 -3.42904 0
M  V30 4678 N 421.258 1.00505 1.21394 0
M  V30 4679 C 422.168 0.574806 2.27449 0
M  V30 4680 C 423.184 -0.382206 1.6975 0
M  V30 4681 O 424.36 -0.246027 1.99892 0
M  V30 4682 C 421.425 -0.0917414 3.46579 0
M  V30 4683 C 420.486 0.909758 4.1955 0
M  V30 4684 C 419.719 0.274924 5.32991 0
M  V30 4685 O 419.942 -0.928254 5.62796 0
M  V30 4686 O 418.876 0.985877 5.93771 0
M  V30 4687 H 422.702 1.45744 2.66444 0
M  V30 4688 H 420.287 0.773923 1.27792 0
M  V30 4689 H 422.169 -0.464551 4.18832 0
M  V30 4690 H 420.844 -0.948755 3.09484 0
M  V30 4691 H 419.751 1.33372 3.49518 0
M  V30 4692 H 421.084 1.73636 4.60555 0
M  V30 4693 N 422.737 -1.36956 0.779787 0
M  V30 4694 C 423.986 -1.98738 0.344405 0
M  V30 4695 C 424.299 -1.62596 -1.08728 0
M  V30 4696 O 425.505 -2.1754 -1.62445 0
M  V30 4697 C 423.961 -3.5544 0.564829 0
M  V30 4698 C 423.569 -4.00514 2.0073 0
M  V30 4699 C 425.313 -4.24059 0.193471 0
M  V30 4700 C 423.22 -5.49957 2.17489 0
M  V30 4701 H 422.15 -0.743561 0.12503 0
M  V30 4702 H 424.801 -1.56381 0.960057 0
M  V30 4703 H 423.183 -3.95817 -0.120397 0
M  V30 4704 H 424.357 -3.71362 2.72814 0
M  V30 4705 H 422.672 -3.44703 2.336 0
M  V30 4706 H 425.269 -5.33874 0.297097 0
M  V30 4707 H 425.612 -4.07378 -0.857263 0
M  V30 4708 H 426.145 -3.89012 0.831556 0
M  V30 4709 H 422.884 -5.71574 3.2091 0
M  V30 4710 H 422.404 -5.80767 1.49899 0
M  V30 4711 H 424.083 -6.16043 1.97738 0
M  V30 4712 N 424.215 -0.530993 -1.48385 0
M  V30 4713 C 425.145 0.219985 -2.32461 0
M  V30 4714 C 426.126 0.934111 -1.42156 0
M  V30 4715 O 427.311 0.919694 -1.71042 0
M  V30 4716 C 424.441 1.26674 -3.23375 0
M  V30 4717 C 423.395 0.67069 -4.22712 0
M  V30 4718 C 422.721 1.82017 -5.02766 0
M  V30 4719 C 424.021 -0.358268 -5.2107 0
M  V30 4720 H 425.715 -0.48187 -2.95497 0
M  V30 4721 H 423.261 -0.233182 -1.42099 0
M  V30 4722 H 425.214 1.80006 -3.81019 0
M  V30 4723 H 423.938 1.99818 -2.58341 0
M  V30 4724 H 422.597 0.158878 -3.66256 0
M  V30 4725 H 422.245 2.54002 -4.34157 0
M  V30 4726 H 421.945 1.42727 -5.70003 0
M  V30 4727 H 423.469 2.35725 -5.63264 0
M  V30 4728 H 424.883 0.0880081 -5.73232 0
M  V30 4729 H 423.28 -0.66861 -5.96364 0
M  V30 4730 H 424.35 -1.26367 -4.68145 0
M  V30 4731 N 425.693 1.55336 -0.266172 0
M  V30 4732 C 426.64 2.22172 0.625165 0
M  V30 4733 C 427.61 1.19211 1.15663 0
M  V30 4734 O 428.795 1.47723 1.20758 0
M  V30 4735 C 425.935 2.93972 1.8076 0
M  V30 4736 C 425.048 4.11632 1.31084 0
M  V30 4737 C 424.183 4.71099 2.45436 0
M  V30 4738 C 423.222 5.8097 1.92718 0
M  V30 4739 N 422.359 6.34538 3.00509 0
M  V30 4740 H 427.199 2.9796 0.0485582 0
M  V30 4741 H 424.736 1.47095 0.0122024 0
M  V30 4742 H 426.694 3.33811 2.50251 0
M  V30 4743 H 425.324 2.20623 2.35638 0
M  V30 4744 H 424.376 3.76975 0.509326 0
M  V30 4745 H 425.688 4.90893 0.884633 0
M  V30 4746 H 424.842 5.13612 3.22936 0
M  V30 4747 H 423.581 3.91096 2.91368 0
M  V30 4748 H 422.586 5.37916 1.13695 0
M  V30 4749 H 423.811 6.62836 1.47733 0
M  V30 4750 H 421.757 5.57433 3.45839 0
M  V30 4751 H 421.674 7.09046 2.62279 0
M  V30 4752 H 422.942 6.81709 3.78011 0
M  V30 4753 N 427.171 -0.0066808 1.57599 0
M  V30 4754 C 428.103 -1.02827 2.04839 0
M  V30 4755 C 429.116 -1.31108 0.965113 0
M  V30 4756 O 430.305 -1.28202 1.24203 0
M  V30 4757 C 427.405 -2.36464 2.42771 0
M  V30 4758 C 426.578 -2.27219 3.73751 0
M  V30 4759 C 425.637 -3.43489 3.98625 0
M  V30 4760 O 424.663 -3.21976 4.69382 0
M  V30 4761 N 425.865 -4.66116 3.46 0
M  V30 4762 H 428.63 -0.625455 2.93101 0
M  V30 4763 H 426.191 -0.194198 1.60731 0
M  V30 4764 H 428.183 -3.13008 2.56531 0
M  V30 4765 H 426.753 -2.68512 1.60063 0
M  V30 4766 H 425.973 -1.35629 3.70133 0
M  V30 4767 H 427.261 -2.18208 4.59633 0
M  V30 4768 H 426.659 -4.86493 2.88688 0
M  V30 4769 H 425.216 -5.39949 3.65101 0
M  V30 4770 N 428.649 -1.55105 -0.279332 0
M  V30 4771 C 429.895 -1.75672 -1.01327 0
M  V30 4772 C 430.228 -0.552739 -1.86168 0
M  V30 4773 O 429.503 0.449827 -1.89227 0
M  V30 4774 C 429.786 -3.05825 -1.90114 0
M  V30 4775 C 429.639 -4.36565 -1.08309 0
M  V30 4776 C 430.958 -3.31975 -2.8893 0
M  V30 4777 H 428.077 -0.639149 -0.366957 0
M  V30 4778 H 430.719 -1.87833 -0.286154 0
M  V30 4779 H 428.869 -2.95588 -2.52111 0
M  V30 4780 H 430.541 -4.58751 -0.484314 0
M  V30 4781 H 428.784 -4.32076 -0.386362 0
M  V30 4782 H 429.455 -5.23946 -1.73737 0
M  V30 4783 H 431.931 -3.41963 -2.37067 0
M  V30 4784 H 430.807 -4.2432 -3.48201 0
M  V30 4785 H 431.068 -2.51309 -3.63725 0
M  V30 4786 N 430.127 0.543554 -1.4793 0
M  V30 4787 C 431.09 1.63156 -1.60975 0
M  V30 4788 C 432.09 1.53346 -0.483899 0
M  V30 4789 O 433.28 1.5726 -0.749339 0
M  V30 4790 C 430.412 3.02743 -1.56716 0
M  V30 4791 H 431.605 1.52934 -2.57975 0
M  V30 4792 H 429.158 0.764557 -1.36324 0
M  V30 4793 H 429.893 3.18484 -0.611418 0
M  V30 4794 H 429.678 3.11272 -2.38438 0
M  V30 4795 H 431.168 3.81871 -1.6901 0
M  V30 4796 N 431.605 1.3629 0.791371 0
M  V30 4797 C 433.021 1.16661 1.08914 0
M  V30 4798 C 433.221 -0.0106266 2.01497 0
M  V30 4799 O 432.277 -0.676596 2.43266 0
M  V30 4800 C 433.59 2.47656 1.70549 0
M  V30 4801 C 435.138 2.54002 1.82899 0
M  V30 4802 C 435.613 3.85078 2.47949 0
M  V30 4803 N 437.104 3.86413 2.5542 0
M  V30 4804 C 437.839 4.84572 3.06557 0
M  V30 4805 N 437.335 5.93124 3.58016 0
M  V30 4806 N 439.128 4.71994 3.05251 0
M  V30 4807 H 431.279 2.11668 0.176238 0
M  V30 4808 H 433.542 0.937486 0.140796 0
M  V30 4809 H 433.248 3.34059 1.09989 0
M  V30 4810 H 433.122 2.63319 2.70079 0
M  V30 4811 H 435.509 1.68018 2.42598 0
M  V30 4812 H 435.59 2.42239 0.821808 0
M  V30 4813 H 435.234 4.71467 1.88895 0
M  V30 4814 H 435.164 3.94135 3.49235 0
M  V30 4815 H 437.655 3.07988 2.18979 0
M  V30 4816 H 437.968 6.63999 3.95381 0
M  V30 4817 H 436.313 5.96796 3.56173 0
M  V30 4818 H 439.504 3.86321 2.64336 0
M  V30 4819 H 439.677 5.48653 3.44796 0
M  V30 4820 N 433.083 -1.0153 1.20538 0
M  V30 4821 C 434.36 -1.72327 0.925343 0
M  V30 4822 C 434.74 -2.03383 -0.565547 0
M  V30 4823 O 434.088 -1.69934 -1.52757 0
M  V30 4824 C 434.298 -2.9902 1.79967 0
M  V30 4825 C 435.646 -3.72258 2.04228 0
M  V30 4826 O 436.67 -3.08979 1.77231 0
M  V30 4827 O 435.529 -4.86053 2.4983 0
M  V30 4828 H 432.623 -0.751099 0.346092 0
M  V30 4829 H 435.169 -1.07366 1.31417 0
M  V30 4830 H 433.941 -2.72402 2.80915 0
M  V30 4831 H 433.564 -3.71721 1.41099 0
M  V30 4832 N 434.561 -1.01147 -1.20859 0
M  V30 4833 C 435.509 -0.57059 -2.25493 0
M  V30 4834 C 436.503 0.388109 -1.64894 0
M  V30 4835 O 437.709 0.258592 -1.78133 0
M  V30 4836 H 434.084 -0.166191 -0.733406 0
M  V30 4837 H 436.055 -1.46411 -2.60012 0
M  V30 4838 C 434.804 0.0805241 -3.47607 0
M  V30 4839 H 434.127 -0.648156 -3.94511 0
M  V30 4840 H 435.567 0.352197 -4.22535 0
M  V30 4841 C 434.026 1.32175 -3.09889 0
M  V30 4842 O 434.556 2.41553 -3.20959 0
M  V30 4843 N 432.762 1.20392 -2.64488 0
M  V30 4844 H 432.309 0.313905 -2.5568 0
M  V30 4845 H 432.267 2.03541 -2.39621 0
M  V30 4846 N 436.039 1.36541 -0.78704 0
M  V30 4847 C 437.267 2.03561 -0.370199 0
M  V30 4848 C 437.682 1.59347 1.01263 0
M  V30 4849 O 437.039 0.781781 1.64907 0
M  V30 4850 C 437.09 3.59033 -0.421614 0
M  V30 4851 O 436.811 4.01634 -1.7499 0
M  V30 4852 C 438.312 4.433 0.00489763 0
M  V30 4853 H 435.532 0.653346 -0.152904 0
M  V30 4854 H 438.076 1.74566 -1.06522 0
M  V30 4855 H 436.231 3.86746 0.224971 0
M  V30 4856 H 436.645 4.96217 -1.69909 0
M  V30 4857 H 438.119 5.51939 -0.0822184 0
M  V30 4858 H 438.596 4.26285 1.05723 0
M  V30 4859 H 439.202 4.20843 -0.614085 0
M  V30 4860 N 437.518 0.538854 1.48102 0
M  V30 4861 C 438.795 -0.0568108 1.95517 0
M  V30 4862 C 439.175 -1.50408 1.48124 0
M  V30 4863 O 438.523 -2.17133 0.711727 0
M  V30 4864 C 438.733 0.0696262 3.48931 0
M  V30 4865 C 440.081 -0.0851202 4.24515 0
M  V30 4866 O 441.105 -0.0037347 3.562 0
M  V30 4867 O 439.964 -0.257025 5.45895 0
M  V30 4868 H 437.058 -0.0743695 0.823649 0
M  V30 4869 H 439.604 0.604081 1.58584 0
M  V30 4870 H 438.376 1.07744 3.76174 0
M  V30 4871 H 437.999 -0.629714 3.92582 0
M  V30 4872 N 438.996 -1.55193 0.274407 0
M  V30 4873 C 439.944 -2.23924 -0.629362 0
M  V30 4874 C 440.938 -1.23602 -1.1584 0
M  V30 4875 O 442.144 -1.41535 -1.11211 0
M  V30 4876 H 438.519 -0.718637 -0.221507 0
M  V30 4877 H 440.49 -2.98388 -0.0268322 0
M  V30 4878 C 439.239 -2.97329 -1.80252 0
M  V30 4879 H 438.562 -3.74313 -1.40462 0
M  V30 4880 H 440.002 -3.48743 -2.41152 0
M  V30 4881 C 438.461 -2.0276 -2.69054 0
M  V30 4882 O 438.991 -1.57836 -3.69392 0
M  V30 4883 N 437.197 -1.69275 -2.36208 0
M  V30 4884 H 436.744 -2.06004 -1.54661 0
M  V30 4885 H 436.702 -1.06271 -2.95895 0
M  V30 4886 N 440.474 -0.00167713 -1.576 0
M  V30 4887 C 441.885 0.54091 -1.78693 0
M  V30 4888 C 442.236 1.7386 -0.909247 0
M  V30 4889 O 441.361 2.16109 -0.112176 0
M  V30 4890 C 441.956 0.98806 -3.24072 0
M  V30 4891 C 440.515 1.47594 -3.46256 0
M  V30 4892 C 439.662 0.42792 -2.73978 0
M  V30 4893 H 442.613 -0.22784 -1.57056 0
M  V30 4894 H 442.634 1.85398 -3.32277 0
M  V30 4895 H 442.146 0.116164 -3.87926 0
M  V30 4896 H 440.247 2.36868 -2.87618 0
M  V30 4897 H 440.36 1.50225 -4.54939 0
M  V30 4898 H 438.724 0.889934 -2.38647 0
M  V30 4899 H 439.507 -0.435038 -3.40532 0
M  V30 4900 N 441.952 1.55251 0.271103 0
M  V30 4901 C 443.229 1.66664 1.02384 0
M  V30 4902 C 443.609 0.534363 2.04225 0
M  V30 4903 O 442.957 -0.465337 2.23712 0
M  V30 4904 C 443.167 3.05961 1.67895 0
M  V30 4905 C 444.515 3.63772 2.18986 0
M  V30 4906 O 445.539 3.08606 1.77878 0
M  V30 4907 O 444.398 4.60429 2.94393 0
M  V30 4908 H 441.492 0.676957 0.475035 0
M  V30 4909 H 444.038 1.67589 0.26681 0
M  V30 4910 H 442.81 3.79815 0.941071 0
M  V30 4911 H 442.433 3.08943 2.5028 0
M  V30 4912 N 443.43 -0.535701 1.48216 0
M  V30 4913 C 444.36 -1.65014 1.65204 0
M  V30 4914 C 445.341 -1.62554 0.501011 0
M  V30 4915 O 446.526 -1.7984 0.732886 0
M  V30 4916 C 443.656 -3.03616 1.68626 0
M  V30 4917 C 442.61 -3.20932 2.83172 0
M  V30 4918 C 441.936 -4.60537 2.71679 0
M  V30 4919 C 443.236 -3.04249 4.24535 0
M  V30 4920 H 444.93 -1.51053 2.58502 0
M  V30 4921 H 442.476 -0.725262 1.24402 0
M  V30 4922 H 444.429 -3.81446 1.79099 0
M  V30 4923 H 443.153 -3.18587 0.719026 0
M  V30 4924 H 441.812 -2.45517 2.72244 0
M  V30 4925 H 441.46 -4.72336 1.72937 0
M  V30 4926 H 441.16 -4.73069 3.48538 0
M  V30 4927 H 442.684 -5.40475 2.84112 0
M  V30 4928 H 444.098 -3.71877 4.36326 0
M  V30 4929 H 442.495 -3.28278 5.02348 0
M  V30 4930 H 443.565 -2.00739 4.41397 0
M  V30 4931 N 444.908 -1.36708 -0.784132 0
M  V30 4932 C 446.133 -1.34565 -1.5782 0
M  V30 4933 C 446.558 0.0695257 -1.87971 0
M  V30 4934 O 445.916 1.04302 -1.48293 0
M  V30 4935 C 445.964 -2.17952 -2.87279 0
M  V30 4936 O 445.068 -1.57563 -3.81114 0
M  V30 4937 H 444.409 -0.460337 -0.478524 0
M  V30 4938 H 446.939 -1.80064 -0.971495 0
M  V30 4939 H 446.949 -2.30721 -3.365 0
M  V30 4940 H 445.624 -3.20823 -2.64661 0
M  V30 4941 H 444.201 -1.53764 -3.39722 0
M  V30 4942 N 446.386 1.0089 -1.21074 0
M  V30 4943 C 447.635 1.74019 -1.01981 0
M  V30 4944 C 447.948 1.90408 0.447665 0
M  V30 4945 O 449.154 2.60707 0.757906 0
M  V30 4946 C 447.61 3.13026 -1.77603 0
M  V30 4947 C 447.218 3.04623 -3.28495 0
M  V30 4948 C 448.962 3.90312 -1.66904 0
M  V30 4949 C 446.869 4.38685 -3.96623 0
M  V30 4950 H 445.799 0.652422 -0.377971 0
M  V30 4951 H 448.45 1.12755 -1.44771 0
M  V30 4952 H 446.832 3.74878 -1.27604 0
M  V30 4953 H 448.006 2.52032 -3.85767 0
M  V30 4954 H 446.321 2.40827 -3.39693 0
M  V30 4955 H 448.918 4.8951 -2.15138 0
M  V30 4956 H 449.261 4.11558 -0.62658 0
M  V30 4957 H 449.794 3.35104 -2.14359 0
M  V30 4958 H 446.533 4.22641 -5.01054 0
M  V30 4959 H 446.053 4.91252 -3.4414 0
M  V30 4960 H 447.732 5.075 -4.01314 0
M  V30 4961 N 447.864 1.01787 1.20321 0
M  V30 4962 C 448.794 0.609625 2.25401 0
M  V30 4963 C 449.775 -0.375951 1.65893 0
M  V30 4964 O 450.96 -0.261101 1.92437 0
M  V30 4965 C 448.09 -0.0515995 3.47262 0
M  V30 4966 C 447.044 0.855095 4.19371 0
M  V30 4967 C 446.37 0.0595757 5.34667 0
M  V30 4968 C 447.67 2.16374 4.75373 0
M  V30 4969 H 449.364 1.48803 2.59804 0
M  V30 4970 H 446.91 0.716934 1.24884 0
M  V30 4971 H 448.863 -0.348764 4.19954 0
M  V30 4972 H 447.587 -0.964726 3.12027 0
M  V30 4973 H 446.246 1.13628 3.48546 0
M  V30 4974 H 445.894 -0.85524 4.95676 0
M  V30 4975 H 445.594 0.663406 5.83843 0
M  V30 4976 H 447.118 -0.231105 6.10162 0
M  V30 4977 H 448.532 1.92885 5.39878 0
M  V30 4978 H 446.929 2.71853 5.34991 0
M  V30 4979 H 447.999 2.82589 3.94045 0
M  V30 4980 N 449.342 -1.36122 0.79427 0
M  V30 4981 C 450.588 -1.99846 0.378542 0
M  V30 4982 C 450.943 -1.61898 -1.03955 0
M  V30 4983 O 450.236 -0.866013 -1.70912 0
M  V30 4984 C 450.43 -3.5409 0.48527 0
M  V30 4985 C 450.259 -4.0702 1.91219 0
M  V30 4986 C 449.029 -4.36944 2.53787 0
M  V30 4987 C 451.227 -4.26435 2.87502 0
M  V30 4988 N 449.209 -4.75727 3.88017 0
M  V30 4989 C 450.58 -4.68077 4.06576 0
M  V30 4990 C 452.635 -4.08616 2.84495 0
M  V30 4991 C 451.338 -4.93765 5.23057 0
M  V30 4992 C 453.364 -4.35453 4.00169 0
M  V30 4993 C 452.726 -4.77355 5.17988 0
M  V30 4994 H 448.825 -0.759549 0.186034 0
M  V30 4995 H 451.409 -1.65043 1.0329 0
M  V30 4996 H 449.58 -3.88151 -0.139023 0
M  V30 4997 H 451.312 -4.04675 0.0453192 0
M  V30 4998 H 448.067 -4.26822 2.05231 0
M  V30 4999 H 448.491 -4.99396 4.57092 0
M  V30 5000 H 453.133 -3.75373 1.94564 0
M  V30 5001 H 450.851 -5.25887 6.1357 0
M  V30 5002 H 454.437 -4.2323 3.99208 0
M  V30 5003 H 453.317 -4.97718 6.06008 0
M  V30 5004 N 450.82 -0.546701 -1.47814 0
M  V30 5005 C 452.069 -0.0166497 -2.01693 0
M  V30 5006 C 452.382 1.33721 -1.42752 0
M  V30 5007 O 453.588 1.95658 -1.8823 0
M  V30 5008 C 452.044 0.0206769 -3.59894 0
M  V30 5009 C 451.652 -1.3293 -4.27824 0
M  V30 5010 C 453.396 0.498674 -4.21561 0
M  V30 5011 C 451.303 -1.25165 -5.78003 0
M  V30 5012 H 450.233 -0.0024541 -0.753996 0
M  V30 5013 H 452.884 -0.692984 -1.69912 0
M  V30 5014 H 451.266 0.76244 -3.88591 0
M  V30 5015 H 452.44 -2.08795 -4.10781 0
M  V30 5016 H 450.755 -1.74438 -3.78101 0
M  V30 5017 H 453.352 0.575 -5.31599 0
M  V30 5018 H 453.695 1.5083 -3.88016 0
M  V30 5019 H 454.228 -0.18791 -3.97356 0
M  V30 5020 H 450.967 -2.23695 -6.1615 0
M  V30 5021 H 450.487 -0.53464 -5.97412 0
M  V30 5022 H 452.166 -0.949299 -6.39998 0
M  V30 5023 N 452.299 1.55045 -0.282633 0
M  V30 5024 C 453.576 1.9179 0.384166 0
M  V30 5025 C 453.956 1.20778 1.73136 0
M  V30 5026 O 453.304 0.33719 2.25998 0
M  V30 5027 C 453.514 3.45149 0.517014 0
M  V30 5028 C 454.862 4.17064 0.796427 0
M  V30 5029 O 455.886 3.51084 0.601535 0
M  V30 5030 O 454.745 5.33837 1.16962 0
M  V30 5031 H 451.839 0.799483 0.211558 0
M  V30 5032 H 454.385 1.66474 -0.32934 0
M  V30 5033 H 453.157 3.88922 -0.430772 0
M  V30 5034 H 452.78 3.76443 1.2797 0
M  V30 5035 N 453.777 0.010035 1.57597 0
M  V30 5036 C 455.188 -0.531426 1.78977 0
M  V30 5037 C 455.539 -1.73375 0.918454 0
M  V30 5038 O 454.664 -2.16047 0.123635 0
M  V30 5039 C 455.259 -0.97086 3.24592 0
M  V30 5040 C 453.818 -1.45756 3.47033 0
M  V30 5041 C 452.965 -0.413384 2.74201 0
M  V30 5042 H 455.916 0.236166 1.56933 0
M  V30 5043 H 455.937 -1.83633 3.33255 0
M  V30 5044 H 455.449 -0.0955893 3.87982 0
M  V30 5045 H 453.55 -2.35339 2.88871 0
M  V30 5046 H 453.663 -1.4781 4.55729 0
M  V30 5047 H 452.027 -0.877266 2.39115 0
M  V30 5048 H 452.81 0.453092 3.40297 0
M  V30 5049 N 455.255 -1.55392 -0.262866 0
M  V30 5050 C 456.532 -1.67204 -1.01499 0
M  V30 5051 C 456.912 -0.545186 -2.03939 0
M  V30 5052 O 456.26 0.453467 -2.23955 0
M  V30 5053 C 456.47 -3.06847 -1.6627 0
M  V30 5054 C 457.818 -3.64928 -2.17054 0
M  V30 5055 O 458.842 -3.09545 -1.76239 0
M  V30 5056 O 457.701 -4.61984 -2.91947 0
M  V30 5057 H 454.795 -0.679467 -0.471438 0
M  V30 5058 H 457.341 -1.67729 -0.257918 0
M  V30 5059 H 456.113 -3.80309 -0.920915 0
M  V30 5060 H 455.736 -3.10266 -2.48638 0
M  V30 5061 N 456.733 0.527833 -1.48498 0
M  V30 5062 C 458.01 1.28905 -1.47115 0
M  V30 5063 C 458.39 2.10297 -0.184007 0
M  V30 5064 O 457.738 2.12728 0.834218 0
M  V30 5065 C 457.948 2.16866 -2.73441 0
M  V30 5066 C 459.296 2.76936 -3.21857 0
M  V30 5067 O 460.32 2.27152 -2.74373 0
M  V30 5068 O 459.179 3.67496 -4.04486 0
M  V30 5069 H 456.273 0.581918 -0.587623 0
M  V30 5070 H 458.819 0.544311 -1.60734 0
M  V30 5071 H 457.591 1.56521 -3.58632 0
M  V30 5072 H 457.214 2.98583 -2.62553 0
M  V30 5073 N 458.211 1.37122 0.776871 0
M  V30 5074 C 459.458 1.32047 1.53524 0
M  V30 5075 C 459.786 -0.0965631 1.9426 0
M  V30 5076 O 459.041 -1.06866 1.63945 0
M  V30 5077 C 459.34 2.20068 2.81611 0
M  V30 5078 C 459.006 3.68423 2.59953 0
M  V30 5079 C 457.668 4.08854 2.53755 0
M  V30 5080 C 460.02 4.62431 2.40431 0
M  V30 5081 C 457.348 5.41417 2.26018 0
M  V30 5082 C 459.7 5.95225 2.14219 0
M  V30 5083 C 458.364 6.34767 2.06462 0
M  V30 5084 H 457.634 0.483196 0.561785 0
M  V30 5085 H 460.281 1.69284 0.895268 0
M  V30 5086 H 458.586 1.75809 3.50141 0
M  V30 5087 H 460.283 2.13458 3.39465 0
M  V30 5088 H 456.873 3.36354 2.65638 0
M  V30 5089 H 461.057 4.32057 2.44213 0
M  V30 5090 H 456.313 5.71022 2.18504 0
M  V30 5091 H 460.487 6.67626 1.98112 0
M  V30 5092 H 458.114 7.37413 1.84733 0
M  V30 5093 N 459.689 -1.00246 1.21608 0
M  V30 5094 C 461.1 -1.55511 1.03312 0
M  V30 5095 C 461.451 -1.91946 -0.406332 0
M  V30 5096 O 460.576 -1.73753 -1.28992 0
M  V30 5097 C 461.171 -2.82576 1.86913 0
M  V30 5098 C 459.73 -3.34318 1.72941 0
M  V30 5099 C 458.877 -2.07487 1.83968 0
M  V30 5100 H 461.828 -0.824638 1.35593 0
M  V30 5101 H 461.849 -3.54559 1.38087 0
M  V30 5102 H 461.361 -2.56026 2.91672 0
M  V30 5103 H 459.462 -3.65797 0.70877 0
M  V30 5104 H 459.575 -4.05566 2.55055 0
M  V30 5105 H 457.939 -2.20603 1.27304 0
M  V30 5106 H 458.722 -1.83346 2.9024 0
M  V30 5107 N 461.167 -1.02423 -1.1978 0
M  V30 5108 C 462.097 -0.62157 -2.25075 0
M  V30 5109 C 463.078 0.367148 -1.6609 0
M  V30 5110 O 464.263 0.250892 -1.92573 0
M  V30 5111 C 461.393 0.0331826 -3.47284 0
M  V30 5112 C 460.347 -0.877323 -4.18912 0
M  V30 5113 C 459.673 -0.0879296 -5.34628 0
M  V30 5114 C 460.973 -2.18892 -4.74219 0
M  V30 5115 H 462.667 -1.50179 -2.59011 0
M  V30 5116 H 460.213 -0.723547 -1.24502 0
M  V30 5117 H 462.166 0.326488 -4.20133 0
M  V30 5118 H 460.89 0.948164 -3.12534 0
M  V30 5119 H 459.549 -1.15475 -3.47938 0
M  V30 5120 H 459.197 0.828941 -4.96123 0
M  V30 5121 H 458.897 -0.694359 -5.83483 0
M  V30 5122 H 460.421 0.198743 -6.10276 0
M  V30 5123 H 461.835 -1.95746 -5.38847 0
M  V30 5124 H 460.232 -2.74686 -5.33542 0
M  V30 5125 H 461.302 -2.84674 -3.92541 0
M  V30 5126 N 462.645 1.35699 -0.801477 0
M  V30 5127 C 463.575 2.32436 -0.222658 0
M  V30 5128 C 464.556 1.5723 0.649057 0
M  V30 5129 O 465.741 1.85324 0.580387 0
M  V30 5130 C 462.871 3.41469 0.633719 0
M  V30 5131 C 461.825 4.27774 -0.139083 0
M  V30 5132 C 461.151 5.28082 0.838666 0
M  V30 5133 C 462.451 5.04946 -1.33517 0
M  V30 5134 H 464.145 2.81094 -1.03086 0
M  V30 5135 H 461.691 1.35146 -0.497155 0
M  V30 5136 H 463.644 4.08143 1.04868 0
M  V30 5137 H 462.368 2.91408 1.47475 0
M  V30 5138 H 461.027 3.62673 -0.535156 0
M  V30 5139 H 460.675 4.7429 1.67506 0
M  V30 5140 H 460.375 5.86695 0.32594 0
M  V30 5141 H 461.899 5.97628 1.25194 0
M  V30 5142 H 463.313 5.64593 -0.995349 0
M  V30 5143 H 461.71 5.7303 -1.78202 0
M  V30 5144 H 462.78 4.35886 -2.12442 0
M  V30 5145 N 464.123 0.554532 1.47522 0
M  V30 5146 C 465.369 0.0295227 2.02779 0
M  V30 5147 C 465.702 -1.31582 1.42828 0
M  V30 5148 O 464.977 -1.85561 0.582872 0
M  V30 5149 C 465.26 -0.0664057 3.60039 0
M  V30 5150 C 465.113 1.30585 4.30427 0
M  V30 5151 C 466.432 -0.781162 4.33112 0
M  V30 5152 H 463.551 0.0122027 0.736899 0
M  V30 5153 H 466.193 0.716305 1.7598 0
M  V30 5154 H 464.343 -0.651307 3.83002 0
M  V30 5155 H 466.015 1.93374 4.18813 0
M  V30 5156 H 464.258 1.88125 3.90886 0
M  V30 5157 H 464.929 1.19147 5.38988 0
M  V30 5158 H 467.405 -0.284565 4.15126 0
M  V30 5159 H 466.281 -0.817237 5.42782 0
M  V30 5160 H 466.542 -1.83672 4.0214 0
M  V30 5161 N 465.601 -1.54893 0.290851 0
M  V30 5162 C 466.564 -2.21824 -0.576784 0
M  V30 5163 C 467.564 -1.20104 -1.06919 0
M  V30 5164 O 468.754 -1.44906 -0.966843 0
M  V30 5165 C 465.886 -2.89662 -1.79747 0
M  V30 5166 H 467.079 -2.99899 0.00784051 0
M  V30 5167 H 464.632 -1.56245 0.0415934 0
M  V30 5168 H 465.367 -2.15639 -2.42219 0
M  V30 5169 H 465.152 -3.64219 -1.45214 0
M  V30 5170 H 466.642 -3.4075 -2.4141 0
M  V30 5171 N 467.08 -0.0183926 -1.57589 0
M  V30 5172 C 468.31 0.67207 -1.95363 0
M  V30 5173 C 468.718 1.66807 -0.892872 0
M  V30 5174 O 468.061 1.83204 0.134958 0
M  V30 5175 C 468.123 1.44397 -3.29226 0
M  V30 5176 C 467.787 0.607511 -4.52944 0
M  V30 5177 C 468.784 -0.112657 -5.19778 0
M  V30 5178 C 466.469 0.548068 -4.99301 0
M  V30 5179 C 468.463 -0.881057 -6.31281 0
M  V30 5180 C 466.15 -0.224044 -6.10689 0
M  V30 5181 C 467.148 -0.937323 -6.76538 0
M  V30 5182 O 466.836 -1.6968 -7.85789 0
M  V30 5183 H 466.568 0.190925 -0.648478 0
M  V30 5184 H 469.122 -0.0711994 -2.05277 0
M  V30 5185 H 467.352 2.23214 -3.15773 0
M  V30 5186 H 469.041 2.02152 -3.51979 0
M  V30 5187 H 469.807 -0.0759998 -4.8494 0
M  V30 5188 H 465.686 1.09281 -4.4786 0
M  V30 5189 H 469.23 -1.43832 -6.82611 0
M  V30 5190 H 465.127 -0.262457 -6.44966 0
M  V30 5191 H 465.895 -1.61544 -8.024 0
M  V30 5192 N 468.558 1.5553 0.254621 0
M  V30 5193 C 469.804 1.7818 0.980989 0
M  V30 5194 C 470.159 0.586059 1.83257 0
M  V30 5195 O 469.452 -0.420889 1.8692 0
M  V30 5196 C 469.646 3.03891 1.88109 0
M  V30 5197 C 469.475 4.35578 1.11812 0
M  V30 5198 C 468.245 4.98497 0.826343 0
M  V30 5199 C 470.443 5.11869 0.499486 0
M  V30 5200 N 468.425 6.13888 0.0385095 0
M  V30 5201 C 469.796 6.1981 -0.153292 0
M  V30 5202 C 471.851 4.96216 0.409175 0
M  V30 5203 C 470.554 7.13801 -0.8877 0
M  V30 5204 C 472.58 5.90578 -0.311683 0
M  V30 5205 C 471.942 6.97922 -0.953129 0
M  V30 5206 H 468.041 0.704057 0.340335 0
M  V30 5207 H 470.625 1.93025 0.254855 0
M  V30 5208 H 468.796 2.90389 2.57932 0
M  V30 5209 H 470.528 3.14869 2.54244 0
M  V30 5210 H 467.283 4.59769 1.13621 0
M  V30 5211 H 467.707 6.76129 -0.343275 0
M  V30 5212 H 472.349 4.1331 0.890765 0
M  V30 5213 H 470.067 7.96214 -1.38092 0
M  V30 5214 H 473.653 5.80544 -0.382125 0
M  V30 5215 H 472.533 7.69681 -1.50203 0
M  V30 5216 N 470.036 -0.519951 1.48776 0
M  V30 5217 C 470.946 -1.65025 1.66745 0
M  V30 5218 C 471.962 -1.6508 0.549954 0
M  V30 5219 O 473.138 -1.83848 0.822295 0
M  V30 5220 C 470.203 -3.0146 1.71238 0
M  V30 5221 C 469.264 -3.12182 2.94688 0
M  V30 5222 C 468.497 -4.42109 2.98958 0
M  V30 5223 O 468.72 -5.29799 2.1135 0
M  V30 5224 O 467.654 -4.57406 3.91233 0
M  V30 5225 H 471.48 -1.52801 2.62461 0
M  V30 5226 H 469.065 -0.694157 1.32294 0
M  V30 5227 H 470.947 -3.82584 1.76657 0
M  V30 5228 H 469.622 -3.13988 0.786975 0
M  V30 5229 H 468.529 -2.30316 2.94797 0
M  V30 5230 H 469.862 -3.04574 3.86646 0
M  V30 5231 N 471.514 -1.37532 -0.769588 0
M  V30 5232 C 472.461 -1.3347 -1.88293 0
M  V30 5233 C 473.431 -0.199891 -1.64893 0
M  V30 5234 O 474.616 -0.389594 -1.8678 0
M  V30 5235 C 471.756 -1.14968 -3.25387 0
M  V30 5236 C 470.869 -2.37698 -3.60727 0
M  V30 5237 C 470.004 -2.12051 -4.8704 0
M  V30 5238 C 469.043 -3.30636 -5.15117 0
M  V30 5239 N 468.18 -3.04527 -6.3262 0
M  V30 5240 H 473.02 -2.28658 -1.911 0
M  V30 5241 H 470.557 -1.13622 -0.934257 0
M  V30 5242 H 472.515 -1.02261 -4.04473 0
M  V30 5243 H 471.145 -0.234263 -3.21949 0
M  V30 5244 H 470.197 -2.61137 -2.76608 0
M  V30 5245 H 471.509 -3.26131 -3.77413 0
M  V30 5246 H 470.663 -1.96388 -5.74035 0
M  V30 5247 H 469.402 -1.20959 -4.72462 0
M  V30 5248 H 468.407 -3.46836 -4.26597 0
M  V30 5249 H 469.632 -4.22582 -5.31603 0
M  V30 5250 H 467.578 -2.16067 -6.19396 0
M  V30 5251 H 467.495 -3.86503 -6.49732 0
M  V30 5252 H 468.763 -2.92485 -7.22546 0
M  V30 5253 N 472.992 0.995999 -1.22138 0
M  V30 5254 C 474.22 1.77066 -1.07029 0
M  V30 5255 C 474.635 1.8495 0.379357 0
M  V30 5256 O 473.992 1.3174 1.26297 0
M  V30 5257 C 474.043 3.20533 -1.67155 0
M  V30 5258 O 473.764 3.13082 -3.06449 0
M  V30 5259 C 475.265 4.14461 -1.5728 0
M  V30 5260 H 472.485 0.556179 -0.375374 0
M  V30 5261 H 475.029 1.25238 -1.61666 0
M  V30 5262 H 473.184 3.6944 -1.16589 0
M  V30 5263 H 473.598 4.03283 -3.35355 0
M  V30 5264 H 475.072 5.1289 -2.04078 0
M  V30 5265 H 475.549 4.36005 -0.528795 0
M  V30 5266 H 476.155 3.71449 -2.07136 0
M  V30 5267 N 474.47 1.03057 1.19235 0
M  V30 5268 C 475.717 0.728019 1.88961 0
M  V30 5269 C 476.045 -0.743515 1.79728 0
M  V30 5270 O 475.3 -1.55729 1.1852 0
M  V30 5271 C 475.599 1.1268 3.39172 0
M  V30 5272 C 475.265 2.5969 3.68608 0
M  V30 5273 C 473.927 2.99854 3.76352 0
M  V30 5274 C 476.279 3.54793 3.81801 0
M  V30 5275 C 473.607 4.34031 3.94758 0
M  V30 5276 C 475.959 4.88675 4.0172 0
M  V30 5277 C 474.623 5.28526 4.07697 0
M  V30 5278 H 473.893 0.266401 0.691456 0
M  V30 5279 H 476.54 1.29373 1.41191 0
M  V30 5280 H 474.845 0.479722 3.88852 0
M  V30 5281 H 476.542 0.870203 3.91444 0
M  V30 5282 H 473.132 2.27575 3.63191 0
M  V30 5283 H 477.316 3.24914 3.7516 0
M  V30 5284 H 472.572 4.6444 3.97625 0
M  V30 5285 H 476.746 5.6228 4.1087 0
M  V30 5286 H 474.373 6.32506 4.21712 0
M  V30 5287 N 475.948 -1.35272 0.808662 0
M  V30 5288 C 476.895 -2.29764 0.218482 0
M  V30 5289 C 477.865 -1.52911 -0.648652 0
M  V30 5290 O 479.05 -1.81341 -0.593297 0
M  V30 5291 C 476.19 -3.39388 -0.625282 0
M  V30 5292 C 475.303 -4.31202 0.262516 0
M  V30 5293 C 474.438 -5.27919 -0.589451 0
M  V30 5294 C 473.477 -6.11371 0.298617 0
M  V30 5295 N 472.614 -7.0022 -0.513443 0
M  V30 5296 H 477.454 -2.79645 1.02968 0
M  V30 5297 H 474.991 -1.37629 0.519303 0
M  V30 5298 H 476.949 -4.01615 -1.12966 0
M  V30 5299 H 475.579 -2.90777 -1.40173 0
M  V30 5300 H 474.631 -3.69962 0.885013 0
M  V30 5301 H 475.943 -4.89748 0.945971 0
M  V30 5302 H 475.097 -5.95529 -1.15888 0
M  V30 5303 H 473.836 -4.69875 -1.30647 0
M  V30 5304 H 472.841 -5.42707 0.880301 0
M  V30 5305 H 474.066 -6.71494 1.01352 0
M  V30 5306 H 472.012 -6.44662 -1.21439 0
M  V30 5307 H 471.929 -7.55917 0.111922 0
M  V30 5308 H 473.197 -7.72175 -1.06608 0
M  V30 5309 N 477.426 -0.562348 -1.47226 0
M  V30 5310 C 478.675 -0.038041 -2.01664 0
M  V30 5311 C 478.988 1.32199 -1.44162 0
M  V30 5312 O 480.194 1.9365 -1.90294 0
M  V30 5313 C 478.65 -0.0174958 -3.59896 0
M  V30 5314 C 478.258 -1.3746 -4.2639 0
M  V30 5315 C 480.002 0.453934 -4.22066 0
M  V30 5316 C 477.909 -1.31289 -5.76643 0
M  V30 5317 H 476.839 -0.0104511 -0.753928 0
M  V30 5318 H 479.49 -0.710966 -1.69167 0
M  V30 5319 H 477.872 0.721182 -3.89378 0
M  V30 5320 H 479.046 -2.1314 -4.08544 0
M  V30 5321 H 477.361 -1.78438 -3.7623 0
M  V30 5322 H 479.958 0.518584 -5.32179 0
M  V30 5323 H 480.301 1.46706 -3.89594 0
M  V30 5324 H 480.834 -0.230044 -3.97134 0
M  V30 5325 H 477.573 -2.30217 -6.13743 0
M  V30 5326 H 477.093 -0.597973 -5.96812 0
M  V30 5327 H 478.772 -1.01713 -6.38955 0
M  V30 5328 N 478.904 1.54736 -0.299062 0
M  V30 5329 C 480.181 1.92187 0.363802 0
M  V30 5330 C 480.561 1.22607 1.71845 0
M  V30 5331 O 479.909 0.361141 2.25628 0
M  V30 5332 C 480.119 3.45678 0.480377 0
M  V30 5333 C 481.467 4.17885 0.752147 0
M  V30 5334 O 482.491 3.51702 0.564264 0
M  V30 5335 O 481.35 5.35048 1.11294 0
M  V30 5336 H 478.444 0.801681 0.203066 0
M  V30 5337 H 480.99 1.66115 -0.346978 0
M  V30 5338 H 479.762 3.88443 -0.471999 0
M  V30 5339 H 479.385 3.77779 1.2397 0
M  V30 5340 N 480.382 0.0267497 1.57577 0
M  V30 5341 C 481.312 -0.954308 2.13108 0
M  V30 5342 C 482.293 -1.34088 1.04663 0
M  V30 5343 O 483.478 -1.41992 1.32484 0
M  V30 5344 C 480.608 -2.23744 2.65624 0
M  V30 5345 C 479.562 -1.99168 3.78835 0
M  V30 5346 C 478.888 -3.33726 4.17769 0
M  V30 5347 C 480.188 -1.33277 5.0501 0
M  V30 5348 H 481.882 -0.491848 2.95332 0
M  V30 5349 H 479.428 -0.23514 1.42067 0
M  V30 5350 H 481.381 -2.92754 3.03106 0
M  V30 5351 H 480.105 -2.72151 1.80558 0
M  V30 5352 H 478.764 -1.32577 3.41788 0
M  V30 5353 H 478.412 -3.79888 3.29688 0
M  V30 5354 H 478.112 -3.18089 4.94058 0
M  V30 5355 H 479.636 -4.04008 4.57832 0
M  V30 5356 H 481.05 -1.92283 5.40093 0
M  V30 5357 H 479.447 -1.28045 5.8628 0
M  V30 5358 H 480.517 -0.305411 4.83937 0
M  V30 5359 N 481.861 -1.55662 -0.24637 0
M  V30 5360 C 483.108 -1.77519 -0.974335 0
M  V30 5361 C 483.436 -0.591165 -1.85298 0
M  V30 5362 O 482.691 0.425497 -1.91018 0
M  V30 5363 C 482.99 -3.04885 -1.86494 0
M  V30 5364 C 482.656 -4.36209 -1.14161 0
M  V30 5365 C 481.318 -4.71896 -0.941701 0
M  V30 5366 C 483.67 -5.17391 -0.628957 0
M  V30 5367 C 480.998 -5.86299 -0.216852 0
M  V30 5368 C 483.35 -6.32546 0.0824273 0
M  V30 5369 C 482.014 -6.66853 0.293807 0
M  V30 5370 H 481.284 -0.649588 -0.356535 0
M  V30 5371 H 483.931 -1.89934 -0.244394 0
M  V30 5372 H 482.236 -2.87484 -2.66196 0
M  V30 5373 H 483.933 -3.18994 -2.42989 0
M  V30 5374 H 480.523 -4.08174 -1.30736 0
M  V30 5375 H 484.707 -4.90276 -0.770943 0
M  V30 5376 H 479.963 -6.11385 -0.0426124 0
M  V30 5377 H 484.137 -6.94693 0.487292 0
M  V30 5378 H 481.764 -7.55349 0.857428 0
M  V30 5379 N 483.339 0.512053 -1.4905 0
M  V30 5380 C 484.755 0.84224 -1.35567 0
M  V30 5381 C 484.955 1.97878 -0.380319 0
M  V30 5382 O 484.011 2.51769 0.19201 0
M  V30 5383 C 485.324 1.19286 -2.76028 0
M  V30 5384 C 486.872 1.30171 -2.84648 0
M  V30 5385 C 487.347 1.68568 -4.25851 0
M  V30 5386 N 488.838 1.75638 -4.28609 0
M  V30 5387 C 489.573 2.06769 -5.34821 0
M  V30 5388 N 489.069 2.36201 -6.51292 0
M  V30 5389 N 490.862 2.07927 -5.22229 0
M  V30 5390 H 483.013 -0.237574 -2.11067 0
M  V30 5391 H 485.276 -0.0436747 -0.946993 0
M  V30 5392 H 484.982 0.431199 -3.49047 0
M  V30 5393 H 484.856 2.13889 -3.10695 0
M  V30 5394 H 487.243 2.05411 -2.11873 0
M  V30 5395 H 487.324 0.336457 -2.53578 0
M  V30 5396 H 486.968 0.938824 -4.99148 0
M  V30 5397 H 486.898 2.66174 -4.54377 0
M  V30 5398 H 489.389 1.55097 -3.44606 0
M  V30 5399 H 489.702 2.59112 -7.28066 0
M  V30 5400 H 488.047 2.33681 -6.54536 0
M  V30 5401 H 491.238 1.84403 -4.30248 0
M  V30 5402 H 491.411 2.31856 -6.05101 0
M  V30 5403 N 484.817 1.37938 0.762283 0
M  V30 5404 C 486.228 1.30094 1.33912 0
M  V30 5405 C 486.579 -0.0472026 1.96143 0
M  V30 5406 O 485.704 -0.94917 1.94473 0
M  V30 5407 C 486.299 2.35592 2.43478 0
M  V30 5408 C 484.858 2.31353 2.96905 0
M  V30 5409 C 484.005 2.18919 1.70205 0
M  V30 5410 H 486.956 1.48423 0.561816 0
M  V30 5411 H 486.977 2.00806 3.23199 0
M  V30 5412 H 486.489 3.33701 1.98155 0
M  V30 5413 H 484.59 1.36799 3.46579 0
M  V30 5414 H 484.703 3.25147 3.51875 0
M  V30 5415 H 483.067 1.65624 1.93496 0
M  V30 5416 H 483.85 3.18956 1.26973 0
M  V30 5417 N 486.295 -0.989507 1.22664 0
M  V30 5418 C 487.227 -2.0824 0.957542 0
M  V30 5419 C 488.24 -1.6267 -0.0651098 0
M  V30 5420 O 489.429 -1.77695 0.169312 0
M  V30 5421 C 486.529 -3.36298 0.419145 0
M  V30 5422 C 485.702 -4.10882 1.49982 0
M  V30 5423 C 484.761 -5.17221 0.967904 0
M  V30 5424 O 483.787 -5.44613 1.65487 0
M  V30 5425 N 484.989 -5.80124 -0.20896 0
M  V30 5426 H 487.754 -2.31904 1.89843 0
M  V30 5427 H 485.315 -1.15552 1.13399 0
M  V30 5428 H 487.307 -4.04671 0.0485451 0
M  V30 5429 H 485.877 -3.09671 -0.426937 0
M  V30 5430 H 485.097 -3.37092 2.04359 0
M  V30 5431 H 486.385 -4.57482 2.22682 0
M  V30 5432 H 485.783 -5.60244 -0.783818 0
M  V30 5433 H 484.34 -6.49715 -0.520913 0
M  V30 5434 N 487.773 -1.03688 -1.18687 0
M  V30 5435 C 489.022 -0.733235 -1.879 0
M  V30 5436 C 489.335 0.741745 -1.8099 0
M  V30 5437 O 490.541 1.15875 -2.4553 0
M  V30 5438 C 488.997 -1.26127 -3.37076 0
M  V30 5439 C 488.605 -2.76461 -3.52524 0
M  V30 5440 C 490.349 -1.03398 -4.11715 0
M  V30 5441 C 488.256 -3.22642 -4.95637 0
M  V30 5442 H 487.186 -0.270584 -0.703776 0
M  V30 5443 H 489.837 -1.25222 -1.34133 0
M  V30 5444 H 488.219 -0.670165 -3.90288 0
M  V30 5445 H 489.393 -3.41296 -3.09602 0
M  V30 5446 H 487.708 -2.97559 -2.91286 0
M  V30 5447 H 490.305 -1.3542 -5.17267 0
M  V30 5448 H 490.648 0.0289246 -4.1629 0
M  V30 5449 H 491.181 -1.5895 -3.64664 0
M  V30 5450 H 487.92 -4.28296 -4.96228 0
M  V30 5451 H 487.44 -2.62539 -5.39289 0
M  V30 5452 H 489.119 -3.16444 -5.64333 0
M  V30 5453 N 489.251 1.34841 -0.815825 0
M  V30 5454 C 490.499 1.98107 -0.399744 0
M  V30 5455 C 490.82 1.65019 1.03894 0
M  V30 5456 O 490.09 0.937311 1.72021 0
M  V30 5457 H 488.67 0.732827 -0.144823 0
M  V30 5458 H 491.332 1.64599 -1.0437 0
M  V30 5459 H 490.428 3.07856 -0.512965 0
M  V30 5460 N 490.729 0.570148 1.46925 0
M  V30 5461 C 491.975 0.0510284 2.02736 0
M  V30 5462 C 492.308 -1.3006 1.44215 0
M  V30 5463 O 491.583 -1.84932 0.602521 0
M  V30 5464 C 491.866 -0.028215 3.60089 0
M  V30 5465 C 491.719 1.35142 4.29018 0
M  V30 5466 C 493.038 -0.735181 4.33916 0
M  V30 5467 H 490.157 0.0200178 0.736728 0
M  V30 5468 H 492.799 0.73493 1.75211 0
M  V30 5469 H 490.949 -0.610648 3.83671 0
M  V30 5470 H 492.621 1.97806 4.16738 0
M  V30 5471 H 490.864 1.9226 3.88868 0
M  V30 5472 H 491.535 1.24857 5.37694 0
M  V30 5473 H 494.011 -0.240519 4.15404 0
M  V30 5474 H 492.887 -0.759622 5.43618 0
M  V30 5475 H 493.148 -1.79397 4.04066 0
M  V30 5476 N 492.207 -1.54576 0.307264 0
M  V30 5477 C 493.453 -2.0056 -0.300612 0
M  V30 5478 C 493.786 -1.1953 -1.53057 0
M  V30 5479 O 493.061 -0.27337 -1.92569 0
M  V30 5480 C 493.344 -3.54167 -0.650987 0
M  V30 5481 C 493.197 -4.45933 0.588539 0
M  V30 5482 C 494.516 -4.14645 -1.47506 0
M  V30 5483 H 491.635 -0.729075 -0.107788 0
M  V30 5484 H 494.277 -1.85286 0.420606 0
M  V30 5485 H 492.427 -3.67313 -1.26544 0
M  V30 5486 H 494.099 -4.44683 1.22697 0
M  V30 5487 H 492.342 -4.16274 1.22058 0
M  V30 5488 H 493.013 -5.51189 0.299153 0
M  V30 5489 H 495.489 -4.04973 -0.955821 0
M  V30 5490 H 494.365 -5.22269 -1.68899 0
M  V30 5491 H 494.626 -3.66921 -2.4662 0
M  V30 5492 N 493.685 -0.035106 -1.57561 0
M  V30 5493 C 494.633 0.962707 -2.11742 0
M  V30 5494 C 495.627 1.33296 -1.0454 0
M  V30 5495 O 496.833 1.31449 -1.22968 0
M  V30 5496 H 493.208 0.32826 -0.676572 0
M  V30 5497 H 495.179 0.48048 -2.94506 0
M  V30 5498 C 493.928 2.23388 -2.66445 0
M  V30 5499 H 493.251 1.95774 -3.48587 0
M  V30 5500 H 494.691 2.91402 -3.07995 0
M  V30 5501 C 493.15 2.96769 -1.59467 0
M  V30 5502 O 493.68 3.89105 -0.998 0
M  V30 5503 N 491.886 2.59212 -1.31369 0
M  V30 5504 H 491.433 1.84202 -1.80076 0
M  V30 5505 H 491.391 3.08618 -0.600173 0
M  V30 5506 N 495.163 1.55791 0.238111 0
M  V30 5507 C 496.409 1.78297 0.966337 0
M  V30 5508 C 496.742 0.601903 1.84637 0
M  V30 5509 O 496.017 -0.399499 1.90353 0
M  V30 5510 C 496.3 3.10758 1.81939 0
M  V30 5511 C 496.153 4.39283 0.966958 0
M  V30 5512 C 497.472 3.39519 2.80027 0
M  V30 5513 H 494.591 0.648654 0.349882 0
M  V30 5514 H 497.233 1.88525 0.236253 0
M  V30 5515 H 495.383 3.02168 2.44185 0
M  V30 5516 H 497.055 4.59873 0.362514 0
M  V30 5517 H 495.298 4.32948 0.271669 0
M  V30 5518 H 495.969 5.28368 1.59784 0
M  V30 5519 H 498.445 3.48128 2.27917 0
M  V30 5520 H 497.321 4.33402 3.36829 0
M  V30 5521 H 497.582 2.60864 3.56934 0
M  V30 5522 N 496.642 -0.504142 1.49319 0
M  V30 5523 C 497.87 -1.28256 1.62351 0
M  V30 5524 C 498.285 -1.86502 0.293682 0
M  V30 5525 O 497.642 -1.67678 -0.720449 0
M  V30 5526 C 497.693 -2.41507 2.68992 0
M  V30 5527 O 497.414 -1.85656 3.96817 0
M  V30 5528 C 498.915 -3.32929 2.927 0
M  V30 5529 H 496.135 -0.389115 0.546654 0
M  V30 5530 H 498.679 -0.605531 1.95329 0
M  V30 5531 H 496.834 -3.05046 2.38801 0
M  V30 5532 H 497.248 -2.59981 4.55533 0
M  V30 5533 H 498.722 -4.0868 3.71058 0
M  V30 5534 H 499.199 -3.89733 2.02496 0
M  V30 5535 H 499.805 -2.75158 3.24296 0
M  V30 5536 N 498.12 -1.38341 -0.754957 0
M  V30 5537 C 499.397 -1.24995 -1.50451 0
M  V30 5538 C 499.777 0.149244 -2.10572 0
M  V30 5539 O 499.125 1.15861 -1.96948 0
M  V30 5540 C 499.335 -2.35904 -2.57197 0
M  V30 5541 C 500.683 -2.74262 -3.24138 0
M  V30 5542 O 501.707 -2.35205 -2.67501 0
M  V30 5543 O 500.566 -3.4161 -4.26574 0
M  V30 5544 H 497.66 -0.48872 -0.667144 0
M  V30 5545 H 500.206 -1.50165 -0.790486 0
M  V30 5546 H 498.978 -3.2953 -2.11011 0
M  V30 5547 H 498.601 -2.12291 -3.36182 0
M  V30 5548 N 499.598 0.982988 -1.23187 0
M  V30 5549 C 500.561 2.05649 -1.01198 0
M  V30 5550 C 501.561 1.6078 0.0252464 0
M  V30 5551 O 502.751 1.72878 -0.214243 0
M  V30 5552 C 499.883 3.36744 -0.530656 0
M  V30 5553 H 501.076 2.2659 -1.96461 0
M  V30 5554 H 498.629 1.15602 -1.05195 0
M  V30 5555 H 499.364 3.21492 0.425873 0
M  V30 5556 H 499.149 3.7065 -1.2791 0
M  V30 5557 H 500.639 4.15705 -0.397366 0
M  V30 5558 N 501.076 1.04316 1.18135 0
M  V30 5559 C 502.353 0.662166 1.84051 0
M  V30 5560 C 502.733 -0.858169 1.9287 0
M  V30 5561 O 502.081 -1.76062 1.45652 0
M  V30 5562 C 502.291 1.3409 3.22212 0
M  V30 5563 C 503.639 1.4733 3.9822 0
M  V30 5564 O 504.663 1.29921 3.31661 0
M  V30 5565 O 503.522 1.75722 5.17479 0
M  V30 5566 H 500.616 0.232005 0.79379 0
M  V30 5567 H 503.162 1.1422 1.25506 0
M  V30 5568 H 501.934 2.37853 3.10711 0
M  V30 5569 H 501.557 0.849649 3.88416 0
M  V30 5570 N 502.554 -1.34406 0.822964 0
M  V30 5571 C 503.779 -2.0304 0.423034 0
M  V30 5572 C 504.204 -1.61568 -0.963196 0
M  V30 5573 O 503.562 -0.800339 -1.62678 0
M  V30 5574 C 503.61 -3.56636 0.53321 0
M  V30 5575 O 502.714 -4.09971 -0.446939 0
M  V30 5576 H 502.055 -0.64075 0.174171 0
M  V30 5577 H 504.585 -1.71653 1.11339 0
M  V30 5578 H 504.595 -4.05945 0.408991 0
M  V30 5579 H 503.27 -3.86168 1.54425 0
M  V30 5580 H 501.847 -3.71835 -0.281601 0
M  V30 5581 N 504.032 -0.577932 -1.46621 0
M  V30 5582 C 505.278 -0.0617793 -2.02706 0
M  V30 5583 C 505.611 1.29294 -1.44903 0
M  V30 5584 O 504.886 1.8461 -0.61232 0
M  V30 5585 C 505.169 0.00911824 -3.60099 0
M  V30 5586 C 505.022 -1.37416 -4.28295 0
M  V30 5587 C 506.341 0.712159 -4.343 0
M  V30 5588 H 503.46 -0.0239246 -0.736612 0
M  V30 5589 H 506.102 -0.744211 -1.74818 0
M  V30 5590 H 504.252 0.590292 -3.83989 0
M  V30 5591 H 505.924 -2.00013 -4.15683 0
M  V30 5592 H 504.167 -1.94319 -3.87843 0
M  V30 5593 H 504.838 -1.27707 -5.37024 0
M  V30 5594 H 507.314 0.218486 -4.15526 0
M  V30 5595 H 506.19 0.730782 -5.44014 0
M  V30 5596 H 506.451 1.77251 -4.05012 0
M  V30 5597 N 505.51 1.54411 -0.315457 0
M  V30 5598 C 506.756 2.01425 0.282775 0
M  V30 5599 C 507.111 1.19978 1.5041 0
M  V30 5600 O 506.404 0.271766 1.89663 0
M  V30 5601 C 506.598 3.50936 0.676652 0
M  V30 5602 C 506.427 4.46856 -0.504954 0
M  V30 5603 C 505.197 4.95275 -1.00152 0
M  V30 5604 C 507.395 4.96141 -1.35456 0
M  V30 5605 N 505.377 5.75081 -2.14838 0
M  V30 5606 C 506.748 5.73791 -2.3487 0
M  V30 5607 C 508.803 4.78299 -1.38327 0
M  V30 5608 C 507.506 6.35498 -3.36949 0
M  V30 5609 C 509.532 5.40836 -2.39271 0
M  V30 5610 C 508.894 6.1833 -3.37413 0
M  V30 5611 H 504.993 0.779078 0.0675398 0
M  V30 5612 H 507.577 1.8946 -0.448656 0
M  V30 5613 H 505.748 3.63162 1.37723 0
M  V30 5614 H 507.48 3.84728 1.25566 0
M  V30 5615 H 504.235 4.70107 -0.574123 0
M  V30 5616 H 504.659 6.19664 -2.72665 0
M  V30 5617 H 509.301 4.17956 -0.638196 0
M  V30 5618 H 507.019 6.94967 -4.12367 0
M  V30 5619 H 510.605 5.28952 -2.42284 0
M  V30 5620 H 509.485 6.65861 -4.14244 0
M  V30 5621 N 506.988 0.0434614 1.5754 0
M  V30 5622 C 507.921 -0.968729 2.06618 0
M  V30 5623 C 508.899 -1.30868 0.965 0
M  V30 5624 O 510.083 -1.42288 1.23638 0
M  V30 5625 C 507.21 -2.28486 2.50023 0
M  V30 5626 C 506.256 -2.09851 3.71302 0
M  V30 5627 S 507.089 -1.38401 5.17306 0
M  V30 5628 C 508.245 -2.71354 5.64019 0
M  V30 5629 H 508.478 -0.551021 2.92149 0
M  V30 5630 H 506.011 -0.168607 1.53477 0
M  V30 5631 H 507.969 -3.04142 2.75695 0
M  V30 5632 H 506.63 -2.67387 1.64812 0
M  V30 5633 H 505.823 -3.07184 3.99567 0
M  V30 5634 H 505.425 -1.42336 3.45856 0
M  V30 5635 H 507.717 -3.67549 5.69134 0
M  V30 5636 H 508.66 -2.47734 6.6335 0
M  V30 5637 H 509.068 -2.77259 4.91719 0
M  V30 5638 N 508.466 -1.55915 -0.229846 0
M  V30 5639 C 509.376 -1.94891 -1.30593 0
M  V30 5640 C 510.392 -0.851604 -1.51736 0
M  V30 5641 O 511.568 -1.15447 -1.65027 0
M  V30 5642 C 508.633 -2.25052 -2.63728 0
M  V30 5643 C 507.694 -3.48306 -2.5096 0
M  V30 5644 C 506.927 -3.77019 -3.77747 0
M  V30 5645 O 507.15 -3.07534 -4.80395 0
M  V30 5646 O 506.084 -4.70523 -3.75356 0
M  V30 5647 H 509.91 -2.86581 -1.00525 0
M  V30 5648 H 507.495 -1.43017 -0.432025 0
M  V30 5649 H 509.377 -2.45682 -3.42372 0
M  V30 5650 H 508.052 -1.36538 -2.93495 0
M  V30 5651 H 506.959 -3.32964 -1.70546 0
M  V30 5652 H 508.292 -4.37177 -2.26136 0
M  V30 5653 N 509.944 0.496216 -1.49584 0
M  V30 5654 C 511.193 1.24668 -1.58558 0
M  V30 5655 C 511.506 1.9359 -0.279703 0
M  V30 5656 O 512.712 2.70365 -0.248048 0
M  V30 5657 C 511.168 2.26388 -2.79779 0
M  V30 5658 C 510.776 1.63384 -4.17145 0
M  V30 5659 C 512.52 3.02233 -2.98086 0
M  V30 5660 C 510.427 2.63243 -5.29582 0
M  V30 5661 H 509.357 0.468995 -0.590389 0
M  V30 5662 H 512.008 0.519985 -1.75978 0
M  V30 5663 H 510.39 3.02241 -2.55863 0
M  V30 5664 H 511.564 0.93491 -4.51216 0
M  V30 5665 H 509.879 0.999121 -4.04236 0
M  V30 5666 H 512.476 3.76919 -3.79257 0
M  V30 5667 H 512.819 3.60132 -2.08831 0
M  V30 5668 H 513.352 2.33495 -3.22063 0
M  V30 5669 H 510.091 2.10119 -6.20911 0
M  V30 5670 H 509.611 3.31363 -4.99959 0
M  V30 5671 H 511.29 3.25575 -5.59115 0
M  V30 5672 N 511.423 1.38739 0.74761 0
M  V30 5673 C 512.834 1.31507 1.32524 0
M  V30 5674 C 513.185 -0.0263963 1.96182 0
M  V30 5675 O 512.31 -0.92849 1.95469 0
M  V30 5676 C 512.905 2.38162 2.40966 0
M  V30 5677 C 511.464 2.34489 2.94434 0
M  V30 5678 C 510.611 2.20712 1.67873 0
M  V30 5679 H 513.562 1.4901 0.546043 0
M  V30 5680 H 513.583 2.04222 3.21051 0
M  V30 5681 H 513.095 3.35783 1.94605 0
M  V30 5682 H 511.196 1.40467 3.45108 0
M  V30 5683 H 511.309 3.28861 3.48407 0
M  V30 5684 H 509.673 1.67667 1.91729 0
M  V30 5685 H 510.456 3.20285 1.23582 0
M  V30 5686 N 512.901 -0.976442 1.23707 0
M  V30 5687 C 514.178 -1.69296 0.979699 0
M  V30 5688 C 514.558 -2.0508 -0.500555 0
M  V30 5689 O 513.906 -1.74708 -1.47273 0
M  V30 5690 C 514.116 -2.93143 1.89389 0
M  V30 5691 C 515.464 -3.65572 2.15968 0
M  V30 5692 O 516.488 -3.03184 1.86971 0
M  V30 5693 O 515.347 -4.77859 2.65167 0
M  V30 5694 H 512.441 -0.739708 0.369812 0
M  V30 5695 H 514.987 -1.03131 1.34767 0
M  V30 5696 H 513.759 -2.63327 2.89439 0
M  V30 5697 H 513.382 -3.67044 1.52854 0
M  V30 5698 N 514.379 -1.04941 -1.1758 0
M  V30 5699 C 515.656 -0.671918 -1.83697 0
M  V30 5700 C 516.036 0.847929 -1.93322 0
M  V30 5701 O 515.384 1.75287 -1.46583 0
M  V30 5702 C 515.594 -1.35797 -3.21497 0
M  V30 5703 C 516.942 -1.4944 -3.97433 0
M  V30 5704 O 517.966 -1.31678 -3.30967 0
M  V30 5705 O 516.825 -1.78463 -5.1654 0
M  V30 5706 H 513.919 -0.236212 -0.792548 0
M  V30 5707 H 516.465 -1.14884 -1.24899 0
M  V30 5708 H 515.237 -2.39498 -3.09446 0
M  V30 5709 H 514.86 -0.870236 -3.8796 0
M  V30 5710 N 515.857 1.33968 -0.830081 0
M  V30 5711 C 517.134 1.92554 -0.343858 0
M  V30 5712 C 517.514 1.7573 1.16971 0
M  V30 5713 O 516.862 1.14035 1.98011 0
M  V30 5714 C 517.072 3.40147 -0.781073 0
M  V30 5715 C 518.42 4.17299 -0.78402 0
M  V30 5716 O 519.444 3.48762 -0.724112 0
M  V30 5717 O 518.303 5.39631 -0.863739 0
M  V30 5718 H 515.397 0.821469 -0.0954827 0
M  V30 5719 H 517.943 1.42897 -0.915348 0
M  V30 5720 H 516.715 3.46225 -1.82329 0
M  V30 5721 H 516.338 3.97166 -0.18567 0
M  V30 5722 N 517.335 0.585699 1.46312 0
M  V30 5723 C 518.612 0.00542031 1.95599 0
M  V30 5724 C 518.992 -1.45619 1.52834 0
M  V30 5725 O 518.34 -2.14759 0.780446 0
M  V30 5726 C 518.55 0.180601 3.48532 0
M  V30 5727 C 519.898 0.049979 4.24571 0
M  V30 5728 O 520.922 0.109589 3.56031 0
M  V30 5729 O 519.781 -0.0832226 5.46437 0
M  V30 5730 H 516.875 -0.0481281 0.825598 0
M  V30 5731 H 519.421 0.654227 1.56582 0
M  V30 5732 H 518.193 1.19657 3.72556 0
M  V30 5733 H 517.816 -0.504498 3.94386 0
M  V30 5734 N 518.813 -1.54241 0.323641 0
M  V30 5735 C 519.743 -2.27289 -0.534993 0
M  V30 5736 C 520.724 -1.28087 -1.11927 0
M  V30 5737 O 521.909 -1.56899 -1.14439 0
M  V30 5738 C 519.039 -3.03075 -1.69596 0
M  V30 5739 C 517.993 -4.09614 -1.24098 0
M  V30 5740 C 517.319 -4.73242 -2.4889 0
M  V30 5741 C 518.619 -5.21087 -0.355789 0
M  V30 5742 H 520.313 -2.99308 0.0743257 0
M  V30 5743 H 517.859 -1.43952 0.0371874 0
M  V30 5744 H 519.812 -3.52907 -2.30293 0
M  V30 5745 H 518.536 -2.28673 -2.33187 0
M  V30 5746 H 517.195 -3.60666 -0.656945 0
M  V30 5747 H 516.843 -3.95455 -3.10845 0
M  V30 5748 H 516.543 -5.45209 -2.19138 0
M  V30 5749 H 518.067 -5.25848 -3.10348 0
M  V30 5750 H 519.481 -5.66675 -0.869042 0
M  V30 5751 H 517.878 -5.9991 -0.151045 0
M  V30 5752 H 518.948 -4.81005 0.613339 0
M  V30 5753 N 520.291 -0.0518155 -1.57515 0
M  V30 5754 C 521.702 0.483787 -1.80323 0
M  V30 5755 C 522.053 1.70879 -0.964099 0
M  V30 5756 O 521.178 2.15643 -0.180872 0
M  V30 5757 C 521.773 0.884459 -3.27052 0
M  V30 5758 C 520.332 1.36504 -3.50776 0
M  V30 5759 C 519.479 0.340539 -2.75201 0
M  V30 5760 H 522.43 -0.277691 -1.56252 0
M  V30 5761 H 522.451 1.74733 -3.38007 0
M  V30 5762 H 521.963 -0.00731093 -3.88099 0
M  V30 5763 H 520.064 2.27598 -2.95009 0
M  V30 5764 H 520.177 1.35675 -4.59488 0
M  V30 5765 H 518.541 0.81356 -2.41357 0
M  V30 5766 H 519.324 -0.543156 -3.38976 0
M  V30 5767 N 521.769 1.56035 0.221574 0
M  V30 5768 C 522.997 1.8313 0.962864 0
M  V30 5769 C 523.412 0.630934 1.77946 0
M  V30 5770 O 522.769 -0.400519 1.78051 0
M  V30 5771 C 522.82 3.08742 1.88045 0
M  V30 5772 O 522.541 4.24147 1.09686 0
M  V30 5773 C 524.042 3.48824 2.73563 0
M  V30 5774 H 521.262 0.608775 0.282194 0
M  V30 5775 H 523.806 2.03124 0.23681 0
M  V30 5776 H 521.961 2.90723 2.56045 0
M  V30 5777 H 522.375 4.95505 1.71974 0
M  V30 5778 H 523.849 4.39752 3.3365 0
M  V30 5779 H 524.326 2.70575 3.45956 0
M  V30 5780 H 524.932 3.69282 2.10976 0
M  V30 5781 N 523.247 -0.488276 1.49845 0
M  V30 5782 C 524.21 -1.57069 1.66919 0
M  V30 5783 C 525.21 -1.51445 0.540479 0
M  V30 5784 O 526.4 -1.5437 0.807188 0
M  V30 5785 C 523.532 -2.96718 1.67844 0
M  V30 5786 H 524.725 -1.43254 2.63474 0
M  V30 5787 H 522.278 -0.713435 1.39068 0
M  V30 5788 H 523.013 -3.15996 0.7292 0
M  V30 5789 H 522.798 -3.02208 2.49826 0
M  V30 5790 H 524.288 -3.75335 1.83066 0
M  V30 5791 N 524.725 -1.39134 -0.740242 0
M  V30 5792 C 525.635 -1.39697 -1.88473 0
M  V30 5793 C 526.651 -0.292403 -1.71526 0
M  V30 5794 O 527.827 -0.533021 -1.94219 0
M  V30 5795 C 524.892 -1.23382 -3.24003 0
M  V30 5796 C 523.953 -2.43763 -3.53381 0
M  V30 5797 C 523.186 -2.28216 -4.82445 0
M  V30 5798 O 523.409 -1.28288 -5.55786 0
M  V30 5799 O 522.343 -3.1709 -5.11603 0
M  V30 5800 H 526.169 -2.36159 -1.90952 0
M  V30 5801 H 523.754 -1.20194 -0.887346 0
M  V30 5802 H 525.636 -1.16395 -4.05006 0
M  V30 5803 H 524.311 -0.300121 -3.22306 0
M  V30 5804 H 523.218 -2.56325 -2.72485 0
M  V30 5805 H 524.551 -3.35808 -3.59852 0
M  V30 5806 N 526.204 0.969867 -1.24223 0
M  V30 5807 C 527.114 2.09806 -1.0497 0
M  V30 5808 C 528.13 1.73998 0.00886455 0
M  V30 5809 O 529.306 2.00513 -0.188848 0
M  V30 5810 C 526.371 3.40467 -0.654452 0
M  V30 5811 C 525.432 3.90236 -1.78926 0
M  V30 5812 C 524.665 5.14662 -1.41277 0
M  V30 5813 O 524.888 5.69602 -0.301632 0
M  V30 5814 O 523.822 5.58761 -2.23763 0
M  V30 5815 H 527.648 2.28942 -1.99548 0
M  V30 5816 H 525.233 1.08197 -1.03023 0
M  V30 5817 H 527.115 4.19039 -0.445452 0
M  V30 5818 H 525.79 3.22636 0.262216 0
M  V30 5819 H 524.697 3.12735 -2.05299 0
M  V30 5820 H 526.03 4.1254 -2.68462 0
M  V30 5821 N 527.682 1.05563 1.17022 0
M  V30 5822 C 528.612 0.681026 2.23348 0
M  V30 5823 C 529.593 -0.322983 1.67005 0
M  V30 5824 O 530.778 -0.199746 1.9317 0
M  V30 5825 C 527.908 0.0589053 3.4725 0
M  V30 5826 C 526.862 0.988082 4.16438 0
M  V30 5827 C 526.188 0.229646 5.34207 0
M  V30 5828 C 527.488 2.31388 4.68249 0
M  V30 5829 H 529.182 1.56993 2.54938 0
M  V30 5830 H 526.728 0.756302 1.2254 0
M  V30 5831 H 528.681 -0.214982 4.20851 0
M  V30 5832 H 527.405 -0.864968 3.14938 0
M  V30 5833 H 526.064 1.24659 3.44754 0
M  V30 5834 H 525.712 -0.697111 4.98146 0
M  V30 5835 H 525.412 0.848815 5.81437 0
M  V30 5836 H 526.936 -0.0368694 6.10589 0
M  V30 5837 H 528.35 2.09964 5.33468 0
M  V30 5838 H 526.747 2.88736 5.26072 0
M  V30 5839 H 527.817 2.94982 3.84855 0
M  V30 5840 N 529.16 -1.33526 0.837174 0
M  V30 5841 C 530.07 -2.33023 0.271568 0
M  V30 5842 C 531.086 -1.63272 -0.601514 0
M  V30 5843 O 532.262 -1.94939 -0.506038 0
M  V30 5844 C 529.327 -3.42382 -0.545448 0
M  V30 5845 C 528.388 -4.27857 0.351709 0
M  V30 5846 C 527.621 -5.31994 -0.426409 0
M  V30 5847 O 527.844 -5.45763 -1.65828 0
M  V30 5848 O 526.778 -6.01572 0.1987 0
M  V30 5849 H 530.604 -2.83256 1.09545 0
M  V30 5850 H 528.189 -1.36837 0.599655 0
M  V30 5851 H 530.071 -4.09122 -1.00979 0
M  V30 5852 H 528.746 -2.94369 -1.34641 0
M  V30 5853 H 527.653 -3.6399 0.863853 0
M  V30 5854 H 528.986 -4.79349 1.1174 0
M  V30 5855 N 530.638 -0.59345 -1.46 0
M  V30 5856 C 531.915 -0.0157933 -1.95594 0
M  V30 5857 C 532.295 1.44807 -1.53604 0
M  V30 5858 O 531.643 2.14342 -0.791824 0
M  V30 5859 C 531.853 -0.199081 -3.48432 0
M  V30 5860 C 533.201 -0.0724943 -4.24538 0
M  V30 5861 O 534.225 -0.128469 -3.55968 0
M  V30 5862 O 533.084 0.0542426 -5.46473 0
M  V30 5863 H 530.178 0.043749 -0.825842 0
M  V30 5864 H 532.724 -0.662522 -1.56233 0
M  V30 5865 H 531.496 -1.21631 -3.71916 0
M  V30 5866 H 531.119 0.483576 -3.94648 0
M  V30 5867 N 532.116 1.54067 -0.331816 0
M  V30 5868 C 533.362 2.01713 0.261395 0
M  V30 5869 C 533.717 1.21566 1.49129 0
M  V30 5870 O 533.01 0.291867 1.89364 0
M  V30 5871 C 533.204 3.51634 0.639392 0
M  V30 5872 C 533.033 4.46295 -0.552321 0
M  V30 5873 C 531.803 4.94185 -1.05399 0
M  V30 5874 C 534.001 4.94677 -1.40711 0
M  V30 5875 N 531.983 5.7277 -2.20925 0
M  V30 5876 C 533.354 5.71267 -2.40943 0
M  V30 5877 C 535.409 4.76805 -1.43392 0
M  V30 5878 C 534.112 6.31889 -3.4367 0
M  V30 5879 C 536.138 5.38268 -2.44994 0
M  V30 5880 C 535.5 6.14716 -3.43952 0
M  V30 5881 H 531.599 0.77975 0.0592729 0
M  V30 5882 H 534.183 1.88974 -0.468726 0
M  V30 5883 H 532.354 3.64603 1.33863 0
M  V30 5884 H 534.086 3.86038 1.21478 0
M  V30 5885 H 530.841 4.69472 -0.623952 0
M  V30 5886 H 531.265 6.16737 -2.79222 0
M  V30 5887 H 535.907 4.17255 -0.682489 0
M  V30 5888 H 533.625 6.90554 -4.19715 0
M  V30 5889 H 537.211 5.26352 -2.4788 0
M  V30 5890 H 536.091 6.6143 -4.21283 0
M  V30 5891 N 533.594 0.0601682 1.57485 0
M  V30 5892 C 534.843 -0.611101 1.9222 0
M  V30 5893 C 535.156 -1.71469 0.941159 0
M  V30 5894 O 536.362 -2.44473 1.18089 0
M  V30 5895 C 534.818 -1.13832 3.41424 0
M  V30 5896 C 534.426 -0.0663596 4.47951 0
M  V30 5897 C 536.17 -1.78432 3.85178 0
M  V30 5898 C 534.077 -0.606965 5.88277 0
M  V30 5899 H 533.007 -0.232033 0.71741 0
M  V30 5900 H 535.658 0.130518 1.83035 0
M  V30 5901 H 534.04 -1.93254 3.45643 0
M  V30 5902 H 535.214 0.707682 4.55333 0
M  V30 5903 H 533.529 0.482715 4.13593 0
M  V30 5904 H 536.126 -2.1989 4.87394 0
M  V30 5905 H 536.469 -2.63966 3.21913 0
M  V30 5906 H 537.002 -1.05651 3.83514 0
M  V30 5907 H 533.741 0.21095 6.5516 0
M  V30 5908 H 533.261 -1.34879 5.84438 0
M  V30 5909 H 534.94 -1.08704 6.37803 0
M  V30 5910 N 535.072 -1.5615 -0.213296 0
M  V30 5911 C 535.982 -1.96265 -1.28519 0
M  V30 5912 C 536.998 -0.86765 -1.50824 0
M  V30 5913 O 538.174 -1.17191 -1.63793 0
M  V30 5914 C 535.239 -2.27836 -2.61327 0
M  V30 5915 C 534.3 -3.50949 -2.47252 0
M  V30 5916 C 533.533 -3.81004 -3.73727 0
M  V30 5917 O 533.756 -3.12612 -4.77106 0
M  V30 5918 O 532.69 -4.74477 -3.70344 0
M  V30 5919 H 536.516 -2.87631 -0.974795 0
M  V30 5920 H 534.101 -1.43467 -0.416832 0
M  V30 5921 H 535.983 -2.49299 -3.39747 0
M  V30 5922 H 534.658 -1.39643 -2.9203 0
M  V30 5923 H 533.565 -3.34754 -1.67004 0
M  V30 5924 H 534.898 -4.39551 -2.21486 0
M  V30 5925 N 536.55 0.480323 -1.50102 0
M  V30 5926 C 537.827 1.24159 -1.51142 0
M  V30 5927 C 538.207 2.09605 -0.250818 0
M  V30 5928 O 537.555 2.15274 0.766118 0
M  V30 5929 C 537.765 2.08057 -2.80202 0
M  V30 5930 C 539.113 2.66556 -3.30504 0
M  V30 5931 O 540.137 2.18308 -2.81461 0
M  V30 5932 O 538.996 3.54442 -4.15973 0
M  V30 5933 H 536.09 0.562928 -0.605839 0
M  V30 5934 H 538.636 0.492899 -1.62384 0
M  V30 5935 H 537.408 1.45032 -3.6343 0
M  V30 5936 H 537.031 2.90079 -2.71919 0
M  V30 5937 N 538.028 1.39524 0.732853 0
M  V30 5938 C 539.274 1.37068 1.49467 0
M  V30 5939 C 539.607 -0.0327166 1.94172 0
M  V30 5940 O 538.882 -0.998071 1.66939 0
M  V30 5941 C 539.165 2.34494 2.73285 0
M  V30 5942 C 539.018 3.83784 2.34585 0
M  V30 5943 C 540.337 2.29717 3.75391 0
M  V30 5944 H 537.456 0.499206 0.542183 0
M  V30 5945 H 540.098 1.70532 0.837783 0
M  V30 5946 H 538.248 2.06087 3.29333 0
M  V30 5947 H 539.92 4.22949 1.84151 0
M  V30 5948 H 538.163 4.00455 1.66787 0
M  V30 5949 H 538.834 4.47444 3.23262 0
M  V30 5950 H 541.31 2.54839 3.28932 0
M  V30 5951 H 540.186 2.99962 4.59689 0
M  V30 5952 H 540.447 1.30291 4.22465 0
M  V30 5953 N 539.506 -0.963266 1.24736 0
M  V30 5954 C 540.436 -2.07628 1.06832 0
M  V30 5955 C 541.417 -1.70088 -0.0200566 0
M  V30 5956 O 542.602 -1.93636 0.147854 0
M  V30 5957 C 539.732 -3.40636 0.677069 0
M  V30 5958 C 538.686 -3.9215 1.71471 0
M  V30 5959 C 538.012 -5.21553 1.1784 0
M  V30 5960 C 539.312 -4.19493 3.11164 0
M  V30 5961 H 541.006 -2.22864 1.9993 0
M  V30 5962 H 538.552 -1.07093 0.96266 0
M  V30 5963 H 540.505 -4.17941 0.538792 0
M  V30 5964 H 539.229 -3.25313 -0.289612 0
M  V30 5965 H 537.888 -3.17005 1.84128 0
M  V30 5966 H 537.536 -5.02593 0.202195 0
M  V30 5967 H 537.236 -5.56988 1.87185 0
M  V30 5968 H 538.76 -6.01463 1.05233 0
M  V30 5969 H 540.174 -4.87487 3.01711 0
M  V30 5970 H 538.571 -4.66165 3.77902 0
M  V30 5971 H 539.641 -3.26097 3.58871 0
M  V30 5972 N 540.985 -1.06182 -1.16461 0
M  V30 5973 C 542.21 -0.798599 -1.91408 0
M  V30 5974 C 542.635 0.640987 -1.76842 0
M  V30 5975 O 541.993 1.44652 -1.09296 0
M  V30 5976 C 542.041 -1.19665 -3.40165 0
M  V30 5977 O 541.145 -0.334768 -4.11039 0
M  V30 5978 H 540.486 -0.291961 -0.596368 0
M  V30 5979 H 543.016 -1.41732 -1.47557 0
M  V30 5980 H 543.026 -1.16772 -3.90933 0
M  V30 5981 H 541.701 -2.24526 -3.50087 0
M  V30 5982 H 540.278 -0.425168 -3.70468 0
M  V30 5983 N 542.463 1.3308 -0.844243 0
M  V30 5984 C 543.711 1.97215 -0.441676 0
M  V30 5985 C 544.032 1.67185 1.0037 0
M  V30 5986 O 543.302 0.973588 1.69994 0
M  V30 5987 H 541.882 0.72959 -0.160335 0
M  V30 5988 H 544.544 1.62348 -1.07838 0
M  V30 5989 H 543.64 3.06698 -0.57815 0
M  V30 5990 N 543.941 0.601185 1.45683 0
M  V30 5991 C 544.888 -0.121396 2.30481 0
M  V30 5992 C 545.858 -0.866232 1.41724 0
M  V30 5993 O 547.043 -0.85324 1.70659 0
M  V30 5994 C 544.183 -1.11704 3.26521 0
M  V30 5995 C 543.296 -0.373741 4.3038 0
M  V30 5996 C 542.431 -1.35854 5.13534 0
M  V30 5997 C 541.47 -0.602689 6.09126 0
M  V30 5998 N 540.607 -1.53645 6.85082 0
M  V30 5999 H 545.447 0.607732 2.91737 0
M  V30 6000 H 542.984 0.311502 1.43764 0
M  V30 6001 H 544.942 -1.70735 3.80664 0
M  V30 6002 H 543.572 -1.81366 2.67032 0
M  V30 6003 H 542.624 0.331962 3.78949 0
M  V30 6004 H 543.936 0.2163 4.98331 0
M  V30 6005 H 543.09 -2.02111 5.72046 0
M  V30 6006 H 541.829 -1.98251 4.45587 0
M  V30 6007 H 540.834 0.0735482 5.49751 0
M  V30 6008 H 542.059 0.0161467 6.79098 0
M  V30 6009 H 540.005 -2.14819 6.1983 0
M  V30 6010 H 539.922 -0.999688 7.49361 0
M  V30 6011 H 541.19 -2.1888 7.48139 0
M  V30 6012 N 545.419 -1.53889 0.339982 0
M  V30 6013 C 546.668 -2.00035 -0.258604 0
M  V30 6014 C 546.981 -1.23179 -1.51942 0
M  V30 6015 O 548.187 -1.59784 -2.19503 0
M  V30 6016 C 546.643 -3.56249 -0.511359 0
M  V30 6017 C 546.251 -4.41957 0.733349 0
M  V30 6018 C 547.995 -4.1082 -1.069 0
M  V30 6019 C 545.902 -5.89673 0.451591 0
M  V30 6020 H 544.832 -0.747284 -0.10041 0
M  V30 6021 H 547.483 -1.77776 0.454758 0
M  V30 6022 H 545.865 -3.7456 -1.28533 0
M  V30 6023 H 547.039 -4.35421 1.50815 0
M  V30 6024 H 545.354 -3.9836 1.21237 0
M  V30 6025 H 547.951 -5.18789 -1.2947 0
M  V30 6026 H 548.294 -3.63817 -2.02343 0
M  V30 6027 H 548.827 -3.96205 -0.355817 0
M  V30 6028 H 545.566 -6.40903 1.37565 0
M  V30 6029 H 545.086 -5.99122 -0.285193 0
M  V30 6030 H 546.765 -6.46965 0.0675067 0
M  V30 6031 N 546.897 -0.0685191 -1.57451 0
M  V30 6032 C 547.845 0.917577 -2.13736 0
M  V30 6033 C 548.839 1.31049 -1.07344 0
M  V30 6034 O 550.045 1.28811 -1.25728 0
M  V30 6035 H 546.42 0.313835 -0.683382 0
M  V30 6036 H 548.391 0.417903 -2.95459 0
M  V30 6037 C 547.14 2.17686 -2.71123 0
M  V30 6038 H 546.463 1.88336 -3.52661 0
M  V30 6039 H 547.903 2.84803 -3.14107 0
M  V30 6040 C 546.362 2.9332 -1.65726 0
M  V30 6041 O 546.892 3.86901 -1.08031 0
M  V30 6042 N 545.098 2.56367 -1.36837 0
M  V30 6043 H 544.645 1.80341 -1.83943 0
M  V30 6044 H 544.603 3.07276 -0.665501 0
M  V30 6045 N 548.375 1.56261 0.205012 0
M  V30 6046 C 549.603 1.84141 0.943386 0
M  V30 6047 C 550.018 0.649772 1.77266 0
M  V30 6048 O 549.375 -0.381612 1.78466 0
M  V30 6049 C 549.426 3.10719 1.84759 0
M  V30 6050 O 549.147 4.25286 1.05181 0
M  V30 6051 C 550.648 3.51706 2.69848 0
M  V30 6052 H 547.868 0.611734 0.275721 0
M  V30 6053 H 550.412 2.03364 0.215253 0
M  V30 6054 H 548.567 2.93422 2.52947 0
M  V30 6055 H 548.981 4.97301 1.66709 0
M  V30 6056 H 550.455 4.43266 3.28967 0
M  V30 6057 H 550.932 2.7423 3.43067 0
M  V30 6058 H 551.538 3.71499 2.07047 0
M  V30 6059 N 549.853 -0.472356 1.50355 0
M  V30 6060 C 550.763 -1.59637 1.7191 0
M  V30 6061 C 551.779 -1.63247 0.602195 0
M  V30 6062 O 552.955 -1.81139 0.880369 0
M  V30 6063 C 550.02 -2.9586 1.80742 0
M  V30 6064 C 549.081 -3.02649 3.04471 0
M  V30 6065 C 548.314 -4.32374 3.12872 0
M  V30 6066 O 548.537 -5.22807 2.28099 0
M  V30 6067 O 547.471 -4.44728 4.05587 0
M  V30 6068 H 551.297 -1.44373 2.67189 0
M  V30 6069 H 548.882 -0.651717 1.34436 0
M  V30 6070 H 550.764 -3.7677 1.88739 0
M  V30 6071 H 549.439 -3.11325 0.88647 0
M  V30 6072 H 548.346 -2.20821 3.01975 0
M  V30 6073 H 549.679 -2.92119 3.9614 0
M  V30 6074 N 551.331 -1.39911 -0.725443 0
M  V30 6075 C 552.608 -1.28158 -1.47766 0
M  V30 6076 C 552.988 0.104545 -2.10841 0
M  V30 6077 O 552.336 1.11657 -1.99361 0
M  V30 6078 C 552.546 -2.41306 -2.52135 0
M  V30 6079 C 553.894 -2.81076 -3.18247 0
M  V30 6080 O 554.918 -2.40827 -2.62452 0
M  V30 6081 O 553.777 -3.50581 -4.19231 0
M  V30 6082 H 550.871 -0.502761 -0.656628 0
M  V30 6083 H 553.417 -1.51808 -0.758456 0
M  V30 6084 H 552.189 -3.33932 -2.03974 0
M  V30 6085 H 551.812 -2.19374 -3.31603 0
M  V30 6086 N 552.809 0.956637 -1.25245 0
M  V30 6087 C 554.086 1.67716 -1.00651 0
M  V30 6088 C 554.466 2.0585 0.467866 0
M  V30 6089 O 553.814 1.77029 1.44475 0
M  V30 6090 C 554.024 2.90093 -1.94028 0
M  V30 6091 C 555.372 3.6209 -2.21756 0
M  V30 6092 O 556.396 3.00171 -1.9177 0
M  V30 6093 O 555.255 4.7358 -2.72735 0
M  V30 6094 H 552.349 0.733731 -0.381533 0
M  V30 6095 H 554.895 1.00974 -1.3639 0
M  V30 6096 H 553.667 2.58689 -2.93591 0
M  V30 6097 H 553.29 3.64566 -1.58674 0
M  V30 6098 N 554.287 1.06798 1.15896 0
M  V30 6099 C 555.564 0.701057 1.82605 0
M  V30 6100 C 555.944 -0.817066 1.94646 0
M  V30 6101 O 555.292 -1.72933 1.49353 0
M  V30 6102 C 555.502 1.40895 3.19296 0
M  V30 6103 C 556.85 1.55744 3.95005 0
M  V30 6104 O 557.874 1.36927 3.28831 0
M  V30 6105 O 556.733 1.86658 5.13635 0
M  V30 6106 H 553.827 0.248791 0.78869 0
M  V30 6107 H 556.373 1.16857 1.23055 0
M  V30 6108 H 555.145 2.4439 3.05596 0
M  V30 6109 H 554.768 0.931847 3.86526 0
M  V30 6110 N 555.766 -1.3263 0.851289 0
M  V30 6111 C 556.676 -2.32722 0.296268 0
M  V30 6112 C 557.692 -1.63901 -0.584162 0
M  V30 6113 O 558.868 -1.95465 -0.485334 0
M  V30 6114 C 555.933 -3.42942 -0.509103 0
M  V30 6115 C 554.994 -4.2746 0.397069 0
M  V30 6116 C 554.227 -5.32416 -0.36996 0
M  V30 6117 O 554.45 -5.47491 -1.6003 0
M  V30 6118 O 553.384 -6.01327 0.262493 0
M  V30 6119 H 557.21 -2.82078 1.12543 0
M  V30 6120 H 554.795 -1.36194 0.614135 0
M  V30 6121 H 556.677 -4.1017 -0.96634 0
M  V30 6122 H 555.352 -2.95781 -1.31512 0
M  V30 6123 H 554.259 -3.63053 0.902411 0
M  V30 6124 H 555.592 -4.78136 1.16818 0
M  V30 6125 N 557.244 -0.608902 -1.45362 0
M  V30 6126 C 558.521 -0.0365378 -1.95566 0
M  V30 6127 C 558.901 1.43169 -1.55131 0
M  V30 6128 O 558.249 2.1349 -0.814513 0
M  V30 6129 C 558.459 -0.236026 -3.48201 0
M  V30 6130 C 559.807 -0.117518 -4.24437 0
M  V30 6131 O 560.831 -0.166217 -3.55812 0
M  V30 6132 O 559.69 -0.00372127 -5.465 0
M  V30 6133 H 556.784 0.0349874 -0.82626 0
M  V30 6134 H 559.33 -0.679055 -1.55521 0
M  V30 6135 H 558.102 -1.25569 -3.70605 0
M  V30 6136 H 557.725 0.441691 -3.95139 0
M  V30 6137 N 558.722 1.53707 -0.348139 0
M  V30 6138 C 559.999 1.93247 0.302475 0
M  V30 6139 C 560.379 1.28012 1.67857 0
M  V30 6140 O 559.727 0.43274 2.24365 0
M  V30 6141 C 559.937 3.47031 0.370159 0
M  V30 6142 C 561.285 4.20066 0.61882 0
M  V30 6143 O 562.309 3.53319 0.452087 0
M  V30 6144 O 561.168 5.38318 0.94215 0
M  V30 6145 H 558.262 0.807736 0.177458 0
M  V30 6146 H 560.808 1.64927 -0.399651 0
M  V30 6147 H 559.58 3.86745 -0.59534 0
M  V30 6148 H 559.203 3.81532 1.11888 0
M  V30 6149 N 560.2 0.0768682 1.57412 0
M  V30 6150 C 561.477 -0.632359 1.85096 0
M  V30 6151 C 561.857 -1.87479 0.9703 0
M  V30 6152 O 561.205 -2.28469 0.0379062 0
M  V30 6153 C 561.415 -0.965174 3.35388 0
M  V30 6154 C 562.763 -1.33648 4.03018 0
M  V30 6155 O 563.787 -1.05675 3.40164 0
M  V30 6156 O 562.646 -1.85959 5.13889 0
M  V30 6157 H 559.74 -0.314574 0.764835 0
M  V30 6158 H 562.286 0.108184 1.69355 0
M  V30 6159 H 561.058 -0.0829745 3.91212 0
M  V30 6160 H 560.681 -1.76231 3.5641 0
M  V30 6161 N 561.678 -1.56367 -0.196722 0
M  V30 6162 C 562.955 -1.71359 -0.943159 0
M  V30 6163 C 563.335 -0.631192 -2.01443 0
M  V30 6164 O 562.683 0.358071 -2.25677 0
M  V30 6165 C 562.893 -3.13623 -1.53106 0
M  V30 6166 C 564.241 -3.73806 -2.01381 0
M  V30 6167 O 565.265 -3.16742 -1.62951 0
M  V30 6168 O 564.124 -4.73951 -2.7209 0
M  V30 6169 H 561.218 -0.698851 -0.442195 0
M  V30 6170 H 563.764 -1.68672 -0.186547 0
M  V30 6171 H 562.536 -3.83873 -0.758785 0
M  V30 6172 H 562.159 -3.20532 -2.35255 0
M  V30 6173 N 563.156 0.464375 -1.50603 0
M  V30 6174 C 564.433 1.22549 -1.5245 0
M  V30 6175 C 564.813 2.09327 -0.273035 0
M  V30 6176 O 564.161 2.16074 0.743242 0
M  V30 6177 C 564.371 2.05074 -2.82393 0
M  V30 6178 C 565.719 2.63036 -3.33313 0
M  V30 6179 O 566.743 2.1531 -2.8376 0
M  V30 6180 O 565.602 3.5001 -4.19709 0
M  V30 6181 H 562.696 0.556471 -0.611775 0
M  V30 6182 H 565.242 0.475648 -1.62898 0
M  V30 6183 H 564.014 1.41169 -3.64948 0
M  V30 6184 H 563.637 2.87179 -2.7498 0
M  V30 6185 N 564.634 1.40294 0.718013 0
M  V30 6186 C 565.911 1.2894 1.47084 0
M  V30 6187 C 566.291 -0.0933625 2.10893 0
M  V30 6188 O 565.639 -1.10598 1.99951 0
M  V30 6189 C 565.849 2.4264 2.50852 0
M  V30 6190 C 567.197 2.8276 3.16752 0
M  V30 6191 O 568.221 2.42215 2.61171 0
M  V30 6192 O 567.08 3.528 4.17366 0
M  V30 6193 H 564.174 0.506236 0.653952 0
M  V30 6194 H 566.72 1.52208 0.750394 0
M  V30 6195 H 565.492 3.35009 2.022 0
M  V30 6196 H 565.115 2.21129 3.30435 0
M  V30 6197 N 566.112 -0.949982 1.2575 0
M  V30 6198 C 567.06 -2.06869 1.06339 0
M  V30 6199 C 568.054 -1.69399 -0.00708901 0
M  V30 6200 O 569.26 -1.79383 0.148897 0
M  V30 6201 H 565.635 -0.677197 0.326969 0
M  V30 6202 H 567.606 -2.20396 2.01167 0
M  V30 6203 C 566.355 -3.40503 0.703769 0
M  V30 6204 H 565.678 -3.69807 1.51931 0
M  V30 6205 H 567.118 -4.19623 0.607677 0
M  V30 6206 C 565.577 -3.31685 -0.5905 0
M  V30 6207 O 566.107 -3.67085 -1.63131 0
M  V30 6208 N 564.313 -2.84797 -0.577859 0
M  V30 6209 H 563.86 -2.56186 0.26951 0
M  V30 6210 H 563.818 -2.79279 -1.44398 0
M  V30 6211 N 567.59 -1.07411 -1.15328 0
M  V30 6212 C 568.815 -0.818856 -1.90551 0
M  V30 6213 C 569.24 0.622194 -1.77512 0
M  V30 6214 O 568.598 1.43484 -1.10824 0
M  V30 6215 C 568.646 -1.23267 -3.38877 0
M  V30 6216 O 567.75 -0.378345 -4.10661 0
M  V30 6217 H 567.091 -0.29827 -0.593238 0
M  V30 6218 H 569.621 -1.43289 -1.46046 0
M  V30 6219 H 569.631 -1.20912 -3.89672 0
M  V30 6220 H 568.306 -2.28226 -3.47686 0
M  V30 6221 H 566.883 -0.464437 -3.69996 0
M  V30 6222 N 569.068 1.32177 -0.85831 0
M  V30 6223 C 570.345 1.91781 -0.384624 0
M  V30 6224 C 570.725 1.78171 1.13217 0
M  V30 6225 O 570.073 1.18209 1.95548 0
M  V30 6226 C 570.283 3.38414 -0.853047 0
M  V30 6227 C 571.631 4.15542 -0.872359 0
M  V30 6228 O 572.655 3.47148 -0.797926 0
M  V30 6229 O 571.514 5.37678 -0.978009 0
M  V30 6230 H 568.608 0.819259 -0.112886 0
M  V30 6231 H 571.154 1.40923 -0.945453 0
M  V30 6232 H 569.926 3.4228 -1.89632 0
M  V30 6233 H 569.549 3.96683 -0.269874 0
M  V30 6234 N 570.547 0.616602 1.45037 0
M  V30 6235 C 571.457 -0.0985401 2.34393 0
M  V30 6236 C 572.473 -0.850971 1.51771 0
M  V30 6237 O 573.649 -0.806521 1.84546 0
M  V30 6238 C 570.714 -1.07748 3.29532 0
M  V30 6239 C 569.775 -0.326022 4.2806 0
M  V30 6240 C 569.008 -1.25833 5.18654 0
M  V30 6241 O 569.231 -2.49652 5.12864 0
M  V30 6242 O 568.165 -0.750512 5.97203 0
M  V30 6243 H 571.991 0.636016 2.96966 0
M  V30 6244 H 569.576 0.376832 1.44569 0
M  V30 6245 H 571.458 -1.64107 3.88133 0
M  V30 6246 H 570.133 -1.79291 2.69512 0
M  V30 6247 H 569.04 0.280253 3.73049 0
M  V30 6248 H 570.373 0.349091 4.9096 0
M  V30 6249 N 572.025 -1.5352 0.356285 0
M  V30 6250 C 572.935 -2.29151 -0.502712 0
M  V30 6251 C 573.951 -1.34753 -1.1008 0
M  V30 6252 O 575.127 -1.67803 -1.11374 0
M  V30 6253 C 572.192 -3.05911 -1.63154 0
M  V30 6254 C 571.253 -4.15958 -1.06194 0
M  V30 6255 C 570.486 -4.8905 -2.13696 0
M  V30 6256 O 570.709 -4.61919 -3.34645 0
M  V30 6257 O 569.643 -5.75202 -1.77275 0
M  V30 6258 H 573.469 -3.03492 0.112466 0
M  V30 6259 H 571.054 -1.4891 0.120942 0
M  V30 6260 H 572.936 -3.53874 -2.28804 0
M  V30 6261 H 571.611 -2.34415 -2.23229 0
M  V30 6262 H 570.518 -3.7227 -0.369603 0
M  V30 6263 H 571.851 -4.89593 -0.505872 0
M  V30 6264 N 573.503 -0.0852151 -1.57369 0
M  V30 6265 C 574.78 0.622534 -1.85429 0
M  V30 6266 C 575.16 1.86962 -0.980229 0
M  V30 6267 O 574.508 2.28445 -0.0500219 0
M  V30 6268 C 574.718 0.947374 -3.35896 0
M  V30 6269 C 576.066 1.31509 -4.03721 0
M  V30 6270 O 577.09 1.03869 -3.40719 0
M  V30 6271 O 575.949 1.83231 -5.14868 0
M  V30 6272 H 573.043 0.310513 -0.766492 0
M  V30 6273 H 575.589 -0.117164 -1.69295 0
M  V30 6274 H 574.361 0.0622264 -3.91251 0
M  V30 6275 H 573.984 1.74338 -3.5734 0
M  V30 6276 N 574.981 1.5647 0.188427 0
M  V30 6277 C 575.929 1.95971 1.25293 0
M  V30 6278 C 576.923 0.846047 1.4676 0
M  V30 6279 O 578.129 1.03109 1.47542 0
M  V30 6280 H 574.504 0.623253 0.420784 0
M  V30 6281 H 576.475 2.84731 0.892792 0
M  V30 6282 C 575.224 2.32116 2.58877 0
M  V30 6283 H 574.547 3.17341 2.43176 0
M  V30 6284 H 575.987 2.63613 3.3209 0
M  V30 6285 C 574.446 1.15823 3.16365 0
M  V30 6286 O 574.976 0.436785 3.99318 0
M  V30 6287 N 573.182 0.933278 2.75206 0
M  V30 6288 H 572.729 1.52169 2.07852 0
M  V30 6289 H 572.687 0.156976 3.14008 0
M  V30 6290 N 576.459 -0.456382 1.50847 0
M  V30 6291 C 577.736 -1.21739 1.53098 0
M  V30 6292 C 578.116 -2.09179 0.284132 0
M  V30 6293 O 577.464 -2.16466 -0.731773 0
M  V30 6294 C 577.674 -2.03573 2.83477 0
M  V30 6295 C 579.022 -2.61264 3.34703 0
M  V30 6296 O 580.046 -2.13802 2.84898 0
M  V30 6297 O 578.905 -3.47779 4.21559 0
M  V30 6298 H 575.999 -0.553219 0.614718 0
M  V30 6299 H 578.545 -0.467003 1.63148 0
M  V30 6300 H 577.317 -1.39232 3.65691 0
M  V30 6301 H 576.94 -2.85716 2.76499 0
M  V30 6302 N 577.937 -1.40673 -0.710563 0
M  V30 6303 C 579.214 -1.29718 -1.46398 0
M  V30 6304 C 579.594 0.082177 -2.1094 0
M  V30 6305 O 578.942 1.09536 -2.00534 0
M  V30 6306 C 579.152 -2.43967 -2.49562 0
M  V30 6307 C 580.5 -2.84436 -3.15248 0
M  V30 6308 O 581.524 -2.43597 -2.59883 0
M  V30 6309 O 580.383 -3.55008 -4.1549 0
M  V30 6310 H 577.477 -0.509697 -0.651258 0
M  V30 6311 H 580.023 -1.52603 -0.742312 0
M  V30 6312 H 578.795 -3.36076 -2.0042 0
M  V30 6313 H 578.418 -2.22879 -3.29258 0
M  V30 6314 N 579.415 0.9433 -1.26252 0
M  V30 6315 C 580.64 1.72898 -1.14547 0
M  V30 6316 C 581.065 1.85761 0.295743 0
M  V30 6317 O 580.423 1.3463 1.21427 0
M  V30 6318 C 580.471 3.11471 -1.8171 0
M  V30 6319 O 579.575 3.97336 -1.10445 0
M  V30 6320 H 578.916 0.530555 -0.399259 0
M  V30 6321 H 581.446 1.18159 -1.67032 0
M  V30 6322 H 581.456 3.61872 -1.88449 0
M  V30 6323 H 580.131 3.01425 -2.86558 0
M  V30 6324 H 578.708 3.55788 -1.11666 0
M  V30 6325 N 580.893 1.08022 1.14757 0
M  V30 6326 C 582.17 0.720386 1.81851 0
M  V30 6327 C 582.55 -0.796375 1.95502 0
M  V30 6328 O 581.898 -1.71339 1.51179 0
M  V30 6329 C 582.108 1.44273 3.17783 0
M  V30 6330 C 583.456 1.59925 3.93331 0
M  V30 6331 O 584.48 1.40407 3.2736 0
M  V30 6332 O 583.339 1.92096 5.11626 0
M  V30 6333 H 580.433 0.257142 0.786007 0
M  V30 6334 H 582.979 1.18155 1.21809 0
M  V30 6335 H 581.751 2.47618 3.02987 0
M  V30 6336 H 581.374 0.97279 3.85516 0
M  V30 6337 N 582.371 -1.3172 0.865308 0
M  V30 6338 C 583.648 -1.91574 0.394789 0
M  V30 6339 C 584.028 -1.78769 -1.12271 0
M  V30 6340 O 583.376 -1.19245 -1.94918 0
M  V30 6341 C 583.586 -3.37957 0.870982 0
M  V30 6342 C 584.934 -4.15073 0.894384 0
M  V30 6343 O 585.958 -3.4672 0.816325 0
M  V30 6344 O 584.817 -5.37151 1.00651 0
M  V30 6345 H 581.911 -0.818649 0.117229 0
M  V30 6346 H 584.457 -1.4042 0.952913 0
M  V30 6347 H 583.229 -3.41269 1.91444 0
M  V30 6348 H 582.852 -3.96534 0.290907 0
M  V30 6349 N 583.85 -0.624285 -1.44708 0
M  V30 6350 C 585.127 -0.0572781 -1.95516 0
M  V30 6351 C 585.507 1.41516 -1.56641 0
M  V30 6352 O 584.855 2.12614 -0.837111 0
M  V30 6353 C 585.065 -0.272944 -3.47931 0
M  V30 6354 C 586.413 -0.162529 -4.24289 0
M  V30 6355 O 587.437 -0.203946 -3.55616 0
M  V30 6356 O 586.296 -0.0616847 -5.46465 0
M  V30 6357 H 583.389 0.0262219 -0.826584 0
M  V30 6358 H 585.936 -0.695512 -1.54793 0
M  V30 6359 H 584.707 -1.29492 -3.69253 0
M  V30 6360 H 584.331 0.399756 -3.95585 0
M  V30 6361 N 585.328 1.53329 -0.364422 0
M  V30 6362 C 586.605 1.93557 0.281962 0
M  V30 6363 C 586.985 1.29786 1.6649 0
M  V30 6364 O 586.333 0.456512 2.23893 0
M  V30 6365 C 586.543 3.47405 0.333331 0
M  V30 6366 C 587.891 4.20699 0.574231 0
M  V30 6367 O 588.915 3.53779 0.414588 0
M  V30 6368 O 587.774 5.39287 0.885002 0
M  V30 6369 H 584.868 0.809573 0.168881 0
M  V30 6370 H 587.414 1.64494 -0.417121 0
M  V30 6371 H 586.186 3.86091 -0.636326 0
M  V30 6372 H 585.809 3.82697 1.07836 0
M  V30 6373 N 586.806 0.0935595 1.57322 0
M  V30 6374 C 588.083 -0.612692 1.85756 0
M  V30 6375 C 588.463 -1.86439 0.99013 0
M  V30 6376 O 587.811 -2.28416 0.0621362 0
M  V30 6377 C 588.021 -0.929547 3.36393 0
M  V30 6378 C 589.369 -1.29366 4.04413 0
M  V30 6379 O 590.393 -1.02061 3.41265 0
M  V30 6380 O 589.252 -1.80498 5.15832 0
M  V30 6381 H 586.346 -0.306444 0.768128 0
M  V30 6382 H 588.892 0.126141 1.69231 0
M  V30 6383 H 587.664 -0.0414766 3.91278 0
M  V30 6384 H 587.287 -1.72441 3.5826 0
M  V30 6385 N 588.284 -1.56567 -0.180126 0
M  V30 6386 C 589.194 -1.98947 -1.24327 0
M  V30 6387 C 590.21 -0.899446 -1.4895 0
M  V30 6388 O 591.386 -1.20639 -1.61271 0
M  V30 6389 C 588.451 -2.33328 -2.56435 0
M  V30 6390 C 587.512 -3.56114 -2.39752 0
M  V30 6391 C 586.745 -3.88845 -3.65561 0
M  V30 6392 O 586.968 -3.22662 -4.70368 0
M  V30 6393 O 585.902 -4.82226 -3.60197 0
M  V30 6394 H 589.728 -2.89634 -0.913565 0
M  V30 6395 H 587.313 -1.44319 -0.386306 0
M  V30 6396 H 589.195 -2.5645 -3.34382 0
M  V30 6397 H 587.87 -1.45806 -2.89002 0
M  V30 6398 H 586.777 -3.38221 -1.59866 0
M  V30 6399 H 588.11 -4.4415 -2.12113 0
M  V30 6400 O 589.801 0.325198 -1.58192 0
M  V30 6401 H 590.492 0.973777 -1.67443 0
M  V30 END ATOM
M  V30 BEGIN BOND
M  V30 END BOND
M  V30 END CTAB
M  END
$$$$
