drugbank_target|O14936 Peripheral plasma membrane protein CASK (DB01942; DB12010)
 OpenBabel12092120233D

  0  0  0     0  0            999 V3000
M  V30 BEGIN CTAB
M  V30 COUNTS 14707 14874 0 0 0
M  V30 BEGIN ATOM
M  V30 1 H -0.908 1.98254 -0.117106 0
M  V30 2 N 0 1.576 0 0
M  V30 3 C 0.933 2.03868 1.02534 0
M  V30 4 C 1.911 0.928543 1.3348 0
M  V30 5 O 3.095 1.19667 1.45644 0
M  V30 6 C 0.222 2.43627 2.35294 0
M  V30 7 C -0.732 3.65373 2.2001 0
M  V30 8 S 0.101 5.13292 1.52614 0
M  V30 9 C 1.257 5.56322 2.86805 0
M  V30 10 H 1.49 2.90518 0.631377 0
M  V30 11 H -0.977 1.52953 0.210867 0
M  V30 12 H 0.981 2.67203 3.11629 0
M  V30 13 H -0.358 1.57376 2.7183 0
M  V30 14 H -1.165 3.90944 3.18086 0
M  V30 15 H -1.563 3.418 1.51819 0
M  V30 16 H 0.729 5.58782 3.83104 0
M  V30 17 H 1.672 6.56266 2.65933 0
M  V30 18 H 2.08 4.83886 2.90714 0
M  V30 19 N 1.4781 -0.272755 1.55222 0
M  V30 20 C 2.4411 -1.32041 1.87344 0
M  V30 21 C 3.4411 -1.42342 0.74803 0
M  V30 22 O 4.6311 -1.41488 1.0162 0
M  V30 23 C 1.7631 -2.70173 2.07893 0
M  V30 24 H 2.9561 -1.04789 2.80997 0
M  V30 25 H 0.5091 -0.51083 1.47717 0
M  V30 26 H 1.2441 -3.02605 1.16622 0
M  V30 27 H 1.0291 -2.64082 2.89833 0
M  V30 28 H 2.5191 -3.45869 2.34017 0
M  V30 29 N 2.9562 -1.48159 -0.537278 0
M  V30 30 C 4.2332 -1.46291 -1.29839 0
M  V30 31 C 4.6132 -0.170613 -2.10409 0
M  V30 32 O 3.9612 0.847746 -2.12192 0
M  V30 33 C 4.1712 -2.72055 -2.18603 0
M  V30 34 C 5.5192 -3.20087 -2.7898 0
M  V30 35 O 6.5432 -2.72921 -2.28894 0
M  V30 36 O 5.4022 -4.02138 -3.70064 0
M  V30 37 H 2.4962 -0.583906 -0.585647 0
M  V30 38 H 5.0422 -1.60384 -0.554534 0
M  V30 39 H 3.8142 -3.57628 -1.58801 0
M  V30 40 H 3.4372 -2.60646 -3.00249 0
M  V30 41 N 4.4343 0.785586 -1.36625 0
M  V30 42 C 5.7113 1.53198 -1.21613 0
M  V30 43 C 6.0913 2.10187 0.196113 0
M  V30 44 O 5.4393 1.94318 1.20219 0
M  V30 45 C 5.6493 2.62388 -2.30116 0
M  V30 46 C 6.9973 3.30167 -2.66974 0
M  V30 47 O 8.0213 2.72674 -2.29188 0
M  V30 48 O 6.8803 4.34077 -3.32023 0
M  V30 49 H 3.9743 0.677865 -0.473738 0
M  V30 50 H 6.5203 0.823739 -1.48367 0
M  V30 51 H 5.2923 2.18299 -3.24748 0
M  V30 52 H 4.9153 3.40827 -2.0475 0
M  V30 53 N 5.9124 1.20967 1.01018 0
M  V30 54 C 7.1894 0.93264 1.71934 0
M  V30 55 C 7.5694 -0.55692 2.03621 0
M  V30 56 O 6.9174 -1.52035 1.7058 0
M  V30 57 C 7.1274 1.81233 2.98254 0
M  V30 58 C 8.4754 2.05804 3.71389 0
M  V30 59 O 9.4994 1.78539 3.08225 0
M  V30 60 O 8.3584 2.51888 4.84989 0
M  V30 61 H 5.4524 0.349272 0.749625 0
M  V30 62 H 7.9984 1.31871 1.06808 0
M  V30 63 H 6.7704 2.82067 2.71208 0
M  V30 64 H 6.3934 1.42674 3.7112 0
M  V30 65 N 7.3905 -1.2043 1.01659 0
M  V30 66 C 8.6365 -1.90079 0.706963 0
M  V30 67 C 8.9695 -1.78648 -0.761474 0
M  V30 68 O 8.2445 -1.17069 -1.55323 0
M  V30 69 C 8.5275 -3.41469 1.14327 0
M  V30 70 C 8.3805 -3.61833 2.67201 0
M  V30 71 C 9.6995 -4.34261 0.714529 0
M  V30 72 H 6.8185 -0.690254 0.2583 0
M  V30 73 H 9.4605 -1.41826 1.26433 0
M  V30 74 H 7.6105 -3.82696 0.669056 0
M  V30 75 H 9.2825 -3.2986 3.22475 0
M  V30 76 H 7.5255 -3.05304 3.08175 0
M  V30 77 H 8.1965 -4.67955 2.92783 0
M  V30 78 H 10.6725 -4.00682 1.12221 0
M  V30 79 H 9.5485 -5.38806 1.04784 0
M  V30 80 H 9.8095 -4.40431 -0.383799 0
M  V30 81 N 8.8686 -0.792821 -1.36206 0
M  V30 82 C 9.7986 -0.207853 -2.32573 0
M  V30 83 C 10.7796 0.659055 -1.56813 0
M  V30 84 O 11.9646 0.592176 -1.84951 0
M  V30 85 C 9.0946 0.655449 -3.41059 0
M  V30 86 C 8.0486 -0.111842 -4.27854 0
M  V30 87 C 7.3746 0.872274 -5.27537 0
M  V30 88 C 8.6746 -1.30299 -5.05786 0
M  V30 89 H 10.3686 -1.01294 -2.81744 0
M  V30 90 H 7.9146 -0.48854 -1.3546 0
M  V30 91 H 9.8676 1.07464 -4.07467 0
M  V30 92 H 8.5916 1.49328 -2.90463 0
M  V30 93 H 7.2506 -0.512053 -3.63006 0
M  V30 94 H 6.8986 1.70523 -4.73214 0
M  V30 95 H 6.5986 0.363291 -5.86476 0
M  V30 96 H 8.1226 1.28996 -5.96818 0
M  V30 97 H 9.5366 -0.959379 -5.65216 0
M  V30 98 H 7.9336 -1.7455 -5.74154 0
M  V30 99 H 9.0036 -2.09663 -4.37229 0
M  V30 100 N 10.3467 1.47872 -0.545128 0
M  V30 101 C 11.5937 2.02493 -0.0165858 0
M  V30 102 C 11.9217 1.42073 1.32836 0
M  V30 103 O 11.1767 0.561459 1.87473 0
M  V30 104 C 11.4757 3.57131 0.13867 0
M  V30 105 C 11.1417 4.36411 -1.13384 0
M  V30 106 C 9.8037 4.57792 -1.48256 0
M  V30 107 C 12.1557 4.82223 -1.97764 0
M  V30 108 C 9.4837 5.22233 -2.67376 0
M  V30 109 C 11.8357 5.47977 -3.16076 0
M  V30 110 C 10.4997 5.67593 -3.51275 0
M  V30 111 H 9.7697 0.740975 -0.00606918 0
M  V30 112 H 12.4167 1.77683 -0.714207 0
M  V30 113 H 10.7217 3.80865 0.919172 0
M  V30 114 H 12.4187 3.97031 0.562782 0
M  V30 115 H 9.0087 4.2004 -0.852297 0
M  V30 116 H 13.1927 4.65493 -1.72132 0
M  V30 117 H 8.4487 5.35616 -2.94831 0
M  V30 118 H 12.6227 5.8244 -3.81755 0
M  V30 119 H 10.2497 6.17298 -4.43675 0
M  V30 120 N 11.8248 0.280983 1.55075 0
M  V30 121 C 12.7348 -0.61388 2.26426 0
M  V30 122 C 13.7508 -1.16521 1.29224 0
M  V30 123 O 14.9268 -1.19426 1.62171 0
M  V30 124 C 11.9918 -1.7788 2.9759 0
M  V30 125 C 11.0528 -1.26355 4.10284 0
M  V30 126 C 10.2858 -2.37295 4.78045 0
M  V30 127 O 10.5088 -3.56777 4.45047 0
M  V30 128 O 9.4428 -2.05119 5.65871 0
M  V30 129 H 13.2688 -0.0356932 3.03679 0
M  V30 130 H 10.8538 0.0481686 1.49322 0
M  V30 131 H 12.7358 -2.45791 3.42293 0
M  V30 132 H 11.4108 -2.34397 2.23249 0
M  V30 133 H 10.3178 -0.550735 3.70024 0
M  V30 134 H 11.6508 -0.744065 4.86543 0
M  V30 135 N 13.3029 -1.57598 0.00835791 0
M  V30 136 C 14.5799 -1.82172 -0.712235 0
M  V30 137 C 14.9599 -0.887873 -1.9152 0
M  V30 138 O 14.3079 0.06146 -2.28417 0
M  V30 139 C 14.5179 -3.30875 -1.11008 0
M  V30 140 C 15.8659 -3.96826 -1.51044 0
M  V30 141 O 16.8899 -3.35248 -1.20364 0
M  V30 142 O 15.7489 -5.05318 -2.08125 0
M  V30 143 H 12.8429 -0.750435 -0.347529 0
M  V30 144 H 15.3889 -1.69665 0.0344523 0
M  V30 145 H 14.1609 -3.90481 -0.252982 0
M  V30 146 H 13.7839 -3.48412 -1.9156 0
M  V30 147 N 14.781 0.264519 -1.55364 0
M  V30 148 C 16.027 0.99646 -1.76631 0
M  V30 149 C 16.36 1.85632 -0.570478 0
M  V30 150 O 15.635 1.89647 0.43175 0
M  V30 151 C 15.918 1.87187 -3.07625 0
M  V30 152 C 15.771 1.04138 -4.37579 0
M  V30 153 C 17.09 2.85749 -3.34717 0
M  V30 154 H 14.209 0.360841 -0.642622 0
M  V30 155 H 16.851 0.268218 -1.88097 0
M  V30 156 H 15.001 2.49279 -2.9798 0
M  V30 157 H 16.673 0.440517 -4.59192 0
M  V30 158 H 14.916 0.345115 -4.32425 0
M  V30 159 H 15.587 1.68729 -5.2558 0
M  V30 160 H 18.063 2.33793 -3.4421 0
M  V30 161 H 16.939 3.44136 -4.27623 0
M  V30 162 H 17.2 3.61311 -2.54768 0
M  V30 163 N 16.2591 1.48442 0.529413 0
M  V30 164 C 17.4891 1.59919 1.30804 0
M  V30 165 C 17.8971 0.258792 1.87422 0
M  V30 166 O 17.2401 -0.762096 1.67146 0
M  V30 167 C 17.3021 2.58693 2.49636 0
M  V30 168 C 16.9661 4.03745 2.14101 0
M  V30 169 C 17.9631 4.9141 1.6974 0
M  V30 170 C 15.6481 4.49285 2.24607 0
M  V30 171 C 17.6421 6.22645 1.36351 0
M  V30 172 C 15.3291 5.8054 1.9083 0
M  V30 173 C 16.3271 6.67043 1.46773 0
M  V30 174 O 16.0151 7.95856 1.1344 0
M  V30 175 H 15.7471 0.541981 0.404021 0
M  V30 176 H 18.3011 1.95 0.645309 0
M  V30 177 H 16.5311 2.18734 3.18892 0
M  V30 178 H 18.2201 2.59999 3.11698 0
M  V30 179 H 18.9861 4.57465 1.61094 0
M  V30 180 H 14.8651 3.82142 2.57854 0
M  V30 181 H 18.4091 6.90119 1.01891 0
M  V30 182 H 14.3061 6.14022 1.99117 0
M  V30 183 H 15.0741 8.08613 1.26832 0
M  V30 184 N 17.7372 -0.778329 1.37039 0
M  V30 185 C 18.6472 -1.92253 1.34446 0
M  V30 186 C 19.6632 -1.72267 0.244991 0
M  V30 187 O 20.8392 -1.95615 0.479258 0
M  V30 188 C 17.9042 -3.27282 1.144 0
M  V30 189 C 16.9652 -3.59969 2.33925 0
M  V30 190 C 16.1982 -4.88555 2.14825 0
M  V30 191 O 16.4212 -5.59113 1.12912 0
M  V30 192 O 15.3552 -5.20153 3.02861 0
M  V30 193 H 19.1812 -1.97392 2.30803 0
M  V30 194 H 16.7662 -0.920154 1.17701 0
M  V30 195 H 18.6482 -4.08062 1.05182 0
M  V30 196 H 17.3232 -3.23011 0.211124 0
M  V30 197 H 16.2302 -2.7945 2.48714 0
M  V30 198 H 17.5632 -3.68976 3.25757 0
M  V30 199 N 19.2153 -1.21501 -1.00376 0
M  V30 200 C 20.1453 -0.999478 -2.11028 0
M  V30 201 C 21.1263 0.0759671 -1.6993 0
M  V30 202 O 22.3113 -0.0841106 -1.94018 0
M  V30 203 C 19.4413 -0.564709 -3.42678 0
M  V30 204 C 18.3953 -1.58486 -3.97576 0
M  V30 205 C 17.7213 -1.00628 -5.25146 0
M  V30 206 C 19.0213 -2.97204 -4.29496 0
M  V30 207 H 20.7153 -1.92495 -2.29317 0
M  V30 208 H 18.2613 -0.92693 -1.102 0
M  V30 209 H 20.2143 -0.401091 -4.19487 0
M  V30 210 H 18.9383 0.396411 -3.24185 0
M  V30 211 H 17.5973 -1.73606 -3.22888 0
M  V30 212 H 17.2453 -0.0368439 -5.02987 0
M  V30 213 H 16.9453 -1.68771 -5.62841 0
M  V30 214 H 18.4693 -0.854015 -6.04598 0
M  V30 215 H 19.8833 -2.8552 -4.97143 0
M  V30 216 H 18.2803 -3.62372 -4.78338 0
M  V30 217 H 19.3503 -3.47956 -3.3772 0
M  V30 218 N 20.6934 1.19889 -1.02296 0
M  V30 219 C 21.9334 1.91125 -0.724602 0
M  V30 220 C 22.2974 1.77464 0.732835 0
M  V30 221 O 23.4984 2.43241 1.144 0
M  V30 222 C 21.7694 3.38187 -1.15604 0
M  V30 223 S 23.3284 4.27702 -0.980621 0
M  V30 224 H 20.1464 0.66018 -0.263976 0
M  V30 225 H 22.7484 1.44978 -1.31155 0
M  V30 226 H 21.4524 3.45653 -2.21251 0
M  V30 227 H 20.9834 3.89363 -0.562131 0
M  V30 228 H 22.9984 4.96073 0.112225 0
M  V30 229 N 22.1715 0.800033 1.35784 0
M  V30 230 C 23.0815 0.207204 2.33683 0
M  V30 231 C 24.0975 -0.64631 1.61551 0
M  V30 232 O 25.2735 -0.559604 1.93469 0
M  V30 233 C 22.3385 -0.639659 3.40748 0
M  V30 234 C 21.3995 0.233585 4.28664 0
M  V30 235 C 20.6325 -0.572954 5.30616 0
M  V30 236 O 20.8555 -1.80816 5.40982 0
M  V30 237 O 19.7895 0.0327285 6.01891 0
M  V30 238 H 23.6155 1.01692 2.86169 0
M  V30 239 H 21.2005 0.561691 1.38439 0
M  V30 240 H 23.0825 -1.12223 4.06182 0
M  V30 241 H 21.7575 -1.42708 2.90544 0
M  V30 242 H 20.6645 0.763147 3.66233 0
M  V30 243 H 21.9975 0.984784 4.82248 0
M  V30 244 N 23.6496 -1.47581 0.552962 0
M  V30 245 C 24.8956 -2.02782 0.0273648 0
M  V30 246 C 25.2286 -1.42687 -1.31734 0
M  V30 247 O 24.5036 -0.580897 -1.85623 0
M  V30 248 C 24.7866 -3.60031 -0.0702371 0
M  V30 249 C 24.6396 -4.30566 1.30126 0
M  V30 250 C 25.9586 -4.33028 -0.785771 0
M  V30 251 H 23.0776 -0.736912 0.0114185 0
M  V30 252 H 25.7196 -1.76056 0.714432 0
M  V30 253 H 23.8696 -3.82932 -0.655382 0
M  V30 254 H 25.5416 -4.19018 1.92929 0
M  V30 255 H 23.7846 -3.91086 1.87709 0
M  V30 256 H 24.4556 -5.39114 1.18573 0
M  V30 257 H 26.9316 -4.15095 -0.288982 0
M  V30 258 H 25.8076 -5.42695 -0.823013 0
M  V30 259 H 26.0686 -4.01945 -1.841 0
M  V30 260 N 25.1277 -0.289203 -1.54924 0
M  V30 261 C 26.3767 0.324231 -1.99077 0
M  V30 262 C 26.6897 1.5591 -1.18117 0
M  V30 263 O 27.8957 2.24637 -1.52481 0
M  V30 264 C 26.3517 0.628209 -3.54375 0
M  V30 265 C 25.9597 -0.587647 -4.44129 0
M  V30 266 C 27.7037 1.20349 -4.07083 0
M  V30 267 C 25.6107 -0.257475 -5.90839 0
M  V30 268 H 24.5407 0.124924 -0.743579 0
M  V30 269 H 27.1917 -0.396063 -1.79175 0
M  V30 270 H 25.5737 1.40778 -3.70132 0
M  V30 271 H 26.7477 -1.36418 -4.40144 0
M  V30 272 H 25.0627 -1.08074 -4.0213 0
M  V30 273 H 27.6597 1.46456 -5.14252 0
M  V30 274 H 28.0027 2.14195 -3.56968 0
M  V30 275 H 28.5357 0.485889 -3.94821 0
M  V30 276 H 25.2747 -1.16419 -6.45079 0
M  V30 277 H 24.7947 0.482018 -5.9786 0
M  V30 278 H 26.4737 0.145238 -6.46837 0
M  V30 279 N 26.6058 1.57591 -0.0167156 0
M  V30 280 C 27.8538 1.90906 0.663285 0
M  V30 281 C 28.1748 0.892509 1.73376 0
M  V30 282 O 27.4448 -0.0677623 1.95783 0
M  V30 283 H 26.0248 0.704637 0.247983 0
M  V30 284 H 28.6868 1.94803 -0.0615909 0
M  V30 285 H 27.7828 2.9116 1.12393 0
M  V30 286 N 28.0839 -0.256276 1.55502 0
M  V30 287 C 29.0309 -1.31714 1.89526 0
M  V30 288 C 30.0009 -1.4828 0.748479 0
M  V30 289 O 31.1859 -1.62416 1.00128 0
M  V30 290 C 28.3259 -2.66933 2.18725 0
M  V30 291 C 27.4389 -2.58452 3.4616 0
M  V30 292 C 26.5739 -3.85961 3.64976 0
M  V30 293 C 25.6129 -3.72059 4.86044 0
M  V30 294 N 24.7499 -4.9144 5.01429 0
M  V30 295 H 29.5899 -1.01998 2.80001 0
M  V30 296 H 27.1269 -0.492413 1.38613 0
M  V30 297 H 29.0849 -3.4563 2.33657 0
M  V30 298 H 27.7149 -2.94816 1.31466 0
M  V30 299 H 26.7669 -1.71374 3.3961 0
M  V30 300 H 28.0789 -2.44085 4.34999 0
M  V30 301 H 27.2329 -4.73101 3.79816 0
M  V30 302 H 25.9719 -4.03215 2.74353 0
M  V30 303 H 24.9769 -2.83302 4.7119 0
M  V30 304 H 26.2019 -3.56309 5.78118 0
M  V30 305 H 24.1479 -5.09072 4.13741 0
M  V30 306 H 24.0649 -4.79668 5.84341 0
M  V30 307 H 25.3329 -5.80104 5.20672 0
M  V30 308 N 29.562 -1.4872 -0.521534 0
M  V30 309 C 30.81 -1.56857 -1.27437 0
M  V30 310 C 31.131 -0.247982 -1.93417 0
M  V30 311 O 30.401 0.731151 -1.81744 0
M  V30 312 H 28.981 -0.577885 -0.473347 0
M  V30 313 H 31.643 -1.85233 -0.606205 0
M  V30 314 H 30.739 -2.35402 -2.0492 0
M  V30 315 N 31.0401 0.771051 -1.3745 0
M  V30 316 C 32.4511 1.34737 -1.29239 0
M  V30 317 C 32.8021 1.96109 0.0596908 0
M  V30 318 O 31.9271 1.93865 0.961534 0
M  V30 319 C 32.5221 2.44973 -2.34037 0
M  V30 320 C 31.0811 2.98372 -2.29458 0
M  V30 321 C 30.2281 1.71595 -2.17831 0
M  V30 322 H 33.1791 0.571256 -1.48062 0
M  V30 323 H 33.2001 3.24471 -1.98744 0
M  V30 324 H 32.7121 2.00276 -3.32432 0
M  V30 325 H 30.8131 3.47443 -1.34589 0
M  V30 326 H 30.9261 3.53939 -3.229 0
M  V30 327 H 29.2901 1.94547 -1.64388 0
M  V30 328 H 30.0731 1.29001 -3.18141 0
M  V30 329 N 32.5182 1.22032 0.997298 0
M  V30 330 C 33.7652 1.04222 1.73621 0
M  V30 331 C 34.0932 -0.423264 1.89839 0
M  V30 332 O 33.3482 -1.3302 1.43542 0
M  V30 333 C 33.6472 1.69345 3.14733 0
M  V30 334 C 33.3132 3.19226 3.18442 0
M  V30 335 C 31.9752 3.60124 3.19161 0
M  V30 336 C 34.3272 4.15181 3.15078 0
M  V30 337 C 31.6552 4.95467 3.14212 0
M  V30 338 C 34.0072 5.50495 3.1167 0
M  V30 339 C 32.6712 5.90779 3.10703 0
M  V30 340 H 31.9412 0.381374 0.635323 0
M  V30 341 H 34.5882 1.51732 1.16831 0
M  V30 342 H 32.8932 1.14147 3.74803 0
M  V30 343 H 34.5902 1.53059 3.7064 0
M  V30 344 H 31.1802 2.86659 3.18629 0
M  V30 345 H 35.3642 3.84605 3.13676 0
M  V30 346 H 30.6202 5.25916 3.11805 0
M  V30 347 H 34.7942 6.24576 3.08022 0
M  V30 348 H 32.4212 6.9562 3.06622 0
M  V30 349 N 33.9963 -1.19345 1.0293 0
M  V30 350 C 35.2213 -1.93538 0.745511 0
M  V30 351 C 35.6463 -1.75007 -0.689511 0
M  V30 352 O 35.0043 -1.05265 -1.47611 0
M  V30 353 C 35.0523 -3.43336 1.10239 0
M  V30 354 O 34.1563 -4.11806 0.221289 0
M  V30 355 H 33.4973 -0.604193 0.275404 0
M  V30 356 H 36.0273 -1.5141 1.37609 0
M  V30 357 H 36.0373 -3.94004 1.05947 0
M  V30 358 H 34.7123 -3.56146 2.14786 0
M  V30 359 H 33.2893 -3.715 0.322842 0
M  V30 360 N 35.4744 -0.807222 -1.35358 0
M  V30 361 C 36.7204 -0.388463 -1.99045 0
M  V30 362 C 37.0534 1.04184 -1.63888 0
M  V30 363 O 36.3284 1.72292 -0.902535 0
M  V30 364 C 36.6114 -0.572783 -3.55515 0
M  V30 365 C 36.4644 -2.04807 -4.00468 0
M  V30 366 C 37.7834 0.00114064 -4.401 0
M  V30 367 H 34.9024 -0.142619 -0.723069 0
M  V30 368 H 37.5444 -1.01687 -1.60498 0
M  V30 369 H 35.6944 -0.0378425 -3.88482 0
M  V30 370 H 37.3664 -2.64544 -3.77908 0
M  V30 371 H 35.6094 -2.54427 -3.51353 0
M  V30 372 H 36.2804 -2.12792 -5.09337 0
M  V30 373 H 38.7564 -0.455716 -4.13597 0
M  V30 374 H 37.6324 -0.157737 -5.48673 0
M  V30 375 H 37.8934 1.09488 -4.28328 0
M  V30 376 N 36.9525 1.47285 -0.560781 0
M  V30 377 C 38.1985 2.02764 -0.0381184 0
M  V30 378 C 38.5315 1.43384 1.30976 0
M  V30 379 O 37.8065 0.590733 1.85312 0
M  V30 380 C 38.0895 3.60064 0.0511427 0
M  V30 381 C 37.9425 4.2987 -1.32408 0
M  V30 382 C 39.2615 4.33439 0.762795 0
M  V30 383 H 36.3805 0.736841 -0.0153264 0
M  V30 384 H 39.0225 1.75675 -0.723759 0
M  V30 385 H 37.1725 3.83274 0.635065 0
M  V30 386 H 38.8445 4.17989 -1.95148 0
M  V30 387 H 37.0875 3.90085 -1.8978 0
M  V30 388 H 37.7585 5.38478 -1.21431 0
M  V30 389 H 40.2345 4.15243 0.266965 0
M  V30 390 H 39.1105 5.43124 0.794221 0
M  V30 391 H 39.3715 4.02915 1.81966 0
M  V30 392 N 38.4306 0.297415 1.54768 0
M  V30 393 C 39.8466 -0.0560823 1.59501 0
M  V30 394 C 40.0466 -1.52725 1.31444 0
M  V30 395 O 39.1026 -2.27947 1.08611 0
M  V30 396 C 40.4156 0.338631 2.98787 0
M  V30 397 C 41.9636 0.287097 3.11681 0
M  V30 398 C 42.4386 0.656579 4.53269 0
M  V30 399 N 43.9296 0.608977 4.59179 0
M  V30 400 C 44.6646 0.867385 5.66802 0
M  V30 401 N 44.1606 1.19157 6.82476 0
M  V30 402 N 45.9536 0.794687 5.56454 0
M  V30 403 H 38.1046 1.25624 1.71267 0
M  V30 404 H 40.3676 0.509057 0.799728 0
M  V30 405 H 40.0736 1.36263 3.2423 0
M  V30 406 H 39.9476 -0.309508 3.75928 0
M  V30 407 H 42.3346 -0.727649 2.85988 0
M  V30 408 H 42.4156 0.969809 2.36703 0
M  V30 409 H 42.0596 1.66912 4.7969 0
M  V30 410 H 41.9896 -0.0481649 5.26578 0
M  V30 411 H 44.4806 0.369198 3.76092 0
M  V30 412 H 44.7936 1.37482 7.60473 0
M  V30 413 H 43.1386 1.22958 6.84037 0
M  V30 414 H 46.3296 0.541098 4.64962 0
M  V30 415 H 46.5026 0.999445 6.40246 0
M  V30 416 N 39.9087 -1.5758 0.0250728 0
M  V30 417 C 41.3247 -1.56124 -0.331282 0
M  V30 418 C 41.5247 -1.03029 -1.73169 0
M  V30 419 O 40.5807 -0.675215 -2.43305 0
M  V30 420 C 41.8937 -3.00139 -0.183584 0
M  V30 421 C 43.4417 -3.11946 -0.256654 0
M  V30 422 C 43.9167 -4.57793 -0.137792 0
M  V30 423 N 45.4077 -4.6279 -0.194904 0
M  V30 424 C 46.1427 -5.7326 -0.126655 0
M  V30 425 N 45.6387 -6.928 -0.00755288 0
M  V30 426 N 47.4317 -5.61811 -0.180348 0
M  V30 427 H 39.5827 -1.90424 0.94087 0
M  V30 428 H 41.8457 -0.875761 0.362968 0
M  V30 429 H 41.5517 -3.4292 0.780927 0
M  V30 430 H 41.4257 -3.64899 -0.955448 0
M  V30 431 H 43.8127 -2.69079 -1.21162 0
M  V30 432 H 43.8937 -2.49915 0.545517 0
M  V30 433 H 43.5377 -5.01339 0.813739 0
M  V30 434 H 43.4677 -5.17798 -0.958775 0
M  V30 435 H 45.9587 -3.76807 -0.287267 0
M  V30 436 H 46.2717 -7.72791 0.0379428 0
M  V30 437 H 44.6167 -6.94995 0.0271731 0
M  V30 438 H 47.8077 -4.6731 -0.271767 0
M  V30 439 H 47.9807 -6.47882 -0.123697 0
M  V30 440 N 41.3868 0.248026 -1.55636 0
M  V30 441 C 42.6268 0.983592 -1.79178 0
M  V30 442 C 42.9908 1.82567 -0.594414 0
M  V30 443 O 44.1918 2.59292 -0.708583 0
M  V30 444 C 42.4628 1.82228 -3.07454 0
M  V30 445 S 44.0218 2.61709 -3.52213 0
M  V30 446 H 40.8398 0.330866 -0.629324 0
M  V30 447 H 43.4418 0.251562 -1.93875 0
M  V30 448 H 42.1458 1.19333 -3.92668 0
M  V30 449 H 41.6768 2.59708 -2.95492 0
M  V30 450 H 43.6918 3.84655 -3.13457 0
M  V30 451 N 42.8649 1.48995 0.513639 0
M  V30 452 C 44.1139 1.57093 1.2651 0
M  V30 453 C 44.4269 0.257091 1.93903 0
M  V30 454 O 45.6329 0.216478 2.70636 0
M  V30 455 C 44.0889 2.77118 2.29638 0
M  V30 456 C 43.6969 4.15209 1.68241 0
M  V30 457 C 45.4409 2.94538 3.05692 0
M  V30 458 C 43.3479 5.26474 2.69406 0
M  V30 459 H 42.2779 0.584876 0.475854 0
M  V30 460 H 44.9289 1.7536 0.540487 0
M  V30 461 H 43.3109 2.52319 3.05207 0
M  V30 462 H 44.4849 4.50094 0.987505 0
M  V30 463 H 42.7999 4.03042 1.04623 0
M  V30 464 H 45.3969 3.74832 3.8132 0
M  V30 465 H 45.7399 2.04614 3.62545 0
M  V30 466 H 46.2729 3.19316 2.37238 0
M  V30 467 H 43.0119 6.18417 2.17351 0
M  V30 468 H 42.5319 4.96058 3.37175 0
M  V30 469 H 44.2109 5.55277 3.32078 0
M  V30 470 N 44.343 -0.763751 1.37857 0
M  V30 471 C 45.291 -1.89864 1.34367 0
M  V30 472 C 46.285 -1.67816 0.231143 0
M  V30 473 O 47.491 -1.75508 0.399617 0
M  V30 474 H 43.866 -0.624501 0.41893 0
M  V30 475 H 45.837 -1.89925 2.30155 0
M  V30 476 C 44.586 -3.27227 1.1755 0
M  V30 477 H 43.909 -3.44773 2.02414 0
M  V30 478 H 45.349 -4.06911 1.1916 0
M  V30 479 C 43.808 -3.36692 -0.118311 0
M  V30 480 O 44.338 -3.86374 -1.09902 0
M  V30 481 N 42.544 -2.90092 -0.171717 0
M  V30 482 H 42.091 -2.49853 0.627012 0
M  V30 483 H 42.049 -2.96806 -1.03699 0
M  V30 484 N 45.8211 -1.22559 -0.990812 0
M  V30 485 C 47.2371 -0.985996 -1.255 0
M  V30 486 C 47.4371 0.319173 -1.98956 0
M  V30 487 O 46.4931 1.04127 -2.3003 0
M  V30 488 C 47.8061 -2.18607 -2.06474 0
M  V30 489 C 49.3541 -2.22985 -2.19651 0
M  V30 490 C 49.8291 -3.4255 -3.04012 0
M  V30 491 N 51.3201 -3.42725 -3.11599 0
M  V30 492 C 52.0551 -4.31892 -3.7717 0
M  V30 493 N 51.5511 -5.31279 -4.44651 0
M  V30 494 N 53.3441 -4.19662 -3.73952 0
M  V30 495 H 45.4951 -2.06469 -0.49841 0
M  V30 496 H 47.7581 -0.904853 -0.282747 0
M  V30 497 H 47.4641 -3.13267 -1.59865 0
M  V30 498 H 47.3381 -2.18838 -3.07229 0
M  V30 499 H 49.7251 -1.28871 -2.65474 0
M  V30 500 H 49.8061 -2.26791 -1.18319 0
M  V30 501 H 49.4501 -4.36965 -2.58889 0
M  V30 502 H 49.3801 -3.35984 -4.0549 0
M  V30 503 H 51.8711 -2.70807 -2.63575 0
M  V30 504 H 52.1841 -5.95593 -4.92431 0
M  V30 505 H 50.5291 -5.3519 -4.43392 0
M  V30 506 H 53.7201 -3.41268 -3.20396 0
M  V30 507 H 53.8931 -4.89358 -4.24774 0
M  V30 508 N 47.2992 1.18797 -1.03562 0
M  V30 509 C 48.2092 2.25913 -0.632505 0
M  V30 510 C 49.2252 1.70668 0.338882 0
M  V30 511 O 50.4012 2.00453 0.195076 0
M  V30 512 C 47.4662 3.467 0.00350942 0
M  V30 513 C 46.5272 4.17098 -1.01624 0
M  V30 514 C 45.7602 5.32119 -0.410478 0
M  V30 515 O 45.9832 5.64976 0.784725 0
M  V30 516 O 44.9172 5.9107 -1.13667 0
M  V30 517 H 48.7432 2.62648 -1.52478 0
M  V30 518 H 46.3282 1.25781 -0.806195 0
M  V30 519 H 48.2102 4.19878 0.35781 0
M  V30 520 H 46.8852 3.11798 0.869686 0
M  V30 521 H 45.7922 3.4601 -1.42224 0
M  V30 522 H 47.1252 4.55987 -1.85301 0
M  V30 523 N 48.7773 0.814389 1.34928 0
M  V30 524 C 50.0053 0.411136 2.02774 0
M  V30 525 C 50.4203 -0.980316 1.61354 0
M  V30 526 O 49.7773 -1.63299 0.814847 0
M  V30 527 C 49.8283 0.493865 3.58111 0
M  V30 528 O 49.5493 1.83047 3.98027 0
M  V30 529 C 51.0503 0.0844174 4.4322 0
M  V30 530 H 48.2703 0.166037 0.650133 0
M  V30 531 H 50.8143 1.10018 1.72384 0
M  V30 532 H 48.9693 -0.147006 3.87121 0
M  V30 533 H 49.3833 1.79872 4.92693 0
M  V30 534 H 50.8573 0.193404 5.51661 0
M  V30 535 H 51.3343 -0.97113 4.28329 0
M  V30 536 H 51.9403 0.69875 4.19521 0
M  V30 537 N 50.2554 -1.46986 0.568584 0
M  V30 538 C 51.5034 -2.02041 0.0487022 0
M  V30 539 C 51.8244 -1.44408 -1.31039 0
M  V30 540 O 51.0944 -0.623477 -1.85714 0
M  V30 541 H 49.6744 -0.746849 0.015014 0
M  V30 542 H 52.3364 -1.80257 0.741168 0
M  V30 543 H 51.4324 -3.12085 -0.0308961 0
M  V30 544 N 51.7335 -0.305618 -1.54608 0
M  V30 545 C 52.6655 0.602161 -2.21149 0
M  V30 546 C 53.6785 1.09394 -1.20569 0
M  V30 547 O 54.8675 1.0106 -1.47136 0
M  V30 548 C 51.9675 1.83692 -2.84799 0
M  V30 549 C 51.1405 1.48686 -4.11353 0
M  V30 550 C 50.1995 2.57725 -4.58764 0
M  V30 551 O 49.2255 2.22623 -5.23858 0
M  V30 552 N 50.4275 3.88346 -4.31471 0
M  V30 553 H 53.1925 0.0324966 -2.99682 0
M  V30 554 H 50.7535 -0.128021 -1.61393 0
M  V30 555 H 52.7455 2.55994 -3.13448 0
M  V30 556 H 51.3155 2.31486 -2.10078 0
M  V30 557 H 50.5355 0.596269 -3.89664 0
M  V30 558 H 51.8235 1.22842 -4.93748 0
M  V30 559 H 51.2215 4.19671 -3.79331 0
M  V30 560 H 49.7785 4.56932 -4.64818 0
M  V30 561 N 53.2116 1.57565 -0.0334293 0
M  V30 562 C 54.1436 2.0739 0.975811 0
M  V30 563 C 55.1566 0.998166 1.2861 0
M  V30 564 O 56.3456 1.27426 1.25 0
M  V30 565 C 53.4456 2.4871 2.30209 0
M  V30 566 C 52.6186 3.79413 2.17634 0
M  V30 567 C 51.6776 4.07237 3.33233 0
M  V30 568 O 50.7036 4.77425 3.09927 0
M  V30 569 N 51.9056 3.5775 4.5716 0
M  V30 570 H 54.6706 2.94598 0.55066 0
M  V30 571 H 52.2316 1.61173 0.15323 0
M  V30 572 H 54.2236 2.64413 3.06378 0
M  V30 573 H 52.7936 1.66845 2.64351 0
M  V30 574 H 52.0136 3.73465 1.26165 0
M  V30 575 H 53.3016 4.65038 2.0644 0
M  V30 576 H 52.6996 3.00976 4.78989 0
M  V30 577 H 51.2566 3.78724 5.30482 0
M  V30 578 N 54.6897 -0.239769 1.55765 0
M  V30 579 C 55.9367 -0.966801 1.7793 0
M  V30 580 C 56.2647 -1.85046 0.599015 0
M  V30 581 O 55.5197 -1.91197 -0.417395 0
M  V30 582 C 55.8187 -1.852 3.05672 0
M  V30 583 C 55.4847 -1.1231 4.36689 0
M  V30 584 C 54.1467 -0.921689 4.72291 0
M  V30 585 C 56.4987 -0.607019 5.17653 0
M  V30 586 C 53.8267 -0.191996 5.86386 0
M  V30 587 C 56.1787 0.109241 6.32506 0
M  V30 588 C 54.8427 0.322073 6.66723 0
M  V30 589 H 54.1127 -0.353778 0.651093 0
M  V30 590 H 56.7597 -0.23634 1.90036 0
M  V30 591 H 55.0647 -2.64975 2.8861 0
M  V30 592 H 56.7617 -2.41635 3.20021 0
M  V30 593 H 53.3517 -1.29004 4.08725 0
M  V30 594 H 57.5357 -0.750153 4.90598 0
M  V30 595 H 52.7917 -0.0166949 6.11398 0
M  V30 596 H 56.9657 0.516737 6.9448 0
M  V30 597 H 54.5927 0.88944 7.54979 0
M  V30 598 N 56.1678 -1.49265 -0.50573 0
M  V30 599 C 57.1308 -1.65075 -1.59006 0
M  V30 600 C 58.1308 -0.522768 -1.52065 0
M  V30 601 O 59.3208 -0.789117 -1.55302 0
M  V30 602 C 56.4528 -1.64369 -2.98656 0
M  V30 603 H 57.6458 -2.61784 -1.46319 0
M  V30 604 H 55.1988 -1.38226 -0.729616 0
M  V30 605 H 55.9338 -0.692272 -3.16825 0
M  V30 606 H 55.7188 -2.46282 -3.05103 0
M  V30 607 H 57.2088 -1.78674 -3.77446 0
M  V30 608 N 57.6459 0.756429 -1.3826 0
M  V30 609 C 58.8919 1.51772 -1.34511 0
M  V30 610 C 59.2249 1.94089 0.0656691 0
M  V30 611 O 58.4999 1.65221 1.02626 0
M  V30 612 C 58.7829 2.77226 -2.29821 0
M  V30 613 C 58.6359 2.41065 -3.79747 0
M  V30 614 C 59.9549 3.79236 -2.23312 0
M  V30 615 H 57.0739 0.550578 -0.489931 0
M  V30 616 H 59.7159 0.866607 -1.69086 0
M  V30 617 H 57.8659 3.32784 -2.00467 0
M  V30 618 H 59.5379 1.91303 -4.19763 0
M  V30 619 H 57.7809 1.7356 -3.97567 0
M  V30 620 H 58.4519 3.3081 -4.41892 0
M  V30 621 H 60.9279 3.3321 -2.49219 0
M  V30 622 H 59.8039 4.64714 -2.92116 0
M  V30 623 H 60.0649 4.24615 -1.23102 0
M  V30 624 N 59.124 1.23083 0.984299 0
M  V30 625 C 60.071 1.00854 2.07598 0
M  V30 626 C 61.041 -0.0726709 1.65941 0
M  V30 627 O 62.226 0.0786535 1.90638 0
M  V30 628 C 59.366 0.601645 3.39815 0
M  V30 629 C 58.479 1.75456 3.94765 0
M  V30 630 C 57.614 1.29482 5.15177 0
M  V30 631 C 56.653 2.41873 5.62284 0
M  V30 632 N 55.79 1.96885 6.73929 0
M  V30 633 H 60.63 1.943 2.25946 0
M  V30 634 H 58.167 0.968001 1.10762 0
M  V30 635 H 60.125 0.346854 4.15756 0
M  V30 636 H 58.755 -0.295803 3.21442 0
M  V30 637 H 57.807 2.12346 3.15616 0
M  V30 638 H 59.119 2.59965 4.25699 0
M  V30 639 H 58.273 0.997923 5.98437 0
M  V30 640 H 57.012 0.420046 4.85888 0
M  V30 641 H 56.017 2.72342 4.77608 0
M  V30 642 H 57.242 3.29881 5.93595 0
M  V30 643 H 55.188 1.11782 6.46406 0
M  V30 644 H 55.105 2.74956 7.04227 0
M  V30 645 H 56.373 1.70289 7.60672 0
M  V30 646 N 60.6021 -1.18246 1.0419 0
M  V30 647 C 61.8511 -1.87588 0.741194 0
M  V30 648 C 62.1641 -1.81303 -0.734066 0
M  V30 649 O 63.3701 -2.46019 -1.14834 0
M  V30 650 C 61.8261 -3.36538 1.27555 0
M  V30 651 C 61.4341 -3.51349 2.77953 0
M  V30 652 C 63.1781 -4.11273 1.05143 0
M  V30 653 C 61.0851 -4.94265 3.2474 0
M  V30 654 H 60.0151 -0.702622 0.273565 0
M  V30 655 H 62.6661 -1.33601 1.25789 0
M  V30 656 H 61.0481 -3.9 0.686703 0
M  V30 657 H 62.2221 -3.08153 3.42605 0
M  V30 658 H 60.5371 -2.90022 2.98791 0
M  V30 659 H 63.1341 -5.16689 1.37611 0
M  V30 660 H 63.4771 -4.16298 -0.0112774 0
M  V30 661 H 64.0101 -3.63987 1.60495 0
M  V30 662 H 60.7491 -4.94408 4.30396 0
M  V30 663 H 60.2691 -5.38172 2.64823 0
M  V30 664 H 61.9481 -5.62987 3.18834 0
M  V30 665 N 62.0802 -0.821533 -1.34494 0
M  V30 666 C 63.3262 -0.409552 -1.98622 0
M  V30 667 C 63.6592 1.0244 -1.64984 0
M  V30 668 O 62.9342 1.71325 -0.920758 0
M  V30 669 C 63.2172 -0.610458 -3.54888 0
M  V30 670 C 63.0702 -2.09043 -3.98273 0
M  V30 671 C 64.3892 -0.0455379 -4.40076 0
M  V30 672 H 61.5082 -0.15028 -0.721516 0
M  V30 673 H 64.1502 -1.03384 -1.59411 0
M  V30 674 H 62.3002 -0.079044 -3.8842 0
M  V30 675 H 63.9722 -2.68537 -3.75081 0
M  V30 676 H 62.2152 -2.58139 -3.48635 0
M  V30 677 H 62.8862 -2.18182 -5.07051 0
M  V30 678 H 65.3622 -0.499557 -4.1309 0
M  V30 679 H 64.2382 -0.215922 -5.48475 0
M  V30 680 H 64.4992 1.04939 -4.29465 0
M  V30 681 N 63.5583 1.46682 -0.576371 0
M  V30 682 C 64.8353 1.95599 0.00703437 0
M  V30 683 C 65.2153 1.51904 1.46589 0
M  V30 684 O 64.5633 0.766755 2.15251 0
M  V30 685 C 64.7733 3.4864 -0.158404 0
M  V30 686 C 66.1213 4.24594 -0.0229439 0
M  V30 687 O 67.1453 3.56094 -0.0869173 0
M  V30 688 O 66.0043 5.46373 0.118015 0
M  V30 689 H 63.0983 0.825275 0.053384 0
M  V30 690 H 65.6443 1.56996 -0.644244 0
M  V30 691 H 64.4163 3.7331 -1.17282 0
M  V30 692 H 64.0393 3.94057 0.5296 0
M  V30 693 N 65.0364 0.313813 1.54444 0
M  V30 694 C 66.2824 -0.292108 2.00685 0
M  V30 695 C 66.6154 -1.52548 1.20177 0
M  V30 696 O 65.8904 -1.92452 0.281531 0
M  V30 697 C 66.1734 -0.635968 3.5444 0
M  V30 698 C 66.0264 0.607437 4.4568 0
M  V30 699 C 67.3454 -1.45747 4.15266 0
M  V30 700 H 64.4644 -0.104697 0.729526 0
M  V30 701 H 67.1064 0.428457 1.85106 0
M  V30 702 H 65.2564 -1.24986 3.67846 0
M  V30 703 H 66.9284 1.24581 4.44159 0
M  V30 704 H 65.1714 1.23822 4.15753 0
M  V30 705 H 65.8424 0.322515 5.51057 0
M  V30 706 H 68.3184 -0.938645 4.05375 0
M  V30 707 H 67.1944 -1.66683 5.2298 0
M  V30 708 H 67.4554 -2.45063 3.67963 0
M  V30 709 N 66.5145 -1.57545 0.0417849 0
M  V30 710 C 67.4775 -2.09885 -0.92093 0
M  V30 711 C 68.4775 -1.01648 -1.24596 0
M  V30 712 O 69.6675 -1.27759 -1.1842 0
M  V30 713 C 66.7995 -2.57527 -2.23367 0
M  V30 714 H 67.9925 -2.96236 -0.467382 0
M  V30 715 H 65.5455 -1.5493 -0.206467 0
M  V30 716 H 66.2805 -1.74542 -2.73323 0
M  V30 717 H 66.0655 -3.36613 -2.01083 0
M  V30 718 H 67.5555 -2.98201 -2.92346 0
M  V30 719 N 67.9926 0.231505 -1.5589 0
M  V30 720 C 68.9396 1.28682 -1.91598 0
M  V30 721 C 69.9096 1.47071 -0.771974 0
M  V30 722 O 71.0946 1.60802 -1.027 0
M  V30 723 C 68.2346 2.6342 -2.22944 0
M  V30 724 C 67.3476 2.52912 -3.50228 0
M  V30 725 C 66.4826 3.80106 -3.7107 0
M  V30 726 C 65.5216 3.64279 -4.91902 0
M  V30 727 N 64.6586 4.834 -5.09184 0
M  V30 728 H 69.4986 0.975305 -2.81588 0
M  V30 729 H 67.0356 0.470299 -1.39379 0
M  V30 730 H 68.9936 3.41869 -2.39126 0
M  V30 731 H 67.6236 2.92687 -1.36139 0
M  V30 732 H 66.6756 1.6595 -3.42294 0
M  V30 733 H 67.9876 2.37133 -4.38827 0
M  V30 734 H 67.1416 4.66999 -3.87295 0
M  V30 735 H 65.8806 3.98799 -2.80733 0
M  V30 736 H 64.8856 2.7577 -4.75637 0
M  V30 737 H 66.1106 3.47067 -5.83714 0
M  V30 738 H 64.0566 5.02425 -4.21788 0
M  V30 739 H 63.9736 4.70311 -5.91898 0
M  V30 740 H 65.2416 5.71747 -5.29835 0
M  V30 741 N 69.4707 1.49531 0.497807 0
M  V30 742 C 70.7177 1.59179 1.25173 0
M  V30 743 C 71.0457 0.279932 1.92475 0
M  V30 744 O 70.3007 -0.732383 1.81479 0
M  V30 745 C 70.5997 2.70252 2.33878 0
M  V30 746 C 70.2657 4.11644 1.84012 0
M  V30 747 C 68.9277 4.50121 1.70132 0
M  V30 748 C 71.2797 5.00121 1.46725 0
M  V30 749 C 68.6077 5.74845 1.17348 0
M  V30 750 C 70.9597 6.25366 0.95392 0
M  V30 751 C 69.6237 6.6267 0.801538 0
M  V30 752 H 68.8937 0.582478 0.45804 0
M  V30 753 H 71.5407 1.83373 0.551948 0
M  V30 754 H 69.8457 2.40041 3.09657 0
M  V30 755 H 71.5427 2.74925 2.9192 0
M  V30 756 H 68.1327 3.81274 1.95775 0
M  V30 757 H 72.3167 4.71048 1.56294 0
M  V30 758 H 67.5727 6.02444 1.04264 0
M  V30 759 H 71.7467 6.93301 0.656225 0
M  V30 760 H 69.3737 7.59197 0.390351 0
M  V30 761 N 70.9488 -0.749086 1.3866 0
M  V30 762 C 72.1768 -1.53834 1.38358 0
M  V30 763 C 72.5918 -1.88783 -0.0255219 0
M  V30 764 O 71.9488 -1.53101 -0.993292 0
M  V30 765 C 71.9998 -2.83468 2.2434 0
M  V30 766 O 71.7208 -2.50008 3.5976 0
M  V30 767 C 73.2218 -3.7758 2.32267 0
M  V30 768 H 70.4418 -0.47585 0.473083 0
M  V30 769 H 72.9858 -0.926726 1.82297 0
M  V30 770 H 71.1408 -3.40995 1.83851 0
M  V30 771 H 71.5548 -3.33182 4.05081 0
M  V30 772 H 73.0288 -4.65478 2.96706 0
M  V30 773 H 73.5058 -4.18334 1.33765 0
M  V30 774 H 74.1118 -3.25976 2.73166 0
M  V30 775 N 72.4269 -1.23603 -0.977757 0
M  V30 776 C 73.6519 -1.09735 -1.75991 0
M  V30 777 C 74.0769 0.346858 -1.84874 0
M  V30 778 O 73.4349 1.25093 -1.3123 0
M  V30 779 C 73.4829 -1.73051 -3.16363 0
M  V30 780 O 72.5869 -0.994452 -4.0023 0
M  V30 781 H 71.9279 -0.384476 -0.541364 0
M  V30 782 H 74.4579 -1.6371 -1.2272 0
M  V30 783 H 74.4679 -1.78398 -3.66931 0
M  V30 784 H 73.1429 -2.78137 -3.09213 0
M  V30 785 H 71.7199 -1.01812 -3.58732 0
M  V30 786 N 73.905 1.17692 -1.04816 0
M  V30 787 C 75.13 1.92327 -0.776207 0
M  V30 788 C 75.555 1.76082 0.661581 0
M  V30 789 O 74.913 1.076 1.45917 0
M  V30 790 C 74.961 3.41539 -1.15687 0
M  V30 791 O 74.065 4.11402 -0.286775 0
M  V30 792 H 73.406 0.599735 -0.284981 0
M  V30 793 H 75.936 1.49201 -1.4 0
M  V30 794 H 75.946 3.92269 -1.12202 0
M  V30 795 H 74.621 3.52684 -2.20425 0
M  V30 796 H 73.198 3.70939 -0.381903 0
M  V30 797 N 75.3831 0.828654 1.34056 0
M  V30 798 C 76.7941 0.477534 1.8049 0
M  V30 799 C 77.1451 -1.00258 1.6865 0
M  V30 800 O 76.2701 -1.78057 1.22982 0
M  V30 801 C 76.8651 0.860018 3.27703 0
M  V30 802 C 75.4241 0.561185 3.72193 0
M  V30 803 C 74.5711 1.07385 2.55663 0
M  V30 804 H 77.5221 1.0183 1.21722 0
M  V30 805 H 77.5431 0.166038 3.80138 0
M  V30 806 H 77.0551 1.93731 3.36288 0
M  V30 807 H 75.1561 -0.506465 3.69142 0
M  V30 808 H 75.2691 1.10926 4.66082 0
M  V30 809 H 73.6331 0.495149 2.49841 0
M  V30 810 H 74.4161 2.15771 2.67016 0
M  V30 811 N 76.8612 -1.46375 0.584142 0
M  V30 812 C 78.1092 -2.01978 0.0701287 0
M  V30 813 C 78.4302 -1.4579 -1.295 0
M  V30 814 O 77.7002 -0.64314 -1.85042 0
M  V30 815 H 76.2802 -0.746648 0.0229345 0
M  V30 816 H 78.9422 -1.79461 0.760245 0
M  V30 817 H 78.0382 -3.121 0.0022064 0
M  V30 818 N 78.3393 -0.321999 -1.54275 0
M  V30 819 C 79.2693 0.537411 -2.27231 0
M  V30 820 C 80.2503 1.12064 -1.27968 0
M  V30 821 O 81.4353 1.14606 -1.56777 0
M  V30 822 C 78.5653 1.69919 -3.02894 0
M  V30 823 C 77.5193 1.24534 -4.09482 0
M  V30 824 C 76.8453 2.49394 -4.72977 0
M  V30 825 C 78.1453 0.361335 -5.21049 0
M  V30 826 H 79.8393 -0.0711406 -2.99315 0
M  V30 827 H 77.3853 -0.0356555 -1.43956 0
M  V30 828 H 79.3383 2.30668 -3.52662 0
M  V30 829 H 78.0623 2.33431 -2.28424 0
M  V30 830 H 76.7213 0.660782 -3.60596 0
M  V30 831 H 76.3693 3.11265 -3.95124 0
M  V30 832 H 76.0693 2.19718 -5.44975 0
M  V30 833 H 77.5933 3.10908 -5.25517 0
M  V30 834 H 79.0073 0.875072 -5.66582 0
M  V30 835 H 77.4043 0.157428 -5.99893 0
M  V30 836 H 78.4743 -0.60822 -4.8107 0
M  V30 837 N 79.8174 1.5752 -0.0501392 0
M  V30 838 C 81.0424 1.97376 0.636997 0
M  V30 839 C 81.4674 0.927466 1.63645 0
M  V30 840 O 80.8254 -0.10941 1.8097 0
M  V30 841 C 80.8734 3.36304 1.30123 0
M  V30 842 O 79.9774 3.34156 2.41689 0
M  V30 843 H 79.3184 0.642998 0.165679 0
M  V30 844 H 81.8484 2.04258 -0.118233 0
M  V30 845 H 81.8584 3.73008 1.65315 0
M  V30 846 H 80.5334 4.11993 0.568746 0
M  V30 847 H 79.1104 3.09196 2.08451 0
M  V30 848 N 81.2955 -0.223234 1.56011 0
M  V30 849 C 82.5235 -0.964812 1.83027 0
M  V30 850 C 82.9385 -1.78013 0.62904 0
M  V30 851 O 82.2955 -1.78008 -0.402414 0
M  V30 852 C 82.3465 -1.88373 3.08542 0
M  V30 853 O 82.0675 -1.10137 4.2403 0
M  V30 854 C 83.5685 -2.73934 3.48533 0
M  V30 855 H 80.7885 -0.282842 0.608475 0
M  V30 856 H 83.3325 -0.238971 2.03099 0
M  V30 857 H 81.4875 -2.56354 2.9045 0
M  V30 858 H 81.9015 -1.72501 4.95322 0
M  V30 859 H 83.3755 -3.34117 4.39397 0
M  V30 860 H 83.8525 -3.46244 2.70207 0
M  V30 861 H 84.4585 -2.11369 3.69057 0
M  V30 862 N 82.7736 -1.49793 -0.48987 0
M  V30 863 C 83.6836 -1.70036 -1.61632 0
M  V30 864 C 84.6996 -0.583102 -1.63939 0
M  V30 865 O 85.8756 -0.859169 -1.82154 0
M  V30 866 C 82.9406 -1.77277 -2.97949 0
M  V30 867 C 82.0016 -3.00918 -3.06181 0
M  V30 868 C 81.2346 -3.07804 -4.35996 0
M  V30 869 O 81.4576 -2.21982 -5.25433 0
M  V30 870 O 80.3916 -4.00369 -4.49431 0
M  V30 871 H 84.2176 -2.65486 -1.47482 0
M  V30 872 H 81.8026 -1.33666 -0.667362 0
M  V30 873 H 83.6846 -1.84329 -3.78947 0
M  V30 874 H 82.3596 -0.850076 -3.12339 0
M  V30 875 H 81.2666 -2.99377 -2.2433 0
M  V30 876 H 82.5996 -3.92704 -2.96723 0
M  V30 877 N 84.2517 0.741722 -1.39055 0
M  V30 878 C 85.5287 1.49252 -1.26425 0
M  V30 879 C 85.9087 2.10705 0.129144 0
M  V30 880 O 85.2567 1.98045 1.13976 0
M  V30 881 C 85.4667 2.54934 -2.38347 0
M  V30 882 C 86.8147 3.21506 -2.77343 0
M  V30 883 O 87.8387 2.65245 -2.37747 0
M  V30 884 O 86.6977 4.23294 -3.45665 0
M  V30 885 H 83.7917 0.662451 -0.495064 0
M  V30 886 H 86.3377 0.776121 -1.50912 0
M  V30 887 H 85.1097 2.07857 -3.31529 0
M  V30 888 H 84.7327 3.34141 -2.15489 0
M  V30 889 N 85.7298 1.2412 0.971189 0
M  V30 890 C 86.6598 1.05508 2.08304 0
M  V30 891 C 87.6408 -0.0308864 1.70072 0
M  V30 892 O 88.8258 0.135521 1.93727 0
M  V30 893 C 85.9558 0.655365 3.4106 0
M  V30 894 C 84.9098 1.68971 3.93234 0
M  V30 895 C 84.2358 1.14516 5.22293 0
M  V30 896 C 85.5358 3.08487 4.21465 0
M  V30 897 H 87.2298 1.98507 2.24132 0
M  V30 898 H 84.7758 0.955821 1.07704 0
M  V30 899 H 86.7288 0.51217 4.18276 0
M  V30 900 H 85.4528 -0.31032 3.25122 0
M  V30 901 H 84.1118 1.82106 3.18171 0
M  V30 902 H 83.7598 0.170189 5.02712 0
M  V30 903 H 83.4598 1.83635 5.58168 0
M  V30 904 H 84.9838 1.01401 6.02121 0
M  V30 905 H 86.3978 2.98601 4.89398 0
M  V30 906 H 84.7948 3.74926 4.68562 0
M  V30 907 H 85.8648 3.56787 3.28376 0
M  V30 908 N 87.2079 -1.17134 1.05439 0
M  V30 909 C 88.1549 -2.21235 0.657539 0
M  V30 910 C 89.1249 -1.62551 -0.341543 0
M  V30 911 O 90.3099 -1.89379 -0.232393 0
M  V30 912 C 87.4499 -3.45076 0.0410575 0
M  V30 913 C 86.5629 -4.18042 1.08927 0
M  V30 914 C 85.6979 -5.29376 0.439848 0
M  V30 915 C 84.7369 -5.94132 1.4722 0
M  V30 916 N 83.8739 -6.96975 0.846756 0
M  V30 917 H 88.7139 -2.54534 1.54972 0
M  V30 918 H 86.2509 -1.25028 0.775006 0
M  V30 919 H 88.2089 -4.15862 -0.33383 0
M  V30 920 H 86.8389 -3.12353 -0.814568 0
M  V30 921 H 85.8909 -3.45945 1.58196 0
M  V30 922 H 87.2029 -4.62306 1.87282 0
M  V30 923 H 86.3569 -6.06699 0.0115125 0
M  V30 924 H 85.0959 -4.86251 -0.375656 0
M  V30 925 H 84.1009 -5.15538 1.91052 0
M  V30 926 H 85.3259 -6.39337 2.28965 0
M  V30 927 H 83.2719 -6.5598 0.0518075 0
M  V30 928 H 83.1889 -7.39565 1.5678 0
M  V30 929 H 84.4569 -7.78239 0.443277 0
M  V30 930 N 88.686 -0.835752 -1.33615 0
M  V30 931 C 90.102 -0.523139 -1.50783 0
M  V30 932 C 90.302 0.950171 -1.77691 0
M  V30 933 O 89.358 1.73411 -1.83534 0
M  V30 934 C 90.671 -1.39378 -2.66448 0
M  V30 935 C 92.219 -1.39223 -2.80332 0
M  V30 936 C 92.694 -2.24765 -3.99055 0
M  V30 937 N 94.185 -2.22458 -4.06284 0
M  V30 938 C 94.92 -2.85386 -4.97336 0
M  V30 939 N 94.416 -3.57354 -5.93523 0
M  V30 940 N 96.209 -2.74872 -4.90308 0
M  V30 941 H 88.36 -1.78952 -1.14411 0
M  V30 942 H 90.623 -0.763297 -0.562212 0
M  V30 943 H 90.329 -2.44061 -2.53234 0
M  V30 944 H 90.203 -1.0676 -3.61776 0
M  V30 945 H 92.59 -0.353136 -2.92979 0
M  V30 946 H 92.671 -1.75846 -1.85773 0
M  V30 947 H 92.315 -3.28732 -3.87167 0
M  V30 948 H 92.245 -1.85485 -4.92852 0
M  V30 949 H 94.736 -1.70119 -3.37443 0
M  V30 950 H 95.049 -4.02584 -6.59656 0
M  V30 951 H 93.394 -3.61461 -5.93608 0
M  V30 952 H 96.585 -2.18213 -4.14126 0
M  V30 953 H 96.758 -3.24199 -5.61069 0
M  V30 954 N 90.1641 1.46063 -0.591896 0
M  V30 955 C 91.0741 2.34192 0.13831 0
M  V30 956 C 92.0901 1.50305 0.876608 0
M  V30 957 O 93.2661 1.8315 0.837728 0
M  V30 958 C 90.3311 3.27656 1.13326 0
M  V30 959 C 89.3921 4.27445 0.39863 0
M  V30 960 C 88.6251 5.16443 1.34618 0
M  V30 961 O 88.8481 5.08553 2.58321 0
M  V30 962 O 87.7821 5.95843 0.851768 0
M  V30 963 H 91.6081 2.98002 -0.58552 0
M  V30 964 H 89.1931 1.45188 -0.352239 0
M  V30 965 H 91.0751 3.85291 1.70671 0
M  V30 966 H 89.7501 2.6643 1.83839 0
M  V30 967 H 88.6571 3.73471 -0.216895 0
M  V30 968 H 89.9901 4.91482 -0.265709 0
M  V30 969 N 91.6422 0.330177 1.54103 0
M  V30 970 C 92.6052 -0.520144 2.2322 0
M  V30 971 C 93.6052 -1.03828 1.22786 0
M  V30 972 O 94.7952 -0.929652 1.4732 0
M  V30 973 C 91.9272 -1.72317 2.94142 0
M  V30 974 H 93.1202 0.0841605 2.99782 0
M  V30 975 H 90.6732 0.0813433 1.56088 0
M  V30 976 H 91.4082 -2.36653 2.21734 0
M  V30 977 H 91.1932 -1.35898 3.67796 0
M  V30 978 H 92.6832 -2.3266 3.46784 0
M  V30 979 N 93.1203 -1.57491 0.0584922 0
M  V30 980 C 94.3453 -1.97711 -0.62652 0
M  V30 981 C 94.7703 -0.936132 -1.63151 0
M  V30 982 O 94.1283 0.099811 -1.81025 0
M  V30 983 C 94.1763 -3.36989 -1.28338 0
M  V30 984 O 93.2803 -3.35433 -2.39913 0
M  V30 985 H 92.6213 -0.643868 -0.162266 0
M  V30 986 H 95.1513 -2.04193 0.129064 0
M  V30 987 H 95.1613 -3.73879 -1.63335 0
M  V30 988 H 93.8363 -4.12289 -0.546889 0
M  V30 989 H 92.4133 -3.10298 -2.06809 0
M  V30 990 N 94.5984 0.214957 -1.56127 0
M  V30 991 C 95.8474 0.936451 -1.78643 0
M  V30 992 C 96.1604 1.85237 -0.628229 0
M  V30 993 O 97.3664 2.613 -0.737186 0
M  V30 994 C 95.8224 1.7154 -3.16389 0
M  V30 995 C 95.4304 0.845299 -4.39953 0
M  V30 996 C 97.1744 2.42772 -3.48227 0
M  V30 997 C 95.0814 1.62198 -5.68723 0
M  V30 998 H 94.0114 0.353401 -0.666051 0
M  V30 999 H 96.6624 0.190169 -1.82512 0
M  V30 1000 H 95.0444 2.50484 -3.06715 0
M  V30 1001 H 96.2184 0.0959353 -4.607 0
M  V30 1002 H 94.5334 0.244789 -4.1568 0
M  V30 1003 H 97.1304 3.01394 -4.41663 0
M  V30 1004 H 97.4734 3.15984 -2.71035 0
M  V30 1005 H 98.0064 1.70813 -3.5926 0
M  V30 1006 H 94.7454 0.933011 -6.48826 0
M  V30 1007 H 94.2654 2.34579 -5.52026 0
M  V30 1008 H 95.9444 2.18095 -6.09133 0
M  V30 1009 N 96.0765 1.50051 0.48192 0
M  V30 1010 C 97.3165 1.62128 1.24474 0
M  V30 1011 C 97.6805 0.309742 1.89485 0
M  V30 1012 O 98.8815 0.305854 2.67054 0
M  V30 1013 C 97.1525 2.76151 2.26882 0
M  V30 1014 S 98.7115 3.08297 3.12247 0
M  V30 1015 H 95.5295 0.571661 0.422759 0
M  V30 1016 H 98.1315 1.87791 0.54359 0
M  V30 1017 H 96.8355 3.69942 1.77683 0
M  V30 1018 H 96.3665 2.52541 3.0164 0
M  V30 1019 H 98.3815 2.51287 4.27866 0
M  V30 1020 N 97.5546 -0.734337 1.39446 0
M  V30 1021 C 98.5046 -1.83949 1.34709 0
M  V30 1022 C 99.4886 -1.59279 0.227851 0
M  V30 1023 O 100.681 -1.70771 0.465438 0
M  V30 1024 C 97.8096 -3.21884 1.19356 0
M  V30 1025 C 96.8956 -3.52381 2.35984 0
M  V30 1026 N 97.2866 -3.53811 3.61457 0
M  V30 1027 C 95.5846 -3.82747 2.28956 0
M  V30 1028 C 96.2856 -3.82122 4.38586 0
M  V30 1029 N 95.2616 -3.9993 3.68181 0
M  V30 1030 H 99.0636 -1.83361 2.29687 0
M  V30 1031 H 96.5776 -0.932609 1.32952 0
M  V30 1032 H 98.5746 -4.00998 1.14046 0
M  V30 1033 H 97.2346 -3.23711 0.253295 0
M  V30 1034 H 98.2456 -3.35107 3.94872 0
M  V30 1035 H 94.9226 -3.92175 1.43194 0
M  V30 1036 H 96.3126 -3.89691 5.47349 0
M  V30 1037 N 99.0327 -1.24633 -0.964593 0
M  V30 1038 C 99.9657 -0.984662 -2.05863 0
M  V30 1039 C 100.944 0.0826554 -1.6239 0
M  V30 1040 O 102.128 -0.0549296 -1.8842 0
M  V30 1041 C 99.2547 -0.486529 -3.35187 0
M  V30 1042 C 98.3007 -1.54286 -3.97615 0
M  V30 1043 S 99.1337 -3.12513 -4.34851 0
M  V30 1044 C 100.29 -2.6441 -5.67308 0
M  V30 1045 H 100.523 -1.91104 -2.27743 0
M  V30 1046 H 98.0557 -1.08052 -1.10291 0
M  V30 1047 H 100.014 -0.205757 -4.09984 0
M  V30 1048 H 98.6747 0.419186 -3.1129 0
M  V30 1049 H 97.8677 -1.14481 -4.90826 0
M  V30 1050 H 97.4697 -1.7738 -3.2926 0
M  V30 1051 H 99.7617 -2.07416 -6.44969 0
M  V30 1052 H 100.705 -3.56222 -6.11973 0
M  V30 1053 H 101.113 -2.04734 -5.26065 0
M  V30 1054 N 100.511 1.16574 -1.06058 0
M  V30 1055 C 101.441 2.23057 -0.690488 0
M  V30 1056 C 102.422 1.67141 0.315901 0
M  V30 1057 O 103.607 1.93253 0.191556 0
M  V30 1058 C 100.737 3.47222 -0.073625 0
M  V30 1059 C 99.6908 4.16016 -1.00573 0
M  V30 1060 C 99.0168 5.34104 -0.252289 0
M  V30 1061 C 100.317 4.67264 -2.33371 0
M  V30 1062 H 102.011 2.54271 -1.58072 0
M  V30 1063 H 99.5568 1.22218 -0.76149 0
M  V30 1064 H 101.51 4.20939 0.19714 0
M  V30 1065 H 100.234 3.15302 0.85161 0
M  V30 1066 H 98.8928 3.44223 -1.2612 0
M  V30 1067 H 98.5408 4.98437 0.675988 0
M  V30 1068 H 98.2408 5.81072 -0.873455 0
M  V30 1069 H 99.7648 6.10599 0.0109857 0
M  V30 1070 H 101.179 5.32573 -2.12223 0
M  V30 1071 H 99.5758 5.24843 -2.90963 0
M  V30 1072 H 100.646 3.83602 -2.96611 0
M  V30 1073 N 101.989 0.842826 1.3317 0
M  V30 1074 C 102.936 0.276885 2.29133 0
M  V30 1075 C 103.906 -0.609527 1.54512 0
M  V30 1076 O 105.091 -0.546955 1.82792 0
M  V30 1077 C 102.231 -0.538707 3.40869 0
M  V30 1078 C 101.344 0.372169 4.30394 0
M  V30 1079 C 100.479 -0.454908 5.29249 0
M  V30 1080 C 99.5179 0.45411 6.10413 0
M  V30 1081 N 98.6549 -0.335075 7.013 0
M  V30 1082 H 103.495 1.10052 2.76934 0
M  V30 1083 H 101.032 0.554161 1.36262 0
M  V30 1084 H 102.99 -1.02709 4.0436 0
M  V30 1085 H 101.62 -1.32727 2.9425 0
M  V30 1086 H 100.672 0.97888 3.6759 0
M  V30 1087 H 101.984 1.0703 4.87182 0
M  V30 1088 H 101.138 -1.00695 5.98285 0
M  V30 1089 H 99.8769 -1.18646 4.73048 0
M  V30 1090 H 98.8819 1.01813 5.40291 0
M  V30 1091 H 100.107 1.18409 6.68697 0
M  V30 1092 H 98.0529 -1.04994 6.47543 0
M  V30 1093 H 97.9699 0.304262 7.55387 0
M  V30 1094 H 99.2379 -0.869224 7.74638 0
M  V30 1095 N 103.467 -1.45747 0.599634 0
M  V30 1096 C 104.417 -2.27538 -0.145107 0
M  V30 1097 C 105.401 -1.3686 -0.846055 0
M  V30 1098 O 106.593 -1.6091 -0.737357 0
M  V30 1099 C 103.722 -3.23569 -1.14708 0
M  V30 1100 C 102.808 -4.21734 -0.447383 0
M  V30 1101 N 103.199 -5.03257 0.506535 0
M  V30 1102 C 101.497 -4.40536 -0.695966 0
M  V30 1103 C 102.198 -5.74426 0.917068 0
M  V30 1104 N 101.174 -5.42966 0.26253 0
M  V30 1105 H 104.976 -2.87965 0.587672 0
M  V30 1106 H 102.49 -1.56803 0.422697 0
M  V30 1107 H 104.487 -3.8089 -1.69495 0
M  V30 1108 H 103.147 -2.64702 -1.8805 0
M  V30 1109 H 104.158 -5.10319 0.882899 0
M  V30 1110 H 100.835 -3.92802 -1.41467 0
M  V30 1111 H 102.225 -6.4995 1.70338 0
M  V30 1112 N 104.945 -0.338344 -1.53925 0
M  V30 1113 C 106.356 0.146651 -1.86123 0
M  V30 1114 C 106.707 1.5042 -1.2597 0
M  V30 1115 O 105.832 2.08723 -0.571294 0
M  V30 1116 C 106.427 0.272879 -3.37699 0
M  V30 1117 C 104.986 0.702103 -3.69794 0
M  V30 1118 C 104.133 -0.167304 -2.76795 0
M  V30 1119 H 107.084 -0.558123 -1.48562 0
M  V30 1120 H 107.105 1.10128 -3.64214 0
M  V30 1121 H 106.617 -0.715307 -3.81451 0
M  V30 1122 H 104.718 1.6995 -3.31584 0
M  V30 1123 H 104.831 0.495604 -4.7653 0
M  V30 1124 H 103.195 0.359527 -2.5215 0
M  V30 1125 H 103.978 -1.15253 -3.23375 0
M  V30 1126 N 106.423 1.57458 -0.0668435 0
M  V30 1127 C 107.373 2.0896 0.912119 0
M  V30 1128 C 108.357 0.998186 1.26195 0
M  V30 1129 O 109.549 1.26133 1.24175 0
M  V30 1130 C 106.678 2.6508 2.18145 0
M  V30 1131 C 105.764 3.81218 1.85832 0
M  V30 1132 N 106.155 4.90378 1.23948 0
M  V30 1133 C 104.453 3.9042 2.15612 0
M  V30 1134 C 105.154 5.71279 1.09616 0
M  V30 1135 N 104.13 5.19389 1.60423 0
M  V30 1136 H 107.932 2.90749 0.42924 0
M  V30 1137 H 105.446 1.6182 0.137184 0
M  V30 1138 H 107.443 3.0029 2.89192 0
M  V30 1139 H 106.103 1.84736 2.67025 0
M  V30 1140 H 107.114 5.09847 0.909731 0
M  V30 1141 H 103.791 3.21043 2.66903 0
M  V30 1142 H 105.181 6.69085 0.614425 0
M  V30 1143 N 107.901 -0.206675 1.56239 0
M  V30 1144 C 109.15 -0.926964 1.79138 0
M  V30 1145 C 109.463 -1.84901 0.638043 0
M  V30 1146 O 110.669 -2.60906 0.751033 0
M  V30 1147 C 109.125 -1.6986 3.17294 0
M  V30 1148 C 108.733 -0.821956 4.40395 0
M  V30 1149 C 110.477 -2.40922 3.4951 0
M  V30 1150 C 108.384 -1.59179 5.69575 0
M  V30 1151 H 107.314 -0.349864 0.667915 0
M  V30 1152 H 109.965 -0.180487 1.8261 0
M  V30 1153 H 108.347 -2.48853 3.08039 0
M  V30 1154 H 109.521 -0.0715019 4.60745 0
M  V30 1155 H 107.836 -0.222741 4.15804 0
M  V30 1156 H 110.433 -2.99047 4.43255 0
M  V30 1157 H 110.776 -3.14542 2.72707 0
M  V30 1158 H 111.309 -1.68905 3.60161 0
M  V30 1159 H 108.048 -0.898589 6.49312 0
M  V30 1160 H 107.568 -2.31648 5.53262 0
M  V30 1161 H 109.247 -2.14862 6.10281 0
M  V30 1162 N 109.379 -1.50304 -0.473955 0
M  V30 1163 C 110.625 -1.61389 -1.22806 0
M  V30 1164 C 110.958 -0.311955 -1.91678 0
M  V30 1165 O 110.233 0.686384 -1.81986 0
M  V30 1166 C 110.516 -2.79219 -2.27396 0
M  V30 1167 C 110.369 -4.19286 -1.62848 0
M  V30 1168 C 111.688 -2.92614 -3.28732 0
M  V30 1169 H 108.807 -0.587399 -0.445119 0
M  V30 1170 H 111.449 -1.82681 -0.522265 0
M  V30 1171 H 109.599 -2.61195 -2.87592 0
M  V30 1172 H 111.271 -4.48892 -1.06271 0
M  V30 1173 H 109.514 -4.23677 -0.931693 0
M  V30 1174 H 110.185 -4.97655 -2.38838 0
M  V30 1175 H 112.661 -3.09105 -2.78556 0
M  V30 1176 H 111.537 -3.76688 -3.99246 0
M  V30 1177 H 111.798 -2.03107 -3.92683 0
M  V30 1178 N 110.857 0.726932 -1.39834 0
M  V30 1179 C 111.767 1.87131 -1.41489 0
M  V30 1180 C 112.783 1.71239 -0.308757 0
M  V30 1181 O 113.959 1.93701 -0.551529 0
M  V30 1182 C 111.024 3.22811 -1.26468 0
M  V30 1183 C 110.085 3.51039 -2.47124 0
M  V30 1184 C 109.318 4.80245 -2.3281 0
M  V30 1185 O 109.541 5.54537 -1.33585 0
M  V30 1186 O 108.475 5.08554 -3.21957 0
M  V30 1187 H 112.301 1.8869 -2.3797 0
M  V30 1188 H 109.886 0.875837 -1.21035 0
M  V30 1189 H 111.768 4.03877 -1.20255 0
M  V30 1190 H 110.443 3.22005 -0.330862 0
M  V30 1191 H 109.35 2.70027 -2.58914 0
M  V30 1192 H 110.683 3.56632 -3.39227 0
M  V30 1193 N 112.336 1.25143 0.95797 0
M  V30 1194 C 113.266 1.07711 2.07173 0
M  V30 1195 C 114.247 -0.0128462 1.70095 0
M  V30 1196 O 115.432 0.156061 1.93572 0
M  V30 1197 C 112.562 0.691503 3.40346 0
M  V30 1198 C 111.516 1.73132 3.9142 0
M  V30 1199 C 110.842 1.20049 5.21049 0
M  V30 1200 C 112.142 3.1294 4.1817 0
M  V30 1201 H 113.836 2.00873 2.22014 0
M  V30 1202 H 111.382 0.967191 1.06684 0
M  V30 1203 H 113.335 0.556505 4.17709 0
M  V30 1204 H 112.059 -0.275819 3.25433 0
M  V30 1205 H 110.718 1.8547 3.16222 0
M  V30 1206 H 110.366 0.223499 5.02503 0
M  V30 1207 H 110.066 1.89545 5.56189 0
M  V30 1208 H 111.59 1.07782 6.01012 0
M  V30 1209 H 113.004 3.03775 4.86203 0
M  V30 1210 H 111.401 3.79875 4.64559 0
M  V30 1211 H 112.471 3.6025 3.24573 0
M  V30 1212 N 113.814 -1.1601 1.06675 0
M  V30 1213 C 114.744 -2.22688 0.702307 0
M  V30 1214 C 115.725 -1.67306 -0.307032 0
M  V30 1215 O 116.91 -1.93352 -0.181305 0
M  V30 1216 C 114.04 -3.47178 0.092038 0
M  V30 1217 C 112.994 -4.15477 1.02777 0
M  V30 1218 C 112.32 -5.33963 0.28061 0
M  V30 1219 C 113.62 -4.66019 2.35846 0
M  V30 1220 H 115.314 -2.53429 1.59419 0
M  V30 1221 H 112.86 -1.21813 0.767961 0
M  V30 1222 H 114.813 -4.21037 -0.174814 0
M  V30 1223 H 113.537 -3.15749 -0.834877 0
M  V30 1224 H 112.196 -3.43549 1.27944 0
M  V30 1225 H 111.844 -4.98788 -0.649545 0
M  V30 1226 H 111.544 -5.806 0.904258 0
M  V30 1227 H 113.068 -6.10596 0.021396 0
M  V30 1228 H 114.482 -5.3144 2.15045 0
M  V30 1229 H 112.879 -5.23293 2.93743 0
M  V30 1230 H 113.949 -3.82023 2.98641 0
M  V30 1231 N 115.292 -0.849877 -1.32721 0
M  V30 1232 C 116.202 -0.293791 -2.32753 0
M  V30 1233 C 117.218 0.585906 -1.63839 0
M  V30 1234 O 118.394 0.487413 -1.95413 0
M  V30 1235 C 115.459 0.512752 -3.42887 0
M  V30 1236 C 114.52 -0.39252 -4.27502 0
M  V30 1237 C 113.753 0.375625 -5.32377 0
M  V30 1238 O 113.976 1.60613 -5.4732 0
M  V30 1239 O 112.91 -0.256094 -6.01355 0
M  V30 1240 H 116.736 -1.12242 -2.82197 0
M  V30 1241 H 114.321 -0.612685 -1.36259 0
M  V30 1242 H 116.203 0.970704 -4.10067 0
M  V30 1243 H 114.878 1.31826 -2.95641 0
M  V30 1244 H 113.785 -0.898547 -3.63149 0
M  V30 1245 H 115.118 -1.16309 -4.7826 0
M  V30 1246 N 116.77 1.45427 -0.607355 0
M  V30 1247 C 117.998 2.06614 -0.108814 0
M  V30 1248 C 118.413 1.45204 1.2067 0
M  V30 1249 O 117.77 0.566132 1.73497 0
M  V30 1250 C 117.821 3.61481 0.0375347 0
M  V30 1251 O 117.542 4.20598 -1.22593 0
M  V30 1252 C 119.043 4.39652 0.567561 0
M  V30 1253 H 116.263 0.66747 -0.0687351 0
M  V30 1254 H 118.807 1.86675 -0.835022 0
M  V30 1255 H 116.962 3.80762 0.714068 0
M  V30 1256 H 117.376 5.1377 -1.05547 0
M  V30 1257 H 118.85 5.48518 0.61905 0
M  V30 1258 H 119.327 4.09417 1.58978 0
M  V30 1259 H 119.933 4.25234 -0.0749202 0
M  V30 1260 N 118.248 0.346503 1.53744 0
M  V30 1261 C 119.478 -0.250047 2.05081 0
M  V30 1262 C 119.886 -1.44529 1.22098 0
M  V30 1263 O 119.229 -1.81992 0.249917 0
M  V30 1264 C 119.291 -0.725934 3.52094 0
M  V30 1265 C 118.955 0.350053 4.55657 0
M  V30 1266 C 119.952 1.19372 5.0601 0
M  V30 1267 C 117.637 0.504827 4.99757 0
M  V30 1268 C 119.631 2.17768 5.99046 0
M  V30 1269 C 117.318 1.49218 5.92602 0
M  V30 1270 C 118.316 2.32706 6.42135 0
M  V30 1271 O 118.004 3.2976 7.33153 0
M  V30 1272 H 117.736 -0.0515469 0.674032 0
M  V30 1273 H 120.29 0.497559 1.99282 0
M  V30 1274 H 118.52 -1.52483 3.55367 0
M  V30 1275 H 120.209 -1.24336 3.86388 0
M  V30 1276 H 120.975 1.08525 4.72702 0
M  V30 1277 H 116.854 -0.135178 4.60802 0
M  V30 1278 H 120.398 2.82971 6.37631 0
M  V30 1279 H 116.295 1.6012 6.25325 0
M  V30 1280 H 117.063 3.25265 7.51096 0
M  V30 1281 N 119.726 -1.57421 0.075193 0
M  V30 1282 C 120.951 -1.98364 -0.605515 0
M  V30 1283 C 121.376 -0.953383 -1.62149 0
M  V30 1284 O 120.734 0.0806053 -1.81121 0
M  V30 1285 C 120.782 -3.38332 -1.24756 0
M  V30 1286 O 119.886 -3.37959 -2.36342 0
M  V30 1287 H 119.227 -0.645553 -0.155428 0
M  V30 1288 H 121.757 -2.04044 0.150714 0
M  V30 1289 H 121.767 -3.75591 -1.5936 0
M  V30 1290 H 120.442 -4.12846 -0.503129 0
M  V30 1291 H 119.019 -3.12474 -2.03506 0
M  V30 1292 N 121.204 0.198386 -1.56346 0
M  V30 1293 C 122.429 0.939682 -1.84891 0
M  V30 1294 C 122.854 1.76202 -0.658369 0
M  V30 1295 O 122.212 1.76993 0.392851 0
M  V30 1296 C 122.26 1.81428 -3.11635 0
M  V30 1297 O 121.364 2.91265 -2.91956 0
M  V30 1298 H 120.705 0.264807 -0.608912 0
M  V30 1299 H 123.235 0.204695 -2.03573 0
M  V30 1300 H 123.245 2.21958 -3.42343 0
M  V30 1301 H 121.92 1.21004 -3.97908 0
M  V30 1302 H 120.497 2.54514 -2.72538 0
M  V30 1303 N 122.682 1.50554 0.465978 0
M  V30 1304 C 123.959 1.5232 1.22712 0
M  V30 1305 C 124.339 0.270807 2.09356 0
M  V30 1306 O 123.687 -0.745541 2.15995 0
M  V30 1307 C 123.897 2.82175 2.05374 0
M  V30 1308 C 125.245 3.33033 2.6339 0
M  V30 1309 O 126.269 2.83531 2.15612 0
M  V30 1310 O 125.128 4.19336 3.50456 0
M  V30 1311 H 122.222 0.611183 0.557122 0
M  V30 1312 H 124.768 1.62847 0.477381 0
M  V30 1313 H 123.54 3.64797 1.41558 0
M  V30 1314 H 123.163 2.74675 2.87471 0
M  V30 1315 N 124.16 -0.719506 1.40217 0
M  V30 1316 C 125.408 -1.47641 1.3801 0
M  V30 1317 C 125.729 -1.94992 -0.018145 0
M  V30 1318 O 124.999 -1.70073 -0.972207 0
M  V30 1319 H 123.579 -0.547744 0.507923 0
M  V30 1320 H 126.241 -0.853187 1.75233 0
M  V30 1321 H 125.337 -2.35112 2.05253 0
M  V30 1322 N 125.638 -1.25649 -0.95132 0
M  V30 1323 C 126.571 -1.00644 -2.04807 0
M  V30 1324 C 127.549 0.0654271 -1.62468 0
M  V30 1325 O 128.733 -0.074911 -1.88351 0
M  V30 1326 C 125.86 -0.522052 -3.34653 0
M  V30 1327 C 124.906 -1.58495 -3.95957 0
M  V30 1328 S 125.739 -3.17108 -4.31512 0
M  V30 1329 C 126.895 -2.70412 -5.64471 0
M  V30 1330 H 127.128 -1.93508 -2.25703 0
M  V30 1331 H 124.661 -1.09216 -1.09139 0
M  V30 1332 H 126.619 -0.24923 -4.09743 0
M  V30 1333 H 125.28 0.386146 -3.11717 0
M  V30 1334 H 124.473 -1.1968 -4.89584 0
M  V30 1335 H 124.075 -1.80862 -3.2736 0
M  V30 1336 H 126.367 -2.14245 -6.42733 0
M  V30 1337 H 127.31 -3.62693 -6.08161 0
M  V30 1338 H 127.718 -2.10302 -5.23864 0
M  V30 1339 N 127.117 1.15442 -1.07289 0
M  V30 1340 C 128.047 2.22312 -0.714107 0
M  V30 1341 C 129.028 1.67467 0.298155 0
M  V30 1342 O 130.213 1.93445 0.171048 0
M  V30 1343 C 127.343 3.47124 -0.110448 0
M  V30 1344 C 126.297 4.14926 -1.04979 0
M  V30 1345 C 125.623 5.33807 -0.308924 0
M  V30 1346 C 126.923 4.64762 -2.38314 0
M  V30 1347 H 128.617 2.5258 -1.6076 0
M  V30 1348 H 126.163 1.21404 -0.77441 0
M  V30 1349 H 128.116 4.21124 0.152482 0
M  V30 1350 H 126.84 3.16187 0.81812 0
M  V30 1351 H 125.499 3.42866 -1.29764 0
M  V30 1352 H 125.147 4.99126 0.623084 0
M  V30 1353 H 124.847 5.80113 -0.935036 0
M  V30 1354 H 126.371 6.10576 -0.0537771 0
M  V30 1355 H 127.785 5.30292 -2.1786 0
M  V30 1356 H 126.182 5.21728 -2.96514 0
M  V30 1357 H 127.252 3.80434 -3.00663 0
M  V30 1358 N 128.595 0.856903 1.32268 0
M  V30 1359 C 129.825 0.47475 2.01071 0
M  V30 1360 C 130.233 -0.933746 1.64553 0
M  V30 1361 O 129.576 -1.62114 0.863989 0
M  V30 1362 C 129.638 0.536746 3.55471 0
M  V30 1363 C 129.302 1.90453 4.15423 0
M  V30 1364 C 130.299 2.87029 4.33486 0
M  V30 1365 C 127.984 2.20229 4.51447 0
M  V30 1366 C 129.978 4.11532 4.86744 0
M  V30 1367 C 127.665 3.44984 5.0441 0
M  V30 1368 C 128.663 4.40452 5.22007 0
M  V30 1369 O 128.351 5.62998 5.73837 0
M  V30 1370 H 128.083 0.184778 0.650256 0
M  V30 1371 H 130.637 1.15615 1.69771 0
M  V30 1372 H 128.867 -0.20152 3.86175 0
M  V30 1373 H 130.556 0.169875 4.05544 0
M  V30 1374 H 131.322 2.6533 4.05986 0
M  V30 1375 H 127.201 1.46705 4.37034 0
M  V30 1376 H 130.745 4.86056 5.00395 0
M  V30 1377 H 126.642 3.66532 5.31342 0
M  V30 1378 H 127.41 5.64987 5.92226 0
M  V30 1379 N 130.073 -1.45103 0.615059 0
M  V30 1380 C 131.006 -2.27717 -0.148408 0
M  V30 1381 C 131.984 -1.37584 -0.866572 0
M  V30 1382 O 133.168 -1.67017 -0.87393 0
M  V30 1383 C 130.295 -3.16136 -1.21557 0
M  V30 1384 C 129.341 -4.22263 -0.599712 0
M  V30 1385 S 130.174 -5.3215 0.598081 0
M  V30 1386 C 131.33 -6.24137 -0.469484 0
M  V30 1387 H 131.563 -2.92121 0.552483 0
M  V30 1388 H 129.096 -1.49054 0.402778 0
M  V30 1389 H 131.054 -3.67633 -1.82638 0
M  V30 1390 H 129.715 -2.50982 -1.88857 0
M  V30 1391 H 128.908 -4.84081 -1.4029 0
M  V30 1392 H 128.51 -3.73945 -0.063876 0
M  V30 1393 H 130.802 -6.63984 -1.34652 0
M  V30 1394 H 131.745 -7.0801 0.112725 0
M  V30 1395 H 132.153 -5.58971 -0.788168 0
M  V30 1396 N 131.551 -0.354651 -1.53558 0
M  V30 1397 C 132.797 0.238797 -2.01389 0
M  V30 1398 C 133.13 1.49309 -1.2418 0
M  V30 1399 O 132.405 1.91638 -0.332457 0
M  V30 1400 C 132.688 0.541771 -3.56001 0
M  V30 1401 C 132.541 -0.725388 -4.43912 0
M  V30 1402 C 133.86 1.34685 -4.18984 0
M  V30 1403 H 130.979 0.0853177 -0.732045 0
M  V30 1404 H 133.621 -0.477384 -1.83905 0
M  V30 1405 H 131.771 1.15189 -3.71031 0
M  V30 1406 H 133.443 -1.36313 -4.407 0
M  V30 1407 H 131.686 -1.34801 -4.12324 0
M  V30 1408 H 132.357 -0.468505 -5.50008 0
M  V30 1409 H 134.833 0.830837 -4.07721 0
M  V30 1410 H 133.709 1.52759 -5.27215 0
M  V30 1411 H 133.97 2.35221 -3.74331 0
M  V30 1412 N 133.029 1.57378 -0.0835403 0
M  V30 1413 C 134.276 1.9393 0.58287 0
M  V30 1414 C 134.604 0.964455 1.68904 0
M  V30 1415 O 133.859 -0.0179474 1.95692 0
M  V30 1416 C 134.158 3.37063 1.1884 0
M  V30 1417 C 133.824 4.50424 0.207194 0
M  V30 1418 C 132.486 4.81159 -0.0627115 0
M  V30 1419 C 134.838 5.19136 -0.463426 0
M  V30 1420 C 132.166 5.77939 -1.01012 0
M  V30 1421 C 134.518 6.16931 -1.39924 0
M  V30 1422 C 133.182 6.46078 -1.67749 0
M  V30 1423 H 132.452 0.70964 0.213287 0
M  V30 1424 H 135.099 1.90856 -0.156916 0
M  V30 1425 H 133.404 3.3666 2.00418 0
M  V30 1426 H 135.101 3.6264 1.71153 0
M  V30 1427 H 131.691 4.2646 0.427747 0
M  V30 1428 H 135.875 4.95576 -0.268034 0
M  V30 1429 H 131.131 5.98842 -1.23283 0
M  V30 1430 H 135.305 6.69273 -1.92476 0
M  V30 1431 H 132.932 7.2088 -2.41321 0
M  V30 1432 N 134.507 -0.190092 1.56449 0
M  V30 1433 C 135.417 -1.25591 1.98152 0
M  V30 1434 C 136.433 -1.49519 0.889944 0
M  V30 1435 O 137.609 -1.62036 1.19609 0
M  V30 1436 C 134.674 -2.57916 2.3169 0
M  V30 1437 C 133.735 -2.42015 3.5458 0
M  V30 1438 C 132.968 -3.6803 3.8651 0
M  V30 1439 O 133.191 -4.72413 3.1966 0
M  V30 1440 O 132.125 -3.6326 4.79923 0
M  V30 1441 H 135.951 -0.931988 2.89046 0
M  V30 1442 H 133.536 -0.395488 1.4407 0
M  V30 1443 H 135.418 -3.36008 2.54316 0
M  V30 1444 H 134.093 -2.89925 1.43963 0
M  V30 1445 H 133 -1.62017 3.37196 0
M  V30 1446 H 134.333 -2.14937 4.4279 0
M  V30 1447 N 135.985 -1.50799 -0.457987 0
M  V30 1448 C 137.232 -1.62442 -1.20908 0
M  V30 1449 C 137.56 -0.330865 -1.91665 0
M  V30 1450 O 136.815 0.68401 -1.83357 0
M  V30 1451 C 137.114 -2.76358 -2.2663 0
M  V30 1452 C 136.78 -4.16378 -1.73033 0
M  V30 1453 C 135.442 -4.54473 -1.58138 0
M  V30 1454 C 137.794 -5.03836 -1.33413 0
M  V30 1455 C 135.122 -5.77754 -1.02065 0
M  V30 1456 C 137.474 -6.27676 -0.78778 0
M  V30 1457 C 136.138 -6.64562 -0.625561 0
M  V30 1458 H 135.408 -0.594417 -0.442435 0
M  V30 1459 H 138.055 -1.84772 -0.503136 0
M  V30 1460 H 136.36 -2.48167 -3.03184 0
M  V30 1461 H 138.057 -2.82568 -2.84528 0
M  V30 1462 H 134.647 -3.86331 -1.85598 0
M  V30 1463 H 138.831 -4.75026 -1.4375 0
M  V30 1464 H 134.087 -6.04997 -0.882547 0
M  V30 1465 H 138.261 -6.94797 -0.472177 0
M  V30 1466 H 135.888 -7.59965 -0.188926 0
M  V30 1467 N 137.463 0.71206 -1.40597 0
M  V30 1468 C 138.396 1.83582 -1.35546 0
M  V30 1469 C 139.374 1.61032 -0.225284 0
M  V30 1470 O 140.558 1.83998 -0.409519 0
M  V30 1471 C 137.685 3.19983 -1.11034 0
M  V30 1472 C 136.731 3.61355 -2.2655 0
M  V30 1473 S 137.564 3.68062 -3.88961 0
M  V30 1474 C 138.72 5.07216 -3.66719 0
M  V30 1475 H 138.953 1.87586 -2.30648 0
M  V30 1476 H 136.486 0.879182 -1.26924 0
M  V30 1477 H 138.444 3.98734 -0.975761 0
M  V30 1478 H 137.105 3.13608 -0.175798 0
M  V30 1479 H 136.298 4.60403 -2.0505 0
M  V30 1480 H 135.9 2.8987 -2.36329 0
M  V30 1481 H 138.192 5.94238 -3.25404 0
M  V30 1482 H 139.135 5.33753 -4.6531 0
M  V30 1483 H 139.543 4.77976 -3.00332 0
M  V30 1484 N 138.941 1.26152 0.944643 0
M  V30 1485 C 140.218 1.02247 1.66748 0
M  V30 1486 C 140.598 -0.448202 2.06287 0
M  V30 1487 O 139.946 -1.42779 1.78399 0
M  V30 1488 C 140.156 1.96788 2.88228 0
M  V30 1489 C 141.504 2.25201 3.59958 0
M  V30 1490 O 142.528 1.94626 2.98327 0
M  V30 1491 O 141.387 2.77242 4.70956 0
M  V30 1492 H 138.481 0.388517 0.730057 0
M  V30 1493 H 141.027 1.37348 0.99668 0
M  V30 1494 H 139.799 2.96047 2.55875 0
M  V30 1495 H 139.422 1.62145 3.63035 0
M  V30 1496 N 140.419 -1.14872 1.07899 0
M  V30 1497 C 141.667 -1.85422 0.803941 0
M  V30 1498 C 141.988 -1.83051 -0.67211 0
M  V30 1499 O 141.258 -1.27532 -1.48703 0
M  V30 1500 H 139.838 -0.686537 0.294408 0
M  V30 1501 H 142.5 -1.39226 1.3639 0
M  V30 1502 H 141.596 -2.90399 1.14346 0
M  V30 1503 N 141.898 -0.863906 -1.31812 0
M  V30 1504 C 142.861 -0.320212 -2.26952 0
M  V30 1505 C 143.861 0.525369 -1.51975 0
M  V30 1506 O 145.051 0.335547 -1.70938 0
M  V30 1507 C 142.183 0.545919 -3.365 0
M  V30 1508 H 143.376 -1.16004 -2.76556 0
M  V30 1509 H 140.929 -0.638995 -1.42641 0
M  V30 1510 H 141.664 1.40718 -2.92179 0
M  V30 1511 H 141.449 -0.0594674 -3.92055 0
M  V30 1512 H 142.939 0.918796 -4.07367 0
M  V30 1513 N 143.376 1.44774 -0.622745 0
M  V30 1514 C 144.653 1.95522 -0.0551974 0
M  V30 1515 C 145.033 1.5649 1.41683 0
M  V30 1516 O 144.381 0.834848 2.12703 0
M  V30 1517 C 144.591 3.4796 -0.269242 0
M  V30 1518 C 145.939 4.24306 -0.158014 0
M  V30 1519 O 146.963 3.55637 -0.200162 0
M  V30 1520 O 145.822 5.46471 -0.0558693 0
M  V30 1521 H 142.916 0.826556 0.0271015 0
M  V30 1522 H 145.462 1.54866 -0.693864 0
M  V30 1523 H 144.234 3.6939 -1.29099 0
M  V30 1524 H 143.857 3.95543 0.403966 0
M  V30 1525 N 144.854 0.36279 1.53368 0
M  V30 1526 C 145.784 -0.476976 2.28576 0
M  V30 1527 C 146.765 -1.08631 1.30894 0
M  V30 1528 O 147.95 -1.10409 1.59761 0
M  V30 1529 C 145.08 -1.61828 3.07293 0
M  V30 1530 C 144.034 -1.13633 4.1264 0
M  V30 1531 C 143.36 -2.36766 4.79423 0
M  V30 1532 C 144.66 -0.223061 5.21823 0
M  V30 1533 H 146.354 0.150474 2.99022 0
M  V30 1534 H 143.9 0.0738103 1.43811 0
M  V30 1535 H 145.853 -2.21237 3.58653 0
M  V30 1536 H 144.577 -2.27292 2.34533 0
M  V30 1537 H 143.236 -0.564945 3.62221 0
M  V30 1538 H 142.884 -3.0068 4.03238 0
M  V30 1539 H 142.584 -2.05192 5.50609 0
M  V30 1540 H 144.108 -2.96865 5.33576 0
M  V30 1541 H 145.522 -0.724545 5.68703 0
M  V30 1542 H 143.919 0.001678 6.001 0
M  V30 1543 H 144.989 0.735553 4.79289 0
M  V30 1544 N 146.332 -1.57332 0.0918853 0
M  V30 1545 C 147.572 -1.96117 -0.575988 0
M  V30 1546 C 147.936 -0.972499 -1.65549 0
M  V30 1547 O 149.137 -1.24872 -2.38034 0
M  V30 1548 C 147.408 -3.39407 -1.11973 0
M  V30 1549 S 148.967 -4.00185 -1.79992 0
M  V30 1550 H 145.785 -0.685682 -0.188045 0
M  V30 1551 H 148.387 -1.94755 0.170525 0
M  V30 1552 H 147.091 -4.09131 -0.322504 0
M  V30 1553 H 146.622 -3.44358 -1.90214 0
M  V30 1554 H 148.637 -3.88728 -3.08391 0
M  V30 1555 N 147.81 0.181792 -1.56548 0
M  V30 1556 C 149.057 0.900097 -1.81396 0
M  V30 1557 C 149.385 1.82695 -0.667281 0
M  V30 1558 O 148.64 1.92614 0.346146 0
M  V30 1559 C 148.939 1.73728 -3.12335 0
M  V30 1560 C 148.605 0.960255 -4.40556 0
M  V30 1561 C 147.267 0.745766 -4.75386 0
M  V30 1562 C 149.619 0.414477 -5.19549 0
M  V30 1563 C 146.947 -0.0257694 -5.86694 0
M  V30 1564 C 149.299 -0.343916 -6.31664 0
M  V30 1565 C 147.963 -0.569301 -6.65068 0
M  V30 1566 H 147.233 0.329369 -0.663775 0
M  V30 1567 H 149.88 0.165647 -1.90782 0
M  V30 1568 H 148.185 2.54081 -2.98245 0
M  V30 1569 H 149.882 2.29591 -3.28769 0
M  V30 1570 H 146.472 1.13746 -4.13231 0
M  V30 1571 H 150.656 0.567554 -4.93044 0
M  V30 1572 H 145.912 -0.210233 -6.11038 0
M  V30 1573 H 150.086 -0.774133 -6.92084 0
M  V30 1574 H 147.713 -1.16903 -7.51158 0
M  V30 1575 N 149.288 1.51039 0.449983 0
M  V30 1576 C 150.198 1.74261 1.57067 0
M  V30 1577 C 151.214 0.626363 1.62335 0
M  V30 1578 O 152.39 0.907162 1.79812 0
M  V30 1579 C 149.455 1.85114 2.93144 0
M  V30 1580 C 148.516 3.0893 2.98095 0
M  V30 1581 C 147.749 3.19256 4.27681 0
M  V30 1582 O 147.972 2.35835 5.19363 0
M  V30 1583 O 146.906 4.12144 4.38658 0
M  V30 1584 H 150.732 2.69303 1.40391 0
M  V30 1585 H 148.317 1.35389 0.631688 0
M  V30 1586 H 150.199 1.94311 3.73926 0
M  V30 1587 H 148.874 0.932588 3.09975 0
M  V30 1588 H 147.781 3.0522 2.16314 0
M  V30 1589 H 149.114 4.00433 2.86206 0
M  V30 1590 N 150.766 -0.704594 1.40972 0
M  V30 1591 C 152.015 -1.46018 1.39146 0
M  V30 1592 C 152.328 -1.956 0.000589254 0
M  V30 1593 O 153.534 -2.71137 -0.1403 0
M  V30 1594 C 151.99 -2.63996 2.4461 0
M  V30 1595 C 151.598 -2.21238 3.89561 0
M  V30 1596 C 153.342 -3.41677 2.51907 0
M  V30 1597 C 151.249 -3.3612 4.86598 0
M  V30 1598 H 150.179 -0.548444 0.517422 0
M  V30 1599 H 152.83 -0.765784 1.66757 0
M  V30 1600 H 151.212 -3.3566 2.10115 0
M  V30 1601 H 152.386 -1.56923 4.33257 0
M  V30 1602 H 150.701 -1.56574 3.85841 0
M  V30 1603 H 153.298 -4.27182 3.2159 0
M  V30 1604 H 153.641 -3.86247 1.55303 0
M  V30 1605 H 154.174 -2.77064 2.85448 0
M  V30 1606 H 150.913 -2.96572 5.84573 0
M  V30 1607 H 150.433 -3.99315 4.47557 0
M  V30 1608 H 152.112 -4.02029 5.06934 0
M  V30 1609 N 152.244 -1.26651 -0.937939 0
M  V30 1610 C 153.49 -1.12553 -1.687 0
M  V30 1611 C 153.823 0.329782 -1.91379 0
M  V30 1612 O 153.098 1.24202 -1.4968 0
M  V30 1613 C 153.381 -1.89862 -3.05981 0
M  V30 1614 C 153.234 -3.43318 -2.90607 0
M  V30 1615 C 154.553 -1.69499 -4.0615 0
M  V30 1616 H 151.672 -0.410257 -0.612257 0
M  V30 1617 H 154.314 -1.55685 -1.08913 0
M  V30 1618 H 152.464 -1.53204 -3.57017 0
M  V30 1619 H 154.136 -3.89747 -2.46769 0
M  V30 1620 H 152.379 -3.70179 -2.26164 0
M  V30 1621 H 153.05 -3.92642 -3.8799 0
M  V30 1622 H 155.526 -2.01442 -3.64088 0
M  V30 1623 H 154.402 -2.26002 -5.00214 0
M  V30 1624 H 154.663 -0.640365 -4.37438 0
M  V30 1625 N 153.722 1.14298 -1.08507 0
M  V30 1626 C 154.669 2.19414 -0.715965 0
M  V30 1627 C 155.639 1.63399 0.298326 0
M  V30 1628 O 156.824 1.89929 0.182101 0
M  V30 1629 C 153.964 3.44845 -0.132534 0
M  V30 1630 C 153.077 4.15007 -1.19973 0
M  V30 1631 C 152.212 5.28024 -0.580048 0
M  V30 1632 C 151.251 5.9002 -1.62921 0
M  V30 1633 N 150.388 6.94485 -1.03125 0
M  V30 1634 H 155.228 2.50336 -1.61666 0
M  V30 1635 H 152.765 1.2293 -0.807882 0
M  V30 1636 H 154.723 4.16601 0.223454 0
M  V30 1637 H 153.353 3.14403 0.731467 0
M  V30 1638 H 152.405 3.41629 -1.67313 0
M  V30 1639 H 153.717 4.57178 -1.99473 0
M  V30 1640 H 152.871 6.06455 -0.172364 0
M  V30 1641 H 151.61 4.87076 0.246603 0
M  V30 1642 H 150.615 5.10291 -2.04654 0
M  V30 1643 H 151.84 6.33042 -2.45835 0
M  V30 1644 H 149.786 6.55612 -0.225711 0
M  V30 1645 H 149.703 7.35148 -1.76334 0
M  V30 1646 H 150.971 7.7679 -0.649458 0
M  V30 1647 N 155.201 0.870884 1.31352 0
M  V30 1648 C 156.617 0.562932 1.49343 0
M  V30 1649 C 156.817 -0.902725 1.80148 0
M  V30 1650 O 155.873 -1.68484 1.88067 0
M  V30 1651 C 157.186 1.46393 2.62659 0
M  V30 1652 C 158.734 1.46607 2.76542 0
M  V30 1653 C 159.209 2.35266 3.92955 0
M  V30 1654 N 160.7 2.33151 4.00243 0
M  V30 1655 C 161.435 2.98471 4.89594 0
M  V30 1656 N 160.931 3.72964 5.8384 0
M  V30 1657 N 162.724 2.87775 4.82848 0
M  V30 1658 H 154.875 1.81923 1.09626 0
M  V30 1659 H 157.138 0.777934 0.541777 0
M  V30 1660 H 156.844 2.50689 2.46674 0
M  V30 1661 H 156.718 1.16314 3.58819 0
M  V30 1662 H 159.105 0.43069 2.9194 0
M  V30 1663 H 159.186 1.8071 1.81046 0
M  V30 1664 H 158.83 3.38881 3.78315 0
M  V30 1665 H 158.76 1.98487 4.87761 0
M  V30 1666 H 161.251 1.79006 3.32814 0
M  V30 1667 H 161.564 4.19932 6.4875 0
M  V30 1668 H 159.909 3.77073 5.83816 0
M  V30 1669 H 163.1 2.29116 4.08195 0
M  V30 1670 H 163.273 3.38961 5.52277 0
M  V30 1671 N 156.679 -1.44442 0.630414 0
M  V30 1672 C 157.642 -2.29107 -0.0652523 0
M  V30 1673 C 158.642 -1.41002 -0.772995 0
M  V30 1674 O 159.832 -1.62881 -0.617692 0
M  V30 1675 C 156.964 -3.22564 -1.10296 0
M  V30 1676 H 158.157 -2.92103 0.679401 0
M  V30 1677 H 155.71 -1.51343 0.390517 0
M  V30 1678 H 156.445 -2.64416 -1.87762 0
M  V30 1679 H 156.23 -3.87491 -0.59941 0
M  V30 1680 H 157.72 -3.86167 -1.5895 0
M  V30 1681 N 158.157 -0.370918 -1.53173 0
M  V30 1682 C 159.434 0.273754 -1.93675 0
M  V30 1683 C 159.814 1.65938 -1.3049 0
M  V30 1684 O 159.162 2.23698 -0.465999 0
M  V30 1685 C 159.372 0.318602 -3.47543 0
M  V30 1686 C 160.72 0.556392 -4.20939 0
M  V30 1687 O 161.744 0.399587 -3.53952 0
M  V30 1688 O 160.603 0.862133 -5.39657 0
M  V30 1689 H 157.697 0.165448 -0.810281 0
M  V30 1690 H 160.243 -0.42409 -1.64315 0
M  V30 1691 H 159.015 -0.652687 -3.85818 0
M  V30 1692 H 158.638 1.06212 -3.83151 0
M  V30 1693 N 159.635 1.57281 -0.100228 0
M  V30 1694 C 160.598 2.13158 0.842398 0
M  V30 1695 C 161.598 1.06202 1.20738 0
M  V30 1696 O 162.788 1.32066 1.13597 0
M  V30 1697 C 159.92 2.65639 2.13655 0
M  V30 1698 H 161.113 2.97766 0.357114 0
M  V30 1699 H 158.666 1.5559 0.148823 0
M  V30 1700 H 159.401 1.84566 2.66657 0
M  V30 1701 H 159.186 3.43844 1.88451 0
M  V30 1702 H 160.676 3.08846 2.81077 0
M  V30 1703 N 161.113 -0.173488 1.56642 0
M  V30 1704 C 162.361 -0.888706 1.81512 0
M  V30 1705 C 162.682 -1.82875 0.676872 0
M  V30 1706 O 161.952 -1.93536 -0.303414 0
M  V30 1707 H 160.532 -0.331164 0.669582 0
M  V30 1708 H 163.194 -0.173823 1.94123 0
M  V30 1709 H 162.29 -1.46691 2.75478 0
M  V30 1710 N 162.591 -1.51276 -0.441967 0
M  V30 1711 C 163.838 -1.63715 -1.19179 0
M  V30 1712 C 164.166 -0.351175 -1.91303 0
M  V30 1713 O 163.421 0.664524 -1.84072 0
M  V30 1714 C 163.72 -2.78746 -2.23686 0
M  V30 1715 C 163.386 -4.18189 -1.68607 0
M  V30 1716 C 162.048 -4.56125 -1.53308 0
M  V30 1717 C 164.4 -5.05222 -1.28062 0
M  V30 1718 C 161.728 -5.78804 -0.959317 0
M  V30 1719 C 164.08 -6.28476 -0.721162 0
M  V30 1720 C 162.744 -6.65188 -0.55504 0
M  V30 1721 H 162.014 -0.599076 -0.436106 0
M  V30 1722 H 164.661 -1.85296 -0.48351 0
M  V30 1723 H 162.966 -2.51369 -3.00535 0
M  V30 1724 H 164.663 -2.8557 -2.81515 0
M  V30 1725 H 161.253 -3.88277 -1.8149 0
M  V30 1726 H 165.437 -4.76524 -1.38704 0
M  V30 1727 H 160.693 -6.05899 -0.81833 0
M  V30 1728 H 164.867 -6.95259 -0.398458 0
M  V30 1729 H 162.494 -7.60123 -0.108311 0
M  V30 1730 N 164.069 0.697108 -1.41344 0
M  V30 1731 C 165.315 1.4593 -1.40827 0
M  V30 1732 C 165.648 1.94193 -0.0167098 0
M  V30 1733 O 164.923 1.69425 0.955263 0
M  V30 1734 C 165.206 2.67229 -2.41373 0
M  V30 1735 C 165.059 2.24741 -3.8963 0
M  V30 1736 C 166.378 3.69423 -2.39196 0
M  V30 1737 H 163.497 0.529303 -0.512842 0
M  V30 1738 H 166.139 0.794112 -1.72609 0
M  V30 1739 H 164.289 3.23982 -2.14401 0
M  V30 1740 H 165.961 1.73327 -4.27499 0
M  V30 1741 H 164.204 1.56542 -4.0457 0
M  V30 1742 H 164.875 3.1177 -4.55525 0
M  V30 1743 H 167.351 3.2234 -2.63128 0
M  V30 1744 H 166.227 4.51907 -3.11563 0
M  V30 1745 H 166.488 4.19012 -1.41001 0
M  V30 1746 N 165.547 1.27147 0.931209 0
M  V30 1747 C 166.777 1.15914 1.71019 0
M  V30 1748 C 167.185 -0.287112 1.87009 0
M  V30 1749 O 166.528 -1.20761 1.38429 0
M  V30 1750 C 166.59 1.76647 3.13107 0
M  V30 1751 C 166.254 3.25807 3.20467 0
M  V30 1752 C 167.251 4.22489 3.02983 0
M  V30 1753 C 164.936 3.66452 3.43538 0
M  V30 1754 C 166.93 5.57794 3.08454 0
M  V30 1755 C 164.617 5.01888 3.48643 0
M  V30 1756 C 165.615 5.97369 3.31119 0
M  V30 1757 O 165.303 7.30337 3.35952 0
M  V30 1758 H 165.035 0.404062 0.54195 0
M  V30 1759 H 167.589 1.68457 1.17521 0
M  V30 1760 H 165.819 1.18578 3.68071 0
M  V30 1761 H 167.508 1.60179 3.72958 0
M  V30 1762 H 168.274 3.92425 2.85004 0
M  V30 1763 H 164.153 2.92611 3.5623 0
M  V30 1764 H 167.697 6.32298 2.94694 0
M  V30 1765 H 163.594 5.31609 3.66145 0
M  V30 1766 H 164.362 7.38739 3.5243 0
M  V30 1767 N 167.025 -1.13721 1.09112 0
M  V30 1768 C 168.25 -1.89314 0.847053 0
M  V30 1769 C 168.675 -1.78416 -0.595774 0
M  V30 1770 O 168.033 -1.12942 -1.41823 0
M  V30 1771 C 168.081 -3.3701 1.28284 0
M  V30 1772 O 167.185 -4.10054 0.439267 0
M  V30 1773 H 166.526 -0.588745 0.307044 0
M  V30 1774 H 169.056 -1.43902 1.45442 0
M  V30 1775 H 169.066 -3.87834 1.26683 0
M  V30 1776 H 167.741 -3.4426 2.33363 0
M  V30 1777 H 166.318 -3.69266 0.519312 0
M  V30 1778 N 168.503 -0.877838 -1.30888 0
M  V30 1779 C 169.413 -0.343096 -2.32078 0
M  V30 1780 C 170.429 0.551022 -1.65045 0
M  V30 1781 O 171.605 0.445854 -1.96403 0
M  V30 1782 C 168.67 0.439905 -3.43898 0
M  V30 1783 C 167.731 -0.483111 -4.26573 0
M  V30 1784 C 166.964 0.262616 -5.33053 0
M  V30 1785 O 167.187 1.48967 -5.50604 0
M  V30 1786 O 166.121 -0.383593 -6.00676 0
M  V30 1787 H 169.947 -1.18203 -2.79753 0
M  V30 1788 H 167.532 -0.64145 -1.34929 0
M  V30 1789 H 169.414 0.883504 -4.12034 0
M  V30 1790 H 168.089 1.25526 -2.98371 0
M  V30 1791 H 166.996 -0.975374 -3.61161 0
M  V30 1792 H 168.329 -1.26427 -4.75686 0
M  V30 1793 N 169.982 1.44106 -0.638065 0
M  V30 1794 C 170.945 2.29138 0.0531013 0
M  V30 1795 C 171.945 1.41409 0.765506 0
M  V30 1796 O 173.135 1.63206 0.609046 0
M  V30 1797 C 170.267 3.23144 1.08584 0
M  V30 1798 H 171.46 2.91739 -0.694883 0
M  V30 1799 H 169.013 1.51134 -0.398538 0
M  V30 1800 H 169.748 2.65408 1.86357 0
M  V30 1801 H 169.533 3.87804 0.578852 0
M  V30 1802 H 171.023 3.87004 1.56899 0
M  V30 1803 N 171.46 0.379036 1.52974 0
M  V30 1804 C 172.706 -0.206727 2.01744 0
M  V30 1805 C 173.039 -1.47314 1.26539 0
M  V30 1806 O 172.314 -1.91084 0.362903 0
M  V30 1807 C 172.597 -0.485066 3.56818 0
M  V30 1808 C 172.45 0.795919 4.42702 0
M  V30 1809 C 173.769 -1.28003 4.21074 0
M  V30 1810 H 170.888 -0.0736607 0.73331 0
M  V30 1811 H 173.53 0.506581 1.83122 0
M  V30 1812 H 171.68 -1.09272 3.72816 0
M  V30 1813 H 173.352 1.43307 4.38476 0
M  V30 1814 H 171.595 1.41344 4.10127 0
M  V30 1815 H 172.266 0.555947 5.49193 0
M  V30 1816 H 174.742 -0.765867 4.08991 0
M  V30 1817 H 173.618 -1.44352 5.29579 0
M  V30 1818 H 173.879 -2.29236 3.78026 0
M  V30 1819 N 172.938 -1.57226 0.108567 0
M  V30 1820 C 173.901 -2.13602 -0.831082 0
M  V30 1821 C 174.901 -1.06841 -1.20173 0
M  V30 1822 O 176.091 -1.32666 -1.12895 0
M  V30 1823 C 173.223 -2.66769 -2.12243 0
M  V30 1824 H 174.416 -2.97951 -0.341317 0
M  V30 1825 H 171.969 -1.55667 -0.14057 0
M  V30 1826 H 172.704 -1.85977 -2.65675 0
M  V30 1827 H 172.489 -3.44839 -1.86625 0
M  V30 1828 H 173.979 -3.10332 -2.79435 0
M  V30 1829 N 174.416 0.165178 -1.56732 0
M  V30 1830 C 175.641 0.900253 -1.86843 0
M  V30 1831 C 176.066 1.74766 -0.695596 0
M  V30 1832 O 175.424 1.77786 0.35522 0
M  V30 1833 C 175.472 1.74777 -3.15413 0
M  V30 1834 O 174.576 2.85007 -2.98068 0
M  V30 1835 H 173.917 0.251832 -0.614391 0
M  V30 1836 H 176.447 0.161468 -2.03962 0
M  V30 1837 H 176.457 2.14646 -3.46974 0
M  V30 1838 H 175.132 1.12537 -4.00385 0
M  V30 1839 H 173.709 2.48676 -2.77875 0
M  V30 1840 N 175.894 1.51508 0.433938 0
M  V30 1841 C 176.844 1.69451 1.52546 0
M  V30 1842 C 177.828 0.548474 1.51263 0
M  V30 1843 O 179.02 0.804529 1.57659 0
M  V30 1844 C 176.149 1.82604 2.90707 0
M  V30 1845 C 175.235 3.03002 2.96733 0
M  V30 1846 N 175.626 4.26121 2.72496 0
M  V30 1847 C 173.924 3.02327 3.27894 0
M  V30 1848 C 174.625 5.07407 2.84452 0
M  V30 1849 N 173.601 4.42126 3.16269 0
M  V30 1850 H 177.403 2.62305 1.32564 0
M  V30 1851 H 174.917 1.49202 0.641297 0
M  V30 1852 H 176.914 1.93569 3.69238 0
M  V30 1853 H 175.574 0.909339 3.11707 0
M  V30 1854 H 176.585 4.55009 2.4736 0
M  V30 1855 H 173.262 2.20301 3.54646 0
M  V30 1856 H 174.652 6.15422 2.69639 0
M  V30 1857 N 177.372 -0.689602 1.41712 0
M  V30 1858 C 178.602 -1.47613 1.44548 0
M  V30 1859 C 179.01 -1.89132 0.0509034 0
M  V30 1860 O 178.353 -1.57741 -0.94146 0
M  V30 1861 C 178.415 -2.76596 2.2964 0
M  V30 1862 C 178.079 -2.57245 3.77722 0
M  V30 1863 C 179.076 -2.22804 4.69739 0
M  V30 1864 C 176.761 -2.727 4.2183 0
M  V30 1865 C 178.755 -2.04064 6.03851 0
M  V30 1866 C 176.442 -2.53576 5.56006 0
M  V30 1867 C 177.44 -2.1931 6.46832 0
M  V30 1868 O 177.128 -2.00359 7.78532 0
M  V30 1869 H 176.86 -0.461227 0.494212 0
M  V30 1870 H 179.414 -0.856045 1.86711 0
M  V30 1871 H 177.644 -3.41033 1.82301 0
M  V30 1872 H 179.333 -3.38424 2.24107 0
M  V30 1873 H 180.099 -2.10473 4.36951 0
M  V30 1874 H 175.978 -2.98353 3.51435 0
M  V30 1875 H 179.522 -1.77241 6.74708 0
M  V30 1876 H 175.419 -2.65499 5.88371 0
M  V30 1877 H 176.187 -2.15075 7.89737 0
M  V30 1878 N 178.85 -1.27639 -0.924453 0
M  V30 1879 C 179.783 -1.04966 -2.02626 0
M  V30 1880 C 180.761 0.0309505 -1.62571 0
M  V30 1881 O 181.945 -0.114846 -1.8815 0
M  V30 1882 C 179.072 -0.59292 -3.3347 0
M  V30 1883 C 178.118 -1.66858 -3.92506 0
M  V30 1884 S 178.951 -3.2619 -4.24689 0
M  V30 1885 C 180.107 -2.82325 -5.58609 0
M  V30 1886 H 180.34 -1.98252 -2.21547 0
M  V30 1887 H 177.873 -1.11506 -1.06798 0
M  V30 1888 H 179.831 -0.336086 -4.09122 0
M  V30 1889 H 178.492 0.319939 -3.12466 0
M  V30 1890 H 177.685 -1.30038 -4.86935 0
M  V30 1891 H 177.287 -1.87766 -3.2345 0
M  V30 1892 H 179.579 -2.2783 -6.38044 0
M  V30 1893 H 180.522 -3.75511 -6.00331 0
M  V30 1894 H 180.93 -2.21367 -5.19285 0
M  V30 1895 N 180.328 1.1314 -1.09713 0
M  V30 1896 C 181.744 1.36477 -0.827423 0
M  V30 1897 C 181.944 1.93654 0.556817 0
M  V30 1898 O 181 2.15791 1.31112 0
M  V30 1899 C 182.313 2.31334 -1.92106 0
M  V30 1900 C 183.861 2.44943 -1.94864 0
M  V30 1901 C 184.336 3.4311 -3.0338 0
M  V30 1902 N 185.827 3.50662 -3.02639 0
M  V30 1903 C 186.562 4.2651 -3.83246 0
M  V30 1904 N 186.058 5.05485 -4.73768 0
M  V30 1905 N 187.851 4.2184 -3.71493 0
M  V30 1906 H 180.002 0.743807 -1.9895 0
M  V30 1907 H 182.265 0.389823 -0.864143 0
M  V30 1908 H 181.971 1.96483 -2.91698 0
M  V30 1909 H 181.845 3.31381 -1.80184 0
M  V30 1910 H 184.232 2.79079 -0.959099 0
M  V30 1911 H 184.313 1.4481 -2.10864 0
M  V30 1912 H 183.957 3.09704 -4.02549 0
M  V30 1913 H 183.887 4.43055 -2.84622 0
M  V30 1914 H 186.378 2.94315 -2.37039 0
M  V30 1915 H 186.691 5.60675 -5.3185 0
M  V30 1916 H 185.036 5.04708 -4.77802 0
M  V30 1917 H 188.227 3.5922 -3.00131 0
M  V30 1918 H 188.4 4.80697 -4.3455 0
M  V30 1919 N 181.806 0.884767 1.30421 0
M  V30 1920 C 182.738 0.308655 2.27112 0
M  V30 1921 C 183.751 -0.536655 1.53701 0
M  V30 1922 O 184.94 -0.35624 1.74909 0
M  V30 1923 C 182.04 -0.579782 3.33904 0
M  V30 1924 C 181.213 0.236417 4.36761 0
M  V30 1925 C 180.272 -0.582482 5.22966 0
M  V30 1926 O 179.298 -0.00525502 5.692 0
M  V30 1927 N 180.5 -1.89163 5.48815 0
M  V30 1928 H 183.265 1.13964 2.77186 0
M  V30 1929 H 180.826 0.747731 1.43599 0
M  V30 1930 H 182.818 -1.13366 3.88497 0
M  V30 1931 H 181.388 -1.31144 2.83761 0
M  V30 1932 H 180.608 0.97174 3.82035 0
M  V30 1933 H 181.896 0.795924 5.02536 0
M  V30 1934 H 181.294 -2.38352 5.13035 0
M  V30 1935 H 179.851 -2.39296 6.06284 0
M  V30 1936 N 183.284 -1.43765 0.645699 0
M  V30 1937 C 184.533 -2.01116 0.153412 0
M  V30 1938 C 184.846 -1.51493 -1.23731 0
M  V30 1939 O 186.052 -2.01067 -1.8244 0
M  V30 1940 C 184.508 -3.59206 0.223473 0
M  V30 1941 C 184.116 -4.17823 1.61642 0
M  V30 1942 C 185.86 -4.23972 -0.211597 0
M  V30 1943 C 183.767 -5.68183 1.64081 0
M  V30 1944 H 182.697 -0.752093 0.0535891 0
M  V30 1945 H 185.348 -1.6482 0.806633 0
M  V30 1946 H 183.73 -3.92867 -0.497118 0
M  V30 1947 H 184.904 -3.95674 2.36176 0
M  V30 1948 H 183.219 -3.65399 1.99681 0
M  V30 1949 H 185.816 -5.34275 -0.213112 0
M  V30 1950 H 186.159 -3.97352 -1.24165 0
M  V30 1951 H 186.692 -3.95166 0.456988 0
M  V30 1952 H 183.431 -5.99559 2.64971 0
M  V30 1953 H 182.951 -5.9241 0.938611 0
M  V30 1954 H 184.63 -6.32085 1.3812 0
M  V30 1955 N 184.763 -0.387143 -1.52771 0
M  V30 1956 C 185.693 0.440551 -2.29306 0
M  V30 1957 C 186.674 1.06535 -1.32606 0
M  V30 1958 O 187.859 1.07853 -1.61497 0
M  V30 1959 C 184.989 1.56919 -3.09829 0
M  V30 1960 C 183.943 1.07054 -4.14395 0
M  V30 1961 C 183.269 2.29109 -4.83129 0
M  V30 1962 C 184.569 0.140015 -5.22112 0
M  V30 1963 H 186.263 -0.198026 -2.98744 0
M  V30 1964 H 183.809 -0.09668 -1.43675 0
M  V30 1965 H 185.762 2.15503 -3.62128 0
M  V30 1966 H 184.486 2.23532 -2.3812 0
M  V30 1967 H 183.145 0.507247 -3.63074 0
M  V30 1968 H 182.793 2.94227 -4.0797 0
M  V30 1969 H 182.493 1.96406 -5.53804 0
M  V30 1970 H 184.017 2.88339 -5.38231 0
M  V30 1971 H 185.431 0.633978 -5.69784 0
M  V30 1972 H 183.828 -0.0971485 -6.00021 0
M  V30 1973 H 184.898 -0.811711 -4.78058 0
M  V30 1974 N 186.241 1.57166 -0.116904 0
M  V30 1975 C 187.151 2.18745 0.847812 0
M  V30 1976 C 188.167 1.163 1.29423 0
M  V30 1977 O 189.343 1.48761 1.35765 0
M  V30 1978 C 186.408 2.77307 2.0809 0
M  V30 1979 C 185.469 3.94781 1.68661 0
M  V30 1980 C 184.702 4.50541 2.86091 0
M  V30 1981 O 184.925 4.05202 4.01456 0
M  V30 1982 O 183.859 5.41256 2.63298 0
M  V30 1983 H 187.685 3.01632 0.353778 0
M  V30 1984 H 185.27 1.49005 0.108599 0
M  V30 1985 H 187.152 3.14647 2.80313 0
M  V30 1986 H 185.827 1.97452 2.56504 0
M  V30 1987 H 184.734 3.62214 0.935518 0
M  V30 1988 H 186.067 4.76065 1.24991 0
M  V30 1989 N 187.719 -0.156864 1.56817 0
M  V30 1990 C 188.682 -1.17781 1.96622 0
M  V30 1991 C 189.682 -1.36401 0.851555 0
M  V30 1992 O 190.872 -1.33561 1.11836 0
M  V30 1993 C 188.004 -2.54008 2.27361 0
M  V30 1994 H 189.197 -0.836564 2.87996 0
M  V30 1995 H 186.75 -0.39985 1.51099 0
M  V30 1996 H 187.485 -2.9312 1.38748 0
M  V30 1997 H 187.27 -2.41856 3.08623 0
M  V30 1998 H 188.76 -3.27558 2.59029 0
M  V30 1999 N 189.197 -1.51736 -0.425897 0
M  V30 2000 C 190.127 -1.76827 -1.52494 0
M  V30 2001 C 191.108 -0.618524 -1.58456 0
M  V30 2002 O 192.293 -0.862416 -1.74 0
M  V30 2003 C 189.423 -1.90374 -2.90474 0
M  V30 2004 C 188.377 -3.0588 -2.99369 0
M  V30 2005 C 187.703 -3.04625 -4.3944 0
M  V30 2006 C 189.003 -4.45644 -2.72394 0
M  V30 2007 H 190.697 -2.68855 -1.31748 0
M  V30 2008 H 188.243 -1.29372 -0.632362 0
M  V30 2009 H 190.196 -2.0651 -3.6733 0
M  V30 2010 H 188.92 -0.95004 -3.12477 0
M  V30 2011 H 187.579 -2.89467 -2.24954 0
M  V30 2012 H 187.227 -2.0701 -4.58428 0
M  V30 2013 H 186.927 -3.82195 -4.46319 0
M  V30 2014 H 188.451 -3.22869 -5.18255 0
M  V30 2015 H 189.865 -4.62348 -3.38979 0
M  V30 2016 H 188.262 -5.25006 -2.9067 0
M  V30 2017 H 189.332 -4.54893 -1.67929 0
M  V30 2018 N 190.675 0.682077 -1.42076 0
M  V30 2019 C 192.091 0.994324 -1.24841 0
M  V30 2020 C 192.291 2.0096 -0.147389 0
M  V30 2021 O 191.347 2.47822 0.483782 0
M  V30 2022 C 192.66 1.50607 -2.60265 0
M  V30 2023 C 194.208 1.62421 -2.6756 0
M  V30 2024 C 194.683 2.16994 -4.03333 0
M  V30 2025 N 196.174 2.24337 -4.0525 0
M  V30 2026 C 196.909 2.67621 -5.07116 0
M  V30 2027 N 196.405 3.1041 -6.19368 0
M  V30 2028 N 198.198 2.67305 -4.94474 0
M  V30 2029 H 190.349 0.00973908 -2.12398 0
M  V30 2030 H 192.612 0.0668593 -0.945639 0
M  V30 2031 H 192.318 0.834583 -3.41654 0
M  V30 2032 H 192.192 2.48602 -2.83684 0
M  V30 2033 H 194.579 2.28678 -1.86521 0
M  V30 2034 H 194.66 0.629352 -2.47937 0
M  V30 2035 H 194.304 1.51349 -4.84826 0
M  V30 2036 H 194.234 3.17258 -4.20304 0
M  V30 2037 H 196.725 1.94158 -3.24209 0
M  V30 2038 H 197.038 3.42103 -6.92954 0
M  V30 2039 H 195.383 3.08286 -6.22884 0
M  V30 2040 H 198.574 2.33233 -4.05857 0
M  V30 2041 H 198.747 3.00718 -5.73997 0
M  V30 2042 N 192.153 1.28127 0.917671 0
M  V30 2043 C 193.383 1.17722 1.6978 0
M  V30 2044 C 193.791 -0.267261 1.87303 0
M  V30 2045 O 193.134 -1.19286 1.39702 0
M  V30 2046 C 193.196 1.79958 3.11216 0
M  V30 2047 C 192.86 3.29187 3.16993 0
M  V30 2048 C 193.857 4.25679 2.98485 0
M  V30 2049 C 191.542 3.70075 3.39632 0
M  V30 2050 C 193.536 5.61035 3.02521 0
M  V30 2051 C 191.223 5.05557 3.433 0
M  V30 2052 C 192.221 6.00847 3.24764 0
M  V30 2053 O 191.909 7.33859 3.28187 0
M  V30 2054 H 191.641 0.409788 0.537634 0
M  V30 2055 H 194.195 1.69694 1.15728 0
M  V30 2056 H 192.425 1.22475 3.66793 0
M  V30 2057 H 194.114 1.64125 3.71238 0
M  V30 2058 H 194.88 3.95426 2.80826 0
M  V30 2059 H 190.759 2.96373 3.53106 0
M  V30 2060 H 194.303 6.35388 2.87971 0
M  V30 2061 H 190.2 5.35462 3.60486 0
M  V30 2062 H 190.968 7.42436 3.44575 0
M  V30 2063 N 193.631 -1.12557 1.10312 0
M  V30 2064 C 194.871 -1.8568 0.854543 0
M  V30 2065 C 195.235 -1.82091 -0.608843 0
M  V30 2066 O 196.436 -2.50544 -0.973717 0
M  V30 2067 C 194.707 -3.2942 1.38626 0
M  V30 2068 S 196.266 -4.19931 1.27293 0
M  V30 2069 H 193.084 -0.640427 0.308827 0
M  V30 2070 H 195.686 -1.35599 1.40831 0
M  V30 2071 H 194.39 -3.2959 2.44537 0
M  V30 2072 H 193.921 -3.84566 0.82902 0
M  V30 2073 H 195.936 -4.95668 0.229776 0
M  V30 2074 N 195.109 -0.891671 -1.2995 0
M  V30 2075 C 196.059 -0.334811 -2.25528 0
M  V30 2076 C 197.043 0.540553 -1.51548 0
M  V30 2077 O 198.235 0.383882 -1.72787 0
M  V30 2078 C 195.364 0.44374 -3.4042 0
M  V30 2079 C 194.45 -0.44609 -4.21747 0
M  V30 2080 N 194.841 -1.54963 -4.81477 0
M  V30 2081 C 193.139 -0.242415 -4.45341 0
M  V30 2082 C 193.84 -2.10015 -5.42465 0
M  V30 2083 N 192.816 -1.39423 -5.25416 0
M  V30 2084 H 196.618 -1.17792 -2.69262 0
M  V30 2085 H 194.132 -0.741822 -1.44467 0
M  V30 2086 H 196.129 0.859362 -4.07947 0
M  V30 2087 H 194.789 1.28421 -2.98225 0
M  V30 2088 H 195.8 -1.93244 -4.80497 0
M  V30 2089 H 192.477 0.560342 -4.13723 0
M  V30 2090 H 193.867 -3.02724 -5.9984 0
M  V30 2091 N 196.587 1.43421 -0.653314 0
M  V30 2092 C 197.864 1.95361 -0.0966581 0
M  V30 2093 C 198.244 1.59461 1.38331 0
M  V30 2094 O 197.592 0.879777 2.10884 0
M  V30 2095 C 197.802 3.47311 -0.342988 0
M  V30 2096 C 199.15 4.23875 -0.24798 0
M  V30 2097 O 200.174 3.55133 -0.275553 0
M  V30 2098 O 199.033 5.4623 -0.171771 0
M  V30 2099 H 196.127 0.826945 0.00956291 0
M  V30 2100 H 198.673 1.5336 -0.726558 0
M  V30 2101 H 197.445 3.66569 -1.36906 0
M  V30 2102 H 197.068 3.9631 0.319975 0
M  V30 2103 N 198.065 0.39524 1.52563 0
M  V30 2104 C 199.013 -0.451859 2.28169 0
M  V30 2105 C 200.007 -1.05792 1.32304 0
M  V30 2106 O 201.213 -0.997718 1.49818 0
M  V30 2107 H 197.588 -0.164481 0.733792 0
M  V30 2108 H 199.559 0.207199 2.9768 0
M  V30 2109 C 198.308 -1.56385 3.10546 0
M  V30 2110 H 197.631 -1.10682 3.84174 0
M  V30 2111 H 199.071 -2.13067 3.66577 0
M  V30 2112 C 197.53 -2.52328 2.23231 0
M  V30 2113 O 198.06 -3.5588 1.86312 0
M  V30 2114 N 196.266 -2.22209 1.87274 0
M  V30 2115 H 195.813 -1.38033 2.17496 0
M  V30 2116 H 195.771 -2.86652 1.29143 0
M  V30 2117 N 199.544 -1.57102 0.125237 0
M  V30 2118 C 200.492 -2.16905 -0.839927 0
M  V30 2119 C 201.486 -1.11998 -1.27094 0
M  V30 2120 O 202.692 -1.3029 -1.24195 0
M  V30 2121 H 199.067 -0.694252 -0.288995 0
M  V30 2122 H 201.038 -2.96774 -0.311115 0
M  V30 2123 C 199.787 -2.78795 -2.07771 0
M  V30 2124 H 199.11 -3.59221 -1.755 0
M  V30 2125 H 200.55 -3.2417 -2.73295 0
M  V30 2126 C 199.009 -1.76193 -2.87155 0
M  V30 2127 O 199.539 -1.21909 -3.82755 0
M  V30 2128 N 197.745 -1.45991 -2.51267 0
M  V30 2129 H 197.292 -1.90325 -1.73592 0
M  V30 2130 H 197.25 -0.775844 -3.04677 0
M  V30 2131 N 201.022 0.148545 -1.56898 0
M  V30 2132 C 202.271 0.85984 -1.82454 0
M  V30 2133 C 202.584 1.82406 -0.706229 0
M  V30 2134 O 203.79 2.57938 -0.847349 0
M  V30 2135 C 202.246 1.57967 -3.2338 0
M  V30 2136 C 201.854 0.65794 -4.43142 0
M  V30 2137 C 203.598 2.27784 -3.58211 0
M  V30 2138 C 201.505 1.3793 -5.75091 0
M  V30 2139 H 200.435 0.324834 -0.68044 0
M  V30 2140 H 203.086 0.112588 -1.83154 0
M  V30 2141 H 201.468 2.37249 -3.17063 0
M  V30 2142 H 202.642 -0.0995497 -4.60692 0
M  V30 2143 H 200.957 0.0682643 -4.16344 0
M  V30 2144 H 203.554 2.8239 -4.54048 0
M  V30 2145 H 203.897 3.04204 -2.84193 0
M  V30 2146 H 204.43 1.55421 -3.66182 0
M  V30 2147 H 201.169 0.656982 -6.52199 0
M  V30 2148 H 200.689 2.10954 -5.61479 0
M  V30 2149 H 202.368 1.92063 -6.17835 0
M  V30 2150 N 202.5 1.5196 0.417844 0
M  V30 2151 C 203.749 1.6482 1.16264 0
M  V30 2152 C 204.062 0.379886 1.91876 0
M  V30 2153 O 205.268 0.388154 2.68711 0
M  V30 2154 C 203.724 2.91161 2.1155 0
M  V30 2155 C 203.332 4.25068 1.41495 0
M  V30 2156 C 205.076 3.13383 2.86341 0
M  V30 2157 C 202.983 5.42541 2.35379 0
M  V30 2158 H 201.913 0.613954 0.437694 0
M  V30 2159 H 204.564 1.78442 0.427871 0
M  V30 2160 H 202.946 2.71218 2.88543 0
M  V30 2161 H 204.12 4.55463 0.699263 0
M  V30 2162 H 202.435 4.0888 0.787792 0
M  V30 2163 H 205.032 3.98324 3.5671 0
M  V30 2164 H 205.375 2.27256 3.48798 0
M  V30 2165 H 205.908 3.33757 2.1645 0
M  V30 2166 H 202.647 6.30987 1.77582 0
M  V30 2167 H 202.167 5.16497 3.04945 0
M  V30 2168 H 203.846 5.75272 2.96093 0
M  V30 2169 N 203.978 -0.674533 1.42435 0
M  V30 2170 C 204.928 -1.7807 1.4239 0
M  V30 2171 C 205.912 -1.58169 0.295202 0
M  V30 2172 O 207.104 -1.68643 0.537449 0
M  V30 2173 C 204.233 -3.16532 1.32901 0
M  V30 2174 C 203.319 -3.42055 2.50717 0
M  V30 2175 N 203.71 -3.38162 3.76139 0
M  V30 2176 C 202.008 -3.72692 2.44983 0
M  V30 2177 C 202.709 -3.63177 4.54398 0
M  V30 2178 N 201.685 -3.83954 3.84812 0
M  V30 2179 H 205.487 -1.73454 2.37257 0
M  V30 2180 H 203.001 -0.875381 1.36788 0
M  V30 2181 H 204.998 -3.958 1.30951 0
M  V30 2182 H 203.658 -3.22345 0.390363 0
M  V30 2183 H 204.669 -3.18057 4.0873 0
M  V30 2184 H 201.346 -3.85749 1.59699 0
M  V30 2185 H 202.736 -3.66125 5.63384 0
M  V30 2186 N 205.456 -1.28612 -0.910864 0
M  V30 2187 C 206.872 -1.06381 -1.18976 0
M  V30 2188 C 207.072 0.191998 -2.00583 0
M  V30 2189 O 206.128 0.892869 -2.36187 0
M  V30 2190 C 207.441 -2.31295 -1.92154 0
M  V30 2191 C 208.989 -2.36503 -2.05025 0
M  V30 2192 C 209.464 -3.61191 -2.81612 0
M  V30 2193 N 210.955 -3.61847 -2.89172 0
M  V30 2194 C 211.69 -4.55004 -3.4894 0
M  V30 2195 N 211.186 -5.58482 -4.09963 0
M  V30 2196 N 212.979 -4.42594 -3.46506 0
M  V30 2197 H 205.13 -2.09221 -0.366094 0
M  V30 2198 H 207.393 -0.921003 -0.224629 0
M  V30 2199 H 207.099 -3.228 -1.39618 0
M  V30 2200 H 206.973 -2.37934 -2.9269 0
M  V30 2201 H 209.36 -1.45494 -2.5674 0
M  V30 2202 H 209.441 -2.33857 -1.03657 0
M  V30 2203 H 209.085 -4.52545 -2.30576 0
M  V30 2204 H 209.015 -3.61092 -3.83302 0
M  V30 2205 H 211.506 -2.87022 -2.45819 0
M  V30 2206 H 211.819 -6.25704 -4.53557 0
M  V30 2207 H 210.164 -5.62305 -4.08459 0
M  V30 2208 H 213.355 -3.60953 -2.98045 0
M  V30 2209 H 213.528 -5.15381 -3.92793 0
M  V30 2210 N 206.934 1.1197 -1.10907 0
M  V30 2211 C 208.211 1.79959 -0.766432 0
M  V30 2212 C 208.591 1.97466 0.746363 0
M  V30 2213 O 207.939 1.55491 1.67436 0
M  V30 2214 C 208.149 3.14009 -1.52314 0
M  V30 2215 C 209.497 3.89134 -1.69883 0
M  V30 2216 O 210.521 3.2368 -1.48692 0
M  V30 2217 O 209.38 5.06572 -2.05054 0
M  V30 2218 H 206.474 0.779208 -0.277062 0
M  V30 2219 H 209.02 1.18762 -1.21217 0
M  V30 2220 H 207.792 2.96587 -2.55249 0
M  V30 2221 H 207.415 3.82915 -1.07059 0
M  V30 2222 N 208.412 0.89855 1.29475 0
M  V30 2223 C 209.658 0.524658 1.95896 0
M  V30 2224 C 209.991 -0.926468 1.70676 0
M  V30 2225 O 209.266 -1.65665 1.01908 0
M  V30 2226 C 209.549 0.81633 3.50725 0
M  V30 2227 C 209.402 2.31907 3.85408 0
M  V30 2228 C 210.721 0.302038 4.39062 0
M  V30 2229 H 207.84 0.19209 0.711527 0
M  V30 2230 H 210.482 1.12502 1.53112 0
M  V30 2231 H 208.632 0.305369 3.87298 0
M  V30 2232 H 210.304 2.89949 3.58786 0
M  V30 2233 H 208.547 2.78027 3.32992 0
M  V30 2234 H 209.218 2.47373 4.93468 0
M  V30 2235 H 211.694 0.739551 4.09475 0
M  V30 2236 H 210.57 0.535331 5.46283 0
M  V30 2237 H 210.831 -0.797216 4.34853 0
M  V30 2238 N 209.89 -1.43072 0.660911 0
M  V30 2239 C 210.837 -2.30785 -0.0259884 0
M  V30 2240 C 211.807 -1.45184 -0.806888 0
M  V30 2241 O 212.992 -1.74041 -0.781943 0
M  V30 2242 C 210.132 -3.30861 -0.981067 0
M  V30 2243 C 209.245 -4.31558 -0.195458 0
M  V30 2244 C 208.38 -5.18712 -1.14503 0
M  V30 2245 C 207.419 -6.11097 -0.350299 0
M  V30 2246 N 206.556 -6.90849 -1.25186 0
M  V30 2247 H 211.396 -2.88975 0.727846 0
M  V30 2248 H 208.933 -1.42353 0.370682 0
M  V30 2249 H 210.891 -3.87399 -1.54849 0
M  V30 2250 H 209.521 -2.74304 -1.70169 0
M  V30 2251 H 208.573 -3.77252 0.488374 0
M  V30 2252 H 209.885 -4.9701 0.422176 0
M  V30 2253 H 209.039 -5.79914 -1.78284 0
M  V30 2254 H 207.778 -4.53404 -1.79656 0
M  V30 2255 H 206.783 -5.48976 0.300808 0
M  V30 2256 H 208.008 -6.7845 0.296941 0
M  V30 2257 H 205.954 -6.28182 -1.89005 0
M  V30 2258 H 205.871 -7.52854 -0.688971 0
M  V30 2259 H 207.139 -7.5655 -1.87757 0
M  V30 2260 N 211.368 -0.403325 -1.52352 0
M  V30 2261 C 212.779 0.0675782 -1.86578 0
M  V30 2262 C 213.13 1.44941 -1.32236 0
M  V30 2263 O 212.255 2.06112 -0.659307 0
M  V30 2264 C 212.85 0.129404 -3.38553 0
M  V30 2265 C 211.409 0.544629 -3.72439 0
M  V30 2266 C 210.556 -0.284551 -2.75836 0
M  V30 2267 H 213.507 -0.620631 -1.46061 0
M  V30 2268 H 213.528 0.94581 -3.68558 0
M  V30 2269 H 213.04 -0.87645 -3.78074 0
M  V30 2270 H 211.141 1.55734 -3.38493 0
M  V30 2271 H 211.254 0.293046 -4.78203 0
M  V30 2272 H 209.618 0.252258 -2.53448 0
M  V30 2273 H 210.401 -1.28865 -3.18196 0
M  V30 2274 N 212.846 1.57033 -0.133567 0
M  V30 2275 C 213.796 2.12641 0.822671 0
M  V30 2276 C 214.78 1.05081 1.21847 0
M  V30 2277 O 215.972 1.31287 1.18713 0
M  V30 2278 C 213.101 2.74094 2.06706 0
M  V30 2279 C 212.187 3.88757 1.69497 0
M  V30 2280 N 212.578 4.95194 1.03037 0
M  V30 2281 C 210.876 3.99213 1.98859 0
M  V30 2282 C 211.577 5.75414 0.852873 0
M  V30 2283 N 210.553 5.25726 1.3825 0
M  V30 2284 H 214.355 2.92308 0.305537 0
M  V30 2285 H 211.869 1.62256 0.0684276 0
M  V30 2286 H 213.866 3.12285 2.76195 0
M  V30 2287 H 212.526 1.95896 2.5895 0
M  V30 2288 H 213.537 5.13247 0.692669 0
M  V30 2289 H 210.214 3.32075 2.53047 0
M  V30 2290 H 211.604 6.71089 0.330091 0
M  V30 2291 N 214.325 -0.140222 1.56975 0
M  V30 2292 C 215.565 -0.857823 1.85528 0
M  V30 2293 C 215.929 -1.78039 0.718768 0
M  V30 2294 O 217.13 -2.53795 0.885521 0
M  V30 2295 C 215.401 -1.60615 3.19277 0
M  V30 2296 S 216.96 -2.36824 3.69405 0
M  V30 2297 H 213.778 -0.286727 0.650622 0
M  V30 2298 H 216.38 -0.117408 1.95147 0
M  V30 2299 H 215.084 -0.919994 3.99955 0
M  V30 2300 H 214.615 -2.38735 3.12681 0
M  V30 2301 H 216.63 -3.62148 3.3921 0
M  V30 2302 N 215.803 -1.52179 -0.40978 0
M  V30 2303 C 217.049 -1.66453 -1.15851 0
M  V30 2304 C 217.382 -0.392972 -1.90182 0
M  V30 2305 O 216.657 0.608579 -1.84734 0
M  V30 2306 C 216.94 -2.88612 -2.15349 0
M  V30 2307 C 216.793 -4.25815 -1.44918 0
M  V30 2308 C 218.112 -3.06294 -3.16026 0
M  V30 2309 H 215.231 -0.60575 -0.419805 0
M  V30 2310 H 217.873 -1.84732 -0.444314 0
M  V30 2311 H 216.023 -2.73158 -2.76255 0
M  V30 2312 H 217.695 -4.52995 -0.871365 0
M  V30 2313 H 215.938 -4.27247 -0.751159 0
M  V30 2314 H 216.609 -5.07337 -2.17516 0
M  V30 2315 H 219.085 -3.20641 -2.65195 0
M  V30 2316 H 217.961 -3.93283 -3.8291 0
M  V30 2317 H 218.222 -2.19579 -3.83715 0
M  V30 2318 N 217.281 0.66697 -1.42791 0
M  V30 2319 C 218.211 1.79218 -1.49677 0
M  V30 2320 C 219.192 1.66405 -0.352623 0
M  V30 2321 O 220.377 1.85708 -0.567993 0
M  V30 2322 C 217.507 3.17565 -1.40605 0
M  V30 2323 C 216.461 3.45124 -2.53127 0
M  V30 2324 C 215.787 4.83127 -2.29112 0
M  V30 2325 C 217.087 3.41236 -3.95418 0
M  V30 2326 H 218.781 1.73713 -2.43853 0
M  V30 2327 H 216.327 0.83432 -1.17367 0
M  V30 2328 H 218.28 3.96022 -1.44029 0
M  V30 2329 H 217.004 3.23767 -0.429271 0
M  V30 2330 H 215.663 2.69031 -2.49034 0
M  V30 2331 H 215.311 4.85988 -1.29709 0
M  V30 2332 H 215.011 5.02528 -3.04531 0
M  V30 2333 H 216.535 5.63859 -2.34297 0
M  V30 2334 H 217.949 4.09651 -4.01073 0
M  V30 2335 H 216.346 3.72173 -4.70752 0
M  V30 2336 H 217.416 2.39665 -4.21532 0
M  V30 2337 N 218.759 1.29093 0.90403 0
M  V30 2338 C 219.689 1.16401 2.02418 0
M  V30 2339 C 220.67 0.0593085 1.69997 0
M  V30 2340 O 221.855 0.238021 1.92736 0
M  V30 2341 C 218.985 0.835233 3.37107 0
M  V30 2342 C 217.939 1.89578 3.83724 0
M  V30 2343 C 217.265 1.42041 5.15489 0
M  V30 2344 C 218.565 3.30394 4.04521 0
M  V30 2345 H 220.259 2.10109 2.13295 0
M  V30 2346 H 217.805 1.01157 1.02486 0
M  V30 2347 H 219.758 0.733169 4.14973 0
M  V30 2348 H 218.482 -0.137543 3.2631 0
M  V30 2349 H 217.141 1.98715 3.08071 0
M  V30 2350 H 216.789 0.436426 5.01103 0
M  V30 2351 H 216.489 2.12964 5.4765 0
M  V30 2352 H 218.013 1.33176 5.959 0
M  V30 2353 H 219.427 3.24123 4.72882 0
M  V30 2354 H 217.824 3.99237 4.48029 0
M  V30 2355 H 218.894 3.73692 3.09002 0
M  V30 2356 N 220.237 -1.11381 1.11499 0
M  V30 2357 C 221.2 -2.15622 0.777153 0
M  V30 2358 C 222.2 -1.59504 -0.203779 0
M  V30 2359 O 223.39 -1.74188 0.020782 0
M  V30 2360 C 220.522 -3.40556 0.153116 0
M  V30 2361 H 221.715 -2.47021 1.70061 0
M  V30 2362 H 219.268 -1.26577 0.916952 0
M  V30 2363 H 220.003 -3.14767 -0.780536 0
M  V30 2364 H 219.788 -3.8257 0.859238 0
M  V30 2365 H 221.278 -4.17546 -0.0671044 0
M  V30 2366 N 221.715 -0.905404 -1.28997 0
M  V30 2367 C 222.94 -0.549175 -1.99997 0
M  V30 2368 C 223.365 0.860276 -1.67275 0
M  V30 2369 O 222.723 1.57355 -0.900502 0
M  V30 2370 C 222.771 -0.755185 -3.52604 0
M  V30 2371 O 221.875 0.189692 -4.11964 0
M  V30 2372 H 221.216 -0.213899 -0.628604 0
M  V30 2373 H 223.746 -1.21856 -1.64354 0
M  V30 2374 H 223.756 -0.662045 -4.02593 0
M  V30 2375 H 222.431 -1.78271 -3.75755 0
M  V30 2376 H 221.008 0.0485257 -3.72868 0
M  V30 2377 N 223.193 1.4272 -0.668489 0
M  V30 2378 C 224.14 2.30796 0.0137489 0
M  V30 2379 C 225.11 1.4561 0.799177 0
M  V30 2380 O 226.295 1.74453 0.772702 0
M  V30 2381 C 223.435 3.31377 0.963507 0
M  V30 2382 C 222.548 4.31655 0.172569 0
M  V30 2383 C 221.683 5.19312 1.1175 0
M  V30 2384 C 220.722 6.11274 0.317886 0
M  V30 2385 N 219.859 6.91504 1.2152 0
M  V30 2386 H 224.699 2.88585 -0.743161 0
M  V30 2387 H 222.236 1.42154 -0.378226 0
M  V30 2388 H 224.194 3.88214 1.52792 0
M  V30 2389 H 222.824 2.75202 1.68712 0
M  V30 2390 H 221.876 3.76988 -0.508374 0
M  V30 2391 H 223.188 4.96779 -0.448527 0
M  V30 2392 H 222.342 5.80851 1.75206 0
M  V30 2393 H 221.081 4.5435 1.77249 0
M  V30 2394 H 220.086 5.48809 -0.329918 0
M  V30 2395 H 221.311 6.78283 -0.332917 0
M  V30 2396 H 219.257 6.29176 1.85671 0
M  V30 2397 H 219.174 7.53209 0.649036 0
M  V30 2398 H 220.442 7.57535 1.83742 0
M  V30 2399 N 224.671 0.411399 1.52136 0
M  V30 2400 C 225.581 -0.419774 2.30814 0
M  V30 2401 C 226.597 -1.0515 1.38634 0
M  V30 2402 O 227.773 -1.05252 1.71709 0
M  V30 2403 C 224.838 -1.52019 3.11594 0
M  V30 2404 C 223.899 -0.91129 4.19516 0
M  V30 2405 C 223.132 -1.95927 4.96436 0
M  V30 2406 O 223.355 -3.17775 4.73683 0
M  V30 2407 O 222.289 -1.56423 5.81219 0
M  V30 2408 H 226.115 0.221805 3.02889 0
M  V30 2409 H 223.7 0.174547 1.48377 0
M  V30 2410 H 225.582 -2.15898 3.61892 0
M  V30 2411 H 224.257 -2.14633 2.42311 0
M  V30 2412 H 223.164 -0.235157 3.7336 0
M  V30 2413 H 224.497 -0.32904 4.91099 0
M  V30 2414 N 226.149 -1.5696 0.141893 0
M  V30 2415 C 227.097 -2.17784 -0.816874 0
M  V30 2416 C 228.091 -1.1334 -1.25899 0
M  V30 2417 O 229.297 -1.316 -1.22806 0
M  V30 2418 H 225.672 -0.697278 -0.281615 0
M  V30 2419 H 227.643 -2.97087 -0.279621 0
M  V30 2420 C 226.392 -2.80983 -2.04802 0
M  V30 2421 H 225.715 -3.61062 -1.7168 0
M  V30 2422 H 227.155 -3.2705 -2.69841 0
M  V30 2423 C 225.614 -1.79228 -2.8527 0
M  V30 2424 O 226.144 -1.25962 -3.8144 0
M  V30 2425 N 224.35 -1.48647 -2.49704 0
M  V30 2426 H 223.897 -1.92155 -1.71564 0
M  V30 2427 H 223.855 -0.808115 -3.03837 0
M  V30 2428 N 227.627 0.131896 -1.57047 0
M  V30 2429 C 228.852 0.860418 -1.8871 0
M  V30 2430 C 229.277 1.73251 -0.73251 0
M  V30 2431 O 228.635 1.785 0.317429 0
M  V30 2432 C 228.683 1.68047 -3.19049 0
M  V30 2433 O 227.787 2.7862 -3.04047 0
M  V30 2434 H 227.128 0.238743 -0.619595 0
M  V30 2435 H 229.658 0.118169 -2.04258 0
M  V30 2436 H 229.668 2.07238 -3.51449 0
M  V30 2437 H 228.343 1.04018 -4.02682 0
M  V30 2438 H 226.92 2.42726 -2.83088 0
M  V30 2439 N 229.106 1.52395 0.401703 0
M  V30 2440 C 230.069 1.75636 1.47257 0
M  V30 2441 C 231.069 0.62628 1.48103 0
M  V30 2442 O 232.259 0.894227 1.49497 0
M  V30 2443 C 229.391 1.84553 2.86624 0
M  V30 2444 H 230.584 2.71241 1.27938 0
M  V30 2445 H 228.137 1.42923 0.632662 0
M  V30 2446 H 228.872 0.908882 3.11303 0
M  V30 2447 H 228.657 2.66715 2.87412 0
M  V30 2448 H 230.147 2.04251 3.64241 0
M  V30 2449 N 230.584 -0.659388 1.43143 0
M  V30 2450 C 231.995 -1.24041 1.39537 0
M  V30 2451 C 232.346 -1.95963 0.0963364 0
M  V30 2452 O 231.471 -2.00892 -0.804438 0
M  V30 2453 C 232.066 -2.25601 2.52764 0
M  V30 2454 C 230.625 -2.79195 2.52443 0
M  V30 2455 C 229.772 -1.53743 2.30778 0
M  V30 2456 H 232.723 -0.451792 1.52133 0
M  V30 2457 H 232.744 -3.07651 2.23899 0
M  V30 2458 H 232.256 -1.73226 3.47296 0
M  V30 2459 H 230.357 -3.35649 1.61773 0
M  V30 2460 H 230.47 -3.2716 3.50004 0
M  V30 2461 H 228.834 -1.80869 1.79328 0
M  V30 2462 H 229.617 -1.03312 3.27386 0
M  V30 2463 N 232.062 -1.29571 -0.897171 0
M  V30 2464 C 233.308 -1.17863 -1.65034 0
M  V30 2465 C 233.641 0.268729 -1.92332 0
M  V30 2466 O 232.916 1.19378 -1.53555 0
M  V30 2467 C 233.199 -1.995 -2.99786 0
M  V30 2468 C 233.052 -3.5239 -2.79538 0
M  V30 2469 C 234.371 -1.82335 -4.00552 0
M  V30 2470 H 231.49 -0.429528 -0.598895 0
M  V30 2471 H 234.132 -1.59072 -1.03905 0
M  V30 2472 H 232.282 -1.64485 -3.51962 0
M  V30 2473 H 233.954 -3.97401 -2.34244 0
M  V30 2474 H 232.197 -3.77187 -2.14273 0
M  V30 2475 H 232.868 -4.04787 -3.75302 0
M  V30 2476 H 235.344 -2.12924 -3.57495 0
M  V30 2477 H 234.22 -2.41801 -4.92771 0
M  V30 2478 H 234.481 -0.779209 -4.35179 0
M  V30 2479 N 233.54 1.10788 -1.12088 0
M  V30 2480 C 234.487 2.17025 -0.785407 0
M  V30 2481 C 235.457 1.64265 0.246191 0
M  V30 2482 O 236.642 1.90412 0.121584 0
M  V30 2483 C 233.782 3.44249 -0.242177 0
M  V30 2484 C 232.895 4.1098 -1.33115 0
M  V30 2485 C 232.03 5.25911 -0.747741 0
M  V30 2486 C 231.069 5.84538 -1.81609 0
M  V30 2487 N 230.206 6.90853 -1.25167 0
M  V30 2488 H 235.046 2.45066 -1.69548 0
M  V30 2489 H 232.583 1.20297 -0.846582 0
M  V30 2490 H 234.541 4.17101 0.0908026 0
M  V30 2491 H 233.171 3.16571 0.631072 0
M  V30 2492 H 232.223 3.36133 -1.78097 0
M  V30 2493 H 233.535 4.50601 -2.13917 0
M  V30 2494 H 232.689 6.056 -0.365216 0
M  V30 2495 H 231.428 4.87614 0.0915188 0
M  V30 2496 H 230.433 5.03522 -2.20785 0
M  V30 2497 H 231.658 6.249 -2.6585 0
M  V30 2498 H 229.604 6.54562 -0.434174 0
M  V30 2499 H 229.521 7.29166 -1.99633 0
M  V30 2500 H 230.789 7.7433 -0.896259 0
M  V30 2501 N 235.018 0.912232 1.28515 0
M  V30 2502 C 235.948 0.416403 2.29757 0
M  V30 2503 C 236.929 -0.515194 1.6211 0
M  V30 2504 O 238.114 -0.423253 1.89532 0
M  V30 2505 C 235.244 -0.34572 3.45575 0
M  V30 2506 C 234.198 0.496599 4.25109 0
M  V30 2507 C 233.524 -0.393771 5.33248 0
M  V30 2508 C 234.824 1.75307 4.92001 0
M  V30 2509 H 236.518 1.26249 2.7148 0
M  V30 2510 H 234.064 0.608515 1.30511 0
M  V30 2511 H 236.017 -0.703422 4.15488 0
M  V30 2512 H 234.741 -1.2257 3.02728 0
M  V30 2513 H 233.4 0.8368 3.56922 0
M  V30 2514 H 233.048 -1.27225 4.86644 0
M  V30 2515 H 232.748 0.166209 5.87365 0
M  V30 2516 H 234.272 -0.747389 6.06009 0
M  V30 2517 H 235.686 1.46437 5.54283 0
M  V30 2518 H 234.083 2.25534 5.56106 0
M  V30 2519 H 235.153 2.48176 4.16577 0
M  V30 2520 N 236.496 -1.42363 0.676048 0
M  V30 2521 C 237.744 -2.01123 0.198437 0
M  V30 2522 C 238.065 -1.53731 -1.19966 0
M  V30 2523 O 237.335 -0.759518 -1.80577 0
M  V30 2524 H 235.915 -0.743678 0.0703721 0
M  V30 2525 H 238.577 -1.74263 0.872837 0
M  V30 2526 H 237.673 -3.11454 0.200686 0
M  V30 2527 N 237.974 -0.419461 -1.51915 0
M  V30 2528 C 239.222 0.152637 -2.01523 0
M  V30 2529 C 239.543 1.44762 -1.30649 0
M  V30 2530 O 238.813 1.90997 -0.435535 0
M  V30 2531 H 237.393 0.0593966 -0.744635 0
M  V30 2532 H 240.055 -0.558073 -1.86739 0
M  V30 2533 H 239.151 0.341369 -3.10227 0
M  V30 2534 N 239.452 1.56882 -0.150215 0
M  V30 2535 C 240.699 1.96228 0.500093 0
M  V30 2536 C 241.027 1.03522 1.64661 0
M  V30 2537 O 240.282 0.0650683 1.95592 0
M  V30 2538 C 240.581 3.41801 1.04437 0
M  V30 2539 C 240.247 4.50897 0.0159671 0
M  V30 2540 C 238.909 4.8046 -0.266731 0
M  V30 2541 C 241.261 5.16703 -0.683192 0
M  V30 2542 C 238.589 5.73135 -1.25434 0
M  V30 2543 C 240.941 6.10441 -1.65964 0
M  V30 2544 C 239.605 6.38382 -1.95 0
M  V30 2545 H 238.875 0.718048 0.182997 0
M  V30 2546 H 241.522 1.90019 -0.237724 0
M  V30 2547 H 239.827 3.44857 1.85959 0
M  V30 2548 H 241.524 3.69573 1.55618 0
M  V30 2549 H 238.114 4.27891 0.246485 0
M  V30 2550 H 242.298 4.93993 -0.477983 0
M  V30 2551 H 237.554 5.93074 -1.48571 0
M  V30 2552 H 241.728 6.60507 -2.20689 0
M  V30 2553 H 239.355 7.09996 -2.71679 0
M  V30 2554 N 240.93 -0.123565 1.57115 0
M  V30 2555 C 242.178 -0.83051 1.84247 0
M  V30 2556 C 242.499 -1.80629 0.73471 0
M  V30 2557 O 241.769 -1.94403 -0.241688 0
M  V30 2558 H 240.349 -0.309694 0.679778 0
M  V30 2559 H 243.011 -0.111976 1.94578 0
M  V30 2560 H 242.107 -1.37852 2.80006 0
M  V30 2561 N 242.408 -1.52605 -0.393616 0
M  V30 2562 C 243.654 -1.67672 -1.14079 0
M  V30 2563 C 243.987 -0.413121 -1.89755 0
M  V30 2564 O 243.262 0.588952 -1.85369 0
M  V30 2565 C 243.545 -2.9088 -2.12276 0
M  V30 2566 C 243.398 -4.27329 -1.40394 0
M  V30 2567 C 244.717 -3.09628 -3.12759 0
M  V30 2568 H 241.836 -0.610168 -0.413356 0
M  V30 2569 H 244.478 -1.85193 -0.424696 0
M  V30 2570 H 242.628 -2.76073 -2.73342 0
M  V30 2571 H 244.3 -4.53894 -0.82327 0
M  V30 2572 H 242.543 -4.2802 -0.705801 0
M  V30 2573 H 243.214 -5.09615 -2.12123 0
M  V30 2574 H 245.69 -3.23436 -2.61779 0
M  V30 2575 H 244.566 -3.97322 -3.78717 0
M  V30 2576 H 244.827 -2.23637 -3.81365 0
M  V30 2577 N 243.887 0.651787 -1.4349 0
M  V30 2578 C 244.85 1.74647 -1.48429 0
M  V30 2579 C 245.85 1.56513 -0.368817 0
M  V30 2580 O 247.04 1.62385 -0.630623 0
M  V30 2581 C 244.172 3.13533 -1.33827 0
M  V30 2582 H 245.365 1.71649 -2.4592 0
M  V30 2583 H 242.918 0.863573 -1.30277 0
M  V30 2584 H 243.653 3.22142 -0.37349 0
M  V30 2585 H 243.438 3.28101 -2.14691 0
M  V30 2586 H 244.928 3.93356 -1.40218 0
M  V30 2587 N 245.365 1.30045 0.890287 0
M  V30 2588 C 246.614 1.17929 1.63633 0
M  V30 2589 C 246.927 -0.266204 1.9378 0
M  V30 2590 O 248.133 -0.508804 2.6669 0
M  V30 2591 C 246.589 2.06317 2.94892 0
M  V30 2592 C 246.197 3.55745 2.72305 0
M  V30 2593 C 247.941 2.0295 3.72843 0
M  V30 2594 C 245.848 4.36205 3.99348 0
M  V30 2595 H 244.778 0.437782 0.613892 0
M  V30 2596 H 247.429 1.54754 0.986075 0
M  V30 2597 H 245.811 1.6237 3.61182 0
M  V30 2598 H 246.985 4.07805 2.1455 0
M  V30 2599 H 245.3 3.6088 2.07737 0
M  V30 2600 H 247.897 2.60319 4.67053 0
M  V30 2601 H 248.24 1.0117 4.0382 0
M  V30 2602 H 248.773 2.4499 3.13408 0
M  V30 2603 H 245.512 5.38659 3.73533 0
M  V30 2604 H 245.032 3.8891 4.56628 0
M  V30 2605 H 246.711 4.47362 4.67415 0
M  V30 2606 N 246.843 -1.10192 1.12674 0
M  V30 2607 C 247.775 -2.16418 0.754701 0
M  V30 2608 C 248.788 -1.61309 -0.21986 0
M  V30 2609 O 249.977 -1.785 -0.000826841 0
M  V30 2610 C 247.077 -3.38762 0.096698 0
M  V30 2611 C 246.25 -4.23307 1.10136 0
M  V30 2612 C 245.309 -5.24092 0.470513 0
M  V30 2613 O 244.335 -5.57906 1.12824 0
M  V30 2614 N 245.537 -5.75491 -0.760948 0
M  V30 2615 H 248.302 -2.48943 1.66875 0
M  V30 2616 H 245.863 -1.25834 1.01869 0
M  V30 2617 H 247.855 -4.03291 -0.337384 0
M  V30 2618 H 246.425 -3.04192 -0.720153 0
M  V30 2619 H 245.645 -3.55036 1.71299 0
M  V30 2620 H 246.933 -4.76624 1.78064 0
M  V30 2621 H 246.331 -5.50222 -1.31424 0
M  V30 2622 H 244.888 -6.41792 -1.13781 0
M  V30 2623 N 248.321 -0.919034 -1.28029 0
M  V30 2624 C 249.251 -0.428581 -2.29533 0
M  V30 2625 C 250.232 0.50659 -1.62381 0
M  V30 2626 O 251.417 0.413195 -1.89753 0
M  V30 2627 C 248.547 0.327388 -3.45753 0
M  V30 2628 C 247.501 -0.519137 -4.2484 0
M  V30 2629 C 246.827 0.365486 -5.33449 0
M  V30 2630 C 248.127 -1.77914 -4.91064 0
M  V30 2631 H 249.821 -1.27687 -2.70807 0
M  V30 2632 H 247.367 -0.615428 -1.30186 0
M  V30 2633 H 249.32 0.681378 -4.15855 0
M  V30 2634 H 248.044 1.20963 -3.03374 0
M  V30 2635 H 246.703 -0.855717 -3.56473 0
M  V30 2636 H 246.351 1.24642 -4.87312 0
M  V30 2637 H 246.051 -0.197356 -5.87268 0
M  V30 2638 H 247.575 0.715241 -6.06396 0
M  V30 2639 H 248.989 -1.49374 -5.53498 0
M  V30 2640 H 247.386 -2.2848 -5.54903 0
M  V30 2641 H 248.456 -2.50382 -4.15255 0
M  V30 2642 N 249.799 1.42003 -0.683588 0
M  V30 2643 C 251.047 2.01015 -0.209101 0
M  V30 2644 C 251.368 1.54365 1.19149 0
M  V30 2645 O 250.638 0.769083 1.80172 0
M  V30 2646 H 249.218 0.743294 -0.074315 0
M  V30 2647 H 251.88 1.73798 -0.882066 0
M  V30 2648 H 250.976 3.11343 -0.2172 0
M  V30 2649 N 251.277 0.427512 1.51691 0
M  V30 2650 C 252.187 -0.39527 2.31246 0
M  V30 2651 C 253.203 -1.03674 1.39742 0
M  V30 2652 O 254.379 -1.03425 1.72816 0
M  V30 2653 C 251.444 -1.48706 3.13189 0
M  V30 2654 C 250.505 -0.866743 4.20459 0
M  V30 2655 C 249.738 -1.90651 4.98486 0
M  V30 2656 O 249.961 -3.12733 4.77026 0
M  V30 2657 O 248.895 -1.5025 5.82845 0
M  V30 2658 H 252.721 0.253918 3.02637 0
M  V30 2659 H 250.306 0.190274 1.48183 0
M  V30 2660 H 252.188 -2.12047 3.64162 0
M  V30 2661 H 250.863 -2.12051 2.44573 0
M  V30 2662 H 249.77 -0.195544 3.73589 0
M  V30 2663 H 251.103 -0.276934 4.9142 0
M  V30 2664 N 252.755 -1.56801 0.158532 0
M  V30 2665 C 253.98 -2.01295 -0.499516 0
M  V30 2666 C 254.405 -1.03799 -1.56867 0
M  V30 2667 O 253.763 -0.0155162 -1.81293 0
M  V30 2668 C 253.811 -3.44469 -1.06647 0
M  V30 2669 O 252.915 -3.50012 -2.18095 0
M  V30 2670 H 252.256 -0.652884 -0.12099 0
M  V30 2671 H 254.786 -2.02958 0.258661 0
M  V30 2672 H 254.796 -3.8351 -1.39227 0
M  V30 2673 H 253.471 -4.14932 -0.283581 0
M  V30 2674 H 252.048 -3.22822 -1.86656 0
M  V30 2675 N 254.233 0.115231 -1.57178 0
M  V30 2676 C 255.481 0.820727 -1.84685 0
M  V30 2677 C 255.802 1.80237 -0.744279 0
M  V30 2678 O 255.072 1.94529 0.231375 0
M  V30 2679 H 253.652 0.306084 -0.681411 0
M  V30 2680 H 256.314 0.101656 -1.94635 0
M  V30 2681 H 255.41 1.36366 -2.80733 0
M  V30 2682 N 255.711 1.52812 0.385517 0
M  V30 2683 C 256.641 1.80808 1.47752 0
M  V30 2684 C 257.622 0.660318 1.5676 0
M  V30 2685 O 258.807 0.908246 1.71652 0
M  V30 2686 C 255.937 1.98008 2.85324 0
M  V30 2687 C 254.891 3.13709 2.91154 0
M  V30 2688 C 254.217 3.16169 4.31209 0
M  V30 2689 C 255.517 4.52709 2.60483 0
M  V30 2690 H 257.211 2.72253 1.24573 0
M  V30 2691 H 254.757 1.31003 0.597839 0
M  V30 2692 H 256.71 2.16176 3.61726 0
M  V30 2693 H 255.434 1.03255 3.09848 0
M  V30 2694 H 254.093 2.95329 2.17201 0
M  V30 2695 H 253.741 2.19092 4.52778 0
M  V30 2696 H 253.441 3.93894 4.36029 0
M  V30 2697 H 254.965 3.36496 5.09512 0
M  V30 2698 H 256.379 4.71173 3.26602 0
M  V30 2699 H 254.776 5.32528 2.76648 0
M  V30 2700 H 255.846 4.59186 1.55809 0
M  V30 2701 N 257.189 -0.644168 1.43834 0
M  V30 2702 C 258.435 -1.40603 1.46146 0
M  V30 2703 C 258.768 -1.93997 0.0887717 0
M  V30 2704 O 258.043 -1.72854 -0.891724 0
M  V30 2705 C 258.326 -2.58086 2.51124 0
M  V30 2706 C 258.179 -2.10126 3.97702 0
M  V30 2707 C 259.498 -3.60291 2.52742 0
M  V30 2708 H 256.617 -0.509905 0.532134 0
M  V30 2709 H 259.259 -0.729502 1.75437 0
M  V30 2710 H 257.409 -3.15801 2.26278 0
M  V30 2711 H 259.081 -1.57342 4.33637 0
M  V30 2712 H 257.324 -1.41419 4.10101 0
M  V30 2713 H 257.995 -2.94649 4.66783 0
M  V30 2714 H 260.471 -3.12352 2.7491 0
M  V30 2715 H 259.347 -4.40032 3.28121 0
M  V30 2716 H 259.608 -4.1349 1.56455 0
M  V30 2717 N 258.668 -1.30515 -0.883378 0
M  V30 2718 C 259.631 -1.1701 -1.97082 0
M  V30 2719 C 260.631 -0.10089 -1.60483 0
M  V30 2720 O 261.821 -0.349127 -1.70666 0
M  V30 2721 C 258.953 -0.793045 -3.31547 0
M  V30 2722 H 260.146 -2.13622 -2.10489 0
M  V30 2723 H 257.699 -1.13935 -1.06998 0
M  V30 2724 H 258.434 0.172499 -3.23841 0
M  V30 2725 H 258.219 -1.56576 -3.5948 0
M  V30 2726 H 259.709 -0.722073 -4.1131 0
M  V30 2727 N 260.146 1.09593 -1.13257 0
M  V30 2728 C 261.394 1.81375 -0.891492 0
M  V30 2729 C 261.715 1.86049 0.584009 0
M  V30 2730 O 260.985 1.34481 1.42449 0
M  V30 2731 H 259.565 0.671708 -0.326828 0
M  V30 2732 H 262.227 1.3256 -1.42877 0
M  V30 2733 H 261.323 2.84612 -1.28071 0
M  V30 2734 N 261.624 0.925811 1.2754 0
M  V30 2735 C 262.872 0.564138 1.94067 0
M  V30 2736 C 263.193 -0.897188 1.73134 0
M  V30 2737 O 262.463 -1.63573 1.07799 0
M  V30 2738 H 261.043 0.205645 0.718136 0
M  V30 2739 H 263.705 1.1778 1.55287 0
M  V30 2740 H 262.801 0.76881 3.02483 0
M  V30 2741 N 263.102 -1.41638 0.69111 0
M  V30 2742 C 264.518 -1.55435 0.362224 0
M  V30 2743 C 264.718 -1.66754 -1.13117 0
M  V30 2744 O 263.774 -1.64348 -1.91692 0
M  V30 2745 C 265.087 -2.79588 1.10684 0
M  V30 2746 C 266.635 -2.9338 1.09075 0
M  V30 2747 C 267.11 -4.20414 1.81703 0
M  V30 2748 N 268.601 -4.27362 1.7865 0
M  V30 2749 C 269.336 -5.24507 2.31689 0
M  V30 2750 N 268.832 -6.27708 2.93179 0
M  V30 2751 N 270.625 -5.16416 2.2197 0
M  V30 2752 H 262.776 -1.32536 1.65976 0
M  V30 2753 H 265.039 -0.639115 0.700168 0
M  V30 2754 H 264.745 -2.77419 2.16175 0
M  V30 2755 H 264.619 -3.70973 0.682545 0
M  V30 2756 H 267.006 -2.95067 0.0441238 0
M  V30 2757 H 267.087 -2.0318 1.55407 0
M  V30 2758 H 266.731 -4.19488 2.86343 0
M  V30 2759 H 266.661 -5.09578 1.32808 0
M  V30 2760 H 269.152 -3.53415 1.33815 0
M  V30 2761 H 269.465 -6.98217 3.31229 0
M  V30 2762 H 267.81 -6.28223 2.97255 0
M  V30 2763 H 271.001 -4.34716 1.73607 0
M  V30 2764 H 271.174 -5.91958 2.63609 0
M  V30 2765 N 264.58 -0.43555 -1.51462 0
M  V30 2766 C 265.826 0.131709 -2.02372 0
M  V30 2767 C 266.159 1.42516 -1.3192 0
M  V30 2768 O 265.434 1.89606 -0.433573 0
M  V30 2769 C 265.717 0.352301 -3.58373 0
M  V30 2770 C 265.57 -0.959676 -4.39443 0
M  V30 2771 C 266.889 1.12286 -4.25535 0
M  V30 2772 H 264.008 0.0463936 -0.735538 0
M  V30 2773 H 266.65 -0.574197 -1.81116 0
M  V30 2774 H 264.8 0.9536 -3.76615 0
M  V30 2775 H 266.472 -1.59482 -4.32855 0
M  V30 2776 H 264.715 -1.56468 -4.04599 0
M  V30 2777 H 265.386 -0.759394 -5.46752 0
M  V30 2778 H 267.862 0.613545 -4.11552 0
M  V30 2779 H 266.738 1.24598 -5.34571 0
M  V30 2780 H 266.999 2.15048 -3.86273 0
M  V30 2781 N 266.058 1.56714 -0.166846 0
M  V30 2782 C 267.306 1.96358 0.478305 0
M  V30 2783 C 267.627 1.0537 1.6408 0
M  V30 2784 O 266.897 0.119154 1.95537 0
M  V30 2785 H 265.477 0.725065 0.179692 0
M  V30 2786 H 268.139 1.93329 -0.246985 0
M  V30 2787 H 267.235 3.00547 0.841292 0
M  V30 2788 N 267.536 -0.106894 1.57237 0
M  V30 2789 C 268.764 -0.826389 1.8968 0
M  V30 2790 C 269.179 -1.72856 0.759353 0
M  V30 2791 O 268.536 -1.80503 -0.269263 0
M  V30 2792 C 268.587 -1.64967 3.21665 0
M  V30 2793 O 268.308 -0.783804 4.31031 0
M  V30 2794 C 269.809 -2.47326 3.67892 0
M  V30 2795 H 267.029 -0.236927 0.627779 0
M  V30 2796 H 269.573 -0.0876593 2.04312 0
M  V30 2797 H 267.728 -2.34103 3.08666 0
M  V30 2798 H 268.142 -1.35284 5.06753 0
M  V30 2799 H 269.616 -3.00604 4.6297 0
M  V30 2800 H 270.093 -3.25247 2.95146 0
M  V30 2801 H 270.699 -1.83411 3.83719 0
M  V30 2802 N 269.014 -1.53014 -0.377408 0
M  V30 2803 C 270.425 -1.60438 -0.954798 0
M  V30 2804 C 270.776 -0.464418 -1.90624 0
M  V30 2805 O 269.901 0.41087 -2.12464 0
M  V30 2806 C 270.496 -2.90797 -1.73847 0
M  V30 2807 C 269.055 -3.00595 -2.26538 0
M  V30 2808 C 268.202 -2.55645 -1.07429 0
M  V30 2809 H 271.153 -1.57926 -0.156575 0
M  V30 2810 H 271.174 -2.77935 -2.5987 0
M  V30 2811 H 270.686 -3.73746 -1.04574 0
M  V30 2812 H 268.787 -2.22208 -2.99089 0
M  V30 2813 H 268.9 -4.05456 -2.5523 0
M  V30 2814 H 267.264 -2.10239 -1.43777 0
M  V30 2815 H 268.047 -3.41 -0.396728 0
M  V30 2816 N 270.492 0.636531 -1.44174 0
M  V30 2817 C 271.442 1.74233 -1.47061 0
M  V30 2818 C 272.426 1.57331 -0.337034 0
M  V30 2819 O 273.618 1.67159 -0.581973 0
M  V30 2820 C 270.747 3.12897 -1.41246 0
M  V30 2821 C 269.833 3.35288 -2.59698 0
M  V30 2822 N 270.224 3.2807 -3.84972 0
M  V30 2823 C 268.522 3.66065 -2.54778 0
M  V30 2824 C 269.223 3.51001 -4.63867 0
M  V30 2825 N 268.199 3.73616 -3.94857 0
M  V30 2826 H 272.001 1.67103 -2.41773 0
M  V30 2827 H 269.515 0.838806 -1.3906 0
M  V30 2828 H 271.512 3.92189 -1.41398 0
M  V30 2829 H 270.172 3.21197 -0.47569 0
M  V30 2830 H 271.183 3.07109 -4.17019 0
M  V30 2831 H 267.86 3.81379 -1.6987 0
M  V30 2832 H 269.25 3.51059 -5.72894 0
M  V30 2833 N 271.97 1.30982 0.876444 0
M  V30 2834 C 273.217 1.20296 1.62896 0
M  V30 2835 C 273.545 -0.240395 1.93009 0
M  V30 2836 O 272.8 -1.18733 1.55567 0
M  V30 2837 C 273.099 1.98572 2.9716 0
M  V30 2838 C 272.765 3.48125 2.86566 0
M  V30 2839 C 271.427 3.88905 2.83383 0
M  V30 2840 C 273.779 4.43322 2.74071 0
M  V30 2841 C 271.107 5.2316 2.65556 0
M  V30 2842 C 273.459 5.77695 2.57781 0
M  V30 2843 C 272.123 6.17704 2.52979 0
M  V30 2844 H 271.393 0.440193 0.59608 0
M  V30 2845 H 274.04 1.62177 1.01837 0
M  V30 2846 H 272.345 1.49352 3.62217 0
M  V30 2847 H 274.042 1.8769 3.54364 0
M  V30 2848 H 270.632 3.15723 2.89856 0
M  V30 2849 H 274.816 4.12752 2.75589 0
M  V30 2850 H 270.072 5.53241 2.60259 0
M  V30 2851 H 274.246 6.51091 2.47089 0
M  V30 2852 H 271.873 7.21678 2.38924 0
M  V30 2853 N 273.449 -1.08991 1.13837 0
M  V30 2854 C 274.382 -2.15049 0.763477 0
M  V30 2855 C 275.36 -1.60629 -0.252398 0
M  V30 2856 O 276.544 -1.87958 -0.142853 0
M  V30 2857 C 273.671 -3.38441 0.132545 0
M  V30 2858 C 272.717 -4.11596 1.11763 0
M  V30 2859 S 273.55 -4.6521 2.65216 0
M  V30 2860 C 274.706 -5.91896 2.03495 0
M  V30 2861 H 274.939 -2.46518 1.66182 0
M  V30 2862 H 272.472 -1.21008 0.958976 0
M  V30 2863 H 274.43 -4.09883 -0.225074 0
M  V30 2864 H 273.091 -3.05182 -0.743135 0
M  V30 2865 H 272.284 -5.00121 0.624076 0
M  V30 2866 H 271.886 -3.46038 1.41894 0
M  V30 2867 H 274.178 -6.63156 1.38675 0
M  V30 2868 H 275.121 -6.45938 2.9012 0
M  V30 2869 H 275.529 -5.44625 1.48471 0
M  V30 2870 N 274.927 -0.932562 -1.27047 0
M  V30 2871 C 275.89 -0.440064 -2.24936 0
M  V30 2872 C 276.89 0.444071 -1.54547 0
M  V30 2873 O 278.08 0.244465 -1.72476 0
M  V30 2874 C 275.212 0.36678 -3.38921 0
M  V30 2875 H 276.405 -1.305 -2.70018 0
M  V30 2876 H 273.958 -0.713707 -1.39054 0
M  V30 2877 H 274.693 1.25033 -2.99228 0
M  V30 2878 H 274.478 -0.267204 -3.91188 0
M  V30 2879 H 275.968 0.701567 -4.11665 0
M  V30 2880 N 276.405 1.4127 -0.698611 0
M  V30 2881 C 277.816 1.84187 -0.305289 0
M  V30 2882 C 278.167 1.58449 1.15708 0
M  V30 2883 O 277.292 1.05651 1.88856 0
M  V30 2884 C 277.887 3.3435 -0.547314 0
M  V30 2885 C 276.446 3.75826 -0.207878 0
M  V30 2886 C 275.593 2.64647 -0.828099 0
M  V30 2887 H 278.544 1.30778 -0.89904 0
M  V30 2888 H 278.565 3.8001 0.192998 0
M  V30 2889 H 278.077 3.53051 -1.61172 0
M  V30 2890 H 276.178 3.62725 0.852143 0
M  V30 2891 H 276.291 4.74462 -0.665021 0
M  V30 2892 H 274.655 2.53395 -0.257458 0
M  V30 2893 H 275.438 2.86165 -1.89643 0
M  V30 2894 N 277.883 0.443576 1.51229 0
M  V30 2895 C 278.793 -0.370721 2.31652 0
M  V30 2896 C 279.809 -1.02186 1.40833 0
M  V30 2897 O 280.985 -1.01586 1.73903 0
M  V30 2898 C 278.05 -1.45376 3.14749 0
M  V30 2899 C 277.111 -0.822099 4.21355 0
M  V30 2900 C 276.344 -1.85353 5.0048 0
M  V30 2901 O 276.567 -3.07656 4.80316 0
M  V30 2902 O 275.501 -1.4406 5.84406 0
M  V30 2903 H 279.327 0.286002 3.0235 0
M  V30 2904 H 276.912 0.20598 1.47973 0
M  V30 2905 H 278.794 -2.08173 3.66391 0
M  V30 2906 H 277.469 -2.09445 2.46809 0
M  V30 2907 H 276.376 -0.155909 3.73775 0
M  V30 2908 H 277.709 -0.224797 4.91686 0
M  V30 2909 N 279.361 -1.56624 0.175154 0
M  V30 2910 C 280.607 -1.9729 -0.469506 0
M  V30 2911 C 280.94 -1.06128 -1.62636 0
M  V30 2912 O 280.215 -0.109183 -1.94193 0
M  V30 2913 C 280.498 -3.47375 -0.948804 0
M  V30 2914 C 280.351 -4.49317 0.208491 0
M  V30 2915 C 281.67 -4.00652 -1.82116 0
M  V30 2916 H 278.789 -0.717317 -0.16919 0
M  V30 2917 H 281.431 -1.88184 0.262062 0
M  V30 2918 H 279.581 -3.55267 -1.57219 0
M  V30 2919 H 281.253 -4.53482 0.845682 0
M  V30 2920 H 279.496 -4.25121 0.863395 0
M  V30 2921 H 280.167 -5.51741 -0.169059 0
M  V30 2922 H 282.643 -3.95416 -1.2956 0
M  V30 2923 H 281.519 -5.06075 -2.12554 0
M  V30 2924 H 281.78 -3.44699 -2.7683 0
M  V30 2925 N 280.839 0.0985539 -1.57292 0
M  V30 2926 C 282.085 0.803867 -1.86188 0
M  V30 2927 C 282.418 1.78549 -0.763794 0
M  V30 2928 O 281.693 1.93153 0.22855 0
M  V30 2929 C 281.976 1.53568 -3.25713 0
M  V30 2930 C 281.829 0.572277 -4.46145 0
M  V30 2931 C 283.148 2.48708 -3.63087 0
M  V30 2932 H 280.267 0.290781 -0.677211 0
M  V30 2933 H 282.909 0.0675783 -1.8988 0
M  V30 2934 H 281.059 2.16332 -3.22696 0
M  V30 2935 H 282.731 -0.0480894 -4.61275 0
M  V30 2936 H 280.974 -0.114618 -4.33649 0
M  V30 2937 H 281.645 1.12139 -5.40489 0
M  V30 2938 H 284.121 1.96039 -3.67026 0
M  V30 2939 H 282.997 2.96932 -4.61652 0
M  V30 2940 H 283.258 3.32309 -2.91588 0
M  V30 2941 N 282.317 1.53212 0.369288 0
M  V30 2942 C 283.264 1.79388 1.45219 0
M  V30 2943 C 284.234 0.638059 1.53356 0
M  V30 2944 O 285.419 0.879852 1.69302 0
M  V30 2945 C 282.559 1.98623 2.82211 0
M  V30 2946 C 281.672 3.26337 2.8307 0
M  V30 2947 C 280.807 3.35779 4.11614 0
M  V30 2948 C 279.846 4.5754 4.06601 0
M  V30 2949 N 278.983 4.64155 5.26787 0
M  V30 2950 H 283.823 2.71794 1.22198 0
M  V30 2951 H 281.36 1.34642 0.592444 0
M  V30 2952 H 283.318 2.07761 3.61789 0
M  V30 2953 H 281.948 1.09558 3.03639 0
M  V30 2954 H 281 3.26171 1.95747 0
M  V30 2955 H 282.312 4.15988 2.75237 0
M  V30 2956 H 281.466 3.44208 4.99606 0
M  V30 2957 H 280.205 2.44137 4.22195 0
M  V30 2958 H 279.21 4.49215 3.16996 0
M  V30 2959 H 280.435 5.50519 3.97625 0
M  V30 2960 H 278.381 3.75413 5.3796 0
M  V30 2961 H 278.298 5.47706 5.21109 0
M  V30 2962 H 279.566 4.76863 6.16621 0
M  V30 2963 N 283.795 -0.628877 1.44509 0
M  V30 2964 C 285.211 -0.947305 1.28446 0
M  V30 2965 C 285.411 -2.00275 0.221872 0
M  V30 2966 O 284.467 -2.49447 -0.391471 0
M  V30 2967 C 285.78 -1.40843 2.65676 0
M  V30 2968 C 287.328 -1.52379 2.73404 0
M  V30 2969 C 287.803 -2.01875 4.11109 0
M  V30 2970 N 289.294 -2.09142 4.13296 0
M  V30 2971 C 290.029 -2.48615 5.16699 0
M  V30 2972 N 289.525 -2.87209 6.30462 0
M  V30 2973 N 291.318 -2.48768 5.04054 0
M  V30 2974 H 283.469 0.0690977 2.12288 0
M  V30 2975 H 285.732 -0.0317164 0.947469 0
M  V30 2976 H 285.438 -0.707206 3.44516 0
M  V30 2977 H 285.312 -2.37902 2.92716 0
M  V30 2978 H 287.699 -2.21598 1.9488 0
M  V30 2979 H 287.78 -0.536898 2.50102 0
M  V30 2980 H 287.424 -1.3325 4.90109 0
M  V30 2981 H 287.354 -3.0144 4.31789 0
M  V30 2982 H 289.845 -1.81991 3.31191 0
M  V30 2983 H 290.158 -3.16149 7.05174 0
M  V30 2984 H 288.503 -2.84955 6.33897 0
M  V30 2985 H 291.694 -2.18009 4.14234 0
M  V30 2986 H 291.867 -2.79207 5.84763 0
M  V30 2987 N 285.273 -1.31445 -0.869486 0
M  V30 2988 C 286.183 -1.21097 -2.0093 0
M  V30 2989 C 287.199 -0.127584 -1.73532 0
M  V30 2990 O 288.375 -0.345477 -1.98415 0
M  V30 2991 C 285.44 -0.919378 -3.34288 0
M  V30 2992 C 284.501 -2.08971 -3.75006 0
M  V30 2993 C 283.734 -1.81194 -5.02001 0
M  V30 2994 O 283.957 -0.747296 -5.65484 0
M  V30 2995 O 282.891 -2.66883 -5.39497 0
M  V30 2996 H 286.717 -2.16883 -2.12592 0
M  V30 2997 H 284.302 -1.11189 -0.997868 0
M  V30 2998 H 286.184 -0.772625 -4.14257 0
M  V30 2999 H 284.859 0.00844772 -3.23699 0
M  V30 3000 H 283.766 -2.29187 -2.95676 0
M  V30 3001 H 285.099 -2.9998 -3.90221 0
M  V30 3002 N 286.751 1.08385 -1.14413 0
M  V30 3003 C 288.162 1.62258 -0.923535 0
M  V30 3004 C 288.513 1.88691 0.537595 0
M  V30 3005 O 287.638 1.64454 1.40655 0
M  V30 3006 C 288.233 2.94781 -1.67002 0
M  V30 3007 C 286.792 3.45437 -1.495 0
M  V30 3008 C 285.939 2.19668 -1.69238 0
M  V30 3009 H 288.89 0.916086 -1.2959 0
M  V30 3010 H 288.911 3.63229 -1.13334 0
M  V30 3011 H 288.423 2.7551 -2.73342 0
M  V30 3012 H 286.524 3.6981 -0.455097 0
M  V30 3013 H 286.637 4.22173 -2.2651 0
M  V30 3014 H 285.001 2.28849 -1.11804 0
M  V30 3015 H 285.784 2.02905 -2.7692 0
M  V30 3016 N 288.23 0.939286 1.26551 0
M  V30 3017 C 289.46 0.601663 1.97645 0
M  V30 3018 C 289.868 -0.827206 1.70159 0
M  V30 3019 O 289.211 -1.56291 0.965338 0
M  V30 3020 C 289.273 0.761725 3.51337 0
M  V30 3021 C 288.937 2.16487 4.0247 0
M  V30 3022 C 289.934 3.14016 4.14355 0
M  V30 3023 C 287.619 2.48494 4.36527 0
M  V30 3024 C 289.613 4.41654 4.59587 0
M  V30 3025 C 287.3 3.76364 4.81449 0
M  V30 3026 C 288.298 4.72758 4.92939 0
M  V30 3027 O 287.986 5.98352 5.36871 0
M  V30 3028 H 287.718 0.225758 0.637189 0
M  V30 3029 H 290.272 1.26178 1.62075 0
M  V30 3030 H 288.502 0.0444808 3.86674 0
M  V30 3031 H 290.191 0.427442 4.03643 0
M  V30 3032 H 290.957 2.90613 3.8829 0
M  V30 3033 H 286.836 1.74202 4.26819 0
M  V30 3034 H 290.38 5.16896 4.68471 0
M  V30 3035 H 286.277 3.99582 5.06956 0
M  V30 3036 H 287.045 6.01507 5.55096 0
M  V30 3037 N 289.708 -1.40897 0.706093 0
M  V30 3038 C 290.956 -2.00657 0.241054 0
M  V30 3039 C 291.277 -1.56241 -1.16678 0
M  V30 3040 O 290.547 -0.79765 -1.78926 0
M  V30 3041 H 289.127 -0.742018 0.0861308 0
M  V30 3042 H 291.789 -1.72372 0.909604 0
M  V30 3043 H 290.885 -3.10958 0.266705 0
M  V30 3044 N 291.186 -0.45159 -1.50991 0
M  V30 3045 C 292.133 0.352625 -2.2809 0
M  V30 3046 C 293.103 1.0044 -1.32291 0
M  V30 3047 O 294.288 1.02058 -1.6121 0
M  V30 3048 C 291.428 1.43983 -3.13629 0
M  V30 3049 C 290.541 0.804772 -4.24438 0
M  V30 3050 C 289.676 1.86822 -4.97263 0
M  V30 3051 C 288.715 1.21236 -5.99973 0
M  V30 3052 N 287.852 2.2178 -6.66152 0
M  V30 3053 H 292.692 -0.311186 -2.96371 0
M  V30 3054 H 290.229 -0.165308 -1.46168 0
M  V30 3055 H 292.187 2.08161 -3.61559 0
M  V30 3056 H 290.817 2.07307 -2.47434 0
M  V30 3057 H 289.869 0.0509129 -3.80366 0
M  V30 3058 H 291.181 0.286076 -4.97979 0
M  V30 3059 H 290.335 2.58628 -5.48813 0
M  V30 3060 H 289.074 2.42068 -4.23385 0
M  V30 3061 H 288.079 0.479828 -5.47702 0
M  V30 3062 H 289.304 0.667051 -6.75816 0
M  V30 3063 H 287.25 2.76079 -5.95077 0
M  V30 3064 H 287.167 1.74841 -7.35504 0
M  V30 3065 H 288.435 2.93026 -7.22327 0
M  V30 3066 N 292.664 1.56529 -0.183458 0
M  V30 3067 C 294.075 1.83739 0.331177 0
M  V30 3068 C 294.426 1.10373 1.62211 0
M  V30 3069 O 293.551 0.36071 2.13373 0
M  V30 3070 C 294.146 3.33306 0.607646 0
M  V30 3071 C 292.705 3.60969 1.06668 0
M  V30 3072 C 291.852 2.77086 0.109029 0
M  V30 3073 H 294.803 1.53379 -0.407484 0
M  V30 3074 H 294.824 3.51444 1.45832 0
M  V30 3075 H 294.336 3.86677 -0.332086 0
M  V30 3076 H 292.437 3.13021 2.0211 0
M  V30 3077 H 292.55 4.69231 0.967447 0
M  V30 3078 H 290.914 2.47319 0.608714 0
M  V30 3079 H 291.697 3.33241 -0.82494 0
M  V30 3080 N 294.142 -0.090211 1.57342 0
M  V30 3081 C 295.388 -0.793982 1.86611 0
M  V30 3082 C 295.721 -1.78142 0.773252 0
M  V30 3083 O 294.996 -1.93271 -0.218304 0
M  V30 3084 C 295.279 -1.51839 3.26523 0
M  V30 3085 C 295.132 -0.548609 4.46442 0
M  V30 3086 C 296.451 -2.46779 3.64401 0
M  V30 3087 H 293.57 -0.287186 0.678744 0
M  V30 3088 H 296.212 -0.0575076 1.89913 0
M  V30 3089 H 294.362 -2.14617 3.23839 0
M  V30 3090 H 296.034 0.0725513 4.61243 0
M  V30 3091 H 294.277 0.137614 4.33582 0
M  V30 3092 H 294.948 -1.09271 5.41076 0
M  V30 3093 H 297.424 -1.94089 3.68061 0
M  V30 3094 H 296.3 -2.94479 4.63221 0
M  V30 3095 H 296.561 -3.30758 2.93346 0
M  V30 3096 N 295.62 -1.53406 -0.361157 0
M  V30 3097 C 296.897 -1.60411 -1.11927 0
M  V30 3098 C 297.277 -0.414385 -2.06993 0
M  V30 3099 O 296.625 0.594976 -2.20618 0
M  V30 3100 C 296.835 -2.95652 -1.85448 0
M  V30 3101 C 298.183 -3.50386 -2.39823 0
M  V30 3102 O 299.207 -2.97711 -1.95568 0
M  V30 3103 O 298.066 -4.42482 -3.20737 0
M  V30 3104 H 295.16 -0.64811 -0.513695 0
M  V30 3105 H 297.706 -1.65749 -0.364065 0
M  V30 3106 H 296.478 -3.73682 -1.16091 0
M  V30 3107 H 296.101 -2.93825 -2.67866 0
M  V30 3108 N 297.098 0.621204 -1.44841 0
M  V30 3109 C 298.344 1.3826 -1.48365 0
M  V30 3110 C 298.677 1.93831 -0.119624 0
M  V30 3111 O 297.952 1.74251 0.864111 0
M  V30 3112 C 298.235 2.54058 -2.55199 0
M  V30 3113 C 298.088 2.03772 -4.00995 0
M  V30 3114 C 299.407 3.56225 -2.58442 0
M  V30 3115 H 296.526 0.501374 -0.540179 0
M  V30 3116 H 299.168 0.7015 -1.76576 0
M  V30 3117 H 297.318 3.12162 -2.31274 0
M  V30 3118 H 298.99 1.50423 -4.36086 0
M  V30 3119 H 297.233 1.34876 -4.12299 0
M  V30 3120 H 297.904 2.87185 -4.71411 0
M  V30 3121 H 300.38 3.07939 -2.79844 0
M  V30 3122 H 299.256 4.34756 -3.3508 0
M  V30 3123 H 299.517 4.10949 -1.63013 0
M  V30 3124 N 298.576 1.31904 0.862503 0
M  V30 3125 C 299.822 1.23207 1.61838 0
M  V30 3126 C 300.177 -0.206062 1.91293 0
M  V30 3127 O 299.47 -1.14162 1.53875 0
M  V30 3128 C 299.664 2.01713 2.95037 0
M  V30 3129 C 299.493 3.53014 2.78588 0
M  V30 3130 C 298.263 4.22359 2.77382 0
M  V30 3131 C 300.461 4.47819 2.52909 0
M  V30 3132 N 298.443 5.59766 2.52062 0
M  V30 3133 C 299.814 5.72947 2.36922 0
M  V30 3134 C 301.869 4.37162 2.38314 0
M  V30 3135 C 300.572 6.88623 2.07823 0
M  V30 3136 C 302.598 5.5263 2.10604 0
M  V30 3137 C 301.96 6.76752 1.95411 0
M  V30 3138 H 298.059 0.505984 0.596242 0
M  V30 3139 H 300.643 1.66179 1.01452 0
M  V30 3140 H 298.814 1.61098 3.53415 0
M  V30 3141 H 300.546 1.84975 3.59953 0
M  V30 3142 H 297.301 3.74401 2.90036 0
M  V30 3143 H 297.725 6.32135 2.42352 0
M  V30 3144 H 302.367 3.41857 2.48784 0
M  V30 3145 H 300.085 7.83948 1.9609 0
M  V30 3146 H 303.671 5.46307 2.00101 0
M  V30 3147 H 302.551 7.6459 1.74274 0
M  V30 3148 N 300.054 -1.07777 1.14986 0
M  V30 3149 C 301.302 -1.79934 0.920235 0
M  V30 3150 C 301.623 -1.86955 -0.554336 0
M  V30 3151 O 300.893 -1.36731 -1.40291 0
M  V30 3152 H 299.473 -0.666424 0.337473 0
M  V30 3153 H 302.135 -1.3027 1.44968 0
M  V30 3154 H 301.231 -2.82539 1.32583 0
M  V30 3155 N 301.532 -0.945985 -1.26051 0
M  V30 3156 C 302.772 -0.603665 -1.95282 0
M  V30 3157 C 303.136 0.842377 -1.72534 0
M  V30 3158 O 304.337 1.29387 -2.35611 0
M  V30 3159 C 302.608 -0.942292 -3.44754 0
M  V30 3160 S 304.167 -0.711242 -4.32997 0
M  V30 3161 H 300.985 -0.222176 -0.675395 0
M  V30 3162 H 303.587 -1.21832 -1.52896 0
M  V30 3163 H 302.291 -1.99203 -3.58812 0
M  V30 3164 H 301.822 -0.317546 -3.92116 0
M  V30 3165 H 303.837 0.422221 -4.944 0
M  V30 3166 N 303.011 1.40521 -0.713556 0
M  V30 3167 C 304.259 2.00527 -0.251692 0
M  V30 3168 C 304.58 1.56857 1.15848 0
M  V30 3169 O 303.85 0.807127 1.785 0
M  V30 3170 H 302.43 0.741551 -0.0900646 0
M  V30 3171 H 305.092 1.71887 -0.918733 0
M  V30 3172 H 304.188 3.10813 -0.283192 0
M  V30 3173 N 304.489 0.459591 1.5075 0
M  V30 3174 C 305.735 -0.0994966 2.02556 0
M  V30 3175 C 306.068 -1.40399 1.3417 0
M  V30 3176 O 305.343 -1.88892 0.463683 0
M  V30 3177 C 305.626 -0.295242 3.58888 0
M  V30 3178 C 305.479 1.02947 4.37861 0
M  V30 3179 C 306.798 -1.05502 4.27267 0
M  V30 3180 H 303.917 -0.034686 0.736183 0
M  V30 3181 H 306.559 0.602938 1.8018 0
M  V30 3182 H 304.709 -0.893563 3.78084 0
M  V30 3183 H 306.381 1.66348 4.30263 0
M  V30 3184 H 304.624 1.62885 4.02058 0
M  V30 3185 H 305.295 0.846281 5.45474 0
M  V30 3186 H 307.771 -0.547993 4.12476 0
M  V30 3187 H 306.647 -1.16077 5.36486 0
M  V30 3188 H 306.908 -2.08875 3.89645 0
M  V30 3189 N 305.967 -1.56429 0.191757 0
M  V30 3190 C 307.216 -1.9666 -0.448088 0
M  V30 3191 C 307.529 -1.08136 -1.62991 0
M  V30 3192 O 308.735 -1.38135 -2.33733 0
M  V30 3193 C 307.191 -3.49753 -0.848585 0
M  V30 3194 C 306.799 -4.46935 0.308764 0
M  V30 3195 C 308.543 -3.9876 -1.4557 0
M  V30 3196 C 306.45 -5.91293 -0.112506 0
M  V30 3197 H 305.38 -0.734312 -0.171179 0
M  V30 3198 H 308.031 -1.81301 0.283242 0
M  V30 3199 H 306.413 -3.60604 -1.63649 0
M  V30 3200 H 307.587 -4.47813 1.08627 0
M  V30 3201 H 305.902 -4.08102 0.827158 0
M  V30 3202 H 308.499 -5.04086 -1.78328 0
M  V30 3203 H 308.842 -3.42875 -2.36099 0
M  V30 3204 H 309.375 -3.9101 -0.731836 0
M  V30 3205 H 306.114 -6.51097 0.758514 0
M  V30 3206 H 305.634 -5.93676 -0.854941 0
M  V30 3207 H 307.313 -6.44663 -0.549448 0
M  V30 3208 N 307.445 0.0818655 -1.57387 0
M  V30 3209 C 308.375 1.09885 -2.06028 0
M  V30 3210 C 309.356 1.4098 -0.951774 0
M  V30 3211 O 310.541 1.50781 -1.22387 0
M  V30 3212 C 307.671 2.4151 -2.4958 0
M  V30 3213 C 306.625 2.24792 -3.64215 0
M  V30 3214 C 305.951 3.61712 -3.93787 0
M  V30 3215 C 307.251 1.67749 -4.94629 0
M  V30 3216 H 308.945 0.694128 -2.91243 0
M  V30 3217 H 306.491 0.332448 -1.4011 0
M  V30 3218 H 308.444 3.12939 -2.82219 0
M  V30 3219 H 307.168 2.83943 -1.61381 0
M  V30 3220 H 305.827 1.55807 -3.31843 0
M  V30 3221 H 305.475 4.01697 -3.02735 0
M  V30 3222 H 305.175 3.51368 -4.70971 0
M  V30 3223 H 306.699 4.34587 -4.28913 0
M  V30 3224 H 308.113 2.29032 -5.25564 0
M  V30 3225 H 306.51 1.68128 -5.76067 0
M  V30 3226 H 307.58 0.638059 -4.80684 0
M  V30 3227 N 308.923 1.53595 0.353017 0
M  V30 3228 C 310.17 1.70385 1.09431 0
M  V30 3229 C 310.498 0.462113 1.88931 0
M  V30 3230 O 309.753 -0.556074 1.87633 0
M  V30 3231 C 310.052 2.91313 2.07054 0
M  V30 3232 C 309.718 4.27308 1.43939 0
M  V30 3233 C 308.38 4.64287 1.26454 0
M  V30 3234 C 310.732 5.11829 0.983883 0
M  V30 3235 C 308.06 5.83412 0.620226 0
M  V30 3236 C 310.412 6.31611 0.353516 0
M  V30 3237 C 309.076 6.67293 0.166272 0
M  V30 3238 H 308.346 0.623484 0.400436 0
M  V30 3239 H 310.993 1.87799 0.374655 0
M  V30 3240 H 309.298 2.68463 2.85368 0
M  V30 3241 H 310.995 3.01497 2.64387 0
M  V30 3242 H 307.585 3.98198 1.58543 0
M  V30 3243 H 311.769 4.838 1.10685 0
M  V30 3244 H 307.025 6.09639 0.463681 0
M  V30 3245 H 311.199 6.964 -0.00757555 0
M  V30 3246 H 308.826 7.59461 -0.335047 0
M  V30 3247 N 310.401 -0.613514 1.45168 0
M  V30 3248 C 311.65 -1.36874 1.4815 0
M  V30 3249 C 311.963 -1.952 0.124982 0
M  V30 3250 O 313.169 -2.71481 0.0324176 0
M  V30 3251 C 311.625 -2.47905 2.60904 0
M  V30 3252 C 311.233 -1.96016 4.02842 0
M  V30 3253 C 312.977 -3.24965 2.73126 0
M  V30 3254 C 310.884 -3.04494 5.06988 0
M  V30 3255 H 309.814 -0.514428 0.551253 0
M  V30 3256 H 312.465 -0.658182 1.7129 0
M  V30 3257 H 310.847 -3.21618 2.31037 0
M  V30 3258 H 312.021 -1.29051 4.4236 0
M  V30 3259 H 310.336 -1.31719 3.95018 0
M  V30 3260 H 312.933 -4.05865 3.48106 0
M  V30 3261 H 313.276 -3.75588 1.79553 0
M  V30 3262 H 313.809 -2.5835 3.0249 0
M  V30 3263 H 310.548 -2.58795 6.0225 0
M  V30 3264 H 310.068 -3.70044 4.72046 0
M  V30 3265 H 311.747 -3.68976 5.31475 0
M  V30 3266 N 311.879 -1.3236 -0.855495 0
M  V30 3267 C 312.809 -1.23833 -1.97958 0
M  V30 3268 C 313.79 -0.122361 -1.69659 0
M  V30 3269 O 314.975 -0.30939 -1.9172 0
M  V30 3270 C 312.105 -0.959772 -3.33775 0
M  V30 3271 C 311.059 -2.03689 -3.76424 0
M  V30 3272 C 310.385 -1.61075 -5.09862 0
M  V30 3273 C 311.685 -3.4518 -3.9198 0
M  V30 3274 H 313.379 -2.1788 -2.0535 0
M  V30 3275 H 310.925 -1.04891 -0.986605 0
M  V30 3276 H 312.878 -0.886678 -4.11966 0
M  V30 3277 H 311.602 0.0163404 -3.26596 0
M  V30 3278 H 310.261 -2.10012 -3.00484 0
M  V30 3279 H 309.909 -0.622107 -4.99138 0
M  V30 3280 H 309.609 -2.33143 -5.39368 0
M  V30 3281 H 311.133 -1.55201 -5.90546 0
M  V30 3282 H 312.547 -3.4145 -4.60526 0
M  V30 3283 H 310.944 -4.1559 -4.32903 0
M  V30 3284 H 312.014 -3.84903 -2.94919 0
M  V30 3285 N 313.357 1.07166 -1.15556 0
M  V30 3286 C 314.287 2.16403 -0.877046 0
M  V30 3287 C 315.268 1.69217 0.173111 0
M  V30 3288 O 316.453 1.94181 0.027084 0
M  V30 3289 C 313.583 3.45349 -0.367632 0
M  V30 3290 C 312.537 4.05995 -1.35468 0
M  V30 3291 C 311.863 5.30045 -0.704038 0
M  V30 3292 C 313.163 4.45804 -2.72132 0
M  V30 3293 H 314.857 2.39959 -1.79053 0
M  V30 3294 H 312.403 1.15325 -0.862331 0
M  V30 3295 H 314.356 4.21095 -0.160317 0
M  V30 3296 H 313.08 3.21385 0.581326 0
M  V30 3297 H 311.739 3.32296 -1.54839 0
M  V30 3298 H 311.387 5.02373 0.251128 0
M  V30 3299 H 311.087 5.71579 -1.36277 0
M  V30 3300 H 312.611 6.08495 -0.50654 0
M  V30 3301 H 314.025 5.12671 -2.56595 0
M  V30 3302 H 312.422 4.98296 -3.34397 0
M  V30 3303 H 313.492 3.57083 -3.28054 0
M  V30 3304 N 314.835 0.952656 1.25548 0
M  V30 3305 C 316.06 0.623025 1.97821 0
M  V30 3306 C 316.485 -0.7976 1.70352 0
M  V30 3307 O 315.843 -1.53905 0.958283 0
M  V30 3308 C 315.891 0.885532 3.49558 0
M  V30 3309 O 314.995 -0.0366641 4.12384 0
M  V30 3310 H 314.336 0.237082 0.620232 0
M  V30 3311 H 316.866 1.27871 1.59719 0
M  V30 3312 H 316.876 0.811009 3.99858 0
M  V30 3313 H 315.551 1.92094 3.6888 0
M  V30 3314 H 314.128 0.0898954 3.72792 0
M  V30 3315 N 316.313 -1.40141 0.720998 0
M  V30 3316 C 317.561 -2.0039 0.262323 0
M  V30 3317 C 317.882 -1.57469 -1.15015 0
M  V30 3318 O 317.152 -0.816582 -1.78069 0
M  V30 3319 H 315.732 -0.741063 0.093996 0
M  V30 3320 H 318.394 -1.71398 0.927835 0
M  V30 3321 H 317.49 -3.10658 0.299671 0
M  V30 3322 N 317.792 -0.46758 -1.50504 0
M  V30 3323 C 319.032 0.0874114 -2.04213 0
M  V30 3324 C 319.396 1.37301 -1.34211 0
M  V30 3325 O 320.597 2.01015 -1.78456 0
M  V30 3326 C 318.868 0.270571 -3.56374 0
M  V30 3327 S 320.427 0.784623 -4.31728 0
M  V30 3328 H 317.245 0.0176153 -0.710782 0
M  V30 3329 H 319.847 -0.633915 -1.84937 0
M  V30 3330 H 318.551 -0.670942 -4.04878 0
M  V30 3331 H 318.082 1.01811 -3.79997 0
M  V30 3332 H 320.097 2.05849 -4.51487 0
M  V30 3333 N 319.27 1.56325 -0.20005 0
M  V30 3334 C 320.2 2.22318 0.713916 0
M  V30 3335 C 321.181 1.18788 1.21752 0
M  V30 3336 O 322.366 1.47309 1.26545 0
M  V30 3337 C 319.496 2.88639 1.93144 0
M  V30 3338 C 318.45 3.98457 1.56255 0
M  V30 3339 C 317.776 4.51967 2.85709 0
M  V30 3340 C 319.076 5.16612 0.768747 0
M  V30 3341 H 320.77 2.98952 0.163755 0
M  V30 3342 H 318.316 1.43792 0.0773219 0
M  V30 3343 H 320.269 3.33491 2.57608 0
M  V30 3344 H 318.993 2.09419 2.50621 0
M  V30 3345 H 317.652 3.54305 0.941471 0
M  V30 3346 H 317.3 3.69503 3.41287 0
M  V30 3347 H 317 5.26071 2.6177 0
M  V30 3348 H 318.524 4.99523 3.51154 0
M  V30 3349 H 319.938 5.57977 1.3166 0
M  V30 3350 H 318.335 5.96812 0.627286 0
M  V30 3351 H 319.405 4.84358 -0.229168 0
M  V30 3352 N 320.748 -0.0735177 1.57428 0
M  V30 3353 C 322.159 -0.625551 1.75908 0
M  V30 3354 C 322.51 -1.78 0.825261 0
M  V30 3355 O 321.635 -2.16398 0.00893964 0
M  V30 3356 C 322.23 -1.14155 3.18989 0
M  V30 3357 C 320.789 -1.63946 3.38819 0
M  V30 3358 C 319.936 -0.558151 2.71625 0
M  V30 3359 H 322.887 0.152647 1.57964 0
M  V30 3360 H 322.908 -2.0104 3.23053 0
M  V30 3361 H 322.42 -0.301116 3.8693 0
M  V30 3362 H 320.521 -2.50321 2.7599 0
M  V30 3363 H 320.634 -1.71759 4.47253 0
M  V30 3364 H 318.998 -1.00278 2.34129 0
M  V30 3365 H 319.781 0.272071 3.4222 0
M  V30 3366 N 322.226 -1.5378 -0.344866 0
M  V30 3367 C 323.473 -1.70963 -1.08526 0
M  V30 3368 C 323.801 -0.472126 -1.88683 0
M  V30 3369 O 323.056 0.546116 -1.87926 0
M  V30 3370 C 323.355 -2.92407 -2.05506 0
M  V30 3371 C 323.021 -4.28066 -1.41671 0
M  V30 3372 C 321.683 -4.64951 -1.2399 0
M  V30 3373 C 324.035 -5.12344 -0.956726 0
M  V30 3374 C 321.363 -5.83733 -0.589277 0
M  V30 3375 C 323.715 -6.3179 -0.320015 0
M  V30 3376 C 322.379 -6.67372 -0.130881 0
M  V30 3377 H 321.649 -0.625598 -0.397124 0
M  V30 3378 H 324.296 -1.87995 -0.36469 0
M  V30 3379 H 322.601 -2.69973 -2.8394 0
M  V30 3380 H 324.298 -3.02895 -2.62784 0
M  V30 3381 H 320.888 -3.99034 -1.56429 0
M  V30 3382 H 325.072 -4.8438 -1.08118 0
M  V30 3383 H 320.328 -6.09877 -0.431344 0
M  V30 3384 H 324.502 -6.96386 0.0445072 0
M  V30 3385 H 322.129 -7.59273 0.375318 0
M  V30 3386 N 323.704 0.605807 -1.45491 0
M  V30 3387 C 324.934 1.38934 -1.52908 0
M  V30 3388 C 325.342 1.88513 -0.161086 0
M  V30 3389 O 324.685 1.62962 0.847891 0
M  V30 3390 C 324.747 2.62737 -2.45376 0
M  V30 3391 C 324.411 2.34785 -3.92078 0
M  V30 3392 C 325.408 1.95038 -4.8193 0
M  V30 3393 C 323.093 2.47642 -4.37011 0
M  V30 3394 C 325.087 1.68511 -6.14722 0
M  V30 3395 C 322.774 2.20728 -5.69844 0
M  V30 3396 C 323.772 1.81225 -6.58519 0
M  V30 3397 O 323.46 1.54627 -7.88889 0
M  V30 3398 H 323.192 0.431629 -0.520262 0
M  V30 3399 H 325.746 0.74573 -1.91384 0
M  V30 3400 H 323.976 3.29824 -2.01874 0
M  V30 3401 H 325.665 3.24783 -2.43456 0
M  V30 3402 H 326.431 1.84639 -4.48479 0
M  V30 3403 H 322.31 2.77356 -3.68232 0
M  V30 3404 H 325.854 1.37602 -6.83894 0
M  V30 3405 H 321.751 2.30744 -6.02849 0
M  V30 3406 H 322.519 1.68665 -8.00933 0
M  V30 3407 N 325.182 1.32811 0.848464 0
M  V30 3408 C 326.43 1.23479 1.59991 0
M  V30 3409 C 326.751 -0.201853 1.93952 0
M  V30 3410 O 326.021 -1.12818 1.60153 0
M  V30 3411 H 324.601 0.454034 0.593179 0
M  V30 3412 H 327.263 1.66412 1.01455 0
M  V30 3413 H 326.359 1.82178 2.53412 0
M  V30 3414 N 326.66 -1.06551 1.16123 0
M  V30 3415 C 327.888 -1.83005 0.965237 0
M  V30 3416 C 328.303 -1.82423 -0.486542 0
M  V30 3417 O 327.66 -1.24152 -1.33763 0
M  V30 3418 C 327.711 -3.29733 1.48183 0
M  V30 3419 O 327.432 -3.30416 2.87674 0
M  V30 3420 C 328.933 -4.22926 1.32848 0
M  V30 3421 H 326.153 -0.577118 0.342309 0
M  V30 3422 H 328.697 -1.3445 1.54089 0
M  V30 3423 H 326.852 -3.75609 0.948517 0
M  V30 3424 H 327.266 -4.22149 3.11272 0
M  V30 3425 H 328.74 -5.23916 1.73827 0
M  V30 3426 H 329.217 -4.38346 0.273692 0
M  V30 3427 H 329.823 -3.82894 1.85127 0
M  V30 3428 N 328.138 -0.959301 -1.25041 0
M  V30 3429 C 329.085 -0.482057 -2.2571 0
M  V30 3430 C 330.055 0.467939 -1.59372 0
M  V30 3431 O 331.24 0.380159 -1.86974 0
M  V30 3432 C 328.38 0.229623 -3.44335 0
M  V30 3433 C 327.493 -0.758156 -4.25295 0
M  V30 3434 C 326.628 -0.0234403 -5.31195 0
M  V30 3435 C 325.667 -1.00184 -6.03846 0
M  V30 3436 N 324.804 -0.29769 -7.01469 0
M  V30 3437 H 329.644 -1.34538 -2.65901 0
M  V30 3438 H 327.181 -0.674592 -1.3072 0
M  V30 3439 H 329.139 0.658856 -4.11965 0
M  V30 3440 H 327.769 1.05696 -3.05005 0
M  V30 3441 H 326.821 -1.30586 -3.57284 0
M  V30 3442 H 328.133 -1.50458 -4.75567 0
M  V30 3443 H 327.287 0.464201 -6.04922 0
M  V30 3444 H 326.026 0.755741 -4.81809 0
M  V30 3445 H 325.031 -1.50044 -5.2893 0
M  V30 3446 H 326.256 -1.78133 -6.55321 0
M  V30 3447 H 324.202 0.462668 -6.54366 0
M  V30 3448 H 324.119 -0.983128 -7.4958 0
M  V30 3449 H 325.387 0.16826 -7.79318 0
M  V30 3450 N 329.616 1.39756 -0.72842 0
M  V30 3451 C 330.526 2.34444 -0.0855374 0
M  V30 3452 C 331.542 1.57976 0.729356 0
M  V30 3453 O 332.718 1.90301 0.659346 0
M  V30 3454 C 329.783 3.36965 0.815798 0
M  V30 3455 C 328.844 4.29299 -0.0105996 0
M  V30 3456 C 328.077 5.26923 0.84781 0
M  V30 3457 O 328.3 5.30859 2.08673 0
M  V30 3458 O 327.234 6.01249 0.279969 0
M  V30 3459 H 331.06 2.91065 -0.866892 0
M  V30 3460 H 328.645 1.4117 -0.48902 0
M  V30 3461 H 330.527 3.99804 1.33171 0
M  V30 3462 H 329.202 2.82739 1.57608 0
M  V30 3463 H 328.109 3.69703 -0.571877 0
M  V30 3464 H 329.442 4.86712 -0.73295 0
M  V30 3465 N 331.094 0.475555 1.50254 0
M  V30 3466 C 332.51 0.12997 1.5907 0
M  V30 3467 C 332.71 -1.36385 1.48328 0
M  V30 3468 O 331.766 -2.13754 1.34407 0
M  V30 3469 C 333.079 0.684139 2.92814 0
M  V30 3470 C 334.627 0.647965 3.0622 0
M  V30 3471 C 335.102 1.17975 4.42545 0
M  V30 3472 N 336.593 1.13936 4.48969 0
M  V30 3473 C 337.328 1.52129 5.52851 0
M  V30 3474 N 336.824 1.97793 6.63965 0
M  V30 3475 N 338.617 1.43704 5.4342 0
M  V30 3476 H 330.768 1.44706 1.55479 0
M  V30 3477 H 333.031 0.598691 0.735033 0
M  V30 3478 H 332.737 1.73079 3.06164 0
M  V30 3479 H 332.611 0.130204 3.76975 0
M  V30 3480 H 334.998 -0.38979 2.92514 0
M  V30 3481 H 335.079 1.23876 2.23805 0
M  V30 3482 H 334.723 2.21616 4.57 0
M  V30 3483 H 334.653 0.565138 5.23559 0
M  V30 3484 H 337.144 0.804488 3.69238 0
M  V30 3485 H 337.457 2.25072 7.39299 0
M  V30 3486 H 335.802 2.01749 6.65073 0
M  V30 3487 H 338.993 1.07867 4.55502 0
M  V30 3488 H 339.166 1.73794 6.24259 0
M  V30 3489 N 332.573 -1.56217 0.208337 0
M  V30 3490 C 333.503 -2.22694 -0.702116 0
M  V30 3491 C 334.484 -1.19432 -1.2112 0
M  V30 3492 O 335.669 -1.47978 -1.25762 0
M  V30 3493 C 332.799 -2.8966 -1.9161 0
M  V30 3494 C 331.753 -3.9928 -1.5414 0
M  V30 3495 C 331.079 -4.53476 -2.83308 0
M  V30 3496 C 332.379 -5.17012 -0.741339 0
M  V30 3497 H 334.073 -2.99034 -0.147898 0
M  V30 3498 H 331.619 -1.43831 -0.0696951 0
M  V30 3499 H 333.572 -3.34852 -2.55836 0
M  V30 3500 H 332.296 -2.10746 -2.49507 0
M  V30 3501 H 330.955 -3.54799 -0.922668 0
M  V30 3502 H 330.603 -3.71308 -3.39322 0
M  V30 3503 H 330.303 -5.27451 -2.58976 0
M  V30 3504 H 331.827 -5.01378 -3.485 0
M  V30 3505 H 333.241 -5.58667 -1.28699 0
M  V30 3506 H 331.638 -5.97137 -0.595627 0
M  V30 3507 H 332.708 -4.8423 0.254851 0
M  V30 3508 N 334.051 0.0651679 -1.57465 0
M  V30 3509 C 335.298 0.763063 -1.87573 0
M  V30 3510 C 335.626 1.77242 -0.800961 0
M  V30 3511 O 334.881 1.94651 0.202316 0
M  V30 3512 C 335.18 1.50081 -3.24362 0
M  V30 3513 C 334.846 0.630816 -4.46466 0
M  V30 3514 C 333.508 0.391082 -4.79608 0
M  V30 3515 C 335.86 0.0279465 -5.21193 0
M  V30 3516 C 333.188 -0.460894 -5.84887 0
M  V30 3517 C 335.54 -0.811522 -6.27373 0
M  V30 3518 C 334.204 -1.06106 -6.59013 0
M  V30 3519 H 333.474 0.279224 -0.686378 0
M  V30 3520 H 336.121 0.0236726 -1.91485 0
M  V30 3521 H 334.426 2.31258 -3.16271 0
M  V30 3522 H 336.123 2.04571 -3.44894 0
M  V30 3523 H 332.713 0.8278 -4.2053 0
M  V30 3524 H 336.897 0.200262 -4.95896 0
M  V30 3525 H 332.153 -0.662907 -6.07796 0
M  V30 3526 H 336.327 -1.28537 -6.84435 0
M  V30 3527 H 333.954 -1.723 -7.40417 0
M  V30 3528 N 335.529 1.53961 0.336706 0
M  V30 3529 C 336.439 1.85432 1.43708 0
M  V30 3530 C 337.455 0.745053 1.57242 0
M  V30 3531 O 338.631 1.03804 1.72588 0
M  V30 3532 C 335.696 2.06349 2.78605 0
M  V30 3533 C 334.757 3.30191 2.74358 0
M  V30 3534 C 333.99 3.50101 4.02822 0
M  V30 3535 O 334.213 2.7371 5.00439 0
M  V30 3536 O 333.147 4.43547 4.06878 0
M  V30 3537 H 336.973 2.78975 1.20028 0
M  V30 3538 H 334.558 1.39701 0.52952 0
M  V30 3539 H 336.44 2.21513 3.58483 0
M  V30 3540 H 335.115 1.15995 3.02203 0
M  V30 3541 H 334.022 3.20425 1.93078 0
M  V30 3542 H 335.355 4.2056 2.55715 0
M  V30 3543 N 337.007 -0.598083 1.45811 0
M  V30 3544 C 338.255 -1.35413 1.50026 0
M  V30 3545 C 338.576 -1.94444 0.147177 0
M  V30 3546 O 337.846 -1.77701 -0.824571 0
M  V30 3547 H 336.426 -0.502727 0.552517 0
M  V30 3548 H 339.088 -0.701606 1.81834 0
M  V30 3549 H 338.184 -2.16871 2.2444 0
M  V30 3550 N 338.485 -1.33259 -0.841409 0
M  V30 3551 C 339.734 -1.23921 -1.59143 0
M  V30 3552 C 340.047 0.1941 -1.94635 0
M  V30 3553 O 341.253 0.409474 -2.68394 0
M  V30 3554 C 339.709 -2.17119 -2.87032 0
M  V30 3555 C 339.317 -3.65606 -2.58914 0
M  V30 3556 C 341.061 -2.16648 -3.65053 0
M  V30 3557 C 338.968 -4.50726 -3.82884 0
M  V30 3558 H 337.898 -0.460264 -0.597221 0
M  V30 3559 H 340.549 -1.58307 -0.927959 0
M  V30 3560 H 338.931 -1.75663 -3.54906 0
M  V30 3561 H 340.105 -4.15487 -1.99267 0
M  V30 3562 H 338.42 -3.68341 -1.942 0
M  V30 3563 H 341.017 -2.77474 -4.57069 0
M  V30 3564 H 341.36 -1.16088 -3.99787 0
M  V30 3565 H 341.893 -2.56453 -3.041 0
M  V30 3566 H 338.632 -5.52151 -3.53283 0
M  V30 3567 H 338.152 -4.0559 -4.41879 0
M  V30 3568 H 339.831 -4.64401 -4.50489 0
M  V30 3569 N 339.963 1.05934 -1.16686 0
M  V30 3570 C 341.212 1.78188 -0.945085 0
M  V30 3571 C 341.525 1.88338 0.528021 0
M  V30 3572 O 342.731 2.57258 0.867799 0
M  V30 3573 C 341.187 3.20277 -1.64167 0
M  V30 3574 C 340.795 3.18281 -3.15279 0
M  V30 3575 C 342.539 3.97039 -1.502 0
M  V30 3576 C 340.446 4.55112 -3.7766 0
M  V30 3577 H 339.376 0.667866 -0.349959 0
M  V30 3578 H 342.027 1.18794 -1.39858 0
M  V30 3579 H 340.409 3.79952 -1.11589 0
M  V30 3580 H 341.583 2.68167 -3.74731 0
M  V30 3581 H 339.898 2.55018 -3.29173 0
M  V30 3582 H 342.495 4.98194 -1.94183 0
M  V30 3583 H 342.838 4.13845 -0.451461 0
M  V30 3584 H 343.371 3.43894 -1.99954 0
M  V30 3585 H 340.11 4.43512 -4.82677 0
M  V30 3586 H 339.63 5.05406 -3.22994 0
M  V30 3587 H 341.309 5.24064 -3.79428 0
M  V30 3588 N 341.441 0.965919 1.2453 0
M  V30 3589 C 342.388 0.49402 2.25451 0
M  V30 3590 C 343.358 -0.45948 1.59618 0
M  V30 3591 O 344.543 -0.370238 1.87173 0
M  V30 3592 C 341.683 -0.211359 3.44452 0
M  V30 3593 C 340.796 0.7807 4.24887 0
M  V30 3594 C 339.931 0.0516105 5.31175 0
M  V30 3595 C 338.97 1.03385 6.03306 0
M  V30 3596 N 338.107 0.334887 7.01301 0
M  V30 3597 H 342.947 1.35946 2.65184 0
M  V30 3598 H 340.484 0.681515 1.3036 0
M  V30 3599 H 342.442 -0.637 4.12308 0
M  V30 3600 H 341.072 -1.04077 3.05562 0
M  V30 3601 H 340.124 1.32479 3.56586 0
M  V30 3602 H 341.436 1.52978 4.74762 0
M  V30 3603 H 340.59 -0.432114 6.05159 0
M  V30 3604 H 339.329 -0.730179 4.82203 0
M  V30 3605 H 338.334 1.52847 5.28127 0
M  V30 3606 H 339.559 1.81606 6.54367 0
M  V30 3607 H 337.505 -0.427959 6.54603 0
M  V30 3608 H 337.422 1.02287 7.49048 0
M  V30 3609 H 338.69 -0.126928 7.79397 0
M  V30 3610 N 342.919 -1.39368 0.735821 0
M  V30 3611 C 344.167 -2.00101 0.283562 0
M  V30 3612 C 344.488 -1.5868 -1.13338 0
M  V30 3613 O 343.758 -0.835423 -1.77193 0
M  V30 3614 H 342.338 -0.740024 0.101851 0
M  V30 3615 H 345 -1.70404 0.945962 0
M  V30 3616 H 344.096 -3.10323 0.332604 0
M  V30 3617 N 344.397 -0.483516 -1.5 0
M  V30 3618 C 345.344 0.304164 -2.28787 0
M  V30 3619 C 346.314 0.976114 -1.34392 0
M  V30 3620 O 347.499 0.986156 -1.63339 0
M  V30 3621 C 344.639 1.37298 -3.16612 0
M  V30 3622 C 343.752 0.714561 -4.26049 0
M  V30 3623 C 342.887 1.76232 -5.01114 0
M  V30 3624 C 341.926 1.08483 -6.0241 0
M  V30 3625 N 341.063 2.076 -6.70706 0
M  V30 3626 H 345.903 -0.373981 -2.95644 0
M  V30 3627 H 343.44 -0.196275 -1.45785 0
M  V30 3628 H 345.398 2.00445 -3.65893 0
M  V30 3629 H 344.028 2.02012 -2.51776 0
M  V30 3630 H 343.08 -0.0297798 -3.80388 0
M  V30 3631 H 344.392 0.180383 -4.98474 0
M  V30 3632 H 343.546 2.46929 -5.54176 0
M  V30 3633 H 342.285 2.33033 -4.28424 0
M  V30 3634 H 341.29 0.363545 -5.48597 0
M  V30 3635 H 342.515 0.523551 -6.77079 0
M  V30 3636 H 340.461 2.63394 -6.00799 0
M  V30 3637 H 340.378 1.59201 -7.39047 0
M  V30 3638 H 341.646 2.77639 -7.2838 0
M  V30 3639 N 345.875 1.56104 -0.216619 0
M  V30 3640 C 347.105 2.02269 0.420802 0
M  V30 3641 C 347.513 1.09575 1.5424 0
M  V30 3642 O 346.856 0.0967308 1.83445 0
M  V30 3643 C 346.918 3.44784 1.01806 0
M  V30 3644 C 346.582 4.56988 0.0325154 0
M  V30 3645 C 347.579 5.14225 -0.766055 0
M  V30 3646 C 345.264 5.02228 -0.0848092 0
M  V30 3647 C 347.258 6.15169 -1.6687 0
M  V30 3648 C 344.945 6.03011 -0.990994 0
M  V30 3649 C 345.943 6.59357 -1.78149 0
M  V30 3650 O 345.631 7.58179 -2.67245 0
M  V30 3651 H 345.363 0.667353 0.107776 0
M  V30 3652 H 347.917 2.02747 -0.329034 0
M  V30 3653 H 346.147 3.41359 1.81689 0
M  V30 3654 H 347.836 3.74626 1.56237 0
M  V30 3655 H 348.602 4.80126 -0.685836 0
M  V30 3656 H 344.481 4.58054 0.520349 0
M  V30 3657 H 348.025 6.59076 -2.28615 0
M  V30 3658 H 343.922 6.36532 -1.07225 0
M  V30 3659 H 344.69 7.75682 -2.61265 0
M  V30 3660 N 347.353 -0.0568162 1.57498 0
M  V30 3661 C 348.3 -1.06591 2.04712 0
M  V30 3662 C 349.27 -1.3758 0.930644 0
M  V30 3663 O 350.455 -1.48392 1.19935 0
M  V30 3664 C 347.595 -2.3701 2.50839 0
M  V30 3665 C 346.708 -2.12421 3.76167 0
M  V30 3666 C 345.843 -3.36511 4.11015 0
M  V30 3667 C 344.882 -3.07353 5.2934 0
M  V30 3668 N 344.019 -4.23816 5.59754 0
M  V30 3669 H 348.859 -0.65631 2.90683 0
M  V30 3670 H 346.396 -0.312481 1.43743 0
M  V30 3671 H 348.354 -3.13175 2.7564 0
M  V30 3672 H 346.984 -2.75744 1.67825 0
M  V30 3673 H 346.036 -1.2688 3.58616 0
M  V30 3674 H 347.348 -1.86894 4.62463 0
M  V30 3675 H 346.502 -4.21062 4.36797 0
M  V30 3676 H 345.241 -3.65128 3.23315 0
M  V30 3677 H 344.246 -2.212 5.03339 0
M  V30 3678 H 345.471 -2.80043 6.1867 0
M  V30 3679 H 343.417 -4.52436 4.75014 0
M  V30 3680 H 343.334 -4.01614 6.40501 0
M  V30 3681 H 344.602 -5.0932 5.90096 0
M  V30 3682 N 348.832 -1.54138 -0.328536 0
M  V30 3683 C 349.765 -1.78014 -1.4278 0
M  V30 3684 C 350.743 -0.629889 -1.49904 0
M  V30 3685 O 351.927 -0.866763 -1.6739 0
M  V30 3686 C 349.054 -1.89225 -2.80912 0
M  V30 3687 C 348.1 -3.11483 -2.91343 0
M  V30 3688 S 348.933 -4.70201 -2.56263 0
M  V30 3689 C 350.089 -4.84312 -3.96476 0
M  V30 3690 H 350.322 -2.70974 -1.22313 0
M  V30 3691 H 347.855 -1.45197 -0.525084 0
M  V30 3692 H 349.813 -1.9637 -3.60485 0
M  V30 3693 H 348.474 -0.972518 -2.98665 0
M  V30 3694 H 347.667 -3.16046 -3.92595 0
M  V30 3695 H 347.269 -3.02642 -2.19736 0
M  V30 3696 H 349.561 -4.66643 -4.91173 0
M  V30 3697 H 350.504 -5.86411 -3.96898 0
M  V30 3698 H 350.912 -4.12652 -3.85199 0
M  V30 3699 N 350.31 0.590341 -1.46126 0
M  V30 3700 C 351.258 1.72105 -1.5647 0
M  V30 3701 C 352.252 1.63756 -0.433612 0
M  V30 3702 O 353.458 1.69342 -0.610194 0
M  V30 3703 H 349.833 0.568889 -0.491802 0
M  V30 3704 H 351.804 1.6051 -2.51553 0
M  V30 3705 C 350.553 3.10493 -1.56491 0
M  V30 3706 H 349.876 3.17583 -2.4286 0
M  V30 3707 H 351.316 3.8939 -1.67785 0
M  V30 3708 C 349.775 3.3563 -0.292231 0
M  V30 3709 O 350.305 3.96875 0.620739 0
M  V30 3710 N 348.511 2.90026 -0.182523 0
M  V30 3711 H 348.058 2.40367 -0.926356 0
M  V30 3712 H 348.016 3.07218 0.668152 0
M  V30 3713 N 351.788 1.33704 0.83433 0
M  V30 3714 C 353.199 1.22813 1.4062 0
M  V30 3715 C 353.55 -0.151107 1.95617 0
M  V30 3716 O 352.675 -1.05092 1.89168 0
M  V30 3717 C 353.27 2.22355 2.55624 0
M  V30 3718 C 351.829 2.1529 3.08751 0
M  V30 3719 C 350.976 2.09589 1.8157 0
M  V30 3720 H 353.927 1.45236 0.639702 0
M  V30 3721 H 353.948 1.83391 3.33389 0
M  V30 3722 H 353.46 3.22728 2.15566 0
M  V30 3723 H 351.561 1.18235 3.53343 0
M  V30 3724 H 351.674 3.06038 3.68616 0
M  V30 3725 H 350.038 1.55134 2.02004 0
M  V30 3726 H 350.821 3.11777 1.43701 0
M  V30 3727 N 353.266 -1.05314 1.17247 0
M  V30 3728 C 354.682 -1.30452 0.919473 0
M  V30 3729 C 354.882 -1.9703 -0.42209 0
M  V30 3730 O 353.938 -2.24311 -1.15935 0
M  V30 3731 C 355.251 -2.17551 2.07586 0
M  V30 3732 C 356.799 -2.30937 2.11275 0
M  V30 3733 C 357.274 -3.21396 3.26296 0
M  V30 3734 N 358.765 -3.28981 3.26076 0
M  V30 3735 C 359.5 -3.99095 4.11716 0
M  V30 3736 N 358.996 -4.71648 5.07465 0
M  V30 3737 N 360.789 -3.95247 3.9967 0
M  V30 3738 H 352.94 -0.604988 2.03602 0
M  V30 3739 H 355.203 -0.329368 0.888944 0
M  V30 3740 H 354.909 -1.75921 3.0454 0
M  V30 3741 H 354.783 -3.18182 2.02584 0
M  V30 3742 H 357.17 -2.71809 1.14907 0
M  V30 3743 H 357.251 -1.2994 2.20339 0
M  V30 3744 H 356.895 -2.81238 4.22927 0
M  V30 3745 H 356.825 -4.22395 3.14467 0
M  V30 3746 H 359.316 -2.77286 2.5675 0
M  V30 3747 H 359.629 -5.22705 5.6921 0
M  V30 3748 H 357.974 -4.70594 5.11435 0
M  V30 3749 H 361.165 -3.37691 3.24164 0
M  V30 3750 H 361.338 -4.4962 4.66632 0
M  V30 3751 N 354.744 -0.972509 -1.24016 0
M  V30 3752 C 355.676 -0.464375 -2.24446 0
M  V30 3753 C 356.689 0.4295 -1.57032 0
M  V30 3754 O 357.878 0.234902 -1.76948 0
M  V30 3755 C 354.978 0.348385 -3.37105 0
M  V30 3756 C 354.151 -0.53673 -4.34094 0
M  V30 3757 C 353.21 0.220838 -5.25736 0
M  V30 3758 O 352.236 -0.386867 -5.67884 0
M  V30 3759 N 353.438 1.50907 -5.60542 0
M  V30 3760 H 356.203 -1.32788 -2.68677 0
M  V30 3761 H 353.764 -0.844877 -1.38107 0
M  V30 3762 H 355.756 0.863341 -3.95384 0
M  V30 3763 H 354.326 1.11285 -2.92121 0
M  V30 3764 H 353.546 -1.23261 -3.74433 0
M  V30 3765 H 354.834 -1.14022 -4.95859 0
M  V30 3766 H 354.232 2.02444 -5.28236 0
M  V30 3767 H 352.789 1.96962 -6.21329 0
M  V30 3768 N 356.222 1.38976 -0.743202 0
M  V30 3769 C 357.468 2.01114 -0.304109 0
M  V30 3770 C 357.823 1.57929 1.09892 0
M  V30 3771 O 357.116 0.801983 1.74008 0
M  V30 3772 C 357.31 3.55647 -0.353517 0
M  V30 3773 C 357.139 4.13837 -1.75981 0
M  V30 3774 C 355.909 4.46062 -2.37395 0
M  V30 3775 C 358.107 4.36812 -2.71477 0
M  V30 3776 N 356.089 4.898 -3.70093 0
M  V30 3777 C 357.46 4.82844 -3.88923 0
M  V30 3778 C 359.515 4.18893 -2.69134 0
M  V30 3779 C 358.218 5.12837 -5.04371 0
M  V30 3780 C 360.244 4.50005 -3.83731 0
M  V30 3781 C 359.606 4.96251 -4.99914 0
M  V30 3782 H 355.705 0.765931 -0.157716 0
M  V30 3783 H 358.289 1.68763 -0.970931 0
M  V30 3784 H 356.46 3.87368 0.282987 0
M  V30 3785 H 358.192 4.04564 0.104904 0
M  V30 3786 H 354.947 4.34145 -1.89248 0
M  V30 3787 H 355.371 5.16016 -4.38242 0
M  V30 3788 H 360.013 3.82335 -1.80499 0
M  V30 3789 H 357.731 5.48297 -5.9363 0
M  V30 3790 H 361.317 4.37755 -3.83225 0
M  V30 3791 H 360.197 5.19867 -5.87118 0
M  V30 3792 N 357.7 0.491464 1.49741 0
M  V30 3793 C 358.925 -0.0557177 2.07325 0
M  V30 3794 C 359.35 -1.30925 1.35056 0
M  V30 3795 O 358.708 -1.76733 0.404365 0
M  V30 3796 C 358.756 -0.302074 3.59333 0
M  V30 3797 O 357.86 -1.37868 3.88672 0
M  V30 3798 H 357.201 0.0219956 0.663636 0
M  V30 3799 H 359.731 0.688352 1.92673 0
M  V30 3800 H 359.741 -0.536464 4.04458 0
M  V30 3801 H 358.416 0.61383 4.11345 0
M  V30 3802 H 356.993 -1.12999 3.55367 0
M  V30 3803 N 359.178 -1.55987 0.224894 0
M  V30 3804 C 360.128 -2.17076 -0.697296 0
M  V30 3805 C 361.112 -1.12006 -1.15514 0
M  V30 3806 O 362.304 -1.37985 -1.10857 0
M  V30 3807 C 359.433 -2.85679 -1.90374 0
M  V30 3808 C 358.519 -3.97977 -1.46543 0
M  V30 3809 N 358.91 -5.00359 -0.739909 0
M  V30 3810 C 357.208 -4.10128 -1.75245 0
M  V30 3811 C 357.909 -5.79407 -0.515939 0
M  V30 3812 N 356.885 -5.32892 -1.07364 0
M  V30 3813 H 360.687 -2.93592 -0.134594 0
M  V30 3814 H 358.201 -1.62379 0.0262885 0
M  V30 3815 H 360.198 -3.27857 -2.57518 0
M  V30 3816 H 358.858 -2.1066 -2.47088 0
M  V30 3817 H 359.869 -5.16412 -0.392253 0
M  V30 3818 H 356.546 -3.46263 -2.33255 0
M  V30 3819 H 357.936 -6.71872 0.0617349 0
M  V30 3820 N 360.656 0.0484629 -1.57525 0
M  V30 3821 C 361.905 0.742065 -1.87553 0
M  V30 3822 C 362.218 1.77545 -0.820802 0
M  V30 3823 O 363.424 2.52027 -1.00967 0
M  V30 3824 C 361.88 1.37081 -3.32771 0
M  V30 3825 C 361.488 0.374786 -4.4643 0
M  V30 3826 C 363.232 2.04542 -3.71972 0
M  V30 3827 C 361.139 1.01077 -5.82698 0
M  V30 3828 H 360.069 0.280903 -0.699721 0
M  V30 3829 H 362.72 -0.00411877 -1.835 0
M  V30 3830 H 361.102 2.16605 -3.31509 0
M  V30 3831 H 362.276 -0.392331 -4.59127 0
M  V30 3832 H 360.591 -0.196653 -4.15935 0
M  V30 3833 H 363.188 2.52943 -4.71088 0
M  V30 3834 H 363.531 2.85515 -3.02964 0
M  V30 3835 H 364.064 1.31819 -3.75325 0
M  V30 3836 H 360.803 0.240878 -6.55057 0
M  V30 3837 H 360.323 1.74819 -5.73758 0
M  V30 3838 H 362.002 1.52383 -6.28799 0
M  V30 3839 N 362.134 1.5431 0.320358 0
M  V30 3840 C 363.359 1.76954 1.08175 0
M  V30 3841 C 363.784 0.518193 1.80821 0
M  V30 3842 O 363.142 -0.530411 1.73368 0
M  V30 3843 C 363.19 2.96451 2.05303 0
M  V30 3844 O 362.294 2.68221 3.13259 0
M  V30 3845 H 361.635 0.586275 0.311733 0
M  V30 3846 H 364.165 2.01342 0.363676 0
M  V30 3847 H 364.175 3.23887 2.48116 0
M  V30 3848 H 362.85 3.87196 1.51829 0
M  V30 3849 H 361.427 2.51744 2.75099 0
M  V30 3850 N 363.613 -0.582584 1.46437 0
M  V30 3851 C 364.523 -1.71949 1.59595 0
M  V30 3852 C 365.539 -1.67264 0.479443 0
M  V30 3853 O 366.715 -1.87171 0.743579 0
M  V30 3854 C 363.78 -3.08452 1.58298 0
M  V30 3855 C 362.841 -3.244 2.81182 0
M  V30 3856 C 362.074 -4.54391 2.79937 0
M  V30 3857 O 362.297 -5.38287 1.8869 0
M  V30 3858 O 361.231 -4.73588 3.71481 0
M  V30 3859 H 365.057 -1.63795 2.55744 0
M  V30 3860 H 362.642 -0.749643 1.29231 0
M  V30 3861 H 364.524 -3.89732 1.60271 0
M  V30 3862 H 363.199 -3.17043 0.653094 0
M  V30 3863 H 362.106 -2.42613 2.84763 0
M  V30 3864 H 363.439 -3.20699 3.7338 0
M  V30 3865 N 365.091 -1.34144 -0.827227 0
M  V30 3866 C 366.316 -1.29476 -1.62021 0
M  V30 3867 C 366.741 0.129292 -1.87655 0
M  V30 3868 O 366.099 1.08967 -1.449 0
M  V30 3869 C 366.147 -2.08702 -2.94068 0
M  V30 3870 O 365.251 -1.45359 -3.85933 0
M  V30 3871 H 364.592 -0.444881 -0.492927 0
M  V30 3872 H 367.122 -1.76882 -1.02829 0
M  V30 3873 H 367.132 -2.19898 -3.43669 0
M  V30 3874 H 365.807 -3.12241 -2.74734 0
M  V30 3875 H 364.384 -1.42879 -3.44442 0
M  V30 3876 N 366.569 1.04691 -1.17803 0
M  V30 3877 C 367.532 2.10724 -0.901545 0
M  V30 3878 C 368.532 1.6042 0.110437 0
M  V30 3879 O 369.722 1.7377 -0.122303 0
M  V30 3880 C 366.854 3.39084 -0.351409 0
M  V30 3881 H 368.047 2.36686 -1.84174 0
M  V30 3882 H 365.6 1.21015 -0.98919 0
M  V30 3883 H 366.335 3.18782 0.59569 0
M  V30 3884 H 366.12 3.76909 -1.08083 0
M  V30 3885 H 367.61 4.17227 -0.176451 0
M  V30 3886 N 368.047 0.979072 1.23499 0
M  V30 3887 C 368.994 0.517904 2.24914 0
M  V30 3888 C 369.964 -0.442525 1.60097 0
M  V30 3889 O 371.149 -0.350365 1.87556 0
M  V30 3890 C 368.289 -0.174813 3.44657 0
M  V30 3891 C 367.402 0.825721 4.24035 0
M  V30 3892 C 366.537 0.107946 5.3109 0
M  V30 3893 C 365.576 1.09778 6.02175 0
M  V30 3894 N 364.713 0.40925 7.00906 0
M  V30 3895 H 369.553 1.38751 2.63727 0
M  V30 3896 H 367.09 0.695303 1.2963 0
M  V30 3897 H 369.048 -0.593233 4.12961 0
M  V30 3898 H 367.678 -1.0083 3.06648 0
M  V30 3899 H 366.73 1.36253 3.55161 0
M  V30 3900 H 368.042 1.58005 4.73113 0
M  V30 3901 H 367.196 -0.367904 6.05583 0
M  V30 3902 H 365.935 -0.678994 4.8295 0
M  V30 3903 H 364.94 1.5844 5.26476 0
M  V30 3904 H 366.165 1.88536 6.52404 0
M  V30 3905 H 364.111 -0.358506 6.5502 0
M  V30 3906 H 364.028 1.10226 7.47921 0
M  V30 3907 H 365.296 -0.0442557 7.79487 0
M  V30 3908 N 369.525 -1.3858 0.750561 0
M  V30 3909 C 370.802 -1.94231 0.231009 0
M  V30 3910 C 371.182 -1.68611 -1.27018 0
M  V30 3911 O 370.53 -1.02296 -2.04323 0
M  V30 3912 C 370.74 -3.44123 0.581428 0
M  V30 3913 C 372.088 -4.2116 0.539389 0
M  V30 3914 O 373.112 -3.52391 0.519541 0
M  V30 3915 O 371.971 -5.43749 0.54765 0
M  V30 3916 H 369.065 -0.825639 0.0474263 0
M  V30 3917 H 371.611 -1.4799 0.830478 0
M  V30 3918 H 370.383 -3.56267 1.61833 0
M  V30 3919 H 370.006 -3.97573 -0.0462047 0
M  V30 3920 N 371.003 -0.499398 -1.49478 0
M  V30 3921 C 371.933 0.269244 -2.31943 0
M  V30 3922 C 372.914 0.964054 -1.40143 0
M  V30 3923 O 374.099 0.955767 -1.69052 0
M  V30 3924 C 371.229 1.33504 -3.20615 0
M  V30 3925 C 370.183 0.760202 -4.21195 0
M  V30 3926 C 369.509 1.9264 -4.98792 0
M  V30 3927 C 370.809 -0.247661 -5.21712 0
M  V30 3928 H 372.503 -0.419082 -2.96452 0
M  V30 3929 H 370.049 -0.202988 -1.42562 0
M  V30 3930 H 372.002 1.88048 -3.77115 0
M  V30 3931 H 370.726 2.05253 -2.54045 0
M  V30 3932 H 369.385 0.23653 -3.65836 0
M  V30 3933 H 369.033 2.63154 -4.28671 0
M  V30 3934 H 368.733 1.54785 -5.66847 0
M  V30 3935 H 370.257 2.4762 -5.58137 0
M  V30 3936 H 371.671 0.209579 -5.72917 0
M  V30 3937 H 370.068 -0.541962 -5.97648 0
M  V30 3938 H 371.138 -1.16409 -4.7072 0
M  V30 3939 N 372.481 1.55866 -0.233164 0
M  V30 3940 C 373.727 1.98897 0.395959 0
M  V30 3941 C 374.06 1.12091 1.58585 0
M  V30 3942 O 373.335 0.181182 1.93654 0
M  V30 3943 C 373.618 3.50658 0.819224 0
M  V30 3944 C 373.471 4.48233 -0.375109 0
M  V30 3945 C 374.79 4.07135 1.67121 0
M  V30 3946 H 371.909 0.723102 0.142451 0
M  V30 3947 H 374.551 1.87082 -0.331725 0
M  V30 3948 H 372.701 3.60857 1.43925 0
M  V30 3949 H 374.373 4.50031 -1.01341 0
M  V30 3950 H 372.616 4.21624 -1.02058 0
M  V30 3951 H 373.287 5.51988 -0.0358328 0
M  V30 3952 H 375.763 3.99952 1.14795 0
M  V30 3953 H 374.639 5.13615 1.93625 0
M  V30 3954 H 374.9 3.54736 2.63846 0
M  V30 3955 N 373.959 -0.0401083 1.57549 0
M  V30 3956 C 375.375 -0.395556 1.54621 0
M  V30 3957 C 375.575 -1.77281 0.957799 0
M  V30 3958 O 374.631 -2.45888 0.574031 0
M  V30 3959 C 375.944 -0.307535 2.99123 0
M  V30 3960 C 377.492 -0.385425 3.10618 0
M  V30 3961 C 377.967 -0.326973 4.56831 0
M  V30 3962 N 379.458 -0.386102 4.61588 0
M  V30 3963 C 380.193 -0.363591 5.72246 0
M  V30 3964 N 379.689 -0.29402 6.92176 0
M  V30 3965 N 381.482 -0.412503 5.60584 0
M  V30 3966 H 373.633 0.861325 1.94152 0
M  V30 3967 H 375.896 0.326445 0.890021 0
M  V30 3968 H 375.602 0.638461 3.45856 0
M  V30 3969 H 375.476 -1.10552 3.60636 0
M  V30 3970 H 377.863 -1.32185 2.63839 0
M  V30 3971 H 377.944 0.44171 2.51957 0
M  V30 3972 H 377.588 0.605738 5.04275 0
M  V30 3973 H 377.518 -1.17207 5.13391 0
M  V30 3974 H 380.009 -0.442832 3.75296 0
M  V30 3975 H 380.322 -0.28164 7.72287 0
M  V30 3976 H 378.667 -0.260232 6.94513 0
M  V30 3977 H 381.858 -0.464769 4.65787 0
M  V30 3978 H 382.031 -0.391492 6.46816 0
M  V30 3979 N 375.437 -1.54477 -0.31217 0
M  V30 3980 C 376.853 -1.45442 -0.657185 0
M  V30 3981 C 377.053 -0.63653 -1.91182 0
M  V30 3982 O 376.109 -0.139815 -2.52113 0
M  V30 3983 C 377.422 -2.89287 -0.82058 0
M  V30 3984 C 378.97 -2.9926 -0.917188 0
M  V30 3985 C 379.445 -4.44279 -1.11267 0
M  V30 3986 N 380.936 -4.4794 -1.17914 0
M  V30 3987 C 381.671 -5.57318 -1.34848 0
M  V30 3988 N 381.167 -6.76642 -1.48752 0
M  V30 3989 N 382.96 -5.44986 -1.37647 0
M  V30 3990 H 375.111 -2.06129 0.512313 0
M  V30 3991 H 377.374 -0.933088 0.167485 0
M  V30 3992 H 377.08 -3.51687 0.0302604 0
M  V30 3993 H 376.954 -3.36061 -1.71298 0
M  V30 3994 H 379.341 -2.36981 -1.75852 0
M  V30 3995 H 379.422 -2.558 -0.00101257 0
M  V30 3996 H 379.066 -5.07149 -0.27614 0
M  V30 3997 H 378.996 -4.85359 -2.04289 0
M  V30 3998 H 381.487 -3.61969 -1.08567 0
M  V30 3999 H 381.8 -7.55758 -1.61397 0
M  V30 4000 H 380.145 -6.79529 -1.45828 0
M  V30 4001 H 383.336 -4.50715 -1.26388 0
M  V30 4002 H 383.509 -6.3028 -1.50501 0
M  V30 4003 N 376.915 0.57481 -1.46744 0
M  V30 4004 C 377.848 1.69827 -1.52427 0
M  V30 4005 C 378.826 1.58151 -0.377744 0
M  V30 4006 O 380.01 1.79257 -0.58303 0
M  V30 4007 C 377.137 3.07943 -1.41027 0
M  V30 4008 C 376.183 3.38116 -2.59961 0
M  V30 4009 S 377.016 3.29313 -4.22272 0
M  V30 4010 C 378.172 4.69953 -4.13394 0
M  V30 4011 H 378.405 1.64748 -2.47478 0
M  V30 4012 H 375.938 0.754203 -1.34726 0
M  V30 4013 H 377.896 3.87619 -1.35137 0
M  V30 4014 H 376.557 3.10504 -0.473909 0
M  V30 4015 H 375.75 4.38762 -2.47999 0
M  V30 4016 H 375.352 2.66024 -2.62882 0
M  V30 4017 H 377.644 5.60517 -3.80562 0
M  V30 4018 H 378.587 4.86972 -5.14066 0
M  V30 4019 H 378.995 4.47174 -3.44522 0
M  V30 4020 N 378.394 1.34581 0.820102 0
M  V30 4021 C 379.324 1.29038 1.94606 0
M  V30 4022 C 380.305 0.1673 1.69275 0
M  V30 4023 O 381.49 0.360112 1.90832 0
M  V30 4024 C 378.62 1.04793 3.31113 0
M  V30 4025 C 377.574 2.13597 3.70891 0
M  V30 4026 C 376.9 1.74537 5.05412 0
M  V30 4027 C 378.2 3.55451 3.8269 0
M  V30 4028 H 379.894 2.23248 1.99501 0
M  V30 4029 H 377.44 1.0747 0.958449 0
M  V30 4030 H 379.393 0.995592 4.0947 0
M  V30 4031 H 378.117 0.0702565 3.26524 0
M  V30 4032 H 376.776 2.17905 2.9481 0
M  V30 4033 H 376.424 0.754226 4.97313 0
M  V30 4034 H 376.124 2.47361 5.32997 0
M  V30 4035 H 377.648 1.70803 5.86224 0
M  V30 4036 H 379.062 3.5354 4.51312 0
M  V30 4037 H 377.459 4.26922 4.21732 0
M  V30 4038 H 378.529 3.92587 2.84611 0
M  V30 4039 N 379.872 -1.04064 1.18357 0
M  V30 4040 C 380.805 -2.11618 0.854 0
M  V30 4041 C 381.783 -1.61555 -0.184043 0
M  V30 4042 O 382.967 -1.88395 -0.0630048 0
M  V30 4043 C 380.094 -3.37574 0.27597 0
M  V30 4044 C 379.14 -4.06485 1.2912 0
M  V30 4045 S 379.973 -4.53543 2.84709 0
M  V30 4046 C 381.129 -5.82732 2.28417 0
M  V30 4047 H 381.362 -2.39247 1.76488 0
M  V30 4048 H 378.895 -1.16832 1.00944 0
M  V30 4049 H 380.853 -4.10468 -0.051026 0
M  V30 4050 H 379.514 -3.0806 -0.613028 0
M  V30 4051 H 378.707 -4.97024 0.835633 0
M  V30 4052 H 378.309 -3.39708 1.56443 0
M  V30 4053 H 380.601 -6.56677 1.66677 0
M  V30 4054 H 381.544 -6.33052 3.17256 0
M  V30 4055 H 381.952 -5.37838 1.71436 0
M  V30 4056 N 381.35 -0.985608 -1.22978 0
M  V30 4057 C 382.28 -0.549649 -2.26939 0
M  V30 4058 C 383.261 0.419803 -1.64838 0
M  V30 4059 O 384.446 0.31203 -1.91677 0
M  V30 4060 C 381.576 0.143652 -3.47003 0
M  V30 4061 C 380.53 -0.743606 -4.21491 0
M  V30 4062 C 379.856 0.0822027 -5.34637 0
M  V30 4063 C 381.156 -2.03694 -4.80943 0
M  V30 4064 H 382.85 -1.41862 -2.63658 0
M  V30 4065 H 380.396 -0.683571 -1.26741 0
M  V30 4066 H 382.349 0.459985 -4.18882 0
M  V30 4067 H 381.073 1.04711 -3.09359 0
M  V30 4068 H 379.732 -1.04347 -3.51436 0
M  V30 4069 H 379.38 0.986359 -4.93234 0
M  V30 4070 H 379.08 -0.508377 -5.85397 0
M  V30 4071 H 380.604 0.392797 -6.09335 0
M  V30 4072 H 382.018 -1.78504 -5.44802 0
M  V30 4073 H 380.415 -2.57573 -5.42011 0
M  V30 4074 H 381.485 -2.72042 -4.01399 0
M  V30 4075 N 382.828 1.3818 -0.7579 0
M  V30 4076 C 384.105 1.94106 -0.241306 0
M  V30 4077 C 384.485 1.69282 1.26122 0
M  V30 4078 O 383.833 1.03378 2.03777 0
M  V30 4079 C 384.043 3.43809 -0.59967 0
M  V30 4080 C 385.391 4.20868 -0.561717 0
M  V30 4081 O 386.415 3.5211 -0.538222 0
M  V30 4082 O 385.274 5.43451 -0.576478 0
M  V30 4083 H 382.368 0.825376 -0.0518042 0
M  V30 4084 H 384.914 1.47548 -0.838315 0
M  V30 4085 H 383.686 3.55403 -1.6372 0
M  V30 4086 H 383.309 3.97592 0.0251197 0
M  V30 4087 N 384.306 0.507319 1.49211 0
M  V30 4088 C 385.717 0.0611118 1.866 0
M  V30 4089 C 386.068 -1.35488 1.41907 0
M  V30 4090 O 385.193 -2.0108 0.799726 0
M  V30 4091 C 385.788 0.104125 3.3864 0
M  V30 4092 C 384.347 -0.28677 3.75306 0
M  V30 4093 C 383.494 0.473893 2.73221 0
M  V30 4094 H 386.445 0.719775 1.41439 0
M  V30 4095 H 386.466 -0.689672 3.74198 0
M  V30 4096 H 385.978 1.13482 3.71138 0
M  V30 4097 H 384.079 -1.32046 3.48417 0
M  V30 4098 H 384.192 0.0370745 4.79086 0
M  V30 4099 H 382.556 -0.0770644 2.54583 0
M  V30 4100 H 383.339 1.50478 3.08563 0
M  V30 4101 N 385.784 -1.5574 0.241426 0
M  V30 4102 C 386.747 -2.19877 -0.647063 0
M  V30 4103 C 387.747 -1.16642 -1.10686 0
M  V30 4104 O 388.937 -1.41757 -1.01245 0
M  V30 4105 C 386.069 -2.83797 -1.88871 0
M  V30 4106 H 387.262 -2.99772 -0.087574 0
M  V30 4107 H 384.815 -1.56298 -0.00813574 0
M  V30 4108 H 385.55 -2.07824 -2.48957 0
M  V30 4109 H 385.335 -3.59414 -1.56728 0
M  V30 4110 H 386.825 -3.32898 -2.52129 0
M  V30 4111 N 387.262 0.0317525 -1.57568 0
M  V30 4112 C 388.172 1.05021 -2.0978 0
M  V30 4113 C 389.188 1.39809 -1.03583 0
M  V30 4114 O 390.364 1.49182 -1.35302 0
M  V30 4115 C 387.429 2.33301 -2.56459 0
M  V30 4116 C 386.49 2.0512 -3.77127 0
M  V30 4117 C 385.723 3.27283 -4.2157 0
M  V30 4118 O 385.946 4.37861 -3.65559 0
M  V30 4119 O 384.88 3.13141 -5.14029 0
M  V30 4120 H 388.706 0.636505 -2.96955 0
M  V30 4121 H 386.291 0.248559 -1.47318 0
M  V30 4122 H 388.173 3.08722 -2.86825 0
M  V30 4123 H 386.848 2.73973 -1.72397 0
M  V30 4124 H 385.755 1.27276 -3.51784 0
M  V30 4125 H 387.088 1.69305 -4.62165 0
M  V30 4126 N 388.74 1.54641 0.303973 0
M  V30 4127 C 390.156 1.45788 0.649463 0
M  V30 4128 C 390.356 0.64666 1.90842 0
M  V30 4129 O 389.412 0.153183 2.52035 0
M  V30 4130 C 390.725 2.89718 0.805227 0
M  V30 4131 C 392.273 2.99742 0.901305 0
M  V30 4132 C 392.748 4.44863 1.08909 0
M  V30 4133 N 394.239 4.48559 1.15536 0
M  V30 4134 C 394.974 5.58026 1.3189 0
M  V30 4135 N 394.47 6.77422 1.45161 0
M  V30 4136 N 396.263 5.45708 1.34755 0
M  V30 4137 H 388.414 2.05854 -0.523237 0
M  V30 4138 H 390.677 0.932186 -0.172431 0
M  V30 4139 H 390.383 3.51666 -0.0489108 0
M  V30 4140 H 390.257 3.36964 1.69513 0
M  V30 4141 H 392.644 2.3791 1.74593 0
M  V30 4142 H 392.725 2.55797 -0.0125531 0
M  V30 4143 H 392.369 5.07288 0.249241 0
M  V30 4144 H 392.299 4.86436 2.01713 0
M  V30 4145 H 394.79 3.6254 1.06646 0
M  V30 4146 H 395.103 7.56604 1.57387 0
M  V30 4147 H 393.448 6.80292 1.42223 0
M  V30 4148 H 396.639 4.51378 1.23996 0
M  V30 4149 H 396.812 6.3107 1.47157 0
M  V30 4150 N 390.218 -0.567019 1.47046 0
M  V30 4151 C 391.467 -1.32091 1.5243 0
M  V30 4152 C 391.78 -1.94704 0.187021 0
M  V30 4153 O 392.986 -2.7124 0.118771 0
M  V30 4154 C 391.442 -2.39479 2.68659 0
M  V30 4155 C 391.05 -1.831 4.08874 0
M  V30 4156 C 392.794 -3.16111 2.83327 0
M  V30 4157 C 390.701 -2.8821 5.16419 0
M  V30 4158 H 389.631 -0.496629 0.56734 0
M  V30 4159 H 392.282 -0.603354 1.73297 0
M  V30 4160 H 390.664 -3.14105 2.41152 0
M  V30 4161 H 391.838 -1.14913 4.46242 0
M  V30 4162 H 390.153 -1.19085 3.99008 0
M  V30 4163 H 392.75 -3.94585 3.60842 0
M  V30 4164 H 393.093 -3.69686 1.91411 0
M  V30 4165 H 393.626 -2.48595 3.10556 0
M  V30 4166 H 390.365 -2.39504 6.10179 0
M  V30 4167 H 389.885 -3.54839 4.8358 0
M  V30 4168 H 391.564 -3.51881 5.42945 0
M  V30 4169 N 391.696 -1.35014 -0.812953 0
M  V30 4170 C 392.924 -1.31031 -1.6012 0
M  V30 4171 C 393.339 0.113558 -1.88458 0
M  V30 4172 O 392.696 1.06363 -1.48301 0
M  V30 4173 C 392.747 -2.10872 -2.93624 0
M  V30 4174 O 392.468 -3.47706 -2.66518 0
M  V30 4175 C 393.969 -2.14401 -3.88004 0
M  V30 4176 H 391.189 -0.45037 -0.497401 0
M  V30 4177 H 393.733 -1.77775 -1.01076 0
M  V30 4178 H 391.888 -1.67744 -3.492 0
M  V30 4179 H 392.302 -3.89097 -3.51715 0
M  V30 4180 H 393.776 -2.74669 -4.78812 0
M  V30 4181 H 394.253 -1.14105 -4.24119 0
M  V30 4182 H 394.859 -2.57662 -3.38364 0
M  V30 4183 N 393.175 1.03435 -1.18907 0
M  V30 4184 C 394.421 1.77005 -0.989798 0
M  V30 4185 C 394.754 1.88205 0.478816 0
M  V30 4186 O 394.029 1.39481 1.35556 0
M  V30 4187 C 394.312 3.19925 -1.65287 0
M  V30 4188 C 394.165 3.1663 -3.19477 0
M  V30 4189 C 395.484 4.18189 -1.37134 0
M  V30 4190 H 392.603 0.642538 -0.360991 0
M  V30 4191 H 395.245 1.20784 -1.46667 0
M  V30 4192 H 393.395 3.67929 -1.24741 0
M  V30 4193 H 395.067 2.76567 -3.692 0
M  V30 4194 H 393.31 2.54491 -3.51307 0
M  V30 4195 H 393.981 4.1758 -3.61013 0
M  V30 4196 H 396.457 3.78761 -1.72276 0
M  V30 4197 H 395.333 5.16394 -1.86087 0
M  V30 4198 H 395.594 4.41112 -0.295424 0
M  V30 4199 N 394.653 0.992116 1.22453 0
M  V30 4200 C 395.883 0.684949 1.94915 0
M  V30 4201 C 396.291 -0.754292 1.73514 0
M  V30 4202 O 395.634 -1.52056 1.03076 0
M  V30 4203 C 395.696 0.910054 3.47791 0
M  V30 4204 C 395.36 2.33363 3.92926 0
M  V30 4205 C 396.357 3.31308 4.00663 0
M  V30 4206 C 394.042 2.66785 4.25595 0
M  V30 4207 C 396.036 4.6075 4.40441 0
M  V30 4208 C 393.723 3.96446 4.65053 0
M  V30 4209 C 394.721 4.9324 4.72444 0
M  V30 4210 O 394.409 6.20584 5.1101 0
M  V30 4211 H 394.141 0.25258 0.62704 0
M  V30 4212 H 396.695 1.32939 1.56577 0
M  V30 4213 H 394.925 0.208443 3.86138 0
M  V30 4214 H 396.614 0.598257 4.01467 0
M  V30 4215 H 397.38 3.0682 3.75615 0
M  V30 4216 H 393.259 1.92148 4.19047 0
M  V30 4217 H 396.803 5.363 4.46126 0
M  V30 4218 H 392.7 4.20724 4.89552 0
M  V30 4219 H 393.468 6.24509 5.29085 0
M  V30 4220 N 396.131 -1.37776 0.765217 0
M  V30 4221 C 397.041 -2.34135 0.147666 0
M  V30 4222 C 398.057 -1.59854 -0.687215 0
M  V30 4223 O 399.233 -1.91983 -0.608659 0
M  V30 4224 C 396.298 -3.3901 -0.72617 0
M  V30 4225 C 395.359 -4.2912 0.124417 0
M  V30 4226 C 394.592 -5.28986 -0.707807 0
M  V30 4227 O 394.815 -5.36205 -1.94525 0
M  V30 4228 O 393.749 -6.01779 -0.12046 0
M  V30 4229 H 397.575 -2.88664 0.943758 0
M  V30 4230 H 395.16 -1.39824 0.526277 0
M  V30 4231 H 397.042 -4.03195 -1.22524 0
M  V30 4232 H 395.717 -2.86819 -1.50056 0
M  V30 4233 H 394.624 -3.68057 0.669696 0
M  V30 4234 H 395.957 -4.84598 0.861736 0
M  V30 4235 N 397.609 -0.515225 -1.4894 0
M  V30 4236 C 398.572 0.244681 -2.2789 0
M  V30 4237 C 399.572 0.881166 -1.34507 0
M  V30 4238 O 400.762 0.743497 -1.57537 0
M  V30 4239 C 397.894 1.35247 -3.12923 0
M  V30 4240 H 399.087 -0.448289 -2.96531 0
M  V30 4241 H 396.64 -0.270656 -1.53939 0
M  V30 4242 H 397.375 2.07916 -2.48881 0
M  V30 4243 H 397.16 0.901374 -3.81599 0
M  V30 4244 H 398.65 1.88737 -3.72516 0
M  V30 4245 N 399.087 1.5561 -0.249682 0
M  V30 4246 C 400.017 2.24477 0.642826 0
M  V30 4247 C 400.998 1.22601 1.17911 0
M  V30 4248 O 402.183 1.5126 1.21795 0
M  V30 4249 C 399.313 2.94638 1.83863 0
M  V30 4250 C 398.267 4.03227 1.435 0
M  V30 4251 C 397.593 4.60828 2.71186 0
M  V30 4252 C 398.893 5.18796 0.604002 0
M  V30 4253 H 400.587 2.99321 0.0685625 0
M  V30 4254 H 398.133 1.43965 0.0315363 0
M  V30 4255 H 400.086 3.41517 2.46868 0
M  V30 4256 H 398.81 2.17287 2.43832 0
M  V30 4257 H 397.469 3.57121 0.828275 0
M  V30 4258 H 397.117 3.80174 3.29358 0
M  V30 4259 H 396.817 5.34132 2.44901 0
M  V30 4260 H 398.341 5.10442 3.35084 0
M  V30 4261 H 399.755 5.61883 1.13842 0
M  V30 4262 H 398.152 5.98506 0.437097 0
M  V30 4263 H 399.222 4.83384 -0.383147 0
M  V30 4264 N 400.565 -0.0233959 1.57583 0
M  V30 4265 C 401.513 -1.04063 2.08023 0
M  V30 4266 C 402.507 -1.37084 0.995204 0
M  V30 4267 O 403.713 -1.35923 1.18004 0
M  V30 4268 H 400.088 -0.353144 0.663922 0
M  V30 4269 H 402.059 -0.589453 2.9252 0
M  V30 4270 C 400.808 -2.33123 2.57971 0
M  V30 4271 H 400.131 -2.08577 3.4108 0
M  V30 4272 H 401.571 -3.02632 2.96967 0
M  V30 4273 C 400.03 -3.02483 1.48342 0
M  V30 4274 O 400.56 -3.92541 0.852898 0
M  V30 4275 N 398.766 -2.63909 1.21658 0
M  V30 4276 H 398.313 -1.90758 1.73116 0
M  V30 4277 H 398.271 -3.10633 0.485218 0
M  V30 4278 N 402.043 -1.548 -0.295768 0
M  V30 4279 C 402.993 -1.82497 -1.3667 0
M  V30 4280 C 403.977 -0.682434 -1.45711 0
M  V30 4281 O 405.169 -0.943207 -1.49775 0
M  V30 4282 C 402.298 -2.08036 -2.73086 0
M  V30 4283 C 401.384 -3.28488 -2.68247 0
M  V30 4284 N 401.775 -4.48924 -2.33025 0
M  V30 4285 C 400.073 -3.3062 -2.99343 0
M  V30 4286 C 400.774 -5.30956 -2.37613 0
M  V30 4287 N 399.75 -4.68805 -2.75178 0
M  V30 4288 H 403.552 -2.73175 -1.0841 0
M  V30 4289 H 401.066 -1.5437 -0.504361 0
M  V30 4290 H 403.063 -2.26027 -3.5031 0
M  V30 4291 H 401.723 -1.18629 -3.02254 0
M  V30 4292 H 402.734 -4.75432 -2.05389 0
M  V30 4293 H 399.411 -2.51336 -3.33371 0
M  V30 4294 H 400.801 -6.37199 -2.13135 0
M  V30 4295 N 403.521 0.559213 -1.47345 0
M  V30 4296 C 404.932 1.14134 -1.47751 0
M  V30 4297 C 405.283 1.94834 -0.231103 0
M  V30 4298 O 404.408 2.05957 0.664137 0
M  V30 4299 C 405.003 2.07653 -2.67705 0
M  V30 4300 C 403.562 2.61141 -2.71076 0
M  V30 4301 C 402.709 1.3748 -2.40821 0
M  V30 4302 H 405.66 0.345917 -1.54884 0
M  V30 4303 H 405.681 2.91497 -2.44561 0
M  V30 4304 H 405.193 1.4889 -3.58404 0
M  V30 4305 H 403.294 3.23707 -1.84511 0
M  V30 4306 H 403.407 3.02272 -3.7171 0
M  V30 4307 H 401.771 1.68086 -1.91362 0
M  V30 4308 H 402.554 0.805135 -3.33725 0
M  V30 4309 N 404.999 1.35443 0.805782 0
M  V30 4310 C 406.245 1.2996 1.56467 0
M  V30 4311 C 406.6 -0.124742 1.91995 0
M  V30 4312 O 405.893 -1.07533 1.58579 0
M  V30 4313 C 406.087 2.14045 2.86216 0
M  V30 4314 C 405.916 3.64512 2.63365 0
M  V30 4315 C 404.686 4.33744 2.59219 0
M  V30 4316 C 406.884 4.58142 2.33688 0
M  V30 4317 N 404.866 5.69953 2.28094 0
M  V30 4318 C 406.237 5.8248 2.12408 0
M  V30 4319 C 408.292 4.46877 2.19558 0
M  V30 4320 C 406.995 6.96818 1.78429 0
M  V30 4321 C 409.021 5.61065 1.86976 0
M  V30 4322 C 408.383 6.84431 1.66532 0
M  V30 4323 H 404.482 0.530817 0.574245 0
M  V30 4324 H 407.066 1.70333 0.943126 0
M  V30 4325 H 405.237 1.75942 3.46264 0
M  V30 4326 H 406.969 2.00075 3.51784 0
M  V30 4327 H 403.724 3.86365 2.73896 0
M  V30 4328 H 404.148 6.41845 2.15323 0
M  V30 4329 H 408.79 3.52102 2.34061 0
M  V30 4330 H 406.508 7.91559 1.62664 0
M  V30 4331 H 410.094 5.54302 1.7675 0
M  V30 4332 H 408.974 7.71294 1.41688 0
M  V30 4333 N 406.477 -1.02803 1.19454 0
M  V30 4334 C 407.407 -2.12999 0.956758 0
M  V30 4335 C 408.388 -1.69743 -0.110188 0
M  V30 4336 O 409.573 -1.94148 0.0450038 0
M  V30 4337 C 406.703 -3.43746 0.495553 0
M  V30 4338 C 405.657 -4.00688 1.50443 0
M  V30 4339 C 404.983 -5.27067 0.900275 0
M  V30 4340 C 406.283 -4.35397 2.8849 0
M  V30 4341 H 407.977 -2.33148 1.87836 0
M  V30 4342 H 405.523 -1.12045 0.904539 0
M  V30 4343 H 407.476 -4.2021 0.316493 0
M  V30 4344 H 406.2 -3.23321 -0.461646 0
M  V30 4345 H 404.859 -3.2632 1.67065 0
M  V30 4346 H 404.507 -5.02959 -0.064503 0
M  V30 4347 H 404.207 -5.66127 1.57397 0
M  V30 4348 H 405.731 -6.06196 0.73203 0
M  V30 4349 H 407.145 -5.02795 2.75446 0
M  V30 4350 H 405.542 -4.85541 3.52661 0
M  V30 4351 H 406.612 -3.44662 3.41081 0
M  V30 4352 N 407.956 -0.998596 -1.21925 0
M  V30 4353 C 408.903 -0.553621 -2.24062 0
M  V30 4354 C 409.873 0.416999 -1.6078 0
M  V30 4355 O 411.058 0.320482 -1.88089 0
M  V30 4356 C 408.198 0.119959 -3.44891 0
M  V30 4357 C 407.311 -0.893077 -4.22668 0
M  V30 4358 C 406.446 -0.192424 -5.30851 0
M  V30 4359 C 405.485 -1.19344 -6.00353 0
M  V30 4360 N 404.622 -0.520707 -7.00166 0
M  V30 4361 H 409.462 -1.4293 -2.61486 0
M  V30 4362 H 406.999 -0.715838 -1.28507 0
M  V30 4363 H 408.957 0.527459 -4.13852 0
M  V30 4364 H 407.587 0.959389 -3.08214 0
M  V30 4365 H 406.639 -1.41886 -3.52948 0
M  V30 4366 H 407.951 -1.65512 -4.70539 0
M  V30 4367 H 407.105 0.271515 -6.06092 0
M  V30 4368 H 405.844 0.602075 -4.83969 0
M  V30 4369 H 404.849 -1.66795 -5.23889 0
M  V30 4370 H 406.074 -1.98891 -6.49322 0
M  V30 4371 H 404.02 0.254252 -6.55507 0
M  V30 4372 H 403.937 -1.2211 -7.46073 0
M  V30 4373 H 405.205 -0.0797596 -7.79459 0
M  V30 4374 N 409.434 1.37368 -0.772513 0
M  V30 4375 C 410.344 2.34053 -0.160081 0
M  V30 4376 C 411.36 1.60216 0.678728 0
M  V30 4377 O 412.536 1.92303 0.59847 0
M  V30 4378 C 409.601 3.3939 0.708182 0
M  V30 4379 C 408.662 4.29048 -0.147172 0
M  V30 4380 C 407.895 5.29354 0.679744 0
M  V30 4381 O 408.118 5.3723 1.91678 0
M  V30 4382 O 407.052 6.01835 0.0885444 0
M  V30 4383 H 410.878 2.88159 -0.959053 0
M  V30 4384 H 408.463 1.39543 -0.533685 0
M  V30 4385 H 410.345 4.03839 1.20384 0
M  V30 4386 H 409.02 2.8761 1.48533 0
M  V30 4387 H 407.927 3.67697 -0.689205 0
M  V30 4388 H 409.26 4.84134 -0.887423 0
M  V30 4389 N 410.912 0.523116 1.48665 0
M  V30 4390 C 412.328 0.180511 1.58576 0
M  V30 4391 C 412.528 -1.31597 1.52592 0
M  V30 4392 O 411.584 -2.0937 1.4114 0
M  V30 4393 C 412.897 0.776949 2.90489 0
M  V30 4394 C 414.445 0.745058 3.04003 0
M  V30 4395 C 414.92 1.31995 4.38567 0
M  V30 4396 N 416.411 1.28162 4.45117 0
M  V30 4397 C 417.146 1.6964 5.47731 0
M  V30 4398 N 416.642 2.18816 6.57337 0
M  V30 4399 N 418.435 1.6092 5.38573 0
M  V30 4400 H 410.586 1.4958 1.50797 0
M  V30 4401 H 412.849 0.621772 0.715614 0
M  V30 4402 H 412.555 1.82732 3.00503 0
M  V30 4403 H 412.429 0.25007 3.7637 0
M  V30 4404 H 414.816 -0.296532 2.93606 0
M  V30 4405 H 414.897 1.30933 2.1975 0
M  V30 4406 H 414.541 2.36043 4.49718 0
M  V30 4407 H 414.471 0.731418 5.21496 0
M  V30 4408 H 416.962 0.92155 3.66491 0
M  V30 4409 H 417.275 2.48478 7.31764 0
M  V30 4410 H 415.62 2.22805 6.58318 0
M  V30 4411 H 418.811 1.22304 4.5184 0
M  V30 4412 H 418.984 1.93567 6.18414 0
M  V30 4413 N 412.39 -1.55475 0.257931 0
M  V30 4414 C 413.667 -1.91155 -0.414629 0
M  V30 4415 C 414.047 -1.18008 -1.75035 0
M  V30 4416 O 413.395 -0.301193 -2.26506 0
M  V30 4417 C 413.605 -3.44283 -0.571859 0
M  V30 4418 C 414.953 -4.15744 -0.862678 0
M  V30 4419 O 415.977 -3.50083 -0.657314 0
M  V30 4420 O 414.836 -5.31909 -1.2544 0
M  V30 4421 H 411.93 -0.796016 -0.22425 0
M  V30 4422 H 414.476 -1.66976 0.302814 0
M  V30 4423 H 413.248 -3.89558 0.368844 0
M  V30 4424 H 412.871 -3.7436 -1.33943 0
M  V30 4425 N 413.868 0.0150385 -1.57593 0
M  V30 4426 C 415.284 0.370907 -1.5523 0
M  V30 4427 C 415.484 1.75735 -0.985882 0
M  V30 4428 O 414.54 2.44944 -0.613077 0
M  V30 4429 C 415.853 0.259908 -2.99575 0
M  V30 4430 C 417.401 0.335959 -3.11192 0
M  V30 4431 C 417.876 0.254253 -4.57294 0
M  V30 4432 N 419.367 0.312618 -4.62144 0
M  V30 4433 C 420.102 0.272505 -5.72752 0
M  V30 4434 N 419.598 0.183864 -6.92556 0
M  V30 4435 N 421.391 0.323267 -5.6117 0
M  V30 4436 H 413.542 -0.892104 -1.92757 0
M  V30 4437 H 415.805 -0.340563 -0.884715 0
M  V30 4438 H 415.511 -0.693403 -3.44797 0
M  V30 4439 H 415.385 1.048 -3.62349 0
M  V30 4440 H 417.772 1.27971 -2.65909 0
M  V30 4441 H 417.853 -0.481739 -2.51223 0
M  V30 4442 H 417.497 -0.685887 -5.03247 0
M  V30 4443 H 417.427 1.09024 -5.15191 0
M  V30 4444 H 419.918 0.38307 -3.75953 0
M  V30 4445 H 420.231 0.15874 -7.72637 0
M  V30 4446 H 418.576 0.149708 -6.94839 0
M  V30 4447 H 421.767 0.390607 -4.66467 0
M  V30 4448 H 421.94 0.288539 -6.47357 0
M  V30 4449 N 415.346 1.54954 0.287554 0
M  V30 4450 C 416.576 1.78622 1.03816 0
M  V30 4451 C 416.984 0.552451 1.80955 0
M  V30 4452 O 416.327 -0.487665 1.77109 0
M  V30 4453 C 416.389 2.94975 2.055 0
M  V30 4454 C 416.053 4.32565 1.47433 0
M  V30 4455 C 417.05 5.12096 0.897436 0
M  V30 4456 C 414.735 4.79195 1.50591 0
M  V30 4457 C 416.729 6.36383 0.359851 0
M  V30 4458 C 414.416 6.03441 0.964459 0
M  V30 4459 C 415.414 6.81872 0.392413 0
M  V30 4460 O 415.102 8.03777 -0.140788 0
M  V30 4461 H 414.834 0.599144 0.313053 0
M  V30 4462 H 417.388 2.02761 0.328225 0
M  V30 4463 H 415.618 2.66493 2.80211 0
M  V30 4464 H 417.307 3.06097 2.6657 0
M  V30 4465 H 418.073 4.77209 0.865841 0
M  V30 4466 H 413.952 4.18167 1.94055 0
M  V30 4467 H 417.496 6.97545 -0.0872951 0
M  V30 4468 H 413.393 6.37813 0.993246 0
M  V30 4469 H 414.161 8.18495 -0.0287617 0
M  V30 4470 N 416.824 -0.551391 1.4764 0
M  V30 4471 C 417.787 -1.64007 1.60107 0
M  V30 4472 C 418.787 -1.53601 0.47576 0
M  V30 4473 O 419.977 -1.57655 0.740988 0
M  V30 4474 C 417.109 -3.03569 1.55108 0
M  V30 4475 H 418.302 -1.543 2.57161 0
M  V30 4476 H 415.855 -0.771776 1.35917 0
M  V30 4477 H 416.59 -3.18804 0.594519 0
M  V30 4478 H 416.375 -3.12532 2.36783 0
M  V30 4479 H 417.865 -3.82762 1.66982 0
M  V30 4480 N 418.302 -1.35869 -0.798587 0
M  V30 4481 C 419.532 -1.32529 -1.58491 0
M  V30 4482 C 419.94 0.0975405 -1.88948 0
M  V30 4483 O 419.283 1.06224 -1.49874 0
M  V30 4484 C 419.345 -2.07247 -2.9375 0
M  V30 4485 C 419.009 -3.56391 -2.86068 0
M  V30 4486 C 420.006 -4.50824 -2.58947 0
M  V30 4487 C 417.691 -3.9915 -3.04933 0
M  V30 4488 C 419.685 -5.85993 -2.5078 0
M  V30 4489 C 417.372 -5.34413 -2.96389 0
M  V30 4490 C 418.37 -6.27646 -2.69349 0
M  V30 4491 O 418.058 -7.60426 -2.60782 0
M  V30 4492 H 417.79 -0.456529 -0.498556 0
M  V30 4493 H 420.344 -1.79425 -0.999799 0
M  V30 4494 H 418.574 -1.55001 -3.54276 0
M  V30 4495 H 420.263 -1.96883 -3.54954 0
M  V30 4496 H 421.029 -4.19104 -2.44084 0
M  V30 4497 H 416.908 -3.26961 -3.24989 0
M  V30 4498 H 420.452 -6.58735 -2.29595 0
M  V30 4499 H 416.349 -5.65743 -3.10813 0
M  V30 4500 H 417.117 -7.70444 -2.76331 0
M  V30 4501 N 419.78 1.02168 -1.19998 0
M  V30 4502 C 420.727 2.10601 -0.944228 0
M  V30 4503 C 421.697 1.65639 0.123664 0
M  V30 4504 O 422.882 1.9079 -0.0199941 0
M  V30 4505 C 420.022 3.41504 -0.496865 0
M  V30 4506 C 419.135 3.99973 -1.63234 0
M  V30 4507 C 418.27 5.18915 -1.13579 0
M  V30 4508 C 417.309 5.69456 -2.24468 0
M  V30 4509 N 416.446 6.79665 -1.76068 0
M  V30 4510 H 421.286 2.31814 -1.8726 0
M  V30 4511 H 418.823 1.13686 -0.933483 0
M  V30 4512 H 420.781 4.16626 -0.218843 0
M  V30 4513 H 419.411 3.2038 0.394508 0
M  V30 4514 H 418.463 3.21997 -2.0254 0
M  V30 4515 H 419.775 4.33492 -2.46752 0
M  V30 4516 H 418.929 6.01222 -0.813429 0
M  V30 4517 H 417.668 4.8695 -0.270434 0
M  V30 4518 H 416.673 4.85757 -2.57526 0
M  V30 4519 H 417.898 6.03459 -3.11472 0
M  V30 4520 H 415.844 6.49538 -0.918516 0
M  V30 4521 H 415.761 7.12349 -2.5317 0
M  V30 4522 H 417.029 7.65549 -1.46817 0
M  V30 4523 N 421.258 1.00505 1.21394 0
M  V30 4524 C 422.507 0.683159 1.89778 0
M  V30 4525 C 422.82 -0.789471 1.7896 0
M  V30 4526 O 424.026 -1.22344 2.42372 0
M  V30 4527 C 422.482 1.17146 3.40301 0
M  V30 4528 C 422.09 2.67017 3.5973 0
M  V30 4529 C 423.834 0.924461 4.14311 0
M  V30 4530 C 421.741 3.09387 5.04017 0
M  V30 4531 H 420.671 0.25183 0.710702 0
M  V30 4532 H 423.322 1.21622 1.37406 0
M  V30 4533 H 421.704 0.566451 3.91928 0
M  V30 4534 H 422.878 3.32968 3.18542 0
M  V30 4535 H 421.193 2.89732 2.99073 0
M  V30 4536 H 423.79 1.21658 5.20676 0
M  V30 4537 H 424.133 -0.139286 4.16067 0
M  V30 4538 H 424.666 1.49226 3.6875 0
M  V30 4539 H 421.405 4.14989 5.07409 0
M  V30 4540 H 420.925 2.48149 5.46061 0
M  V30 4541 H 422.604 3.01371 5.72525 0
M  V30 4542 N 422.737 -1.36956 0.779787 0
M  V30 4543 C 423.687 -2.27539 0.144892 0
M  V30 4544 C 424.671 -1.46493 -0.665488 0
M  V30 4545 O 425.863 -1.68968 -0.527141 0
M  V30 4546 C 422.992 -3.35512 -0.727082 0
M  V30 4547 C 422.078 -4.24001 0.0915642 0
M  V30 4548 N 422.469 -4.92757 1.14125 0
M  V30 4549 C 420.767 -4.45807 -0.131141 0
M  V30 4550 C 421.468 -5.58138 1.6388 0
M  V30 4551 N 420.444 -5.35241 0.94962 0
M  V30 4552 H 424.246 -2.78176 0.948446 0
M  V30 4553 H 421.76 -1.50169 0.618315 0
M  V30 4554 H 423.757 -3.99324 -1.19776 0
M  V30 4555 H 422.417 -2.86431 -1.52929 0
M  V30 4556 H 423.428 -4.94984 1.52353 0
M  V30 4557 H 420.105 -4.07582 -0.904621 0
M  V30 4558 H 421.495 -6.23071 2.51461 0
M  V30 4559 N 424.215 -0.530993 -1.48385 0
M  V30 4560 C 425.145 0.219985 -2.32461 0
M  V30 4561 C 426.126 0.934111 -1.42156 0
M  V30 4562 O 427.311 0.919694 -1.71042 0
M  V30 4563 C 424.441 1.26674 -3.23375 0
M  V30 4564 C 423.395 0.67069 -4.22712 0
M  V30 4565 C 422.721 1.82017 -5.02766 0
M  V30 4566 C 424.021 -0.358268 -5.2107 0
M  V30 4567 H 425.715 -0.48187 -2.95497 0
M  V30 4568 H 423.261 -0.233182 -1.42099 0
M  V30 4569 H 425.214 1.80006 -3.81019 0
M  V30 4570 H 423.938 1.99818 -2.58341 0
M  V30 4571 H 422.597 0.158878 -3.66256 0
M  V30 4572 H 422.245 2.54002 -4.34157 0
M  V30 4573 H 421.945 1.42727 -5.70003 0
M  V30 4574 H 423.469 2.35725 -5.63264 0
M  V30 4575 H 424.883 0.0880081 -5.73232 0
M  V30 4576 H 423.28 -0.66861 -5.96364 0
M  V30 4577 H 424.35 -1.26367 -4.68145 0
M  V30 4578 N 425.693 1.55336 -0.266172 0
M  V30 4579 C 427.104 1.85236 0.233315 0
M  V30 4580 C 427.455 1.18816 1.56132 0
M  V30 4581 O 426.58 0.473307 2.11161 0
M  V30 4582 C 427.175 3.36059 0.430113 0
M  V30 4583 C 425.734 3.66116 0.873842 0
M  V30 4584 C 424.881 2.77274 -0.0380016 0
M  V30 4585 H 427.832 1.51004 -0.488214 0
M  V30 4586 H 427.853 3.58681 1.26998 0
M  V30 4587 H 427.365 3.84373 -0.536588 0
M  V30 4588 H 425.466 3.23295 1.85233 0
M  V30 4589 H 425.579 4.73699 0.717358 0
M  V30 4590 H 423.943 2.50198 0.476759 0
M  V30 4591 H 424.726 3.284 -1.00042 0
M  V30 4592 N 427.171 -0.0066808 1.57599 0
M  V30 4593 C 428.081 -1.01671 2.11424 0
M  V30 4594 C 429.097 -1.38143 1.05795 0
M  V30 4595 O 430.273 -1.47011 1.37658 0
M  V30 4596 C 427.338 -2.29192 2.60139 0
M  V30 4597 C 426.399 -1.99094 3.80342 0
M  V30 4598 C 425.632 -3.20535 4.26724 0
M  V30 4599 O 425.855 -4.3199 3.72479 0
M  V30 4600 O 424.789 -3.04924 5.18946 0
M  V30 4601 H 428.615 -0.589181 2.9793 0
M  V30 4602 H 426.2 -0.225091 1.47695 0
M  V30 4603 H 428.082 -3.0412 2.917 0
M  V30 4604 H 426.757 -2.71195 1.76733 0
M  V30 4605 H 425.664 -1.21663 3.53764 0
M  V30 4606 H 426.997 -1.61931 4.648 0
M  V30 4607 N 428.649 -1.55105 -0.279332 0
M  V30 4608 C 429.877 -1.7943 -1.03017 0
M  V30 4609 C 430.292 -0.564456 -1.80165 0
M  V30 4610 O 429.649 0.466326 -1.76442 0
M  V30 4611 C 429.7 -3.0155 -1.99374 0
M  V30 4612 O 429.421 -4.19784 -1.25352 0
M  V30 4613 C 430.922 -3.3843 -2.86321 0
M  V30 4614 H 428.142 -0.597882 -0.304594 0
M  V30 4615 H 430.686 -2.02105 -0.312035 0
M  V30 4616 H 428.841 -2.81019 -2.66659 0
M  V30 4617 H 429.255 -4.88781 -1.90246 0
M  V30 4618 H 430.729 -4.27066 -3.49741 0
M  V30 4619 H 431.206 -2.57549 -3.5576 0
M  V30 4620 H 431.812 -3.61197 -2.24536 0
M  V30 4621 N 430.127 0.543554 -1.4793 0
M  V30 4622 C 431.373 1.30201 -1.55485 0
M  V30 4623 C 431.706 1.92925 -0.222201 0
M  V30 4624 O 430.981 1.78586 0.77053 0
M  V30 4625 C 431.264 2.40174 -2.68307 0
M  V30 4626 C 431.117 1.8223 -4.11233 0
M  V30 4627 C 432.436 3.42024 -2.76961 0
M  V30 4628 H 429.555 0.472036 -0.565996 0
M  V30 4629 H 432.197 0.606914 -1.80046 0
M  V30 4630 H 430.347 2.99463 -2.47495 0
M  V30 4631 H 432.019 1.27096 -4.43446 0
M  V30 4632 H 430.262 1.12832 -4.18869 0
M  V30 4633 H 430.933 2.61793 -4.85972 0
M  V30 4634 H 433.409 2.92672 -2.95774 0
M  V30 4635 H 432.285 4.16383 -3.57654 0
M  V30 4636 H 432.546 4.0173 -1.84568 0
M  V30 4637 N 431.605 1.3629 0.791371 0
M  V30 4638 C 432.515 1.32606 1.93527 0
M  V30 4639 C 433.531 0.228541 1.72493 0
M  V30 4640 O 434.707 0.460571 1.96063 0
M  V30 4641 C 431.772 1.11271 3.28359 0
M  V30 4642 C 430.833 2.3048 3.62185 0
M  V30 4643 C 430.066 2.10154 4.90583 0
M  V30 4644 O 430.289 1.07572 5.60165 0
M  V30 4645 O 429.223 2.97884 5.23019 0
M  V30 4646 H 433.049 2.28909 1.99585 0
M  V30 4647 H 430.634 1.16818 0.931344 0
M  V30 4648 H 432.516 1.01283 4.09047 0
M  V30 4649 H 431.191 0.180292 3.23198 0
M  V30 4650 H 430.098 2.46036 2.81811 0
M  V30 4651 H 431.431 3.22221 3.72068 0
M  V30 4652 N 433.083 -1.0153 1.20538 0
M  V30 4653 C 434.015 -2.10224 0.913155 0
M  V30 4654 C 435.028 -1.62495 -0.0995998 0
M  V30 4655 O 436.217 -1.78014 0.131582 0
M  V30 4656 C 433.317 -3.37111 0.347717 0
M  V30 4657 C 432.49 -4.13971 1.41233 0
M  V30 4658 C 431.549 -5.19158 0.857976 0
M  V30 4659 O 430.575 -5.48 1.53897 0
M  V30 4660 N 431.777 -5.7955 -0.331966 0
M  V30 4661 H 434.542 -2.35879 1.84881 0
M  V30 4662 H 432.103 -1.17931 1.10923 0
M  V30 4663 H 434.095 -4.04683 -0.0373026 0
M  V30 4664 H 432.665 -3.08696 -0.492527 0
M  V30 4665 H 431.885 -3.41351 1.97163 0
M  V30 4666 H 433.173 -4.62103 2.12928 0
M  V30 4667 H 432.571 -5.58455 -0.902478 0
M  V30 4668 H 431.128 -6.48464 -0.65861 0
M  V30 4669 N 434.561 -1.01147 -1.20859 0
M  V30 4670 C 435.491 -0.597663 -2.25722 0
M  V30 4671 C 436.472 0.384744 -1.65692 0
M  V30 4672 O 437.657 0.271303 -1.92296 0
M  V30 4673 C 434.787 0.0700149 -3.47229 0
M  V30 4674 C 433.741 -0.832843 -4.19819 0
M  V30 4675 C 433.067 -0.0312202 -5.34691 0
M  V30 4676 C 434.367 -2.1385 -4.76514 0
M  V30 4677 H 436.061 -1.47423 -2.60589 0
M  V30 4678 H 433.607 -0.710301 -1.25263 0
M  V30 4679 H 435.56 0.37103 -4.19763 0
M  V30 4680 H 434.284 0.981259 -3.11511 0
M  V30 4681 H 432.943 -1.11778 -3.49144 0
M  V30 4682 H 432.591 0.881515 -4.95215 0
M  V30 4683 H 432.291 -0.632434 -5.84187 0
M  V30 4684 H 433.815 0.26346 -6.10031 0
M  V30 4685 H 435.229 -1.9002 -5.40893 0
M  V30 4686 H 433.626 -2.69012 -5.36426 0
M  V30 4687 H 434.696 -2.80495 -3.95538 0
M  V30 4688 N 436.039 1.36541 -0.78704 0
M  V30 4689 C 437.455 1.52571 -0.46844 0
M  V30 4690 C 437.655 1.7415 1.01361 0
M  V30 4691 O 436.711 1.77163 1.79915 0
M  V30 4692 C 438.024 2.71299 -1.29682 0
M  V30 4693 C 439.572 2.85169 -1.29027 0
M  V30 4694 C 440.047 4.06898 -2.10233 0
M  V30 4695 N 441.538 4.1404 -2.07666 0
M  V30 4696 C 442.273 5.07301 -2.67271 0
M  V30 4697 N 441.769 6.06021 -3.35724 0
M  V30 4698 N 443.562 4.99898 -2.57018 0
M  V30 4699 H 435.713 1.20788 -1.74711 0
M  V30 4700 H 437.976 0.589364 -0.742532 0
M  V30 4701 H 437.682 2.61868 -2.34773 0
M  V30 4702 H 437.556 3.6539 -0.936479 0
M  V30 4703 H 439.943 2.94062 -0.247284 0
M  V30 4704 H 440.024 1.91992 -1.69035 0
M  V30 4705 H 439.668 3.98766 -3.1456 0
M  V30 4706 H 439.598 4.99218 -1.67597 0
M  V30 4707 H 442.089 3.43357 -1.57843 0
M  V30 4708 H 442.402 6.73741 -3.78541 0
M  V30 4709 H 440.747 6.06253 -3.39826 0
M  V30 4710 H 443.938 4.21724 -2.03142 0
M  V30 4711 H 444.111 5.72392 -3.03761 0
M  V30 4712 N 437.518 0.538854 1.48102 0
M  V30 4713 C 438.465 -0.219042 2.29758 0
M  V30 4714 C 439.435 -0.925562 1.37922 0
M  V30 4715 O 440.62 -0.924855 1.66886 0
M  V30 4716 C 437.76 -1.25452 3.2149 0
M  V30 4717 C 436.873 -0.555943 4.28408 0
M  V30 4718 C 436.008 -1.57512 5.0731 0
M  V30 4719 C 435.047 -0.860498 6.06021 0
M  V30 4720 N 434.184 -1.82564 6.77949 0
M  V30 4721 H 439.024 0.483449 2.94052 0
M  V30 4722 H 436.561 0.250247 1.44956 0
M  V30 4723 H 438.519 -1.86727 3.7308 0
M  V30 4724 H 437.149 -1.92528 2.591 0
M  V30 4725 H 436.201 0.170938 3.80016 0
M  V30 4726 H 437.513 0.00474616 4.988 0
M  V30 4727 H 436.667 -2.26191 5.62959 0
M  V30 4728 H 435.406 -2.16972 4.36778 0
M  V30 4729 H 434.411 -0.159686 5.49568 0
M  V30 4730 H 435.636 -0.271897 6.78555 0
M  V30 4731 H 433.582 -2.40915 6.10161 0
M  V30 4732 H 433.499 -1.31662 7.44447 0
M  V30 4733 H 434.767 -2.50414 7.38182 0
M  V30 4734 N 438.996 -1.55193 0.274407 0
M  V30 4735 C 440.243 -1.99581 -0.342579 0
M  V30 4736 C 440.571 -1.1628 -1.55914 0
M  V30 4737 O 439.826 -0.22029 -1.94456 0
M  V30 4738 C 440.125 -3.49019 -0.769458 0
M  V30 4739 C 439.791 -4.49598 0.342389 0
M  V30 4740 C 438.453 -4.76821 0.647686 0
M  V30 4741 C 440.805 -5.0964 1.09163 0
M  V30 4742 C 438.133 -5.61354 1.70581 0
M  V30 4743 C 440.485 -5.95323 2.13948 0
M  V30 4744 C 439.149 -6.20867 2.45113 0
M  V30 4745 H 438.419 -0.730319 -0.125358 0
M  V30 4746 H 441.066 -1.87529 0.387971 0
M  V30 4747 H 439.371 -3.58544 -1.57967 0
M  V30 4748 H 441.068 -3.8077 -1.25757 0
M  V30 4749 H 437.658 -4.28496 0.094318 0
M  V30 4750 H 441.842 -4.88632 0.869024 0
M  V30 4751 H 437.098 -5.79392 1.9523 0
M  V30 4752 H 441.272 -6.40881 2.72478 0
M  V30 4753 H 438.899 -6.86162 3.27239 0
M  V30 4754 N 440.474 -0.00167713 -1.576 0
M  V30 4755 C 441.422 1.0074 -2.09652 0
M  V30 4756 C 442.416 1.35483 -1.01689 0
M  V30 4757 O 443.622 1.34028 -1.20152 0
M  V30 4758 H 439.997 0.342537 -0.669457 0
M  V30 4759 H 441.968 0.542841 -2.93421 0
M  V30 4760 C 440.717 2.2899 -2.61647 0
M  V30 4761 H 440.04 2.03124 -3.44355 0
M  V30 4762 H 441.48 2.9787 -3.01744 0
M  V30 4763 C 439.939 3.00085 -1.53136 0
M  V30 4764 O 440.469 3.91135 -0.91524 0
M  V30 4765 N 438.675 2.6194 -1.25841 0
M  V30 4766 H 438.222 1.8798 -1.76129 0
M  V30 4767 H 438.18 3.09822 -0.534576 0
M  V30 4768 N 441.952 1.55251 0.271103 0
M  V30 4769 C 442.915 1.87484 1.31842 0
M  V30 4770 C 443.915 0.749545 1.42262 0
M  V30 4771 O 445.105 1.01771 1.4138 0
M  V30 4772 C 442.237 2.0818 2.69951 0
M  V30 4773 H 443.43 2.81108 1.0449 0
M  V30 4774 H 440.983 1.47771 0.509258 0
M  V30 4775 H 441.718 1.16944 3.02481 0
M  V30 4776 H 441.503 2.90114 2.63774 0
M  V30 4777 H 442.993 2.34385 3.4562 0
M  V30 4778 N 443.43 -0.535701 1.48216 0
M  V30 4779 C 444.846 -0.863701 1.3421 0
M  V30 4780 C 445.046 -1.98458 0.34879 0
M  V30 4781 O 444.102 -2.51432 -0.23204 0
M  V30 4782 C 445.415 -1.23662 2.74095 0
M  V30 4783 C 446.963 -1.34683 2.82541 0
M  V30 4784 C 447.438 -1.75322 4.23115 0
M  V30 4785 N 448.929 -1.82434 4.2576 0
M  V30 4786 C 449.664 -2.15252 5.31464 0
M  V30 4787 N 449.16 -2.46533 6.47452 0
M  V30 4788 N 450.953 -2.16209 5.18855 0
M  V30 4789 H 443.104 0.203965 2.11418 0
M  V30 4790 H 445.367 0.0286033 0.947568 0
M  V30 4791 H 445.073 -0.486674 3.48316 0
M  V30 4792 H 444.947 -2.18805 3.07253 0
M  V30 4793 H 447.334 -2.08756 2.08579 0
M  V30 4794 H 447.415 -0.376756 2.5301 0
M  V30 4795 H 447.059 -1.01812 4.97591 0
M  V30 4796 H 446.989 -2.7337 4.50085 0
M  V30 4797 H 449.48 -1.6056 3.42095 0
M  V30 4798 H 449.793 -2.70662 7.23852 0
M  V30 4799 H 448.138 -2.44065 6.50736 0
M  V30 4800 H 451.329 -1.91224 4.2726 0
M  V30 4801 H 451.502 -2.41453 6.01335 0
M  V30 4802 N 444.908 -1.36708 -0.784132 0
M  V30 4803 C 446.324 -1.17237 -1.08294 0
M  V30 4804 C 446.524 -5.93947e-05 -2.015 0
M  V30 4805 O 445.58 0.663686 -2.43622 0
M  V30 4806 C 446.893 -2.48557 -1.69233 0
M  V30 4807 C 448.441 -2.54968 -1.8155 0
M  V30 4808 C 448.916 -3.86388 -2.45904 0
M  V30 4809 N 450.407 -3.87762 -2.53367 0
M  V30 4810 C 451.142 -4.86191 -3.03983 0
M  V30 4811 N 450.638 -5.95015 -3.54866 0
M  V30 4812 N 452.431 -4.73606 -3.02743 0
M  V30 4813 H 444.582 -2.11758 -0.16501 0
M  V30 4814 H 446.845 -0.93822 -0.135822 0
M  V30 4815 H 446.551 -3.34638 -1.08215 0
M  V30 4816 H 446.425 -2.64748 -2.68679 0
M  V30 4817 H 448.812 -1.69302 -2.41704 0
M  V30 4818 H 448.893 -2.42672 -0.80895 0
M  V30 4819 H 448.537 -4.72462 -1.86392 0
M  V30 4820 H 448.467 -3.95982 -3.4714 0
M  V30 4821 H 450.958 -3.09145 -2.17343 0
M  V30 4822 H 451.271 -6.66086 -3.91854 0
M  V30 4823 H 449.616 -5.98676 -3.53003 0
M  V30 4824 H 452.807 -3.87717 -2.62284 0
M  V30 4825 H 452.98 -5.50473 -3.41881 0
M  V30 4826 N 446.386 1.0089 -1.21074 0
M  V30 4827 C 447.333 2.09588 -0.966512 0
M  V30 4828 C 448.303 1.65761 0.106089 0
M  V30 4829 O 449.488 1.90758 -0.0402287 0
M  V30 4830 C 446.628 3.40958 -0.533058 0
M  V30 4831 C 445.741 3.9822 -1.67467 0
M  V30 4832 C 444.876 5.17682 -1.19076 0
M  V30 4833 C 443.915 5.67043 -2.30496 0
M  V30 4834 N 443.052 6.77759 -1.83267 0
M  V30 4835 H 447.892 2.29815 -1.89708 0
M  V30 4836 H 445.429 1.12689 -0.945489 0
M  V30 4837 H 447.387 4.1637 -0.263019 0
M  V30 4838 H 446.017 3.20781 0.360505 0
M  V30 4839 H 445.069 3.1983 -2.05944 0
M  V30 4840 H 446.381 4.3085 -2.51336 0
M  V30 4841 H 445.535 6.00326 -0.877151 0
M  V30 4842 H 444.274 4.86635 -0.322066 0
M  V30 4843 H 443.279 4.82999 -2.62664 0
M  V30 4844 H 444.504 6.00121 -3.17855 0
M  V30 4845 H 442.45 6.48527 -0.987356 0
M  V30 4846 H 442.367 7.09624 -2.60711 0
M  V30 4847 H 443.635 7.63949 -1.54928 0
M  V30 4848 N 447.864 1.01787 1.20321 0
M  V30 4849 C 448.794 0.609625 2.25401 0
M  V30 4850 C 449.775 -0.375951 1.65893 0
M  V30 4851 O 450.96 -0.261101 1.92437 0
M  V30 4852 C 448.09 -0.0515995 3.47262 0
M  V30 4853 C 447.044 0.855095 4.19371 0
M  V30 4854 C 446.37 0.0595757 5.34667 0
M  V30 4855 C 447.67 2.16374 4.75373 0
M  V30 4856 H 449.364 1.48803 2.59804 0
M  V30 4857 H 446.91 0.716934 1.24884 0
M  V30 4858 H 448.863 -0.348764 4.19954 0
M  V30 4859 H 447.587 -0.964726 3.12027 0
M  V30 4860 H 446.246 1.13628 3.48546 0
M  V30 4861 H 445.894 -0.85524 4.95676 0
M  V30 4862 H 445.594 0.663406 5.83843 0
M  V30 4863 H 447.118 -0.231105 6.10162 0
M  V30 4864 H 448.532 1.92885 5.39878 0
M  V30 4865 H 446.929 2.71853 5.34991 0
M  V30 4866 H 447.999 2.82589 3.94045 0
M  V30 4867 N 449.342 -1.36122 0.79427 0
M  V30 4868 C 450.289 -2.29982 0.194101 0
M  V30 4869 C 451.259 -1.52214 -0.664833 0
M  V30 4870 O 452.444 -1.80702 -0.612498 0
M  V30 4871 C 449.584 -3.38706 -0.661244 0
M  V30 4872 C 448.697 -4.31456 0.216766 0
M  V30 4873 C 447.832 -5.27265 -0.645411 0
M  V30 4874 C 446.871 -6.11653 0.233756 0
M  V30 4875 N 446.008 -6.99636 -0.587682 0
M  V30 4876 H 450.848 -2.80722 0.999965 0
M  V30 4877 H 448.385 -1.38172 0.504677 0
M  V30 4878 H 450.343 -4.00394 -1.17219 0
M  V30 4879 H 448.973 -2.89274 -1.43249 0
M  V30 4880 H 448.025 -3.7088 0.845724 0
M  V30 4881 H 449.337 -4.90724 0.893973 0
M  V30 4882 H 448.491 -5.94266 -1.22198 0
M  V30 4883 H 447.23 -4.68463 -1.35623 0
M  V30 4884 H 446.235 -5.4361 0.82269 0
M  V30 4885 H 447.46 -6.72531 0.942247 0
M  V30 4886 H 445.406 -6.43337 -1.2827 0
M  V30 4887 H 445.323 -7.55993 0.0317402 0
M  V30 4888 H 446.591 -7.71001 -1.14792 0
M  V30 4889 N 450.82 -0.546701 -1.47814 0
M  V30 4890 C 452.068 -0.0187037 -2.02091 0
M  V30 4891 C 452.389 1.33168 -1.42447 0
M  V30 4892 O 451.659 1.86619 -0.595839 0
M  V30 4893 H 450.239 -0.00392531 -0.74699 0
M  V30 4894 H 452.901 -0.714327 -1.81338 0
M  V30 4895 H 451.997 0.0772219 -3.12004 0
M  V30 4896 N 452.299 1.55045 -0.282633 0
M  V30 4897 C 453.262 2.21515 0.588539 0
M  V30 4898 C 454.262 1.19535 1.07554 0
M  V30 4899 O 455.452 1.44391 0.974514 0
M  V30 4900 C 452.584 2.88704 1.8128 0
M  V30 4901 H 453.777 2.99899 0.00806397 0
M  V30 4902 H 451.33 1.56265 -0.0333067 0
M  V30 4903 H 452.065 2.14352 2.43359 0
M  V30 4904 H 451.85 3.63443 1.47144 0
M  V30 4905 H 453.34 3.39465 2.43214 0
M  V30 4906 N 453.777 0.010035 1.57597 0
M  V30 4907 C 455.023 -0.673697 1.91283 0
M  V30 4908 C 455.356 -1.72863 0.884979 0
M  V30 4909 O 454.631 -1.94268 -0.0949487 0
M  V30 4910 C 454.914 -1.30766 3.35518 0
M  V30 4911 C 454.767 -0.263578 4.49027 0
M  V30 4912 C 456.086 -2.23105 3.79358 0
M  V30 4913 H 453.205 -0.243439 0.695634 0
M  V30 4914 H 455.847 0.0633864 1.89894 0
M  V30 4915 H 453.997 -1.93588 3.36832 0
M  V30 4916 H 455.669 0.365738 4.59848 0
M  V30 4917 H 453.912 0.413077 4.31829 0
M  V30 4918 H 454.583 -0.746398 5.4693 0
M  V30 4919 H 457.059 -1.70289 3.79659 0
M  V30 4920 H 455.935 -2.64424 4.81011 0
M  V30 4921 H 456.196 -3.11433 3.13787 0
M  V30 4922 N 455.255 -1.55392 -0.262866 0
M  V30 4923 C 456.185 -1.91978 -1.32917 0
M  V30 4924 C 457.166 -0.7828 -1.51017 0
M  V30 4925 O 458.351 -1.04178 -1.63892 0
M  V30 4926 C 455.481 -2.20055 -2.68687 0
M  V30 4927 C 454.435 -3.35854 -2.65304 0
M  V30 4928 C 453.761 -3.49435 -4.04721 0
M  V30 4929 C 455.061 -4.71977 -2.23685 0
M  V30 4930 H 456.755 -2.81292 -1.02544 0
M  V30 4931 H 454.301 -1.3534 -0.491846 0
M  V30 4932 H 456.254 -2.44237 -3.43404 0
M  V30 4933 H 454.978 -1.27551 -3.00663 0
M  V30 4934 H 453.637 -3.11655 -1.93045 0
M  V30 4935 H 453.285 -2.54379 -4.33936 0
M  V30 4936 H 452.985 -4.27297 -4.0335 0
M  V30 4937 H 454.509 -3.7592 -4.81161 0
M  V30 4938 H 455.923 -4.95637 -2.88127 0
M  V30 4939 H 454.32 -5.52828 -2.33456 0
M  V30 4940 H 455.39 -4.70115 -1.18827 0
M  V30 4941 N 456.733 0.527833 -1.48498 0
M  V30 4942 C 457.696 1.61439 -1.62696 0
M  V30 4943 C 458.696 1.52824 -0.500136 0
M  V30 4944 O 459.886 1.56456 -0.765976 0
M  V30 4945 C 457.018 3.01063 -1.59918 0
M  V30 4946 H 458.211 1.50189 -2.59583 0
M  V30 4947 H 455.764 0.750055 -1.37127 0
M  V30 4948 H 456.499 3.17818 -0.645163 0
M  V30 4949 H 456.284 3.08725 -2.41726 0
M  V30 4950 H 457.774 3.80057 -1.73051 0
M  V30 4951 N 458.211 1.37122 0.776871 0
M  V30 4952 C 459.174 1.32301 1.8716 0
M  V30 4953 C 460.174 0.228099 1.59174 0
M  V30 4954 O 461.364 0.483642 1.67352 0
M  V30 4955 C 458.496 1.054 3.24197 0
M  V30 4956 H 459.689 2.29673 1.92848 0
M  V30 4957 H 457.242 1.22077 0.97606 0
M  V30 4958 H 457.977 0.0853872 3.24188 0
M  V30 4959 H 457.762 1.84648 3.45901 0
M  V30 4960 H 459.252 1.04664 4.04271 0
M  V30 4961 N 459.689 -1.00246 1.21608 0
M  V30 4962 C 460.935 -1.74319 1.03638 0
M  V30 4963 C 461.268 -1.89408 -0.428749 0
M  V30 4964 O 460.543 -1.43026 -1.3181 0
M  V30 4965 C 460.826 -3.15431 1.73711 0
M  V30 4966 C 460.679 -3.08049 3.27759 0
M  V30 4967 C 461.998 -4.14407 1.48173 0
M  V30 4968 H 459.117 -0.632741 0.377899 0
M  V30 4969 H 461.759 -1.16853 1.49818 0
M  V30 4970 H 459.909 -3.64493 1.34452 0
M  V30 4971 H 461.581 -2.66681 3.76403 0
M  V30 4972 H 459.824 -2.45088 3.57931 0
M  V30 4973 H 460.495 -4.07862 3.71958 0
M  V30 4974 H 462.971 -3.74061 1.82258 0
M  V30 4975 H 461.847 -5.11279 1.99713 0
M  V30 4976 H 462.108 -4.40174 0.412273 0
M  V30 4977 N 461.167 -1.02423 -1.1978 0
M  V30 4978 C 462.392 -0.7373 -1.93852 0
M  V30 4979 C 462.817 0.696923 -1.74713 0
M  V30 4980 O 462.175 1.48056 -1.04638 0
M  V30 4981 C 462.223 -1.08783 -3.438 0
M  V30 4982 O 461.327 -0.20383 -4.11896 0
M  V30 4983 H 460.668 -0.27284 -0.605355 0
M  V30 4984 H 463.198 -1.36966 -1.51992 0
M  V30 4985 H 463.208 -1.04276 -3.9445 0
M  V30 4986 H 461.883 -2.13274 -3.57053 0
M  V30 4987 H 460.46 -0.307091 -3.71633 0
M  V30 4988 N 462.645 1.35699 -0.801477 0
M  V30 4989 C 463.87 2.03687 -0.390678 0
M  V30 4990 C 464.295 1.60015 0.988778 0
M  V30 4991 O 463.653 0.774357 1.63931 0
M  V30 4992 C 463.701 3.57439 -0.476404 0
M  V30 4993 O 462.805 4.09208 0.512106 0
M  V30 4994 H 462.146 0.64344 -0.163956 0
M  V30 4995 H 464.676 1.73403 -1.08594 0
M  V30 4996 H 464.686 4.06544 -0.344357 0
M  V30 4997 H 463.361 3.88576 -1.48262 0
M  V30 4998 H 461.938 3.7134 0.340721 0
M  V30 4999 N 464.123 0.554532 1.47522 0
M  V30 5000 C 465.073 -0.215008 2.26984 0
M  V30 5001 C 466.057 -0.88774 1.34194 0
M  V30 5002 O 467.249 -0.786489 1.58567 0
M  V30 5003 C 464.378 -1.24604 3.19889 0
M  V30 5004 C 463.464 -0.576857 4.20159 0
M  V30 5005 N 463.855 0.351541 5.04577 0
M  V30 5006 C 462.153 -0.831104 4.38188 0
M  V30 5007 C 462.854 0.739995 5.76974 0
M  V30 5008 N 461.83 0.0954407 5.43516 0
M  V30 5009 H 465.632 0.498843 2.89636 0
M  V30 5010 H 463.146 0.374279 1.58028 0
M  V30 5011 H 465.143 -1.81128 3.75498 0
M  V30 5012 H 463.803 -1.96101 2.58794 0
M  V30 5013 H 464.814 0.725556 5.12792 0
M  V30 5014 H 461.491 -1.53479 3.88266 0
M  V30 5015 H 462.881 1.50271 6.5488 0
M  V30 5016 N 465.601 -1.54893 0.290851 0
M  V30 5017 C 466.548 -2.23138 -0.58974 0
M  V30 5018 C 467.518 -1.21036 -1.13752 0
M  V30 5019 O 468.703 -1.49626 -1.18392 0
M  V30 5020 C 465.843 -2.96811 -1.76061 0
M  V30 5021 C 464.956 -4.13665 -1.24519 0
M  V30 5022 C 464.091 -4.74944 -2.3791 0
M  V30 5023 C 463.13 -5.83963 -1.83451 0
M  V30 5024 N 462.267 -6.39239 -2.90376 0
M  V30 5025 H 467.107 -2.98 -0.00114915 0
M  V30 5026 H 464.644 -1.47096 0.0112006 0
M  V30 5027 H 466.602 -3.37751 -2.44909 0
M  V30 5028 H 465.232 -2.24344 -2.32098 0
M  V30 5029 H 464.284 -3.77737 -0.449288 0
M  V30 5030 H 465.596 -4.92238 -0.806424 0
M  V30 5031 H 464.75 -5.18684 -3.14724 0
M  V30 5032 H 463.489 -3.95682 -2.85109 0
M  V30 5033 H 462.494 -5.39657 -1.05122 0
M  V30 5034 H 463.719 -6.65103 -1.37169 0
M  V30 5035 H 461.665 -5.62864 -3.36927 0
M  V30 5036 H 461.582 -7.13129 -2.50965 0
M  V30 5037 H 462.85 -6.87637 -3.67118 0
M  V30 5038 N 467.08 -0.0183926 -1.57589 0
M  V30 5039 C 468.327 0.662562 -1.91354 0
M  V30 5040 C 468.655 1.72747 -0.893788 0
M  V30 5041 O 467.91 1.9545 0.0988509 0
M  V30 5042 C 468.209 1.32676 -3.31861 0
M  V30 5043 C 467.875 0.393267 -4.49182 0
M  V30 5044 C 466.537 0.136302 -4.81007 0
M  V30 5045 C 468.889 -0.248366 -5.20608 0
M  V30 5046 C 466.217 -0.770282 -5.81621 0
M  V30 5047 C 468.569 -1.14294 -6.22189 0
M  V30 5048 C 467.233 -1.4089 -6.52462 0
M  V30 5049 H 466.503 0.242448 -0.700214 0
M  V30 5050 H 469.15 -0.0778629 -1.91342 0
M  V30 5051 H 467.455 2.14168 -3.28084 0
M  V30 5052 H 469.152 1.86001 -3.55253 0
M  V30 5053 H 465.742 0.603723 -4.24327 0
M  V30 5054 H 469.926 -0.062883 -4.9626 0
M  V30 5055 H 465.182 -0.984154 -6.03427 0
M  V30 5056 H 469.356 -1.64637 -6.76659 0
M  V30 5057 H 466.983 -2.11306 -7.30242 0
M  V30 5058 N 468.558 1.5553 0.254621 0
M  V30 5059 C 469.506 1.9048 1.33492 0
M  V30 5060 C 470.5 0.78304 1.50216 0
M  V30 5061 O 471.706 0.967582 1.51782 0
M  V30 5062 H 468.081 0.604846 0.44684 0
M  V30 5063 H 470.052 2.80688 1.01275 0
M  V30 5064 C 468.801 2.20928 2.68489 0
M  V30 5065 H 468.124 3.06742 2.56417 0
M  V30 5066 H 469.564 2.49291 3.42972 0
M  V30 5067 C 468.023 1.023 3.20993 0
M  V30 5068 O 468.553 0.267027 4.00811 0
M  V30 5069 N 466.759 0.815714 2.78917 0
M  V30 5070 H 466.306 1.43217 2.14119 0
M  V30 5071 H 466.264 0.0236532 3.14391 0
M  V30 5072 N 470.036 -0.519951 1.48776 0
M  V30 5073 C 471.261 -1.30447 1.6124 0
M  V30 5074 C 471.686 -1.86055 0.276591 0
M  V30 5075 O 471.044 -1.64915 -0.753183 0
M  V30 5076 C 471.092 -2.42406 2.66967 0
M  V30 5077 O 470.196 -3.45728 2.24824 0
M  V30 5078 H 469.537 -0.385924 0.540332 0
M  V30 5079 H 472.067 -0.624572 1.94834 0
M  V30 5080 H 472.077 -2.88447 2.88552 0
M  V30 5081 H 470.752 -2.01294 3.63941 0
M  V30 5082 H 469.329 -3.05737 2.13494 0
M  V30 5083 N 471.514 -1.37532 -0.769588 0
M  V30 5084 C 472.761 -1.3286 -1.52822 0
M  V30 5085 C 473.089 0.0862597 -1.94309 0
M  V30 5086 O 472.344 1.05995 -1.6451 0
M  V30 5087 C 472.643 -2.21558 -2.8044 0
M  V30 5088 C 472.309 -3.69796 -2.57996 0
M  V30 5089 C 470.971 -4.10194 -2.51583 0
M  V30 5090 C 473.323 -4.63699 -2.37976 0
M  V30 5091 C 470.651 -5.42608 -2.23144 0
M  V30 5092 C 473.003 -5.96353 -2.1106 0
M  V30 5093 C 471.667 -6.35853 -2.03093 0
M  V30 5094 H 470.937 -0.486168 -0.559215 0
M  V30 5095 H 473.584 -1.69757 -0.886277 0
M  V30 5096 H 471.889 -1.77663 -3.49204 0
M  V30 5097 H 473.586 -2.15256 -3.38328 0
M  V30 5098 H 470.176 -3.37759 -2.63851 0
M  V30 5099 H 474.36 -4.33346 -2.41919 0
M  V30 5100 H 469.616 -5.72173 -2.15472 0
M  V30 5101 H 473.79 -6.68667 -1.94568 0
M  V30 5102 H 471.417 -7.38382 -1.8082 0
M  V30 5103 N 472.992 0.995999 -1.22138 0
M  V30 5104 C 474.222 1.76809 -1.06874 0
M  V30 5105 C 474.63 1.85265 0.383866 0
M  V30 5106 O 473.973 1.31969 1.27789 0
M  V30 5107 C 474.035 3.2186 -1.60144 0
M  V30 5108 C 473.699 3.36958 -3.0872 0
M  V30 5109 C 474.696 3.2452 -4.0618 0
M  V30 5110 C 472.381 3.62109 -3.48112 0
M  V30 5111 C 474.375 3.37013 -5.41019 0
M  V30 5112 C 472.062 3.74243 -4.831 0
M  V30 5113 C 473.06 3.61702 -5.79362 0
M  V30 5114 O 472.748 3.73436 -7.119 0
M  V30 5115 H 472.48 0.562207 -0.375365 0
M  V30 5116 H 475.034 1.26113 -1.62125 0
M  V30 5117 H 473.264 3.73734 -0.992981 0
M  V30 5118 H 474.953 3.80775 -1.40589 0
M  V30 5119 H 475.719 3.05004 -3.77091 0
M  V30 5120 H 471.598 3.70949 -2.73712 0
M  V30 5121 H 475.142 3.27141 -6.16137 0
M  V30 5122 H 471.039 3.93266 -5.11872 0
M  V30 5123 H 471.807 3.90328 -7.19435 0
M  V30 5124 N 474.47 1.03057 1.19235 0
M  V30 5125 C 475.718 0.726581 1.88587 0
M  V30 5126 C 476.039 -0.747227 1.80115 0
M  V30 5127 O 475.309 -1.53849 1.21274 0
M  V30 5128 H 473.889 0.265768 0.698124 0
M  V30 5129 H 476.551 1.30516 1.44746 0
M  V30 5130 H 475.647 1.0224 2.94879 0
M  V30 5131 N 475.948 -1.35272 0.808662 0
M  V30 5132 C 477.225 -1.93077 0.313181 0
M  V30 5133 C 477.605 -1.73847 -1.19752 0
M  V30 5134 O 476.953 -1.1087 -1.998 0
M  V30 5135 C 477.163 -3.41347 0.726859 0
M  V30 5136 C 478.511 -4.18493 0.717532 0
M  V30 5137 O 479.535 -3.4987 0.668535 0
M  V30 5138 O 478.394 -5.40937 0.777779 0
M  V30 5139 H 475.488 -0.822885 0.0824018 0
M  V30 5140 H 478.034 -1.44335 0.892499 0
M  V30 5141 H 476.806 -3.49082 1.76797 0
M  V30 5142 H 476.429 -3.97411 0.122461 0
M  V30 5143 N 477.426 -0.562348 -1.47226 0
M  V30 5144 C 478.837 -0.130325 -1.86245 0
M  V30 5145 C 479.188 1.30128 -1.46838 0
M  V30 5146 O 478.313 1.97974 -0.873805 0
M  V30 5147 C 478.908 -0.229738 -3.3802 0
M  V30 5148 C 477.467 0.14728 -3.76112 0
M  V30 5149 C 476.614 -0.574971 -2.71274 0
M  V30 5150 H 479.565 -0.771773 -1.3867 0
M  V30 5151 H 479.586 0.550316 -3.76499 0
M  V30 5152 H 479.098 -1.27178 -3.66671 0
M  V30 5153 H 477.199 1.19023 -3.53078 0
M  V30 5154 H 477.312 -0.214858 -4.78618 0
M  V30 5155 H 475.676 -0.0174756 -2.54694 0
M  V30 5156 H 476.459 -1.61827 -3.02766 0
M  V30 5157 N 478.904 1.54736 -0.299062 0
M  V30 5158 C 480.315 1.8569 0.193971 0
M  V30 5159 C 480.666 1.22101 1.53577 0
M  V30 5160 O 479.791 0.51799 2.10109 0
M  V30 5161 C 480.386 3.36895 0.358733 0
M  V30 5162 C 478.945 3.67887 0.795986 0
M  V30 5163 C 478.092 2.77131 -0.096807 0
M  V30 5164 H 481.043 1.49934 -0.520134 0
M  V30 5165 H 481.064 3.61294 1.19361 0
M  V30 5166 H 480.576 3.83148 -0.617998 0
M  V30 5167 H 478.677 3.27151 1.78334 0
M  V30 5168 H 478.79 4.75114 0.616718 0
M  V30 5169 H 477.154 2.51153 0.423581 0
M  V30 5170 H 477.937 3.26204 -1.06986 0
M  V30 5171 N 480.382 0.0267497 1.57577 0
M  V30 5172 C 481.292 -0.971633 2.13533 0
M  V30 5173 C 482.308 -1.35868 1.08701 0
M  V30 5174 O 483.484 -1.44058 1.40746 0
M  V30 5175 C 480.549 -2.23622 2.64941 0
M  V30 5176 C 479.61 -1.90982 3.8448 0
M  V30 5177 C 478.843 -3.11411 4.33427 0
M  V30 5178 O 479.066 -4.23992 3.81558 0
M  V30 5179 O 478 -2.93848 5.25297 0
M  V30 5180 H 481.826 -0.525853 2.99113 0
M  V30 5181 H 479.411 -0.193712 1.48139 0
M  V30 5182 H 481.293 -2.97864 2.98086 0
M  V30 5183 H 479.968 -2.67386 1.82446 0
M  V30 5184 H 478.875 -1.14132 3.56265 0
M  V30 5185 H 480.208 -1.52036 4.6813 0
M  V30 5186 N 481.861 -1.55662 -0.24637 0
M  V30 5187 C 482.771 -1.93495 -1.32653 0
M  V30 5188 C 483.787 -0.835462 -1.5263 0
M  V30 5189 O 484.963 -1.1369 -1.66242 0
M  V30 5190 C 482.028 -2.22242 -2.66101 0
M  V30 5191 C 481.089 -3.45625 -2.54641 0
M  V30 5192 C 480.322 -3.72991 -3.81724 0
M  V30 5193 O 480.545 -3.02421 -4.8363 0
M  V30 5194 O 479.479 -4.66515 -3.80325 0
M  V30 5195 H 483.305 -2.85498 -1.03559 0
M  V30 5196 H 480.89 -1.42551 -0.44717 0
M  V30 5197 H 482.772 -2.42037 -3.44958 0
M  V30 5198 H 481.447 -1.33417 -2.94926 0
M  V30 5199 H 480.354 -3.31136 -1.74067 0
M  V30 5200 H 481.687 -4.34754 -2.3076 0
M  V30 5201 N 483.339 0.512053 -1.4905 0
M  V30 5202 C 484.269 1.62365 -1.67809 0
M  V30 5203 C 485.25 1.61737 -0.526809 0
M  V30 5204 O 486.435 1.78651 -0.761404 0
M  V30 5205 C 483.565 3.00895 -1.73435 0
M  V30 5206 C 482.519 3.16387 -2.88242 0
M  V30 5207 C 481.845 4.56157 -2.78971 0
M  V30 5208 C 483.145 2.97457 -4.29321 0
M  V30 5209 H 484.839 1.46921 -2.60873 0
M  V30 5210 H 482.385 0.705379 -1.2554 0
M  V30 5211 H 484.338 3.78549 -1.85145 0
M  V30 5212 H 483.062 3.17403 -0.769619 0
M  V30 5213 H 481.721 2.41155 -2.76116 0
M  V30 5214 H 481.369 4.69525 -1.8043 0
M  V30 5215 H 481.069 4.67465 -3.5602 0
M  V30 5216 H 482.593 5.35886 -2.92675 0
M  V30 5217 H 484.007 3.64888 -4.42187 0
M  V30 5218 H 482.404 3.20245 -5.07507 0
M  V30 5219 H 483.474 1.93692 -4.44535 0
M  V30 5220 N 484.817 1.37938 0.762283 0
M  V30 5221 C 486.228 1.30094 1.33912 0
M  V30 5222 C 486.579 -0.0472026 1.96143 0
M  V30 5223 O 485.704 -0.94917 1.94473 0
M  V30 5224 C 486.299 2.35592 2.43478 0
M  V30 5225 C 484.858 2.31353 2.96905 0
M  V30 5226 C 484.005 2.18919 1.70205 0
M  V30 5227 H 486.956 1.48423 0.561816 0
M  V30 5228 H 486.977 2.00806 3.23199 0
M  V30 5229 H 486.489 3.33701 1.98155 0
M  V30 5230 H 484.59 1.36799 3.46579 0
M  V30 5231 H 484.703 3.25147 3.51875 0
M  V30 5232 H 483.067 1.65624 1.93496 0
M  V30 5233 H 483.85 3.18956 1.26973 0
M  V30 5234 N 486.295 -0.989507 1.22664 0
M  V30 5235 C 487.572 -1.70326 0.961688 0
M  V30 5236 C 487.952 -2.04537 -0.522279 0
M  V30 5237 O 487.3 -1.73136 -1.49118 0
M  V30 5238 C 487.51 -2.95135 1.86269 0
M  V30 5239 C 488.858 -3.67842 2.12078 0
M  V30 5240 O 489.882 -3.0515 1.83745 0
M  V30 5241 O 488.741 -4.80644 2.60083 0
M  V30 5242 H 485.835 -0.743589 0.361946 0
M  V30 5243 H 488.381 -1.04555 1.33665 0
M  V30 5244 H 487.153 -2.66382 2.8663 0
M  V30 5245 H 486.776 -3.68645 1.48952 0
M  V30 5246 N 487.773 -1.03688 -1.18687 0
M  V30 5247 C 489.02 -0.73803 -1.88572 0
M  V30 5248 C 489.348 0.733973 -1.8012 0
M  V30 5249 O 488.603 1.55098 -1.19344 0
M  V30 5250 C 488.902 -1.14477 -3.3857 0
M  V30 5251 C 488.568 -2.61641 -3.67226 0
M  V30 5252 C 487.23 -3.01846 -3.74757 0
M  V30 5253 C 489.582 -3.56812 -3.79914 0
M  V30 5254 C 486.91 -4.36118 -3.92451 0
M  V30 5255 C 489.262 -4.90799 -3.99123 0
M  V30 5256 C 487.926 -5.3068 -4.04888 0
M  V30 5257 H 487.196 -0.270064 -0.690034 0
M  V30 5258 H 489.843 -1.3012 -1.40503 0
M  V30 5259 H 488.148 -0.500337 -3.88592 0
M  V30 5260 H 489.845 -0.89095 -3.90977 0
M  V30 5261 H 486.435 -2.29498 -3.61979 0
M  V30 5262 H 490.619 -3.26899 -3.73431 0
M  V30 5263 H 485.875 -4.66542 -3.95157 0
M  V30 5264 H 490.049 -5.64451 -4.07882 0
M  V30 5265 H 487.676 -6.34733 -4.18351 0
M  V30 5266 N 489.251 1.34841 -0.815825 0
M  V30 5267 C 490.476 2.03261 -0.41226 0
M  V30 5268 C 490.901 1.61055 0.971751 0
M  V30 5269 O 490.259 0.7917 1.63101 0
M  V30 5270 C 490.307 3.56914 -0.514289 0
M  V30 5271 O 489.411 4.09728 0.468675 0
M  V30 5272 H 488.752 0.641664 -0.170771 0
M  V30 5273 H 491.282 1.72241 -1.10427 0
M  V30 5274 H 491.292 4.06156 -0.387457 0
M  V30 5275 H 489.967 3.86982 -1.52375 0
M  V30 5276 H 488.544 3.71681 0.301316 0
M  V30 5277 N 490.729 0.570148 1.46925 0
M  V30 5278 C 491.639 -0.173061 2.33961 0
M  V30 5279 C 492.655 -0.898825 1.48987 0
M  V30 5280 O 493.831 -0.864825 1.81887 0
M  V30 5281 C 490.896 -1.18177 3.25937 0
M  V30 5282 C 489.957 -0.462041 4.26806 0
M  V30 5283 C 489.19 -1.4227 5.14388 0
M  V30 5284 O 489.413 -2.65842 5.04662 0
M  V30 5285 O 488.347 -0.940127 5.94513 0
M  V30 5286 H 492.173 0.541216 2.98839 0
M  V30 5287 H 489.758 0.330647 1.45695 0
M  V30 5288 H 491.64 -1.76372 3.82715 0
M  V30 5289 H 490.315 -1.87774 2.63671 0
M  V30 5290 H 489.222 0.161429 3.73752 0
M  V30 5291 H 490.555 0.192719 4.91823 0
M  V30 5292 N 492.207 -1.54576 0.307264 0
M  V30 5293 C 493.484 -1.92377 -0.353605 0
M  V30 5294 C 493.864 -1.23517 -1.71192 0
M  V30 5295 O 493.212 -0.373101 -2.25433 0
M  V30 5296 C 493.422 -3.45928 -0.462039 0
M  V30 5297 C 494.77 -4.18278 -0.729975 0
M  V30 5298 O 495.794 -3.51997 -0.545605 0
M  V30 5299 O 494.653 -5.3563 -1.08454 0
M  V30 5300 H 491.747 -0.802747 -0.198812 0
M  V30 5301 H 494.293 -1.65929 0.355783 0
M  V30 5302 H 493.065 -3.88187 0.492592 0
M  V30 5303 H 492.688 -3.78431 -1.21965 0
M  V30 5304 N 493.685 -0.035106 -1.57561 0
M  V30 5305 C 495.096 0.502885 -1.798 0
M  V30 5306 C 495.447 1.71892 -0.945921 0
M  V30 5307 O 494.572 2.15822 -0.157991 0
M  V30 5308 C 495.167 0.919097 -3.26095 0
M  V30 5309 C 493.726 1.40216 -3.49308 0
M  V30 5310 C 492.873 0.369709 -2.74824 0
M  V30 5311 H 495.824 -0.261102 -1.56537 0
M  V30 5312 H 495.845 1.78308 -3.36135 0
M  V30 5313 H 495.357 0.0338526 -3.88085 0
M  V30 5314 H 493.458 2.30714 -2.92578 0
M  V30 5315 H 493.571 1.40541 -4.58023 0
M  V30 5316 H 491.935 0.839113 -2.40481 0
M  V30 5317 H 492.718 -0.507173 -3.39533 0
M  V30 5318 N 495.163 1.55791 0.238111 0
M  V30 5319 C 496.391 1.82098 0.982233 0
M  V30 5320 C 496.806 0.612025 1.78605 0
M  V30 5321 O 496.163 -0.419381 1.77616 0
M  V30 5322 C 496.214 3.0673 1.91309 0
M  V30 5323 O 495.935 4.2296 1.14179 0
M  V30 5324 C 497.436 3.45903 2.77248 0
M  V30 5325 H 494.656 0.605748 0.288635 0
M  V30 5326 H 497.2 2.02862 0.258341 0
M  V30 5327 H 495.355 2.87991 2.59114 0
M  V30 5328 H 495.769 4.93653 1.7722 0
M  V30 5329 H 497.243 4.36189 3.38295 0
M  V30 5330 H 497.72 2.66891 3.48806 0
M  V30 5331 H 498.326 3.67024 2.14881 0
M  V30 5332 N 496.642 -0.504142 1.49319 0
M  V30 5333 C 497.867 -1.28729 1.62615 0
M  V30 5334 C 498.292 -1.85752 0.296309 0
M  V30 5335 O 497.65 -1.65704 -0.735649 0
M  V30 5336 C 497.698 -2.39561 2.69524 0
M  V30 5337 O 496.802 -3.43324 2.28478 0
M  V30 5338 H 496.143 -0.380172 0.544395 0
M  V30 5339 H 498.673 -0.603872 1.95485 0
M  V30 5340 H 498.683 -2.8537 2.91595 0
M  V30 5341 H 497.358 -1.97423 3.66056 0
M  V30 5342 H 495.935 -3.03455 2.16725 0
M  V30 5343 N 498.12 -1.38341 -0.754957 0
M  V30 5344 C 499.345 -1.37882 -1.5493 0
M  V30 5345 C 499.77 0.0296385 -1.88077 0
M  V30 5346 O 499.128 1.01133 -1.50472 0
M  V30 5347 C 499.176 -2.23996 -2.82592 0
M  V30 5348 O 498.28 -1.65612 -3.77686 0
M  V30 5349 H 497.621 -0.470384 -0.468652 0
M  V30 5350 H 500.151 -1.82084 -0.933082 0
M  V30 5351 H 500.161 -2.37806 -3.3153 0
M  V30 5352 H 498.836 -3.26365 -2.57796 0
M  V30 5353 H 497.413 -1.60936 -3.36384 0
M  V30 5354 N 499.598 0.982988 -1.23187 0
M  V30 5355 C 500.846 1.72052 -1.06031 0
M  V30 5356 C 501.167 1.90769 0.404019 0
M  V30 5357 O 500.437 1.47446 1.28982 0
M  V30 5358 H 499.017 0.637499 -0.389363 0
M  V30 5359 H 501.679 1.18338 -1.54862 0
M  V30 5360 H 500.775 2.7111 -1.54615 0
M  V30 5361 N 501.076 1.04316 1.18135 0
M  V30 5362 C 502.006 0.657299 2.24058 0
M  V30 5363 C 502.987 -0.340678 1.66654 0
M  V30 5364 O 504.172 -0.220223 1.92947 0
M  V30 5365 C 501.302 0.0220715 3.47293 0
M  V30 5366 C 500.256 0.943857 4.17463 0
M  V30 5367 C 499.582 0.172973 5.3442 0
M  V30 5368 C 500.882 2.26409 4.70677 0
M  V30 5369 H 502.576 1.5428 2.56589 0
M  V30 5370 H 500.122 0.743263 1.23335 0
M  V30 5371 H 502.075 -0.259607 4.206 0
M  V30 5372 H 500.799 -0.898323 3.14003 0
M  V30 5373 H 499.458 1.20996 3.46057 0
M  V30 5374 H 499.106 -0.749907 4.97379 0
M  V30 5375 H 498.806 0.787098 5.82304 0
M  V30 5376 H 500.33 -0.101628 6.10515 0
M  V30 5377 H 501.744 2.04294 5.35665 0
M  V30 5378 H 500.141 2.8314 5.29105 0
M  V30 5379 H 501.211 2.90883 3.87962 0
M  V30 5380 N 502.554 -1.34406 0.822964 0
M  V30 5381 C 503.484 -2.32052 0.259608 0
M  V30 5382 C 504.465 -1.58243 -0.623961 0
M  V30 5383 O 505.65 -1.86224 -0.55083 0
M  V30 5384 C 502.78 -3.42434 -0.579314 0
M  V30 5385 C 501.734 -4.27499 0.20712 0
M  V30 5386 C 501.06 -5.29349 -0.754547 0
M  V30 5387 C 502.36 -5.02758 1.41533 0
M  V30 5388 H 504.054 -2.79418 1.07545 0
M  V30 5389 H 501.6 -1.34338 0.518593 0
M  V30 5390 H 503.553 -4.0976 -0.983612 0
M  V30 5391 H 502.277 -2.93717 -1.4282 0
M  V30 5392 H 500.936 -3.61776 0.592787 0
M  V30 5393 H 500.584 -4.76895 -1.59939 0
M  V30 5394 H 500.284 -5.8714 -0.232561 0
M  V30 5395 H 501.808 -5.99544 -1.1567 0
M  V30 5396 H 503.222 -5.62938 1.08504 0
M  V30 5397 H 501.619 -5.70123 1.87296 0
M  V30 5398 H 502.689 -4.32451 2.1935 0
M  V30 5399 N 504.032 -0.577932 -1.46621 0
M  V30 5400 C 504.995 0.147805 -2.28723 0
M  V30 5401 C 505.995 0.823325 -1.38123 0
M  V30 5402 O 507.185 0.676011 -1.60548 0
M  V30 5403 C 504.317 1.21853 -3.18378 0
M  V30 5404 H 505.51 -0.573654 -2.94362 0
M  V30 5405 H 503.063 -0.335703 -1.52652 0
M  V30 5406 H 503.798 1.97173 -2.57475 0
M  V30 5407 H 503.583 0.738714 -3.85078 0
M  V30 5408 H 505.073 1.72768 -3.80186 0
M  V30 5409 N 505.51 1.54411 -0.315457 0
M  V30 5410 C 506.473 2.22713 0.54142 0
M  V30 5411 C 507.473 1.2179 1.04995 0
M  V30 5412 O 508.663 1.46426 0.943667 0
M  V30 5413 C 505.795 2.92485 1.75116 0
M  V30 5414 H 506.988 2.99849 -0.0555508 0
M  V30 5415 H 504.541 1.56159 -0.0664453 0
M  V30 5416 H 505.276 2.19466 2.38758 0
M  V30 5417 H 505.061 3.66483 1.39401 0
M  V30 5418 H 506.551 3.44548 2.35959 0
M  V30 5419 N 506.988 0.0434614 1.5754 0
M  V30 5420 C 507.898 -0.94893 2.14552 0
M  V30 5421 C 508.914 -1.34707 1.10136 0
M  V30 5422 O 510.09 -1.42557 1.42266 0
M  V30 5423 C 507.155 -2.208 2.67298 0
M  V30 5424 C 506.216 -1.86893 3.86484 0
M  V30 5425 C 505.449 -3.06797 4.36705 0
M  V30 5426 O 505.672 -4.19921 3.86034 0
M  V30 5427 O 504.606 -2.8826 5.28384 0
M  V30 5428 H 508.432 -0.494099 2.99654 0
M  V30 5429 H 506.017 -0.177989 1.48336 0
M  V30 5430 H 507.899 -2.94686 3.01228 0
M  V30 5431 H 506.574 -2.65436 1.85272 0
M  V30 5432 H 505.481 -1.10347 3.57455 0
M  V30 5433 H 506.814 -1.47062 4.69716 0
M  V30 5434 N 508.466 -1.55915 -0.229846 0
M  V30 5435 C 509.882 -1.48721 -0.579166 0
M  V30 5436 C 510.082 -0.736976 -1.87539 0
M  V30 5437 O 509.138 -0.273258 -2.51017 0
M  V30 5438 C 510.451 -2.9323 -0.666082 0
M  V30 5439 C 511.999 -3.03701 -0.757267 0
M  V30 5440 C 512.474 -4.49552 -0.8756 0
M  V30 5441 N 513.965 -4.53561 -0.940035 0
M  V30 5442 C 514.7 -5.63683 -1.05116 0
M  V30 5443 N 514.196 -6.83576 -1.12675 0
M  V30 5444 N 515.989 -5.51516 -1.08565 0
M  V30 5445 H 508.14 -2.03123 0.620857 0
M  V30 5446 H 510.403 -0.922898 0.21671 0
M  V30 5447 H 510.109 -3.51032 0.21664 0
M  V30 5448 H 509.983 -3.44668 -1.53243 0
M  V30 5449 H 512.37 -2.45969 -1.63043 0
M  V30 5450 H 512.451 -2.55446 0.134583 0
M  V30 5451 H 512.095 -5.079 -0.00692351 0
M  V30 5452 H 512.025 -4.95506 -1.78274 0
M  V30 5453 H 514.516 -3.67215 -0.892269 0
M  V30 5454 H 514.829 -7.63251 -1.21109 0
M  V30 5455 H 513.174 -6.86303 -1.09603 0
M  V30 5456 H 516.365 -4.5678 -1.02319 0
M  V30 5457 H 516.538 -6.37372 -1.1688 0
M  V30 5458 N 509.944 0.496216 -1.49584 0
M  V30 5459 C 510.907 1.57952 -1.66084 0
M  V30 5460 C 511.907 1.51729 -0.53244 0
M  V30 5461 O 513.097 1.54796 -0.79899 0
M  V30 5462 C 510.229 2.97604 -1.66268 0
M  V30 5463 H 511.422 1.44649 -2.6271 0
M  V30 5464 H 508.975 0.7208 -1.38687 0
M  V30 5465 H 509.71 3.16378 -0.712432 0
M  V30 5466 H 509.495 3.03528 -2.4822 0
M  V30 5467 H 510.985 3.76301 -1.81073 0
M  V30 5468 N 511.423 1.38739 0.74761 0
M  V30 5469 C 512.669 1.35475 1.50912 0
M  V30 5470 C 513.002 -0.0533093 1.94127 0
M  V30 5471 O 512.277 -1.01572 1.65871 0
M  V30 5472 C 512.56 2.31582 2.75757 0
M  V30 5473 C 512.413 3.81274 2.38642 0
M  V30 5474 C 513.732 2.25722 3.77806 0
M  V30 5475 H 510.851 0.493427 0.547447 0
M  V30 5476 H 513.493 1.69634 0.855823 0
M  V30 5477 H 511.643 2.02582 3.31501 0
M  V30 5478 H 513.315 4.20972 1.88626 0
M  V30 5479 H 511.558 3.98664 1.71025 0
M  V30 5480 H 512.229 4.4399 3.27989 0
M  V30 5481 H 514.705 2.51336 3.31616 0
M  V30 5482 H 513.581 2.95069 4.62845 0
M  V30 5483 H 513.842 1.25803 4.23823 0
M  V30 5484 N 512.901 -0.976442 1.23707 0
M  V30 5485 C 514.126 -1.75875 1.09922 0
M  V30 5486 C 514.551 -1.84911 -0.34489 0
M  V30 5487 O 513.909 -1.31363 -1.24954 0
M  V30 5488 C 513.957 -3.16179 1.73388 0
M  V30 5489 O 513.061 -4.00124 0.99871 0
M  V30 5490 H 512.402 -0.540954 0.385052 0
M  V30 5491 H 514.932 -1.22546 1.6384 0
M  V30 5492 H 514.942 -3.66741 1.78788 0
M  V30 5493 H 513.617 -3.08917 2.78466 0
M  V30 5494 H 512.194 -3.58624 1.02193 0
M  V30 5495 N 514.379 -1.04941 -1.1758 0
M  V30 5496 C 515.311 -0.606174 -2.21039 0
M  V30 5497 C 516.324 0.328763 -1.59446 0
M  V30 5498 O 517.513 0.121895 -1.78083 0
M  V30 5499 C 514.613 0.133294 -3.38638 0
M  V30 5500 C 513.786 -0.811711 -4.29802 0
M  V30 5501 C 512.845 -0.113958 -5.26077 0
M  V30 5502 O 511.871 -0.747237 -5.64274 0
M  V30 5503 N 513.073 1.14953 -5.69004 0
M  V30 5504 H 515.838 -1.49606 -2.59689 0
M  V30 5505 H 513.399 -0.930997 -1.32454 0
M  V30 5506 H 515.391 0.610144 -4.00074 0
M  V30 5507 H 513.961 0.924816 -2.98607 0
M  V30 5508 H 513.181 -1.46824 -3.65837 0
M  V30 5509 H 514.469 -1.45326 -4.87604 0
M  V30 5510 H 513.867 1.68441 -5.40041 0
M  V30 5511 H 512.424 1.57049 -6.32597 0
M  V30 5512 N 515.857 1.33968 -0.830081 0
M  V30 5513 C 517.103 1.98357 -0.422191 0
M  V30 5514 C 517.436 1.65633 1.01387 0
M  V30 5515 O 516.711 0.931648 1.70735 0
M  V30 5516 C 516.994 3.54492 -0.633043 0
M  V30 5517 C 516.847 3.96934 -2.11574 0
M  V30 5518 C 518.166 4.40039 -0.0735584 0
M  V30 5519 H 515.285 0.720544 -0.154871 0
M  V30 5520 H 517.927 1.58749 -1.04397 0
M  V30 5521 H 516.077 3.88361 -0.103775 0
M  V30 5522 H 517.749 3.73363 -2.7092 0
M  V30 5523 H 515.992 3.46984 -2.60354 0
M  V30 5524 H 516.663 5.05651 -2.21406 0
M  V30 5525 H 519.139 4.12764 -0.52585 0
M  V30 5526 H 518.015 5.48327 -0.250841 0
M  V30 5527 H 518.276 4.30124 1.02202 0
M  V30 5528 N 517.335 0.585699 1.46312 0
M  V30 5529 C 518.265 -0.133556 2.33118 0
M  V30 5530 C 519.246 -0.880707 1.45525 0
M  V30 5531 O 520.431 -0.855579 1.74337 0
M  V30 5532 C 517.561 -1.14585 3.27853 0
M  V30 5533 C 516.515 -0.513341 4.2491 0
M  V30 5534 C 515.841 -1.63231 5.09175 0
M  V30 5535 C 517.141 0.551413 5.19381 0
M  V30 5536 H 518.835 0.59121 2.93505 0
M  V30 5537 H 516.381 0.285761 1.41136 0
M  V30 5538 H 518.334 -1.65741 3.87438 0
M  V30 5539 H 517.058 -1.90093 2.65579 0
M  V30 5540 H 515.717 -0.0228349 3.66593 0
M  V30 5541 H 515.365 -2.37713 4.43285 0
M  V30 5542 H 515.065 -1.21473 5.74907 0
M  V30 5543 H 516.589 -2.14658 5.71624 0
M  V30 5544 H 518.003 0.124804 5.73164 0
M  V30 5545 H 516.4 0.889486 5.93471 0
M  V30 5546 H 517.47 1.43655 4.63132 0
M  V30 5547 N 518.813 -1.54241 0.323641 0
M  V30 5548 C 520.09 -1.92741 -0.333181 0
M  V30 5549 C 520.47 -1.25326 -1.69872 0
M  V30 5550 O 519.818 -0.396991 -2.25025 0
M  V30 5551 C 520.028 -3.46399 -0.425322 0
M  V30 5552 C 521.376 -4.19029 -0.68557 0
M  V30 5553 O 522.4 -3.52555 -0.50824 0
M  V30 5554 O 521.259 -5.36751 -1.02767 0
M  V30 5555 H 518.353 -0.804811 -0.190286 0
M  V30 5556 H 520.899 -1.65542 0.373361 0
M  V30 5557 H 519.671 -3.87643 0.533737 0
M  V30 5558 H 519.294 -3.79704 -1.17944 0
M  V30 5559 N 520.291 -0.0518155 -1.57515 0
M  V30 5560 C 521.516 0.634896 -1.97443 0
M  V30 5561 C 521.941 1.63546 -0.929207 0
M  V30 5562 O 521.299 1.80981 0.107484 0
M  V30 5563 C 521.347 1.29765 -3.36442 0
M  V30 5564 O 520.451 2.41333 -3.34413 0
M  V30 5565 H 519.792 0.164994 -0.643174 0
M  V30 5566 H 522.322 -0.120407 -2.04245 0
M  V30 5567 H 522.332 1.64918 -3.73184 0
M  V30 5568 H 521.007 0.564361 -4.12053 0
M  V30 5569 H 519.584 2.08122 -3.09418 0
M  V30 5570 N 521.769 1.56035 0.221574 0
M  V30 5571 C 522.699 1.95434 1.2778 0
M  V30 5572 C 523.68 0.822564 1.48889 0
M  V30 5573 O 524.865 1.08486 1.61072 0
M  V30 5574 C 521.995 2.27102 2.62759 0
M  V30 5575 C 520.949 3.4277 2.56306 0
M  V30 5576 C 520.275 3.60043 3.95314 0
M  V30 5577 C 521.575 4.77742 2.11093 0
M  V30 5578 H 523.269 2.83912 0.950504 0
M  V30 5579 H 520.815 1.36596 0.455791 0
M  V30 5580 H 522.768 2.53256 3.36807 0
M  V30 5581 H 521.492 1.35478 2.97176 0
M  V30 5582 H 520.151 3.16664 1.84715 0
M  V30 5583 H 519.799 2.65794 4.27039 0
M  V30 5584 H 519.499 4.37841 3.91879 0
M  V30 5585 H 521.023 3.88545 4.71025 0
M  V30 5586 H 522.437 5.03102 2.74885 0
M  V30 5587 H 520.834 5.58823 2.18716 0
M  V30 5588 H 521.904 4.731 1.06321 0
M  V30 5589 N 523.247 -0.488276 1.49845 0
M  V30 5590 C 524.157 -1.61451 1.70207 0
M  V30 5591 C 525.173 -1.63877 0.584846 0
M  V30 5592 O 526.349 -1.82063 0.861107 0
M  V30 5593 C 523.414 -2.9776 1.77594 0
M  V30 5594 C 522.475 -3.05861 3.01243 0
M  V30 5595 C 521.708 -4.35668 3.08268 0
M  V30 5596 O 521.931 -5.25197 2.22541 0
M  V30 5597 O 520.865 -4.49005 4.00847 0
M  V30 5598 H 524.691 -1.47199 2.65643 0
M  V30 5599 H 522.276 -0.665939 1.33737 0
M  V30 5600 H 524.158 -3.7875 1.84732 0
M  V30 5601 H 522.833 -3.12248 0.8534 0
M  V30 5602 H 521.74 -2.24012 2.99616 0
M  V30 5603 H 523.073 -2.96304 3.9302 0
M  V30 5604 N 524.725 -1.39134 -0.740242 0
M  V30 5605 C 525.635 -1.39697 -1.88473 0
M  V30 5606 C 526.651 -0.292403 -1.71526 0
M  V30 5607 O 527.827 -0.533021 -1.94219 0
M  V30 5608 C 524.892 -1.23382 -3.24003 0
M  V30 5609 C 523.953 -2.43763 -3.53381 0
M  V30 5610 C 523.186 -2.28216 -4.82445 0
M  V30 5611 O 523.409 -1.28288 -5.55786 0
M  V30 5612 O 522.343 -3.1709 -5.11603 0
M  V30 5613 H 526.169 -2.36159 -1.90952 0
M  V30 5614 H 523.754 -1.20194 -0.887346 0
M  V30 5615 H 525.636 -1.16395 -4.05006 0
M  V30 5616 H 524.311 -0.300121 -3.22306 0
M  V30 5617 H 523.218 -2.56325 -2.72485 0
M  V30 5618 H 524.551 -3.35808 -3.59852 0
M  V30 5619 N 526.204 0.969867 -1.24223 0
M  V30 5620 C 527.453 1.70687 -1.07466 0
M  V30 5621 C 527.766 1.91736 0.386861 0
M  V30 5622 O 528.972 2.62986 0.674581 0
M  V30 5623 C 527.428 3.07217 -1.87472 0
M  V30 5624 C 527.036 2.94018 -3.3802 0
M  V30 5625 C 528.78 3.84804 -1.79237 0
M  V30 5626 C 526.687 4.25844 -4.10379 0
M  V30 5627 H 525.617 0.640067 -0.398536 0
M  V30 5628 H 528.268 1.08092 -1.48285 0
M  V30 5629 H 526.65 3.70628 -1.39466 0
M  V30 5630 H 527.824 2.39632 -3.9359 0
M  V30 5631 H 526.139 2.29898 -3.47183 0
M  V30 5632 H 528.736 4.82417 -2.30603 0
M  V30 5633 H 529.079 4.09356 -0.757197 0
M  V30 5634 H 529.612 3.28115 -2.24912 0
M  V30 5635 H 526.351 4.06486 -5.14246 0
M  V30 5636 H 525.871 4.80054 -3.59594 0
M  V30 5637 H 527.55 4.94475 -4.17257 0
M  V30 5638 N 527.682 1.05563 1.17022 0
M  V30 5639 C 528.632 0.630007 2.19123 0
M  V30 5640 C 529.616 -0.335472 1.57364 0
M  V30 5641 O 530.808 -0.1521 1.76345 0
M  V30 5642 C 527.937 0.0101676 3.43298 0
M  V30 5643 C 527.023 0.999698 4.12149 0
M  V30 5644 N 527.414 2.17251 4.56766 0
M  V30 5645 C 525.712 0.829 4.38228 0
M  V30 5646 C 526.413 2.79883 5.09942 0
M  V30 5647 N 525.389 2.07656 5.02374 0
M  V30 5648 H 529.191 1.52353 2.51328 0
M  V30 5649 H 526.705 0.926288 1.33393 0
M  V30 5650 H 528.702 -0.312541 4.15727 0
M  V30 5651 H 527.362 -0.878707 3.12584 0
M  V30 5652 H 528.373 2.55067 4.50734 0
M  V30 5653 H 525.05 -0.00850974 4.17499 0
M  V30 5654 H 526.44 3.79362 5.54558 0
M  V30 5655 N 529.16 -1.33526 0.837174 0
M  V30 5656 C 530.123 -2.27551 0.274421 0
M  V30 5657 C 531.123 -1.50886 -0.555881 0
M  V30 5658 O 532.313 -1.70227 -0.369918 0
M  V30 5659 C 529.445 -3.35332 -0.613605 0
M  V30 5660 H 530.638 -2.78837 1.10408 0
M  V30 5661 H 528.191 -1.439 0.610126 0
M  V30 5662 H 528.926 -2.89285 -1.46577 0
M  V30 5663 H 528.711 -3.92095 -0.0195341 0
M  V30 5664 H 530.201 -4.05433 -1.00068 0
M  V30 5665 N 530.638 -0.59345 -1.46 0
M  V30 5666 C 531.568 0.121192 -2.33185 0
M  V30 5667 C 532.549 0.872977 -1.4599 0
M  V30 5668 O 533.734 0.846321 -1.74789 0
M  V30 5669 C 530.864 1.12844 -3.28456 0
M  V30 5670 C 529.818 0.4908 -4.25177 0
M  V30 5671 C 529.144 1.60529 -5.10034 0
M  V30 5672 C 530.444 -0.578949 -5.19081 0
M  V30 5673 H 532.138 -0.606767 -2.93187 0
M  V30 5674 H 529.684 -0.293242 -1.40983 0
M  V30 5675 H 531.637 1.63684 -3.88311 0
M  V30 5676 H 530.361 1.88681 -2.66584 0
M  V30 5677 H 529.02 0.00339328 -3.666 0
M  V30 5678 H 528.668 2.35359 -4.44539 0
M  V30 5679 H 528.368 1.18422 -5.75543 0
M  V30 5680 H 529.892 2.11623 -5.72755 0
M  V30 5681 H 531.306 -0.155199 -5.7309 0
M  V30 5682 H 529.703 -0.920947 -5.92991 0
M  V30 5683 H 530.773 -1.46109 -4.62364 0
M  V30 5684 N 532.116 1.54067 -0.331816 0
M  V30 5685 C 533.344 2.05131 0.269996 0
M  V30 5686 C 533.759 1.20749 1.45138 0
M  V30 5687 O 533.116 0.240069 1.80914 0
M  V30 5688 C 533.167 3.54728 0.696456 0
M  V30 5689 O 532.888 4.35906 -0.43794 0
M  V30 5690 C 534.389 4.21916 1.36021 0
M  V30 5691 H 531.609 0.668807 0.0542042 0
M  V30 5692 H 534.153 1.98777 -0.4804 0
M  V30 5693 H 532.308 3.61342 1.39681 0
M  V30 5694 H 532.722 5.24404 -0.100334 0
M  V30 5695 H 534.196 5.28015 1.60947 0
M  V30 5696 H 534.673 3.73538 2.31011 0
M  V30 5697 H 535.279 4.19463 0.702212 0
M  V30 5698 N 533.594 0.0601682 1.57485 0
M  V30 5699 C 534.871 -0.651956 1.84415 0
M  V30 5700 C 535.251 -1.88498 0.950361 0
M  V30 5701 O 534.599 -2.28496 0.0136719 0
M  V30 5702 C 534.809 -1.00069 3.34346 0
M  V30 5703 C 536.157 -1.37915 4.01578 0
M  V30 5704 O 537.181 -1.09277 3.39024 0
M  V30 5705 O 536.04 -1.91399 5.11887 0
M  V30 5706 H 533.134 -0.322668 0.761455 0
M  V30 5707 H 535.68 0.0902159 1.6946 0
M  V30 5708 H 534.452 -0.124463 3.91102 0
M  V30 5709 H 534.075 -1.80001 3.54521 0
M  V30 5710 N 535.072 -1.5615 -0.213296 0
M  V30 5711 C 536.312 -1.81325 -0.943435 0
M  V30 5712 C 536.676 -0.634934 -1.81198 0
M  V30 5713 O 537.877 -0.766166 -2.5765 0
M  V30 5714 C 536.148 -3.11437 -1.75334 0
M  V30 5715 S 537.707 -3.57955 -2.53799 0
M  V30 5716 H 534.525 -0.636538 -0.316766 0
M  V30 5717 H 537.127 -1.94387 -0.208313 0
M  V30 5718 H 535.831 -3.95228 -1.10556 0
M  V30 5719 H 535.362 -3.01204 -2.53061 0
M  V30 5720 H 537.377 -3.21947 -3.77577 0
M  V30 5721 N 536.55 0.480323 -1.50102 0
M  V30 5722 C 537.775 1.26126 -1.64642 0
M  V30 5723 C 538.2 1.85257 -0.325823 0
M  V30 5724 O 537.558 1.66854 0.709194 0
M  V30 5725 C 537.606 2.35243 -2.73301 0
M  V30 5726 O 536.71 3.39646 -2.33911 0
M  V30 5727 H 536.051 0.371463 -0.550374 0
M  V30 5728 H 538.581 0.572696 -1.96421 0
M  V30 5729 H 538.591 2.80695 -2.96098 0
M  V30 5730 H 537.266 1.91574 -3.6915 0
M  V30 5731 H 535.843 2.99969 -2.21525 0
M  V30 5732 N 538.028 1.39524 0.732853 0
M  V30 5733 C 538.938 1.40695 1.87729 0
M  V30 5734 C 539.954 0.301496 1.71368 0
M  V30 5735 O 541.13 0.543313 1.93933 0
M  V30 5736 C 538.195 1.25098 3.23344 0
M  V30 5737 C 537.256 2.45634 3.52083 0
M  V30 5738 C 536.489 2.30772 4.81228 0
M  V30 5739 O 536.712 1.31233 5.55098 0
M  V30 5740 O 535.646 3.19799 5.09914 0
M  V30 5741 H 539.472 2.37168 1.89697 0
M  V30 5742 H 537.057 1.20663 0.880959 0
M  V30 5743 H 538.939 1.18541 4.04383 0
M  V30 5744 H 537.614 0.317209 3.22142 0
M  V30 5745 H 536.521 2.57767 2.71122 0
M  V30 5746 H 537.854 3.37712 3.58066 0
M  V30 5747 N 539.506 -0.963266 1.24736 0
M  V30 5748 C 540.453 -2.05857 1.04363 0
M  V30 5749 C 541.423 -1.6604 -0.0444951 0
M  V30 5750 O 542.608 -1.90477 0.110999 0
M  V30 5751 C 539.748 -3.38745 0.659235 0
M  V30 5752 C 538.861 -3.9173 1.82131 0
M  V30 5753 C 537.996 -5.12906 1.38208 0
M  V30 5754 C 537.035 -5.58098 2.51382 0
M  V30 5755 N 536.172 -6.7049 2.08295 0
M  V30 5756 H 541.012 -2.22616 1.98107 0
M  V30 5757 H 538.549 -1.09103 0.986661 0
M  V30 5758 H 540.507 -4.15107 0.417371 0
M  V30 5759 H 539.137 -3.21898 -0.241201 0
M  V30 5760 H 538.189 -3.11966 2.17672 0
M  V30 5761 H 539.501 -4.21225 2.67153 0
M  V30 5762 H 538.655 -5.96657 1.09935 0
M  V30 5763 H 537.394 -4.85105 0.502456 0
M  V30 5764 H 536.399 -4.72917 2.80409 0
M  V30 5765 H 537.624 -5.87911 3.39909 0
M  V30 5766 H 535.57 -6.44416 1.22737 0
M  V30 5767 H 535.487 -6.99458 2.86869 0
M  V30 5768 H 536.755 -7.57672 1.83175 0
M  V30 5769 N 540.985 -1.06182 -1.16461 0
M  V30 5770 C 542.262 -0.691364 -1.82974 0
M  V30 5771 C 542.642 0.827377 -1.9421 0
M  V30 5772 O 541.99 1.73723 -1.48434 0
M  V30 5773 C 542.2 -1.39199 -3.20038 0
M  V30 5774 C 543.548 -1.53647 -3.95825 0
M  V30 5775 O 544.572 -1.35181 -3.29552 0
M  V30 5776 O 543.431 -1.83932 -5.14618 0
M  V30 5777 H 540.525 -0.244605 -0.789998 0
M  V30 5778 H 543.071 -1.16203 -1.23673 0
M  V30 5779 H 541.843 -2.42766 -3.06888 0
M  V30 5780 H 541.466 -0.911335 -3.87015 0
M  V30 5781 N 542.463 1.3308 -0.844243 0
M  V30 5782 C 543.393 2.3161 -0.296493 0
M  V30 5783 C 544.374 1.59215 0.598707 0
M  V30 5784 O 545.559 1.87077 0.521134 0
M  V30 5785 C 542.689 3.43313 0.524762 0
M  V30 5786 C 541.643 4.27115 -0.275106 0
M  V30 5787 C 540.969 5.30483 0.670236 0
M  V30 5788 C 542.269 5.00443 -1.49514 0
M  V30 5789 H 543.963 2.77672 -1.11976 0
M  V30 5790 H 541.509 1.33496 -0.539899 0
M  V30 5791 H 543.462 4.11273 0.918298 0
M  V30 5792 H 542.186 2.95952 1.3813 0
M  V30 5793 H 540.845 3.60787 -0.650267 0
M  V30 5794 H 540.493 4.79379 1.52332 0
M  V30 5795 H 540.193 5.87435 0.139123 0
M  V30 5796 H 541.717 6.01308 1.06117 0
M  V30 5797 H 543.131 5.61141 -1.17447 0
M  V30 5798 H 541.528 5.67071 -1.96343 0
M  V30 5799 H 542.598 4.28906 -2.26202 0
M  V30 5800 N 543.941 0.601185 1.45683 0
M  V30 5801 C 545.218 0.0261659 1.95582 0
M  V30 5802 C 545.598 -1.4399 1.5437 0
M  V30 5803 O 544.946 -2.13919 0.80318 0
M  V30 5804 C 545.156 0.217557 3.48321 0
M  V30 5805 C 546.504 0.0950076 4.24494 0
M  V30 5806 O 547.528 0.147345 3.55895 0
M  V30 5807 O 546.387 -0.025261 5.46494 0
M  V30 5808 H 543.481 -0.0393688 0.826062 0
M  V30 5809 H 546.027 0.670798 1.55879 0
M  V30 5810 H 544.799 1.23601 3.71266 0
M  V30 5811 H 544.422 -0.46264 3.94899 0
M  V30 5812 N 545.419 -1.53889 0.339982 0
M  V30 5813 C 546.666 -2.00855 -0.257621 0
M  V30 5814 C 546.994 -1.22788 -1.50842 0
M  V30 5815 O 546.249 -0.302567 -1.93347 0
M  V30 5816 C 546.548 -3.51968 -0.620735 0
M  V30 5817 C 546.214 -4.47741 0.532771 0
M  V30 5818 C 544.876 -4.73645 0.849339 0
M  V30 5819 C 547.228 -5.04551 1.3068 0
M  V30 5820 C 544.556 -5.53614 1.94237 0
M  V30 5821 C 546.908 -5.85713 2.39005 0
M  V30 5822 C 545.572 -6.09912 2.71225 0
M  V30 5823 H 544.842 -0.734979 -0.0942703 0
M  V30 5824 H 547.489 -1.85714 0.467159 0
M  V30 5825 H 545.794 -3.64921 -1.42618 0
M  V30 5826 H 547.491 -3.85762 -1.09495 0
M  V30 5827 H 544.081 -4.27711 0.275973 0
M  V30 5828 H 548.265 -4.84507 1.07549 0
M  V30 5829 H 543.521 -5.7059 2.19628 0
M  V30 5830 H 547.695 -6.28748 2.99415 0
M  V30 5831 H 545.322 -6.71665 3.56047 0
M  V30 5832 N 546.897 -0.0685191 -1.57451 0
M  V30 5833 C 547.827 0.89747 -2.15564 0
M  V30 5834 C 548.808 1.31266 -1.08181 0
M  V30 5835 O 549.993 1.38429 -1.36202 0
M  V30 5836 C 547.123 2.16623 -2.71463 0
M  V30 5837 C 546.077 1.89054 -3.83982 0
M  V30 5838 C 545.403 3.22532 -4.26471 0
M  V30 5839 C 546.703 1.1984 -5.08366 0
M  V30 5840 H 548.397 0.413373 -2.96533 0
M  V30 5841 H 545.943 0.197391 -1.42641 0
M  V30 5842 H 547.896 2.84614 -3.10761 0
M  V30 5843 H 546.62 2.67269 -1.8771 0
M  V30 5844 H 545.279 1.23469 -3.45183 0
M  V30 5845 H 544.927 3.71013 -3.39644 0
M  V30 5846 H 544.627 3.04879 -5.02317 0
M  V30 5847 H 546.151 3.91727 -4.68383 0
M  V30 5848 H 547.565 1.77896 -5.45001 0
M  V30 5849 H 545.962 1.12456 -5.89469 0
M  V30 5850 H 547.032 0.176996 -4.84577 0
M  V30 5851 N 548.375 1.56261 0.205012 0
M  V30 5852 C 549.325 1.90155 1.25798 0
M  V30 5853 C 550.309 0.766227 1.41484 0
M  V30 5854 O 551.501 1.02893 1.44021 0
M  V30 5855 C 548.63 2.23603 2.60493 0
M  V30 5856 C 547.716 3.43568 2.48639 0
M  V30 5857 N 548.107 4.61747 2.06455 0
M  V30 5858 C 546.405 3.4751 2.79558 0
M  V30 5859 C 547.106 5.43907 2.06253 0
M  V30 5860 N 546.082 4.84051 2.47377 0
M  V30 5861 H 549.884 2.79031 0.922986 0
M  V30 5862 H 547.398 1.57048 0.413501 0
M  V30 5863 H 549.395 2.46067 3.36537 0
M  V30 5864 H 548.055 1.36049 2.94823 0
M  V30 5865 H 549.066 4.86598 1.77321 0
M  V30 5866 H 545.743 2.70345 3.18151 0
M  V30 5867 H 547.133 6.48542 1.75622 0
M  V30 5868 N 549.853 -0.472356 1.50355 0
M  V30 5869 C 551.078 -1.25251 1.65309 0
M  V30 5870 C 551.503 -1.85081 0.335643 0
M  V30 5871 O 550.861 -1.67227 -0.700335 0
M  V30 5872 C 550.909 -2.3379 2.74544 0
M  V30 5873 O 550.013 -3.38401 2.35709 0
M  V30 5874 H 549.354 -0.368539 0.552336 0
M  V30 5875 H 551.884 -0.562271 1.96722 0
M  V30 5876 H 551.894 -2.79121 2.97583 0
M  V30 5877 H 550.569 -1.89614 3.70161 0
M  V30 5878 H 549.146 -2.9879 2.23112 0
M  V30 5879 N 551.331 -1.39911 -0.725443 0
M  V30 5880 C 552.577 -1.37858 -1.48738 0
M  V30 5881 C 552.91 0.0224187 -1.94187 0
M  V30 5882 O 552.185 0.989204 -1.67466 0
M  V30 5883 C 552.468 -2.3594 -2.72038 0
M  V30 5884 C 552.321 -3.85023 -2.32546 0
M  V30 5885 C 553.64 -2.31704 -3.74167 0
M  V30 5886 H 550.759 -0.502074 -0.539528 0
M  V30 5887 H 553.401 -1.70974 -0.828728 0
M  V30 5888 H 551.551 -2.0783 -3.28236 0
M  V30 5889 H 553.223 -4.2392 -1.81905 0
M  V30 5890 H 551.466 -4.01334 -1.64661 0
M  V30 5891 H 552.137 -4.49152 -3.20884 0
M  V30 5892 H 554.613 -2.5658 -3.27576 0
M  V30 5893 H 553.489 -3.02395 -4.58092 0
M  V30 5894 H 553.75 -1.3253 -4.21768 0
M  V30 5895 N 552.809 0.956637 -1.25245 0
M  V30 5896 C 554.056 1.701 -1.09874 0
M  V30 5897 C 554.384 1.91128 0.36062 0
M  V30 5898 O 553.639 1.47837 1.28229 0
M  V30 5899 C 553.938 3.08996 -1.79601 0
M  V30 5900 C 553.604 3.07774 -3.29523 0
M  V30 5901 C 552.266 3.07149 -3.70423 0
M  V30 5902 C 554.618 3.01257 -4.25316 0
M  V30 5903 C 551.946 2.97752 -5.0553 0
M  V30 5904 C 554.298 2.93403 -5.60444 0
M  V30 5905 C 552.962 2.91111 -6.00675 0
M  V30 5906 H 552.232 0.62244 -0.402056 0
M  V30 5907 H 554.879 1.1178 -1.55491 0
M  V30 5908 H 553.184 3.70848 -1.26408 0
M  V30 5909 H 554.881 3.65407 -1.65162 0
M  V30 5910 H 551.471 3.09032 -2.9698 0
M  V30 5911 H 555.655 3.00861 -3.9471 0
M  V30 5912 H 550.911 2.94346 -5.35883 0
M  V30 5913 H 555.085 2.87321 -6.34366 0
M  V30 5914 H 552.712 2.83586 -7.05325 0
M  V30 5915 N 554.287 1.06798 1.15896 0
M  V30 5916 C 555.219 0.641263 2.20046 0
M  V30 5917 C 556.232 -0.303355 1.59949 0
M  V30 5918 O 557.421 -0.0935478 1.78255 0
M  V30 5919 C 554.521 -0.0794029 3.38807 0
M  V30 5920 C 553.694 0.879986 4.28457 0
M  V30 5921 C 552.753 0.197638 5.25829 0
M  V30 5922 O 551.779 0.836913 5.63014 0
M  V30 5923 N 552.981 -1.05886 5.70761 0
M  V30 5924 H 555.746 1.53718 2.57276 0
M  V30 5925 H 553.307 0.951951 1.30956 0
M  V30 5926 H 555.299 -0.546418 4.00994 0
M  V30 5927 H 553.869 -0.877193 3.0004 0
M  V30 5928 H 553.089 1.52625 3.63454 0
M  V30 5929 H 554.377 1.53065 4.8523 0
M  V30 5930 H 553.775 -1.59828 5.42652 0
M  V30 5931 H 552.332 -1.46965 6.35015 0
M  V30 5932 N 555.766 -1.3263 0.851289 0
M  V30 5933 C 557.043 -1.91982 0.374448 0
M  V30 5934 C 557.423 -1.77568 -1.14161 0
M  V30 5935 O 556.771 -1.1717 -1.96172 0
M  V30 5936 C 556.981 -3.38862 0.835088 0
M  V30 5937 C 558.329 -4.15999 0.850309 0
M  V30 5938 O 559.353 -3.47566 0.779505 0
M  V30 5939 O 558.212 -5.38189 0.949481 0
M  V30 5940 H 555.306 -0.819846 0.10854 0
M  V30 5941 H 557.852 -1.41422 0.937966 0
M  V30 5942 H 556.624 -3.43281 1.87814 0
M  V30 5943 H 556.247 -3.96821 0.248833 0
M  V30 5944 N 557.244 -0.608902 -1.45362 0
M  V30 5945 C 558.176 0.147318 -2.28726 0
M  V30 5946 C 559.189 0.830468 -1.40025 0
M  V30 5947 O 560.378 0.695636 -1.64387 0
M  V30 5948 C 557.478 1.22968 -3.15804 0
M  V30 5949 C 556.651 0.633391 -4.3279 0
M  V30 5950 C 555.71 1.60682 -5.01067 0
M  V30 5951 O 554.736 1.13261 -5.57818 0
M  V30 5952 N 555.938 2.94123 -5.00472 0
M  V30 5953 H 558.703 -0.568014 -2.94268 0
M  V30 5954 H 556.264 -0.448479 -1.55564 0
M  V30 5955 H 558.256 1.88072 -3.58345 0
M  V30 5956 H 556.826 1.84752 -2.52162 0
M  V30 5957 H 556.046 -0.195762 -3.93714 0
M  V30 5958 H 557.334 0.215255 -5.08344 0
M  V30 5959 H 556.732 3.3525 -4.55657 0
M  V30 5960 H 555.289 3.54646 -5.46872 0
M  V30 5961 N 558.722 1.53707 -0.348139 0
M  V30 5962 C 559.672 2.2193 0.522592 0
M  V30 5963 C 560.656 1.20831 1.06248 0
M  V30 5964 O 561.848 1.46357 0.995415 0
M  V30 5965 C 558.977 2.99904 1.6707 0
M  V30 5966 C 558.063 4.08364 1.14454 0
M  V30 5967 N 558.454 5.04656 0.339958 0
M  V30 5968 C 556.752 4.22757 1.421 0
M  V30 5969 C 557.453 5.81675 0.0538806 0
M  V30 5970 N 556.429 5.39739 0.646776 0
M  V30 5971 H 560.231 2.93733 -0.099135 0
M  V30 5972 H 557.745 1.61656 -0.15524 0
M  V30 5973 H 559.742 3.47284 2.30651 0
M  V30 5974 H 558.402 2.29629 2.29566 0
M  V30 5975 H 559.413 5.17896 -0.0193552 0
M  V30 5976 H 556.09 3.63704 2.05002 0
M  V30 5977 H 557.48 6.69256 -0.595443 0
M  V30 5978 N 560.2 0.0768682 1.57412 0
M  V30 5979 C 561.13 -0.886026 2.16037 0
M  V30 5980 C 562.111 -1.30691 1.08876 0
M  V30 5981 O 563.296 -1.37705 1.36934 0
M  V30 5982 C 560.426 -2.1518 2.72608 0
M  V30 5983 C 559.38 -1.87015 3.8498 0
M  V30 5984 C 558.706 -3.20266 4.28175 0
M  V30 5985 C 560.006 -1.17143 5.08994 0
M  V30 5986 H 561.7 -0.397642 2.96748 0
M  V30 5987 H 559.246 -0.189823 1.42743 0
M  V30 5988 H 561.199 -2.82962 3.12266 0
M  V30 5989 H 559.923 -2.66269 1.89125 0
M  V30 5990 H 558.582 -1.21636 3.45833 0
M  V30 5991 H 558.23 -3.69207 3.41607 0
M  V30 5992 H 557.93 -3.0221 5.03927 0
M  V30 5993 H 559.454 -3.89237 4.70454 0
M  V30 5994 H 560.868 -1.75003 5.45937 0
M  V30 5995 H 559.265 -1.09328 5.90057 0
M  V30 5996 H 560.335 -0.151295 4.84664 0
M  V30 5997 N 561.678 -1.56367 -0.196722 0
M  V30 5998 C 562.628 -1.9082 -1.24787 0
M  V30 5999 C 563.612 -0.773719 -1.41076 0
M  V30 6000 O 564.804 -1.03655 -1.43474 0
M  V30 6001 C 561.933 -2.24982 -2.59303 0
M  V30 6002 C 561.019 -3.44882 -2.46814 0
M  V30 6003 N 561.41 -4.62835 -2.04003 0
M  V30 6004 C 559.708 -3.48988 -2.77711 0
M  V30 6005 C 560.409 -5.44993 -2.03366 0
M  V30 6006 N 559.385 -4.85356 -2.44807 0
M  V30 6007 H 563.187 -2.79516 -0.908175 0
M  V30 6008 H 560.701 -1.57265 -0.405166 0
M  V30 6009 H 562.698 -2.47848 -3.35227 0
M  V30 6010 H 561.358 -1.37611 -2.94098 0
M  V30 6011 H 562.369 -4.87532 -1.74738 0
M  V30 6012 H 559.046 -2.72029 -3.16712 0
M  V30 6013 H 560.436 -6.49464 -1.72181 0
M  V30 6014 N 563.156 0.464375 -1.50603 0
M  V30 6015 C 564.384 1.23907 -1.65695 0
M  V30 6016 C 564.799 1.85658 -0.343027 0
M  V30 6017 O 564.156 1.69529 0.675739 0
M  V30 6018 C 564.207 2.3429 -2.75301 0
M  V30 6019 O 563.928 1.7507 -4.01599 0
M  V30 6020 C 565.429 3.25051 -3.01424 0
M  V30 6021 H 562.649 0.374485 -0.556778 0
M  V30 6022 H 565.193 0.55353 -1.96866 0
M  V30 6023 H 563.348 2.98607 -2.46804 0
M  V30 6024 H 563.762 2.47812 -4.62266 0
M  V30 6025 H 565.236 3.98699 -3.81763 0
M  V30 6026 H 565.713 3.84227 -2.12758 0
M  V30 6027 H 566.319 2.66463 -3.31477 0
M  V30 6028 N 564.634 1.40294 0.718013 0
M  V30 6029 C 565.564 1.43118 1.84498 0
M  V30 6030 C 566.545 0.292403 1.67568 0
M  V30 6031 O 567.73 0.500675 1.87635 0
M  V30 6032 C 564.86 1.29065 3.22427 0
M  V30 6033 C 563.814 2.40521 3.54025 0
M  V30 6034 C 563.14 2.11546 4.91073 0
M  V30 6035 C 564.44 3.82859 3.55269 0
M  V30 6036 H 566.134 2.37432 1.82391 0
M  V30 6037 H 563.68 1.14283 0.87609 0
M  V30 6038 H 565.633 1.29658 4.00957 0
M  V30 6039 H 564.357 0.312271 3.25104 0
M  V30 6040 H 563.016 2.39173 2.77834 0
M  V30 6041 H 562.664 1.12104 4.90348 0
M  V30 6042 H 562.364 2.86216 5.1318 0
M  V30 6043 H 563.888 2.13817 5.71939 0
M  V30 6044 H 565.302 3.86044 4.23843 0
M  V30 6045 H 563.699 4.57029 3.88902 0
M  V30 6046 H 564.769 4.12617 2.54706 0
M  V30 6047 N 566.112 -0.949982 1.2575 0
M  V30 6048 C 567.042 -2.06483 1.09028 0
M  V30 6049 C 568.023 -1.701 -0.00201532 0
M  V30 6050 O 569.208 -1.93469 0.168383 0
M  V30 6051 C 566.338 -3.39899 0.71316 0
M  V30 6052 C 565.292 -3.90309 1.75621 0
M  V30 6053 C 564.618 -5.20274 1.23365 0
M  V30 6054 C 565.918 -4.16169 3.15596 0
M  V30 6055 H 567.612 -2.20731 2.02283 0
M  V30 6056 H 565.158 -1.06066 0.973964 0
M  V30 6057 H 567.111 -4.17346 0.58309 0
M  V30 6058 H 565.835 -3.25602 -0.255091 0
M  V30 6059 H 564.494 -3.15035 1.8748 0
M  V30 6060 H 564.142 -5.02351 0.255491 0
M  V30 6061 H 563.842 -5.54971 1.93082 0
M  V30 6062 H 565.366 -6.00314 1.11607 0
M  V30 6063 H 566.78 -4.84259 3.06864 0
M  V30 6064 H 565.177 -4.62131 3.82825 0
M  V30 6065 H 566.247 -3.22273 3.6231 0
M  V30 6066 N 567.59 -1.07411 -1.15328 0
M  V30 6067 C 568.867 -0.710732 -1.82231 0
M  V30 6068 C 569.247 0.806732 -1.95077 0
M  V30 6069 O 568.595 1.72139 -1.50268 0
M  V30 6070 C 568.805 -1.42586 -3.18544 0
M  V30 6071 C 570.153 -1.57836 -3.94174 0
M  V30 6072 O 571.177 -1.38669 -3.281 0
M  V30 6073 O 570.036 -1.8938 -5.12638 0
M  V30 6074 H 567.13 -0.25297 -0.78736 0
M  V30 6075 H 569.676 -1.17508 -1.22434 0
M  V30 6076 H 568.448 -2.46008 -3.04296 0
M  V30 6077 H 568.071 -0.952332 -3.86026 0
M  V30 6078 N 569.068 1.32177 -0.85831 0
M  V30 6079 C 569.998 2.31282 -0.321041 0
M  V30 6080 C 570.979 1.59841 0.581786 0
M  V30 6081 O 572.164 1.87619 0.501262 0
M  V30 6082 C 569.294 3.4385 0.48832 0
M  V30 6083 C 568.248 4.26799 -0.320391 0
M  V30 6084 C 567.574 5.31164 0.613934 0
M  V30 6085 C 568.874 4.98829 -1.54813 0
M  V30 6086 H 570.568 2.76469 -1.14915 0
M  V30 6087 H 568.114 1.32916 -0.554028 0
M  V30 6088 H 570.067 4.12224 0.874626 0
M  V30 6089 H 568.791 2.97401 1.34983 0
M  V30 6090 H 567.45 3.60077 -0.688497 0
M  V30 6091 H 567.098 4.80967 1.47239 0
M  V30 6092 H 566.798 5.8755 0.0768097 0
M  V30 6093 H 568.322 6.024 0.997336 0
M  V30 6094 H 569.736 5.59864 -1.23392 0
M  V30 6095 H 568.133 5.64957 -2.02346 0
M  V30 6096 H 569.203 4.26483 -2.30739 0
M  V30 6097 N 570.547 0.616602 1.45037 0
M  V30 6098 C 571.777 0.121791 2.06241 0
M  V30 6099 C 572.185 -1.20289 1.46038 0
M  V30 6100 O 571.528 -1.7456 0.572242 0
M  V30 6101 C 571.59 -0.0827345 3.59405 0
M  V30 6102 C 571.254 1.16153 4.41993 0
M  V30 6103 C 572.251 2.08183 4.76399 0
M  V30 6104 C 569.936 1.39288 4.82601 0
M  V30 6105 C 571.93 3.21668 5.5028 0
M  V30 6106 C 569.617 2.53073 5.56235 0
M  V30 6107 C 570.615 3.44091 5.89992 0
M  V30 6108 O 570.303 4.55894 6.6213 0
M  V30 6109 H 570.035 0.0701667 0.672349 0
M  V30 6110 H 572.589 0.846877 1.87129 0
M  V30 6111 H 570.819 -0.862812 3.76952 0
M  V30 6112 H 572.508 -0.530273 4.02421 0
M  V30 6113 H 573.274 1.91538 4.45576 0
M  V30 6114 H 569.153 0.693396 4.55755 0
M  V30 6115 H 572.697 3.92733 5.76547 0
M  V30 6116 H 568.594 2.69667 5.86472 0
M  V30 6117 H 569.362 4.5469 6.80587 0
M  V30 6118 N 572.025 -1.5352 0.356285 0
M  V30 6119 C 573.302 -1.93405 -0.292223 0
M  V30 6120 C 573.682 -1.28901 -1.67176 0
M  V30 6121 O 573.03 -0.444632 -2.24132 0
M  V30 6122 C 573.24 -3.47223 -0.35175 0
M  V30 6123 C 574.588 -4.20389 -0.596534 0
M  V30 6124 O 575.612 -3.53554 -0.433344 0
M  V30 6125 O 574.471 -5.3881 -0.913589 0
M  V30 6126 H 571.565 -0.808666 -0.173172 0
M  V30 6127 H 574.111 -1.64713 0.408391 0
M  V30 6128 H 572.883 -3.86423 0.615841 0
M  V30 6129 H 572.506 -3.8212 -1.09864 0
M  V30 6130 N 573.503 -0.0852151 -1.57369 0
M  V30 6131 C 574.45 0.877268 -2.13478 0
M  V30 6132 C 575.42 1.28642 -1.05073 0
M  V30 6133 O 576.605 1.36992 -1.32808 0
M  V30 6134 C 573.745 2.13464 -2.71159 0
M  V30 6135 C 572.858 1.77691 -3.93764 0
M  V30 6136 C 571.993 2.98139 -4.39643 0
M  V30 6137 C 571.032 2.58447 -5.54862 0
M  V30 6138 N 570.169 3.71698 -5.95639 0
M  V30 6139 H 575.009 0.391933 -2.95411 0
M  V30 6140 H 572.546 0.181796 -1.45972 0
M  V30 6141 H 574.504 2.87086 -3.02717 0
M  V30 6142 H 573.134 2.59514 -1.91969 0
M  V30 6143 H 572.186 0.940768 -3.68583 0
M  V30 6144 H 573.498 1.44497 -4.77412 0
M  V30 6145 H 572.652 3.80026 -4.72933 0
M  V30 6146 H 571.391 3.34536 -3.54876 0
M  V30 6147 H 570.396 1.74984 -5.21211 0
M  V30 6148 H 571.621 2.23205 -6.41371 0
M  V30 6149 H 569.567 4.07831 -5.13819 0
M  V30 6150 H 569.484 3.42317 -6.74059 0
M  V30 6151 H 570.752 4.54123 -6.33555 0
M  V30 6152 N 574.981 1.5647 0.188427 0
M  V30 6153 C 576.23 1.80207 0.905995 0
M  V30 6154 C 576.543 0.659579 1.84144 0
M  V30 6155 O 577.749 0.781431 2.60011 0
M  V30 6156 C 576.205 3.19255 1.66145 0
M  V30 6157 C 575.813 4.41324 0.770504 0
M  V30 6158 C 577.557 3.52298 2.36826 0
M  V30 6159 C 575.464 5.71394 1.52521 0
M  V30 6160 H 574.394 0.671953 0.342045 0
M  V30 6161 H 577.045 1.82808 0.159164 0
M  V30 6162 H 575.427 3.10922 2.45242 0
M  V30 6163 H 576.601 4.60797 0.0177261 0
M  V30 6164 H 574.916 4.16035 0.174199 0
M  V30 6165 H 577.513 4.46715 2.93854 0
M  V30 6166 H 577.856 2.76359 3.11338 0
M  V30 6167 H 578.389 3.62108 1.6469 0
M  V30 6168 H 575.128 6.50316 0.82275 0
M  V30 6169 H 574.648 5.55928 2.25175 0
M  V30 6170 H 576.327 6.12747 2.07725 0
M  V30 6171 N 576.459 -0.456382 1.50847 0
M  V30 6172 C 577.407 -1.57318 1.71329 0
M  V30 6173 C 578.401 -1.59187 0.579287 0
M  V30 6174 O 579.607 -1.6316 0.76018 0
M  V30 6175 H 575.982 -0.5223 0.541024 0
M  V30 6176 H 577.953 -1.3721 2.64983 0
M  V30 6177 C 576.702 -2.95142 1.83811 0
M  V30 6178 H 576.025 -2.94428 2.70467 0
M  V30 6179 H 577.465 -3.72702 2.02161 0
M  V30 6180 C 575.924 -3.31636 0.593224 0
M  V30 6181 O 576.454 -4.00852 -0.260898 0
M  V30 6182 N 574.66 -2.87205 0.442902 0
M  V30 6183 H 574.207 -2.31051 1.13901 0
M  V30 6184 H 574.165 -3.11986 -0.38884 0
M  V30 6185 N 577.937 -1.40673 -0.710563 0
M  V30 6186 C 579.165 -1.42547 -1.4996 0
M  V30 6187 C 579.58 -0.0265485 -1.88781 0
M  V30 6188 O 578.937 0.950694 -1.55782 0
M  V30 6189 C 578.988 -2.32071 -2.77173 0
M  V30 6190 O 578.709 -3.66518 -2.39992 0
M  V30 6191 C 580.21 -2.42591 -3.71032 0
M  V30 6192 H 577.43 -0.486025 -0.462623 0
M  V30 6193 H 579.974 -1.84783 -0.876102 0
M  V30 6194 H 578.129 -1.93184 -3.35795 0
M  V30 6195 H 578.543 -4.14115 -3.21884 0
M  V30 6196 H 580.017 -3.09429 -4.57119 0
M  V30 6197 H 580.494 -1.4525 -4.14486 0
M  V30 6198 H 581.1 -2.82051 -3.18319 0
M  V30 6199 N 579.415 0.9433 -1.26252 0
M  V30 6200 C 580.362 2.0417 -1.07625 0
M  V30 6201 C 581.332 1.6609 0.0180738 0
M  V30 6202 O 582.517 1.90276 -0.141289 0
M  V30 6203 C 579.657 3.37653 -0.713043 0
M  V30 6204 C 578.77 3.88783 -1.8834 0
M  V30 6205 C 577.905 5.10642 -1.4635 0
M  V30 6206 C 576.944 5.54028 -2.60229 0
M  V30 6207 N 576.081 6.67092 -2.18936 0
M  V30 6208 H 580.921 2.19436 -2.01623 0
M  V30 6209 H 578.458 1.07519 -1.00389 0
M  V30 6210 H 580.416 4.14391 -0.483358 0
M  V30 6211 H 579.046 3.22241 0.18996 0
M  V30 6212 H 578.098 3.08464 -2.22608 0
M  V30 6213 H 579.41 4.16922 -2.73821 0
M  V30 6214 H 578.564 5.94832 -1.19414 0
M  V30 6215 H 577.303 4.84244 -0.579568 0
M  V30 6216 H 576.308 4.68396 -2.87898 0
M  V30 6217 H 577.533 5.82429 -3.49219 0
M  V30 6218 H 575.479 6.42381 -1.32974 0
M  V30 6219 H 575.396 6.94806 -2.97961 0
M  V30 6220 H 576.664 7.54662 -1.95206 0
M  V30 6221 N 580.893 1.08022 1.14757 0
M  V30 6222 C 582.118 0.82895 1.90114 0
M  V30 6223 C 582.543 -0.612772 1.77839 0
M  V30 6224 O 581.901 -1.42895 1.11583 0
M  V30 6225 C 581.949 1.25062 3.38219 0
M  V30 6226 O 581.053 0.400119 4.10454 0
M  V30 6227 H 580.394 0.301412 0.591648 0
M  V30 6228 H 582.924 1.44062 1.45284 0
M  V30 6229 H 582.934 1.22977 3.89025 0
M  V30 6230 H 581.609 2.30067 3.46471 0
M  V30 6231 H 580.186 0.484052 3.69745 0
M  V30 6232 N 582.371 -1.3172 0.865308 0
M  V30 6233 C 583.596 -2.01591 0.487415 0
M  V30 6234 C 584.021 -1.6455 -0.911307 0
M  V30 6235 O 583.379 -0.851689 -1.6005 0
M  V30 6236 C 583.427 -3.54759 0.646401 0
M  V30 6237 O 582.531 -4.11185 -0.316284 0
M  V30 6238 H 581.872 -0.634884 0.194468 0
M  V30 6239 H 584.402 -1.68024 1.16744 0
M  V30 6240 H 584.412 -4.04438 0.537932 0
M  V30 6241 H 583.087 -3.8106 1.66632 0
M  V30 6242 H 581.664 -3.72543 -0.163162 0
M  V30 6243 N 583.85 -0.624285 -1.44708 0
M  V30 6244 C 585.26 -0.2092 -1.85524 0
M  V30 6245 C 585.611 1.23783 -1.52225 0
M  V30 6246 O 584.736 1.94089 -0.956986 0
M  V30 6247 C 585.332 -0.372897 -3.36742 0
M  V30 6248 C 583.891 -0.012374 -3.76398 0
M  V30 6249 C 583.038 -0.68951 -2.68591 0
M  V30 6250 H 585.989 -0.829894 -1.35272 0
M  V30 6251 H 586.01 0.390134 -3.78495 0
M  V30 6252 H 585.522 -1.42615 -3.60947 0
M  V30 6253 H 583.623 1.03941 -3.57809 0
M  V30 6254 H 583.736 -0.417663 -4.77276 0
M  V30 6255 H 582.1 -0.125484 -2.54391 0
M  V30 6256 H 582.883 -1.74522 -2.9563 0
M  V30 6257 N 585.328 1.53329 -0.364422 0
M  V30 6258 C 586.26 2.23286 0.517293 0
M  V30 6259 C 587.273 1.24657 1.04711 0
M  V30 6260 O 588.462 1.50887 0.95369 0
M  V30 6261 C 585.562 2.91604 1.72685 0
M  V30 6262 C 584.735 4.1673 1.32873 0
M  V30 6263 C 583.794 4.68269 2.40022 0
M  V30 6264 O 582.82 5.31976 2.02461 0
M  V30 6265 N 584.022 4.45983 3.7159 0
M  V30 6266 H 586.787 2.99588 -0.0819391 0
M  V30 6267 H 584.348 1.60787 -0.189544 0
M  V30 6268 H 586.34 3.22992 2.4384 0
M  V30 6269 H 584.91 2.18763 2.23297 0
M  V30 6270 H 584.13 3.91657 0.447069 0
M  V30 6271 H 585.418 4.98078 1.03902 0
M  V30 6272 H 584.816 3.95077 4.04883 0
M  V30 6273 H 583.373 4.81924 4.38854 0
M  V30 6274 N 586.806 0.0935595 1.57322 0
M  V30 6275 C 588.055 -0.570191 1.93473 0
M  V30 6276 C 588.368 -1.69434 0.977318 0
M  V30 6277 O 589.574 -2.41914 1.23248 0
M  V30 6278 C 588.03 -1.06564 3.43762 0
M  V30 6279 C 587.638 0.0286723 4.47991 0
M  V30 6280 C 589.382 -1.70221 3.88877 0
M  V30 6281 C 587.289 -0.482046 5.89432 0
M  V30 6282 H 586.219 -0.216764 0.72217 0
M  V30 6283 H 588.87 0.169313 1.82717 0
M  V30 6284 H 587.252 -1.85878 3.49664 0
M  V30 6285 H 588.426 0.804106 4.5373 0
M  V30 6286 H 586.741 0.570336 4.12476 0
M  V30 6287 H 589.338 -2.09502 4.91948 0
M  V30 6288 H 589.681 -2.57078 3.27439 0
M  V30 6289 H 590.214 -0.974919 3.85668 0
M  V30 6290 H 586.953 0.349871 6.54566 0
M  V30 6291 H 586.473 -1.22452 5.87167 0
M  V30 6292 H 588.152 -0.951508 6.39965 0
M  V30 6293 N 588.284 -1.56567 -0.180126 0
M  V30 6294 C 589.7 -1.50488 -0.531559 0
M  V30 6295 C 589.9 -0.796267 -1.851 0
M  V30 6296 O 588.956 -0.352978 -2.50021 0
M  V30 6297 C 590.269 -2.95201 -0.572456 0
M  V30 6298 C 591.817 -3.05957 -0.660264 0
M  V30 6299 C 592.292 -4.5211 -0.732135 0
M  V30 6300 N 593.783 -4.56322 -0.795262 0
M  V30 6301 C 594.518 -5.66742 -0.871296 0
M  V30 6302 N 594.014 -6.86815 -0.908708 0
M  V30 6303 N 595.807 -5.54691 -0.909639 0
M  V30 6304 H 587.958 -2.01045 0.685165 0
M  V30 6305 H 590.221 -0.915536 0.245962 0
M  V30 6306 H 589.927 -3.50165 0.328208 0
M  V30 6307 H 589.801 -3.49369 -1.422 0
M  V30 6308 H 592.188 -2.51032 -1.55136 0
M  V30 6309 H 592.269 -2.54888 0.215783 0
M  V30 6310 H 591.913 -5.07664 0.154664 0
M  V30 6311 H 591.843 -5.00926 -1.6242 0
M  V30 6312 H 594.334 -3.69868 -0.77499 0
M  V30 6313 H 594.647 -7.66718 -0.967654 0
M  V30 6314 H 592.992 -6.89443 -0.877132 0
M  V30 6315 H 596.183 -4.59804 -0.877353 0
M  V30 6316 H 596.356 -6.40768 -0.965434 0
M  V30 6317 N 589.762 0.448376 -1.51087 0
M  V30 6318 C 590.71 1.56407 -1.72161 0
M  V30 6319 C 591.704 1.58878 -0.587721 0
M  V30 6320 O 592.91 1.62755 -0.768822 0
M  V30 6321 H 589.285 0.519423 -0.543786 0
M  V30 6322 H 591.256 1.35803 -2.65707 0
M  V30 6323 C 590.005 2.94163 -1.85373 0
M  V30 6324 H 589.328 2.9299 -2.72024 0
M  V30 6325 H 590.768 3.71625 -2.04135 0
M  V30 6326 C 589.227 3.31317 -0.610803 0
M  V30 6327 O 589.757 4.00985 0.239636 0
M  V30 6328 N 587.963 2.86966 -0.458127 0
M  V30 6329 H 587.51 2.30443 -1.15124 0
M  V30 6330 H 587.468 3.12188 0.372289 0
M  V30 6331 N 591.24 1.41047 0.703093 0
M  V30 6332 C 592.651 1.35657 1.28274 0
M  V30 6333 C 593.002 0.0360309 1.96167 0
M  V30 6334 O 592.127 -0.865833 1.98324 0
M  V30 6335 C 592.722 2.45707 2.33267 0
M  V30 6336 C 591.281 2.43738 2.86825 0
M  V30 6337 C 590.428 2.25941 1.60767 0
M  V30 6338 H 593.379 1.50672 0.49836 0
M  V30 6339 H 593.4 2.14333 3.14391 0
M  V30 6340 H 592.912 3.41805 1.83824 0
M  V30 6341 H 591.013 1.51375 3.40465 0
M  V30 6342 H 591.126 3.39779 3.37768 0
M  V30 6343 H 589.49 1.73681 1.86298 0
M  V30 6344 H 590.273 3.24054 1.1333 0
M  V30 6345 N 592.718 -0.936591 1.26751 0
M  V30 6346 C 594.129 -1.49816 1.1141 0
M  V30 6347 C 594.48 -1.9383 -0.304015 0
M  V30 6348 O 593.605 -1.80346 -1.196 0
M  V30 6349 C 594.2 -2.72271 2.01629 0
M  V30 6350 C 592.759 -3.2468 1.9042 0
M  V30 6351 C 591.906 -1.97444 1.94708 0
M  V30 6352 H 594.857 -0.751604 1.39773 0
M  V30 6353 H 594.878 -3.46741 1.56688 0
M  V30 6354 H 594.39 -2.40205 3.04833 0
M  V30 6355 H 592.491 -3.61525 0.901674 0
M  V30 6356 H 592.604 -3.91476 2.76195 0
M  V30 6357 H 590.968 -2.13545 1.38818 0
M  V30 6358 H 591.751 -1.67703 2.9955 0
M  V30 6359 N 594.196 -1.08629 -1.14182 0
M  V30 6360 C 595.421 -0.83902 -1.89671 0
M  V30 6361 C 595.846 0.603332 -1.78161 0
M  V30 6362 O 595.204 1.42301 -1.12339 0
M  V30 6363 C 595.252 -1.26854 -3.37551 0
M  V30 6364 O 594.356 -0.42188 -4.10236 0
M  V30 6365 H 593.697 -0.304545 -0.590041 0
M  V30 6366 H 596.227 -1.4483 -1.44518 0
M  V30 6367 H 596.237 -1.25038 -3.88368 0
M  V30 6368 H 594.912 -2.31901 -3.45246 0
M  V30 6369 H 593.489 -0.503654 -3.69483 0
M  V30 6370 N 595.674 1.31259 -0.872281 0
M  V30 6371 C 596.951 1.91362 -0.404943 0
M  V30 6372 C 597.331 1.79362 1.11321 0
M  V30 6373 O 596.679 1.20277 1.94283 0
M  V30 6374 C 596.889 3.3749 -0.888893 0
M  V30 6375 C 598.237 4.14593 -0.916384 0
M  V30 6376 O 599.261 3.46282 -0.834701 0
M  V30 6377 O 598.12 5.3661 -1.03498 0
M  V30 6378 H 595.214 0.818016 -0.121569 0
M  V30 6379 H 597.76 1.39912 -0.960346 0
M  V30 6380 H 596.532 3.40249 -1.93251 0
M  V30 6381 H 596.155 3.96375 -0.311932 0
M  V30 6382 N 597.152 0.631951 1.44375 0
M  V30 6383 C 598.115 -0.0628142 2.29114 0
M  V30 6384 C 599.115 -0.771494 1.41084 0
M  V30 6385 O 600.305 -0.615959 1.62947 0
M  V30 6386 C 597.437 -1.09953 3.22681 0
M  V30 6387 H 598.63 0.682509 2.92031 0
M  V30 6388 H 596.183 0.392128 1.51301 0
M  V30 6389 H 596.918 -1.87481 2.64616 0
M  V30 6390 H 596.703 -0.595286 3.87555 0
M  V30 6391 H 598.193 -1.58538 3.86336 0
M  V30 6392 N 598.631 -1.53133 0.372548 0
M  V30 6393 C 599.877 -2.01654 -0.215277 0
M  V30 6394 C 600.21 -1.25914 -1.47849 0
M  V30 6395 O 599.485 -0.3548 -1.91237 0
M  V30 6396 C 599.768 -3.56609 -0.500187 0
M  V30 6397 C 599.621 -4.43036 0.777145 0
M  V30 6398 C 600.94 -4.20528 -1.29786 0
M  V30 6399 H 598.059 -0.732991 -0.0767686 0
M  V30 6400 H 600.701 -1.83335 0.498814 0
M  V30 6401 H 598.851 -3.7235 -1.10852 0
M  V30 6402 H 600.523 -4.39079 1.41447 0
M  V30 6403 H 598.766 -4.10723 1.39604 0
M  V30 6404 H 599.437 -5.49424 0.532662 0
M  V30 6405 H 601.913 -4.08663 -0.783198 0
M  V30 6406 H 600.789 -5.28962 -1.46596 0
M  V30 6407 H 601.05 -3.77051 -2.30836 0
M  V30 6408 N 600.109 -0.101901 -1.5727 0
M  V30 6409 C 601.041 0.884723 -2.11436 0
M  V30 6410 C 602.054 1.24149 -1.05314 0
M  V30 6411 O 603.243 1.19341 -1.3274 0
M  V30 6412 C 600.343 2.19179 -2.58484 0
M  V30 6413 C 599.516 2.00933 -3.88516 0
M  V30 6414 C 598.575 3.15213 -4.2134 0
M  V30 6415 O 597.601 2.88877 -4.90448 0
M  V30 6416 N 598.803 4.41174 -3.77288 0
M  V30 6417 H 601.568 0.422058 -2.96713 0
M  V30 6418 H 599.129 0.0830128 -1.61687 0
M  V30 6419 H 601.121 2.94593 -2.77484 0
M  V30 6420 H 599.691 2.56847 -1.7818 0
M  V30 6421 H 598.911 1.09809 -3.78597 0
M  V30 6422 H 600.199 1.86026 -4.73573 0
M  V30 6423 H 599.597 4.6545 -3.21516 0
M  V30 6424 H 598.154 5.13515 -4.01429 0
M  V30 6425 N 601.587 1.56661 0.17182 0
M  V30 6426 C 603.003 1.50768 0.52357 0
M  V30 6427 C 603.203 0.806072 1.84675 0
M  V30 6428 O 602.259 0.366233 2.4983 0
M  V30 6429 C 603.572 2.955 0.556793 0
M  V30 6430 C 605.12 3.06303 0.644029 0
M  V30 6431 C 605.595 4.52492 0.708148 0
M  V30 6432 N 607.086 4.56737 0.771051 0
M  V30 6433 C 607.821 5.67196 0.841229 0
M  V30 6434 N 607.317 6.87287 0.872272 0
M  V30 6435 N 609.11 5.55165 0.88021 0
M  V30 6436 H 601.261 2.00679 -0.695817 0
M  V30 6437 H 603.524 0.914219 -0.250814 0
M  V30 6438 H 603.23 3.49986 -0.346774 0
M  V30 6439 H 603.104 3.50119 1.40346 0
M  V30 6440 H 605.491 2.51851 1.53802 0
M  V30 6441 H 605.572 2.5477 -0.229297 0
M  V30 6442 H 605.216 5.07575 -0.181585 0
M  V30 6443 H 605.146 5.01781 1.59761 0
M  V30 6444 H 607.637 3.70274 0.755364 0
M  V30 6445 H 607.95 7.6722 0.92698 0
M  V30 6446 H 606.295 6.89898 0.840557 0
M  V30 6447 H 609.486 4.60263 0.852956 0
M  V30 6448 H 609.659 6.41271 0.931439 0
M  V30 6449 N 603.065 -0.440357 1.51323 0
M  V30 6450 C 604.028 -1.51679 1.71832 0
M  V30 6451 C 605.028 -1.49648 0.588386 0
M  V30 6452 O 606.218 -1.51724 0.855891 0
M  V30 6453 C 603.35 -2.91228 1.77199 0
M  V30 6454 H 604.543 -1.34799 2.67898 0
M  V30 6455 H 602.096 -0.66883 1.41267 0
M  V30 6456 H 602.831 -3.13516 0.829363 0
M  V30 6457 H 602.616 -2.94107 2.59314 0
M  V30 6458 H 604.106 -3.69321 1.94915 0
M  V30 6459 N 604.543 -1.41418 -0.695603 0
M  V30 6460 C 605.49 -1.43264 -1.80954 0
M  V30 6461 C 606.46 -0.287016 -1.63601 0
M  V30 6462 O 607.645 -0.488054 -1.84452 0
M  V30 6463 C 604.785 -1.32054 -3.18835 0
M  V30 6464 C 603.898 -2.56485 -3.4762 0
M  V30 6465 C 603.033 -2.3757 -4.75115 0
M  V30 6466 C 602.072 -3.57477 -4.96867 0
M  V30 6467 N 601.209 -3.37632 -6.15588 0
M  V30 6468 H 606.049 -2.38467 -1.78711 0
M  V30 6469 H 603.586 -1.18415 -0.872715 0
M  V30 6470 H 605.544 -1.23558 -3.98484 0
M  V30 6471 H 604.174 -0.404592 -3.20254 0
M  V30 6472 H 603.226 -2.75432 -2.62376 0
M  V30 6473 H 604.538 -3.45678 -3.59594 0
M  V30 6474 H 603.692 -2.2654 -5.62818 0
M  V30 6475 H 602.431 -1.45834 -4.65386 0
M  V30 6476 H 601.436 -3.68961 -4.07612 0
M  V30 6477 H 602.661 -4.50167 -5.08455 0
M  V30 6478 H 600.607 -2.48596 -6.07072 0
M  V30 6479 H 600.524 -4.20401 -6.2833 0
M  V30 6480 H 601.792 -3.30375 -7.06026 0
M  V30 6481 N 606.021 0.929856 -1.27246 0
M  V30 6482 C 606.931 2.0636 -1.11592 0
M  V30 6483 C 607.947 1.73938 -0.046496 0
M  V30 6484 O 609.123 1.9981 -0.252544 0
M  V30 6485 C 606.188 3.38213 -0.762437 0
M  V30 6486 C 605.249 3.84346 -1.9125 0
M  V30 6487 C 604.482 5.09906 -1.57579 0
M  V30 6488 O 604.705 5.68354 -0.482694 0
M  V30 6489 O 603.639 5.51359 -2.41426 0
M  V30 6490 H 607.465 2.22478 -2.0673 0
M  V30 6491 H 605.05 1.04865 -1.06413 0
M  V30 6492 H 606.932 4.1741 -0.57854 0
M  V30 6493 H 605.607 3.23307 0.159439 0
M  V30 6494 H 604.514 3.06045 -2.15144 0
M  V30 6495 H 605.847 4.0379 -2.81451 0
M  V30 6496 N 607.499 1.09233 1.13605 0
M  V30 6497 C 608.745 0.828385 1.8511 0
M  V30 6498 C 609.078 -0.64437 1.83198 0
M  V30 6499 O 608.353 -1.47428 1.26867 0
M  V30 6500 C 608.636 1.36167 3.33363 0
M  V30 6501 C 608.489 2.90038 3.438 0
M  V30 6502 C 609.808 0.993819 4.28732 0
M  V30 6503 H 606.927 0.30239 0.672108 0
M  V30 6504 H 609.569 1.35339 1.33355 0
M  V30 6505 H 607.719 0.9151 3.77569 0
M  V30 6506 H 609.391 3.43128 3.08319 0
M  V30 6507 H 607.634 3.27271 2.84739 0
M  V30 6508 H 608.305 3.22428 4.48045 0
M  V30 6509 H 610.781 1.37893 3.92587 0
M  V30 6510 H 609.657 1.39403 5.30903 0
M  V30 6511 H 609.918 -0.0982206 4.41991 0
M  V30 6512 N 608.977 -1.30795 0.87923 0
M  V30 6513 C 609.907 -2.30742 0.357796 0
M  V30 6514 C 610.888 -1.60747 -0.556283 0
M  V30 6515 O 612.073 -1.88393 -0.47135 0
M  V30 6516 C 609.203 -3.44583 -0.433555 0
M  V30 6517 C 608.157 -4.26235 0.388251 0
M  V30 6518 C 607.483 -5.32073 -0.529352 0
M  V30 6519 C 608.783 -4.96303 1.62729 0
M  V30 6520 H 610.477 -2.74605 1.19299 0
M  V30 6521 H 608.023 -1.32017 0.575104 0
M  V30 6522 H 609.976 -4.13563 -0.808934 0
M  V30 6523 H 608.7 -2.99511 -1.30234 0
M  V30 6524 H 607.359 -3.58936 0.745695 0
M  V30 6525 H 607.007 -4.83249 -1.39569 0
M  V30 6526 H 606.707 -5.87598 0.0166741 0
M  V30 6527 H 608.231 -6.0391 -0.901373 0
M  V30 6528 H 609.645 -5.5783 1.32283 0
M  V30 6529 H 608.042 -5.61666 2.11309 0
M  V30 6530 H 609.112 -4.22758 2.37494 0
M  V30 6531 N 610.455 -0.639598 -1.44038 0
M  V30 6532 C 611.365 0.0612377 -2.3452 0
M  V30 6533 C 612.381 0.826717 -1.53106 0
M  V30 6534 O 613.557 0.777059 -1.85806 0
M  V30 6535 C 610.622 1.02492 -3.31204 0
M  V30 6536 C 609.683 0.25788 -4.28525 0
M  V30 6537 C 608.916 1.17566 -5.2059 0
M  V30 6538 O 609.139 2.41461 -5.16771 0
M  V30 6539 O 608.073 0.655407 -5.98321 0
M  V30 6540 H 611.899 -0.68318 -2.95916 0
M  V30 6541 H 609.484 -0.399784 -1.43952 0
M  V30 6542 H 611.366 1.57911 -3.90694 0
M  V30 6543 H 610.041 1.7498 -2.7233 0
M  V30 6544 H 608.948 -0.339566 -3.72556 0
M  V30 6545 H 610.281 -0.427154 -4.90343 0
M  V30 6546 N 611.933 1.52934 -0.380664 0
M  V30 6547 C 612.843 2.29921 0.466192 0
M  V30 6548 C 613.859 1.36488 1.07922 0
M  V30 6549 O 615.035 1.69553 1.0869 0
M  V30 6550 C 612.1 3.08468 1.58266 0
M  V30 6551 C 611.161 4.17595 0.995627 0
M  V30 6552 C 610.394 4.92387 2.05889 0
M  V30 6553 O 610.617 4.67184 3.27254 0
M  V30 6554 O 609.551 5.77949 1.68102 0
M  V30 6555 H 613.377 3.03274 -0.160735 0
M  V30 6556 H 610.962 1.48698 -0.144617 0
M  V30 6557 H 612.844 3.57469 2.23145 0
M  V30 6558 H 611.519 2.37937 2.19471 0
M  V30 6559 H 610.426 3.72811 0.310332 0
M  V30 6560 H 611.759 4.90336 0.427918 0
M  V30 6561 N 613.412 0.11024 1.57214 0
M  V30 6562 C 614.661 -0.549638 1.94067 0
M  V30 6563 C 614.974 -1.68388 0.995234 0
M  V30 6564 O 616.18 -2.40593 1.25807 0
M  V30 6565 C 614.636 -1.02912 3.44873 0
M  V30 6566 C 614.244 0.0761861 4.47935 0
M  V30 6567 C 615.988 -1.66087 3.9066 0
M  V30 6568 C 613.895 -0.419502 5.8991 0
M  V30 6569 H 612.825 -0.209092 0.724428 0
M  V30 6570 H 615.476 0.188683 1.82527 0
M  V30 6571 H 613.858 -1.82159 3.51616 0
M  V30 6572 H 615.032 0.852185 4.52851 0
M  V30 6573 H 613.347 0.614052 4.11847 0
M  V30 6574 H 615.944 -2.04272 4.94143 0
M  V30 6575 H 616.287 -2.53591 3.30148 0
M  V30 6576 H 616.82 -0.933959 3.86681 0
M  V30 6577 H 613.559 0.419277 6.54158 0
M  V30 6578 H 613.079 -1.16217 5.88433 0
M  V30 6579 H 614.758 -0.883577 6.40938 0
M  V30 6580 N 614.89 -1.56749 -0.16351 0
M  V30 6581 C 616.115 -1.86938 -0.898264 0
M  V30 6582 C 616.54 -0.697456 -1.74692 0
M  V30 6583 O 615.898 0.353327 -1.77824 0
M  V30 6584 C 615.946 -3.15599 -1.74441 0
M  V30 6585 O 615.05 -2.98371 -2.8469 0
M  V30 6586 H 614.391 -0.614659 -0.251178 0
M  V30 6587 H 616.921 -2.03979 -0.159298 0
M  V30 6588 H 616.931 -3.47202 -2.14277 0
M  V30 6589 H 615.606 -4.00505 -1.1211 0
M  V30 6590 H 614.183 -2.7814 -2.4838 0
M  V30 6591 N 616.368 0.432326 -1.51554 0
M  V30 6592 C 617.608 1.19076 -1.66133 0
M  V30 6593 C 617.972 1.88364 -0.371873 0
M  V30 6594 O 619.173 2.65904 -0.39349 0
M  V30 6595 C 617.444 2.1768 -2.83461 0
M  V30 6596 S 619.003 3.01943 -3.18396 0
M  V30 6597 H 615.821 0.403735 -0.585251 0
M  V30 6598 H 618.423 0.481554 -1.89476 0
M  V30 6599 H 617.127 1.65424 -3.75583 0
M  V30 6600 H 616.658 2.93174 -2.62322 0
M  V30 6601 H 618.673 4.19373 -2.65219 0
M  V30 6602 N 617.846 1.41785 0.688094 0
M  V30 6603 C 619.076 1.44705 1.47459 0
M  V30 6604 C 619.484 0.052916 1.89126 0
M  V30 6605 O 618.827 -0.939781 1.57841 0
M  V30 6606 C 618.889 2.29935 2.76352 0
M  V30 6607 C 618.553 3.77996 2.56843 0
M  V30 6608 C 619.55 4.69976 2.22304 0
M  V30 6609 C 617.235 4.2212 2.7225 0
M  V30 6610 C 619.229 6.04068 2.03421 0
M  V30 6611 C 616.916 5.56275 2.52985 0
M  V30 6612 C 617.914 6.47065 2.18621 0
M  V30 6613 O 617.602 7.78744 1.9953 0
M  V30 6614 H 617.334 0.494703 0.460701 0
M  V30 6615 H 619.888 1.86802 0.854057 0
M  V30 6616 H 618.118 1.82664 3.40839 0
M  V30 6617 H 619.807 2.24467 3.38186 0
M  V30 6618 H 620.573 4.37175 2.10008 0
M  V30 6619 H 616.452 3.51752 2.97979 0
M  V30 6620 H 619.996 6.74897 1.76523 0
M  V30 6621 H 615.893 5.88653 2.64873 0
M  V30 6622 H 616.661 7.89966 2.14234 0
M  V30 6623 N 619.324 -0.923095 1.27737 0
M  V30 6624 C 620.735 -1.48626 1.12993 0
M  V30 6625 C 621.086 -1.94142 -0.283439 0
M  V30 6626 O 620.211 -1.81605 -1.17681 0
M  V30 6627 C 620.806 -2.70117 2.04505 0
M  V30 6628 C 619.365 -3.22642 1.93853 0
M  V30 6629 C 618.512 -1.95368 1.96791 0
M  V30 6630 H 621.463 -0.736737 1.40563 0
M  V30 6631 H 621.484 -3.4506 1.60356 0
M  V30 6632 H 620.996 -2.36959 3.07363 0
M  V30 6633 H 619.097 -3.60549 0.939968 0
M  V30 6634 H 619.21 -3.88525 2.80331 0
M  V30 6635 H 617.574 -2.12061 1.41076 0
M  V30 6636 H 618.357 -1.64517 3.01312 0
M  V30 6637 N 620.802 -1.09834 -1.13024 0
M  V30 6638 C 621.712 -0.753731 -2.22162 0
M  V30 6639 C 622.728 0.246105 -1.72251 0
M  V30 6640 O 623.904 0.0864051 -2.01215 0
M  V30 6641 C 620.969 -0.183958 -3.46212 0
M  V30 6642 C 620.03 -1.24028 -4.10993 0
M  V30 6643 C 619.263 -0.697597 -5.29121 0
M  V30 6644 O 619.486 0.478092 -5.68393 0
M  V30 6645 O 618.42 -1.4546 -5.84059 0
M  V30 6646 H 622.246 -1.66456 -2.5402 0
M  V30 6647 H 619.831 -0.873026 -1.21238 0
M  V30 6648 H 621.713 0.130257 -4.21199 0
M  V30 6649 H 620.388 0.699823 -3.16045 0
M  V30 6650 H 619.295 -1.60725 -3.37814 0
M  V30 6651 H 620.628 -2.09685 -4.45301 0
M  V30 6652 N 622.28 1.30327 -0.886154 0
M  V30 6653 C 623.228 2.30052 -0.343317 0
M  V30 6654 C 624.222 1.60212 0.550305 0
M  V30 6655 O 625.428 1.74674 0.434609 0
M  V30 6656 H 621.803 0.746306 -0.0923681 0
M  V30 6657 H 623.774 2.73294 -1.19804 0
M  V30 6658 C 622.523 3.45079 0.426107 0
M  V30 6659 H 621.846 3.99003 -0.25227 0
M  V30 6660 H 623.286 4.16931 0.771009 0
M  V30 6661 C 621.745 2.95195 1.62363 0
M  V30 6662 O 622.275 2.95323 2.723 0
M  V30 6663 N 620.481 2.51192 1.4612 0
M  V30 6664 H 620.028 2.51286 0.566832 0
M  V30 6665 H 619.986 2.18173 2.2638 0
M  V30 6666 N 623.758 0.647228 1.43697 0
M  V30 6667 C 624.706 -0.0600105 2.32523 0
M  V30 6668 C 625.7 -0.819277 1.48271 0
M  V30 6669 O 626.906 -0.730356 1.64517 0
M  V30 6670 H 623.281 -0.0381872 0.75103 0
M  V30 6671 H 625.252 0.706978 2.89904 0
M  V30 6672 C 624.001 -1.0169 3.32497 0
M  V30 6673 H 623.324 -0.442083 3.97348 0
M  V30 6674 H 624.764 -1.48095 3.97296 0
M  V30 6675 C 623.223 -2.11002 2.6264 0
M  V30 6676 O 623.753 -3.19302 2.4374 0
M  V30 6677 N 621.959 -1.87388 2.22113 0
M  V30 6678 H 621.506 -0.993174 2.37684 0
M  V30 6679 H 621.464 -2.60723 1.75701 0
M  V30 6680 N 625.236 -1.5273 0.388769 0
M  V30 6681 C 626.513 -1.93981 -0.251133 0
M  V30 6682 C 626.893 -1.32418 -1.64404 0
M  V30 6683 O 626.241 -0.492074 -2.23139 0
M  V30 6684 C 626.451 -3.47891 -0.27802 0
M  V30 6685 C 627.799 -4.21559 -0.507229 0
M  V30 6686 O 628.823 -3.54394 -0.358252 0
M  V30 6687 O 627.682 -5.40626 -0.799094 0
M  V30 6688 H 624.776 -0.812157 -0.15598 0
M  V30 6689 H 627.322 -1.63809 0.443237 0
M  V30 6690 H 626.094 -3.8503 0.697669 0
M  V30 6691 H 625.717 -3.84364 -1.01733 0
M  V30 6692 N 626.714 -0.118576 -1.57153 0
M  V30 6693 C 627.677 0.817464 -2.14127 0
M  V30 6694 C 628.677 1.1949 -1.07604 0
M  V30 6695 O 629.867 1.12048 -1.33382 0
M  V30 6696 C 626.999 2.10541 -2.68115 0
M  V30 6697 H 628.192 0.322339 -2.98163 0
M  V30 6698 H 625.745 0.130655 -1.55753 0
M  V30 6699 H 626.48 2.64485 -1.87665 0
M  V30 6700 H 626.265 1.84425 -3.4602 0
M  V30 6701 H 627.755 2.77453 -3.12105 0
M  V30 6702 N 628.193 1.56834 0.155195 0
M  V30 6703 C 629.14 1.97646 1.19184 0
M  V30 6704 C 630.11 0.842788 1.4313 0
M  V30 6705 O 631.295 1.1042 1.55602 0
M  V30 6706 C 628.435 2.35527 2.52232 0
M  V30 6707 C 627.548 3.62147 2.35529 0
M  V30 6708 C 626.683 3.89167 3.61555 0
M  V30 6709 C 625.722 5.09084 3.39853 0
M  V30 6710 N 624.859 5.32156 4.5799 0
M  V30 6711 H 629.699 2.8601 0.836802 0
M  V30 6712 H 627.236 1.41507 0.401758 0
M  V30 6713 H 629.194 2.55516 3.29799 0
M  V30 6714 H 627.824 1.50253 2.85699 0
M  V30 6715 H 626.876 3.4998 1.49057 0
M  V30 6716 H 628.188 4.49871 2.15448 0
M  V30 6717 H 627.342 4.09611 4.47553 0
M  V30 6718 H 626.081 2.9985 3.84632 0
M  V30 6719 H 625.086 4.88522 2.52243 0
M  V30 6720 H 626.311 5.99947 3.18183 0
M  V30 6721 H 624.257 4.45791 4.81255 0
M  V30 6722 H 624.174 6.14133 4.40882 0
M  V30 6723 H 625.442 5.57091 5.45225 0
M  V30 6724 N 629.671 -0.424282 1.51781 0
M  V30 6725 C 630.581 -1.54087 1.76902 0
M  V30 6726 C 631.597 -1.61249 0.653826 0
M  V30 6727 O 632.773 -1.78247 0.937552 0
M  V30 6728 C 629.838 -2.8996 1.90063 0
M  V30 6729 C 628.899 -2.92809 3.13945 0
M  V30 6730 C 628.132 -4.22201 3.26469 0
M  V30 6731 O 628.355 -5.15286 2.44616 0
M  V30 6732 O 627.289 -4.31599 4.1953 0
M  V30 6733 H 631.115 -1.358 2.71647 0
M  V30 6734 H 628.7 -0.608618 1.36441 0
M  V30 6735 H 630.582 -3.70575 2.0063 0
M  V30 6736 H 629.257 -3.08347 0.985067 0
M  V30 6737 H 628.164 -2.11102 3.08847 0
M  V30 6738 H 629.497 -2.79369 4.05233 0
M  V30 6739 N 631.149 -1.42148 -0.680565 0
M  V30 6740 C 632.079 -1.4796 -1.80638 0
M  V30 6741 C 633.06 -0.336728 -1.66734 0
M  V30 6742 O 634.245 -0.550247 -1.86242 0
M  V30 6743 C 631.375 -1.37569 -3.18892 0
M  V30 6744 C 630.329 -2.49823 -3.47524 0
M  V30 6745 C 629.655 -2.24491 -4.85291 0
M  V30 6746 C 630.955 -3.92144 -3.44994 0
M  V30 6747 H 632.649 -2.42184 -1.76032 0
M  V30 6748 H 630.195 -1.16566 -0.845481 0
M  V30 6749 H 632.148 -1.40243 -3.97379 0
M  V30 6750 H 630.872 -0.398357 -3.24162 0
M  V30 6751 H 629.531 -2.46455 -2.71395 0
M  V30 6752 H 629.179 -1.25066 -4.87204 0
M  V30 6753 H 628.879 -2.99722 -5.05411 0
M  V30 6754 H 630.403 -2.28906 -5.66069 0
M  V30 6755 H 631.817 -3.97145 -4.13459 0
M  V30 6756 H 630.214 -4.67179 -3.76648 0
M  V30 6757 H 631.284 -4.19225 -2.43676 0
M  V30 6758 N 632.627 0.916307 -1.28225 0
M  V30 6759 C 633.574 2.01841 -1.11932 0
M  V30 6760 C 634.544 1.66091 -0.0171604 0
M  V30 6761 O 635.729 1.89934 -0.181617 0
M  V30 6762 C 632.869 3.36065 -0.784504 0
M  V30 6763 C 631.982 3.847 -1.96544 0
M  V30 6764 C 631.117 5.07423 -1.57149 0
M  V30 6765 C 630.156 5.48384 -2.71922 0
M  V30 6766 N 629.293 6.62298 -2.33037 0
M  V30 6767 H 634.133 2.1511 -2.06232 0
M  V30 6768 H 631.67 1.05366 -1.02647 0
M  V30 6769 H 633.628 4.13272 -0.571148 0
M  V30 6770 H 632.258 3.22571 0.121565 0
M  V30 6771 H 631.31 3.03673 -2.291 0
M  V30 6772 H 632.622 4.1102 -2.82603 0
M  V30 6773 H 631.776 5.92165 -1.32004 0
M  V30 6774 H 630.515 4.82906 -0.682153 0
M  V30 6775 H 629.52 4.62184 -2.97768 0
M  V30 6776 H 630.745 5.7489 -3.61494 0
M  V30 6777 H 628.691 6.39416 -1.4657 0
M  V30 6778 H 628.608 6.8833 -3.12631 0
M  V30 6779 H 629.876 7.50352 -2.11169 0
M  V30 6780 N 634.105 1.10431 1.1244 0
M  V30 6781 C 635.521 0.836096 1.35947 0
M  V30 6782 C 635.721 -0.544475 1.94004 0
M  V30 6783 O 634.777 -1.29735 2.16622 0
M  V30 6784 C 636.09 1.93575 2.30107 0
M  V30 6785 C 637.638 1.9642 2.43697 0
M  V30 6786 C 638.113 3.05559 3.41171 0
M  V30 6787 N 639.604 3.04865 3.48728 0
M  V30 6788 C 640.339 3.85954 4.24061 0
M  V30 6789 N 639.835 4.76977 5.02458 0
M  V30 6790 N 641.628 3.74172 4.19466 0
M  V30 6791 H 633.779 1.9942 0.731124 0
M  V30 6792 H 636.042 0.866607 0.384312 0
M  V30 6793 H 635.748 2.92943 1.94621 0
M  V30 6794 H 635.622 1.8229 3.30227 0
M  V30 6795 H 638.009 0.97685 2.78463 0
M  V30 6796 H 638.09 2.11782 1.43465 0
M  V30 6797 H 637.734 4.04513 3.07135 0
M  V30 6798 H 637.664 2.87438 4.41234 0
M  V30 6799 H 640.155 2.38908 2.92799 0
M  V30 6800 H 640.468 5.35409 5.57277 0
M  V30 6801 H 638.813 4.81006 5.01655 0
M  V30 6802 H 642.004 3.02412 3.57302 0
M  V30 6803 H 642.177 4.37602 4.77921 0
M  V30 6804 N 635.583 -1.29855 0.893053 0
M  V30 6805 C 636.832 -1.95104 0.511597 0
M  V30 6806 C 637.145 -1.71226 -0.945567 0
M  V30 6807 O 638.351 -2.30525 -1.43424 0
M  V30 6808 C 636.807 -3.49374 0.864034 0
M  V30 6809 C 636.415 -3.82061 2.33952 0
M  V30 6810 C 638.159 -4.20894 0.552167 0
M  V30 6811 C 636.066 -5.29546 2.63316 0
M  V30 6812 H 634.996 -0.73029 0.187597 0
M  V30 6813 H 637.647 -1.47682 1.08914 0
M  V30 6814 H 636.029 -3.95413 0.215493 0
M  V30 6815 H 637.203 -3.46904 3.03305 0
M  V30 6816 H 635.518 -3.23665 2.61973 0
M  V30 6817 H 638.115 -5.29435 0.748489 0
M  V30 6818 H 638.458 -4.13178 -0.508924 0
M  V30 6819 H 638.991 -3.80564 1.15825 0
M  V30 6820 H 635.73 -5.4232 3.68197 0
M  V30 6821 H 635.25 -5.65974 1.9858 0
M  V30 6822 H 636.929 -5.97068 2.49236 0
M  V30 6823 N 637.061 -0.65484 -1.43351 0
M  V30 6824 C 637.991 0.0221809 -2.33489 0
M  V30 6825 C 638.972 0.810272 -1.49561 0
M  V30 6826 O 640.157 0.771426 -1.78221 0
M  V30 6827 C 637.287 0.988117 -3.32947 0
M  V30 6828 C 636.241 0.310026 -4.26876 0
M  V30 6829 C 635.567 1.38752 -5.16384 0
M  V30 6830 C 636.867 -0.798589 -5.16159 0
M  V30 6831 H 638.561 -0.730571 -2.9035 0
M  V30 6832 H 636.107 -0.352773 -1.39612 0
M  V30 6833 H 638.06 1.47067 -3.94904 0
M  V30 6834 H 636.784 1.77205 -2.74346 0
M  V30 6835 H 635.443 -0.152097 -3.66284 0
M  V30 6836 H 635.091 2.16293 -4.54121 0
M  V30 6837 H 634.791 0.939051 -5.80048 0
M  V30 6838 H 636.315 1.87141 -5.81215 0
M  V30 6839 H 637.729 -0.398126 -5.71916 0
M  V30 6840 H 636.126 -1.17163 -5.88552 0
M  V30 6841 H 637.196 -1.65588 -4.55751 0
M  V30 6842 N 638.539 1.52521 -0.396863 0
M  V30 6843 C 639.767 2.06091 0.18275 0
M  V30 6844 C 640.182 1.26796 1.39886 0
M  V30 6845 O 639.539 0.316585 1.79733 0
M  V30 6846 C 639.59 3.57362 0.545377 0
M  V30 6847 O 639.311 4.33656 -0.622428 0
M  V30 6848 C 640.812 4.27305 1.18004 0
M  V30 6849 H 638.032 0.670504 0.025789 0
M  V30 6850 H 640.576 1.96561 -0.564276 0
M  V30 6851 H 638.731 3.66941 1.2423 0
M  V30 6852 H 639.145 5.23507 -0.322662 0
M  V30 6853 H 640.619 5.34366 1.38408 0
M  V30 6854 H 641.096 3.83 2.1496 0
M  V30 6855 H 641.702 4.22064 0.523671 0
M  V30 6856 N 640.017 0.126909 1.57088 0
M  V30 6857 C 640.949 -0.850973 2.12817 0
M  V30 6858 C 641.962 -1.22457 1.07276 0
M  V30 6859 O 643.151 -1.17215 1.34622 0
M  V30 6860 C 640.251 -2.15039 2.61938 0
M  V30 6861 C 639.424 -1.94726 3.91664 0
M  V30 6862 C 638.483 -3.0847 4.26301 0
M  V30 6863 O 637.509 -2.81038 4.94981 0
M  V30 6864 N 638.711 -4.35116 3.84259 0
M  V30 6865 H 641.476 -0.3748 2.97347 0
M  V30 6866 H 639.037 -0.0572793 1.61799 0
M  V30 6867 H 641.029 -2.90141 2.82135 0
M  V30 6868 H 639.599 -2.5398 1.82244 0
M  V30 6869 H 638.819 -1.03772 3.80296 0
M  V30 6870 H 640.107 -1.78469 4.76473 0
M  V30 6871 H 639.505 -4.60276 3.2888 0
M  V30 6872 H 638.062 -5.07064 4.09548 0
M  V30 6873 N 641.495 -1.56914 -0.146875 0
M  V30 6874 C 642.906 -1.72799 -0.706928 0
M  V30 6875 C 643.257 -0.741329 -1.81656 0
M  V30 6876 O 642.382 0.0920162 -2.16204 0
M  V30 6877 C 642.977 -3.13317 -1.28911 0
M  V30 6878 C 641.536 -3.30803 -1.79573 0
M  V30 6879 C 640.683 -2.68725 -0.684252 0
M  V30 6880 H 643.634 -1.58504 0.0787931 0
M  V30 6881 H 643.655 -3.13323 -2.15891 0
M  V30 6882 H 643.167 -3.85104 -0.481284 0
M  V30 6883 H 641.268 -2.64012 -2.62923 0
M  V30 6884 H 641.381 -4.38754 -1.92436 0
M  V30 6885 H 639.745 -2.29196 -1.11091 0
M  V30 6886 H 640.528 -3.43117 0.112134 0
M  V30 6887 N 642.974 0.416227 -1.52004 0
M  V30 6888 C 643.924 1.50558 -1.7122 0
M  V30 6889 C 644.908 1.50613 -0.56609 0
M  V30 6890 O 646.1 1.56709 -0.822874 0
M  V30 6891 C 643.229 2.88556 -1.85984 0
M  V30 6892 C 642.315 2.93177 -3.06445 0
M  V30 6893 N 642.706 2.67505 -4.29272 0
M  V30 6894 C 641.004 3.24343 -3.06133 0
M  V30 6895 C 641.705 2.78511 -5.10692 0
M  V30 6896 N 640.681 3.11087 -4.45787 0
M  V30 6897 H 644.483 1.29494 -2.63834 0
M  V30 6898 H 641.997 0.62384 -1.4994 0
M  V30 6899 H 643.994 3.66954 -1.97865 0
M  V30 6900 H 642.654 3.10624 -0.945654 0
M  V30 6901 H 643.665 2.42033 -4.57865 0
M  V30 6902 H 640.342 3.52051 -2.24425 0
M  V30 6903 H 641.732 2.62438 -6.18527 0
M  V30 6904 N 644.452 1.42507 0.673017 0
M  V30 6905 C 645.699 1.43072 1.43306 0
M  V30 6906 C 646.027 0.0478004 1.94441 0
M  V30 6907 O 645.282 -0.944106 1.71421 0
M  V30 6908 C 645.581 2.40351 2.64511 0
M  V30 6909 C 645.247 3.8669 2.31908 0
M  V30 6910 C 643.909 4.26551 2.22728 0
M  V30 6911 C 646.261 4.78991 2.05467 0
M  V30 6912 C 643.589 5.56691 1.85234 0
M  V30 6913 C 645.941 6.09476 1.69477 0
M  V30 6914 C 644.605 6.48334 1.58808 0
M  V30 6915 H 643.875 0.523536 0.524395 0
M  V30 6916 H 646.522 1.75459 0.76723 0
M  V30 6917 H 644.827 2.01297 3.36135 0
M  V30 6918 H 646.524 2.38051 3.22696 0
M  V30 6919 H 643.114 3.55132 2.39956 0
M  V30 6920 H 647.298 4.48982 2.11492 0
M  V30 6921 H 642.554 5.85657 1.75545 0
M  V30 6922 H 646.728 6.80482 1.48043 0
M  V30 6923 H 644.355 7.49084 1.29525 0
M  V30 6924 N 645.93 -0.909495 1.28709 0
M  V30 6925 C 646.863 -2.01388 1.07323 0
M  V30 6926 C 647.841 -1.62596 -0.0119757 0
M  V30 6927 O 649.025 -1.88003 0.136796 0
M  V30 6928 C 646.152 -3.32755 0.631797 0
M  V30 6929 C 645.198 -3.90532 1.71428 0
M  V30 6930 S 646.031 -4.20853 3.31124 0
M  V30 6931 C 647.187 -5.55276 2.88825 0
M  V30 6932 H 647.42 -2.19219 2.00824 0
M  V30 6933 H 644.953 -1.05489 1.12745 0
M  V30 6934 H 646.911 -4.08702 0.38381 0
M  V30 6935 H 645.572 -3.12818 -0.283451 0
M  V30 6936 H 644.765 -4.85385 1.35712 0
M  V30 6937 H 644.367 -3.21237 1.91528 0
M  V30 6938 H 646.659 -6.35341 2.3526 0
M  V30 6939 H 647.602 -5.95907 3.82492 0
M  V30 6940 H 648.01 -5.16666 2.27412 0
M  V30 6941 N 647.408 -1.11026 -1.11852 0
M  V30 6942 C 648.371 -0.768006 -2.1595 0
M  V30 6943 C 649.371 0.210538 -1.59416 0
M  V30 6944 O 650.561 -0.0133978 -1.74195 0
M  V30 6945 C 647.693 -0.138678 -3.40618 0
M  V30 6946 H 648.886 -1.69012 -2.4774 0
M  V30 6947 H 646.439 -0.911578 -1.26964 0
M  V30 6948 H 647.174 0.793872 -3.14433 0
M  V30 6949 H 646.959 -0.843012 -3.8293 0
M  V30 6950 H 648.449 0.0848039 -4.17514 0
M  V30 6951 N 648.886 1.2938 -0.899927 0
M  V30 6952 C 649.816 2.30144 -0.39446 0
M  V30 6953 C 650.797 1.61611 0.530639 0
M  V30 6954 O 651.982 1.89119 0.441319 0
M  V30 6955 C 649.112 3.45229 0.37868 0
M  V30 6956 C 648.066 4.25564 -0.456012 0
M  V30 6957 C 647.392 5.32848 0.444637 0
M  V30 6958 C 648.692 4.93651 -1.70605 0
M  V30 6959 H 650.386 2.72673 -1.23653 0
M  V30 6960 H 647.932 1.31086 -0.596034 0
M  V30 6961 H 649.885 4.14797 0.743037 0
M  V30 6962 H 648.609 3.01545 1.25453 0
M  V30 6963 H 647.268 3.57704 -0.802704 0
M  V30 6964 H 646.916 4.85408 1.31863 0
M  V30 6965 H 646.616 5.87497 -0.110154 0
M  V30 6966 H 648.14 6.05268 0.805182 0
M  V30 6967 H 649.554 5.55655 -1.41141 0
M  V30 6968 H 647.951 5.58233 -2.20217 0
M  V30 6969 H 649.021 4.18926 -2.4419 0
M  V30 6970 N 650.364 0.662433 1.43002 0
M  V30 6971 C 651.294 -0.00979809 2.33498 0
M  V30 6972 C 652.275 -0.802329 1.49989 0
M  V30 6973 O 653.46 -0.761964 1.78627 0
M  V30 6974 C 650.59 -0.970446 3.33466 0
M  V30 6975 C 649.544 -0.287383 4.27034 0
M  V30 6976 C 648.87 -1.36012 5.17112 0
M  V30 6977 C 650.17 0.82595 5.15728 0
M  V30 6978 H 651.864 0.745959 2.89958 0
M  V30 6979 H 649.41 0.360172 1.39423 0
M  V30 6980 H 651.363 -1.44971 3.95679 0
M  V30 6981 H 650.087 -1.75748 2.75282 0
M  V30 6982 H 648.746 0.17152 3.66199 0
M  V30 6983 H 648.394 -2.13882 4.55262 0
M  V30 6984 H 648.094 -0.908276 5.80538 0
M  V30 6985 H 649.618 -1.84056 5.82199 0
M  V30 6986 H 651.032 0.42845 5.71697 0
M  V30 6987 H 649.429 1.20282 5.87922 0
M  V30 6988 H 650.499 1.68003 4.54866 0
M  V30 6989 N 651.842 -1.52309 0.404946 0
M  V30 6990 C 652.774 -2.24579 -0.45791 0
M  V30 6991 C 653.787 -1.2739 -1.01369 0
M  V30 6992 O 654.976 -1.53363 -0.91335 0
M  V30 6993 C 652.076 -2.9608 -1.64893 0
M  V30 6994 C 651.249 -4.20106 -1.21777 0
M  V30 6995 C 650.308 -4.74468 -2.27523 0
M  V30 6996 O 649.334 -5.37157 -1.88285 0
M  V30 6997 N 650.536 -4.55678 -3.59635 0
M  V30 6998 H 653.301 -2.99265 0.161341 0
M  V30 6999 H 650.862 -1.60228 0.232107 0
M  V30 7000 H 652.854 -3.29344 -2.35191 0
M  V30 7001 H 651.424 -2.24606 -2.17419 0
M  V30 7002 H 650.644 -3.92704 -0.343071 0
M  V30 7003 H 651.932 -5.00658 -0.906596 0
M  V30 7004 H 651.33 -4.05673 -3.94266 0
M  V30 7005 H 649.887 -4.9339 -4.25922 0
M  V30 7006 N 653.32 -0.135238 -1.57019 0
M  V30 7007 C 654.548 0.526066 -2.001 0
M  V30 7008 C 654.963 1.59184 -1.01519 0
M  V30 7009 O 654.32 1.82497 -0.0104258 0
M  V30 7010 C 654.371 1.13744 -3.43139 0
M  V30 7011 O 654.092 0.114259 -4.37951 0
M  V30 7012 C 655.593 1.8805 -4.01438 0
M  V30 7013 H 652.813 0.137962 -0.656664 0
M  V30 7014 H 655.357 -0.226359 -2.03243 0
M  V30 7015 H 653.512 1.84056 -3.40885 0
M  V30 7016 H 653.926 0.56058 -5.21496 0
M  V30 7017 H 655.4 2.26133 -5.03555 0
M  V30 7018 H 655.877 2.76194 -3.41487 0
M  V30 7019 H 656.483 1.22464 -4.07287 0
M  V30 7020 N 654.798 1.5699 0.138552 0
M  V30 7021 C 655.748 1.9532 1.17619 0
M  V30 7022 C 656.732 0.825545 1.38107 0
M  V30 7023 O 657.924 1.08908 1.39528 0
M  V30 7024 C 655.053 2.34451 2.50774 0
M  V30 7025 C 654.139 3.53805 2.33844 0
M  V30 7026 N 654.53 4.70088 1.86685 0
M  V30 7027 C 652.828 3.59055 2.64567 0
M  V30 7028 C 653.529 5.52165 1.82998 0
M  V30 7029 N 652.505 4.94108 2.26624 0
M  V30 7030 H 656.307 2.82694 0.803809 0
M  V30 7031 H 653.821 1.5866 0.346519 0
M  V30 7032 H 655.818 2.60119 3.25797 0
M  V30 7033 H 654.478 1.48431 2.88788 0
M  V30 7034 H 655.489 4.93681 1.56523 0
M  V30 7035 H 652.166 2.83596 3.06398 0
M  V30 7036 H 653.556 6.55407 1.47957 0
M  V30 7037 N 656.276 -0.40816 1.52223 0
M  V30 7038 C 657.553 -1.16807 1.56893 0
M  V30 7039 C 657.933 -2.08169 0.350537 0
M  V30 7040 O 657.281 -2.18684 -0.662536 0
M  V30 7041 C 657.491 -1.94451 2.8981 0
M  V30 7042 C 658.839 -2.50484 3.42845 0
M  V30 7043 O 659.863 -2.0463 2.91556 0
M  V30 7044 O 658.722 -3.34192 4.3241 0
M  V30 7045 H 655.816 -0.533382 0.632007 0
M  V30 7046 H 658.362 -0.414862 1.64551 0
M  V30 7047 H 657.134 -1.27527 3.69936 0
M  V30 7048 H 656.757 -2.76775 2.85449 0
M  V30 7049 N 657.755 -1.42862 -0.66545 0
M  V30 7050 C 659.001 -1.44043 -1.42757 0
M  V30 7051 C 659.334 -0.0599629 -1.94107 0
M  V30 7052 O 658.609 0.917286 -1.71511 0
M  V30 7053 C 658.892 -2.47266 -2.61786 0
M  V30 7054 C 658.745 -3.94539 -2.16007 0
M  V30 7055 C 660.064 -2.47365 -3.64003 0
M  V30 7056 H 657.183 -0.524506 -0.517748 0
M  V30 7057 H 659.825 -1.74335 -0.755466 0
M  V30 7058 H 657.975 -2.21565 -3.19126 0
M  V30 7059 H 659.647 -4.31254 -1.63762 0
M  V30 7060 H 657.89 -4.07957 -1.47491 0
M  V30 7061 H 658.561 -4.62357 -3.01546 0
M  V30 7062 H 661.037 -2.70243 -3.16399 0
M  V30 7063 H 659.913 -3.21552 -4.44854 0
M  V30 7064 H 660.174 -1.50299 -4.15767 0
M  V30 7065 N 659.233 0.902656 -1.29189 0
M  V30 7066 C 660.479 1.65532 -1.17163 0
M  V30 7067 C 660.812 1.92216 0.276879 0
M  V30 7068 O 660.087 1.53048 1.20027 0
M  V30 7069 C 660.37 3.00629 -1.98228 0
M  V30 7070 C 660.223 2.81029 -3.51202 0
M  V30 7071 C 661.542 4.01321 -1.80635 0
M  V30 7072 H 658.661 0.60071 -0.426985 0
M  V30 7073 H 661.303 1.04578 -1.5863 0
M  V30 7074 H 659.453 3.52656 -1.62991 0
M  V30 7075 H 661.125 2.35927 -3.96404 0
M  V30 7076 H 659.368 2.1587 -3.76275 0
M  V30 7077 H 660.039 3.77014 -4.03192 0
M  V30 7078 H 662.515 3.58394 -2.11406 0
M  V30 7079 H 661.391 4.93792 -2.3971 0
M  V30 7080 H 661.652 4.35505 -0.760754 0
M  V30 7081 N 660.711 1.11618 1.11262 0
M  V30 7082 C 661.674 0.779447 2.15539 0
M  V30 7083 C 662.674 -0.202081 1.59525 0
M  V30 7084 O 663.864 0.0226356 1.74185 0
M  V30 7085 C 660.996 0.15674 3.40539 0
M  V30 7086 H 662.189 1.70324 2.4684 0
M  V30 7087 H 659.742 0.918298 1.26479 0
M  V30 7088 H 660.477 -0.777186 3.1485 0
M  V30 7089 H 660.262 0.863308 3.82478 0
M  V30 7090 H 661.752 -0.062661 4.17553 0
M  V30 7091 N 662.189 -1.289 0.906776 0
M  V30 7092 C 663.139 -2.25122 0.361109 0
M  V30 7093 C 664.123 -1.52169 -0.52283 0
M  V30 7094 O 665.315 -1.73223 -0.363691 0
M  V30 7095 C 662.444 -3.40915 -0.403982 0
M  V30 7096 C 661.53 -4.21198 0.495279 0
M  V30 7097 N 661.921 -4.79636 1.60572 0
M  V30 7098 C 660.219 -4.45027 0.294372 0
M  V30 7099 C 660.92 -5.39977 2.16332 0
M  V30 7100 N 659.896 -5.23753 1.45546 0
M  V30 7101 H 663.698 -2.67869 1.20927 0
M  V30 7102 H 661.212 -1.43592 0.758632 0
M  V30 7103 H 663.209 -4.08922 -0.811695 0
M  V30 7104 H 661.869 -2.99703 -1.24932 0
M  V30 7105 H 662.88 -4.78209 1.98838 0
M  V30 7106 H 659.557 -4.14348 -0.512021 0
M  V30 7107 H 660.947 -5.96266 3.09704 0
M  V30 7108 N 663.667 -0.670007 -1.42649 0
M  V30 7109 C 664.577 0.0114788 -2.34597 0
M  V30 7110 C 665.593 0.794055 -1.54825 0
M  V30 7111 O 666.769 0.737472 -1.87412 0
M  V30 7112 C 663.834 0.954436 -3.33304 0
M  V30 7113 C 662.895 0.166925 -4.28975 0
M  V30 7114 C 662.128 1.06497 -5.22967 0
M  V30 7115 O 662.351 2.30446 -5.21777 0
M  V30 7116 O 661.285 0.528347 -5.99577 0
M  V30 7117 H 665.111 -0.745794 -2.944 0
M  V30 7118 H 662.696 -0.430228 -1.43071 0
M  V30 7119 H 664.578 1.49589 -3.93956 0
M  V30 7120 H 663.253 1.69164 -2.7598 0
M  V30 7121 H 662.16 -0.418515 -3.71752 0
M  V30 7122 H 663.493 -0.531067 -4.89327 0
M  V30 7123 N 665.145 1.52092 -0.413018 0
M  V30 7124 C 666.391 2.02154 0.161737 0
M  V30 7125 C 666.724 1.29789 1.44459 0
M  V30 7126 O 665.999 0.405378 1.90229 0
M  V30 7127 C 666.282 3.5781 0.405463 0
M  V30 7128 C 666.135 4.40819 -0.894335 0
M  V30 7129 C 667.454 4.23821 1.18591 0
M  V30 7130 H 664.573 0.734769 0.0573077 0
M  V30 7131 H 667.215 1.81948 -0.547247 0
M  V30 7132 H 665.365 3.75158 1.0094 0
M  V30 7133 H 667.037 4.35175 -1.53039 0
M  V30 7134 H 665.28 4.06877 -1.50444 0
M  V30 7135 H 665.951 5.47819 -0.678144 0
M  V30 7136 H 668.427 4.10596 0.674573 0
M  V30 7137 H 667.303 5.32663 1.3252 0
M  V30 7138 H 667.564 3.83038 2.20758 0
M  V30 7139 N 666.623 0.143563 1.56945 0
M  V30 7140 C 667.853 -0.514699 2.00086 0
M  V30 7141 C 668.261 -1.59184 1.0226 0
M  V30 7142 O 667.604 -1.83697 0.0110514 0
M  V30 7143 C 667.666 -1.17778 3.39659 0
M  V30 7144 C 667.33 -0.245657 4.56339 0
M  V30 7145 C 668.327 0.525343 5.17239 0
M  V30 7146 C 666.012 -0.149564 5.02077 0
M  V30 7147 C 668.006 1.37992 6.22284 0
M  V30 7148 C 665.693 0.708621 6.06978 0
M  V30 7149 C 666.691 1.47197 6.6695 0
M  V30 7150 O 666.379 2.31586 7.6982 0
M  V30 7151 H 666.111 -0.138789 0.661599 0
M  V30 7152 H 668.665 0.234098 2.04062 0
M  V30 7153 H 666.895 -1.97415 3.32512 0
M  V30 7154 H 668.584 -1.73542 3.6693 0
M  V30 7155 H 669.35 0.461118 4.82803 0
M  V30 7156 H 665.229 -0.733457 4.55128 0
M  V30 7157 H 668.773 1.97621 6.69023 0
M  V30 7158 H 664.67 0.77415 6.40841 0
M  V30 7159 H 665.438 2.24796 7.87025 0
M  V30 7160 N 668.101 -1.57061 -0.130224 0
M  V30 7161 C 669.326 -1.88802 -0.858409 0
M  V30 7162 C 669.751 -0.734353 -1.73173 0
M  V30 7163 O 669.109 0.315529 -1.78533 0
M  V30 7164 C 669.157 -3.19228 -1.67708 0
M  V30 7165 O 668.261 -3.04343 -2.78297 0
M  V30 7166 H 667.602 -0.619849 -0.238083 0
M  V30 7167 H 670.132 -2.04271 -0.115995 0
M  V30 7168 H 670.142 -3.51669 -2.06864 0
M  V30 7169 H 668.817 -4.02793 -1.0359 0
M  V30 7170 H 667.394 -2.83346 -2.42425 0
M  V30 7171 N 669.579 0.400081 -1.52437 0
M  V30 7172 C 670.856 1.15973 -1.57511 0
M  V30 7173 C 671.236 2.0798 -0.361572 0
M  V30 7174 O 670.584 2.19032 0.650929 0
M  V30 7175 C 670.794 1.92912 -2.90837 0
M  V30 7176 C 672.142 2.48662 -3.44169 0
M  V30 7177 O 673.166 2.03081 -2.92637 0
M  V30 7178 O 672.025 3.31894 -4.34176 0
M  V30 7179 H 669.119 0.530023 -0.634827 0
M  V30 7180 H 671.665 0.40613 -1.64769 0
M  V30 7181 H 670.437 1.25564 -3.70607 0
M  V30 7182 H 670.06 2.75257 -2.86913 0
M  V30 7183 N 671.057 1.43213 0.657864 0
M  V30 7184 C 671.967 1.50448 1.80007 0
M  V30 7185 C 672.983 0.39191 1.69529 0
M  V30 7186 O 674.159 0.645349 1.90781 0
M  V30 7187 C 671.224 1.42062 3.16258 0
M  V30 7188 C 670.285 2.63951 3.38568 0
M  V30 7189 C 669.518 2.55956 4.68318 0
M  V30 7190 O 669.741 1.60473 5.47361 0
M  V30 7191 O 668.675 3.46378 4.92245 0
M  V30 7192 H 672.501 2.4689 1.76858 0
M  V30 7193 H 670.086 1.25163 0.81576 0
M  V30 7194 H 671.968 1.3981 3.97531 0
M  V30 7195 H 670.643 0.487524 3.20008 0
M  V30 7196 H 669.55 2.71776 2.57077 0
M  V30 7197 H 670.883 3.56217 3.39662 0
M  V30 7198 N 672.536 -0.895792 1.29666 0
M  V30 7199 C 673.499 -1.98189 1.15124 0
M  V30 7200 C 674.499 -1.60572 0.0855717 0
M  V30 7201 O 675.689 -1.70991 0.332826 0
M  V30 7202 C 672.821 -3.32289 0.761372 0
M  V30 7203 H 674.014 -2.12518 2.11603 0
M  V30 7204 H 671.567 -1.0808 1.12908 0
M  V30 7205 H 672.302 -3.23662 -0.203393 0
M  V30 7206 H 672.087 -3.60958 1.53139 0
M  V30 7207 H 673.577 -4.1198 0.682792 0
M  V30 7208 N 674.014 -1.12206 -1.10668 0
M  V30 7209 C 674.944 -0.810086 -2.18997 0
M  V30 7210 C 675.925 0.225065 -1.68604 0
M  V30 7211 O 677.11 0.086783 -1.94006 0
M  V30 7212 C 674.24 -0.261262 -3.46316 0
M  V30 7213 C 673.194 -1.2292 -4.09969 0
M  V30 7214 C 672.52 -0.540713 -5.31959 0
M  V30 7215 C 673.82 -2.58295 -4.53962 0
M  V30 7216 H 675.514 -1.7159 -2.45352 0
M  V30 7217 H 673.06 -0.82646 -1.17922 0
M  V30 7218 H 675.013 -0.0307522 -4.21389 0
M  V30 7219 H 673.737 0.679879 -3.19445 0
M  V30 7220 H 672.396 -1.44548 -3.369 0
M  V30 7221 H 672.044 0.405492 -5.01363 0
M  V30 7222 H 671.744 -1.18637 -5.75499 0
M  V30 7223 H 673.268 -0.319184 -6.09765 0
M  V30 7224 H 674.682 -2.40709 -5.20319 0
M  V30 7225 H 673.079 -3.18916 -5.08343 0
M  V30 7226 H 674.149 -3.16918 -3.67002 0
M  V30 7227 N 675.492 1.28418 -0.913599 0
M  V30 7228 C 676.908 1.47411 -0.611728 0
M  V30 7229 C 677.108 1.83018 0.843008 0
M  V30 7230 O 676.164 1.93505 1.6221 0
M  V30 7231 C 677.477 2.57703 -1.5495 0
M  V30 7232 C 679.025 2.71572 -1.5562 0
M  V30 7233 C 679.5 3.85008 -2.48058 0
M  V30 7234 N 680.991 3.92361 -2.46184 0
M  V30 7235 C 681.726 4.79516 -3.14407 0
M  V30 7236 N 681.222 5.71262 -3.91958 0
M  V30 7237 N 683.015 4.73125 -3.03495 0
M  V30 7238 H 675.166 1.03585 -1.85429 0
M  V30 7239 H 677.429 0.515907 -0.795326 0
M  V30 7240 H 677.135 2.38298 -2.58663 0
M  V30 7241 H 677.009 3.54801 -1.28048 0
M  V30 7242 H 679.396 2.90366 -0.526441 0
M  V30 7243 H 679.477 1.75006 -1.86565 0
M  V30 7244 H 679.121 3.66969 -3.51136 0
M  V30 7245 H 679.051 4.80971 -2.14416 0
M  V30 7246 H 681.542 3.26749 -1.89851 0
M  V30 7247 H 681.855 6.34593 -4.41034 0
M  V30 7248 H 680.2 5.71103 -3.96063 0
M  V30 7249 H 683.391 4.00442 -2.42413 0
M  V30 7250 H 683.564 5.40834 -3.56935 0
M  V30 7251 N 676.97 0.677563 1.42291 0
M  V30 7252 C 678.216 0.201272 2.01799 0
M  V30 7253 C 678.549 -1.19004 1.53465 0
M  V30 7254 O 677.824 -1.79953 0.738039 0
M  V30 7255 C 678.107 0.238968 3.59306 0
M  V30 7256 C 677.96 1.66594 4.17812 0
M  V30 7257 C 679.279 -0.411287 4.38174 0
M  V30 7258 H 676.398 0.0746114 0.733214 0
M  V30 7259 H 679.04 0.862872 1.69276 0
M  V30 7260 H 677.19 -0.324368 3.87144 0
M  V30 7261 H 678.862 2.28173 4.00917 0
M  V30 7262 H 677.105 2.20576 3.73536 0
M  V30 7263 H 677.776 1.64398 5.26951 0
M  V30 7264 H 680.252 0.0682804 4.16044 0
M  V30 7265 H 679.128 -0.354286 5.47755 0
M  V30 7266 H 679.389 -1.4893 4.1626 0
M  V30 7267 N 678.448 -1.51871 0.421078 0
M  V30 7268 C 679.676 -2.06356 -0.14994 0
M  V30 7269 C 680.091 -1.29006 -1.37851 0
M  V30 7270 O 679.448 -0.345139 -1.79207 0
M  V30 7271 C 679.499 -3.58185 -0.488454 0
M  V30 7272 O 679.22 -4.32611 0.691341 0
M  V30 7273 C 680.721 -4.29129 -1.11191 0
M  V30 7274 H 677.941 -0.67083 -0.0151186 0
M  V30 7275 H 680.485 -1.95638 0.595476 0
M  V30 7276 H 678.64 -3.68871 -1.18376 0
M  V30 7277 H 679.054 -5.22927 0.405906 0
M  V30 7278 H 680.528 -5.36501 -1.29889 0
M  V30 7279 H 681.005 -3.86371 -2.0884 0
M  V30 7280 H 681.611 -4.22843 -0.456458 0
M  V30 7281 N 679.926 -0.151884 -1.56866 0
M  V30 7282 C 681.337 0.368128 -1.83035 0
M  V30 7283 C 681.688 1.64402 -1.07082 0
M  V30 7284 O 680.813 2.14056 -0.317647 0
M  V30 7285 C 681.408 0.674676 -3.32014 0
M  V30 7286 C 679.967 1.13919 -3.58747 0
M  V30 7287 C 679.114 0.164833 -2.7681 0
M  V30 7288 H 682.065 -0.376499 -1.54169 0
M  V30 7289 H 682.086 1.52883 -3.48435 0
M  V30 7290 H 681.598 -0.254113 -3.87267 0
M  V30 7291 H 679.699 2.08375 -3.08886 0
M  V30 7292 H 679.812 1.06179 -4.67186 0
M  V30 7293 H 678.176 0.658419 -2.46043 0
M  V30 7294 H 678.959 -0.757633 -3.34836 0
M  V30 7295 N 681.404 1.57128 0.121893 0
M  V30 7296 C 682.815 1.73902 0.679348 0
M  V30 7297 C 683.166 0.770135 1.80453 0
M  V30 7298 O 682.291 -0.0576083 2.16323 0
M  V30 7299 C 682.886 3.15328 1.2391 0
M  V30 7300 C 681.445 3.33618 1.74288 0
M  V30 7301 C 680.592 2.6978 0.641414 0
M  V30 7302 H 683.543 1.58359 -0.104 0
M  V30 7303 H 683.564 3.16718 2.10879 0
M  V30 7304 H 683.076 3.85821 0.419957 0
M  V30 7305 H 681.177 2.68162 2.58689 0
M  V30 7306 H 681.29 4.4176 1.85432 0
M  V30 7307 H 679.654 2.30935 1.0743 0
M  V30 7308 H 680.437 3.42895 -0.166707 0
M  V30 7309 N 682.882 -0.391992 1.52647 0
M  V30 7310 C 684.293 -0.970064 1.5952 0
M  V30 7311 C 684.644 -1.91059 0.446207 0
M  V30 7312 O 683.769 -2.12062 -0.431125 0
M  V30 7313 C 684.364 -1.76614 2.89125 0
M  V30 7314 C 682.923 -2.29396 2.9842 0
M  V30 7315 C 682.07 -1.09864 2.54608 0
M  V30 7316 H 685.021 -0.171638 1.57769 0
M  V30 7317 H 685.042 -2.62511 2.75442 0
M  V30 7318 H 684.554 -1.08135 3.72731 0
M  V30 7319 H 682.655 -3.01196 2.19344 0
M  V30 7320 H 682.768 -2.59088 4.03002 0
M  V30 7321 H 681.132 -1.45777 2.08857 0
M  V30 7322 H 681.915 -0.429249 3.40606 0
M  V30 7323 N 684.36 -1.4356 -0.65026 0
M  V30 7324 C 685.588 -1.48779 -1.43779 0
M  V30 7325 C 686.003 -0.106593 -1.88499 0
M  V30 7326 O 685.36 0.883766 -1.59674 0
M  V30 7327 C 685.411 -2.43618 -2.67081 0
M  V30 7328 O 685.132 -3.76367 -2.24231 0
M  V30 7329 C 686.633 -2.5811 -3.60409 0
M  V30 7330 H 683.853 -0.50521 -0.441593 0
M  V30 7331 H 686.397 -1.88332 -0.796941 0
M  V30 7332 H 684.552 -2.07253 -3.273 0
M  V30 7333 H 684.966 -4.27394 -3.0403 0
M  V30 7334 H 686.44 -3.28539 -4.43583 0
M  V30 7335 H 686.917 -1.627 -4.07953 0
M  V30 7336 H 687.523 -2.95298 -3.0607 0
M  V30 7337 N 685.838 0.888903 -1.30139 0
M  V30 7338 C 687.063 1.67884 -1.21777 0
M  V30 7339 C 687.488 1.86848 0.216689 0
M  V30 7340 O 686.846 1.39659 1.15608 0
M  V30 7341 C 686.894 3.03483 -1.94757 0
M  V30 7342 O 685.998 3.92294 -1.27198 0
M  V30 7343 H 685.339 0.513144 -0.421402 0
M  V30 7344 H 687.869 1.10968 -1.71893 0
M  V30 7345 H 687.879 3.53553 -2.03627 0
M  V30 7346 H 686.554 2.89 -2.99085 0
M  V30 7347 H 685.131 3.50732 -1.26655 0
M  V30 7348 N 687.317 1.12792 1.10072 0
M  V30 7349 C 688.728 0.899346 1.63611 0
M  V30 7350 C 689.079 -0.565547 1.87872 0
M  V30 7351 O 688.204 -1.43081 1.62348 0
M  V30 7352 C 688.799 1.62608 2.97227 0
M  V30 7353 C 687.358 1.44356 3.47618 0
M  V30 7354 C 686.505 1.65958 2.22156 0
M  V30 7355 H 689.456 1.28216 0.935223 0
M  V30 7356 H 689.477 1.0793 3.64872 0
M  V30 7357 H 688.989 2.69221 2.79538 0
M  V30 7358 H 687.09 0.400148 3.70445 0
M  V30 7359 H 687.203 2.20218 4.25489 0
M  V30 7360 H 685.567 1.08395 2.30484 0
M  V30 7361 H 686.35 2.73877 2.06993 0
M  V30 7362 N 688.795 -1.27931 0.920396 0
M  V30 7363 C 690.025 -1.98516 0.572256 0
M  V30 7364 C 690.433 -1.68912 -0.852375 0
M  V30 7365 O 689.776 -0.94203 -1.57707 0
M  V30 7366 C 689.838 -3.5243 0.709485 0
M  V30 7367 C 689.502 -4.0564 2.10489 0
M  V30 7368 C 690.499 -4.1897 3.07831 0
M  V30 7369 C 688.184 -4.40168 2.41986 0
M  V30 7370 C 690.178 -4.66093 4.34783 0
M  V30 7371 C 687.865 -4.86983 3.69176 0
M  V30 7372 C 688.863 -4.99903 4.65388 0
M  V30 7373 O 688.551 -5.45694 5.90316 0
M  V30 7374 H 688.283 -0.64047 0.216274 0
M  V30 7375 H 690.837 -1.6393 1.23758 0
M  V30 7376 H 689.067 -3.86698 -0.0129263 0
M  V30 7377 H 690.756 -4.04233 0.367474 0
M  V30 7378 H 691.522 -3.92562 2.84816 0
M  V30 7379 H 687.401 -4.29358 1.67846 0
M  V30 7380 H 690.945 -4.76092 5.09884 0
M  V30 7381 H 686.842 -5.12832 3.92012 0
M  V30 7382 H 687.61 -5.63965 5.932 0
M  V30 7383 N 690.273 -0.685099 -1.4193 0
M  V30 7384 C 691.203 -0.0273506 -2.33484 0
M  V30 7385 C 692.184 0.778366 -1.51246 0
M  V30 7386 O 693.369 0.733449 -1.79817 0
M  V30 7387 C 690.499 0.917272 -3.34968 0
M  V30 7388 C 689.453 0.21941 -4.27437 0
M  V30 7389 C 688.779 1.27768 -5.1921 0
M  V30 7390 C 690.079 -0.907894 -5.14349 0
M  V30 7391 H 691.773 -0.791994 -2.88735 0
M  V30 7392 H 689.319 -0.382308 -1.38832 0
M  V30 7393 H 691.272 1.38657 -3.97935 0
M  V30 7394 H 689.996 1.71346 -2.78043 0
M  V30 7395 H 688.655 -0.229757 -3.65879 0
M  V30 7396 H 688.303 2.06612 -4.58607 0
M  V30 7397 H 688.003 0.815803 -5.81909 0
M  V30 7398 H 689.527 1.7477 -5.85054 0
M  V30 7399 H 690.941 -0.519348 -5.70943 0
M  V30 7400 H 689.338 -1.2962 -5.85934 0
M  V30 7401 H 690.408 -1.75218 -4.52136 0
M  V30 7402 N 691.751 1.51645 -0.429126 0
M  V30 7403 C 692.699 2.29119 0.400921 0
M  V30 7404 C 693.693 1.34628 1.02819 0
M  V30 7405 O 694.899 1.52004 0.964098 0
M  V30 7406 H 691.274 0.737273 0.148095 0
M  V30 7407 H 693.245 2.97144 -0.273457 0
M  V30 7408 C 691.994 3.13953 1.49429 0
M  V30 7409 H 691.317 3.86544 1.02097 0
M  V30 7410 H 692.757 3.71232 2.04849 0
M  V30 7411 C 691.216 2.28796 2.47293 0
M  V30 7412 O 691.746 1.94193 3.51642 0
M  V30 7413 N 689.952 1.92177 2.17982 0
M  V30 7414 H 689.499 2.20517 1.33154 0
M  V30 7415 H 689.457 1.35497 2.83704 0
M  V30 7416 N 693.229 0.160201 1.56784 0
M  V30 7417 C 694.477 -0.486625 1.96154 0
M  V30 7418 C 694.798 -1.64525 1.04673 0
M  V30 7419 O 694.068 -1.95586 0.110864 0
M  V30 7420 H 692.648 -0.182764 0.724297 0
M  V30 7421 H 695.31 0.238787 1.93432 0
M  V30 7422 H 694.406 -0.854025 3.00188 0
M  V30 7423 N 694.707 -1.5719 -0.113559 0
M  V30 7424 C 695.984 -1.76117 -0.850999 0
M  V30 7425 C 696.364 -0.737085 -1.97814 0
M  V30 7426 O 695.712 0.237942 -2.27258 0
M  V30 7427 C 695.922 -3.21298 -1.36266 0
M  V30 7428 C 697.27 -3.83955 -1.81283 0
M  V30 7429 O 698.294 -3.24934 -1.45933 0
M  V30 7430 O 697.153 -4.87707 -2.46585 0
M  V30 7431 H 694.247 -0.721308 -0.404529 0
M  V30 7432 H 696.793 -1.69423 -0.0968756 0
M  V30 7433 H 695.565 -3.87355 -0.554235 0
M  V30 7434 H 695.188 -3.32552 -2.17933 0
M  V30 7435 N 696.185 0.383891 -1.52853 0
M  V30 7436 C 697.41 1.154 -1.7233 0
M  V30 7437 C 697.835 1.82809 -0.44298 0
M  V30 7438 O 697.193 1.71026 0.601645 0
M  V30 7439 C 697.241 2.17386 -2.87708 0
M  V30 7440 O 696.345 3.24082 -2.55038 0
M  V30 7441 H 695.686 0.335709 -0.572883 0
M  V30 7442 H 698.216 0.44662 -1.99666 0
M  V30 7443 H 698.226 2.61296 -3.1335 0
M  V30 7444 H 696.901 1.6771 -3.80587 0
M  V30 7445 H 695.478 2.85273 -2.40153 0
M  V30 7446 N 697.663 1.43903 0.642637 0
M  V30 7447 C 699.074 1.40975 1.22404 0
M  V30 7448 C 699.425 0.1192 1.95838 0
M  V30 7449 O 698.55 -0.780939 2.01818 0
M  V30 7450 C 699.145 2.5538 2.22636 0
M  V30 7451 C 697.704 2.55684 2.76229 0
M  V30 7452 C 696.851 2.32556 1.51039 0
M  V30 7453 H 699.802 1.5265 0.434006 0
M  V30 7454 H 699.823 2.27474 3.05017 0
M  V30 7455 H 699.335 3.49294 1.69161 0
M  V30 7456 H 697.436 1.65679 3.33738 0
M  V30 7457 H 697.549 3.53799 3.23053 0
M  V30 7458 H 695.913 1.81427 1.78764 0
M  V30 7459 H 696.696 3.28569 0.99484 0
M  V30 7460 N 699.141 -0.881989 1.30609 0
M  V30 7461 C 700.051 -2.02076 1.19174 0
M  V30 7462 C 701.067 -1.73645 0.11102 0
M  V30 7463 O 702.243 -1.98735 0.326528 0
M  V30 7464 C 699.308 -3.3515 0.887438 0
M  V30 7465 C 698.369 -3.76983 2.05383 0
M  V30 7466 C 697.602 -5.03707 1.76395 0
M  V30 7467 O 697.825 -5.66171 0.693302 0
M  V30 7468 O 696.759 -5.42019 2.61723 0
M  V30 7469 H 700.585 -2.14652 2.14845 0
M  V30 7470 H 698.17 -1.00843 1.10232 0
M  V30 7471 H 700.052 -4.14975 0.73306 0
M  V30 7472 H 698.727 -3.23676 -0.0393354 0
M  V30 7473 H 697.634 -2.97849 2.26355 0
M  V30 7474 H 698.967 -3.93066 2.96243 0
M  V30 7475 N 700.619 -1.13374 -1.09472 0
M  V30 7476 C 701.844 -0.918711 -1.85942 0
M  V30 7477 C 702.269 0.527225 -1.8056 0
M  V30 7478 O 701.627 1.37408 -1.18274 0
M  V30 7479 C 701.675 -1.41056 -3.31867 0
M  V30 7480 O 700.779 -0.595496 -4.08078 0
M  V30 7481 H 700.12 -0.329297 -0.576593 0
M  V30 7482 H 702.65 -1.50829 -1.38245 0
M  V30 7483 H 702.66 -1.41398 -3.82715 0
M  V30 7484 H 701.335 -2.46335 -3.35099 0
M  V30 7485 H 699.912 -0.659911 -3.67014 0
M  V30 7486 N 702.098 1.27442 -0.927168 0
M  V30 7487 C 703.061 2.2512 -0.430525 0
M  V30 7488 C 704.061 1.54357 0.450619 0
M  V30 7489 O 705.251 1.72371 0.251774 0
M  V30 7490 C 702.383 3.38763 0.381144 0
M  V30 7491 H 703.576 2.70569 -1.29354 0
M  V30 7492 H 701.129 1.39355 -0.707806 0
M  V30 7493 H 701.864 2.98695 1.263 0
M  V30 7494 H 701.649 3.91298 -0.250618 0
M  V30 7495 H 703.139 4.11364 0.719012 0
M  V30 7496 N 703.576 0.692616 1.41565 0
M  V30 7497 C 704.524 0.0139952 2.32596 0
M  V30 7498 C 705.518 -0.771691 1.50802 0
M  V30 7499 O 706.724 -0.677646 1.66757 0
M  V30 7500 H 703.099 -0.0142745 0.751865 0
M  V30 7501 H 705.07 0.798851 2.87508 0
M  V30 7502 C 703.819 -0.910602 3.35564 0
M  V30 7503 H 703.142 -0.315446 3.98554 0
M  V30 7504 H 704.582 -1.3538 4.01806 0
M  V30 7505 C 703.041 -2.02539 2.6922 0
M  V30 7506 O 703.571 -3.11386 2.53775 0
M  V30 7507 N 701.777 -1.80227 2.27962 0
M  V30 7508 H 701.324 -0.917054 2.40724 0
M  V30 7509 H 701.282 -2.55001 1.83907 0
M  V30 7510 N 705.054 -1.51416 0.437162 0
M  V30 7511 C 706.302 -2.01687 -0.129108 0
M  V30 7512 C 706.623 -1.32329 -1.43227 0
M  V30 7513 O 705.893 -0.457796 -1.90476 0
M  V30 7514 H 704.473 -0.745277 -0.0507023 0
M  V30 7515 H 707.135 -1.86075 0.579828 0
M  V30 7516 H 706.231 -3.10605 -0.305141 0
M  V30 7517 N 706.532 -0.168513 -1.56696 0
M  V30 7518 C 707.809 0.523367 -1.88468 0
M  V30 7519 C 708.189 1.81503 -1.07796 0
M  V30 7520 O 707.537 2.27859 -0.171045 0
M  V30 7521 C 707.747 0.767991 -3.40445 0
M  V30 7522 C 709.095 1.09924 -4.10124 0
M  V30 7523 O 710.119 0.856625 -3.45746 0
M  V30 7524 O 708.978 1.55681 -5.23856 0
M  V30 7525 H 706.072 0.269447 -0.781874 0
M  V30 7526 H 708.618 -0.206739 -1.68436 0
M  V30 7527 H 707.39 -0.145254 -3.9103 0
M  V30 7528 H 707.013 1.55151 -3.66079 0
M  V30 7529 N 708.01 1.57248 0.105221 0
M  V30 7530 C 708.943 1.96567 1.15916 0
M  V30 7531 C 709.921 0.837355 1.39381 0
M  V30 7532 O 711.105 1.09676 1.53308 0
M  V30 7533 C 708.232 2.27375 2.51035 0
M  V30 7534 C 707.278 3.49869 2.43913 0
M  V30 7535 S 708.111 5.01958 1.86543 0
M  V30 7536 C 709.267 5.35932 3.23307 0
M  V30 7537 H 709.5 2.85655 0.823931 0
M  V30 7538 H 707.033 1.51204 0.312515 0
M  V30 7539 H 708.991 2.45801 3.28774 0
M  V30 7540 H 707.652 1.38876 2.81731 0
M  V30 7541 H 706.845 3.68835 3.43477 0
M  V30 7542 H 706.447 3.30901 1.743 0
M  V30 7543 H 708.739 5.31958 4.19556 0
M  V30 7544 H 709.682 6.37047 3.09155 0
M  V30 7545 H 710.09 4.63397 3.22372 0
M  V30 7546 N 709.488 -0.375779 1.53054 0
M  V30 7547 C 710.765 -1.13453 1.59336 0
M  V30 7548 C 711.145 -2.07379 0.394614 0
M  V30 7549 O 710.493 -2.2004 -0.616 0
M  V30 7550 C 710.703 -1.8826 2.93869 0
M  V30 7551 C 712.051 -2.43155 3.48081 0
M  V30 7552 O 713.075 -1.984 2.95831 0
M  V30 7553 O 711.934 -3.24944 4.39401 0
M  V30 7554 H 709.028 -0.519856 0.643179 0
M  V30 7555 H 711.574 -0.379865 1.65394 0
M  V30 7556 H 710.346 -1.19652 3.72558 0
M  V30 7557 H 709.969 -2.70658 2.91256 0
M  V30 7558 N 710.966 -1.44241 -0.634997 0
M  V30 7559 C 711.899 -1.45274 -1.75985 0
M  V30 7560 C 712.877 -0.312025 -1.59578 0
M  V30 7561 O 714.061 -0.508409 -1.81514 0
M  V30 7562 C 711.188 -1.28173 -3.13511 0
M  V30 7563 C 710.234 -2.45757 -3.48576 0
M  V30 7564 S 711.067 -4.08293 -3.46492 0
M  V30 7565 C 712.223 -3.93608 -4.86645 0
M  V30 7566 H 712.456 -2.40454 -1.74841 0
M  V30 7567 H 709.989 -1.31492 -0.809268 0
M  V30 7568 H 711.947 -1.18993 -3.92875 0
M  V30 7569 H 710.608 -0.34511 -3.12198 0
M  V30 7570 H 709.801 -2.29644 -4.48642 0
M  V30 7571 H 709.403 -2.51657 -2.76667 0
M  V30 7572 H 711.695 -3.57059 -5.75774 0
M  V30 7573 H 712.638 -4.9349 -5.07813 0
M  V30 7574 H 713.046 -3.25737 -4.61038 0
M  V30 7575 N 712.444 0.87505 -1.31075 0
M  V30 7576 C 713.354 2.01441 -1.20244 0
M  V30 7577 C 714.37 1.73584 -0.120227 0
M  V30 7578 O 715.546 1.98559 -0.337063 0
M  V30 7579 C 712.611 3.34675 -0.905199 0
M  V30 7580 C 711.672 3.75889 -2.0738 0
M  V30 7581 C 710.905 5.02764 -1.79064 0
M  V30 7582 O 711.128 5.65795 -0.723318 0
M  V30 7583 O 710.062 5.40623 -2.64594 0
M  V30 7584 H 713.888 2.13509 -2.1598 0
M  V30 7585 H 711.473 1.00257 -1.10765 0
M  V30 7586 H 713.355 4.1458 -0.755057 0
M  V30 7587 H 712.03 3.23692 0.0221695 0
M  V30 7588 H 710.937 2.96645 -2.27931 0
M  V30 7589 H 712.27 3.91489 -2.98324 0
M  V30 7590 N 713.922 1.13953 1.08869 0
M  V30 7591 C 714.87 0.817664 2.17754 0
M  V30 7592 C 715.864 -0.202444 1.68186 0
M  V30 7593 O 717.07 -0.0590159 1.79903 0
M  V30 7594 H 713.445 0.246671 0.710392 0
M  V30 7595 H 715.416 1.74401 2.4213 0
M  V30 7596 C 714.165 0.3063 3.46348 0
M  V30 7597 H 713.488 1.08259 3.84864 0
M  V30 7598 H 714.928 0.119584 4.23831 0
M  V30 7599 C 713.387 -0.969158 3.22659 0
M  V30 7600 O 713.917 -2.04386 3.45817 0
M  V30 7601 N 712.123 -0.902516 2.7623 0
M  V30 7602 H 711.67 -0.027801 2.57585 0
M  V30 7603 H 711.628 -1.75649 2.60758 0
M  V30 7604 N 715.4 -1.26948 0.933913 0
M  V30 7605 C 716.646 -1.94374 0.57848 0
M  V30 7606 C 716.979 -1.73166 -0.879048 0
M  V30 7607 O 716.254 -1.06438 -1.62792 0
M  V30 7608 C 716.537 -3.4834 0.912739 0
M  V30 7609 C 716.39 -3.78866 2.42448 0
M  V30 7610 C 717.709 -4.38062 0.423003 0
M  V30 7611 H 714.828 -0.705959 0.211639 0
M  V30 7612 H 717.47 -1.49951 1.16682 0
M  V30 7613 H 715.62 -3.86309 0.412058 0
M  V30 7614 H 717.292 -3.50654 2.99733 0
M  V30 7615 H 715.535 -3.25198 2.87104 0
M  V30 7616 H 716.206 -4.86458 2.60887 0
M  V30 7617 H 718.682 -4.0728 0.852191 0
M  V30 7618 H 717.558 -5.44599 0.685776 0
M  V30 7619 H 717.819 -4.36886 -0.676994 0
M  V30 7620 N 716.879 -0.700114 -1.41195 0
M  V30 7621 C 718.107 -0.242179 -2.05478 0
M  V30 7622 C 718.522 1.11029 -1.52702 0
M  V30 7623 O 717.879 1.69473 -0.677127 0
M  V30 7624 C 717.93 -0.196271 -3.60967 0
M  V30 7625 O 717.651 -1.49532 -4.11791 0
M  V30 7626 C 719.152 0.282102 -4.42401 0
M  V30 7627 H 716.372 -0.111749 -0.661629 0
M  V30 7628 H 718.916 -0.953975 -1.80885 0
M  V30 7629 H 717.071 0.46638 -3.84582 0
M  V30 7630 H 717.485 -1.38545 -5.05871 0
M  V30 7631 H 718.959 0.263093 -5.51373 0
M  V30 7632 H 719.436 1.32174 -4.1884 0
M  V30 7633 H 720.042 -0.349712 -4.2386 0
M  V30 7634 N 718.357 1.51182 -0.445186 0
M  V30 7635 C 719.773 1.59299 -0.0978954 0
M  V30 7636 C 719.973 1.4555 1.39346 0
M  V30 7637 O 719.029 1.30073 2.16419 0
M  V30 7638 C 720.342 2.94133 -0.625005 0
M  V30 7639 C 721.89 3.07463 -0.586137 0
M  V30 7640 C 722.365 4.44832 -1.09035 0
M  V30 7641 N 723.856 4.51173 -1.04867 0
M  V30 7642 C 724.591 5.55804 -1.40959 0
M  V30 7643 N 724.087 6.67816 -1.84375 0
M  V30 7644 N 725.88 5.46205 -1.32726 0
M  V30 7645 H 718.031 1.58363 -1.41544 0
M  V30 7646 H 720.294 0.746946 -0.58376 0
M  V30 7647 H 720 3.09589 -1.66876 0
M  V30 7648 H 719.874 3.77161 -0.0542262 0
M  V30 7649 H 722.261 2.9167 0.448646 0
M  V30 7650 H 722.342 2.26255 -1.19341 0
M  V30 7651 H 721.986 4.61372 -2.12364 0
M  V30 7652 H 721.916 5.24591 -0.459539 0
M  V30 7653 H 724.407 3.70783 -0.729932 0
M  V30 7654 H 724.72 7.43683 -2.10131 0
M  V30 7655 H 723.065 6.69003 -1.88308 0
M  V30 7656 H 726.256 4.57583 -0.986678 0
M  V30 7657 H 726.429 6.27634 -1.61182 0
M  V30 7658 N 719.835 0.176821 1.56605 0
M  V30 7659 C 721.081 -0.467406 1.9734 0
M  V30 7660 C 721.414 -1.62523 1.06301 0
M  V30 7661 O 720.689 -1.94182 0.11125 0
M  V30 7662 C 720.972 -0.945106 3.47476 0
M  V30 7663 C 720.825 0.213273 4.49294 0
M  V30 7664 C 722.144 -1.8169 4.00845 0
M  V30 7665 H 719.263 -0.168426 0.717497 0
M  V30 7666 H 721.905 0.264065 1.88156 0
M  V30 7667 H 720.055 -1.56841 3.55434 0
M  V30 7668 H 721.727 0.850508 4.53392 0
M  V30 7669 H 719.97 0.867918 4.25029 0
M  V30 7670 H 720.641 -0.163187 5.51759 0
M  V30 7671 H 723.117 -1.29139 3.95553 0
M  V30 7672 H 721.993 -2.12015 5.06301 0
M  V30 7673 H 722.254 -2.76463 3.44994 0
M  V30 7674 N 721.313 -1.57302 -0.09688 0
M  V30 7675 C 722.729 -1.53094 -0.451041 0
M  V30 7676 C 722.929 -0.893265 -1.80618 0
M  V30 7677 O 721.985 -0.485013 -2.47798 0
M  V30 7678 C 723.298 -2.9782 -0.415172 0
M  V30 7679 C 724.846 -3.09026 -0.497155 0
M  V30 7680 C 725.321 -4.55356 -0.491452 0
M  V30 7681 N 726.812 -4.59896 -0.552258 0
M  V30 7682 C 727.547 -5.70563 -0.569654 0
M  V30 7683 N 727.043 -6.90666 -0.543365 0
M  V30 7684 N 728.836 -5.58733 -0.614331 0
M  V30 7685 H 720.987 -1.97131 0.790771 0
M  V30 7686 H 723.25 -0.901211 0.294147 0
M  V30 7687 H 722.956 -3.47933 0.513362 0
M  V30 7688 H 722.83 -3.56416 -1.23481 0
M  V30 7689 H 725.217 -2.58902 -1.41611 0
M  V30 7690 H 725.298 -2.53386 0.35059 0
M  V30 7691 H 724.942 -5.06131 0.423549 0
M  V30 7692 H 724.872 -5.08832 -1.35639 0
M  V30 7693 H 727.363 -3.73456 -0.577842 0
M  V30 7694 H 727.676 -7.70769 -0.559873 0
M  V30 7695 H 726.021 -6.93123 -0.510441 0
M  V30 7696 H 729.212 -4.63809 -0.632387 0
M  V30 7697 H 729.385 -6.44984 -0.62442 0
M  V30 7698 N 722.791 0.367657 -1.53252 0
M  V30 7699 C 723.721 1.45632 -1.8252 0
M  V30 7700 C 724.702 1.55979 -0.678568 0
M  V30 7701 O 725.887 1.70581 -0.928217 0
M  V30 7702 C 723.017 2.82994 -2.01325 0
M  V30 7703 C 721.971 2.87473 -3.17086 0
M  V30 7704 C 721.297 4.2749 -3.21179 0
M  V30 7705 C 722.597 2.55182 -4.55719 0
M  V30 7706 H 724.291 1.21387 -2.73689 0
M  V30 7707 H 721.837 0.58251 -1.31692 0
M  V30 7708 H 723.79 3.59179 -2.20383 0
M  V30 7709 H 722.514 3.08622 -1.06864 0
M  V30 7710 H 721.173 2.13739 -2.97844 0
M  V30 7711 H 720.821 4.5019 -2.24361 0
M  V30 7712 H 720.521 4.31403 -3.98955 0
M  V30 7713 H 722.045 5.0555 -3.42419 0
M  V30 7714 H 723.459 3.21081 -4.74953 0
M  V30 7715 H 721.856 2.70414 -5.3572 0
M  V30 7716 H 722.926 1.5044 -4.60973 0
M  V30 7717 N 724.269 1.44576 0.627338 0
M  V30 7718 C 725.515 1.47777 1.38888 0
M  V30 7719 C 725.848 0.111406 1.9388 0
M  V30 7720 O 725.123 -0.87149 1.73883 0
M  V30 7721 C 725.406 2.54119 2.55138 0
M  V30 7722 C 725.259 4.00128 2.0547 0
M  V30 7723 C 726.578 2.56929 3.57317 0
M  V30 7724 H 723.697 0.538048 0.50366 0
M  V30 7725 H 726.339 1.76277 0.708978 0
M  V30 7726 H 724.489 2.29948 3.13139 0
M  V30 7727 H 726.161 4.35444 1.5227 0
M  V30 7728 H 724.404 4.11724 1.36623 0
M  V30 7729 H 725.075 4.7019 2.89181 0
M  V30 7730 H 727.551 2.78536 3.09122 0
M  V30 7731 H 726.427 3.33234 4.36173 0
M  V30 7732 H 726.688 1.6127 4.11636 0
M  V30 7733 N 725.747 -0.868086 1.31537 0
M  V30 7734 C 726.679 -1.98165 1.15166 0
M  V30 7735 C 727.692 -1.6255 0.0902335 0
M  V30 7736 O 728.881 -1.75272 0.33791 0
M  V30 7737 C 725.981 -3.30772 0.737776 0
M  V30 7738 C 725.154 -3.94716 1.88462 0
M  V30 7739 C 724.213 -5.05641 1.45648 0
M  V30 7740 O 723.239 -5.2636 2.16642 0
M  V30 7741 N 724.441 -5.79474 0.34493 0
M  V30 7742 H 727.206 -2.12754 2.11083 0
M  V30 7743 H 724.767 -1.04217 1.23897 0
M  V30 7744 H 726.759 -4.02366 0.434032 0
M  V30 7745 H 725.329 -3.1233 -0.129834 0
M  V30 7746 H 724.549 -3.16079 2.35558 0
M  V30 7747 H 725.837 -4.34175 2.65273 0
M  V30 7748 H 725.235 -5.65164 -0.246259 0
M  V30 7749 H 723.792 -6.51722 0.100728 0
M  V30 7750 N 727.225 -1.14528 -1.08264 0
M  V30 7751 C 728.472 -0.914405 -1.80679 0
M  V30 7752 C 728.8 0.558952 -1.86295 0
M  V30 7753 O 728.055 1.43017 -1.33584 0
M  V30 7754 C 728.354 -1.46226 -3.26117 0
M  V30 7755 C 728.02 -2.95451 -3.40616 0
M  V30 7756 C 726.682 -3.36191 -3.4428 0
M  V30 7757 C 729.034 -3.91399 -3.44175 0
M  V30 7758 C 726.362 -4.71539 -3.49096 0
M  V30 7759 C 728.714 -5.26606 -3.50526 0
M  V30 7760 C 727.378 -5.66856 -3.52464 0
M  V30 7761 H 726.648 -0.334604 -0.661151 0
M  V30 7762 H 729.295 -1.4292 -1.27461 0
M  V30 7763 H 727.6 -0.868442 -3.82054 0
M  V30 7764 H 729.297 -1.25955 -3.80705 0
M  V30 7765 H 725.887 -2.62955 -3.38456 0
M  V30 7766 H 730.071 -3.61004 -3.40573 0
M  V30 7767 H 725.327 -5.02082 -3.4889 0
M  V30 7768 H 729.501 -6.00758 -3.52225 0
M  V30 7769 H 727.128 -6.71718 -3.55948 0
M  V30 7770 N 728.703 1.26451 -0.940633 0
M  V30 7771 C 729.635 2.25556 -0.407104 0
M  V30 7772 C 730.648 1.55888 0.469324 0
M  V30 7773 O 731.837 1.76292 0.279858 0
M  V30 7774 C 728.937 3.36109 0.434064 0
M  V30 7775 C 728.11 4.3532 -0.426082 0
M  V30 7776 C 727.169 5.25004 0.354563 0
M  V30 7777 O 726.195 5.68684 -0.242219 0
M  V30 7778 N 727.397 5.5652 1.65123 0
M  V30 7779 H 730.162 2.7197 -1.25907 0
M  V30 7780 H 727.723 1.40212 -0.809456 0
M  V30 7781 H 729.715 3.93059 0.963684 0
M  V30 7782 H 728.285 2.89194 1.18683 0
M  V30 7783 H 727.505 3.77449 -1.13692 0
M  V30 7784 H 728.793 4.986 -1.01366 0
M  V30 7785 H 728.191 5.22912 2.15822 0
M  V30 7786 H 726.748 6.16115 2.12711 0
M  V30 7787 N 730.181 0.707592 1.40822 0
M  V30 7788 C 731.128 0.0499029 2.30746 0
M  V30 7789 C 732.098 -0.758718 1.47759 0
M  V30 7790 O 733.283 -0.724299 1.76518 0
M  V30 7791 C 730.423 -0.871756 3.33908 0
M  V30 7792 C 729.536 -0.0534655 4.31967 0
M  V30 7793 C 728.671 -0.973869 5.22197 0
M  V30 7794 C 727.71 -0.149194 6.11918 0
M  V30 7795 N 726.847 -1.02404 6.94592 0
M  V30 7796 H 731.687 0.822461 2.86426 0
M  V30 7797 H 729.224 0.417285 1.41057 0
M  V30 7798 H 731.182 -1.42028 3.9228 0
M  V30 7799 H 729.812 -1.61058 2.7975 0
M  V30 7800 H 728.864 0.612142 3.75442 0
M  V30 7801 H 730.176 0.585354 4.95353 0
M  V30 7802 H 729.33 -1.59121 5.85462 0
M  V30 7803 H 728.069 -1.64652 4.59065 0
M  V30 7804 H 727.074 0.481137 5.47691 0
M  V30 7805 H 728.299 0.519841 6.77107 0
M  V30 7806 H 726.245 -1.6825 6.34057 0
M  V30 7807 H 726.162 -0.441076 7.54712 0
M  V30 7808 H 727.43 -1.62782 7.62314 0
M  V30 7809 N 731.66 -1.50943 0.453197 0
M  V30 7810 C 732.608 -2.29728 -0.364419 0
M  V30 7811 C 733.602 -1.36246 -1.00664 0
M  V30 7812 O 734.808 -1.53518 -0.939794 0
M  V30 7813 H 731.183 -0.739536 -0.136347 0
M  V30 7814 H 733.154 -2.96672 0.320696 0
M  V30 7815 C 731.903 -3.1629 -1.44415 0
M  V30 7816 H 731.226 -3.88119 -0.959343 0
M  V30 7817 H 732.666 -3.74444 -1.98917 0
M  V30 7818 C 731.125 -2.32702 -2.43622 0
M  V30 7819 O 731.655 -1.99763 -3.48508 0
M  V30 7820 N 729.861 -1.95621 -2.14897 0
M  V30 7821 H 729.408 -2.22607 -1.29629 0
M  V30 7822 H 729.366 -1.39993 -2.81513 0
M  V30 7823 N 733.138 -0.185124 -1.56509 0
M  V30 7824 C 734.366 0.462139 -2.01673 0
M  V30 7825 C 734.781 1.55873 -1.06532 0
M  V30 7826 O 734.138 1.82371 -0.0684805 0
M  V30 7827 C 734.189 1.0277 -3.46584 0
M  V30 7828 O 733.91 -0.0251296 -4.38093 0
M  V30 7829 C 735.411 1.75183 -4.07217 0
M  V30 7830 H 732.631 0.117001 -0.660721 0
M  V30 7831 H 735.175 -0.290905 -2.0242 0
M  V30 7832 H 733.33 1.73118 -3.46568 0
M  V30 7833 H 733.744 0.394387 -5.23015 0
M  V30 7834 H 735.218 2.09999 -5.10494 0
M  V30 7835 H 735.695 2.6519 -3.50101 0
M  V30 7836 H 736.301 1.09445 -4.10977 0
M  V30 7837 N 734.616 1.57351 0.0885366 0
M  V30 7838 C 735.893 1.77449 0.822873 0
M  V30 7839 C 736.273 0.768463 1.96616 0
M  V30 7840 O 735.621 -0.201757 2.27608 0
M  V30 7841 C 735.831 3.23425 1.31137 0
M  V30 7842 C 737.179 3.86791 1.75152 0
M  V30 7843 O 738.203 3.27215 1.40745 0
M  V30 7844 O 737.062 4.91568 2.38794 0
M  V30 7845 H 734.156 0.727653 0.393002 0
M  V30 7846 H 736.702 1.69556 0.0699095 0
M  V30 7847 H 735.474 3.88188 0.49254 0
M  V30 7848 H 735.097 3.35977 2.12615 0
M  V30 7849 N 736.094 -0.359525 1.53444 0
M  V30 7850 C 737.004 -1.46445 1.83278 0
M  V30 7851 C 738.02 -1.5833 0.721629 0
M  V30 7852 O 739.196 -1.7411 1.01231 0
M  V30 7853 C 736.261 -2.81638 2.02191 0
M  V30 7854 C 735.322 -2.7923 3.26082 0
M  V30 7855 C 734.555 -4.07974 3.44082 0
M  V30 7856 O 734.778 -5.04447 2.66251 0
M  V30 7857 O 733.712 -4.13417 4.37458 0
M  V30 7858 H 737.538 -1.24156 2.77162 0
M  V30 7859 H 735.123 -0.550201 1.389 0
M  V30 7860 H 737.005 -3.61732 2.16167 0
M  V30 7861 H 735.68 -3.03892 1.11496 0
M  V30 7862 H 734.587 -1.97813 3.17523 0
M  V30 7863 H 735.92 -2.6193 4.16718 0
M  V30 7864 N 737.572 -1.44907 -0.619662 0
M  V30 7865 C 738.983 -1.42905 -1.20146 0
M  V30 7866 C 739.334 -0.150341 -1.95623 0
M  V30 7867 O 738.459 0.748732 -2.03034 0
M  V30 7868 C 739.054 -2.58889 -2.18545 0
M  V30 7869 C 737.613 -2.60046 -2.72127 0
M  V30 7870 C 736.76 -2.3493 -1.4732 0
M  V30 7871 H 739.711 -1.53321 -0.409666 0
M  V30 7872 H 739.732 -2.32298 -3.0136 0
M  V30 7873 H 739.244 -3.51941 -1.63583 0
M  V30 7874 H 737.345 -1.70968 -3.3106 0
M  V30 7875 H 737.458 -3.58893 -3.17384 0
M  V30 7876 H 735.822 -1.84248 -1.75855 0
M  V30 7877 H 736.605 -3.3011 -0.942442 0
M  V30 7878 N 739.05 0.861098 -1.31996 0
M  V30 7879 C 739.983 1.97266 -1.14724 0
M  V30 7880 C 740.961 1.62528 -0.0483789 0
M  V30 7881 O 742.145 1.87366 -0.206478 0
M  V30 7882 C 739.272 3.30181 -0.754861 0
M  V30 7883 C 738.318 3.839 -1.85804 0
M  V30 7884 S 739.151 4.08274 -3.46515 0
M  V30 7885 C 740.307 5.44174 -3.09235 0
M  V30 7886 H 740.54 2.11614 -2.08822 0
M  V30 7887 H 738.073 1.01232 -1.16582 0
M  V30 7888 H 740.031 4.06996 -0.535232 0
M  V30 7889 H 738.692 3.13655 0.167155 0
M  V30 7890 H 737.885 4.80013 -1.53633 0
M  V30 7891 H 737.487 3.13907 -2.03318 0
M  V30 7892 H 739.779 6.26172 -2.58679 0
M  V30 7893 H 740.722 5.81301 -4.04345 0
M  V30 7894 H 741.13 5.0787 -2.46431 0
M  V30 7895 N 740.528 1.15101 1.07655 0
M  V30 7896 C 741.776 0.922149 1.79836 0
M  V30 7897 C 742.097 -0.552346 1.87014 0
M  V30 7898 O 741.367 -1.40145 1.3688 0
M  V30 7899 H 739.947 0.338182 0.666064 0
M  V30 7900 H 742.609 1.45107 1.30115 0
M  V30 7901 H 741.705 1.32883 2.82398 0
M  V30 7902 N 742.006 -1.2595 0.947325 0
M  V30 7903 C 743.255 -1.92759 0.593887 0
M  V30 7904 C 743.568 -1.75083 -0.872093 0
M  V30 7905 O 744.774 -2.36401 -1.33518 0
M  V30 7906 C 743.23 -3.45395 1.01144 0
M  V30 7907 C 742.838 -3.71795 2.49946 0
M  V30 7908 C 744.582 -4.18173 0.730185 0
M  V30 7909 C 742.489 -5.17901 2.85539 0
M  V30 7910 H 741.419 -0.721676 0.218403 0
M  V30 7911 H 744.07 -1.4293 1.15079 0
M  V30 7912 H 742.452 -3.94143 0.383007 0
M  V30 7913 H 743.626 -3.33728 3.17746 0
M  V30 7914 H 741.941 -3.12263 2.75465 0
M  V30 7915 H 744.538 -5.25784 0.972367 0
M  V30 7916 H 744.881 -4.14964 -0.333223 0
M  V30 7917 H 745.414 -3.75309 1.31862 0
M  V30 7918 H 742.153 -5.26216 3.90867 0
M  V30 7919 H 741.673 -5.57042 2.22406 0
M  V30 7920 H 743.352 -5.8596 2.74336 0
M  V30 7921 N 743.484 -0.715051 -1.40445 0
M  V30 7922 C 744.712 -0.263959 -2.05209 0
M  V30 7923 C 745.127 1.09403 -1.53871 0
M  V30 7924 O 744.484 1.68746 -0.695064 0
M  V30 7925 C 744.535 -0.234545 -3.60738 0
M  V30 7926 O 744.256 -1.53891 -4.10182 0
M  V30 7927 C 745.757 0.235164 -4.42676 0
M  V30 7928 H 742.977 -0.11876 -0.660407 0
M  V30 7929 H 745.521 -0.973107 -1.79864 0
M  V30 7930 H 743.676 0.425563 -3.85055 0
M  V30 7931 H 744.09 -1.43903 -5.04373 0
M  V30 7932 H 745.564 0.204598 -5.51621 0
M  V30 7933 H 746.041 1.27724 -4.20218 0
M  V30 7934 H 746.647 -0.394649 -4.23465 0
M  V30 7935 N 744.962 1.50701 -0.461195 0
M  V30 7936 C 745.892 2.31182 0.328184 0
M  V30 7937 C 746.873 1.37644 0.999408 0
M  V30 7938 O 748.058 1.66565 0.99848 0
M  V30 7939 C 745.188 3.17113 1.41621 0
M  V30 7940 C 744.142 4.19124 0.867148 0
M  V30 7941 C 743.468 4.93728 2.05272 0
M  V30 7942 C 744.768 5.22174 -0.114808 0
M  V30 7943 H 746.462 2.97423 -0.343501 0
M  V30 7944 H 744.008 1.43033 -0.166641 0
M  V30 7945 H 745.961 3.72208 1.97584 0
M  V30 7946 H 744.685 2.48739 2.11652 0
M  V30 7947 H 743.344 3.65116 0.329557 0
M  V30 7948 H 742.992 4.21835 2.73978 0
M  V30 7949 H 742.692 5.62724 1.69161 0
M  V30 7950 H 744.216 5.51654 2.61744 0
M  V30 7951 H 745.63 5.72198 0.355316 0
M  V30 7952 H 744.027 5.98833 -0.389689 0
M  V30 7953 H 745.097 4.7353 -1.04391 0
M  V30 7954 N 746.441 0.193421 1.56409 0
M  V30 7955 C 747.388 -0.728124 2.19014 0
M  V30 7956 C 748.358 -1.21098 1.13686 0
M  V30 7957 O 749.543 -1.27517 1.4193 0
M  V30 7958 C 746.683 -1.94277 2.8522 0
M  V30 7959 C 745.796 -1.50143 4.05069 0
M  V30 7960 C 744.931 -2.67145 4.59137 0
M  V30 7961 C 743.97 -2.19609 5.71348 0
M  V30 7962 N 743.107 -3.29782 6.19829 0
M  V30 7963 H 747.947 -0.187499 2.9741 0
M  V30 7964 H 745.484 -0.0808064 1.46878 0
M  V30 7965 H 747.442 -2.65551 3.21774 0
M  V30 7966 H 746.072 -2.45673 2.09391 0
M  V30 7967 H 745.124 -0.684624 3.74189 0
M  V30 7968 H 746.436 -1.11266 4.86232 0
M  V30 7969 H 745.59 -3.46544 4.97988 0
M  V30 7970 H 744.329 -3.09295 3.77078 0
M  V30 7971 H 743.334 -1.38664 5.32027 0
M  V30 7972 H 744.559 -1.78492 6.55223 0
M  V30 7973 H 742.505 -3.71466 5.40693 0
M  V30 7974 H 742.422 -2.95069 6.96039 0
M  V30 7975 H 743.69 -4.094 6.63334 0
M  V30 7976 N 747.919 -1.57396 -0.0801906 0
M  V30 7977 C 748.852 -1.98386 -1.12774 0
M  V30 7978 C 749.83 -0.859423 -1.38031 0
M  V30 7979 O 751.014 -1.12101 -1.51544 0
M  V30 7980 C 748.141 -2.3134 -2.47386 0
M  V30 7981 C 747.187 -3.53706 -2.38316 0
M  V30 7982 S 748.02 -5.04862 -1.78534 0
M  V30 7983 C 749.176 -5.41008 -3.1474 0
M  V30 7984 H 749.409 -2.86929 -0.778382 0
M  V30 7985 H 746.942 -1.51682 -0.28842 0
M  V30 7986 H 748.9 -2.51 -3.24822 0
M  V30 7987 H 747.561 -1.4334 -2.79486 0
M  V30 7988 H 746.754 -3.74253 -3.37566 0
M  V30 7989 H 746.356 -3.33632 -1.69014 0
M  V30 7990 H 748.648 -5.38565 -4.1104 0
M  V30 7991 H 749.591 -6.41885 -2.98981 0
M  V30 7992 H 749.999 -4.68467 -3.14958 0
M  V30 7993 N 749.397 0.351382 -1.53633 0
M  V30 7994 C 750.345 1.45142 -1.8176 0
M  V30 7995 C 751.339 1.54819 -0.687571 0
M  V30 7996 O 752.545 1.57536 -0.870772 0
M  V30 7997 H 748.92 0.483789 -0.575719 0
M  V30 7998 H 750.891 1.1863 -2.73806 0
M  V30 7999 C 749.64 2.81779 -2.03706 0
M  V30 8000 H 748.963 2.75097 -2.90107 0
M  V30 8001 H 750.403 3.5789 -2.27356 0
M  V30 8002 C 748.862 3.26762 -0.820271 0
M  V30 8003 O 749.392 4.01697 -0.0158603 0
M  V30 8004 N 747.598 2.83472 -0.639699 0
M  V30 8005 H 747.145 2.22655 -1.29547 0
M  V30 8006 H 747.103 3.13924 0.172995 0
M  V30 8007 N 750.875 1.45233 0.611969 0
M  V30 8008 C 751.785 1.56098 1.7513 0
M  V30 8009 C 752.801 0.445646 1.68196 0
M  V30 8010 O 753.977 0.705718 1.88631 0
M  V30 8011 C 751.042 1.52052 3.11579 0
M  V30 8012 C 750.103 2.74589 3.29999 0
M  V30 8013 C 749.336 2.70726 4.59938 0
M  V30 8014 O 749.559 1.77806 5.41979 0
M  V30 8015 O 748.493 3.61864 4.80976 0
M  V30 8016 H 752.319 2.52392 1.68914 0
M  V30 8017 H 749.904 1.27695 0.775528 0
M  V30 8018 H 751.786 1.52387 3.92882 0
M  V30 8019 H 750.461 0.589085 3.18295 0
M  V30 8020 H 749.368 2.79817 2.48301 0
M  V30 8021 H 750.701 3.66843 3.28157 0
M  V30 8022 N 752.353 -0.854086 1.3245 0
M  V30 8023 C 753.283 -1.97827 1.24044 0
M  V30 8024 C 754.264 -1.69646 0.124166 0
M  V30 8025 O 755.449 -1.91687 0.31143 0
M  V30 8026 C 752.579 -3.33673 0.963324 0
M  V30 8027 C 751.533 -3.76207 2.04089 0
M  V30 8028 C 750.859 -5.0969 1.61618 0
M  V30 8029 C 752.159 -3.91612 3.45597 0
M  V30 8030 H 753.853 -2.05118 2.18099 0
M  V30 8031 H 751.399 -0.985489 1.04996 0
M  V30 8032 H 753.352 -4.11871 0.891061 0
M  V30 8033 H 752.076 -3.26597 -0.0128649 0
M  V30 8034 H 750.735 -3.0026 2.10332 0
M  V30 8035 H 750.383 -4.99072 0.627418 0
M  V30 8036 H 750.083 -5.3912 2.33717 0
M  V30 8037 H 751.607 -5.90381 1.55829 0
M  V30 8038 H 753.021 -4.60163 3.4194 0
M  V30 8039 H 751.418 -4.3246 4.16051 0
M  V30 8040 H 752.488 -2.9451 3.85217 0
M  V30 8041 N 753.831 -1.1567 -1.07043 0
M  V30 8042 C 754.779 -0.852204 -2.16426 0
M  V30 8043 C 755.773 0.175661 -1.68487 0
M  V30 8044 O 756.979 0.0303874 -1.79974 0
M  V30 8045 H 753.354 -0.257942 -0.706378 0
M  V30 8046 H 755.325 -1.78231 -2.39324 0
M  V30 8047 C 754.074 -0.361362 -3.45817 0
M  V30 8048 H 753.397 -1.14369 -3.83092 0
M  V30 8049 H 754.837 -0.186997 -4.23587 0
M  V30 8050 C 753.296 0.917703 -3.2416 0
M  V30 8051 O 753.826 1.98858 -3.49025 0
M  V30 8052 N 752.032 0.858456 -2.77631 0
M  V30 8053 H 751.579 -0.0131821 -2.57597 0
M  V30 8054 H 751.537 1.71478 -2.6352 0
M  V30 8055 N 755.309 1.25446 -0.953992 0
M  V30 8056 C 756.259 2.23627 -0.444413 0
M  V30 8057 C 757.243 1.54004 0.465993 0
M  V30 8058 O 758.435 1.74454 0.29915 0
M  V30 8059 C 755.564 3.42179 0.277175 0
M  V30 8060 C 754.65 4.1907 -0.651263 0
M  V30 8061 N 755.041 4.73346 -1.78262 0
M  V30 8062 C 753.339 4.43628 -0.459338 0
M  V30 8063 C 754.04 5.31576 -2.36224 0
M  V30 8064 N 753.016 5.17991 -1.64884 0
M  V30 8065 H 756.818 2.63197 -1.30785 0
M  V30 8066 H 754.332 1.40677 -0.811402 0
M  V30 8067 H 756.329 4.11653 0.659367 0
M  V30 8068 H 754.989 3.04134 1.13723 0
M  V30 8069 H 756 4.705 -2.1645 0
M  V30 8070 H 752.677 4.15963 0.357885 0
M  V30 8071 H 754.067 5.84361 -3.3162 0
M  V30 8072 N 756.787 0.722489 1.40064 0
M  V30 8073 C 758.027 0.269491 2.02616 0
M  V30 8074 C 758.391 -1.11835 1.56067 0
M  V30 8075 O 759.592 -1.66873 2.1073 0
M  V30 8076 C 757.863 0.354066 3.55642 0
M  V30 8077 S 759.422 -0.0209309 4.38795 0
M  V30 8078 H 756.24 0.106412 0.702992 0
M  V30 8079 H 758.842 0.946237 1.71075 0
M  V30 8080 H 757.546 1.36565 3.87012 0
M  V30 8081 H 757.077 -0.340925 3.9192 0
M  V30 8082 H 759.092 -1.24093 4.80432 0
M  V30 8083 N 758.265 -1.50454 0.469181 0
M  V30 8084 C 759.514 -2.01507 -0.0881425 0
M  V30 8085 C 759.827 -1.35613 -1.40956 0
M  V30 8086 O 761.033 -1.77812 -2.05171 0
M  V30 8087 C 759.489 -3.59301 -0.207596 0
M  V30 8088 C 759.097 -4.34152 1.10527 0
M  V30 8089 C 760.841 -4.18401 -0.716981 0
M  V30 8090 C 758.748 -5.83725 0.949717 0
M  V30 8091 H 757.678 -0.753106 -0.0367156 0
M  V30 8092 H 760.329 -1.73282 0.603788 0
M  V30 8093 H 758.711 -3.84106 -0.963265 0
M  V30 8094 H 759.885 -4.21073 1.87175 0
M  V30 8095 H 758.2 -3.86652 1.54562 0
M  V30 8096 H 760.797 -5.27895 -0.850363 0
M  V30 8097 H 761.14 -3.79657 -1.70782 0
M  V30 8098 H 761.673 -3.97796 -0.0187511 0
M  V30 8099 H 758.412 -6.26938 1.91387 0
M  V30 8100 H 757.932 -5.99383 0.223591 0
M  V30 8101 H 759.611 -6.44065 0.61557 0
M  V30 8102 N 759.743 -0.201713 -1.56304 0
M  V30 8103 C 760.989 0.435952 -1.98059 0
M  V30 8104 C 761.322 1.60811 -1.08873 0
M  V30 8105 O 760.597 1.9398 -0.142128 0
M  V30 8106 C 760.88 0.889706 -3.48936 0
M  V30 8107 C 760.733 -0.284725 -4.48898 0
M  V30 8108 C 762.052 1.7529 -4.03685 0
M  V30 8109 H 759.171 0.15699 -0.720085 0
M  V30 8110 H 761.813 -0.293965 -1.87712 0
M  V30 8111 H 759.963 1.51166 -3.57884 0
M  V30 8112 H 761.635 -0.922531 -4.51981 0
M  V30 8113 H 759.878 -0.935427 -4.23594 0
M  V30 8114 H 760.549 0.0753865 -5.51949 0
M  V30 8115 H 763.025 1.2283 -3.97558 0
M  V30 8116 H 761.901 2.03933 -5.0961 0
M  V30 8117 H 762.162 2.70939 -3.49348 0
M  V30 8118 N 761.222 1.57436 0.0718424 0
M  V30 8119 C 762.185 2.02703 1.06977 0
M  V30 8120 C 763.185 0.924062 1.31597 0
M  V30 8121 O 764.375 1.18894 1.27318 0
M  V30 8122 C 761.507 2.40763 2.41342 0
M  V30 8123 H 762.7 2.92098 0.679619 0
M  V30 8124 H 760.253 1.5304 0.317565 0
M  V30 8125 H 760.988 1.54394 2.8519 0
M  V30 8126 H 760.773 3.21249 2.24814 0
M  V30 8127 H 762.263 2.76361 3.13073 0
M  V30 8128 N 762.7 -0.34323 1.53817 0
M  V30 8129 C 764.116 -0.686355 1.44088 0
M  V30 8130 C 764.316 -1.92426 0.597882 0
M  V30 8131 O 763.372 -2.52343 0.0889918 0
M  V30 8132 C 764.685 -0.878698 2.87575 0
M  V30 8133 C 766.233 -0.977296 2.97352 0
M  V30 8134 C 766.708 -1.20195 4.41947 0
M  V30 8135 N 768.199 -1.26915 4.45474 0
M  V30 8136 C 768.934 -1.46049 5.54488 0
M  V30 8137 N 768.43 -1.62354 6.73508 0
M  V30 8138 N 770.223 -1.48599 5.42102 0
M  V30 8139 H 762.374 0.470679 2.07119 0
M  V30 8140 H 764.637 0.148652 0.936273 0
M  V30 8141 H 764.343 -0.040602 3.51677 0
M  V30 8142 H 764.217 -1.78034 3.32541 0
M  V30 8143 H 766.604 -1.80591 2.3339 0
M  V30 8144 H 766.685 -0.0525498 2.55746 0
M  V30 8145 H 766.329 -0.378262 5.06489 0
M  V30 8146 H 766.259 -2.14027 4.81145 0
M  V30 8147 H 768.75 -1.15837 3.59708 0
M  V30 8148 H 769.063 -1.76591 7.52353 0
M  V30 8149 H 767.408 -1.5949 6.76453 0
M  V30 8150 H 770.599 -1.35443 4.48077 0
M  V30 8151 H 770.772 -1.6317 6.2712 0
M  V30 8152 N 764.178 -1.45556 -0.604258 0
M  V30 8153 C 765.427 -1.49019 -1.35928 0
M  V30 8154 C 765.74 -0.137409 -1.95117 0
M  V30 8155 O 766.946 -0.0497032 -2.71455 0
M  V30 8156 C 765.402 -2.62477 -2.46239 0
M  V30 8157 C 765.01 -4.04082 -1.93447 0
M  V30 8158 C 766.754 -2.7519 -3.23219 0
M  V30 8159 C 764.661 -5.08917 -3.0126 0
M  V30 8160 H 763.591 -0.554518 -0.510907 0
M  V30 8161 H 766.242 -1.71705 -0.647262 0
M  V30 8162 H 764.624 -2.3308 -3.2014 0
M  V30 8163 H 765.798 -4.43173 -1.26232 0
M  V30 8164 H 764.113 -3.95849 -1.29201 0
M  V30 8165 H 766.71 -3.50683 -4.0364 0
M  V30 8166 H 767.053 -1.81941 -3.74437 0
M  V30 8167 H 767.586 -3.04129 -2.56418 0
M  V30 8168 H 764.325 -6.03886 -2.54955 0
M  V30 8169 H 763.845 -4.74393 -3.67031 0
M  V30 8170 H 765.524 -5.33814 -3.65584 0
M  V30 8171 N 765.656 0.84705 -1.32902 0
M  V30 8172 C 766.589 1.96038 -1.1681 0
M  V30 8173 C 767.567 1.62468 -0.0656144 0
M  V30 8174 O 768.751 1.87136 -0.226339 0
M  V30 8175 C 765.878 3.29362 -0.789839 0
M  V30 8176 C 764.924 3.81908 -1.89865 0
M  V30 8177 S 765.757 4.04576 -3.50826 0
M  V30 8178 C 766.913 5.40863 -3.14989 0
M  V30 8179 H 767.146 2.09387 -2.11055 0
M  V30 8180 H 764.679 0.999896 -1.1765 0
M  V30 8181 H 766.637 4.06405 -0.578369 0
M  V30 8182 H 765.298 3.13815 0.133878 0
M  V30 8183 H 764.491 4.78357 -1.58716 0
M  V30 8184 H 764.093 3.11733 -2.06636 0
M  V30 8185 H 766.385 6.23393 -2.65306 0
M  V30 8186 H 767.328 5.7698 -4.10488 0
M  V30 8187 H 767.736 5.05228 -2.51804 0
M  V30 8188 N 767.134 1.16236 1.06428 0
M  V30 8189 C 768.084 0.835994 2.12121 0
M  V30 8190 C 769.068 -0.183955 1.59845 0
M  V30 8191 O 770.26 0.0166741 1.76992 0
M  V30 8192 C 767.389 0.337333 3.41639 0
M  V30 8193 C 766.475 1.38798 4.00744 0
M  V30 8194 N 766.866 2.59799 4.3398 0
M  V30 8195 C 765.164 1.24292 4.28331 0
M  V30 8196 C 765.865 3.27213 4.80943 0
M  V30 8197 N 764.841 2.54594 4.80294 0
M  V30 8198 H 768.643 1.75615 2.35662 0
M  V30 8199 H 766.157 1.04921 1.23957 0
M  V30 8200 H 768.154 0.0851274 4.16813 0
M  V30 8201 H 766.814 -0.57677 3.19536 0
M  V30 8202 H 767.825 2.96867 4.24371 0
M  V30 8203 H 764.502 0.389464 4.15679 0
M  V30 8204 H 765.892 4.30492 5.15874 0
M  V30 8205 N 768.612 -1.24939 0.960631 0
M  V30 8206 C 769.86 -1.92437 0.617441 0
M  V30 8207 C 770.181 -1.75543 -0.849101 0
M  V30 8208 O 769.451 -1.12269 -1.60538 0
M  V30 8209 H 768.031 -0.712192 0.225371 0
M  V30 8210 H 770.693 -1.5198 1.22017 0
M  V30 8211 H 769.789 -3.00247 0.851933 0
M  V30 8212 N 770.09 -0.729906 -1.39679 0
M  V30 8213 C 771.338 -0.275077 -2.00219 0
M  V30 8214 C 771.659 1.1401 -1.58199 0
M  V30 8215 O 770.929 1.77546 -0.827904 0
M  V30 8216 H 769.509 -0.0987127 -0.740449 0
M  V30 8217 H 772.171 -0.93873 -1.70804 0
M  V30 8218 H 771.267 -0.319446 -3.10461 0
M  V30 8219 N 771.568 1.50203 -0.477153 0
M  V30 8220 C 772.501 2.25343 0.359983 0
M  V30 8221 C 773.479 1.28909 0.991022 0
M  V30 8222 O 774.663 1.58146 1.02578 0
M  V30 8223 C 771.79 3.03431 1.5049 0
M  V30 8224 C 770.836 4.14836 0.99063 0
M  V30 8225 S 771.669 5.35407 -0.0995413 0
M  V30 8226 C 772.825 6.17045 1.04911 0
M  V30 8227 H 773.058 2.95999 -0.277836 0
M  V30 8228 H 770.591 1.52159 -0.262115 0
M  V30 8229 H 772.549 3.49012 2.16105 0
M  V30 8230 H 771.21 2.32289 2.11425 0
M  V30 8231 H 770.403 4.689 1.84794 0
M  V30 8232 H 770.005 3.71723 0.412097 0
M  V30 8233 H 772.297 6.48546 1.95946 0
M  V30 8234 H 773.24 7.05979 0.547596 0
M  V30 8235 H 773.648 5.49193 1.30567 0
M  V30 8236 N 773.046 0.209999 1.56195 0
M  V30 8237 C 774.295 -0.425106 1.97169 0
M  V30 8238 C 774.608 -1.61718 1.10031 0
M  V30 8239 O 775.814 -2.32105 1.40853 0
M  V30 8240 C 774.27 -0.80771 3.50719 0
M  V30 8241 C 773.878 0.360902 4.46544 0
M  V30 8242 C 775.622 -1.40906 4.00432 0
M  V30 8243 C 773.529 -0.0434919 5.91384 0
M  V30 8244 H 772.459 -0.162598 0.736259 0
M  V30 8245 H 775.11 0.304382 1.80958 0
M  V30 8246 H 773.492 -1.59429 3.62489 0
M  V30 8247 H 774.666 1.13846 4.46515 0
M  V30 8248 H 772.981 0.874729 4.07109 0
M  V30 8249 H 775.578 -1.72433 5.06133 0
M  V30 8250 H 775.921 -2.32081 3.45607 0
M  V30 8251 H 776.454 -0.686154 3.91838 0
M  V30 8252 H 773.193 0.834448 6.50167 0
M  V30 8253 H 772.713 -0.785598 5.94633 0
M  V30 8254 H 774.392 -0.474176 6.4526 0
M  V30 8255 N 774.524 -1.57472 -0.0634922 0
M  V30 8256 C 775.474 -2.00709 -1.08166 0
M  V30 8257 C 776.458 -0.890498 -1.34011 0
M  V30 8258 O 777.65 -1.15441 -1.34173 0
M  V30 8259 C 774.779 -2.46148 -2.39303 0
M  V30 8260 C 773.865 -3.64559 -2.16697 0
M  V30 8261 N 774.256 -4.78459 -1.64043 0
M  V30 8262 C 772.554 -3.71269 -2.47135 0
M  V30 8263 C 773.255 -5.60268 -1.56445 0
M  V30 8264 N 772.231 -5.04357 -2.02792 0
M  V30 8265 H 776.033 -2.86208 -0.668016 0
M  V30 8266 H 773.547 -1.60133 -0.270426 0
M  V30 8267 H 775.544 -2.75367 -3.13016 0
M  V30 8268 H 774.204 -1.62041 -2.81377 0
M  V30 8269 H 775.215 -5.00587 -1.32791 0
M  V30 8270 H 771.892 -2.97891 -2.92518 0
M  V30 8271 H 773.282 -6.6172 -1.16519 0
M  V30 8272 N 776.003 0.335068 -1.53997 0
M  V30 8273 C 777.419 0.678704 -1.4445 0
M  V30 8274 C 777.619 1.92106 -0.608078 0
M  V30 8275 O 776.675 2.52292 -0.102373 0
M  V30 8276 C 777.988 0.863435 -2.88037 0
M  V30 8277 C 779.536 0.961513 -2.97866 0
M  V30 8278 C 780.011 1.1785 -4.42578 0
M  V30 8279 N 781.502 1.2455 -4.46141 0
M  V30 8280 C 782.237 1.43106 -5.55255 0
M  V30 8281 N 781.733 1.5878 -6.74359 0
M  V30 8282 N 783.526 1.45722 -5.42883 0
M  V30 8283 H 775.677 -0.481656 -2.06867 0
M  V30 8284 H 777.94 -0.153615 -0.935471 0
M  V30 8285 H 777.646 0.0219511 -3.51693 0
M  V30 8286 H 777.52 1.76268 -3.33481 0
M  V30 8287 H 779.907 1.79351 -2.34344 0
M  V30 8288 H 779.988 0.0389862 -2.5577 0
M  V30 8289 H 779.632 0.351397 -5.06683 0
M  V30 8290 H 779.562 2.11472 -4.82273 0
M  V30 8291 H 782.053 1.13928 -3.60318 0
M  V30 8292 H 782.366 1.72599 -7.53279 0
M  V30 8293 H 780.711 1.559 -6.77289 0
M  V30 8294 H 783.902 1.33065 -4.48789 0
M  V30 8295 H 784.075 1.59841 -6.27977 0
M  V30 8296 N 777.481 1.45874 0.596531 0
M  V30 8297 C 778.413 1.51408 1.7207 0
M  V30 8298 C 779.426 0.403738 1.57714 0
M  V30 8299 O 780.615 0.671384 1.65393 0
M  V30 8300 C 777.715 1.3652 3.10186 0
M  V30 8301 C 776.888 2.61428 3.50677 0
M  V30 8302 C 775.947 2.40937 4.67799 0
M  V30 8303 O 774.973 3.14602 4.74357 0
M  V30 8304 N 776.175 1.4621 5.61785 0
M  V30 8305 H 778.94 2.48333 1.67782 0
M  V30 8306 H 776.501 1.41755 0.782129 0
M  V30 8307 H 778.493 1.20606 3.86311 0
M  V30 8308 H 777.063 0.478302 3.08919 0
M  V30 8309 H 776.283 2.92381 2.644 0
M  V30 8310 H 777.571 3.44432 3.74491 0
M  V30 8311 H 776.969 0.854382 5.59211 0
M  V30 8312 H 775.526 1.36264 6.37397 0
M  V30 8313 N 778.959 -0.83999 1.33349 0
M  V30 8314 C 780.207 -1.59202 1.24496 0
M  V30 8315 C 780.528 -1.94077 -0.189499 0
M  V30 8316 O 779.798 -1.60868 -1.11796 0
M  V30 8317 H 778.378 -0.590276 0.457802 0
M  V30 8318 H 781.04 -1.00394 1.67054 0
M  V30 8319 H 780.136 -2.52247 1.83788 0
M  V30 8320 N 780.437 -1.16799 -1.0581 0
M  V30 8321 C 781.665 -0.97687 -1.82387 0
M  V30 8322 C 782.08 0.474917 -1.82729 0
M  V30 8323 O 781.437 1.3297 -1.25001 0
M  V30 8324 C 781.488 -1.50279 -3.28783 0
M  V30 8325 O 781.209 -2.89772 -3.28578 0
M  V30 8326 C 782.71 -1.35538 -4.22071 0
M  V30 8327 H 779.93 -0.345977 -0.574927 0
M  V30 8328 H 782.474 -1.54942 -1.33466 0
M  V30 8329 H 780.629 -0.972414 -3.74997 0
M  V30 8330 H 781.043 -3.13954 -4.20159 0
M  V30 8331 H 782.517 -1.7716 -5.22799 0
M  V30 8332 H 782.994 -0.301598 -4.38163 0
M  V30 8333 H 783.6 -1.87562 -3.81708 0
M  V30 8334 N 781.915 1.24427 -0.967243 0
M  V30 8335 C 782.845 2.2773 -0.515899 0
M  V30 8336 C 783.826 1.64197 0.444227 0
M  V30 8337 O 785.011 1.91193 0.340451 0
M  V30 8338 C 782.141 3.46751 0.195149 0
M  V30 8339 C 781.095 4.22548 -0.680953 0
M  V30 8340 C 780.421 5.34456 0.161561 0
M  V30 8341 C 781.721 4.83914 -1.96532 0
M  V30 8342 H 783.415 2.65735 -1.37933 0
M  V30 8343 H 780.961 1.27742 -0.664681 0
M  V30 8344 H 782.914 4.18153 0.522117 0
M  V30 8345 H 781.638 3.07771 1.09292 0
M  V30 8346 H 780.297 3.52946 -0.991186 0
M  V30 8347 H 779.945 4.91716 1.05947 0
M  V30 8348 H 779.645 5.86087 -0.421418 0
M  V30 8349 H 781.169 6.08685 0.483211 0
M  V30 8350 H 782.583 5.47392 -1.70396 0
M  V30 8351 H 780.98 5.45775 -2.49499 0
M  V30 8352 H 782.05 4.05393 -2.66053 0
M  V30 8353 N 783.393 0.737304 1.3929 0
M  V30 8354 C 784.343 0.0748537 2.27877 0
M  V30 8355 C 785.327 -0.71022 1.44377 0
M  V30 8356 O 786.519 -0.578851 1.67267 0
M  V30 8357 C 783.648 -0.82991 3.33118 0
M  V30 8358 C 782.734 -0.0388619 4.24082 0
M  V30 8359 N 783.125 0.989182 4.96033 0
M  V30 8360 C 781.423 -0.268167 4.45193 0
M  V30 8361 C 782.124 1.46639 5.62914 0
M  V30 8362 N 781.1 0.784581 5.37908 0
M  V30 8363 H 784.902 0.862457 2.80961 0
M  V30 8364 H 782.416 0.571845 1.51999 0
M  V30 8365 H 784.413 -1.31999 3.95452 0
M  V30 8366 H 783.073 -1.61665 2.81593 0
M  V30 8367 H 784.084 1.3706 4.99435 0
M  V30 8368 H 780.761 -1.02953 4.04607 0
M  V30 8369 H 782.151 2.32182 6.30508 0
M  V30 8370 N 784.871 -1.49948 0.485112 0
M  V30 8371 C 786.117 -2.02695 -0.0651022 0
M  V30 8372 C 786.45 -1.36534 -1.38102 0
M  V30 8373 O 785.725 -0.495677 -1.88078 0
M  V30 8374 C 786.008 -3.59337 -0.234285 0
M  V30 8375 C 785.861 -4.3605 1.10364 0
M  V30 8376 C 787.18 -4.28996 -0.982351 0
M  V30 8377 H 784.299 -0.736666 -0.0221856 0
M  V30 8378 H 786.941 -1.7913 0.633433 0
M  V30 8379 H 785.091 -3.79546 -0.829262 0
M  V30 8380 H 786.763 -4.27377 1.73627 0
M  V30 8381 H 785.006 -3.99236 1.69686 0
M  V30 8382 H 785.677 -5.43959 0.938743 0
M  V30 8383 H 788.153 -4.13346 -0.477904 0
M  V30 8384 H 787.029 -5.38379 -1.06955 0
M  V30 8385 H 787.29 -3.93135 -2.02231 0
M  V30 8386 N 786.349 -0.21828 -1.56081 0
M  V30 8387 C 787.597 0.413488 -1.97825 0
M  V30 8388 C 787.918 1.60527 -1.10707 0
M  V30 8389 O 787.188 1.9504 -0.183378 0
M  V30 8390 H 785.768 0.155757 -0.730581 0
M  V30 8391 H 788.43 -0.310413 -1.92412 0
M  V30 8392 H 787.526 0.742024 -3.03151 0
M  V30 8393 N 787.827 1.57504 0.0551401 0
M  V30 8394 C 789.104 1.79155 0.785048 0
M  V30 8395 C 789.484 0.809995 1.94942 0
M  V30 8396 O 788.832 -0.153432 2.27984 0
M  V30 8397 C 789.042 3.26134 1.24247 0
M  V30 8398 C 790.39 3.90419 1.66908 0
M  V30 8399 O 791.414 3.30126 1.33772 0
M  V30 8400 O 790.273 4.96523 2.28314 0
M  V30 8401 H 787.367 0.735825 0.377479 0
M  V30 8402 H 789.913 1.69666 0.0339285 0
M  V30 8403 H 788.685 3.89145 0.410089 0
M  V30 8404 H 788.308 3.40411 2.05441 0
M  V30 8405 N 789.305 -0.326896 1.54172 0
M  V30 8406 C 790.215 -1.42525 1.86343 0
M  V30 8407 C 791.231 -1.56764 0.75505 0
M  V30 8408 O 792.407 -1.71924 1.04901 0
M  V30 8409 C 789.472 -2.77286 2.08119 0
M  V30 8410 C 788.533 -2.7225 3.31931 0
M  V30 8411 C 787.766 -4.00584 3.52659 0
M  V30 8412 O 787.989 -4.98686 2.76891 0
M  V30 8413 O 786.923 -4.04045 4.46129 0
M  V30 8414 H 790.749 -1.18249 2.79734 0
M  V30 8415 H 788.334 -0.520614 1.40036 0
M  V30 8416 H 790.216 -3.57065 2.23791 0
M  V30 8417 H 788.891 -3.01459 1.17917 0
M  V30 8418 H 787.798 -1.91033 3.21647 0
M  V30 8419 H 789.131 -2.53032 4.2218 0
M  V30 8420 N 790.784 -1.46188 -0.588786 0
M  V30 8421 C 792.033 -1.50452 -1.34339 0
M  V30 8422 C 792.346 -0.158096 -1.9496 0
M  V30 8423 O 793.552 -0.0784918 -2.71387 0
M  V30 8424 C 792.008 -2.65074 -2.43441 0
M  V30 8425 C 791.616 -4.06111 -1.8915 0
M  V30 8426 C 793.36 -2.78603 -3.20282 0
M  V30 8427 C 791.267 -5.12084 -2.95845 0
M  V30 8428 H 790.197 -0.559905 -0.504997 0
M  V30 8429 H 792.848 -1.72382 -0.629014 0
M  V30 8430 H 791.23 -2.36462 -3.1765 0
M  V30 8431 H 792.404 -4.44487 -1.21524 0
M  V30 8432 H 790.719 -3.97197 -1.24995 0
M  V30 8433 H 793.316 -3.54944 -3.99898 0
M  V30 8434 H 793.659 -1.85902 -3.72486 0
M  V30 8435 H 794.192 -3.06832 -2.53178 0
M  V30 8436 H 790.931 -6.06556 -2.48535 0
M  V30 8437 H 790.451 -4.78259 -3.61979 0
M  V30 8438 H 792.13 -5.37661 -3.59902 0
M  V30 8439 N 792.262 0.832906 -1.33792 0
M  V30 8440 C 793.678 1.1245 -1.13257 0
M  V30 8441 C 793.878 2.01369 0.0725832 0
M  V30 8442 O 792.934 2.41071 0.751082 0
M  V30 8443 C 794.247 1.78084 -2.42294 0
M  V30 8444 C 795.795 1.90624 -2.48257 0
M  V30 8445 C 796.27 2.59673 -3.77271 0
M  V30 8446 N 797.761 2.67181 -3.78376 0
M  V30 8447 C 798.496 3.21313 -4.74916 0
M  V30 8448 N 797.992 3.76086 -5.81835 0
M  V30 8449 N 799.785 3.19621 -4.62384 0
M  V30 8450 H 791.936 0.241244 -2.11026 0
M  V30 8451 H 794.199 0.169557 -0.932713 0
M  V30 8452 H 793.905 1.20209 -3.30519 0
M  V30 8453 H 793.779 2.78049 -2.5489 0
M  V30 8454 H 796.166 2.4765 -1.60478 0
M  V30 8455 H 796.247 0.89591 -2.39598 0
M  V30 8456 H 795.891 2.03304 -4.65435 0
M  V30 8457 H 795.821 3.61189 -3.8321 0
M  V30 8458 H 798.312 2.28346 -3.01108 0
M  V30 8459 H 798.625 4.15612 -6.51526 0
M  V30 8460 H 796.97 3.74357 -5.85561 0
M  V30 8461 H 800.161 2.76091 -3.7801 0
M  V30 8462 H 800.334 3.61504 -5.37791 0
M  V30 8463 N 793.74 1.17359 1.05189 0
M  V30 8464 C 794.65 0.904984 2.16442 0
M  V30 8465 C 795.666 -0.12686 1.73537 0
M  V30 8466 O 796.842 0.0524127 2.01332 0
M  V30 8467 C 793.907 0.422019 3.44122 0
M  V30 8468 C 792.968 1.52045 4.01473 0
M  V30 8469 C 792.201 1.06044 5.23059 0
M  V30 8470 O 792.424 -0.0854023 5.70336 0
M  V30 8471 O 791.358 1.85349 5.72651 0
M  V30 8472 H 795.184 1.8356 2.41949 0
M  V30 8473 H 792.769 0.95447 1.14936 0
M  V30 8474 H 794.651 0.160208 4.21095 0
M  V30 8475 H 793.326 -0.480444 3.20115 0
M  V30 8476 H 792.233 1.83615 3.25939 0
M  V30 8477 H 793.566 2.39863 4.29798 0
M  V30 8478 N 795.218 -1.23913 0.973828 0
M  V30 8479 C 796.467 -1.91455 0.63464 0
M  V30 8480 C 796.78 -1.76893 -0.834759 0
M  V30 8481 O 797.986 -2.3918 -1.28473 0
M  V30 8482 C 796.442 -3.43172 1.08447 0
M  V30 8483 C 796.05 -3.66409 2.57776 0
M  V30 8484 C 797.794 -4.1653 0.818721 0
M  V30 8485 C 795.701 -5.11728 2.9646 0
M  V30 8486 H 794.631 -0.716881 0.233661 0
M  V30 8487 H 797.282 -1.40457 1.18085 0
M  V30 8488 H 795.664 -3.93242 0.466524 0
M  V30 8489 H 796.838 -3.26913 3.24753 0
M  V30 8490 H 795.153 -3.06349 2.82027 0
M  V30 8491 H 797.75 -5.23603 1.08367 0
M  V30 8492 H 798.093 -4.15578 -0.245128 0
M  V30 8493 H 798.626 -3.72428 1.39793 0
M  V30 8494 H 795.365 -5.17806 4.01941 0
M  V30 8495 H 794.885 -5.52199 2.34172 0
M  V30 8496 H 796.564 -5.80009 2.86703 0
M  V30 8497 N 796.696 -0.74468 -1.38897 0
M  V30 8498 C 797.644 -0.100312 -2.32384 0
M  V30 8499 C 798.638 0.715191 -1.53562 0
M  V30 8500 O 799.844 0.615288 -1.69157 0
M  V30 8501 H 796.219 -0.0136403 -0.751876 0
M  V30 8502 H 798.19 -0.905007 -2.84345 0
M  V30 8503 C 796.939 0.785432 -3.38713 0
M  V30 8504 H 796.262 0.167308 -3.9945 0
M  V30 8505 H 797.702 1.20374 -4.06554 0
M  V30 8506 C 796.161 1.92408 -2.76552 0
M  V30 8507 O 796.691 3.01752 -2.65157 0
M  V30 8508 N 794.897 1.71642 -2.34494 0
M  V30 8509 H 794.444 0.827079 -2.43961 0
M  V30 8510 H 794.402 2.48 -1.93244 0
M  V30 8511 N 798.174 1.49689 -0.493057 0
M  V30 8512 C 799.422 2.02027 0.0541642 0
M  V30 8513 C 799.743 1.37554 1.38217 0
M  V30 8514 O 799.013 0.528174 1.88646 0
M  V30 8515 H 797.593 0.746646 0.0230069 0
M  V30 8516 H 800.255 1.83795 -0.648489 0
M  V30 8517 H 799.351 3.11523 0.189652 0
M  V30 8518 N 799.652 0.226554 1.55963 0
M  V30 8519 C 800.901 -0.40417 1.97609 0
M  V30 8520 C 801.214 -1.60541 1.1174 0
M  V30 8521 O 802.42 -2.30598 1.43307 0
M  V30 8522 C 800.876 -0.770466 3.51556 0
M  V30 8523 C 800.484 0.408244 4.46136 0
M  V30 8524 C 802.228 -1.36651 4.01904 0
M  V30 8525 C 800.135 0.0192347 5.91397 0
M  V30 8526 H 799.065 -0.15478 0.737943 0
M  V30 8527 H 801.716 0.323558 1.80625 0
M  V30 8528 H 800.098 -1.55575 3.6416 0
M  V30 8529 H 801.272 1.18575 4.45283 0
M  V30 8530 H 799.587 0.917859 4.06158 0
M  V30 8531 H 802.184 -1.67055 5.07934 0
M  V30 8532 H 802.527 -2.28403 3.48049 0
M  V30 8533 H 803.06 -0.644556 3.92543 0
M  V30 8534 H 799.799 0.90336 6.49245 0
M  V30 8535 H 799.319 -0.722485 5.95433 0
M  V30 8536 H 800.998 -0.405711 6.45727 0
M  V30 8537 N 801.13 -1.57531 -0.0467866 0
M  V30 8538 C 802.355 -1.93087 -0.757123 0
M  V30 8539 C 802.78 -0.825116 -1.69037 0
M  V30 8540 O 802.138 0.220449 -1.79955 0
M  V30 8541 C 802.186 -3.27669 -1.5055 0
M  V30 8542 O 801.29 -3.18667 -2.61773 0
M  V30 8543 H 800.631 -0.631597 -0.204892 0
M  V30 8544 H 803.161 -2.04599 -0.00755232 0
M  V30 8545 H 803.171 -3.6214 -1.87932 0
M  V30 8546 H 801.846 -4.07717 -0.820931 0
M  V30 8547 H 800.423 -2.95798 -2.27064 0
M  V30 8548 N 802.608 0.318715 -1.54344 0
M  V30 8549 C 803.854 1.05765 -1.73037 0
M  V30 8550 C 804.187 1.87514 -0.505181 0
M  V30 8551 O 803.462 1.88021 0.497838 0
M  V30 8552 C 803.745 1.97836 -3.00887 0
M  V30 8553 C 803.598 1.19384 -4.33668 0
M  V30 8554 C 804.917 2.97285 -3.24514 0
M  V30 8555 H 802.036 0.383104 -0.629603 0
M  V30 8556 H 804.678 0.333864 -1.87044 0
M  V30 8557 H 802.828 2.59552 -2.89076 0
M  V30 8558 H 804.5 0.600906 -4.57369 0
M  V30 8559 H 802.743 0.496198 -4.30953 0
M  V30 8560 H 803.414 1.87014 -5.19355 0
M  V30 8561 H 805.89 2.45693 -3.35819 0
M  V30 8562 H 804.766 3.58887 -4.15321 0
M  V30 8563 H 805.027 3.70003 -2.41971 0
M  V30 8564 N 804.086 1.46499 0.581025 0
M  V30 8565 C 805.049 1.5677 1.672 0
M  V30 8566 C 806.049 0.444716 1.54528 0
M  V30 8567 O 807.239 0.709074 1.59116 0
M  V30 8568 C 804.371 1.4896 3.06633 0
M  V30 8569 H 805.564 2.54 1.5945 0
M  V30 8570 H 803.117 1.34334 0.799003 0
M  V30 8571 H 803.852 0.530168 3.19937 0
M  V30 8572 H 803.637 2.30439 3.17239 0
M  V30 8573 H 805.127 1.59237 3.86048 0
M  V30 8574 N 805.565 -0.825799 1.34232 0
M  V30 8575 C 806.513 -1.95792 1.25572 0
M  V30 8576 C 807.507 -1.68695 0.154404 0
M  V30 8577 O 808.713 -1.77147 0.319196 0
M  V30 8578 H 805.088 -0.642949 0.390027 0
M  V30 8579 H 807.059 -2.00219 2.21258 0
M  V30 8580 C 805.808 -3.32245 1.02511 0
M  V30 8581 H 805.131 -3.53642 1.86487 0
M  V30 8582 H 806.571 -4.1192 1.00487 0
M  V30 8583 C 805.03 -3.35803 -0.27167 0
M  V30 8584 O 805.56 -3.80962 -1.274 0
M  V30 8585 N 803.766 -2.89008 -0.303778 0
M  V30 8586 H 803.313 -2.52451 0.512464 0
M  V30 8587 H 803.271 -2.9177 -1.17121 0
M  V30 8588 N 807.043 -1.17915 -1.04565 0
M  V30 8589 C 807.975 -0.859359 -2.1248 0
M  V30 8590 C 808.988 0.140922 -1.62189 0
M  V30 8591 O 810.177 -0.0862361 -1.78292 0
M  V30 8592 C 807.277 -0.261811 -3.37887 0
M  V30 8593 C 806.45 -1.30651 -4.17431 0
M  V30 8594 C 805.509 -0.725575 -5.21174 0
M  V30 8595 O 804.535 -1.39901 -5.51739 0
M  V30 8596 N 805.737 0.479351 -5.78517 0
M  V30 8597 H 808.502 -1.78818 -2.40508 0
M  V30 8598 H 806.063 -1.07885 -1.20716 0
M  V30 8599 H 808.055 0.14028 -4.04457 0
M  V30 8600 H 806.625 0.570929 -3.07342 0
M  V30 8601 H 805.845 -1.88412 -3.46258 0
M  V30 8602 H 807.133 -2.01099 -4.67372 0
M  V30 8603 H 806.531 1.04431 -5.55977 0
M  V30 8604 H 805.088 0.823427 -6.46578 0
M  V30 8605 N 808.521 1.23394 -0.980386 0
M  V30 8606 C 809.749 1.95844 -0.667286 0
M  V30 8607 C 810.164 1.72574 0.765735 0
M  V30 8608 O 809.521 1.01715 1.51526 0
M  V30 8609 C 809.572 3.48844 -0.948151 0
M  V30 8610 O 809.293 3.71325 -2.32485 0
M  V30 8611 C 810.794 4.38494 -0.651002 0
M  V30 8612 H 808.014 0.623535 -0.247882 0
M  V30 8613 H 810.558 1.56885 -1.31176 0
M  V30 8614 H 808.713 3.85819 -0.349681 0
M  V30 8615 H 809.127 4.65619 -2.41452 0
M  V30 8616 H 810.601 5.44648 -0.897887 0
M  V30 8617 H 811.078 4.37236 0.414922 0
M  V30 8618 H 811.684 4.07127 -1.22995 0
M  V30 8619 N 809.999 0.752036 1.385 0
M  V30 8620 C 811.245 0.307958 2.00448 0
M  V30 8621 C 811.578 -1.10702 1.59558 0
M  V30 8622 O 810.853 -1.75788 0.832391 0
M  V30 8623 C 811.136 0.429092 3.57534 0
M  V30 8624 C 810.989 1.88507 4.08393 0
M  V30 8625 C 812.308 -0.178442 4.39738 0
M  V30 8626 H 809.427 0.113373 0.728228 0
M  V30 8627 H 812.069 0.951389 1.64465 0
M  V30 8628 H 810.219 -0.118695 3.88319 0
M  V30 8629 H 811.891 2.49104 3.88259 0
M  V30 8630 H 810.134 2.40066 3.61318 0
M  V30 8631 H 810.805 1.92099 5.17496 0
M  V30 8632 H 813.281 0.28872 4.15097 0
M  V30 8633 H 812.157 -0.0634349 5.48863 0
M  V30 8634 H 812.418 -1.26655 4.23569 0
M  V30 8635 N 811.477 -1.49425 0.500989 0
M  V30 8636 C 812.387 -2.32899 -0.282011 0
M  V30 8637 C 813.403 -1.44632 -0.967346 0
M  V30 8638 O 814.579 -1.77654 -0.94873 0
M  V30 8639 C 811.644 -3.20069 -1.33253 0
M  V30 8640 C 810.705 -4.24186 -0.660636 0
M  V30 8641 C 809.938 -5.07191 -1.6611 0
M  V30 8642 O 810.161 -4.91712 -2.89094 0
M  V30 8643 O 809.095 -5.8948 -1.21643 0
M  V30 8644 H 812.921 -3.01038 0.401224 0
M  V30 8645 H 810.506 -1.47079 0.262323 0
M  V30 8646 H 812.388 -3.74071 -1.94033 0
M  V30 8647 H 811.063 -2.54625 -1.9987 0
M  V30 8648 H 809.97 -3.74098 -0.0130959 0
M  V30 8649 H 811.303 -4.92186 -0.0369179 0
M  V30 8650 N 812.955 -0.234822 -1.55841 0
M  V30 8651 C 813.887 0.702346 -2.18174 0
M  V30 8652 C 814.9 1.14776 -1.15457 0
M  V30 8653 O 816.089 1.07662 -1.42377 0
M  V30 8654 C 813.189 1.96483 -2.76129 0
M  V30 8655 C 812.362 1.67283 -4.04148 0
M  V30 8656 C 811.421 2.7837 -4.46539 0
M  V30 8657 O 810.447 2.46272 -5.13166 0
M  V30 8658 N 811.649 4.07611 -4.1332 0
M  V30 8659 H 814.414 0.169074 -2.99223 0
M  V30 8660 H 811.975 -0.0543164 -1.61809 0
M  V30 8661 H 813.967 2.70016 -3.01452 0
M  V30 8662 H 812.537 2.40822 -1.99307 0
M  V30 8663 H 811.757 0.773278 -3.86541 0
M  V30 8664 H 813.045 1.45222 -4.87635 0
M  V30 8665 H 812.443 4.36527 -3.59806 0
M  V30 8666 H 811 4.77646 -4.43506 0
M  V30 8667 N 814.433 1.57553 0.0384317 0
M  V30 8668 C 815.363 2.0898 1.04161 0
M  V30 8669 C 816.344 0.99029 1.38301 0
M  V30 8670 O 817.529 1.26499 1.47349 0
M  V30 8671 C 814.659 2.56145 2.34536 0
M  V30 8672 C 813.613 3.70275 2.14663 0
M  V30 8673 C 812.939 4.03612 3.50715 0
M  V30 8674 C 814.239 4.99067 1.54045 0
M  V30 8675 H 815.933 2.93046 0.613548 0
M  V30 8676 H 813.479 1.40973 0.293684 0
M  V30 8677 H 815.432 2.90741 3.05037 0
M  V30 8678 H 814.156 1.6915 2.79385 0
M  V30 8679 H 812.815 3.36013 1.46597 0
M  V30 8680 H 812.463 3.13698 3.93195 0
M  V30 8681 H 812.163 4.80482 3.38247 0
M  V30 8682 H 813.687 4.40735 4.22593 0
M  V30 8683 H 815.101 5.3168 2.14451 0
M  V30 8684 H 813.498 5.80484 1.52178 0
M  V30 8685 H 814.568 4.8226 0.505259 0
M  V30 8686 N 815.911 -0.310526 1.54511 0
M  V30 8687 C 816.843 -1.40405 1.8116 0
M  V30 8688 C 817.856 -1.47261 0.694114 0
M  V30 8689 O 819.045 -1.49751 0.971441 0
M  V30 8690 C 816.145 -2.78849 1.92604 0
M  V30 8691 C 815.318 -2.95041 3.22908 0
M  V30 8692 C 814.377 -4.13925 3.24889 0
M  V30 8693 O 813.403 -4.06463 3.98467 0
M  V30 8694 N 814.605 -5.24099 2.496 0
M  V30 8695 H 817.37 -1.17903 2.75534 0
M  V30 8696 H 814.931 -0.500564 1.53967 0
M  V30 8697 H 816.923 -3.5661 1.91342 0
M  V30 8698 H 815.493 -2.94342 1.05268 0
M  V30 8699 H 814.713 -2.04472 3.37023 0
M  V30 8700 H 816.001 -3.02763 4.08916 0
M  V30 8701 H 815.399 -5.33039 1.89435 0
M  V30 8702 H 813.956 -6.0023 2.54102 0
M  V30 8703 N 817.389 -1.46805 -0.573248 0
M  V30 8704 C 818.336 -1.58084 -1.68161 0
M  V30 8705 C 819.306 -0.424636 -1.6058 0
M  V30 8706 O 820.491 -0.642623 -1.79652 0
M  V30 8707 C 817.631 -1.58601 -3.06496 0
M  V30 8708 C 816.744 -2.85023 -3.24632 0
M  V30 8709 C 815.879 -2.76981 -4.53271 0
M  V30 8710 C 814.918 -3.983 -4.64783 0
M  V30 8711 N 814.055 -3.88589 -5.84759 0
M  V30 8712 H 818.895 -2.52755 -1.57858 0
M  V30 8713 H 816.432 -1.25385 -0.769218 0
M  V30 8714 H 818.39 -1.56885 -3.86579 0
M  V30 8715 H 817.02 -0.674553 -3.15673 0
M  V30 8716 H 816.072 -2.96678 -2.38089 0
M  V30 8717 H 817.384 -3.7491 -3.29004 0
M  V30 8718 H 816.538 -2.73424 -5.41594 0
M  V30 8719 H 815.277 -1.84751 -4.51352 0
M  V30 8720 H 814.282 -4.02179 -3.74876 0
M  V30 8721 H 815.507 -4.91639 -4.68474 0
M  V30 8722 H 813.453 -2.99151 -5.83819 0
M  V30 8723 H 813.37 -4.7214 -5.90441 0
M  V30 8724 H 814.638 -3.89022 -6.75486 0
M  V30 8725 N 818.867 0.818669 -1.34668 0
M  V30 8726 C 819.8 1.93516 -1.20941 0
M  V30 8727 C 820.778 1.62292 -0.100061 0
M  V30 8728 O 821.962 1.86614 -0.265983 0
M  V30 8729 C 819.089 3.27612 -0.859524 0
M  V30 8730 C 818.135 3.77794 -1.97923 0
M  V30 8731 S 818.968 3.97043 -3.59329 0
M  V30 8732 C 820.124 5.3406 -3.2639 0
M  V30 8733 H 820.357 2.04864 -2.15449 0
M  V30 8734 H 817.89 0.974716 -1.19744 0
M  V30 8735 H 819.848 4.05087 -0.664444 0
M  V30 8736 H 818.509 3.14028 0.0672835 0
M  V30 8737 H 817.702 4.74883 -1.68827 0
M  V30 8738 H 817.304 3.0728 -2.13202 0
M  V30 8739 H 819.596 6.17626 -2.78469 0
M  V30 8740 H 820.539 5.68143 -4.22634 0
M  V30 8741 H 820.947 4.99773 -2.62464 0
M  V30 8742 N 820.346 1.18468 1.03938 0
M  V30 8743 C 821.276 0.936389 2.13902 0
M  V30 8744 C 822.257 -0.126381 1.6963 0
M  V30 8745 O 823.442 0.0264757 1.94182 0
M  V30 8746 C 820.572 0.462729 3.44204 0
M  V30 8747 C 819.526 1.46613 4.02105 0
M  V30 8748 C 818.852 0.84994 5.27902 0
M  V30 8749 C 820.152 2.84323 4.3813 0
M  V30 8750 H 821.846 1.85602 2.3493 0
M  V30 8751 H 819.392 0.893806 1.12903 0
M  V30 8752 H 821.345 0.276382 4.20493 0
M  V30 8753 H 820.069 -0.492477 3.22866 0
M  V30 8754 H 818.728 1.63944 3.27899 0
M  V30 8755 H 818.376 -0.112493 5.02874 0
M  V30 8756 H 818.076 1.51988 5.67603 0
M  V30 8757 H 819.6 0.674152 6.06867 0
M  V30 8758 H 821.014 2.70636 5.054 0
M  V30 8759 H 819.411 3.48012 4.88884 0
M  V30 8760 H 820.481 3.37776 3.47901 0
M  V30 8761 N 821.824 -1.22873 0.986916 0
M  V30 8762 C 823.24 -1.43594 0.696633 0
M  V30 8763 C 823.44 -1.87622 -0.734869 0
M  V30 8764 O 822.496 -2.02633 -1.50652 0
M  V30 8765 C 823.809 -2.48231 1.69711 0
M  V30 8766 C 825.357 -2.62037 1.71188 0
M  V30 8767 C 825.832 -3.6989 2.70084 0
M  V30 8768 N 827.323 -3.77341 2.68641 0
M  V30 8769 C 828.058 -4.6037 3.41829 0
M  V30 8770 N 827.554 -5.47438 4.24598 0
M  V30 8771 N 829.347 -4.54626 3.30563 0
M  V30 8772 H 821.498 -0.925982 1.91153 0
M  V30 8773 H 823.761 -0.46866 0.824052 0
M  V30 8774 H 823.467 -2.22812 2.72117 0
M  V30 8775 H 823.341 -3.46731 1.48516 0
M  V30 8776 H 825.728 -2.86803 0.694837 0
M  V30 8777 H 825.809 -1.63831 1.96451 0
M  V30 8778 H 825.453 -3.45872 3.71934 0
M  V30 8779 H 825.383 -4.67652 2.42093 0
M  V30 8780 H 827.874 -3.15124 2.08578 0
M  V30 8781 H 828.187 -6.078 4.77283 0
M  V30 8782 H 826.532 -5.4704 4.28687 0
M  V30 8783 H 829.723 -3.85627 2.65347 0
M  V30 8784 H 829.896 -5.19103 3.8786 0
M  V30 8785 N 823.302 -0.75937 -1.38099 0
M  V30 8786 C 824.212 -0.13774 -2.34195 0
M  V30 8787 C 825.228 0.693985 -1.59561 0
M  V30 8788 O 826.404 0.616792 -1.91723 0
M  V30 8789 C 823.469 0.740535 -3.38699 0
M  V30 8790 C 822.53 -0.106225 -4.29169 0
M  V30 8791 C 821.763 0.730225 -5.28681 0
M  V30 8792 O 821.986 1.96796 -5.35376 0
M  V30 8793 O 820.92 0.145969 -6.01723 0
M  V30 8794 H 824.746 -0.931512 -2.89061 0
M  V30 8795 H 822.331 -0.520345 -1.40046 0
M  V30 8796 H 824.213 1.24232 -4.02672 0
M  V30 8797 H 822.888 1.51271 -2.8618 0
M  V30 8798 H 821.795 -0.654088 -3.68337 0
M  V30 8799 H 823.128 -0.841186 -4.84959 0
M  V30 8800 N 824.78 1.49157 -0.508906 0
M  V30 8801 C 825.713 2.26056 0.312103 0
M  V30 8802 C 826.691 1.30982 0.963456 0
M  V30 8803 O 827.875 1.60286 0.992002 0
M  V30 8804 C 825.002 3.06555 1.4402 0
M  V30 8805 C 824.048 4.16844 0.902414 0
M  V30 8806 S 824.881 5.35076 -0.213087 0
M  V30 8807 C 826.037 6.19132 0.917985 0
M  V30 8808 H 826.27 2.95343 -0.340559 0
M  V30 8809 H 823.803 1.51569 -0.294331 0
M  V30 8810 H 825.761 3.53517 2.08653 0
M  V30 8811 H 824.422 2.36722 2.0645 0
M  V30 8812 H 823.615 4.72714 1.74806 0
M  V30 8813 H 823.217 3.72513 0.333156 0
M  V30 8814 H 825.509 6.52556 1.82145 0
M  V30 8815 H 826.452 7.06982 0.397724 0
M  V30 8816 H 826.86 5.51839 1.18889 0
M  V30 8817 N 826.258 0.243083 1.55714 0
M  V30 8818 C 827.674 -0.111853 1.59208 0
M  V30 8819 C 827.874 -1.5723 1.2602 0
M  V30 8820 O 826.93 -2.31608 1.00569 0
M  V30 8821 C 828.243 0.233885 2.99789 0
M  V30 8822 C 829.791 0.177873 3.12494 0
M  V30 8823 C 830.266 0.49759 4.55289 0
M  V30 8824 N 831.757 0.447949 4.61029 0
M  V30 8825 C 832.492 0.668545 5.69489 0
M  V30 8826 N 831.988 0.952064 6.86227 0
M  V30 8827 N 833.781 0.599512 5.58894 0
M  V30 8828 H 825.932 1.19554 1.75558 0
M  V30 8829 H 828.195 0.480765 0.817049 0
M  V30 8830 H 827.901 1.24835 3.28799 0
M  V30 8831 H 827.775 -0.440846 3.74615 0
M  V30 8832 H 830.162 -0.827263 2.83267 0
M  V30 8833 H 830.243 0.886399 2.39951 0
M  V30 8834 H 829.887 1.50026 4.85237 0
M  V30 8835 H 829.817 -0.232371 5.26087 0
M  V30 8836 H 832.308 0.237388 3.77154 0
M  V30 8837 H 832.621 1.10791 7.64817 0
M  V30 8838 H 830.966 0.989496 6.8792 0
M  V30 8839 H 834.157 0.378088 4.66571 0
M  V30 8840 H 834.33 0.774828 6.43351 0
M  V30 8841 N 827.736 -1.57571 -0.0300757 0
M  V30 8842 C 828.984 -1.88852 -0.719666 0
M  V30 8843 C 829.305 -0.840645 -1.75949 0
M  V30 8844 O 828.575 0.125854 -1.95495 0
M  V30 8845 H 827.155 -0.696965 -0.268792 0
M  V30 8846 H 829.817 -1.949 0.00373285 0
M  V30 8847 H 828.913 -2.87695 -1.20987 0
M  V30 8848 N 829.214 0.302327 -1.54673 0
M  V30 8849 C 830.439 1.06103 -1.78205 0
M  V30 8850 C 830.864 1.80204 -0.53926 0
M  V30 8851 O 830.222 1.73975 0.510142 0
M  V30 8852 C 830.27 2.01829 -2.98827 0
M  V30 8853 O 829.374 3.10108 -2.71858 0
M  V30 8854 H 828.715 0.30487 -0.589873 0
M  V30 8855 H 831.245 0.340153 -2.01753 0
M  V30 8856 H 831.255 2.44319 -3.2676 0
M  V30 8857 H 829.93 1.473 -3.88942 0
M  V30 8858 H 828.507 2.72142 -2.54937 0
M  V30 8859 N 830.692 1.47107 0.565454 0
M  V30 8860 C 831.941 1.5257 1.31929 0
M  V30 8861 C 832.254 0.189092 1.94684 0
M  V30 8862 O 833.46 0.121657 2.71227 0
M  V30 8863 C 831.916 2.68914 2.39193 0
M  V30 8864 C 831.524 4.09069 1.82665 0
M  V30 8865 C 833.268 2.83663 3.1581 0
M  V30 8866 C 831.175 5.16726 2.87661 0
M  V30 8867 H 830.105 0.567869 0.496025 0
M  V30 8868 H 832.756 1.73361 0.60151 0
M  V30 8869 H 831.138 2.41486 3.13848 0
M  V30 8870 H 832.312 4.46364 1.14438 0
M  V30 8871 H 830.627 3.99135 1.1866 0
M  V30 8872 H 833.224 3.61261 3.94201 0
M  V30 8873 H 833.567 1.91804 3.69482 0
M  V30 8874 H 834.1 3.10821 2.48265 0
M  V30 8875 H 830.839 6.10433 2.38854 0
M  V30 8876 H 830.359 4.83957 3.54324 0
M  V30 8877 H 832.038 5.43319 3.51303 0
M  V30 8878 N 832.17 -0.811516 1.35101 0
M  V30 8879 C 833.398 -1.59981 1.31201 0
M  V30 8880 C 833.813 -1.8847 -0.111552 0
M  V30 8881 O 833.17 -1.48414 -1.06205 0
M  V30 8882 C 833.221 -2.934 2.11184 0
M  V30 8883 O 832.942 -2.66148 3.4799 0
M  V30 8884 C 834.443 -3.87776 2.14813 0
M  V30 8885 H 831.663 -0.496921 0.450899 0
M  V30 8886 H 834.207 -1.00886 1.77883 0
M  V30 8887 H 832.362 -3.49022 1.68115 0
M  V30 8888 H 832.776 -3.51301 3.89471 0
M  V30 8889 H 834.25 -4.7852 2.75178 0
M  V30 8890 H 834.727 -4.23997 1.14556 0
M  V30 8891 H 835.333 -3.3809 2.58022 0
M  V30 8892 N 833.648 -1.19017 -1.03309 0
M  V30 8893 C 834.895 -0.990214 -1.76638 0
M  V30 8894 C 835.223 0.479435 -1.88498 0
M  V30 8895 O 834.478 1.37223 -1.39529 0
M  V30 8896 C 834.777 -1.59927 -3.19622 0
M  V30 8897 C 834.443 -3.09632 -3.27779 0
M  V30 8898 C 833.105 -3.50491 -3.29712 0
M  V30 8899 C 835.457 -4.05644 -3.27264 0
M  V30 8900 C 832.785 -4.85921 -3.28782 0
M  V30 8901 C 835.137 -5.41 -3.27875 0
M  V30 8902 C 833.801 -5.81295 -3.28104 0
M  V30 8903 H 833.071 -0.362345 -0.646364 0
M  V30 8904 H 835.718 -1.48197 -1.21284 0
M  V30 8905 H 834.023 -1.0297 -3.78027 0
M  V30 8906 H 835.72 -1.41989 -3.7502 0
M  V30 8907 H 832.31 -2.77073 -3.26999 0
M  V30 8908 H 836.494 -3.75124 -3.24955 0
M  V30 8909 H 831.75 -5.16427 -3.27281 0
M  V30 8910 H 835.924 -6.15157 -3.26428 0
M  V30 8911 H 833.551 -6.86211 -3.27138 0
M  V30 8912 N 835.127 1.22348 -0.993418 0
M  V30 8913 C 836.074 2.24294 -0.544118 0
M  V30 8914 C 837.044 1.60602 0.42381 0
M  V30 8915 O 838.229 1.87952 0.328453 0
M  V30 8916 C 835.369 3.44837 0.134578 0
M  V30 8917 C 834.482 4.23043 -0.875151 0
M  V30 8918 C 833.617 5.30928 -0.169919 0
M  V30 8919 C 832.656 6.00853 -1.16798 0
M  V30 8920 N 831.793 7.00381 -0.491021 0
M  V30 8921 H 836.633 2.6209 -1.4182 0
M  V30 8922 H 834.17 1.2881 -0.710384 0
M  V30 8923 H 836.128 4.13625 0.544998 0
M  V30 8924 H 834.758 3.07804 0.972446 0
M  V30 8925 H 833.81 3.53546 -1.40389 0
M  V30 8926 H 835.122 4.71237 -1.63516 0
M  V30 8927 H 834.276 6.05972 0.297205 0
M  V30 8928 H 833.015 4.8371 0.622586 0
M  V30 8929 H 832.02 5.24591 -1.64573 0
M  V30 8930 H 833.245 6.50159 -1.96137 0
M  V30 8931 H 831.191 6.55393 0.282037 0
M  V30 8932 H 831.108 7.46584 -1.18947 0
M  V30 8933 H 832.376 7.79486 -0.0467169 0
M  V30 8934 N 836.605 0.766683 1.37694 0
M  V30 8935 C 837.854 0.325425 1.99057 0
M  V30 8936 C 838.167 -1.10275 1.61551 0
M  V30 8937 O 839.373 -1.64513 2.1598 0
M  V30 8938 C 837.829 0.530886 3.55963 0
M  V30 8939 C 837.437 1.96899 4.02411 0
M  V30 8940 C 839.181 0.152997 4.24224 0
M  V30 8941 C 837.088 2.12232 5.52007 0
M  V30 8942 H 836.018 0.117929 0.744721 0
M  V30 8943 H 838.669 0.945091 1.5729 0
M  V30 8944 H 837.051 -0.158162 3.95684 0
M  V30 8945 H 838.225 2.69258 3.73948 0
M  V30 8946 H 836.54 2.303 3.46916 0
M  V30 8947 H 839.137 0.24614 5.34133 0
M  V30 8948 H 839.48 -0.896096 4.06541 0
M  V30 8949 H 840.013 0.794398 3.89787 0
M  V30 8950 H 836.752 3.15442 5.7461 0
M  V30 8951 H 836.272 1.4435 5.82171 0
M  V30 8952 H 837.951 1.9185 6.17902 0
M  V30 8953 N 838.083 -1.48885 0.516809 0
M  V30 8954 C 839.329 -2.02788 -0.0220928 0
M  V30 8955 C 839.662 -1.39433 -1.35175 0
M  V30 8956 O 838.937 -0.535459 -1.86984 0
M  V30 8957 C 839.22 -3.59753 -0.158012 0
M  V30 8958 C 839.073 -4.33611 1.19588 0
M  V30 8959 C 840.392 -4.30984 -0.891133 0
M  V30 8960 H 837.511 -0.736971 -0.00655488 0
M  V30 8961 H 840.153 -1.77746 0.671287 0
M  V30 8962 H 838.303 -3.8122 -0.748568 0
M  V30 8963 H 839.975 -4.23598 1.82653 0
M  V30 8964 H 838.218 -3.95547 1.78116 0
M  V30 8965 H 838.889 -5.41846 1.05391 0
M  V30 8966 H 841.365 -4.14267 -0.39012 0
M  V30 8967 H 840.241 -5.40527 -0.955107 0
M  V30 8968 H 840.502 -3.97336 -1.93847 0
M  V30 8969 N 839.561 -0.251338 -1.55583 0
M  V30 8970 C 840.972 0.25098 -1.85005 0
M  V30 8971 C 841.323 1.57259 -1.17321 0
M  V30 8972 O 840.448 2.11603 -0.453136 0
M  V30 8973 C 841.043 0.462161 -3.35633 0
M  V30 8974 C 839.602 0.908737 -3.65266 0
M  V30 8975 C 838.749 -0.0115418 -2.77298 0
M  V30 8976 H 841.7 -0.473782 -1.51463 0
M  V30 8977 H 841.721 1.30415 -3.57452 0
M  V30 8978 H 841.233 -0.499886 -3.84867 0
M  V30 8979 H 839.334 1.8831 -3.21512 0
M  V30 8980 H 839.447 0.762526 -4.72993 0
M  V30 8981 H 837.811 0.500612 -2.49732 0
M  V30 8982 H 838.594 -0.969042 -3.29339 0
M  V30 8983 N 841.039 1.57585 0.0217189 0
M  V30 8984 C 842.264 1.94267 0.726309 0
M  V30 8985 C 842.689 0.851904 1.67703 0
M  V30 8986 O 842.047 -0.191792 1.80283 0
M  V30 8987 C 842.095 3.30023 1.45318 0
M  V30 8988 O 841.199 3.22791 2.5667 0
M  V30 8989 H 840.54 0.634777 0.194818 0
M  V30 8990 H 843.07 2.04585 -0.0249985 0
M  V30 8991 H 843.08 3.65084 1.82147 0
M  V30 8992 H 841.755 4.08972 0.755962 0
M  V30 8993 H 840.332 2.99373 2.2233 0
M  V30 8994 N 842.517 -0.29412 1.54831 0
M  V30 8995 C 843.747 -1.04572 1.7818 0
M  V30 8996 C 844.155 -1.81187 0.544776 0
M  V30 8997 O 843.498 -1.769 -0.495169 0
M  V30 8998 C 843.56 -2.06748 2.94101 0
M  V30 8999 C 843.224 -1.49265 4.31936 0
M  V30 9000 C 844.221 -0.919136 5.11711 0
M  V30 9001 C 841.906 -1.52621 4.78552 0
M  V30 9002 C 843.9 -0.386824 6.36225 0
M  V30 9003 C 841.587 -0.990031 6.03027 0
M  V30 9004 C 842.585 -0.421315 6.81699 0
M  V30 9005 O 842.273 0.106713 8.03829 0
M  V30 9006 H 842.005 -0.31559 0.597812 0
M  V30 9007 H 844.559 -0.336817 2.0262 0
M  V30 9008 H 842.789 -2.81339 2.65303 0
M  V30 9009 H 844.478 -2.67865 3.04964 0
M  V30 9010 H 845.244 -0.886062 4.76837 0
M  V30 9011 H 841.123 -1.95826 4.17341 0
M  V30 9012 H 844.667 0.0577248 6.97576 0
M  V30 9013 H 840.564 -1.02027 6.37386 0
M  V30 9014 H 841.332 -0.00593526 8.185 0
M  V30 9015 N 843.995 -1.47404 -0.557645 0
M  V30 9016 C 845.411 -1.32913 -0.88353 0
M  V30 9017 C 845.611 -0.31929 -1.98954 0
M  V30 9018 O 844.667 0.26934 -2.51059 0
M  V30 9019 C 845.98 -2.72229 -1.27718 0
M  V30 9020 C 847.528 -2.8051 -1.38863 0
M  V30 9021 C 848.003 -4.20466 -1.81583 0
M  V30 9022 N 849.494 -4.23005 -1.88735 0
M  V30 9023 C 850.229 -5.2821 -2.23118 0
M  V30 9024 N 849.725 -6.4372 -2.56117 0
M  V30 9025 N 851.518 -5.15588 -2.23888 0
M  V30 9026 H 843.669 -2.11698 0.172557 0
M  V30 9027 H 845.932 -0.947889 0.0145334 0
M  V30 9028 H 845.638 -3.47556 -0.538329 0
M  V30 9029 H 845.512 -3.03971 -2.23342 0
M  V30 9030 H 847.899 -2.05457 -2.11829 0
M  V30 9031 H 847.98 -2.52423 -0.414274 0
M  V30 9032 H 847.624 -4.96025 -1.09187 0
M  V30 9033 H 847.554 -4.45977 -2.80021 0
M  V30 9034 H 850.045 -3.39674 -1.65621 0
M  V30 9035 H 850.358 -7.19754 -2.81378 0
M  V30 9036 H 848.703 -6.47041 -2.53698 0
M  V30 9037 H 851.894 -4.24374 -1.97546 0
M  V30 9038 H 852.067 -5.97685 -2.50353 0
M  V30 9039 N 845.473 0.80434 -1.35529 0
M  V30 9040 C 846.701 1.59283 -1.32048 0
M  V30 9041 C 847.116 1.88527 0.101556 0
M  V30 9042 O 846.473 1.48975 1.05417 0
M  V30 9043 C 846.524 2.92276 -2.12737 0
M  V30 9044 O 846.245 2.64299 -3.49396 0
M  V30 9045 C 847.746 3.86631 -2.16867 0
M  V30 9046 H 844.966 0.494523 -0.453528 0
M  V30 9047 H 847.51 0.999415 -1.78415 0
M  V30 9048 H 845.665 3.48125 -1.69964 0
M  V30 9049 H 846.079 3.4923 -3.91329 0
M  V30 9050 H 847.553 4.77053 -2.77712 0
M  V30 9051 H 848.03 4.23384 -1.16803 0
M  V30 9052 H 848.636 3.36717 -2.59811 0
M  V30 9053 N 846.951 1.19563 1.02676 0
M  V30 9054 C 847.883 0.893054 2.11086 0
M  V30 9055 C 848.896 -0.115101 1.62393 0
M  V30 9056 O 850.085 0.11459 1.78132 0
M  V30 9057 C 847.185 0.315533 3.37428 0
M  V30 9058 C 846.358 1.37276 4.153 0
M  V30 9059 C 845.417 0.808398 5.19953 0
M  V30 9060 O 844.443 1.48661 5.49444 0
M  V30 9061 N 845.645 -0.387253 5.79207 0
M  V30 9062 H 848.41 1.82622 2.37633 0
M  V30 9063 H 845.971 1.09792 1.18984 0
M  V30 9064 H 847.963 -0.0759166 4.04629 0
M  V30 9065 H 846.533 -0.521961 3.08211 0
M  V30 9066 H 845.753 1.93897 3.43217 0
M  V30 9067 H 847.041 2.08509 4.64114 0
M  V30 9068 H 846.439 -0.955725 5.57568 0
M  V30 9069 H 844.996 -0.720457 6.47806 0
M  V30 9070 N 848.429 -1.21819 0.999893 0
M  V30 9071 C 849.654 -1.95298 0.698094 0
M  V30 9072 C 850.079 -1.73273 -0.731982 0
M  V30 9073 O 849.437 -1.01634 -1.50134 0
M  V30 9074 C 849.485 -3.45922 1.01834 0
M  V30 9075 O 848.589 -4.12223 0.120801 0
M  V30 9076 H 847.93 -0.610729 0.260588 0
M  V30 9077 H 850.46 -1.5472 1.33876 0
M  V30 9078 H 850.47 -3.96471 0.963074 0
M  V30 9079 H 849.145 -3.61278 2.06037 0
M  V30 9080 H 847.722 -3.72177 0.232153 0
M  V30 9081 N 849.908 -0.773975 -1.37286 0
M  V30 9082 C 851.133 -0.349561 -2.04433 0
M  V30 9083 C 851.558 1.02082 -1.5799 0
M  V30 9084 O 850.916 1.65458 -0.741172 0
M  V30 9085 C 850.964 -0.404292 -3.58326 0
M  V30 9086 O 850.068 0.594447 -4.08093 0
M  V30 9087 H 849.409 -0.150959 -0.646612 0
M  V30 9088 H 851.939 -1.05079 -1.75555 0
M  V30 9089 H 851.949 -0.262378 -4.07155 0
M  V30 9090 H 850.624 -1.40403 -3.91484 0
M  V30 9091 H 849.201 0.415468 -3.70578 0
M  V30 9092 N 851.386 1.48609 -0.524698 0
M  V30 9093 C 852.611 2.07398 0.00952139 0
M  V30 9094 C 853.036 1.37939 1.27884 0
M  V30 9095 O 852.394 0.443633 1.75788 0
M  V30 9096 C 852.442 3.59916 0.221956 0
M  V30 9097 O 851.546 3.91647 1.29175 0
M  V30 9098 H 850.887 0.662981 -0.0367729 0
M  V30 9099 H 853.417 1.91092 -0.7311 0
M  V30 9100 H 853.427 4.05552 0.446236 0
M  V30 9101 H 852.102 4.09876 -0.705306 0
M  V30 9102 H 850.679 3.57796 1.05055 0
M  V30 9103 N 852.864 0.259585 1.55447 0
M  V30 9104 C 854.104 -0.362989 2.01151 0
M  V30 9105 C 854.468 -1.54201 1.14394 0
M  V30 9106 O 855.669 -2.23318 1.49608 0
M  V30 9107 C 853.94 -0.750399 3.49434 0
M  V30 9108 S 855.499 -1.3617 4.17137 0
M  V30 9109 H 852.317 -0.11365 0.701858 0
M  V30 9110 H 854.919 0.377788 1.91815 0
M  V30 9111 H 853.623 0.116807 4.10234 0
M  V30 9112 H 853.154 -1.52303 3.62722 0
M  V30 9113 H 855.169 -2.65059 4.19474 0
M  V30 9114 N 854.342 -1.57594 -0.0133615 0
M  V30 9115 C 855.252 -2.10991 -1.02566 0
M  V30 9116 C 856.268 -1.05208 -1.3859 0
M  V30 9117 O 857.444 -1.37034 -1.47593 0
M  V30 9118 C 854.509 -2.59165 -2.30292 0
M  V30 9119 C 853.57 -3.79495 -2.00704 0
M  V30 9120 C 852.803 -4.25361 -3.22341 0
M  V30 9121 O 853.026 -3.70645 -4.33565 0
M  V30 9122 O 851.96 -5.17649 -3.07121 0
M  V30 9123 H 855.786 -2.97678 -0.601806 0
M  V30 9124 H 853.371 -1.47598 -0.23135 0
M  V30 9125 H 855.253 -2.90409 -3.05354 0
M  V30 9126 H 853.928 -1.75582 -2.71942 0
M  V30 9127 H 852.835 -3.53245 -1.23161 0
M  V30 9128 H 854.168 -4.64109 -1.639 0
M  V30 9129 N 855.82 0.285905 -1.54985 0
M  V30 9130 C 857.236 0.632405 -1.46536 0
M  V30 9131 C 857.436 1.90074 -0.668888 0
M  V30 9132 O 856.492 2.51839 -0.182586 0
M  V30 9133 C 857.805 0.771361 -2.90638 0
M  V30 9134 C 859.353 0.866262 -3.00774 0
M  V30 9135 C 859.828 1.0371 -4.46103 0
M  V30 9136 N 861.319 1.10294 -4.49877 0
M  V30 9137 C 862.054 1.25369 -5.59527 0
M  V30 9138 N 861.55 1.37246 -6.7907 0
M  V30 9139 N 863.343 1.28377 -5.47244 0
M  V30 9140 H 855.494 -0.547226 -2.0523 0
M  V30 9141 H 857.757 -0.183298 -0.930111 0
M  V30 9142 H 857.463 -0.0899485 -3.51585 0
M  V30 9143 H 857.337 1.65569 -3.3892 0
M  V30 9144 H 859.724 1.71805 -2.39931 0
M  V30 9145 H 859.805 -0.0424049 -2.55765 0
M  V30 9146 H 859.449 0.190021 -5.07544 0
M  V30 9147 H 859.379 1.96022 -4.88757 0
M  V30 9148 H 861.87 1.02407 -3.6376 0
M  V30 9149 H 862.183 1.48546 -7.58389 0
M  V30 9150 H 860.528 1.34274 -6.81906 0
M  V30 9151 H 863.719 1.1872 -4.52795 0
M  V30 9152 H 863.892 1.39782 -6.32744 0
M  V30 9153 N 857.298 1.47698 0.54982 0
M  V30 9154 C 858.575 1.45185 1.31075 0
M  V30 9155 C 858.955 0.152768 2.10547 0
M  V30 9156 O 858.303 -0.865706 2.11466 0
M  V30 9157 C 858.513 2.70192 2.20902 0
M  V30 9158 C 859.861 3.1771 2.81683 0
M  V30 9159 O 860.885 2.70971 2.312 0
M  V30 9160 O 859.744 3.98986 3.7346 0
M  V30 9161 H 856.838 0.57892 0.590577 0
M  V30 9162 H 859.384 1.59908 0.568112 0
M  V30 9163 H 858.156 3.56269 1.61828 0
M  V30 9164 H 857.779 2.58091 3.02448 0
M  V30 9165 N 858.776 -0.797141 1.35954 0
M  V30 9166 C 860.001 -1.59097 1.33053 0
M  V30 9167 C 860.426 -1.87897 -0.0874592 0
M  V30 9168 O 859.784 -1.47291 -1.05712 0
M  V30 9169 C 859.832 -2.89346 2.152 0
M  V30 9170 O 858.936 -3.826 1.5392 0
M  V30 9171 H 858.277 -0.482895 0.45575 0
M  V30 9172 H 860.807 -0.988633 1.79129 0
M  V30 9173 H 860.817 -3.38686 2.27499 0
M  V30 9174 H 859.492 -2.6771 3.18283 0
M  V30 9175 H 858.069 -3.41174 1.50516 0
M  V30 9176 N 860.254 -1.20106 -1.0204 0
M  V30 9177 C 861.665 -1.00992 -1.57027 0
M  V30 9178 C 862.016 0.434782 -1.91322 0
M  V30 9179 O 861.141 1.31557 -1.71819 0
M  V30 9180 C 861.736 -1.82697 -2.85319 0
M  V30 9181 C 860.295 -1.67959 -3.36848 0
M  V30 9182 C 859.442 -1.80868 -2.10195 0
M  V30 9183 H 862.393 -1.34354 -0.844676 0
M  V30 9184 H 862.414 -1.32809 -3.5657 0
M  V30 9185 H 861.926 -2.87839 -2.60328 0
M  V30 9186 H 860.027 -0.654389 -3.66809 0
M  V30 9187 H 860.14 -2.49006 -4.09308 0
M  V30 9188 H 858.504 -1.24015 -2.22469 0
M  V30 9189 H 859.287 -2.87486 -1.87635 0
M  V30 9190 N 861.732 1.21287 -1.00634 0
M  V30 9191 C 862.957 1.94925 -0.708441 0
M  V30 9192 C 863.382 1.73659 0.722783 0
M  V30 9193 O 862.74 1.02429 1.49593 0
M  V30 9194 C 862.788 3.45377 -1.03667 0
M  V30 9195 O 861.892 4.12153 -0.142661 0
M  V30 9196 H 861.233 0.609338 -0.263824 0
M  V30 9197 H 863.763 1.54008 -1.34695 0
M  V30 9198 H 863.773 3.95954 -0.984086 0
M  V30 9199 H 862.448 3.6018 -2.0795 0
M  V30 9200 H 861.025 3.72048 -0.251888 0
M  V30 9201 N 863.21 0.781244 1.36873 0
M  V30 9202 C 864.438 0.361566 2.03716 0
M  V30 9203 C 864.853 -1.01937 1.58916 0
M  V30 9204 O 864.21 -1.65237 0.774783 0
M  V30 9205 C 864.261 0.406391 3.59208 0
M  V30 9206 O 863.982 1.73286 4.02372 0
M  V30 9207 C 865.483 -0.0236894 4.43294 0
M  V30 9208 H 862.703 0.150133 0.653988 0
M  V30 9209 H 865.247 1.05781 1.75016 0
M  V30 9210 H 863.402 -0.241364 3.86647 0
M  V30 9211 H 863.816 1.67804 4.96933 0
M  V30 9212 H 865.29 0.0588205 5.51969 0
M  V30 9213 H 865.767 -1.07529 4.25833 0
M  V30 9214 H 866.373 0.59624 4.211 0
M  V30 9215 N 864.689 -1.48329 0.532571 0
M  V30 9216 C 865.914 -2.074 0.00147755 0
M  V30 9217 C 866.339 -1.38615 -1.27151 0
M  V30 9218 O 865.697 -0.452949 -1.75551 0
M  V30 9219 C 865.745 -3.60029 -0.202866 0
M  V30 9220 O 864.849 -3.92327 -1.27097 0
M  V30 9221 H 864.19 -0.662777 0.0402883 0
M  V30 9222 H 866.72 -1.90701 0.741224 0
M  V30 9223 H 866.73 -4.05783 -0.424722 0
M  V30 9224 H 865.405 -4.09496 0.727033 0
M  V30 9225 H 863.982 -3.58348 -1.03156 0
M  V30 9226 N 866.167 -0.267825 -1.55308 0
M  V30 9227 C 867.583 0.0865107 -1.59365 0
M  V30 9228 C 867.783 1.55205 -1.28505 0
M  V30 9229 O 866.839 2.29978 -1.04241 0
M  V30 9230 C 868.152 -0.28155 -2.99379 0
M  V30 9231 C 869.7 -0.227565 -3.12172 0
M  V30 9232 C 870.175 -0.569959 -4.5444 0
M  V30 9233 N 871.666 -0.521238 -4.60258 0
M  V30 9234 C 872.401 -0.759061 -5.68354 0
M  V30 9235 N 871.897 -1.06112 -6.84626 0
M  V30 9236 N 873.69 -0.688351 -5.57869 0
M  V30 9237 H 865.841 -1.22332 -1.73633 0
M  V30 9238 H 868.104 -0.493703 -0.809297 0
M  V30 9239 H 867.81 -1.3005 -3.26772 0
M  V30 9240 H 867.684 0.381192 -3.75269 0
M  V30 9241 H 870.071 0.782093 -2.84548 0
M  V30 9242 H 870.152 -0.924461 -2.38511 0
M  V30 9243 H 869.796 -1.57727 -4.82788 0
M  V30 9244 H 869.726 0.148646 -5.2639 0
M  V30 9245 H 872.217 -0.297359 -3.76728 0
M  V30 9246 H 872.53 -1.22945 -7.62958 0
M  V30 9247 H 870.875 -1.09881 -6.86259 0
M  V30 9248 H 874.066 -0.452268 -4.6591 0
M  V30 9249 H 874.239 -0.877081 -6.42037 0
M  V30 9250 N 867.645 1.57599 0.00500368 0
M  V30 9251 C 868.577 2.04949 1.02609 0
M  V30 9252 C 869.59 0.966507 1.31006 0
M  V30 9253 O 870.779 1.2434 1.2807 0
M  V30 9254 C 867.879 2.43023 2.36206 0
M  V30 9255 C 867.052 3.73993 2.26821 0
M  V30 9256 C 866.111 3.9899 3.43065 0
M  V30 9257 O 865.137 4.69725 3.21477 0
M  V30 9258 N 866.339 3.46496 4.65748 0
M  V30 9259 H 869.104 2.93167 0.622336 0
M  V30 9260 H 866.665 1.60752 0.192488 0
M  V30 9261 H 868.657 2.56863 3.12735 0
M  V30 9262 H 867.227 1.60349 2.68341 0
M  V30 9263 H 866.447 3.70277 1.35235 0
M  V30 9264 H 867.735 4.59865 2.17719 0
M  V30 9265 H 867.133 2.89206 4.86186 0
M  V30 9266 H 865.69 3.65675 5.3956 0
M  V30 9267 N 869.123 -0.277682 1.55134 0
M  V30 9268 C 870.348 -1.03254 1.7987 0
M  V30 9269 C 870.773 -1.79324 0.567861 0
M  V30 9270 O 870.131 -1.74764 -0.4824 0
M  V30 9271 C 870.179 -1.9705 3.02 0
M  V30 9272 O 869.283 -3.05744 2.76757 0
M  V30 9273 H 868.624 -0.295447 0.594649 0
M  V30 9274 H 871.154 -0.308013 2.02268 0
M  V30 9275 H 871.164 -2.3909 3.30606 0
M  V30 9276 H 869.839 -1.41094 3.91236 0
M  V30 9277 H 868.416 -2.68052 2.59235 0
M  V30 9278 N 870.601 -1.47988 -0.541979 0
M  V30 9279 C 872.012 -1.49073 -1.12402 0
M  V30 9280 C 872.363 -0.253825 -1.94551 0
M  V30 9281 O 871.488 0.640056 -2.06718 0
M  V30 9282 C 872.083 -2.7011 -2.04514 0
M  V30 9283 C 870.642 -2.74105 -2.5796 0
M  V30 9284 C 869.789 -2.42409 -1.3466 0
M  V30 9285 H 872.74 -1.55277 -0.327818 0
M  V30 9286 H 872.761 -2.47946 -2.88623 0
M  V30 9287 H 872.273 -3.60117 -1.44697 0
M  V30 9288 H 870.374 -1.88276 -3.21532 0
M  V30 9289 H 870.487 -3.75213 -2.97913 0
M  V30 9290 H 868.851 -1.9331 -1.65841 0
M  V30 9291 H 869.634 -3.34642 -0.766133 0
M  V30 9292 N 872.079 0.78992 -1.36375 0
M  V30 9293 C 873.042 1.88414 -1.30509 0
M  V30 9294 C 874.042 1.59384 -0.2129 0
M  V30 9295 O 875.232 1.67805 -0.467651 0
M  V30 9296 C 872.364 3.25188 -1.02302 0
M  V30 9297 H 873.557 1.95031 -2.27822 0
M  V30 9298 H 871.11 0.987664 -1.2114 0
M  V30 9299 H 871.845 3.24254 -0.0544486 0
M  V30 9300 H 871.63 3.47647 -1.81338 0
M  V30 9301 H 873.12 4.05252 -1.00801 0
M  V30 9302 N 873.557 1.20646 1.01402 0
M  V30 9303 C 874.505 0.954493 2.12114 0
M  V30 9304 C 875.499 -0.0950737 1.69133 0
M  V30 9305 O 876.705 0.0555153 1.79914 0
M  V30 9306 H 873.08 0.29135 0.693267 0
M  V30 9307 H 875.051 1.89447 2.30548 0
M  V30 9308 C 873.8 0.525944 3.43699 0
M  V30 9309 H 873.123 1.32516 3.772 0
M  V30 9310 H 874.563 0.388883 4.22213 0
M  V30 9311 C 873.022 -0.761997 3.28169 0
M  V30 9312 O 873.552 -1.81979 3.58115 0
M  V30 9313 N 871.758 -0.725017 2.8141 0
M  V30 9314 H 871.305 0.13607 2.5724 0
M  V30 9315 H 871.263 -1.5871 2.71401 0
M  V30 9316 N 875.035 -1.20752 1.01276 0
M  V30 9317 C 876.283 -1.89645 0.698505 0
M  V30 9318 C 876.604 -1.78986 -0.773883 0
M  V30 9319 O 875.874 -1.18977 -1.55632 0
M  V30 9320 H 874.454 -0.701992 0.255375 0
M  V30 9321 H 877.116 -1.46668 1.28353 0
M  V30 9322 H 876.212 -2.96364 0.978512 0
M  V30 9323 N 876.513 -0.788492 -1.36457 0
M  V30 9324 C 877.463 -0.159377 -2.27442 0
M  V30 9325 C 878.447 0.656146 -1.46913 0
M  V30 9326 O 879.639 0.516372 -1.693 0
M  V30 9327 C 876.768 0.705703 -3.35968 0
M  V30 9328 C 875.854 -0.11856 -4.23934 0
M  V30 9329 N 876.245 -1.1726 -4.9202 0
M  V30 9330 C 874.543 0.102752 -4.45882 0
M  V30 9331 C 875.244 -1.6743 -5.57083 0
M  V30 9332 N 874.22 -0.983682 -5.34626 0
M  V30 9333 H 878.022 -0.96614 -2.77566 0
M  V30 9334 H 875.536 -0.627864 -1.49772 0
M  V30 9335 H 877.533 1.17231 -4.00078 0
M  V30 9336 H 876.193 1.51102 -2.87399 0
M  V30 9337 H 877.204 -1.55502 -4.94004 0
M  V30 9338 H 873.881 0.878651 -4.08149 0
M  V30 9339 H 875.271 -2.55423 -6.21457 0
M  V30 9340 N 877.991 1.48044 -0.54043 0
M  V30 9341 C 879.216 2.07396 -0.0124765 0
M  V30 9342 C 879.641 1.39288 1.26414 0
M  V30 9343 O 878.999 0.462252 1.75308 0
M  V30 9344 C 879.047 3.60131 0.18377 0
M  V30 9345 O 878.151 3.92995 1.25014 0
M  V30 9346 H 877.492 0.662554 -0.0438026 0
M  V30 9347 H 880.022 1.90306 -0.751327 0
M  V30 9348 H 880.032 4.06003 0.403197 0
M  V30 9349 H 878.707 4.09105 -0.74874 0
M  V30 9350 H 877.284 3.5889 1.01254 0
M  V30 9351 N 879.47 0.276058 1.55163 0
M  V30 9352 C 880.695 -0.346648 2.04483 0
M  V30 9353 C 881.12 -1.48613 1.15308 0
M  V30 9354 O 880.478 -1.80663 0.151875 0
M  V30 9355 C 880.526 -0.804268 3.51517 0
M  V30 9356 O 879.63 -1.91143 3.65429 0
M  V30 9357 H 878.971 -0.0715251 0.660136 0
M  V30 9358 H 881.501 0.410631 2.00437 0
M  V30 9359 H 881.511 -1.09977 3.92898 0
M  V30 9360 H 880.186 0.0294123 4.1589 0
M  V30 9361 H 878.763 -1.61839 3.3595 0
M  V30 9362 N 880.948 -1.576 0.00335426 0
M  V30 9363 C 882.176 -1.94996 -0.691685 0
M  V30 9364 C 882.591 -0.878405 -1.67121 0
M  V30 9365 O 881.948 0.142343 -1.81944 0
M  V30 9366 C 881.999 -3.32416 -1.42063 0
M  V30 9367 O 881.72 -4.35458 -0.48038 0
M  V30 9368 C 883.221 -3.84291 -2.20987 0
M  V30 9369 H 880.441 -0.642814 -0.192434 0
M  V30 9370 H 882.985 -2.04425 0.0554706 0
M  V30 9371 H 881.14 -3.24285 -2.11939 0
M  V30 9372 H 881.554 -5.14975 -0.995054 0
M  V30 9373 H 883.028 -4.82863 -2.67483 0
M  V30 9374 H 883.505 -3.17174 -3.03805 0
M  V30 9375 H 884.111 -3.95609 -1.56121 0
M  V30 9376 N 882.426 0.269451 -1.5528 0
M  V30 9377 C 883.374 1.35303 -1.89198 0
M  V30 9378 C 884.368 1.50956 -0.768671 0
M  V30 9379 O 885.574 1.52699 -0.953054 0
M  V30 9380 H 881.949 0.452591 -0.600554 0
M  V30 9381 H 883.92 1.03949 -2.79709 0
M  V30 9382 C 882.669 2.70585 -2.18356 0
M  V30 9383 H 881.992 2.59332 -3.04281 0
M  V30 9384 H 883.432 3.45335 -2.46007 0
M  V30 9385 C 881.891 3.21954 -0.992327 0
M  V30 9386 O 882.421 4.01048 -0.228769 0
M  V30 9387 N 880.627 2.79682 -0.789062 0
M  V30 9388 H 880.174 2.15475 -1.41167 0
M  V30 9389 H 880.132 3.14399 0.00634776 0
M  V30 9390 N 883.904 1.48273 0.534124 0
M  V30 9391 C 884.852 1.62926 1.66005 0
M  V30 9392 C 885.846 0.495814 1.61982 0
M  V30 9393 O 887.052 0.6744 1.66889 0
M  V30 9394 H 883.427 0.513163 0.549698 0
M  V30 9395 H 885.398 2.57498 1.50789 0
M  V30 9396 C 884.147 1.68231 3.04292 0
M  V30 9397 H 883.47 2.54807 3.0808 0
M  V30 9398 H 884.91 1.82528 3.827 0
M  V30 9399 C 883.369 0.420154 3.3427 0
M  V30 9400 O 883.899 -0.468769 3.98955 0
M  V30 9401 N 882.105 0.293115 2.89118 0
M  V30 9402 H 881.652 1.01745 2.36655 0
M  V30 9403 H 881.61 -0.550376 3.09545 0
M  V30 9404 N 885.382 -0.782676 1.36792 0
M  V30 9405 C 886.607 -1.57676 1.34733 0
M  V30 9406 C 887.032 -1.87979 -0.0675253 0
M  V30 9407 O 886.39 -1.48404 -1.04144 0
M  V30 9408 C 886.438 -2.87047 2.18257 0
M  V30 9409 O 885.542 -3.80946 1.57969 0
M  V30 9410 H 884.883 -0.478034 0.460846 0
M  V30 9411 H 887.413 -0.969578 1.80168 0
M  V30 9412 H 887.423 -3.36254 2.31079 0
M  V30 9413 H 886.098 -2.64319 3.21104 0
M  V30 9414 H 884.675 -3.39558 1.54126 0
M  V30 9415 N 886.86 -1.21182 -1.00761 0
M  V30 9416 C 888.106 -1.02898 -1.74756 0
M  V30 9417 C 888.439 0.436774 -1.89225 0
M  V30 9418 O 887.714 1.32415 -1.42466 0
M  V30 9419 C 887.997 -1.72372 -3.16164 0
M  V30 9420 C 887.85 -3.2645 -3.09435 0
M  V30 9421 C 889.169 -1.46415 -4.15031 0
M  V30 9422 H 886.288 -0.375214 -0.634337 0
M  V30 9423 H 888.93 -1.49321 -1.17487 0
M  V30 9424 H 887.08 -1.32906 -3.65059 0
M  V30 9425 H 888.752 -3.75269 -2.68274 0
M  V30 9426 H 886.995 -3.56889 -2.46603 0
M  V30 9427 H 887.666 -3.70226 -4.09435 0
M  V30 9428 H 890.142 -1.80671 -3.7483 0
M  V30 9429 H 889.018 -1.97544 -5.12121 0
M  V30 9430 H 889.279 -0.39361 -4.40344 0
M  V30 9431 N 888.338 1.20213 -1.01915 0
M  V30 9432 C 889.563 1.94163 -0.729076 0
M  V30 9433 C 889.988 1.74416 0.704323 0
M  V30 9434 O 889.346 1.0401 1.48498 0
M  V30 9435 C 889.394 3.44258 -1.07324 0
M  V30 9436 O 888.498 4.11979 -0.186367 0
M  V30 9437 H 887.839 0.606506 -0.270272 0
M  V30 9438 H 890.369 1.52571 -1.3632 0
M  V30 9439 H 890.379 3.94888 -1.02603 0
M  V30 9440 H 889.054 3.57954 -2.11759 0
M  V30 9441 H 887.631 3.7176 -0.291334 0
M  V30 9442 N 889.816 0.795718 1.36037 0
M  V30 9443 C 891.093 0.294743 1.93367 0
M  V30 9444 C 891.473 -1.21406 1.72696 0
M  V30 9445 O 890.821 -2.00849 1.08959 0
M  V30 9446 C 891.031 0.694254 3.42025 0
M  V30 9447 C 892.379 0.677566 4.19159 0
M  V30 9448 O 893.403 0.635119 3.50492 0
M  V30 9449 O 892.262 0.726127 5.41655 0
M  V30 9450 H 889.356 0.0745459 0.823633 0
M  V30 9451 H 891.902 0.878685 1.4518 0
M  V30 9452 H 890.674 1.73458 3.50753 0
M  V30 9453 H 890.297 0.0845338 3.9751 0
M  V30 9454 N 891.294 -1.47756 0.548274 0
M  V30 9455 C 892.224 -2.32702 -0.19284 0
M  V30 9456 C 893.205 -1.43237 -0.917457 0
M  V30 9457 O 894.39 -1.72103 -0.89967 0
M  V30 9458 C 891.52 -3.24831 -1.22891 0
M  V30 9459 C 890.474 -4.23466 -0.621312 0
M  V30 9460 C 889.8 -5.04856 -1.76137 0
M  V30 9461 C 891.1 -5.20616 0.419055 0
M  V30 9462 H 892.794 -2.94914 0.516323 0
M  V30 9463 H 890.34 -1.41818 0.24975 0
M  V30 9464 H 892.293 -3.83094 -1.75547 0
M  V30 9465 H 891.017 -2.60656 -1.9679 0
M  V30 9466 H 889.676 -3.66416 -0.116123 0
M  V30 9467 H 889.324 -4.37091 -2.48918 0
M  V30 9468 H 889.024 -5.71629 -1.36065 0
M  V30 9469 H 890.548 -5.65976 -2.29136 0
M  V30 9470 H 891.962 -5.73296 -0.0211034 0
M  V30 9471 H 890.359 -5.95543 0.738163 0
M  V30 9472 H 891.429 -4.66638 1.31822 0
M  V30 9473 N 892.772 -0.284283 -1.55015 0
M  V30 9474 C 894.183 0.211681 -1.85496 0
M  V30 9475 C 894.534 1.54735 -1.2063 0
M  V30 9476 O 893.659 2.10594 -0.497918 0
M  V30 9477 C 894.254 0.390864 -3.36538 0
M  V30 9478 C 892.813 0.831055 -3.67111 0
M  V30 9479 C 891.96 -0.0703581 -2.77211 0
M  V30 9480 H 894.911 -0.505803 -1.50424 0
M  V30 9481 H 894.932 1.22803 -3.60138 0
M  V30 9482 H 894.444 -0.581409 -3.8372 0
M  V30 9483 H 892.545 1.81447 -3.25434 0
M  V30 9484 H 892.658 0.662026 -4.74504 0
M  V30 9485 H 891.022 0.447528 -2.50737 0
M  V30 9486 H 891.805 -1.03868 -3.2721 0
M  V30 9487 N 894.251 1.57596 -0.0117121 0
M  V30 9488 C 895.476 1.95764 0.684938 0
M  V30 9489 C 895.901 0.887285 1.65858 0
M  V30 9490 O 895.259 -0.153508 1.80649 0
M  V30 9491 C 895.307 3.33031 1.38285 0
M  V30 9492 O 894.411 3.28163 2.49765 0
M  V30 9493 H 893.752 0.638767 0.181309 0
M  V30 9494 H 896.282 2.04486 -0.0683883 0
M  V30 9495 H 896.292 3.68866 1.74362 0
M  V30 9496 H 894.967 4.10483 0.669043 0
M  V30 9497 H 893.544 3.04021 2.15929 0
M  V30 9498 N 895.729 -0.261212 1.5542 0
M  V30 9499 C 896.957 -1.00916 1.8062 0
M  V30 9500 C 897.372 -1.79494 0.585444 0
M  V30 9501 O 896.729 -1.76974 -0.445702 0
M  V30 9502 C 896.78 -1.95841 3.03856 0
M  V30 9503 O 896.501 -1.20445 4.21218 0
M  V30 9504 C 898.002 -2.82352 3.41749 0
M  V30 9505 H 895.222 -0.297596 0.601397 0
M  V30 9506 H 897.766 -0.288427 2.02456 0
M  V30 9507 H 895.921 -2.63361 2.84112 0
M  V30 9508 H 896.335 -1.84528 4.90968 0
M  V30 9509 H 897.809 -3.44733 4.31118 0
M  V30 9510 H 898.286 -3.5273 2.61683 0
M  V30 9511 H 898.892 -2.20306 3.63793 0
M  V30 9512 N 897.207 -1.48554 -0.526253 0
M  V30 9513 C 898.435 -1.60429 -1.30652 0
M  V30 9514 C 898.85 -0.265963 -1.86917 0
M  V30 9515 O 898.207 0.745262 -1.6659 0
M  V30 9516 C 898.258 -2.65377 -2.45473 0
M  V30 9517 O 897.979 -3.94017 -1.91527 0
M  V30 9518 C 899.48 -2.87726 -3.37237 0
M  V30 9519 H 896.7 -0.540817 -0.397187 0
M  V30 9520 H 899.244 -1.94409 -0.634461 0
M  V30 9521 H 897.399 -2.34246 -3.08557 0
M  V30 9522 H 897.813 -4.51623 -2.66715 0
M  V30 9523 H 899.287 -3.64951 -4.14144 0
M  V30 9524 H 899.764 -1.96688 -3.92696 0
M  V30 9525 H 900.37 -3.20176 -2.79942 0
M  V30 9526 N 898.685 0.775411 -1.37205 0
M  V30 9527 C 899.617 1.89761 -1.28544 0
M  V30 9528 C 900.63 1.61542 -0.201996 0
M  V30 9529 O 901.819 1.72528 -0.457848 0
M  V30 9530 C 898.919 3.24904 -0.963885 0
M  V30 9531 C 898.092 3.80796 -2.15205 0
M  V30 9532 C 897.151 4.94407 -1.80135 0
M  V30 9533 O 896.177 5.10185 -2.52388 0
M  V30 9534 N 897.379 5.75722 -0.743298 0
M  V30 9535 H 900.144 1.97708 -2.25237 0
M  V30 9536 H 897.705 0.954348 -1.30782 0
M  V30 9537 H 899.697 3.9842 -0.710182 0
M  V30 9538 H 898.267 3.12483 -0.085632 0
M  V30 9539 H 897.487 2.99101 -2.56773 0
M  V30 9540 H 898.775 4.1487 -2.94552 0
M  V30 9541 H 898.173 5.65518 -0.143655 0
M  V30 9542 H 896.73 6.4948 -0.549446 0
M  V30 9543 N 900.163 1.21714 1.00117 0
M  V30 9544 C 901.574 1.03477 1.55401 0
M  V30 9545 C 901.925 -0.40429 1.91989 0
M  V30 9546 O 901.05 -1.28807 1.7389 0
M  V30 9547 C 901.645 1.87213 2.82377 0
M  V30 9548 C 900.204 1.73297 3.34133 0
M  V30 9549 C 899.351 1.84189 2.07291 0
M  V30 9550 H 902.302 1.3568 0.823195 0
M  V30 9551 H 902.323 1.38465 3.54412 0
M  V30 9552 H 901.835 2.91944 2.55715 0
M  V30 9553 H 899.936 0.712662 3.65721 0
M  V30 9554 H 900.049 2.55486 4.05294 0
M  V30 9555 H 898.413 1.27538 2.20468 0
M  V30 9556 H 899.196 2.90435 1.83037 0
M  V30 9557 N 901.641 -1.19671 1.02551 0
M  V30 9558 C 902.588 -2.22773 0.603394 0
M  V30 9559 C 903.558 -1.61669 -0.381081 0
M  V30 9560 O 904.743 -1.88756 -0.278505 0
M  V30 9561 C 901.883 -3.45073 -0.0431034 0
M  V30 9562 C 900.996 -4.20574 0.987006 0
M  V30 9563 C 900.131 -5.30291 0.310626 0
M  V30 9564 C 899.17 -5.97545 1.32688 0
M  V30 9565 N 898.307 -6.98833 0.676542 0
M  V30 9566 H 903.147 -2.58238 1.48719 0
M  V30 9567 H 900.684 -1.26881 0.744286 0
M  V30 9568 H 902.642 -4.14925 -0.435141 0
M  V30 9569 H 901.272 -3.10274 -0.890495 0
M  V30 9570 H 900.324 -3.497 1.49713 0
M  V30 9571 H 901.636 -4.66736 1.75952 0
M  V30 9572 H 900.79 -6.06547 -0.136438 0
M  V30 9573 H 899.529 -4.8519 -0.49412 0
M  V30 9574 H 898.534 -5.20043 1.78424 0
M  V30 9575 H 899.759 -6.4473 2.13306 0
M  V30 9576 H 897.705 -6.55911 -0.108172 0
M  V30 9577 H 897.622 -7.43168 1.38699 0
M  V30 9578 H 898.89 -7.79088 0.253367 0
M  V30 9579 N 903.119 -0.802921 -1.35613 0
M  V30 9580 C 904.367 -0.380822 -1.9848 0
M  V30 9581 C 904.688 1.05464 -1.6402 0
M  V30 9582 O 903.958 1.72908 -0.920854 0
M  V30 9583 H 902.538 -0.137824 -0.734176 0
M  V30 9584 H 905.2 -1.02795 -1.65587 0
M  V30 9585 H 904.296 -0.483565 -3.08331 0
M  V30 9586 N 904.597 1.47463 -0.556102 0
M  V30 9587 C 906.013 1.58134 -0.21579 0
M  V30 9588 C 906.213 1.55486 1.28166 0
M  V30 9589 O 905.269 1.45768 2.06174 0
M  V30 9590 C 906.582 2.88686 -0.841464 0
M  V30 9591 C 908.13 3.02268 -0.812591 0
M  V30 9592 C 908.605 4.35518 -1.41731 0
M  V30 9593 N 910.096 4.42151 -1.38045 0
M  V30 9594 C 910.831 5.43817 -1.81799 0
M  V30 9595 N 910.327 6.52299 -2.33404 0
M  V30 9596 N 912.12 5.34855 -1.72877 0
M  V30 9597 H 904.271 1.47428 -1.52901 0
M  V30 9598 H 906.534 0.701586 -0.637559 0
M  V30 9599 H 906.24 2.96358 -1.8938 0
M  V30 9600 H 906.114 3.7572 -0.333846 0
M  V30 9601 H 908.501 2.94194 0.231056 0
M  V30 9602 H 908.582 2.16779 -1.35796 0
M  V30 9603 H 908.226 4.44348 -2.46002 0
M  V30 9604 H 908.156 5.19737 -0.847402 0
M  V30 9605 H 910.647 3.64348 -1.00296 0
M  V30 9606 H 910.96 7.26047 -2.64717 0
M  V30 9607 H 909.305 6.53192 -2.37414 0
M  V30 9608 H 912.496 4.49004 -1.32338 0
M  V30 9609 H 912.669 6.13949 -2.07294 0
M  V30 9610 N 906.075 0.2925 1.54862 0
M  V30 9611 C 907.007 -0.620889 2.2063 0
M  V30 9612 C 908.02 -1.10412 1.19637 0
M  V30 9613 O 909.209 -1.02304 1.46274 0
M  V30 9614 C 906.309 -1.861 2.83232 0
M  V30 9615 C 905.482 -1.52168 4.10078 0
M  V30 9616 C 904.541 -2.61605 4.56562 0
M  V30 9617 O 903.567 -2.27056 5.21952 0
M  V30 9618 N 904.769 -3.9199 4.28163 0
M  V30 9619 H 907.534 -0.0579028 2.99644 0
M  V30 9620 H 905.095 0.114333 1.61496 0
M  V30 9621 H 907.087 -2.58642 3.11266 0
M  V30 9622 H 905.657 -2.33259 2.08108 0
M  V30 9623 H 904.877 -0.629283 3.89145 0
M  V30 9624 H 906.165 -1.27023 4.92689 0
M  V30 9625 H 905.563 -4.22872 3.7576 0
M  V30 9626 H 904.12 -4.60857 4.60928 0
M  V30 9627 N 907.553 -1.57587 0.0200696 0
M  V30 9628 C 908.802 -1.90602 -0.659822 0
M  V30 9629 C 909.115 -0.897216 -1.73808 0
M  V30 9630 O 910.321 -1.11829 -2.47399 0
M  V30 9631 C 908.777 -3.38416 -1.22484 0
M  V30 9632 C 908.385 -4.47637 -0.180339 0
M  V30 9633 C 910.129 -3.80513 -1.88176 0
M  V30 9634 C 908.036 -5.86542 -0.756482 0
M  V30 9635 H 906.966 -0.711272 -0.250216 0
M  V30 9636 H 909.617 -1.83308 0.0838942 0
M  V30 9637 H 907.999 -3.40613 -2.01987 0
M  V30 9638 H 909.173 -4.56987 0.591573 0
M  V30 9639 H 907.488 -4.14687 0.377302 0
M  V30 9640 H 910.085 -4.8164 -2.32222 0
M  V30 9641 H 910.428 -3.15091 -2.72073 0
M  V30 9642 H 910.961 -3.80701 -1.15377 0
M  V30 9643 H 907.7 -6.55485 0.0441468 0
M  V30 9644 H 907.22 -5.80816 -1.49709 0
M  V30 9645 H 908.899 -6.3483 -1.249 0
M  V30 9646 N 909.032 0.252966 -1.55557 0
M  V30 9647 C 910.262 0.998115 -1.8089 0
M  V30 9648 C 910.67 1.79679 -0.592623 0
M  V30 9649 O 910.013 1.78151 0.448093 0
M  V30 9650 C 910.075 1.98878 -2.99479 0
M  V30 9651 C 909.739 1.37761 -4.35742 0
M  V30 9652 C 910.736 0.783142 -5.13968 0
M  V30 9653 C 908.421 1.39879 -4.8243 0
M  V30 9654 C 910.415 0.218004 -6.37027 0
M  V30 9655 C 908.102 0.829801 -6.0544 0
M  V30 9656 C 909.1 0.240426 -6.82577 0
M  V30 9657 O 908.788 -0.319797 -8.03264 0
M  V30 9658 H 908.52 0.29963 -0.605969 0
M  V30 9659 H 911.074 0.282978 -2.03441 0
M  V30 9660 H 909.304 2.74206 -2.72669 0
M  V30 9661 H 910.993 2.59686 -3.11959 0
M  V30 9662 H 911.759 0.759326 -4.79019 0
M  V30 9663 H 907.638 1.84692 -4.22386 0
M  V30 9664 H 911.182 -0.242654 -6.97178 0
M  V30 9665 H 907.079 0.850924 -6.39867 0
M  V30 9666 H 907.847 -0.211078 -8.18228 0
M  V30 9667 N 910.51 1.48831 0.518367 0
M  V30 9668 C 911.756 1.57672 1.27543 0
M  V30 9669 C 912.089 0.254915 1.9252 0
M  V30 9670 O 911.364 -0.740107 1.79868 0
M  V30 9671 C 911.647 2.72345 2.35585 0
M  V30 9672 C 911.5 4.14267 1.75224 0
M  V30 9673 C 912.819 2.82726 3.37274 0
M  V30 9674 H 909.938 0.573926 0.462361 0
M  V30 9675 H 912.58 1.8105 0.576267 0
M  V30 9676 H 910.73 2.52543 2.95219 0
M  V30 9677 H 912.402 4.45539 1.19551 0
M  V30 9678 H 910.645 4.20724 1.05706 0
M  V30 9679 H 911.316 4.90345 2.53507 0
M  V30 9680 H 913.792 3.00699 2.8761 0
M  V30 9681 H 912.668 3.6467 4.10252 0
M  V30 9682 H 912.929 1.9136 3.9854 0
M  V30 9683 N 911.988 -0.768124 1.37614 0
M  V30 9684 C 913.404 -1.06919 1.18493 0
M  V30 9685 C 913.604 -2.01486 0.0235753 0
M  V30 9686 O 912.66 -2.4438 -0.635209 0
M  V30 9687 C 913.973 -1.66321 2.50515 0
M  V30 9688 C 915.521 -1.78562 2.57069 0
M  V30 9689 C 915.996 -2.41377 3.89231 0
M  V30 9690 N 917.487 -2.48824 3.90693 0
M  V30 9691 C 918.222 -2.98288 4.89706 0
M  V30 9692 N 917.718 -3.47897 5.99115 0
M  V30 9693 N 919.511 -2.97196 4.77107 0
M  V30 9694 H 911.662 -0.140286 2.11936 0
M  V30 9695 H 913.925 -0.124863 0.939741 0
M  V30 9696 H 913.631 -1.04303 3.35878 0
M  V30 9697 H 913.505 -2.65571 2.67866 0
M  V30 9698 H 915.892 -2.39712 1.72111 0
M  V30 9699 H 915.973 -0.780574 2.43599 0
M  V30 9700 H 915.617 -1.80866 4.74605 0
M  V30 9701 H 915.547 -3.42495 4.00006 0
M  V30 9702 H 918.038 -2.1372 3.1166 0
M  V30 9703 H 918.351 -3.84053 6.70614 0
M  V30 9704 H 916.696 -3.45993 6.02755 0
M  V30 9705 H 919.887 -2.57741 3.90752 0
M  V30 9706 H 920.06 -3.35434 5.54426 0
M  V30 9707 N 913.466 -1.22244 -0.994698 0
M  V30 9708 C 914.429 -0.992308 -2.06606 0
M  V30 9709 C 915.429 0.0405872 -1.60749 0
M  V30 9710 O 916.619 -0.197737 -1.73074 0
M  V30 9711 C 913.751 -0.498499 -3.37236 0
M  V30 9712 H 914.944 -1.9429 -2.28455 0
M  V30 9713 H 912.497 -1.04087 -1.166 0
M  V30 9714 H 913.232 0.456531 -3.21071 0
M  V30 9715 H 913.017 -1.24367 -3.71854 0
M  V30 9716 H 914.507 -0.35768 -4.16065 0
M  V30 9717 N 914.944 1.19125 -1.03184 0
M  V30 9718 C 915.876 2.21914 -0.573294 0
M  V30 9719 C 916.889 1.5894 0.352397 0
M  V30 9720 O 918.078 1.77883 0.148318 0
M  V30 9721 C 915.178 3.38403 0.18355 0
M  V30 9722 C 914.351 4.3096 -0.747817 0
M  V30 9723 C 913.41 5.26188 -0.0358489 0
M  V30 9724 O 912.436 5.65321 -0.663388 0
M  V30 9725 N 913.638 5.67235 1.23387 0
M  V30 9726 H 916.403 2.61881 -1.45734 0
M  V30 9727 H 913.964 1.33821 -0.911231 0
M  V30 9728 H 915.956 3.99124 0.669468 0
M  V30 9729 H 914.526 2.97201 0.969043 0
M  V30 9730 H 913.746 3.67976 -1.41377 0
M  V30 9731 H 915.034 4.89708 -1.38071 0
M  V30 9732 H 914.432 5.37481 1.76439 0
M  V30 9733 H 912.989 6.30196 1.66423 0
M  V30 9734 N 916.422 0.810101 1.35185 0
M  V30 9735 C 917.669 0.392117 1.98667 0
M  V30 9736 C 917.997 -1.0416 1.64259 0
M  V30 9737 O 917.252 -1.73795 0.899647 0
M  V30 9738 C 917.551 0.526561 3.535 0
M  V30 9739 C 917.217 1.92411 4.07785 0
M  V30 9740 C 915.879 2.30644 4.22323 0
M  V30 9741 C 918.231 2.83827 4.37141 0
M  V30 9742 C 915.559 3.59655 4.63536 0
M  V30 9743 C 917.911 4.12287 4.79794 0
M  V30 9744 C 916.575 4.50515 4.92536 0
M  V30 9745 H 915.845 0.143486 0.726975 0
M  V30 9746 H 918.492 1.03157 1.61341 0
M  V30 9747 H 916.797 -0.19633 3.91308 0
M  V30 9748 H 918.494 0.183871 4.00578 0
M  V30 9749 H 915.084 1.61707 3.96924 0
M  V30 9750 H 919.268 2.55536 4.25459 0
M  V30 9751 H 914.524 3.89117 4.71591 0
M  V30 9752 H 918.698 4.83221 5.01468 0
M  V30 9753 H 916.325 5.50535 5.24229 0
M  V30 9754 N 917.9 -1.47166 0.563914 0
M  V30 9755 C 918.81 -2.33885 -0.182977 0
M  V30 9756 C 919.826 -1.48605 -0.905132 0
M  V30 9757 O 921.002 -1.81518 -0.872527 0
M  V30 9758 C 918.067 -3.25433 -1.19558 0
M  V30 9759 C 917.128 -4.26607 -0.480129 0
M  V30 9760 C 916.361 -5.1378 -1.44449 0
M  V30 9761 O 916.584 -5.03531 -2.67979 0
M  V30 9762 O 915.518 -5.94109 -0.965321 0
M  V30 9763 H 919.344 -2.99065 0.528544 0
M  V30 9764 H 916.929 -1.45834 0.324468 0
M  V30 9765 H 918.811 -3.81964 -1.77993 0
M  V30 9766 H 917.486 -2.62873 -1.8889 0
M  V30 9767 H 916.393 -3.73817 0.145583 0
M  V30 9768 H 917.726 -4.919 0.171868 0
M  V30 9769 N 919.378 -0.300708 -1.54705 0
M  V30 9770 C 920.608 0.310819 -2.04249 0
M  V30 9771 C 921.016 1.4809 -1.17754 0
M  V30 9772 O 920.359 1.82654 -0.195779 0
M  V30 9773 C 920.421 0.83014 -3.49784 0
M  V30 9774 C 920.085 -0.214628 -4.56496 0
M  V30 9775 C 921.082 -1.04298 -5.09331 0
M  V30 9776 C 918.767 -0.356242 -5.01035 0
M  V30 9777 C 920.761 -1.99889 -6.05246 0
M  V30 9778 C 918.448 -1.3156 -5.96771 0
M  V30 9779 C 919.446 -2.1354 -6.4876 0
M  V30 9780 O 919.134 -3.07849 -7.4262 0
M  V30 9781 H 918.866 0.0715341 -0.672204 0
M  V30 9782 H 921.42 -0.438179 -2.00672 0
M  V30 9783 H 919.65 1.62966 -3.50684 0
M  V30 9784 H 921.339 1.35752 -3.82526 0
M  V30 9785 H 922.105 -0.944439 -4.75716 0
M  V30 9786 H 917.984 0.271916 -4.60197 0
M  V30 9787 H 921.528 -2.63917 -6.45751 0
M  V30 9788 H 917.425 -1.41486 -6.29803 0
M  V30 9789 H 918.193 -3.02824 -7.60421 0
M  V30 9790 N 920.856 1.57574 -0.0284266 0
M  V30 9791 C 922.133 1.83064 0.688979 0
M  V30 9792 C 922.513 0.91219 1.90374 0
M  V30 9793 O 921.861 -0.0323672 2.28477 0
M  V30 9794 C 922.071 3.32262 1.06785 0
M  V30 9795 C 923.419 3.98717 1.45978 0
M  V30 9796 O 924.443 3.36753 1.16085 0
M  V30 9797 O 923.302 5.07927 2.01673 0
M  V30 9798 H 920.396 0.7548 0.337944 0
M  V30 9799 H 922.942 1.69607 -0.0560555 0
M  V30 9800 H 921.714 3.90772 0.203235 0
M  V30 9801 H 921.337 3.50823 1.87107 0
M  V30 9802 N 922.334 -0.244713 1.55689 0
M  V30 9803 C 923.745 -0.813603 1.6804 0
M  V30 9804 C 924.096 -1.85936 0.626281 0
M  V30 9805 O 923.221 -2.15206 -0.227038 0
M  V30 9806 C 923.816 -1.48252 3.04642 0
M  V30 9807 C 922.375 -1.99908 3.18926 0
M  V30 9808 C 921.522 -0.850958 2.6392 0
M  V30 9809 H 924.473 -0.0204805 1.58687 0
M  V30 9810 H 924.494 -2.35062 2.99209 0
M  V30 9811 H 924.006 -0.721164 3.81341 0
M  V30 9812 H 922.107 -2.78918 2.47054 0
M  V30 9813 H 922.22 -2.19497 4.25862 0
M  V30 9814 H 920.584 -1.25206 2.21801 0
M  V30 9815 H 921.367 -0.10265 3.43146 0
M  V30 9816 N 923.813 -1.49104 -0.510467 0
M  V30 9817 C 924.776 -1.64569 -1.59529 0
M  V30 9818 C 925.776 -0.517937 -1.5223 0
M  V30 9819 O 926.966 -0.784183 -1.55551 0
M  V30 9820 C 924.098 -1.6342 -2.99177 0
M  V30 9821 H 925.291 -2.61318 -1.4715 0
M  V30 9822 H 922.844 -1.37993 -0.734001 0
M  V30 9823 H 923.579 -0.68221 -3.17043 0
M  V30 9824 H 923.364 -2.45312 -3.05883 0
M  V30 9825 H 924.854 -1.77474 -3.78011 0
M  V30 9826 N 925.291 0.760815 -1.38019 0
M  V30 9827 C 926.238 1.8744 -1.34666 0
M  V30 9828 C 927.208 1.64762 -0.210386 0
M  V30 9829 O 928.393 1.86528 -0.401479 0
M  V30 9830 C 925.533 3.24648 -1.17037 0
M  V30 9831 C 924.646 3.59206 -2.3999 0
M  V30 9832 C 923.781 4.8568 -2.15148 0
M  V30 9833 C 922.82 5.13002 -3.3391 0
M  V30 9834 N 921.957 6.30668 -3.08549 0
M  V30 9835 H 926.797 1.8964 -2.29871 0
M  V30 9836 H 924.334 0.927004 -1.14215 0
M  V30 9837 H 926.292 4.03814 -1.04834 0
M  V30 9838 H 924.922 3.21793 -0.254758 0
M  V30 9839 H 923.974 2.74939 -2.62893 0
M  V30 9840 H 925.286 3.75328 -3.28527 0
M  V30 9841 H 924.44 5.72773 -2.00039 0
M  V30 9842 H 923.179 4.71682 -1.23965 0
M  V30 9843 H 922.184 4.2438 -3.49545 0
M  V30 9844 H 923.409 5.28901 -4.25958 0
M  V30 9845 H 921.355 6.18008 -2.20006 0
M  V30 9846 H 921.272 6.47257 -3.90633 0
M  V30 9847 H 922.54 7.20669 -2.9708 0
M  V30 9848 N 926.769 1.22769 0.988202 0
M  V30 9849 C 928.046 0.9635 1.70223 0
M  V30 9850 C 928.426 -0.520102 2.04593 0
M  V30 9851 O 927.774 -1.48934 1.73295 0
M  V30 9852 C 927.984 1.86583 2.94937 0
M  V30 9853 C 929.332 2.12469 3.67616 0
M  V30 9854 O 930.356 1.84069 3.04954 0
M  V30 9855 O 929.215 2.60595 4.80367 0
M  V30 9856 H 926.309 0.362737 0.743203 0
M  V30 9857 H 928.855 1.33776 1.04412 0
M  V30 9858 H 927.627 2.86913 2.66077 0
M  V30 9859 H 927.25 1.49344 3.68486 0
M  V30 9860 N 928.247 -1.18576 1.03814 0
M  V30 9861 C 929.524 -1.8433 0.654358 0
M  V30 9862 C 929.904 -1.92504 -0.866338 0
M  V30 9863 O 929.252 -1.44904 -1.76678 0
M  V30 9864 C 929.462 -3.22778 1.32723 0
M  V30 9865 C 930.81 -3.98841 1.45641 0
M  V30 9866 O 931.834 -3.32209 1.28514 0
M  V30 9867 O 930.693 -5.18219 1.73526 0
M  V30 9868 H 927.787 -0.794766 0.228638 0
M  V30 9869 H 930.333 -1.25989 1.13687 0
M  V30 9870 H 929.105 -3.11717 2.36534 0
M  V30 9871 H 928.728 -3.88772 0.833176 0
M  V30 9872 N 929.725 -0.817259 -1.34754 0
M  V30 9873 C 930.655 -0.249769 -2.3216 0
M  V30 9874 C 931.636 0.630663 -1.57977 0
M  V30 9875 O 932.821 0.558719 -1.85989 0
M  V30 9876 C 929.951 0.593825 -3.42186 0
M  V30 9877 C 928.905 -0.188997 -4.27583 0
M  V30 9878 C 928.231 0.776979 -5.29025 0
M  V30 9879 C 929.531 -1.39401 -5.03354 0
M  V30 9880 H 931.225 -1.06359 -2.79872 0
M  V30 9881 H 928.771 -0.512894 -1.34556 0
M  V30 9882 H 930.724 1.00097 -4.09339 0
M  V30 9883 H 929.448 1.44064 -2.93109 0
M  V30 9884 H 928.107 -0.577445 -3.62024 0
M  V30 9885 H 927.755 1.61959 -4.76212 0
M  V30 9886 H 927.455 0.257448 -5.87036 0
M  V30 9887 H 928.979 1.18211 -5.99048 0
M  V30 9888 H 930.393 -1.06117 -5.63393 0
M  V30 9889 H 928.79 -1.84878 -5.70912 0
M  V30 9890 H 929.86 -2.17515 -4.33377 0
M  V30 9891 N 931.203 1.46865 -0.571711 0
M  V30 9892 C 932.452 2.01636 -0.050881 0
M  V30 9893 C 932.765 1.45001 1.31279 0
M  V30 9894 O 933.971 1.91523 1.92435 0
M  V30 9895 C 932.427 3.59877 -0.0404114 0
M  V30 9896 C 932.035 4.25506 -1.40172 0
M  V30 9897 C 933.779 4.22346 0.42705 0
M  V30 9898 C 931.686 5.75795 -1.34958 0
M  V30 9899 H 930.616 0.753846 -0.0152514 0
M  V30 9900 H 933.267 1.68711 -0.721723 0
M  V30 9901 H 931.649 3.89829 0.696374 0
M  V30 9902 H 932.823 4.07178 -2.15737 0
M  V30 9903 H 931.138 3.75086 -1.8083 0
M  V30 9904 H 933.735 5.32499 0.484688 0
M  V30 9905 H 934.078 3.9052 1.44222 0
M  V30 9906 H 934.611 3.9698 -0.255326 0
M  V30 9907 H 931.35 6.12265 -2.3412 0
M  V30 9908 H 930.87 5.96419 -0.635962 0
M  V30 9909 H 932.549 6.38294 -1.05779 0
M  V30 9910 N 932.681 0.308908 1.54543 0
M  V30 9911 C 934.092 -0.182144 1.85809 0
M  V30 9912 C 934.443 -1.52796 1.23076 0
M  V30 9913 O 933.568 -2.09775 0.531358 0
M  V30 9914 C 934.163 -0.337275 3.37117 0
M  V30 9915 C 932.722 -0.772545 3.68387 0
M  V30 9916 C 931.869 0.114451 2.77064 0
M  V30 9917 H 934.82 0.529671 1.496 0
M  V30 9918 H 934.841 -1.17058 3.62046 0
M  V30 9919 H 934.353 0.642382 3.82747 0
M  V30 9920 H 932.454 -1.76247 3.2828 0
M  V30 9921 H 932.567 -0.586453 4.75497 0
M  V30 9922 H 930.931 -0.407581 2.51418 0
M  V30 9923 H 931.714 1.09061 3.25516 0
M  V30 9924 N 934.159 -1.57557 0.0367827 0
M  V30 9925 C 935.399 -1.93981 -0.644252 0
M  V30 9926 C 935.763 -0.913982 -1.6885 0
M  V30 9927 O 936.964 -1.16468 -2.42257 0
M  V30 9928 C 935.235 -3.35281 -1.23779 0
M  V30 9929 S 936.794 -3.93643 -1.93883 0
M  V30 9930 H 933.612 -0.678683 -0.21192 0
M  V30 9931 H 936.214 -1.95232 0.102281 0
M  V30 9932 H 934.918 -4.07752 -0.465451 0
M  V30 9933 H 934.449 -3.37492 -2.02146 0
M  V30 9934 H 936.464 -3.777 -3.21803 0
M  V30 9935 N 935.637 0.236453 -1.55816 0
M  V30 9936 C 936.584 1.29289 -1.91188 0
M  V30 9937 C 937.554 1.47315 -0.767301 0
M  V30 9938 O 938.739 1.61128 -1.02189 0
M  V30 9939 C 935.879 2.64126 -2.22107 0
M  V30 9940 C 934.992 2.54022 -3.49423 0
M  V30 9941 C 934.127 3.81282 -3.69861 0
M  V30 9942 C 933.166 3.65839 -4.90743 0
M  V30 9943 N 932.303 4.85014 -5.07647 0
M  V30 9944 H 937.143 0.98424 -2.81277 0
M  V30 9945 H 934.68 0.474722 -1.39229 0
M  V30 9946 H 936.638 3.42626 -2.3804 0
M  V30 9947 H 935.268 2.93118 -1.35209 0
M  V30 9948 H 934.32 1.67036 -3.41765 0
M  V30 9949 H 935.632 2.38525 -4.38072 0
M  V30 9950 H 934.786 4.68226 -3.8581 0
M  V30 9951 H 933.525 3.99688 -2.79465 0
M  V30 9952 H 932.53 2.77279 -4.74759 0
M  V30 9953 H 933.755 3.48918 -5.82609 0
M  V30 9954 H 931.701 5.03762 -4.20191 0
M  V30 9955 H 931.618 4.72188 -5.90402 0
M  V30 9956 H 932.886 5.73427 -5.28017 0
M  V30 9957 N 937.115 1.49373 0.502552 0
M  V30 9958 C 938.025 1.68659 1.63068 0
M  V30 9959 C 939.041 0.569182 1.64427 0
M  V30 9960 O 940.217 0.843695 1.82876 0
M  V30 9961 C 937.282 1.74745 2.99441 0
M  V30 9962 C 936.343 2.98311 3.08721 0
M  V30 9963 C 935.576 3.04097 4.38589 0
M  V30 9964 O 935.799 2.17519 5.27297 0
M  V30 9965 O 934.733 3.96544 4.52809 0
M  V30 9966 H 938.559 2.64226 1.49727 0
M  V30 9967 H 936.144 1.33096 0.67867 0
M  V30 9968 H 938.026 1.8111 3.80496 0
M  V30 9969 H 936.701 0.823565 3.13048 0
M  V30 9970 H 935.608 2.97465 2.2686 0
M  V30 9971 H 936.941 3.90174 3.00041 0
M  V30 9972 N 938.594 -0.753485 1.38421 0
M  V30 9973 C 939.557 -1.84888 1.35459 0
M  V30 9974 C 940.557 -1.58764 0.255083 0
M  V30 9975 O 941.747 -1.66507 0.511978 0
M  V30 9976 C 938.879 -3.22361 1.10888 0
M  V30 9977 H 940.072 -1.88922 2.32913 0
M  V30 9978 H 937.625 -0.955199 1.23716 0
M  V30 9979 H 938.36 -3.23996 0.1404 0
M  V30 9980 H 938.145 -3.42717 1.90492 0
M  V30 9981 H 939.635 -4.02437 1.1151 0
M  V30 9982 N 940.072 -1.23292 -0.981677 0
M  V30 9983 C 941.32 -1.06214 -1.71939 0
M  V30 9984 C 941.641 0.401989 -1.90812 0
M  V30 9985 O 940.911 1.28825 -1.47584 0
M  V30 9986 H 939.491 -0.390042 -0.637084 0
M  V30 9987 H 942.153 -1.54988 -1.18173 0
M  V30 9988 H 941.249 -1.54904 -2.70945 0
M  V30 9989 N 941.55 1.18024 -1.04442 0
M  V30 9990 C 942.799 1.8743 -0.745185 0
M  V30 9991 C 943.112 1.81459 0.730206 0
M  V30 9992 O 944.318 2.46263 1.1431 0
M  V30 9993 C 942.774 3.36266 -1.28271 0
M  V30 9994 C 942.382 3.50757 -2.787 0
M  V30 9995 C 944.126 4.11048 -1.06018 0
M  V30 9996 C 942.033 4.93573 -3.25791 0
M  V30 9997 H 940.963 0.702038 -0.27506 0
M  V30 9998 H 943.614 1.33333 -1.26073 0
M  V30 9999 H 941.996 3.89853 -0.695002 0
M  V30 10000 H 943.17 3.07423 -3.43261 0
M  V30 10001 H 941.485 2.89385 -2.99408 0
M  V30 10002 H 944.082 5.16395 -1.38711 0
M  V30 10003 H 944.425 4.163 0.00241716 0
M  V30 10004 H 944.958 3.63644 -1.61269 0
M  V30 10005 H 941.697 4.93491 -4.31447 0
M  V30 10006 H 941.217 5.37607 -2.65968 0
M  V30 10007 H 942.896 5.62307 -3.20031 0
M  V30 10008 N 943.028 0.824394 1.34319 0
M  V30 10009 C 944.444 0.510336 1.51221 0
M  V30 10010 C 944.644 -0.965201 1.76879 0
M  V30 10011 O 943.7 -1.74961 1.82057 0
M  V30 10012 C 945.013 1.37114 2.6762 0
M  V30 10013 C 946.561 1.36842 2.81502 0
M  V30 10014 C 947.036 2.21374 4.00946 0
M  V30 10015 N 948.527 2.19005 4.08156 0
M  V30 10016 C 949.262 2.81159 4.99737 0
M  V30 10017 N 948.758 3.52309 5.96532 0
M  V30 10018 N 950.551 2.70706 4.9262 0
M  V30 10019 H 942.702 1.77976 1.15924 0
M  V30 10020 H 944.965 0.758503 0.568663 0
M  V30 10021 H 944.671 2.41905 2.55294 0
M  V30 10022 H 944.545 1.03689 3.62669 0
M  V30 10023 H 946.932 0.328284 2.93268 0
M  V30 10024 H 947.013 1.74265 1.87257 0
M  V30 10025 H 946.657 3.25437 3.8994 0
M  V30 10026 H 946.587 1.813 4.94407 0
M  V30 10027 H 949.078 1.67252 3.38874 0
M  V30 10028 H 949.391 3.96977 6.63045 0
M  V30 10029 H 947.736 3.56415 5.96652 0
M  V30 10030 H 950.927 2.14694 4.15962 0
M  V30 10031 H 951.1 3.19431 5.63798 0
M  V30 10032 N 944.506 -1.46559 0.579492 0
M  V30 10033 C 945.753 -2.02399 0.0638418 0
M  V30 10034 C 946.081 -1.45135 -1.29484 0
M  V30 10035 O 945.336 -0.605061 -1.86112 0
M  V30 10036 C 945.635 -3.57357 -0.0552803 0
M  V30 10037 C 945.301 -4.33646 1.23539 0
M  V30 10038 C 943.963 -4.54207 1.589 0
M  V30 10039 C 946.315 -4.77476 2.08965 0
M  V30 10040 C 943.643 -5.1585 2.79492 0
M  V30 10041 C 945.995 -5.4045 3.2878 0
M  V30 10042 C 944.659 -5.5924 3.64427 0
M  V30 10043 H 943.929 -0.740632 0.0233614 0
M  V30 10044 H 946.576 -1.75968 0.755482 0
M  V30 10045 H 944.881 -3.82907 -0.83003 0
M  V30 10046 H 946.578 -3.98237 -0.469964 0
M  V30 10047 H 943.168 -4.17937 0.9501 0
M  V30 10048 H 947.352 -4.61349 1.8295 0
M  V30 10049 H 942.608 -5.28589 3.07252 0
M  V30 10050 H 946.782 -5.73371 3.95245 0
M  V30 10051 H 944.409 -6.06775 4.57961 0
M  V30 10052 N 945.984 -0.3171 -1.54377 0
M  V30 10053 C 947.4 0.035766 -1.5956 0
M  V30 10054 C 947.6 1.51038 -1.33378 0
M  V30 10055 O 946.656 2.26546 -1.11505 0
M  V30 10056 C 947.969 -0.376652 -2.98332 0
M  V30 10057 C 949.517 -0.326765 -3.1129 0
M  V30 10058 C 949.992 -0.714247 -4.52396 0
M  V30 10059 N 951.483 -0.667402 -4.58367 0
M  V30 10060 C 952.218 -0.939494 -5.65651 0
M  V30 10061 N 951.714 -1.27839 -6.80903 0
M  V30 10062 N 953.507 -0.865484 -5.55397 0
M  V30 10063 H 945.658 -1.27794 -1.69654 0
M  V30 10064 H 947.921 -0.5192 -0.79318 0
M  V30 10065 H 947.627 -1.40381 -3.22469 0
M  V30 10066 H 947.501 0.261611 -3.76292 0
M  V30 10067 H 949.888 0.69117 -2.86892 0
M  V30 10068 H 949.969 -0.999873 -2.35449 0
M  V30 10069 H 949.613 -1.73007 -4.77526 0
M  V30 10070 H 949.543 -0.0188962 -5.26597 0
M  V30 10071 H 952.034 -0.417062 -3.75592 0
M  V30 10072 H 952.347 -1.47155 -7.5866 0
M  V30 10073 H 950.692 -1.31658 -6.82416 0
M  V30 10074 H 953.883 -0.600265 -4.64235 0
M  V30 10075 H 954.056 -1.0809 -6.38921 0
M  V30 10076 N 947.462 1.57535 -0.0451378 0
M  V30 10077 C 948.708 1.92736 0.630921 0
M  V30 10078 C 949.041 0.923265 1.70849 0
M  V30 10079 O 948.316 -0.0516512 1.94431 0
M  V30 10080 C 948.599 3.38348 1.23259 0
M  V30 10081 C 948.452 4.49503 0.16349 0
M  V30 10082 C 949.771 3.84233 2.14599 0
M  V30 10083 H 946.89 0.700884 0.227883 0
M  V30 10084 H 949.532 1.89706 -0.10567 0
M  V30 10085 H 947.682 3.41061 1.86037 0
M  V30 10086 H 949.354 4.58919 -0.46808 0
M  V30 10087 H 947.597 4.30802 -0.509166 0
M  V30 10088 H 948.268 5.48457 0.624382 0
M  V30 10089 H 950.744 3.83358 1.6179 0
M  V30 10090 H 949.62 4.86781 2.53644 0
M  V30 10091 H 949.881 3.20646 3.04366 0
M  V30 10092 N 948.94 -0.228186 1.55939 0
M  V30 10093 C 950.188 -0.951668 1.78291 0
M  V30 10094 C 950.509 -1.85132 0.612474 0
M  V30 10095 O 949.779 -1.92356 -0.370942 0
M  V30 10096 H 948.359 -0.354388 0.657585 0
M  V30 10097 H 951.021 -0.241635 1.93396 0
M  V30 10098 H 950.117 -1.56239 2.70177 0
M  V30 10099 N 950.418 -1.49637 -0.494624 0
M  V30 10100 C 951.695 -1.4995 -1.25596 0
M  V30 10101 C 952.075 -0.230805 -2.09834 0
M  V30 10102 O 951.423 0.786625 -2.14533 0
M  V30 10103 C 951.633 -2.78204 -2.10721 0
M  V30 10104 C 952.981 -3.27946 -2.69698 0
M  V30 10105 O 954.005 -2.79365 -2.20984 0
M  V30 10106 O 952.864 -4.12571 -3.58395 0
M  V30 10107 H 949.958 -0.60044 -0.568684 0
M  V30 10108 H 952.504 -1.61906 -0.508371 0
M  V30 10109 H 951.276 -3.62029 -1.48494 0
M  V30 10110 H 950.899 -2.69139 -2.92661 0
M  V30 10111 N 951.896 0.746133 -1.38819 0
M  V30 10112 C 953.145 1.50085 -1.34749 0
M  V30 10113 C 953.458 1.95516 0.0574786 0
M  V30 10114 O 954.664 2.70601 0.22073 0
M  V30 10115 C 953.12 2.71141 -2.36665 0
M  V30 10116 C 952.728 2.32706 -3.82821 0
M  V30 10117 C 954.472 3.49005 -2.41652 0
M  V30 10118 C 952.379 3.50418 -4.76405 0
M  V30 10119 H 951.309 0.563563 -0.500912 0
M  V30 10120 H 953.96 0.814951 -1.6441 0
M  V30 10121 H 952.342 3.4175 -2.00058 0
M  V30 10122 H 953.516 1.69715 -4.28408 0
M  V30 10123 H 951.831 1.67959 -3.81023 0
M  V30 10124 H 954.428 4.36541 -3.08766 0
M  V30 10125 H 954.771 3.90687 -1.43769 0
M  V30 10126 H 955.304 2.85416 -2.77097 0
M  V30 10127 H 952.043 3.13795 -5.75511 0
M  V30 10128 H 951.563 4.12426 -4.35505 0
M  V30 10129 H 953.242 4.16901 -4.94775 0
M  V30 10130 N 953.375 1.23811 0.975125 0
M  V30 10131 C 954.624 1.06741 1.71141 0
M  V30 10132 C 954.937 -0.394986 1.9157 0
M  V30 10133 O 956.143 -0.685723 2.62698 0
M  V30 10134 C 954.599 1.86168 3.08009 0
M  V30 10135 C 954.207 3.36771 2.95448 0
M  V30 10136 C 955.951 1.77604 3.85561 0
M  V30 10137 C 953.858 4.0857 4.2758 0
M  V30 10138 H 952.788 0.395819 0.64175 0
M  V30 10139 H 955.439 1.47825 1.0872 0
M  V30 10140 H 953.821 1.37893 3.71216 0
M  V30 10141 H 954.995 3.92571 2.41298 0
M  V30 10142 H 953.31 3.46205 2.31368 0
M  V30 10143 H 955.907 2.28556 4.83391 0
M  V30 10144 H 956.25 0.739837 4.09673 0
M  V30 10145 H 956.783 2.23519 3.29065 0
M  V30 10146 H 953.522 5.12518 4.08663 0
M  V30 10147 H 953.042 3.57556 4.81574 0
M  V30 10148 H 954.721 4.15157 4.9624 0
M  V30 10149 N 954.853 -1.17469 1.05066 0
M  V30 10150 C 955.785 -2.20974 0.608526 0
M  V30 10151 C 956.798 -1.59481 -0.327066 0
M  V30 10152 O 957.987 -1.78096 -0.12 0
M  V30 10153 C 955.087 -3.38652 -0.12969 0
M  V30 10154 C 954.26 -4.29716 0.816285 0
M  V30 10155 C 953.319 -5.26064 0.119556 0
M  V30 10156 O 952.345 -5.64194 0.753241 0
M  V30 10157 N 953.547 -5.69126 -1.14347 0
M  V30 10158 H 956.312 -2.59529 1.49882 0
M  V30 10159 H 953.873 -1.32355 0.932406 0
M  V30 10160 H 955.865 -4.00139 -0.605886 0
M  V30 10161 H 954.435 -2.98705 -0.921638 0
M  V30 10162 H 953.655 -3.6568 1.47213 0
M  V30 10163 H 954.943 -4.87449 1.45845 0
M  V30 10164 H 954.341 -5.4022 -1.67866 0
M  V30 10165 H 952.898 -6.32764 -1.56376 0
M  V30 10166 N 956.331 -0.831506 -1.3388 0
M  V30 10167 C 957.58 -0.420028 -1.97278 0
M  V30 10168 C 957.893 1.02441 -1.66629 0
M  V30 10169 O 959.099 1.54021 -2.23584 0
M  V30 10170 C 957.555 -0.700116 -3.53025 0
M  V30 10171 C 957.163 -2.15874 -3.92559 0
M  V30 10172 C 958.907 -0.355226 -4.23011 0
M  V30 10173 C 956.814 -2.38327 -5.41252 0
M  V30 10174 H 955.744 -0.153326 -0.738246 0
M  V30 10175 H 958.395 -1.01906 -1.52602 0
M  V30 10176 H 956.777 -0.0308044 -3.95988 0
M  V30 10177 H 957.951 -2.86792 -3.60675 0
M  V30 10178 H 956.266 -2.4659 -3.35533 0
M  V30 10179 H 958.863 -0.500701 -5.32351 0
M  V30 10180 H 959.206 0.70111 -4.10354 0
M  V30 10181 H 959.739 -0.979466 -3.85553 0
M  V30 10182 H 956.478 -3.42498 -5.58906 0
M  V30 10183 H 955.998 -1.71962 -5.74621 0
M  V30 10184 H 957.677 -2.21113 -6.08045 0
M  V30 10185 N 957.809 1.4625 -0.587256 0
M  V30 10186 C 959.058 2.01571 -0.0722643 0
M  V30 10187 C 959.371 1.46385 1.29733 0
M  V30 10188 O 960.577 1.93554 1.90392 0
M  V30 10189 C 959.033 3.59814 -0.078579 0
M  V30 10190 C 958.641 4.23996 -1.44678 0
M  V30 10191 C 960.385 4.22776 0.382231 0
M  V30 10192 C 958.292 5.74332 -1.41057 0
M  V30 10193 H 957.222 0.753642 -0.0232461 0
M  V30 10194 H 959.873 1.67936 -0.739577 0
M  V30 10195 H 958.255 3.90546 0.654988 0
M  V30 10196 H 959.429 4.04867 -2.20043 0
M  V30 10197 H 957.744 3.73147 -1.84799 0
M  V30 10198 H 960.341 5.32983 0.428182 0
M  V30 10199 H 960.684 3.92027 1.40072 0
M  V30 10200 H 961.217 3.96687 -0.297417 0
M  V30 10201 H 957.956 6.09747 -2.40601 0
M  V30 10202 H 957.476 5.95711 -0.699185 0
M  V30 10203 H 959.155 6.37137 -1.12543 0
M  V30 10204 N 959.287 0.325282 1.54207 0
M  V30 10205 C 960.512 -0.281418 2.05482 0
M  V30 10206 C 960.937 -1.44869 1.19977 0
M  V30 10207 O 960.295 -1.80088 0.209275 0
M  V30 10208 C 960.343 -0.692029 3.53897 0
M  V30 10209 O 959.447 -1.7942 3.71325 0
M  V30 10210 H 958.788 -0.0504872 0.662078 0
M  V30 10211 H 961.318 0.474191 1.99029 0
M  V30 10212 H 961.328 -0.974219 3.96198 0
M  V30 10213 H 960.003 0.161709 4.15586 0
M  V30 10214 H 958.58 -1.51069 3.40929 0
M  V30 10215 N 960.765 -1.57509 0.0534917 0
M  V30 10216 C 961.712 -2.11667 -0.920101 0
M  V30 10217 C 962.682 -1.0246 -1.30733 0
M  V30 10218 O 963.867 -1.30021 -1.39639 0
M  V30 10219 C 961.007 -2.66803 -2.18883 0
M  V30 10220 C 960.12 -3.90104 -1.85588 0
M  V30 10221 C 959.255 -4.33547 -3.06937 0
M  V30 10222 C 958.294 -5.49542 -2.69573 0
M  V30 10223 N 957.431 -5.88029 -3.83623 0
M  V30 10224 H 962.271 -2.94562 -0.451371 0
M  V30 10225 H 959.808 -1.45576 -0.211168 0
M  V30 10226 H 961.766 -2.96871 -2.93127 0
M  V30 10227 H 960.396 -1.86702 -2.63329 0
M  V30 10228 H 959.448 -3.66613 -1.01484 0
M  V30 10229 H 960.76 -4.74404 -1.54087 0
M  V30 10230 H 959.914 -4.6518 -3.89477 0
M  V30 10231 H 958.653 -3.48064 -3.41618 0
M  V30 10232 H 957.658 -5.17579 -1.8545 0
M  V30 10233 H 958.883 -6.36743 -2.36082 0
M  V30 10234 H 956.829 -5.05498 -4.181 0
M  V30 10235 H 956.746 -6.67025 -3.55828 0
M  V30 10236 H 958.014 -6.24277 -4.66796 0
M  V30 10237 N 962.243 0.219913 -1.56058 0
M  V30 10238 C 963.52 0.968493 -1.6994 0
M  V30 10239 C 963.9 2.02358 -0.601219 0
M  V30 10240 O 963.248 2.25121 0.391534 0
M  V30 10241 C 963.458 1.57745 -3.11316 0
M  V30 10242 C 964.806 2.06908 -3.70775 0
M  V30 10243 O 965.83 1.67636 -3.14288 0
M  V30 10244 O 964.689 2.79096 -4.69859 0
M  V30 10245 H 961.783 0.452521 -0.692209 0
M  V30 10246 H 964.329 0.211566 -1.68376 0
M  V30 10247 H 963.101 0.815687 -3.82704 0
M  V30 10248 H 962.724 2.39987 -3.17005 0
M  V30 10249 N 963.721 1.49897 0.486681 0
M  V30 10250 C 964.998 1.50614 1.24799 0
M  V30 10251 C 965.378 0.24193 2.09709 0
M  V30 10252 O 964.726 -0.775237 2.14947 0
M  V30 10253 C 964.936 2.79318 2.09243 0
M  V30 10254 C 966.284 3.29371 2.67955 0
M  V30 10255 O 967.308 2.80533 2.19499 0
M  V30 10256 O 966.167 4.14466 3.56202 0
M  V30 10257 H 963.261 0.603447 0.565491 0
M  V30 10258 H 965.807 1.62174 0.499778 0
M  V30 10259 H 964.579 3.62812 1.46572 0
M  V30 10260 H 964.202 2.70687 2.91229 0
M  V30 10261 N 965.199 -0.738761 1.39212 0
M  V30 10262 C 966.149 -1.84376 1.34125 0
M  V30 10263 C 967.133 -1.5935 0.222793 0
M  V30 10264 O 968.325 -1.70918 0.460014 0
M  V30 10265 C 965.454 -3.22261 1.18334 0
M  V30 10266 C 964.54 -3.53129 2.34864 0
M  V30 10267 N 964.931 -3.54957 3.60332 0
M  V30 10268 C 963.229 -3.83472 2.27739 0
M  V30 10269 C 963.93 -3.83513 4.3737 0
M  V30 10270 N 962.906 -4.01097 3.66909 0
M  V30 10271 H 966.708 -1.84089 2.29104 0
M  V30 10272 H 964.222 -0.936826 1.32655 0
M  V30 10273 H 966.219 -4.01358 1.12772 0
M  V30 10274 H 964.879 -3.23789 0.243016 0
M  V30 10275 H 965.89 -3.36359 3.93806 0
M  V30 10276 H 962.567 -3.92628 1.41949 0
M  V30 10277 H 963.957 -3.91427 5.46109 0
M  V30 10278 N 966.677 -1.24326 -0.968545 0
M  V30 10279 C 967.625 -1.03256 -2.08425 0
M  V30 10280 C 968.619 0.0322356 -1.69369 0
M  V30 10281 O 969.825 -0.122251 -1.79584 0
M  V30 10282 H 966.2 -0.31688 -0.681976 0
M  V30 10283 H 968.171 -1.97873 -2.23358 0
M  V30 10284 C 966.92 -0.653144 -3.4151 0
M  V30 10285 H 966.243 -1.46424 -3.72021 0
M  V30 10286 H 967.683 -0.545316 -4.20479 0
M  V30 10287 C 966.142 0.639674 -3.30771 0
M  V30 10288 O 966.672 1.68563 -3.64622 0
M  V30 10289 N 964.878 0.620074 -2.83907 0
M  V30 10290 H 964.425 -0.231449 -2.56558 0
M  V30 10291 H 964.383 1.48528 -2.77104 0
M  V30 10292 N 968.156 1.1691 -1.05688 0
M  V30 10293 C 969.402 1.87814 -0.780871 0
M  V30 10294 C 969.757 1.79796 0.684926 0
M  V30 10295 O 969.05 1.19853 1.49485 0
M  V30 10296 C 969.244 3.36578 -1.20207 0
M  V30 10297 C 969.073 3.59078 -2.70727 0
M  V30 10298 C 967.843 3.75515 -3.38107 0
M  V30 10299 C 970.041 3.58307 -3.68946 0
M  V30 10300 N 968.023 3.85906 -4.77441 0
M  V30 10301 C 969.394 3.74608 -4.94033 0
M  V30 10302 C 971.449 3.41484 -3.62343 0
M  V30 10303 C 970.152 3.75828 -6.13307 0
M  V30 10304 C 972.178 3.43995 -4.81063 0
M  V30 10305 C 971.54 3.60809 -6.04976 0
M  V30 10306 H 967.639 0.705158 -0.338047 0
M  V30 10307 H 970.223 1.40315 -1.34981 0
M  V30 10308 H 968.394 3.82734 -0.661031 0
M  V30 10309 H 970.126 3.95119 -0.875377 0
M  V30 10310 H 966.881 3.7558 -2.88508 0
M  V30 10311 H 967.305 3.94886 -5.49904 0
M  V30 10312 H 971.947 3.27417 -2.67503 0
M  V30 10313 H 969.665 3.88679 -7.08487 0
M  V30 10314 H 973.251 3.3223 -4.77613 0
M  V30 10315 H 972.131 3.62663 -6.95302 0
M  V30 10316 N 969.634 0.838594 1.33437 0
M  V30 10317 C 970.88 0.444042 1.98494 0
M  V30 10318 C 971.235 -0.985759 1.65229 0
M  V30 10319 O 970.528 -1.67972 0.921736 0
M  V30 10320 C 970.722 0.601425 3.52303 0
M  V30 10321 C 970.551 2.04497 4.00513 0
M  V30 10322 C 969.321 2.68015 4.28364 0
M  V30 10323 C 971.519 3.01367 4.16752 0
M  V30 10324 N 969.501 4.03448 4.62713 0
M  V30 10325 C 970.872 4.21745 4.54457 0
M  V30 10326 C 972.927 2.97776 3.99041 0
M  V30 10327 C 971.63 5.39009 4.76301 0
M  V30 10328 C 973.656 4.14269 4.22061 0
M  V30 10329 C 973.018 5.33402 4.60067 0
M  V30 10330 H 969.117 0.210906 0.753022 0
M  V30 10331 H 971.701 1.0866 1.61558 0
M  V30 10332 H 969.872 -0.0113326 3.88398 0
M  V30 10333 H 971.604 0.178343 4.04307 0
M  V30 10334 H 968.359 2.19153 4.19844 0
M  V30 10335 H 968.783 4.73264 4.84098 0
M  V30 10336 H 973.425 2.06801 3.68773 0
M  V30 10337 H 971.143 6.30529 5.0543 0
M  V30 10338 H 974.729 4.12908 4.09876 0
M  V30 10339 H 973.609 6.22045 4.77525 0
M  V30 10340 N 971.112 -1.45937 0.595003 0
M  V30 10341 C 972.044 -2.28575 -0.169137 0
M  V30 10342 C 973.057 -1.39226 -0.843792 0
M  V30 10343 O 974.246 -1.63716 -0.711291 0
M  V30 10344 C 971.346 -3.14616 -1.25976 0
M  V30 10345 C 970.519 -4.32166 -0.67466 0
M  V30 10346 C 969.578 -4.99511 -1.65456 0
M  V30 10347 O 968.604 -5.56712 -1.18578 0
M  V30 10348 N 969.806 -4.97643 -2.98885 0
M  V30 10349 H 972.571 -2.94797 0.539908 0
M  V30 10350 H 970.132 -1.55985 0.433614 0
M  V30 10351 H 972.124 -3.56534 -1.91483 0
M  V30 10352 H 970.694 -2.50387 -1.8715 0
M  V30 10353 H 969.914 -3.93882 0.158184 0
M  V30 10354 H 971.202 -5.08116 -0.263753 0
M  V30 10355 H 970.6 -4.52438 -3.39583 0
M  V30 10356 H 969.157 -5.43463 -3.59848 0
M  V30 10357 N 972.59 -0.333456 -1.54032 0
M  V30 10358 C 973.838 0.265608 -2.00347 0
M  V30 10359 C 974.159 1.51873 -1.2231 0
M  V30 10360 O 973.429 1.93142 -0.327549 0
M  V30 10361 H 972.009 0.101135 -0.740122 0
M  V30 10362 H 974.671 -0.452285 -1.8958 0
M  V30 10363 H 973.767 0.51511 -3.0782 0
M  V30 10364 N 974.068 1.57479 -0.061844 0
M  V30 10365 C 975.015 2.12152 0.908862 0
M  V30 10366 C 975.985 1.03152 1.30188 0
M  V30 10367 O 977.17 1.3076 1.38948 0
M  V30 10368 C 974.31 2.6796 2.17465 0
M  V30 10369 C 973.423 3.91083 1.83517 0
M  V30 10370 C 972.558 4.35169 3.04633 0
M  V30 10371 C 971.597 5.50964 2.66655 0
M  V30 10372 N 970.734 5.90055 3.80499 0
M  V30 10373 H 975.574 2.94797 0.435743 0
M  V30 10374 H 973.111 1.45686 0.203445 0
M  V30 10375 H 975.069 2.98421 2.91548 0
M  V30 10376 H 973.699 1.88096 2.62335 0
M  V30 10377 H 972.751 3.67146 0.995381 0
M  V30 10378 H 974.063 4.75214 1.51569 0
M  V30 10379 H 973.217 4.67239 3.87005 0
M  V30 10380 H 971.956 3.49871 3.39767 0
M  V30 10381 H 970.961 5.18556 1.82703 0
M  V30 10382 H 972.186 6.37986 2.32702 0
M  V30 10383 H 970.132 5.07708 4.15414 0
M  V30 10384 H 970.049 6.68903 3.52285 0
M  V30 10385 H 971.317 6.26744 4.63479 0
M  V30 10386 N 975.546 -0.211634 1.56173 0
M  V30 10387 C 976.476 -1.26533 1.96244 0
M  V30 10388 C 977.457 -1.48362 0.832028 0
M  V30 10389 O 978.642 -1.60378 1.0951 0
M  V30 10390 C 975.772 -2.61307 2.2877 0
M  V30 10391 C 974.726 -2.54119 3.44395 0
M  V30 10392 C 974.052 -3.93014 3.62552 0
M  V30 10393 C 975.352 -2.08046 4.79076 0
M  V30 10394 H 977.046 -0.932407 2.84511 0
M  V30 10395 H 974.592 -0.447084 1.36884 0
M  V30 10396 H 976.545 -3.35188 2.55396 0
M  V30 10397 H 975.269 -2.96307 1.37367 0
M  V30 10398 H 973.928 -1.82694 3.17834 0
M  V30 10399 H 973.576 -4.25338 2.68508 0
M  V30 10400 H 973.276 -3.89083 4.40327 0
M  V30 10401 H 974.8 -4.68542 3.91537 0
M  V30 10402 H 976.214 -2.71676 5.04842 0
M  V30 10403 H 974.611 -2.15154 5.60204 0
M  V30 10404 H 975.681 -1.03306 4.73768 0
M  V30 10405 N 977.024 -1.50153 -0.478725 0
M  V30 10406 C 977.934 -1.71232 -1.60364 0
M  V30 10407 C 978.95 -0.595269 -1.63501 0
M  V30 10408 O 980.126 -0.872683 -1.81511 0
M  V30 10409 C 977.191 -1.79487 -2.96623 0
M  V30 10410 C 976.252 -3.03185 -3.03937 0
M  V30 10411 C 975.485 -3.11036 -4.33696 0
M  V30 10412 O 975.708 -2.2588 -5.23769 0
M  V30 10413 O 974.642 -4.03698 -4.46443 0
M  V30 10414 H 978.468 -2.66575 -1.45505 0
M  V30 10415 H 976.053 -1.34158 -0.65741 0
M  V30 10416 H 977.935 -1.8714 -3.77567 0
M  V30 10417 H 976.61 -0.873264 -3.11698 0
M  V30 10418 H 975.517 -3.01036 -2.22099 0
M  V30 10419 H 976.85 -3.94898 -2.93796 0
M  V30 10420 N 978.502 0.731368 -1.39602 0
M  V30 10421 C 979.45 1.86676 -1.38761 0
M  V30 10422 C 980.444 1.6723 -0.270247 0
M  V30 10423 O 981.65 1.74528 -0.440471 0
M  V30 10424 H 978.025 0.614553 -0.433391 0
M  V30 10425 H 979.996 1.84501 -2.34525 0
M  V30 10426 C 978.745 3.24394 -1.25155 0
M  V30 10427 H 978.068 3.39955 -2.10406 0
M  V30 10428 H 979.508 4.04019 -1.28625 0
M  V30 10429 C 977.967 3.36877 0.0396976 0
M  V30 10430 O 978.497 3.88833 1.00854 0
M  V30 10431 N 976.703 2.90414 0.103965 0
M  V30 10432 H 976.25 2.48321 -0.685155 0
M  V30 10433 H 976.208 2.99146 0.967435 0
M  V30 10434 N 979.98 1.24838 0.961938 0
M  V30 10435 C 981.205 1.11967 1.7458 0
M  V30 10436 C 981.63 -0.323287 1.85301 0
M  V30 10437 O 980.988 -1.23412 1.32812 0
M  V30 10438 C 981.036 1.77066 3.14134 0
M  V30 10439 O 980.14 1.04534 3.98932 0
M  V30 10440 H 979.481 0.391338 0.536424 0
M  V30 10441 H 982.011 1.65259 1.20626 0
M  V30 10442 H 982.021 1.83056 3.64629 0
M  V30 10443 H 980.696 2.82052 3.05646 0
M  V30 10444 H 979.273 1.06372 3.57407 0
M  V30 10445 N 981.458 -1.16348 1.06306 0
M  V30 10446 C 982.405 -2.20741 0.673962 0
M  V30 10447 C 983.375 -1.628 -0.329454 0
M  V30 10448 O 984.56 -1.89547 -0.218313 0
M  V30 10449 C 981.7 -3.45036 0.0667008 0
M  V30 10450 C 980.813 -4.17221 1.12031 0
M  V30 10451 C 979.948 -5.29034 0.479176 0
M  V30 10452 C 978.987 -5.93021 1.51631 0
M  V30 10453 N 978.124 -6.96327 0.898528 0
M  V30 10454 H 982.964 -2.53376 1.56859 0
M  V30 10455 H 980.501 -1.24449 0.784276 0
M  V30 10456 H 982.459 -4.16099 -0.302916 0
M  V30 10457 H 981.089 -3.1295 -0.791333 0
M  V30 10458 H 980.141 -3.4476 1.60763 0
M  V30 10459 H 981.453 -4.60902 1.90712 0
M  V30 10460 H 980.607 -6.06674 0.0565993 0
M  V30 10461 H 979.346 -4.86517 -0.33951 0
M  V30 10462 H 978.351 -5.14104 1.94878 0
M  V30 10463 H 979.576 -6.37618 2.3371 0
M  V30 10464 H 977.522 -6.55923 0.100555 0
M  V30 10465 H 977.439 -7.38379 1.62272 0
M  V30 10466 H 978.707 -7.77888 0.5011 0
M  V30 10467 N 982.937 -0.845659 -1.3299 0
M  V30 10468 C 983.885 -0.272412 -2.30999 0
M  V30 10469 C 984.879 0.599311 -1.58444 0
M  V30 10470 O 986.085 0.488117 -1.73255 0
M  V30 10471 H 982.46 -0.0693751 -0.748793 0
M  V30 10472 H 984.431 -1.11343 -2.76849 0
M  V30 10473 C 983.18 0.532019 -3.43606 0
M  V30 10474 H 982.503 -0.129455 -3.9959 0
M  V30 10475 H 983.943 0.898853 -4.14363 0
M  V30 10476 C 982.402 1.71364 -2.90062 0
M  V30 10477 O 982.932 2.81252 -2.8681 0
M  V30 10478 N 981.138 1.53775 -2.4658 0
M  V30 10479 H 980.685 0.643836 -2.49424 0
M  V30 10480 H 980.643 2.32982 -2.11108 0
M  V30 10481 N 984.415 1.45619 -0.602734 0
M  V30 10482 C 985.663 2.01873 -0.095844 0
M  V30 10483 C 985.984 1.47427 1.27633 0
M  V30 10484 O 985.254 0.666652 1.84208 0
M  V30 10485 H 983.834 0.746295 -0.0324408 0
M  V30 10486 H 986.496 1.78478 -0.783037 0
M  V30 10487 H 985.592 3.12072 -0.0419507 0
M  V30 10488 N 985.893 0.34162 1.53853 0
M  V30 10489 C 987.121 -0.256929 2.05299 0
M  V30 10490 C 987.536 -1.44366 1.21671 0
M  V30 10491 O 986.893 -1.80758 0.251584 0
M  V30 10492 C 986.944 -0.673854 3.55164 0
M  V30 10493 O 986.665 0.465687 4.35618 0
M  V30 10494 C 988.166 -1.33332 4.22773 0
M  V30 10495 H 985.386 -0.0499445 0.669139 0
M  V30 10496 H 987.93 0.493048 1.98467 0
M  V30 10497 H 986.085 -1.37378 3.62224 0
M  V30 10498 H 986.499 0.133723 5.2433 0
M  V30 10499 H 987.973 -1.57582 5.29029 0
M  V30 10500 H 988.45 -2.28628 3.75001 0
M  V30 10501 H 989.056 -0.675489 4.19901 0
M  V30 10502 N 987.371 -1.57444 0.0701946 0
M  V30 10503 C 988.334 -2.11511 -0.882923 0
M  V30 10504 C 989.334 -1.03879 -1.22743 0
M  V30 10505 O 990.524 -1.29874 -1.16097 0
M  V30 10506 C 987.656 -2.61514 -2.18686 0
M  V30 10507 H 988.849 -2.9703 -0.413873 0
M  V30 10508 H 986.402 -1.55278 -0.178488 0
M  V30 10509 H 987.137 -1.79443 -2.70131 0
M  V30 10510 H 986.922 -3.40185 -1.94978 0
M  V30 10511 H 988.412 -3.03425 -2.86919 0
M  V30 10512 N 988.849 0.203349 -1.56283 0
M  V30 10513 C 990.097 0.923183 -1.79782 0
M  V30 10514 C 990.418 1.84134 -0.64185 0
M  V30 10515 O 989.688 1.92922 0.340292 0
M  V30 10516 H 988.268 0.343881 -0.66314 0
M  V30 10517 H 990.93 0.210837 -1.93756 0
M  V30 10518 H 990.026 1.51921 -2.72629 0
M  V30 10519 N 990.327 1.50405 0.470755 0
M  V30 10520 C 991.257 1.72222 1.57676 0
M  V30 10521 C 992.238 0.57121 1.60222 0
M  V30 10522 O 993.423 0.810381 1.76484 0
M  V30 10523 C 990.553 1.81666 2.95998 0
M  V30 10524 C 989.507 2.96857 3.08318 0
M  V30 10525 C 988.833 2.91445 4.4829 0
M  V30 10526 C 990.133 4.37361 2.85504 0
M  V30 10527 H 991.827 2.64825 1.39671 0
M  V30 10528 H 989.373 1.27438 0.67049 0
M  V30 10529 H 991.326 1.95514 3.73299 0
M  V30 10530 H 990.05 0.856856 3.1516 0
M  V30 10531 H 988.709 2.82661 2.33449 0
M  V30 10532 H 988.357 1.93309 4.64371 0
M  V30 10533 H 988.057 3.68776 4.57469 0
M  V30 10534 H 989.581 3.07341 5.27611 0
M  V30 10535 H 990.995 4.52081 3.52555 0
M  V30 10536 H 989.392 5.16145 3.06127 0
M  V30 10537 H 990.462 4.49708 1.81359 0
M  V30 10538 N 991.805 -0.723954 1.39988 0
M  V30 10539 C 993.054 -1.47922 1.3712 0
M  V30 10540 C 993.367 -1.95582 -0.0263665 0
M  V30 10541 O 994.573 -2.70918 -0.177652 0
M  V30 10542 C 993.029 -2.67342 2.40949 0
M  V30 10543 C 992.637 -2.26586 3.86475 0
M  V30 10544 C 994.381 -3.45116 2.47174 0
M  V30 10545 C 992.288 -3.42794 4.81919 0
M  V30 10546 H 991.218 -0.555522 0.509815 0
M  V30 10547 H 993.869 -0.788692 1.65686 0
M  V30 10548 H 992.251 -3.38524 2.0547 0
M  V30 10549 H 993.425 -1.62878 4.31054 0
M  V30 10550 H 991.74 -1.61876 3.83647 0
M  V30 10551 H 994.337 -4.31573 3.15672 0
M  V30 10552 H 994.68 -3.8835 1.49966 0
M  V30 10553 H 995.213 -2.80971 2.81602 0
M  V30 10554 H 991.952 -3.046 5.8043 0
M  V30 10555 H 991.472 -4.05445 4.42012 0
M  V30 10556 H 993.151 -4.08977 5.01345 0
M  V30 10557 N 993.283 -1.25346 -0.955304 0
M  V30 10558 C 994.694 -1.09173 -1.51453 0
M  V30 10559 C 995.045 0.332755 -1.93358 0
M  V30 10560 O 994.17 1.22264 -1.78551 0
M  V30 10561 C 994.765 -1.97564 -2.75234 0
M  V30 10562 C 993.324 -1.85579 -3.27471 0
M  V30 10563 C 992.471 -1.91755 -2.00313 0
M  V30 10564 H 995.422 -1.38642 -0.772271 0
M  V30 10565 H 995.443 -1.51523 -3.49029 0
M  V30 10566 H 994.955 -3.01233 -2.44704 0
M  V30 10567 H 993.056 -0.847906 -3.62824 0
M  V30 10568 H 993.169 -2.70353 -3.95533 0
M  V30 10569 H 991.533 -1.35633 -2.15582 0
M  V30 10570 H 992.316 -2.97028 -1.72132 0
M  V30 10571 N 994.761 1.15782 -1.06922 0
M  V30 10572 C 995.986 1.90896 -0.810771 0
M  V30 10573 C 996.411 1.77246 0.629714 0
M  V30 10574 O 995.769 1.10215 1.43953 0
M  V30 10575 C 995.817 3.39397 -1.21829 0
M  V30 10576 O 994.921 4.10818 -0.360934 0
M  V30 10577 H 994.262 0.594497 -0.295752 0
M  V30 10578 H 996.792 1.46652 -1.42669 0
M  V30 10579 H 996.802 3.90181 -1.19259 0
M  V30 10580 H 995.477 3.4865 -2.2675 0
M  V30 10581 H 994.054 3.7019 -0.448748 0
M  V30 10582 N 996.239 0.8527 1.3254 0
M  V30 10583 C 997.65 0.510012 1.79599 0
M  V30 10584 C 998.001 -0.972002 1.70431 0
M  V30 10585 O 997.126 -1.7581 1.26173 0
M  V30 10586 C 997.721 0.918986 3.26098 0
M  V30 10587 C 996.28 0.628227 3.7112 0
M  V30 10588 C 995.427 1.11979 2.53685 0
M  V30 10589 H 998.378 1.04009 1.19866 0
M  V30 10590 H 998.399 0.234577 3.79776 0
M  V30 10591 H 997.911 1.99765 3.32739 0
M  V30 10592 H 996.012 -0.4398 3.69995 0
M  V30 10593 H 996.125 1.19315 4.64005 0
M  V30 10594 H 994.489 0.540133 2.48907 0
M  V30 10595 H 995.272 2.20552 2.63081 0
M  V30 10596 N 997.718 -1.45297 0.610449 0
M  V30 10597 C 998.628 -2.34349 -0.108475 0
M  V30 10598 C 999.644 -1.51409 -0.857397 0
M  V30 10599 O 1000.82 -1.84202 -0.814337 0
M  V30 10600 C 997.885 -3.29072 -1.09144 0
M  V30 10601 C 996.946 -4.27918 -0.344165 0
M  V30 10602 C 996.179 -5.18116 -1.28031 0
M  V30 10603 O 996.402 -5.11802 -2.51824 0
M  V30 10604 O 995.336 -5.96879 -0.775821 0
M  V30 10605 H 999.162 -2.97232 0.623421 0
M  V30 10606 H 996.747 -1.44728 0.3707 0
M  V30 10607 H 998.629 -3.87433 -1.65751 0
M  V30 10608 H 997.304 -2.68749 -1.80431 0
M  V30 10609 H 996.211 -3.73164 0.264437 0
M  V30 10610 H 997.544 -4.91104 0.328275 0
M  V30 10611 N 999.196 -0.349774 -1.5367 0
M  V30 10612 C 1000.13 0.496338 -2.28164 0
M  V30 10613 C 1001.11 1.09737 -1.29968 0
M  V30 10614 O 1002.29 1.11759 -1.58819 0
M  V30 10615 C 999.422 1.64428 -3.0591 0
M  V30 10616 C 998.376 1.17127 -4.11661 0
M  V30 10617 C 997.702 2.40822 -4.77398 0
M  V30 10618 C 999.002 0.267293 -5.21616 0
M  V30 10619 H 1000.7 -0.125117 -2.99138 0
M  V30 10620 H 998.242 -0.0616152 -1.43868 0
M  V30 10621 H 1000.19 2.2427 -3.56765 0
M  V30 10622 H 998.919 2.29272 -2.32598 0
M  V30 10623 H 997.578 0.595634 -3.61729 0
M  V30 10624 H 997.226 3.04088 -4.00674 0
M  V30 10625 H 996.926 2.09852 -5.48849 0
M  V30 10626 H 998.45 3.01378 -5.3104 0
M  V30 10627 H 999.864 0.772734 -5.68068 0
M  V30 10628 H 998.261 0.0491991 -6.0008 0
M  V30 10629 H 999.331 -0.694892 -4.79895 0
M  V30 10630 N 1000.67 1.57404 -0.0785433 0
M  V30 10631 C 1001.61 2.101 0.916013 0
M  V30 10632 C 1002.62 1.03459 1.25698 0
M  V30 10633 O 1003.81 1.30954 1.21299 0
M  V30 10634 C 1000.91 2.55202 2.22992 0
M  V30 10635 C 1000.08 3.85491 2.06678 0
M  V30 10636 C 999.14 4.16614 3.21433 0
M  V30 10637 O 998.166 4.86105 2.96126 0
M  V30 10638 N 999.368 3.70697 4.46726 0
M  V30 10639 H 1002.13 2.96054 0.466059 0
M  V30 10640 H 999.694 1.61546 0.107006 0
M  V30 10641 H 1001.69 2.7308 2.9868 0
M  V30 10642 H 1000.26 1.74348 2.59464 0
M  V30 10643 H 999.476 3.76925 1.15417 0
M  V30 10644 H 1000.76 4.70759 1.93036 0
M  V30 10645 H 1000.16 3.14571 4.70172 0
M  V30 10646 H 998.719 3.93762 5.19418 0
M  V30 10647 N 1002.15 -0.195058 1.56388 0
M  V30 10648 C 1003.06 -1.26219 1.97752 0
M  V30 10649 C 1004.08 -1.49801 0.885192 0
M  V30 10650 O 1005.25 -1.62415 1.19094 0
M  V30 10651 C 1002.32 -2.5865 2.3087 0
M  V30 10652 C 1001.38 -2.4314 3.5381 0
M  V30 10653 C 1000.61 -3.69255 3.85339 0
M  V30 10654 O 1000.84 -4.73425 3.18159 0
M  V30 10655 O 999.77 -3.64782 4.78767 0
M  V30 10656 H 1003.6 -0.941161 2.88749 0
M  V30 10657 H 1001.18 -0.40006 1.43944 0
M  V30 10658 H 1003.06 -3.36814 2.53247 0
M  V30 10659 H 1001.74 -2.9038 1.43042 0
M  V30 10660 H 1000.64 -1.63086 3.3668 0
M  V30 10661 H 1001.98 -2.16341 4.42105 0
M  V30 10662 N 1003.63 -1.50653 -0.462772 0
M  V30 10663 C 1004.88 -1.63264 -1.21311 0
M  V30 10664 C 1005.23 -0.332647 -1.89503 0
M  V30 10665 O 1004.52 0.669994 -1.79504 0
M  V30 10666 C 1004.72 -2.75637 -2.27507 0
M  V30 10667 C 1004.55 -4.16438 -1.69734 0
M  V30 10668 C 1003.32 -4.82727 -1.49341 0
M  V30 10669 C 1005.51 -5.00399 -1.18765 0
M  V30 10670 N 1003.5 -6.07718 -0.868991 0
M  V30 10671 C 1004.87 -6.16182 -0.68697 0
M  V30 10672 C 1006.92 -4.86112 -1.07699 0
M  V30 10673 C 1005.63 -7.19248 -0.0865268 0
M  V30 10674 C 1007.65 -5.89363 -0.490473 0
M  V30 10675 C 1007.01 -7.044 -0.000208479 0
M  V30 10676 H 1003.11 -0.651518 -0.432491 0
M  V30 10677 H 1005.7 -1.878 -0.51375 0
M  V30 10678 H 1003.87 -2.52809 -2.9486 0
M  V30 10679 H 1005.6 -2.77562 -2.94519 0
M  V30 10680 H 1002.35 -4.40161 -1.74801 0
M  V30 10681 H 1002.78 -6.74554 -0.574957 0
M  V30 10682 H 1007.42 -3.97452 -1.44194 0
M  V30 10683 H 1005.14 -8.07577 0.290614 0
M  V30 10684 H 1008.72 -5.80374 -0.407099 0
M  V30 10685 H 1007.6 -7.82928 0.44652 0
M  V30 10686 N 1005.11 0.71652 -1.4037 0
M  V30 10687 C 1006.52 1.02447 -1.22379 0
M  V30 10688 C 1006.72 2.0126 -0.0983394 0
M  V30 10689 O 1005.78 2.46569 0.544071 0
M  V30 10690 C 1007.09 1.56909 -2.56515 0
M  V30 10691 C 1008.64 1.68898 -2.6352 0
M  V30 10692 C 1009.12 2.26765 -3.97922 0
M  V30 10693 N 1010.61 2.34152 -3.99658 0
M  V30 10694 C 1011.34 2.79907 -5.00439 0
M  V30 10695 N 1010.84 3.25422 -6.11615 0
M  V30 10696 N 1012.63 2.79283 -4.87809 0
M  V30 10697 H 1004.78 0.0615306 -2.12311 0
M  V30 10698 H 1007.05 0.0898994 -0.943728 0
M  V30 10699 H 1006.75 0.917649 -3.39517 0
M  V30 10700 H 1006.63 2.55446 -2.77538 0
M  V30 10701 H 1009.01 2.33159 -1.8089 0
M  V30 10702 H 1009.09 0.689626 -2.46329 0
M  V30 10703 H 1008.74 1.63126 -4.80991 0
M  V30 10704 H 1008.67 3.27413 -4.12442 0
M  V30 10705 H 1011.16 2.02006 -3.19378 0
M  V30 10706 H 1011.47 3.58899 -6.84406 0
M  V30 10707 H 1009.82 3.23383 -6.15181 0
M  V30 10708 H 1013.01 2.43061 -4.00049 0
M  V30 10709 H 1013.18 3.14626 -5.66493 0
M  V30 10710 N 1006.59 1.25851 0.948643 0
M  V30 10711 C 1007.83 1.11119 1.69648 0
M  V30 10712 C 1008.17 -0.345995 1.91093 0
M  V30 10713 O 1007.44 -1.25467 1.48621 0
M  V30 10714 C 1007.72 1.87261 3.0758 0
M  V30 10715 C 1007.58 3.40842 2.93507 0
M  V30 10716 C 1008.9 1.6605 4.07573 0
M  V30 10717 H 1006.01 0.405052 0.615713 0
M  V30 10718 H 1008.66 1.54756 1.10229 0
M  V30 10719 H 1006.81 1.50172 3.58303 0
M  V30 10720 H 1008.48 3.87641 2.50064 0
M  V30 10721 H 1006.72 3.68248 2.29294 0
M  V30 10722 H 1007.39 3.89339 3.91305 0
M  V30 10723 H 1009.87 1.98348 3.65783 0
M  V30 10724 H 1008.74 2.21753 5.02113 0
M  V30 10725 H 1009.01 0.603256 4.37965 0
M  V30 10726 N 1008.06 -1.15214 1.07534 0
M  V30 10727 C 1009.03 -2.18209 0.701237 0
M  V30 10728 C 1010.03 -1.58693 -0.25946 0
M  V30 10729 O 1011.22 -1.74154 -0.0401744 0
M  V30 10730 C 1008.35 -3.40883 0.0338703 0
M  V30 10731 H 1009.54 -2.5282 1.61314 0
M  V30 10732 H 1007.1 -1.29707 0.872105 0
M  V30 10733 H 1007.83 -3.11843 -0.890187 0
M  V30 10734 H 1007.62 -3.85342 0.72486 0
M  V30 10735 H 1009.11 -4.17056 -0.213152 0
M  V30 10736 N 1009.54 -0.859717 -1.32086 0
M  V30 10737 C 1010.78 -0.471939 -1.98877 0
M  V30 10738 C 1011.15 0.955689 -1.66525 0
M  V30 10739 O 1012.35 1.44829 -2.26447 0
M  V30 10740 C 1010.62 -0.710016 -3.50276 0
M  V30 10741 S 1012.18 -0.420566 -4.3678 0
M  V30 10742 H 1009 -0.176588 -0.688722 0
M  V30 10743 H 1011.6 -1.11352 -1.60689 0
M  V30 10744 H 1010.3 -1.74803 -3.71311 0
M  V30 10745 H 1009.83 -0.0550429 -3.93361 0
M  V30 10746 H 1011.85 0.751362 -4.90478 0
M  V30 10747 N 1011.02 1.44971 -0.618145 0
M  V30 10748 C 1012.27 2.01372 -0.115004 0
M  V30 10749 C 1012.58 1.49104 1.26599 0
M  V30 10750 O 1013.79 1.97549 1.86244 0
M  V30 10751 C 1012.24 3.59567 -0.154883 0
M  V30 10752 C 1011.85 4.20832 -1.53639 0
M  V30 10753 C 1013.6 4.23491 0.292468 0
M  V30 10754 C 1011.5 5.7121 -1.53208 0
M  V30 10755 H 1010.43 0.752979 -0.0392267 0
M  V30 10756 H 1013.08 1.66329 -0.775032 0
M  V30 10757 H 1011.47 3.91847 0.572001 0
M  V30 10758 H 1012.64 4.00109 -2.28582 0
M  V30 10759 H 1010.96 3.69143 -1.92672 0
M  V30 10760 H 1013.55 5.33771 0.315032 0
M  V30 10761 H 1013.9 3.9491 1.31725 0
M  V30 10762 H 1014.43 3.95967 -0.381493 0
M  V30 10763 H 1011.17 6.04506 -2.53481 0
M  V30 10764 H 1010.69 5.94094 -0.825387 0
M  V30 10765 H 1012.37 6.34606 -1.26032 0
M  V30 10766 N 1012.5 0.357919 1.53482 0
M  V30 10767 C 1013.46 -0.479797 2.24122 0
M  V30 10768 C 1014.46 -1.01596 1.24639 0
M  V30 10769 O 1015.65 -0.902928 1.48973 0
M  V30 10770 C 1012.78 -1.66983 2.97203 0
M  V30 10771 H 1013.98 0.138219 2.99581 0
M  V30 10772 H 1011.53 0.109484 1.55916 0
M  V30 10773 H 1012.26 -2.32615 2.25966 0
M  V30 10774 H 1012.05 -1.29242 3.70188 0
M  V30 10775 H 1013.54 -2.26367 3.50924 0
M  V30 10776 N 1013.98 -1.5736 0.0868897 0
M  V30 10777 C 1014.91 -2.09211 -0.911382 0
M  V30 10778 C 1015.89 -1.00072 -1.28157 0
M  V30 10779 O 1017.07 -1.27514 -1.38825 0
M  V30 10780 C 1014.2 -2.56229 -2.21504 0
M  V30 10781 C 1013.24 -3.76948 -1.99531 0
M  V30 10782 S 1014.08 -5.20926 -1.24083 0
M  V30 10783 C 1015.23 -5.71288 -2.55697 0
M  V30 10784 H 1015.47 -2.93557 -0.470245 0
M  V30 10785 H 1013 -1.53883 -0.126218 0
M  V30 10786 H 1014.96 -2.83978 -2.96424 0
M  V30 10787 H 1013.62 -1.72123 -2.6274 0
M  V30 10788 H 1012.81 -4.07887 -2.96048 0
M  V30 10789 H 1012.41 -3.4965 -1.32744 0
M  V30 10790 H 1014.71 -5.79054 -3.51714 0
M  V30 10791 H 1015.65 -6.6993 -2.29347 0
M  V30 10792 H 1016.06 -4.99178 -2.63594 0
M  V30 10793 N 1015.45 0.186762 -1.56489 0
M  V30 10794 C 1016.36 1.25169 -1.98419 0
M  V30 10795 C 1017.38 1.49329 -0.893124 0
M  V30 10796 O 1018.56 1.61781 -1.19954 0
M  V30 10797 C 1015.62 2.57422 -2.32239 0
M  V30 10798 C 1014.68 2.4126 -3.55095 0
M  V30 10799 C 1013.92 3.67206 -3.87292 0
M  V30 10800 O 1014.14 4.71731 -3.20665 0
M  V30 10801 O 1013.07 3.62238 -4.80695 0
M  V30 10802 H 1016.9 0.925834 -2.89244 0
M  V30 10803 H 1014.48 0.392421 -1.44154 0
M  V30 10804 H 1016.37 3.35466 -2.5503 0
M  V30 10805 H 1015.04 2.89618 -1.44579 0
M  V30 10806 H 1013.95 1.61299 -3.37541 0
M  V30 10807 H 1015.28 2.13994 -4.43247 0
M  V30 10808 N 1016.93 1.50896 0.454776 0
M  V30 10809 C 1017.88 1.70947 1.55067 0
M  V30 10810 C 1018.85 0.550899 1.56698 0
M  V30 10811 O 1020.03 0.783352 1.73978 0
M  V30 10812 C 1017.17 1.82455 2.92924 0
M  V30 10813 C 1016.29 3.09919 3.00956 0
M  V30 10814 C 1015.42 3.12125 4.29827 0
M  V30 10815 C 1014.46 4.33975 4.31662 0
M  V30 10816 N 1013.6 4.33828 5.5203 0
M  V30 10817 H 1018.44 2.645 1.37273 0
M  V30 10818 H 1015.98 1.31101 0.667148 0
M  V30 10819 H 1017.93 1.87108 3.72889 0
M  V30 10820 H 1016.56 0.92327 3.09315 0
M  V30 10821 H 1015.62 3.14659 2.13761 0
M  V30 10822 H 1016.93 3.99869 2.98172 0
M  V30 10823 H 1016.08 3.15598 5.18154 0
M  V30 10824 H 1014.82 2.20033 4.35243 0
M  V30 10825 H 1013.83 4.30697 3.41731 0
M  V30 10826 H 1015.05 5.27312 4.27924 0
M  V30 10827 H 1013 3.44598 5.58201 0
M  V30 10828 H 1012.91 5.17566 5.51055 0
M  V30 10829 H 1014.18 4.4147 6.42437 0
M  V30 10830 N 1018.41 -0.709066 1.40748 0
M  V30 10831 C 1019.64 -1.49808 1.42707 0
M  V30 10832 C 1020.05 -1.88778 0.0285574 0
M  V30 10833 O 1019.41 -1.55883 -0.949035 0
M  V30 10834 C 1019.46 -2.76926 2.32366 0
M  V30 10835 O 1019.18 -2.39602 3.66773 0
M  V30 10836 C 1020.68 -3.70773 2.42986 0
M  V30 10837 H 1017.9 -0.462106 0.486517 0
M  V30 10838 H 1020.45 -0.874135 1.84876 0
M  V30 10839 H 1018.6 -3.3559 1.93541 0
M  V30 10840 H 1019.02 -3.21443 4.14457 0
M  V30 10841 H 1020.49 -4.56789 3.09916 0
M  V30 10842 H 1020.97 -4.14332 1.45691 0
M  V30 10843 H 1021.57 -3.18019 2.8239 0
M  V30 10844 N 1019.89 -1.26353 -0.941956 0
M  V30 10845 C 1020.84 -1.07842 -2.04056 0
M  V30 10846 C 1021.81 0.0163064 -1.66092 0
M  V30 10847 O 1022.99 -0.143313 -1.90261 0
M  V30 10848 C 1020.13 -0.716636 -3.37577 0
M  V30 10849 C 1019.24 -1.88754 -3.88582 0
M  V30 10850 C 1018.38 -1.46893 -5.10486 0
M  V30 10851 C 1017.42 -2.60819 -5.53751 0
M  V30 10852 N 1016.56 -2.19646 -6.66858 0
M  V30 10853 H 1021.4 -2.01856 -2.19221 0
M  V30 10854 H 1018.93 -1.00504 -1.07412 0
M  V30 10855 H 1020.89 -0.487768 -4.14339 0
M  V30 10856 H 1019.52 0.18653 -3.22261 0
M  V30 10857 H 1018.57 -2.22936 -3.08227 0
M  V30 10858 H 1019.88 -2.74264 -4.1663 0
M  V30 10859 H 1019.04 -1.20047 -5.94705 0
M  V30 10860 H 1017.78 -0.584721 -4.84182 0
M  V30 10861 H 1016.78 -2.88396 -4.6809 0
M  V30 10862 H 1018.01 -3.49838 -5.82057 0
M  V30 10863 H 1015.95 -1.33657 -6.4224 0
M  V30 10864 H 1015.87 -2.987 -6.94489 0
M  V30 10865 H 1017.14 -1.96009 -7.54454 0
M  V30 10866 N 1021.37 1.14642 -1.08144 0
M  V30 10867 C 1022.3 2.19283 -0.6669 0
M  V30 10868 C 1023.31 1.60292 0.284668 0
M  V30 10869 O 1024.5 1.78352 0.0727383 0
M  V30 10870 C 1021.6 3.38877 0.0398572 0
M  V30 10871 C 1020.77 4.274 -0.929929 0
M  V30 10872 C 1019.83 5.25562 -0.258991 0
M  V30 10873 O 1018.86 5.61999 -0.902563 0
M  V30 10874 N 1020.06 5.71958 0.992177 0
M  V30 10875 H 1022.83 2.55464 -1.5671 0
M  V30 10876 H 1020.39 1.29836 -0.96717 0
M  V30 10877 H 1022.38 4.01605 0.499583 0
M  V30 10878 H 1020.95 3.01043 0.842118 0
M  V30 10879 H 1020.17 3.61649 -1.56857 0
M  V30 10880 H 1021.46 4.83411 -1.58717 0
M  V30 10881 H 1020.86 5.44481 1.53484 0
M  V30 10882 H 1019.41 6.36687 1.39544 0
M  V30 10883 N 1022.85 0.866709 1.31628 0
M  V30 10884 C 1023.76 0.323408 2.3236 0
M  V30 10885 C 1024.77 -0.564995 1.64572 0
M  V30 10886 O 1025.95 -0.462489 1.96018 0
M  V30 10887 C 1023.01 -0.469045 3.43513 0
M  V30 10888 C 1022.07 0.446928 4.26967 0
M  V30 10889 C 1021.31 -0.307799 5.32812 0
M  V30 10890 O 1021.53 -1.5363 5.49321 0
M  V30 10891 O 1020.46 0.332653 6.0098 0
M  V30 10892 H 1024.29 1.15827 2.80745 0
M  V30 10893 H 1021.87 0.629987 1.35468 0
M  V30 10894 H 1023.76 -0.918405 4.1127 0
M  V30 10895 H 1022.43 -1.28051 2.97296 0
M  V30 10896 H 1021.34 0.944719 3.61975 0
M  V30 10897 H 1022.67 1.2239 4.76741 0
M  V30 10898 N 1024.32 -1.44642 0.625825 0
M  V30 10899 C 1025.26 -2.28882 -0.120614 0
M  V30 10900 C 1026.27 -1.40985 -0.81407 0
M  V30 10901 O 1027.46 -1.65188 -0.676404 0
M  V30 10902 C 1024.56 -3.17217 -1.19274 0
M  V30 10903 C 1023.73 -4.33499 -0.582839 0
M  V30 10904 C 1022.79 -5.02908 -1.54823 0
M  V30 10905 O 1021.82 -5.59102 -1.06743 0
M  V30 10906 N 1023.02 -5.0387 -2.88262 0
M  V30 10907 H 1025.78 -2.93585 0.602318 0
M  V30 10908 H 1023.34 -1.5503 0.466604 0
M  V30 10909 H 1025.34 -3.60515 -1.83878 0
M  V30 10910 H 1023.91 -2.54301 -1.81797 0
M  V30 10911 H 1023.13 -3.93458 0.241696 0
M  V30 10912 H 1024.41 -5.08561 -0.155914 0
M  V30 10913 H 1023.81 -4.59539 -3.2991 0
M  V30 10914 H 1022.37 -5.50974 -3.4824 0
M  V30 10915 N 1025.8 -0.366053 -1.5329 0
M  V30 10916 C 1026.73 0.514916 -2.23341 0
M  V30 10917 C 1027.75 1.04579 -1.24768 0
M  V30 10918 O 1028.94 0.952084 -1.50989 0
M  V30 10919 C 1026.04 1.72374 -2.91788 0
M  V30 10920 C 1025.21 1.32429 -4.16871 0
M  V30 10921 C 1024.27 2.39524 -4.68524 0
M  V30 10922 O 1023.29 2.01895 -5.32191 0
M  V30 10923 N 1024.5 3.71116 -4.46378 0
M  V30 10924 H 1027.26 -0.0851272 -2.99579 0
M  V30 10925 H 1024.82 -0.191255 -1.60766 0
M  V30 10926 H 1026.81 2.43496 -3.23252 0
M  V30 10927 H 1025.38 2.23064 -2.19 0
M  V30 10928 H 1024.6 0.442901 -3.91704 0
M  V30 10929 H 1025.89 1.03372 -4.98188 0
M  V30 10930 H 1025.29 4.04463 -3.95508 0
M  V30 10931 H 1023.85 4.38341 -4.82391 0
M  V30 10932 N 1027.28 1.57312 -0.0952337 0
M  V30 10933 C 1028.24 2.12889 0.849161 0
M  V30 10934 C 1029.24 1.05819 1.21075 0
M  V30 10935 O 1030.43 1.31704 1.14016 0
M  V30 10936 C 1027.56 2.6496 2.14498 0
M  V30 10937 H 1028.76 2.97651 0.366566 0
M  V30 10938 H 1026.31 1.55542 0.153762 0
M  V30 10939 H 1027.05 1.83718 2.67242 0
M  V30 10940 H 1026.83 3.43244 1.89542 0
M  V30 10941 H 1028.32 3.07952 2.82056 0
M  V30 10942 N 1028.76 -0.17846 1.56586 0
M  V30 10943 C 1029.98 -0.916061 1.86073 0
M  V30 10944 C 1030.41 -1.75349 0.680754 0
M  V30 10945 O 1029.77 -1.77479 -0.37028 0
M  V30 10946 C 1029.81 -1.77445 3.1392 0
M  V30 10947 O 1028.92 -2.87524 2.95641 0
M  V30 10948 H 1028.26 -0.257031 0.612234 0
M  V30 10949 H 1030.79 -0.178755 2.03818 0
M  V30 10950 H 1030.8 -2.1758 3.45142 0
M  V30 10951 H 1029.47 -1.15927 3.99417 0
M  V30 10952 H 1028.05 -2.51023 2.75757 0
M  V30 10953 N 1030.24 -1.51135 -0.446768 0
M  V30 10954 C 1031.48 -1.64989 -1.20656 0
M  V30 10955 C 1031.84 -0.353882 -1.88711 0
M  V30 10956 O 1033.04 -0.368099 -2.66268 0
M  V30 10957 C 1031.31 -2.81371 -2.20375 0
M  V30 10958 S 1032.87 -3.15501 -3.04967 0
M  V30 10959 H 1029.69 -0.581372 -0.409301 0
M  V30 10960 H 1032.29 -1.89008 -0.499613 0
M  V30 10961 H 1030.99 -3.73988 -1.69001 0
M  V30 10962 H 1030.53 -2.59512 -2.95664 0
M  V30 10963 H 1032.54 -2.61205 -4.21884 0
M  V30 10964 N 1031.71 0.701592 -1.41122 0
M  V30 10965 C 1032.94 1.49049 -1.43499 0
M  V30 10966 C 1033.36 1.88761 -0.0385684 0
M  V30 10967 O 1032.71 1.56384 0.940755 0
M  V30 10968 C 1032.76 2.7569 -2.33832 0
M  V30 10969 O 1032.49 2.37653 -3.68039 0
M  V30 10970 C 1033.99 3.69479 -2.44949 0
M  V30 10971 H 1031.21 0.459519 -0.488961 0
M  V30 10972 H 1033.75 0.864318 -1.85337 0
M  V30 10973 H 1031.91 3.34559 -1.95318 0
M  V30 10974 H 1032.32 3.19241 -4.16156 0
M  V30 10975 H 1033.79 4.55139 -3.12334 0
M  V30 10976 H 1034.27 4.13553 -1.47887 0
M  V30 10977 H 1034.88 3.16517 -2.84072 0
M  V30 10978 N 1033.19 1.2685 0.935242 0
M  V30 10979 C 1034.44 1.13921 1.68504 0
M  V30 10980 C 1034.79 -0.313201 1.89834 0
M  V30 10981 O 1034.09 -1.22626 1.47219 0
M  V30 10982 C 1034.28 1.8482 3.05903 0
M  V30 10983 C 1034.11 3.36806 2.9798 0
M  V30 10984 C 1032.88 4.06109 3.00672 0
M  V30 10985 C 1035.08 4.32904 2.77667 0
M  V30 10986 N 1033.06 5.44722 2.83111 0
M  V30 10987 C 1034.43 5.58732 2.68735 0
M  V30 10988 C 1036.48 4.23084 2.62496 0
M  V30 10989 C 1035.19 6.75861 2.4618 0
M  V30 10990 C 1037.21 5.39926 2.41317 0
M  V30 10991 C 1036.58 6.64706 2.33121 0
M  V30 10992 H 1032.67 0.471689 0.623725 0
M  V30 10993 H 1035.26 1.60217 1.10628 0
M  V30 10994 H 1033.43 1.40989 3.61907 0
M  V30 10995 H 1035.16 1.64461 3.69777 0
M  V30 10996 H 1031.92 3.57516 3.10611 0
M  V30 10997 H 1032.34 6.17522 2.77481 0
M  V30 10998 H 1036.98 3.27341 2.67596 0
M  V30 10999 H 1034.7 7.71694 2.39821 0
M  V30 11000 H 1038.29 5.34203 2.30475 0
M  V30 11001 H 1037.17 7.53592 2.16952 0
M  V30 11002 N 1034.67 -1.14067 1.0875 0
M  V30 11003 C 1035.92 -1.85185 0.819317 0
M  V30 11004 C 1036.25 -1.8314 -0.654969 0
M  V30 11005 O 1035.5 -1.25974 -1.49763 0
M  V30 11006 C 1035.8 -3.33273 1.29089 0
M  V30 11007 C 1035.47 -3.55504 2.77359 0
M  V30 11008 C 1034.13 -3.61279 3.17853 0
M  V30 11009 C 1036.48 -3.64041 3.72992 0
M  V30 11010 C 1033.81 -3.73119 4.52768 0
M  V30 11011 C 1036.16 -3.77407 5.07687 0
M  V30 11012 C 1034.82 -3.81433 5.47782 0
M  V30 11013 H 1034.09 -0.67764 0.299809 0
M  V30 11014 H 1036.74 -1.34713 1.36106 0
M  V30 11015 H 1035.05 -3.86049 0.668811 0
M  V30 11016 H 1036.74 -3.86734 1.06009 0
M  V30 11017 H 1033.33 -3.51659 2.45019 0
M  V30 11018 H 1037.52 -3.58866 3.42825 0
M  V30 11019 H 1032.77 -3.74499 4.83281 0
M  V30 11020 H 1036.95 -3.82956 5.81651 0
M  V30 11021 H 1034.57 -3.9036 6.52321 0
M  V30 11022 N 1036.15 -0.873678 -1.31166 0
M  V30 11023 C 1037.4 -0.485497 -1.96182 0
M  V30 11024 C 1037.72 0.96621 -1.69379 0
M  V30 11025 O 1036.99 1.67783 -1.01121 0
M  V30 11026 H 1035.57 -0.176547 -0.725838 0
M  V30 11027 H 1038.23 -1.11428 -1.59906 0
M  V30 11028 H 1037.33 -0.646325 -3.05334 0
M  V30 11029 N 1037.63 1.44308 -0.633487 0
M  V30 11030 C 1038.57 2.30694 0.0700257 0
M  V30 11031 C 1039.54 1.43618 0.834447 0
M  V30 11032 O 1040.73 1.72517 0.815014 0
M  V30 11033 C 1037.87 3.28929 1.04403 0
M  V30 11034 C 1036.98 4.31106 0.277779 0
M  V30 11035 C 1036.12 5.16433 1.24381 0
M  V30 11036 C 1035.16 6.10317 0.466855 0
M  V30 11037 N 1034.29 6.88335 1.38347 0
M  V30 11038 H 1039.13 2.90311 -0.672567 0
M  V30 11039 H 1036.67 1.43034 -0.343449 0
M  V30 11040 H 1038.63 3.84373 1.62214 0
M  V30 11041 H 1037.26 2.71006 1.75372 0
M  V30 11042 H 1036.31 3.78115 -0.416292 0
M  V30 11043 H 1037.62 4.97725 -0.327251 0
M  V30 11044 H 1036.78 5.76406 1.89318 0
M  V30 11045 H 1035.51 4.49893 1.88276 0
M  V30 11046 H 1034.52 5.49451 -0.195989 0
M  V30 11047 H 1035.74 6.78894 -0.167414 0
M  V30 11048 H 1033.69 6.24461 2.00959 0
M  V30 11049 H 1033.61 7.51402 0.832517 0
M  V30 11050 H 1034.88 7.52829 2.0216 0
M  V30 11051 N 1039.1 0.374177 1.53094 0
M  V30 11052 C 1040.05 -0.468226 2.26001 0
M  V30 11053 C 1041.02 -1.07041 1.27009 0
M  V30 11054 O 1042.21 -1.10129 1.55809 0
M  V30 11055 C 1039.35 -1.59754 3.05896 0
M  V30 11056 C 1038.46 -1.01969 4.19793 0
M  V30 11057 C 1037.59 -2.11882 4.87113 0
M  V30 11058 C 1036.63 -1.51607 5.93028 0
M  V30 11059 N 1035.77 -2.55388 6.54004 0
M  V30 11060 H 1040.61 0.159983 2.9757 0
M  V30 11061 H 1038.15 0.0907196 1.4682 0
M  V30 11062 H 1040.11 -2.26288 3.50499 0
M  V30 11063 H 1038.74 -2.19628 2.36565 0
M  V30 11064 H 1037.79 -0.244386 3.79614 0
M  V30 11065 H 1039.1 -0.539089 4.95878 0
M  V30 11066 H 1038.25 -2.86218 5.34943 0
M  V30 11067 H 1036.99 -2.63297 4.10519 0
M  V30 11068 H 1036 -0.757891 5.44551 0
M  V30 11069 H 1037.22 -1.01006 6.71546 0
M  V30 11070 H 1035.17 -3.06 5.80258 0
M  V30 11071 H 1035.09 -2.12039 7.25655 0
M  V30 11072 H 1036.35 -3.294 7.06481 0
M  V30 11073 N 1040.58 -1.57259 0.103575 0
M  V30 11074 C 1041.53 -2.14487 -0.852295 0
M  V30 11075 C 1042.5 -1.06567 -1.27407 0
M  V30 11076 O 1043.68 -1.34398 -1.35432 0
M  V30 11077 C 1040.82 -2.73632 -2.10284 0
M  V30 11078 C 1039.94 -3.95811 -1.73083 0
M  V30 11079 C 1039.07 -4.43093 -2.92988 0
M  V30 11080 C 1038.11 -5.5784 -2.51953 0
M  V30 11081 N 1037.25 -5.99936 -3.64721 0
M  V30 11082 H 1042.09 -2.95849 -0.35743 0
M  V30 11083 H 1039.63 -1.46175 -0.164748 0
M  V30 11084 H 1041.58 -3.06046 -2.83534 0
M  V30 11085 H 1040.21 -1.94985 -2.57256 0
M  V30 11086 H 1039.27 -3.69656 -0.897688 0
M  V30 11087 H 1040.58 -4.79066 -1.38916 0
M  V30 11088 H 1039.73 -4.77335 -3.74481 0
M  V30 11089 H 1038.47 -3.58756 -3.30372 0
M  V30 11090 H 1037.48 -5.23217 -1.6889 0
M  V30 11091 H 1038.7 -6.43932 -2.15705 0
M  V30 11092 H 1036.65 -5.18543 -4.01807 0
M  V30 11093 H 1036.56 -6.78008 -3.34427 0
M  V30 11094 H 1037.83 -6.38812 -4.46699 0
M  V30 11095 N 1042.06 0.170153 -1.56679 0
M  V30 11096 C 1043.01 1.21064 -1.965 0
M  V30 11097 C 1043.98 1.43928 -0.829092 0
M  V30 11098 O 1045.16 1.56649 -1.08931 0
M  V30 11099 C 1042.3 2.54468 -2.33109 0
M  V30 11100 C 1041.42 2.38974 -3.59883 0
M  V30 11101 C 1040.55 3.65252 -3.857 0
M  V30 11102 C 1039.59 3.44696 -5.05817 0
M  V30 11103 N 1038.73 4.63047 -5.27761 0
M  V30 11104 H 1043.57 0.864055 -2.85198 0
M  V30 11105 H 1041.1 0.415243 -1.41117 0
M  V30 11106 H 1043.06 3.32222 -2.52358 0
M  V30 11107 H 1041.69 2.8712 -1.4752 0
M  V30 11108 H 1040.74 1.5239 -3.48542 0
M  V30 11109 H 1042.06 2.19731 -4.47794 0
M  V30 11110 H 1041.21 4.51441 -4.05322 0
M  V30 11111 H 1039.95 3.87475 -2.96166 0
M  V30 11112 H 1038.95 2.56893 -4.86092 0
M  V30 11113 H 1040.18 3.23894 -5.96883 0
M  V30 11114 H 1038.12 4.85487 -4.41179 0
M  V30 11115 H 1038.04 4.46722 -6.09898 0
M  V30 11116 H 1039.31 5.50516 -5.51863 0
M  V30 11117 N 1043.54 1.5137 0.438746 0
M  V30 11118 C 1044.47 1.68774 1.55074 0
M  V30 11119 C 1045.48 0.568436 1.52554 0
M  V30 11120 O 1046.67 0.842707 1.57355 0
M  V30 11121 C 1043.77 1.68592 2.9399 0
M  V30 11122 C 1042.95 2.97084 3.2103 0
M  V30 11123 C 1042 2.89108 4.39663 0
M  V30 11124 O 1041.03 3.63052 4.38385 0
M  V30 11125 N 1042.23 2.04863 5.4315 0
M  V30 11126 H 1045 2.647 1.40549 0
M  V30 11127 H 1042.56 1.49238 0.627663 0
M  V30 11128 H 1044.55 1.60826 3.71372 0
M  V30 11129 H 1043.12 0.802657 3.02119 0
M  V30 11130 H 1042.34 3.18729 2.3196 0
M  V30 11131 H 1043.63 3.82143 3.35923 0
M  V30 11132 H 1043.03 1.4416 5.47023 0
M  V30 11133 H 1041.58 2.02977 6.1939 0
M  V30 11134 N 1045.02 -0.694098 1.41492 0
M  V30 11135 C 1046.25 -1.48071 1.44078 0
M  V30 11136 C 1046.65 -1.89147 0.0448984 0
M  V30 11137 O 1046 -1.57441 -0.946464 0
M  V30 11138 C 1046.06 -2.77324 2.28761 0
M  V30 11139 C 1045.72 -2.58443 3.76904 0
M  V30 11140 C 1046.72 -2.24294 4.69029 0
M  V30 11141 C 1044.41 -2.74037 4.20962 0
M  V30 11142 C 1046.4 -2.0598 6.03201 0
M  V30 11143 C 1044.09 -2.5534 5.55198 0
M  V30 11144 C 1045.08 -2.21362 6.46133 0
M  V30 11145 O 1044.77 -2.02829 7.77892 0
M  V30 11146 H 1044.5 -0.462794 0.492745 0
M  V30 11147 H 1047.06 -0.861968 1.86438 0
M  V30 11148 H 1045.29 -3.4161 1.81217 0
M  V30 11149 H 1046.98 -3.39134 2.23031 0
M  V30 11150 H 1047.74 -2.11859 4.36281 0
M  V30 11151 H 1043.62 -2.99467 3.50486 0
M  V30 11152 H 1047.17 -1.79382 6.74142 0
M  V30 11153 H 1043.06 -2.67366 5.87525 0
M  V30 11154 H 1043.83 -2.17581 7.89051 0
M  V30 11155 N 1046.49 -1.27344 -0.928501 0
M  V30 11156 C 1047.44 -1.10001 -2.029 0
M  V30 11157 C 1048.41 -0.00131084 -1.661 0
M  V30 11158 O 1049.6 -0.163485 -1.90098 0
M  V30 11159 C 1046.74 -0.7524 -3.36798 0
M  V30 11160 C 1045.85 -1.92865 -3.86558 0
M  V30 11161 C 1044.98 -1.52299 -5.08899 0
M  V30 11162 C 1044.02 -2.66677 -5.50953 0
M  V30 11163 N 1043.16 -2.26706 -6.64491 0
M  V30 11164 H 1048 -2.0417 -2.17068 0
M  V30 11165 H 1045.54 -1.01637 -1.0634 0
M  V30 11166 H 1047.5 -0.531687 -4.13798 0
M  V30 11167 H 1046.13 0.15234 -3.2244 0
M  V30 11168 H 1045.18 -2.26192 -3.05845 0
M  V30 11169 H 1046.49 -2.78668 -4.13698 0
M  V30 11170 H 1045.64 -1.26348 -5.93398 0
M  V30 11171 H 1044.38 -0.636042 -4.83535 0
M  V30 11172 H 1043.39 -2.93344 -4.65004 0
M  V30 11173 H 1044.61 -3.55992 -5.78313 0
M  V30 11174 H 1042.56 -1.40462 -6.40786 0
M  V30 11175 H 1042.48 -3.06049 -6.91281 0
M  V30 11176 H 1043.74 -2.04 -7.52333 0
M  V30 11177 N 1047.97 1.13488 -1.09353 0
M  V30 11178 C 1049.25 1.80998 -0.741559 0
M  V30 11179 C 1049.63 1.96418 0.773505 0
M  V30 11180 O 1048.98 1.53168 1.69563 0
M  V30 11181 C 1049.19 3.16078 -1.47972 0
M  V30 11182 C 1050.54 3.91438 -1.64504 0
M  V30 11183 O 1051.56 3.25699 -1.44218 0
M  V30 11184 O 1050.42 5.0935 -1.98054 0
M  V30 11185 H 1047.51 0.782953 -0.266297 0
M  V30 11186 H 1050.06 1.20422 -1.19569 0
M  V30 11187 H 1048.83 3.00076 -2.51137 0
M  V30 11188 H 1048.45 3.84354 -1.01772 0
M  V30 11189 N 1049.45 0.880621 1.30701 0
M  V30 11190 C 1050.4 0.342397 2.28246 0
M  V30 11191 C 1051.37 -0.565023 1.56194 0
M  V30 11192 O 1052.55 -0.494377 1.84284 0
M  V30 11193 C 1049.69 -0.440859 3.42272 0
M  V30 11194 C 1048.81 0.495284 4.29151 0
M  V30 11195 C 1047.94 -0.303141 5.30334 0
M  V30 11196 C 1046.98 0.628751 6.08862 0
M  V30 11197 N 1046.12 -0.13408 7.01972 0
M  V30 11198 H 1050.96 1.17938 2.73669 0
M  V30 11199 H 1048.49 0.59296 1.34619 0
M  V30 11200 H 1050.45 -0.910854 4.07135 0
M  V30 11201 H 1049.08 -1.24245 2.97931 0
M  V30 11202 H 1048.13 1.08376 3.64635 0
M  V30 11203 H 1049.45 1.2094 4.83916 0
M  V30 11204 H 1048.6 -0.835181 6.00924 0
M  V30 11205 H 1047.34 -1.05049 4.76252 0
M  V30 11206 H 1046.34 1.17246 5.37153 0
M  V30 11207 H 1047.57 1.37512 6.65032 0
M  V30 11208 H 1045.52 -0.864046 6.50285 0
M  V30 11209 H 1045.43 0.520486 7.54206 0
M  V30 11210 H 1046.7 -0.647005 7.7681 0
M  V30 11211 N 1050.93 -1.4397 0.641131 0
M  V30 11212 C 1052.16 -2.06004 0.156779 0
M  V30 11213 C 1052.57 -1.48059 -1.17793 0
M  V30 11214 O 1051.91 -0.601788 -1.73563 0
M  V30 11215 C 1051.97 -3.59493 -0.0217203 0
M  V30 11216 C 1051.64 -4.39957 1.23639 0
M  V30 11217 C 1052.63 -4.72797 2.16239 0
M  V30 11218 C 1050.32 -4.80168 1.4746 0
M  V30 11219 C 1052.31 -5.44741 3.30962 0
M  V30 11220 C 1050 -5.51859 2.62478 0
M  V30 11221 C 1051 -5.84067 3.54055 0
M  V30 11222 O 1050.69 -6.54296 4.67067 0
M  V30 11223 H 1050.42 -0.671061 0.0815685 0
M  V30 11224 H 1052.97 -1.85664 0.878517 0
M  V30 11225 H 1051.2 -3.78362 -0.798707 0
M  V30 11226 H 1052.89 -4.03263 -0.461893 0
M  V30 11227 H 1053.66 -4.42261 1.99073 0
M  V30 11228 H 1049.54 -4.54513 0.770652 0
M  V30 11229 H 1053.08 -5.69798 4.02462 0
M  V30 11230 H 1048.98 -5.81811 2.79583 0
M  V30 11231 H 1049.74 -6.72772 4.66177 0
M  V30 11232 N 1052.41 -0.382291 -1.52893 0
M  V30 11233 C 1053.34 0.447829 -2.29165 0
M  V30 11234 C 1054.32 1.06956 -1.32267 0
M  V30 11235 O 1055.5 1.08365 -1.61154 0
M  V30 11236 C 1052.63 1.57902 -3.09329 0
M  V30 11237 C 1051.59 1.08369 -4.14053 0
M  V30 11238 C 1050.91 2.30641 -4.82399 0
M  V30 11239 C 1052.21 0.156591 -5.22065 0
M  V30 11240 H 1053.91 -0.188541 -2.98806 0
M  V30 11241 H 1051.45 -0.0921179 -1.43705 0
M  V30 11242 H 1053.41 2.16652 -3.61442 0
M  V30 11243 H 1052.13 2.24287 -2.37409 0
M  V30 11244 H 1050.79 0.518772 -3.62911 0
M  V30 11245 H 1050.44 2.9552 -4.07034 0
M  V30 11246 H 1050.14 1.98163 -5.53177 0
M  V30 11247 H 1051.66 2.90047 -5.37313 0
M  V30 11248 H 1053.08 0.652065 -5.6958 0
M  V30 11249 H 1051.47 -0.0780978 -6.00049 0
M  V30 11250 H 1052.54 -0.796529 -4.78313 0
M  V30 11251 N 1053.89 1.57202 -0.111913 0
M  V30 11252 C 1054.85 2.13778 0.826534 0
M  V30 11253 C 1055.85 1.07097 1.19945 0
M  V30 11254 O 1057.04 1.32906 1.12613 0
M  V30 11255 C 1054.17 2.6722 2.11675 0
M  V30 11256 H 1055.36 2.98023 0.334975 0
M  V30 11257 H 1052.92 1.55696 0.137256 0
M  V30 11258 H 1053.65 1.86542 2.65278 0
M  V30 11259 H 1053.44 3.45235 1.8589 0
M  V30 11260 H 1054.93 3.10926 2.78774 0
M  V30 11261 N 1055.36 -0.161842 1.56767 0
M  V30 11262 C 1056.31 -1.2002 1.97139 0
M  V30 11263 C 1057.28 -1.43486 0.836713 0
M  V30 11264 O 1058.47 -1.56069 1.0976 0
M  V30 11265 C 1055.61 -2.53228 2.34456 0
M  V30 11266 C 1054.72 -2.37062 3.61145 0
M  V30 11267 C 1053.85 -3.63202 3.87631 0
M  V30 11268 C 1052.89 -3.42008 5.07638 0
M  V30 11269 N 1052.03 -4.60242 5.30209 0
M  V30 11270 H 1056.87 -0.848918 2.85653 0
M  V30 11271 H 1054.41 -0.407753 1.41336 0
M  V30 11272 H 1056.36 -3.30879 2.54116 0
M  V30 11273 H 1054.99 -2.86333 1.4904 0
M  V30 11274 H 1054.05 -1.50539 3.49345 0
M  V30 11275 H 1055.36 -2.17353 4.48953 0
M  V30 11276 H 1054.51 -4.49285 4.0771 0
M  V30 11277 H 1053.25 -3.85899 2.98216 0
M  V30 11278 H 1052.26 -2.54312 4.87448 0
M  V30 11279 H 1053.48 -3.20724 5.98593 0
M  V30 11280 H 1051.43 -4.8314 4.43747 0
M  V30 11281 H 1051.34 -4.43481 6.12259 0
M  V30 11282 H 1052.61 -5.47581 5.54775 0
M  V30 11283 N 1056.84 -1.516 -0.430713 0
M  V30 11284 C 1057.79 -1.69776 -1.52185 0
M  V30 11285 C 1058.78 -0.551692 -1.51146 0
M  V30 11286 O 1059.97 -0.807883 -1.57487 0
M  V30 11287 C 1057.1 -1.83222 -2.90318 0
M  V30 11288 C 1056.18 -3.03633 -2.96087 0
M  V30 11289 N 1056.57 -4.267 -2.71589 0
M  V30 11290 C 1054.87 -3.03024 -3.2725 0
M  V30 11291 C 1055.57 -5.08011 -2.83372 0
M  V30 11292 N 1054.55 -4.42798 -3.15327 0
M  V30 11293 H 1058.35 -2.62586 -1.32006 0
M  V30 11294 H 1055.86 -1.49338 -0.63812 0
M  V30 11295 H 1057.86 -1.94355 -3.68825 0
M  V30 11296 H 1056.52 -0.915971 -3.11513 0
M  V30 11297 H 1057.53 -4.55535 -2.46391 0
M  V30 11298 H 1054.21 -2.21055 -3.54176 0
M  V30 11299 H 1055.6 -6.15995 -2.68329 0
M  V30 11300 N 1058.32 0.686584 -1.41858 0
M  V30 11301 C 1059.27 1.82167 -1.4463 0
M  V30 11302 C 1060.26 1.66286 -0.323313 0
M  V30 11303 O 1061.47 1.73038 -0.495773 0
M  V30 11304 H 1057.84 0.600454 -0.452724 0
M  V30 11305 H 1059.81 1.76947 -2.40276 0
M  V30 11306 C 1058.56 3.20248 -1.35412 0
M  V30 11307 H 1057.89 3.33089 -2.21115 0
M  V30 11308 H 1059.33 3.99723 -1.41413 0
M  V30 11309 C 1057.78 3.36832 -0.0674972 0
M  V30 11310 O 1058.31 3.91845 0.884325 0
M  V30 11311 N 1056.52 2.90598 0.011519 0
M  V30 11312 H 1056.07 2.46016 -0.76381 0
M  V30 11313 H 1056.03 3.02072 0.871774 0
M  V30 11314 N 1059.8 1.27835 0.921735 0
M  V30 11315 C 1060.76 1.11108 2.00469 0
M  V30 11316 C 1061.76 0.053203 1.60712 0
M  V30 11317 O 1062.95 0.298308 1.71627 0
M  V30 11318 C 1060.08 0.694269 3.33755 0
M  V30 11319 H 1061.28 2.07279 2.16738 0
M  V30 11320 H 1058.83 1.10708 1.10333 0
M  V30 11321 H 1059.56 -0.268561 3.23186 0
M  V30 11322 H 1059.35 1.45836 3.6397 0
M  V30 11323 H 1060.84 0.59965 4.13272 0
M  V30 11324 N 1061.28 -1.12907 1.09954 0
M  V30 11325 C 1062.52 -1.84579 0.840155 0
M  V30 11326 C 1062.85 -1.83605 -0.632692 0
M  V30 11327 O 1062.13 -1.27803 -1.46617 0
M  V30 11328 C 1062.41 -3.32489 1.38286 0
M  V30 11329 C 1062.27 -3.41946 2.92221 0
M  V30 11330 C 1063.58 -4.28091 1.0211 0
M  V30 11331 H 1060.7 -0.670169 0.306663 0
M  V30 11332 H 1063.35 -1.3249 1.36185 0
M  V30 11333 H 1061.5 -3.76978 0.939123 0
M  V30 11334 H 1063.17 -3.06128 3.45085 0
M  V30 11335 H 1061.41 -2.8265 3.29077 0
M  V30 11336 H 1062.08 -4.45983 3.25274 0
M  V30 11337 H 1064.56 -3.91701 1.4039 0
M  V30 11338 H 1063.43 -5.30005 1.42781 0
M  V30 11339 H 1063.69 -4.42044 -0.0700753 0
M  V30 11340 N 1062.75 -0.88754 -1.30232 0
M  V30 11341 C 1064 -0.507279 -1.96043 0
M  V30 11342 C 1064.33 0.944059 -1.70052 0
M  V30 11343 O 1063.58 1.68255 -0.999444 0
M  V30 11344 C 1063.88 -0.731765 -3.49828 0
M  V30 11345 C 1063.55 -2.15858 -3.95874 0
M  V30 11346 C 1062.21 -2.54875 -4.08157 0
M  V30 11347 C 1064.56 -3.0883 -4.19849 0
M  V30 11348 C 1061.89 -3.86069 -4.41778 0
M  V30 11349 C 1064.24 -4.39559 -4.5494 0
M  V30 11350 C 1062.91 -4.78465 -4.65432 0
M  V30 11351 H 1062.18 -0.185627 -0.717373 0
M  V30 11352 H 1064.82 -1.12388 -1.55052 0
M  V30 11353 H 1063.13 -0.0321473 -3.91787 0
M  V30 11354 H 1064.83 -0.417107 -3.98825 0
M  V30 11355 H 1061.42 -1.84574 -3.86821 0
M  V30 11356 H 1065.6 -2.79906 -4.09837 0
M  V30 11357 H 1060.86 -4.1595 -4.48102 0
M  V30 11358 H 1065.03 -5.11636 -4.72442 0
M  V30 11359 H 1062.66 -5.80162 -4.91239 0
M  V30 11360 N 1064.23 1.43628 -0.648757 0
M  V30 11361 C 1065.51 1.95391 -0.0904551 0
M  V30 11362 C 1065.89 1.59021 1.38837 0
M  V30 11363 O 1065.24 0.873078 2.11163 0
M  V30 11364 C 1065.45 3.47418 -0.33196 0
M  V30 11365 C 1066.8 4.23952 -0.234521 0
M  V30 11366 O 1067.82 3.55218 -0.264276 0
M  V30 11367 O 1066.68 5.46282 -0.154428 0
M  V30 11368 H 1063.77 0.82691 0.0121884 0
M  V30 11369 H 1066.32 1.5359 -0.721685 0
M  V30 11370 H 1065.09 3.67001 -1.35741 0
M  V30 11371 H 1064.71 3.96207 0.332556 0
M  V30 11372 N 1065.71 0.390394 1.52688 0
M  V30 11373 C 1066.64 -0.479319 2.24132 0
M  V30 11374 C 1067.66 -1.0258 1.26416 0
M  V30 11375 O 1068.84 -0.927943 1.52484 0
M  V30 11376 C 1065.94 -1.67711 2.94493 0
M  V30 11377 C 1065.12 -1.2578 4.18925 0
M  V30 11378 C 1064.18 -2.3204 4.72275 0
M  V30 11379 O 1063.2 -1.93402 5.35336 0
M  V30 11380 N 1064.4 -3.63967 4.52226 0
M  V30 11381 H 1067.17 0.132777 2.99406 0
M  V30 11382 H 1064.73 0.216807 1.60442 0
M  V30 11383 H 1066.72 -2.38323 3.27084 0
M  V30 11384 H 1065.29 -2.19552 2.22521 0
M  V30 11385 H 1064.51 -0.380528 3.92359 0
M  V30 11386 H 1065.8 -0.954329 4.9977 0
M  V30 11387 H 1065.2 -3.98119 4.01892 0
M  V30 11388 H 1063.76 -4.30611 4.89303 0
M  V30 11389 N 1067.19 -1.57141 0.120249 0
M  V30 11390 C 1068.12 -2.18398 -0.826112 0
M  V30 11391 C 1069.1 -1.12439 -1.27638 0
M  V30 11392 O 1070.28 -1.40679 -1.33877 0
M  V30 11393 C 1067.41 -2.78438 -2.0758 0
M  V30 11394 C 1066.37 -3.89991 -1.76327 0
M  V30 11395 C 1065.69 -4.36844 -3.08336 0
M  V30 11396 C 1066.99 -5.12031 -1.03062 0
M  V30 11397 H 1068.69 -2.97731 -0.315656 0
M  V30 11398 H 1066.23 -1.43213 -0.150387 0
M  V30 11399 H 1068.19 -3.19951 -2.74243 0
M  V30 11400 H 1066.91 -1.96396 -2.60953 0
M  V30 11401 H 1065.57 -3.49055 -1.12053 0
M  V30 11402 H 1065.22 -3.51659 -3.59646 0
M  V30 11403 H 1064.92 -5.1207 -2.88199 0
M  V30 11404 H 1066.44 -4.81009 -3.76116 0
M  V30 11405 H 1067.86 -5.50555 -1.59881 0
M  V30 11406 H 1066.25 -5.92848 -0.930146 0
M  V30 11407 H 1067.32 -4.84897 -0.017582 0
M  V30 11408 N 1068.67 0.153526 -1.5685 0
M  V30 11409 C 1069.94 0.895545 -1.73895 0
M  V30 11410 C 1070.32 1.99625 -0.686504 0
M  V30 11411 O 1069.67 2.26579 0.2957 0
M  V30 11412 C 1069.88 1.44399 -3.17726 0
M  V30 11413 C 1071.23 1.90996 -3.79217 0
M  V30 11414 O 1072.25 1.54155 -3.21115 0
M  V30 11415 O 1071.11 2.58917 -4.81274 0
M  V30 11416 H 1068.21 0.422755 -0.710779 0
M  V30 11417 H 1070.75 0.139961 -1.69122 0
M  V30 11418 H 1069.52 0.652635 -3.85819 0
M  V30 11419 H 1069.15 2.26326 -3.26898 0
M  V30 11420 N 1070.14 1.51827 0.422667 0
M  V30 11421 C 1071.07 1.77152 1.52117 0
M  V30 11422 C 1072.06 0.621895 1.58324 0
M  V30 11423 O 1073.24 0.866118 1.73816 0
M  V30 11424 C 1070.37 1.90991 2.90068 0
M  V30 11425 C 1069.32 3.06516 2.98717 0
M  V30 11426 C 1068.65 3.05559 4.38791 0
M  V30 11427 C 1069.95 4.46223 2.71445 0
M  V30 11428 H 1071.64 2.69135 1.31175 0
M  V30 11429 H 1069.19 1.29507 0.629607 0
M  V30 11430 H 1071.14 2.07291 3.6689 0
M  V30 11431 H 1069.87 0.956688 3.12274 0
M  V30 11432 H 1068.53 2.89945 2.24338 0
M  V30 11433 H 1068.17 2.07985 4.57986 0
M  V30 11434 H 1067.87 3.83144 4.45505 0
M  V30 11435 H 1069.4 3.23971 5.17566 0
M  V30 11436 H 1070.81 4.63069 3.37994 0
M  V30 11437 H 1069.21 5.25623 2.89552 0
M  V30 11438 H 1070.28 4.5525 1.6696 0
M  V30 11439 N 1071.62 -0.679052 1.4222 0
M  V30 11440 C 1072.87 -1.44125 1.42674 0
M  V30 11441 C 1073.2 -1.94156 0.041438 0
M  V30 11442 O 1072.48 -1.70628 -0.93361 0
M  V30 11443 C 1072.76 -2.64133 2.44756 0
M  V30 11444 C 1072.61 -2.19761 3.9246 0
M  V30 11445 C 1073.93 -3.66347 2.43881 0
M  V30 11446 H 1071.05 -0.522729 0.519541 0
M  V30 11447 H 1073.69 -0.772067 1.73606 0
M  V30 11448 H 1071.84 -3.21225 2.1851 0
M  V30 11449 H 1073.51 -1.67869 4.29671 0
M  V30 11450 H 1071.76 -1.51377 4.06531 0
M  V30 11451 H 1072.43 -3.05944 4.59459 0
M  V30 11452 H 1074.9 -3.18963 2.67211 0
M  V30 11453 H 1073.78 -4.47902 3.17293 0
M  V30 11454 H 1074.04 -4.17183 1.46325 0
M  V30 11455 N 1073.1 -1.28322 -0.914942 0
M  V30 11456 C 1074.33 -1.18254 -1.69775 0
M  V30 11457 C 1074.74 0.258978 -1.87015 0
M  V30 11458 O 1074.1 1.17514 -1.3963 0
M  V30 11459 C 1074.15 -1.8753 -3.09054 0
M  V30 11460 O 1073.87 -3.26051 -2.92613 0
M  V30 11461 C 1075.37 -1.83749 -4.03424 0
M  V30 11462 H 1072.59 -0.41055 -0.530744 0
M  V30 11463 H 1075.14 -1.69425 -1.14523 0
M  V30 11464 H 1073.29 -1.40233 -3.61128 0
M  V30 11465 H 1073.71 -3.60729 -3.80756 0
M  V30 11466 H 1075.18 -2.36813 -4.98622 0
M  V30 11467 H 1075.66 -0.809601 -4.31674 0
M  V30 11468 H 1076.26 -2.3072 -3.57279 0
M  V30 11469 N 1074.58 1.12322 -1.10551 0
M  V30 11470 C 1075.81 1.87407 -0.869607 0
M  V30 11471 C 1076.22 1.79976 0.58356 0
M  V30 11472 O 1075.56 1.1725 1.41415 0
M  V30 11473 C 1075.62 3.37401 -1.24099 0
M  V30 11474 C 1075.29 3.68607 -2.70144 0
M  V30 11475 C 1076.28 3.66869 -3.68379 0
M  V30 11476 C 1073.97 3.97903 -3.06559 0
M  V30 11477 C 1075.96 3.93987 -5.01052 0
M  V30 11478 C 1073.65 4.24681 -4.39419 0
M  V30 11479 C 1074.65 4.2271 -5.36475 0
M  V30 11480 O 1074.33 4.48823 -6.66943 0
M  V30 11481 H 1074.07 0.59978 -0.311834 0
M  V30 11482 H 1076.62 1.43037 -1.4741 0
M  V30 11483 H 1074.85 3.82332 -0.579606 0
M  V30 11484 H 1076.54 3.93833 -0.982378 0
M  V30 11485 H 1077.31 3.44297 -3.41591 0
M  V30 11486 H 1073.18 3.98578 -2.31638 0
M  V30 11487 H 1076.73 3.92364 -5.76798 0
M  V30 11488 H 1072.63 4.46727 -4.65945 0
M  V30 11489 H 1073.39 4.66436 -6.72592 0
M  V30 11490 N 1076.06 0.894434 1.2976 0
M  V30 11491 C 1076.97 0.372622 2.31622 0
M  V30 11492 C 1077.98 -0.52996 1.65733 0
M  V30 11493 O 1079.16 -0.420807 1.96955 0
M  V30 11494 C 1076.22 -0.396076 3.4443 0
M  V30 11495 C 1075.28 0.537394 4.25923 0
M  V30 11496 C 1074.52 -0.194713 5.33345 0
M  V30 11497 O 1074.74 -1.41943 5.52457 0
M  V30 11498 O 1073.67 0.460055 6.00139 0
M  V30 11499 H 1077.5 1.21756 2.78225 0
M  V30 11500 H 1075.09 0.65858 1.34101 0
M  V30 11501 H 1076.97 -0.830962 4.13126 0
M  V30 11502 H 1075.64 -1.21716 2.99945 0
M  V30 11503 H 1074.55 1.02129 3.5989 0
M  V30 11504 H 1075.88 1.32475 4.74037 0
M  V30 11505 N 1077.53 -1.43282 0.656365 0
M  V30 11506 C 1078.44 -2.34576 -0.033864 0
M  V30 11507 C 1079.46 -1.5406 -0.808793 0
M  V30 11508 O 1080.64 -1.867 -0.755322 0
M  V30 11509 C 1077.7 -3.32378 -0.986197 0
M  V30 11510 C 1076.76 -4.28797 -0.207851 0
M  V30 11511 C 1076 -5.21927 -1.11482 0
M  V30 11512 O 1076.22 -5.19554 -2.35414 0
M  V30 11513 O 1075.15 -5.99045 -0.585536 0
M  V30 11514 H 1078.98 -2.95099 0.717668 0
M  V30 11515 H 1076.56 -1.43475 0.416556 0
M  V30 11516 H 1078.45 -3.9251 -1.53341 0
M  V30 11517 H 1077.12 -2.74354 -1.7179 0
M  V30 11518 H 1076.03 -3.72134 0.383022 0
M  V30 11519 H 1077.36 -4.89811 0.48435 0
M  V30 11520 N 1079.01 -0.398486 -1.52479 0
M  V30 11521 C 1080.26 0.181019 -2.0199 0
M  V30 11522 C 1080.59 1.45691 -1.28405 0
M  V30 11523 O 1079.87 1.90607 -0.387207 0
M  V30 11524 C 1080.15 0.439587 -3.57407 0
M  V30 11525 C 1080 -0.85223 -4.41653 0
M  V30 11526 C 1081.32 1.2263 -4.2267 0
M  V30 11527 H 1078.44 0.0643164 -0.734188 0
M  V30 11528 H 1081.08 -0.52986 -1.82462 0
M  V30 11529 H 1079.23 1.04516 -3.74177 0
M  V30 11530 H 1080.91 -1.48879 -4.36615 0
M  V30 11531 H 1079.15 -1.46555 -4.08294 0
M  V30 11532 H 1079.82 -0.625839 -5.48441 0
M  V30 11533 H 1082.3 0.713722 -4.09933 0
M  V30 11534 H 1081.17 1.37596 -5.31374 0
M  V30 11535 H 1081.43 2.24403 -3.80914 0
M  V30 11536 N 1080.49 1.57075 -0.12858 0
M  V30 11537 C 1081.74 1.9581 0.527868 0
M  V30 11538 C 1082.07 1.01253 1.65715 0
M  V30 11539 O 1081.35 0.0514853 1.94432 0
M  V30 11540 C 1081.63 3.44406 1.05151 0
M  V30 11541 C 1081.48 4.49737 -0.0750113 0
M  V30 11542 C 1082.8 3.95069 1.9393 0
M  V30 11543 H 1079.92 0.711978 0.19041 0
M  V30 11544 H 1082.56 1.88879 -0.206081 0
M  V30 11545 H 1080.71 3.50443 1.67697 0
M  V30 11546 H 1082.38 4.55793 -0.710685 0
M  V30 11547 H 1080.63 4.27497 -0.736809 0
M  V30 11548 H 1081.3 5.50996 0.332779 0
M  V30 11549 H 1083.77 3.91395 1.41241 0
M  V30 11550 H 1082.65 4.99542 2.27484 0
M  V30 11551 H 1082.91 3.36329 2.86941 0
M  V30 11552 N 1081.97 -0.145205 1.5693 0
M  V30 11553 C 1082.92 -1.17923 1.98401 0
M  V30 11554 C 1083.89 -1.42591 0.851885 0
M  V30 11555 O 1085.07 -1.54896 1.11409 0
M  V30 11556 C 1082.21 -2.50727 2.37128 0
M  V30 11557 C 1081.32 -2.33218 3.63639 0
M  V30 11558 C 1080.46 -3.5907 3.91462 0
M  V30 11559 C 1079.5 -3.36605 5.11237 0
M  V30 11560 N 1078.64 -4.54592 5.35061 0
M  V30 11561 H 1083.48 -0.818573 2.86537 0
M  V30 11562 H 1081.01 -0.392739 1.4176 0
M  V30 11563 H 1082.97 -3.28165 2.57611 0
M  V30 11564 H 1081.6 -2.84736 1.52069 0
M  V30 11565 H 1080.65 -1.46826 3.50922 0
M  V30 11566 H 1081.96 -2.12579 4.51234 0
M  V30 11567 H 1081.12 -4.44936 4.12453 0
M  V30 11568 H 1079.86 -3.82715 3.02293 0
M  V30 11569 H 1078.86 -2.49127 4.90118 0
M  V30 11570 H 1080.09 -3.14357 6.01961 0
M  V30 11571 H 1078.03 -4.78406 4.48847 0
M  V30 11572 H 1077.95 -4.36962 6.16928 0
M  V30 11573 H 1079.22 -5.41666 5.60551 0
M  V30 11574 N 1083.45 -1.52049 -0.414609 0
M  V30 11575 C 1084.38 -1.77956 -1.51175 0
M  V30 11576 C 1085.36 -0.630282 -1.57992 0
M  V30 11577 O 1086.54 -0.875324 -1.73354 0
M  V30 11578 C 1083.67 -1.92527 -2.89051 0
M  V30 11579 C 1082.63 -3.08096 -2.97087 0
M  V30 11580 C 1081.95 -3.07882 -4.37164 0
M  V30 11581 C 1083.25 -4.47656 -2.69075 0
M  V30 11582 H 1084.95 -2.69827 -1.29746 0
M  V30 11583 H 1082.49 -1.29839 -0.62273 0
M  V30 11584 H 1084.45 -2.09234 -3.65786 0
M  V30 11585 H 1083.17 -0.973235 -3.11762 0
M  V30 11586 H 1081.83 -2.91131 -2.22797 0
M  V30 11587 H 1081.48 -2.10411 -4.56877 0
M  V30 11588 H 1081.18 -3.85501 -4.43467 0
M  V30 11589 H 1082.7 -3.26712 -5.15841 0
M  V30 11590 H 1084.12 -4.64855 -3.35534 0
M  V30 11591 H 1082.51 -5.27151 -2.8676 0
M  V30 11592 H 1083.58 -4.56129 -1.64544 0
M  V30 11593 N 1084.93 0.6715 -1.42579 0
M  V30 11594 C 1086.34 1.2522 -1.38481 0
M  V30 11595 C 1086.69 1.96038 -0.079719 0
M  V30 11596 O 1085.81 2.00203 0.821441 0
M  V30 11597 C 1086.41 2.27736 -2.50842 0
M  V30 11598 C 1084.97 2.81325 -2.50067 0
M  V30 11599 C 1084.11 1.55694 -2.29466 0
M  V30 11600 H 1087.06 0.464673 -1.51745 0
M  V30 11601 H 1087.09 3.09539 -2.21283 0
M  V30 11602 H 1086.6 1.76164 -3.45815 0
M  V30 11603 H 1084.7 3.37008 -1.58922 0
M  V30 11604 H 1084.81 3.30116 -3.47218 0
M  V30 11605 H 1083.18 1.82383 -1.77788 0
M  V30 11606 H 1083.96 1.06084 -3.26498 0
M  V30 11607 N 1086.4 1.28806 0.908124 0
M  V30 11608 C 1087.37 1.13228 1.99279 0
M  V30 11609 C 1088.37 0.0702456 1.60646 0
M  V30 11610 O 1089.56 0.316494 1.71301 0
M  V30 11611 C 1086.69 0.729629 3.33 0
M  V30 11612 H 1087.88 2.09566 2.14528 0
M  V30 11613 H 1085.43 1.11872 1.09153 0
M  V30 11614 H 1086.17 -0.234268 3.23453 0
M  V30 11615 H 1085.95 1.49688 3.62403 0
M  V30 11616 H 1087.44 0.643449 4.12613 0
M  V30 11617 N 1087.88 -1.11734 1.11145 0
M  V30 11618 C 1089.13 -1.83405 0.858413 0
M  V30 11619 C 1089.46 -1.84488 -0.615975 0
M  V30 11620 O 1088.71 -1.29123 -1.47057 0
M  V30 11621 C 1089.01 -3.3046 1.36129 0
M  V30 11622 C 1088.68 -3.4954 2.84837 0
M  V30 11623 C 1087.34 -3.54456 3.25445 0
M  V30 11624 C 1089.69 -3.56048 3.8063 0
M  V30 11625 C 1087.02 -3.63431 4.60581 0
M  V30 11626 C 1089.37 -3.66554 5.15579 0
M  V30 11627 C 1088.03 -3.69728 5.55749 0
M  V30 11628 H 1087.3 -0.671128 0.314115 0
M  V30 11629 H 1089.95 -1.31795 1.38933 0
M  V30 11630 H 1088.26 -3.84544 0.750547 0
M  V30 11631 H 1089.95 -3.84398 1.14188 0
M  V30 11632 H 1086.54 -3.46382 2.52423 0
M  V30 11633 H 1090.73 -3.51513 3.5036 0
M  V30 11634 H 1085.98 -3.64164 4.91116 0
M  V30 11635 H 1090.16 -3.70532 5.89643 0
M  V30 11636 H 1087.78 -3.76435 6.60455 0
M  V30 11637 N 1089.36 -0.901303 -1.29284 0
M  V30 11638 C 1090.31 -0.378666 -2.27672 0
M  V30 11639 C 1091.28 0.540102 -1.57074 0
M  V30 11640 O 1092.46 0.464997 -1.85047 0
M  V30 11641 C 1089.6 0.38635 -3.42931 0
M  V30 11642 C 1088.71 -0.563496 -4.28309 0
M  V30 11643 C 1087.85 0.218731 -5.30749 0
M  V30 11644 C 1086.89 -0.725536 -6.07785 0
M  V30 11645 N 1086.03 0.0223854 -7.02096 0
M  V30 11646 H 1090.87 -1.22277 -2.71758 0
M  V30 11647 H 1088.4 -0.614302 -1.33659 0
M  V30 11648 H 1090.36 0.845967 -4.08533 0
M  V30 11649 H 1088.99 1.1949 -2.9987 0
M  V30 11650 H 1088.04 -1.14163 -3.62865 0
M  V30 11651 H 1089.35 -1.28623 -4.81931 0
M  V30 11652 H 1088.51 0.739473 -6.02177 0
M  V30 11653 H 1087.25 0.97459 -4.77863 0
M  V30 11654 H 1086.25 -1.25776 -5.3522 0
M  V30 11655 H 1087.48 -1.48075 -6.6276 0
M  V30 11656 H 1085.42 0.760482 -6.51577 0
M  V30 11657 H 1085.34 -0.640408 -7.53283 0
M  V30 11658 H 1086.61 0.523339 -7.77741 0
M  V30 11659 N 1090.84 1.42931 -0.663954 0
M  V30 11660 C 1092.25 1.56098 -0.332496 0
M  V30 11661 C 1092.45 1.64564 1.16279 0
M  V30 11662 O 1091.51 1.6066 1.94794 0
M  V30 11663 C 1092.82 2.81649 -1.05329 0
M  V30 11664 C 1094.37 2.95408 -1.03457 0
M  V30 11665 C 1094.85 4.23805 -1.73647 0
M  V30 11666 N 1096.34 4.30693 -1.70462 0
M  V30 11667 C 1097.07 5.28833 -2.21637 0
M  V30 11668 N 1096.57 6.33189 -2.81147 0
M  V30 11669 N 1098.36 5.20558 -2.12075 0
M  V30 11670 H 1090.51 1.3568 -1.63416 0
M  V30 11671 H 1092.77 0.652361 -0.687844 0
M  V30 11672 H 1092.48 2.81494 -2.10842 0
M  V30 11673 H 1092.35 3.72208 -0.611626 0
M  V30 11674 H 1094.74 2.95097 0.0121936 0
M  V30 11675 H 1094.82 2.06109 -1.51502 0
M  V30 11676 H 1094.47 4.24876 -2.78285 0
M  V30 11677 H 1094.4 5.12019 -1.2306 0
M  V30 11678 H 1096.89 3.55904 -1.27046 0
M  V30 11679 H 1097.2 7.04411 -3.17844 0
M  V30 11680 H 1095.55 6.33781 -2.85212 0
M  V30 11681 H 1098.74 4.3795 -1.6528 0
M  V30 11682 H 1098.91 5.96881 -2.52264 0
M  V30 11683 N 1092.32 0.406567 1.52266 0
M  V30 11684 C 1093.26 -0.420182 2.26943 0
M  V30 11685 C 1094.23 -1.04323 1.29251 0
M  V30 11686 O 1095.42 -1.06799 1.5811 0
M  V30 11687 C 1092.56 -1.5323 3.09216 0
M  V30 11688 C 1091.67 -0.930419 4.21862 0
M  V30 11689 C 1090.81 -2.01502 4.91498 0
M  V30 11690 C 1089.84 -1.38994 5.9611 0
M  V30 11691 N 1088.98 -2.41458 6.59274 0
M  V30 11692 H 1093.82 0.223066 2.97164 0
M  V30 11693 H 1091.36 0.121842 1.46595 0
M  V30 11694 H 1093.32 -2.18803 3.5522 0
M  V30 11695 H 1091.95 -2.14561 2.41171 0
M  V30 11696 H 1091 -0.163809 3.80047 0
M  V30 11697 H 1092.31 -0.433785 4.9691 0
M  V30 11698 H 1091.46 -2.74807 5.40894 0
M  V30 11699 H 1090.2 -2.5453 4.16012 0
M  V30 11700 H 1089.21 -0.642213 5.46036 0
M  V30 11701 H 1090.43 -0.867386 6.73538 0
M  V30 11702 H 1088.38 -2.93623 5.86619 0
M  V30 11703 H 1088.3 -1.96599 7.2999 0
M  V30 11704 H 1089.56 -3.14341 7.13309 0
M  V30 11705 N 1093.79 -1.57004 0.136909 0
M  V30 11706 C 1095.02 -2.00156 -0.523936 0
M  V30 11707 C 1095.44 -1.01688 -1.59075 0
M  V30 11708 O 1094.79 -0.0123678 -1.82496 0
M  V30 11709 C 1094.85 -3.4326 -1.13379 0
M  V30 11710 O 1094.57 -4.37963 -0.109598 0
M  V30 11711 C 1096.07 -4.01637 -1.87623 0
M  V30 11712 H 1093.29 -0.65681 -0.137263 0
M  V30 11713 H 1095.83 -2.03219 0.228522 0
M  V30 11714 H 1093.99 -3.4108 -1.83693 0
M  V30 11715 H 1094.4 -5.21555 -0.55503 0
M  V30 11716 H 1095.87 -5.03795 -2.25597 0
M  V30 11717 H 1096.35 -3.41781 -2.75831 0
M  V30 11718 H 1096.96 -4.07417 -1.22031 0
M  V30 11719 N 1095.27 0.136881 -1.57004 0
M  V30 11720 C 1096.2 1.17026 -2.02057 0
M  V30 11721 C 1097.18 1.44223 -0.901866 0
M  V30 11722 O 1098.37 1.54971 -1.17037 0
M  V30 11723 C 1095.5 2.50095 -2.40977 0
M  V30 11724 C 1094.45 2.37398 -3.56127 0
M  V30 11725 C 1093.78 3.75268 -3.80891 0
M  V30 11726 C 1095.08 1.84952 -4.88457 0
M  V30 11727 H 1096.77 0.795601 -2.88636 0
M  V30 11728 H 1094.32 0.381266 -1.38861 0
M  V30 11729 H 1096.27 3.22621 -2.71097 0
M  V30 11730 H 1095 2.89416 -1.51348 0
M  V30 11731 H 1093.65 1.67322 -3.26188 0
M  V30 11732 H 1093.3 4.12043 -2.88496 0
M  V30 11733 H 1093 3.67631 -4.5839 0
M  V30 11734 H 1094.53 4.49327 -4.13446 0
M  V30 11735 H 1095.94 2.4728 -5.17229 0
M  V30 11736 H 1094.34 1.88181 -5.69832 0
M  V30 11737 H 1095.41 0.805848 -4.78157 0
M  V30 11738 N 1096.75 1.52266 0.40654 0
M  V30 11739 C 1098 1.66699 1.15496 0
M  V30 11740 C 1098.33 0.397019 1.90098 0
M  V30 11741 O 1097.6 -0.604646 1.84863 0
M  V30 11742 C 1097.89 2.8907 2.14734 0
M  V30 11743 C 1097.74 4.26123 1.44012 0
M  V30 11744 C 1099.06 3.06966 3.15373 0
M  V30 11745 H 1096.18 0.606642 0.418515 0
M  V30 11746 H 1098.82 1.84826 0.440381 0
M  V30 11747 H 1096.97 2.73745 2.75673 0
M  V30 11748 H 1098.64 4.5318 0.861722 0
M  V30 11749 H 1096.89 4.27406 0.742064 0
M  V30 11750 H 1097.56 5.07799 2.16436 0
M  V30 11751 H 1100.03 3.21205 2.64512 0
M  V30 11752 H 1098.91 3.94097 3.82072 0
M  V30 11753 H 1099.17 2.20395 3.83247 0
M  V30 11754 N 1098.23 -0.663929 1.42933 0
M  V30 11755 C 1099.16 -1.78899 1.50058 0
M  V30 11756 C 1100.14 -1.66329 0.356164 0
M  V30 11757 O 1101.32 -1.85587 0.571944 0
M  V30 11758 C 1098.45 -3.17265 1.41281 0
M  V30 11759 C 1097.41 -3.44584 2.53861 0
M  V30 11760 C 1096.73 -4.82638 2.3014 0
M  V30 11761 C 1098.03 -3.40394 3.96143 0
M  V30 11762 H 1099.73 -1.73194 2.44222 0
M  V30 11763 H 1097.27 -0.83182 1.17545 0
M  V30 11764 H 1099.23 -3.95715 1.44872 0
M  V30 11765 H 1097.95 -3.23675 0.43616 0
M  V30 11766 H 1096.61 -2.685 2.49606 0
M  V30 11767 H 1096.26 -4.85711 1.30743 0
M  V30 11768 H 1095.96 -5.01879 3.056 0
M  V30 11769 H 1097.48 -5.63359 2.35497 0
M  V30 11770 H 1098.9 -4.08796 4.01943 0
M  V30 11771 H 1097.29 -3.7117 4.71543 0
M  V30 11772 H 1098.36 -2.38767 4.22041 0
M  V30 11773 N 1099.71 -1.29285 -0.901281 0
M  V30 11774 C 1100.64 -1.16832 -2.0217 0
M  V30 11775 C 1101.62 -0.0629265 -1.69984 0
M  V30 11776 O 1102.8 -0.242123 -1.92685 0
M  V30 11777 C 1099.93 -0.842406 -3.36929 0
M  V30 11778 C 1098.89 -1.90394 -3.8332 0
M  V30 11779 C 1098.21 -1.43138 -5.15185 0
M  V30 11780 C 1099.51 -3.31254 -4.03817 0
M  V30 11781 H 1101.21 -2.10562 -2.12847 0
M  V30 11782 H 1098.75 -1.01375 -1.0227 0
M  V30 11783 H 1100.71 -0.741999 -4.14816 0
M  V30 11784 H 1099.43 0.130598 -3.26339 0
M  V30 11785 H 1098.09 -1.99371 -3.07647 0
M  V30 11786 H 1097.74 -0.447091 -5.01009 0
M  V30 11787 H 1097.44 -2.14129 -5.47195 0
M  V30 11788 H 1098.96 -1.34444 -5.95615 0
M  V30 11789 H 1100.37 -3.25129 -4.72191 0
M  V30 11790 H 1098.77 -4.00189 -4.47178 0
M  V30 11791 H 1099.84 -3.74349 -3.08206 0
M  V30 11792 N 1101.18 1.11143 -1.11736 0
M  V30 11793 C 1102.43 1.82586 -0.866412 0
M  V30 11794 C 1102.75 1.85227 0.609593 0
M  V30 11795 O 1102.02 1.32505 1.44288 0
M  V30 11796 H 1100.6 0.676149 -0.31754 0
M  V30 11797 H 1103.27 1.34516 -1.41037 0
M  V30 11798 H 1102.36 2.8635 -1.24136 0
M  V30 11799 N 1102.66 0.908147 1.28804 0
M  V30 11800 C 1103.63 0.397058 2.25735 0
M  V30 11801 C 1104.63 -0.473483 1.53671 0
M  V30 11802 O 1105.82 -0.277335 1.71978 0
M  V30 11803 C 1102.95 -0.431392 3.38159 0
M  V30 11804 H 1104.14 1.25323 2.72459 0
M  V30 11805 H 1101.69 0.687041 1.4039 0
M  V30 11806 H 1102.43 -1.3072 2.96787 0
M  V30 11807 H 1102.21 0.192502 3.91627 0
M  V30 11808 H 1103.7 -0.78 4.10251 0
M  V30 11809 N 1104.14 -1.42577 0.671525 0
M  V30 11810 C 1105.09 -2.27978 -0.0315286 0
M  V30 11811 C 1106.07 -1.40907 -0.776796 0
M  V30 11812 O 1107.27 -1.64385 -0.656248 0
M  V30 11813 C 1104.4 -3.28884 -0.9844 0
M  V30 11814 C 1103.48 -4.23439 -0.236647 0
M  V30 11815 N 1103.87 -5.00107 0.756714 0
M  V30 11816 C 1102.17 -4.43457 -0.475551 0
M  V30 11817 C 1102.87 -5.69141 1.20221 0
M  V30 11818 N 1101.85 -5.40983 0.532802 0
M  V30 11819 H 1105.65 -2.84678 0.730455 0
M  V30 11820 H 1103.16 -1.54501 0.500317 0
M  V30 11821 H 1105.16 -3.88864 -1.50302 0
M  V30 11822 H 1103.82 -2.73745 -1.74625 0
M  V30 11823 H 1104.83 -5.05285 1.13613 0
M  V30 11824 H 1101.51 -3.99364 -1.21715 0
M  V30 11825 H 1102.9 -6.40653 2.02517 0
M  V30 11826 N 1105.62 -0.414636 -1.52048 0
M  V30 11827 C 1106.87 0.159034 -2.01473 0
M  V30 11828 C 1107.19 1.45176 -1.30188 0
M  V30 11829 O 1106.46 1.91134 -0.429469 0
M  V30 11830 H 1105.04 0.0617604 -0.744443 0
M  V30 11831 H 1107.7 -0.552141 -1.86916 0
M  V30 11832 H 1106.8 0.351217 -3.10118 0
M  V30 11833 N 1107.1 1.56929 -0.145233 0
M  V30 11834 C 1108.34 1.96358 0.50707 0
M  V30 11835 C 1108.68 1.03005 1.64632 0
M  V30 11836 O 1107.95 0.0721045 1.94366 0
M  V30 11837 C 1108.23 3.45502 1.01492 0
M  V30 11838 C 1108.09 4.49633 -0.122708 0
M  V30 11839 C 1109.41 3.97103 1.89729 0
M  V30 11840 H 1106.52 0.713958 0.182848 0
M  V30 11841 H 1109.17 1.8865 -0.226102 0
M  V30 11842 H 1107.32 3.52202 1.6397 0
M  V30 11843 H 1108.99 4.55013 -0.758988 0
M  V30 11844 H 1107.23 4.26691 -0.782109 0
M  V30 11845 H 1107.9 5.51318 0.27432 0
M  V30 11846 H 1110.38 3.92871 1.37082 0
M  V30 11847 H 1109.25 5.01927 2.22173 0
M  V30 11848 H 1109.52 3.39354 2.83357 0
M  V30 11849 N 1108.58 -0.128553 1.57075 0
M  V30 11850 C 1109.82 -0.836355 1.83982 0
M  V30 11851 C 1110.14 -1.80862 0.728971 0
M  V30 11852 O 1109.41 -1.94326 -0.247859 0
M  V30 11853 H 1107.99 -0.31185 0.678792 0
M  V30 11854 H 1110.66 -0.118153 1.94542 0
M  V30 11855 H 1109.75 -1.38741 2.79567 0
M  V30 11856 N 1110.05 -1.5248 -0.398459 0
M  V30 11857 C 1111.47 -1.4152 -0.737854 0
M  V30 11858 C 1111.67 -0.528122 -1.94456 0
M  V30 11859 O 1110.73 0.00203799 -2.525 0
M  V30 11860 C 1112.04 -2.8422 -0.9818 0
M  V30 11861 C 1113.59 -2.93635 -1.08386 0
M  V30 11862 C 1114.06 -4.37327 -1.3605 0
M  V30 11863 N 1115.55 -4.40609 -1.42892 0
M  V30 11864 C 1116.29 -5.48863 -1.65944 0
M  V30 11865 N 1115.78 -6.67217 -1.86529 0
M  V30 11866 N 1117.58 -5.36393 -1.68046 0
M  V30 11867 H 1109.73 -2.08681 0.395705 0
M  V30 11868 H 1111.99 -0.941023 0.114801 0
M  V30 11869 H 1111.7 -3.51302 -0.167358 0
M  V30 11870 H 1111.57 -3.25907 -1.89907 0
M  V30 11871 H 1113.96 -2.26728 -1.88888 0
M  V30 11872 H 1114.04 -2.5539 -0.144714 0
M  V30 11873 H 1113.68 -5.04797 -0.56061 0
M  V30 11874 H 1113.61 -4.73116 -2.31233 0
M  V30 11875 H 1116.1 -3.55298 -1.2873 0
M  V30 11876 H 1116.42 -7.45498 -2.03599 0
M  V30 11877 H 1114.76 -6.70263 -1.83773 0
M  V30 11878 H 1117.95 -4.42903 -1.51509 0
M  V30 11879 H 1118.13 -6.2083 -1.85672 0
M  V30 11880 N 1111.53 0.65634 -1.43283 0
M  V30 11881 C 1112.95 0.971645 -1.26614 0
M  V30 11882 C 1113.15 2.00662 -0.183612 0
M  V30 11883 O 1112.2 2.48654 0.439003 0
M  V30 11884 C 1113.52 1.45888 -2.6294 0
M  V30 11885 C 1115.06 1.57569 -2.70446 0
M  V30 11886 C 1115.54 2.09684 -4.07181 0
M  V30 11887 N 1117.03 2.16991 -4.0923 0
M  V30 11888 C 1117.77 2.5843 -5.11861 0
M  V30 11889 N 1117.26 2.99188 -6.24867 0
M  V30 11890 N 1119.05 2.58342 -4.99215 0
M  V30 11891 H 1111.21 -0.028573 -2.12381 0
M  V30 11892 H 1113.47 0.0497918 -0.946691 0
M  V30 11893 H 1113.17 0.772823 -3.43104 0
M  V30 11894 H 1113.05 2.43445 -2.88122 0
M  V30 11895 H 1115.44 2.25277 -1.90616 0
M  V30 11896 H 1115.52 0.584529 -2.49032 0
M  V30 11897 H 1115.16 1.42579 -4.87477 0
M  V30 11898 H 1115.09 3.09625 -4.25958 0
M  V30 11899 H 1117.58 1.88278 -3.27658 0
M  V30 11900 H 1117.89 3.29549 -6.99012 0
M  V30 11901 H 1116.24 2.97 -6.28344 0
M  V30 11902 H 1119.43 2.25875 -4.09998 0
M  V30 11903 H 1119.6 2.90316 -5.79328 0
M  V30 11904 N 1113.01 1.29761 0.894412 0
M  V30 11905 C 1113.96 1.11962 1.98617 0
M  V30 11906 C 1114.94 0.0374952 1.60856 0
M  V30 11907 O 1116.14 0.259789 1.75083 0
M  V30 11908 C 1113.26 0.803708 3.3376 0
M  V30 11909 C 1112.35 1.92563 3.77863 0
M  V30 11910 N 1112.74 3.16983 3.94152 0
M  V30 11911 C 1111.04 1.81986 4.07182 0
M  V30 11912 C 1111.74 3.90212 4.31404 0
M  V30 11913 N 1110.72 3.18194 4.40742 0
M  V30 11914 H 1114.52 2.06339 2.09287 0
M  V30 11915 H 1112.03 1.20963 1.08359 0
M  V30 11916 H 1114.03 0.657223 4.11687 0
M  V30 11917 H 1112.69 -0.132098 3.24431 0
M  V30 11918 H 1113.7 3.52378 3.79539 0
M  V30 11919 H 1110.38 0.957112 4.06381 0
M  V30 11920 H 1111.77 4.97312 4.51808 0
M  V30 11921 N 1114.49 -1.10549 1.12324 0
M  V30 11922 C 1115.74 -1.81851 0.872531 0
M  V30 11923 C 1116.05 -1.86058 -0.603468 0
M  V30 11924 O 1117.26 -2.53553 -0.970736 0
M  V30 11925 C 1115.71 -3.26631 1.51131 0
M  V30 11926 C 1115.32 -3.30725 3.02201 0
M  V30 11927 C 1117.06 -4.02768 1.34082 0
M  V30 11928 C 1114.97 -4.69957 3.59018 0
M  V30 11929 H 1113.9 -0.681422 0.322769 0
M  V30 11930 H 1116.55 -1.24332 1.34959 0
M  V30 11931 H 1114.93 -3.8414 0.961913 0
M  V30 11932 H 1116.11 -2.83046 3.63623 0
M  V30 11933 H 1114.42 -2.68072 3.18632 0
M  V30 11934 H 1117.02 -5.05612 1.73955 0
M  V30 11935 H 1117.36 -4.15328 0.284369 0
M  V30 11936 H 1117.9 -3.51671 1.85937 0
M  V30 11937 H 1114.63 -4.62597 4.64418 0
M  V30 11938 H 1114.15 -5.18008 3.02371 0
M  V30 11939 H 1115.83 -5.38925 3.58007 0
M  V30 11940 N 1115.97 -0.914965 -1.28321 0
M  V30 11941 C 1116.91 -0.402792 -2.27258 0
M  V30 11942 C 1117.88 0.523412 -1.57638 0
M  V30 11943 O 1119.07 0.445344 -1.8553 0
M  V30 11944 C 1116.21 0.349956 -3.43321 0
M  V30 11945 C 1115.32 -0.608892 -4.27687 0
M  V30 11946 C 1114.46 0.162425 -5.30952 0
M  V30 11947 C 1113.49 -0.789959 -6.06981 0
M  V30 11948 N 1112.63 -0.0520826 -7.02081 0
M  V30 11949 H 1117.47 -1.25153 -2.70446 0
M  V30 11950 H 1115.01 -0.628444 -1.33 0
M  V30 11951 H 1116.97 0.802589 -4.09407 0
M  V30 11952 H 1115.6 1.16303 -3.01121 0
M  V30 11953 H 1114.65 -1.18005 -3.61634 0
M  V30 11954 H 1115.96 -1.33727 -4.8054 0
M  V30 11955 H 1115.11 0.675563 -6.02927 0
M  V30 11956 H 1113.85 0.923851 -4.7887 0
M  V30 11957 H 1112.86 -1.31446 -5.33856 0
M  V30 11958 H 1114.08 -1.55096 -6.61152 0
M  V30 11959 H 1112.03 0.691331 -6.52347 0
M  V30 11960 H 1111.95 -0.720267 -7.52561 0
M  V30 11961 H 1113.21 0.44082 -7.78253 0
M  V30 11962 N 1117.44 1.42219 -0.679077 0
M  V30 11963 C 1118.39 2.32599 0.00820028 0
M  V30 11964 C 1119.39 1.50059 0.786046 0
M  V30 11965 O 1120.59 1.66103 0.693528 0
M  V30 11966 H 1116.97 0.751694 0.0214483 0
M  V30 11967 H 1118.94 2.88257 -0.77138 0
M  V30 11968 C 1117.69 3.3468 0.942581 0
M  V30 11969 H 1117.01 3.98234 0.353463 0
M  V30 11970 H 1118.45 4.00496 1.39208 0
M  V30 11971 C 1116.91 2.67275 2.05099 0
M  V30 11972 O 1117.44 2.50793 3.13793 0
M  V30 11973 N 1115.64 2.26232 1.82394 0
M  V30 11974 H 1115.19 2.39838 0.939983 0
M  V30 11975 H 1115.15 1.81465 2.56744 0
M  V30 11976 N 1118.92 0.422693 1.51826 0
M  V30 11977 C 1120.15 -0.147744 2.06372 0
M  V30 11978 C 1120.56 -1.37714 1.29152 0
M  V30 11979 O 1119.92 -1.7917 0.347046 0
M  V30 11980 C 1119.97 -0.484642 3.58237 0
M  V30 11981 O 1119.69 0.695944 4.32537 0
M  V30 11982 C 1121.19 -1.10734 4.29247 0
M  V30 11983 H 1118.41 -0.0144047 0.670845 0
M  V30 11984 H 1120.96 0.597558 1.95575 0
M  V30 11985 H 1119.11 -1.17984 3.68997 0
M  V30 11986 H 1119.53 0.411471 5.22884 0
M  V30 11987 H 1121 -1.29318 5.36639 0
M  V30 11988 H 1121.48 -2.08429 3.86593 0
M  V30 11989 H 1122.08 -0.451958 4.22892 0
M  V30 11990 N 1120.4 -1.5685 0.153553 0
M  V30 11991 C 1121.33 -2.20101 -0.779601 0
M  V30 11992 C 1122.31 -1.15121 -1.25225 0
M  V30 11993 O 1123.5 -1.43487 -1.30862 0
M  V30 11994 C 1120.63 -2.82778 -2.01628 0
M  V30 11995 C 1119.58 -3.93643 -1.68015 0
M  V30 11996 C 1118.91 -4.43286 -2.99001 0
M  V30 11997 C 1120.21 -5.14102 -0.921774 0
M  V30 11998 H 1121.9 -2.98334 -0.252432 0
M  V30 11999 H 1119.45 -1.43499 -0.119975 0
M  V30 12000 H 1121.4 -3.25696 -2.67395 0
M  V30 12001 H 1120.12 -2.01887 -2.56728 0
M  V30 12002 H 1118.78 -3.51354 -1.04624 0
M  V30 12003 H 1118.43 -3.59208 -3.52106 0
M  V30 12004 H 1118.13 -5.18068 -2.77272 0
M  V30 12005 H 1119.65 -4.88878 -3.65828 0
M  V30 12006 H 1121.07 -5.53823 -1.48167 0
M  V30 12007 H 1119.46 -5.94687 -0.804185 0
M  V30 12008 H 1120.53 -4.84825 0.0852757 0
M  V30 12009 N 1121.88 0.120221 -1.57141 0
M  V30 12010 C 1123.13 0.826791 -1.83976 0
M  V30 12011 C 1123.44 1.81102 -0.739014 0
M  V30 12012 O 1124.65 2.56368 -0.893736 0
M  V30 12013 C 1123.1 1.52108 -3.26176 0
M  V30 12014 C 1122.71 0.577902 -4.44257 0
M  V30 12015 C 1124.45 2.21286 -3.62261 0
M  V30 12016 C 1122.36 1.27535 -5.77485 0
M  V30 12017 H 1121.29 0.312508 -0.686189 0
M  V30 12018 H 1123.94 0.0795343 -1.83328 0
M  V30 12019 H 1122.32 2.31492 -3.2129 0
M  V30 12020 H 1123.5 -0.182629 -4.60438 0
M  V30 12021 H 1121.81 -0.00684348 -4.16399 0
M  V30 12022 H 1124.41 2.74154 -4.59068 0
M  V30 12023 H 1124.75 2.99029 -2.89634 0
M  V30 12024 H 1125.29 1.48791 -3.68925 0
M  V30 12025 H 1122.02 0.539237 -6.53278 0
M  V30 12026 H 1121.54 2.00792 -5.65192 0
M  V30 12027 H 1123.22 1.80888 -6.21199 0
M  V30 12028 N 1123.36 1.52689 0.390367 0
M  V30 12029 C 1124.58 1.71541 1.15678 0
M  V30 12030 C 1125 0.433171 1.83764 0
M  V30 12031 O 1124.36 -0.592248 1.72623 0
M  V30 12032 C 1124.41 2.864 2.20584 0
M  V30 12033 O 1124.13 4.0966 1.55274 0
M  V30 12034 C 1125.63 3.1692 3.09962 0
M  V30 12035 H 1122.85 0.574381 0.346883 0
M  V30 12036 H 1125.39 1.99332 0.456851 0
M  V30 12037 H 1123.55 2.61075 2.86214 0
M  V30 12038 H 1123.96 4.73802 2.2497 0
M  V30 12039 H 1125.44 4.00755 3.79604 0
M  V30 12040 H 1125.91 2.31245 3.73393 0
M  V30 12041 H 1126.52 3.4408 2.49979 0
M  V30 12042 N 1124.83 -0.648732 1.43629 0
M  V30 12043 C 1125.78 -1.76145 1.49136 0
M  V30 12044 C 1126.75 -1.62569 0.340649 0
M  V30 12045 O 1127.94 -1.82748 0.548435 0
M  V30 12046 C 1125.08 -3.14321 1.42466 0
M  V30 12047 C 1124.19 -3.38999 2.67776 0
M  V30 12048 C 1123.32 -4.67047 2.53062 0
M  V30 12049 C 1122.36 -4.84845 3.7362 0
M  V30 12050 N 1121.5 -6.04155 3.57689 0
M  V30 12051 H 1126.34 -1.70774 2.44213 0
M  V30 12052 H 1123.88 -0.833311 1.2122 0
M  V30 12053 H 1125.84 -3.94206 1.36592 0
M  V30 12054 H 1124.47 -3.18751 0.509666 0
M  V30 12055 H 1123.52 -2.53179 2.83909 0
M  V30 12056 H 1124.83 -3.48035 3.57314 0
M  V30 12057 H 1123.98 -5.55066 2.44922 0
M  V30 12058 H 1122.72 -4.60339 1.61056 0
M  V30 12059 H 1121.73 -3.95261 3.82163 0
M  V30 12060 H 1122.95 -4.9338 4.6664 0
M  V30 12061 H 1120.9 -5.9857 2.6842 0
M  V30 12062 H 1120.82 -6.14169 4.40832 0
M  V30 12063 H 1122.08 -6.94782 3.53409 0
M  V30 12064 N 1126.31 -1.30234 -0.887518 0
M  V30 12065 C 1127.26 -1.13013 -1.9802 0
M  V30 12066 C 1128.25 -0.0460253 -1.60834 0
M  V30 12067 O 1129.44 -0.26907 -1.74943 0
M  V30 12068 C 1126.57 -0.821397 -3.33329 0
M  V30 12069 C 1125.65 -1.94564 -3.76837 0
M  V30 12070 N 1126.04 -3.19068 -3.92465 0
M  V30 12071 C 1124.34 -1.84142 -4.06211 0
M  V30 12072 C 1125.04 -3.92495 -4.29328 0
M  V30 12073 N 1124.02 -3.20526 -4.39049 0
M  V30 12074 H 1127.82 -2.07446 -2.0819 0
M  V30 12075 H 1125.34 -1.21536 -1.07716 0
M  V30 12076 H 1127.33 -0.679046 -4.11333 0
M  V30 12077 H 1125.99 0.114891 -3.24497 0
M  V30 12078 H 1127 -3.54386 -3.77665 0
M  V30 12079 H 1123.68 -0.97865 -4.05868 0
M  V30 12080 H 1125.07 -4.99701 -4.49164 0
M  V30 12081 N 1127.79 1.09952 -1.12909 0
M  V30 12082 C 1129.2 1.63516 -0.901087 0
M  V30 12083 C 1129.55 1.87932 0.563547 0
M  V30 12084 O 1128.68 1.625 1.42908 0
M  V30 12085 C 1129.27 2.97054 -1.62924 0
M  V30 12086 C 1127.83 3.47464 -1.44725 0
M  V30 12087 C 1126.98 2.21979 -1.66194 0
M  V30 12088 H 1129.93 0.933858 -1.28315 0
M  V30 12089 H 1129.95 3.64757 -1.08318 0
M  V30 12090 H 1129.46 2.79251 -2.69519 0
M  V30 12091 H 1127.56 3.70402 -0.40409 0
M  V30 12092 H 1127.68 4.25254 -2.20671 0
M  V30 12093 H 1126.04 2.30368 -1.0864 0
M  V30 12094 H 1126.82 2.06702 -2.74097 0
M  V30 12095 N 1129.27 0.921757 1.27833 0
M  V30 12096 C 1130.55 0.477706 1.89677 0
M  V30 12097 C 1130.93 -1.04392 1.83481 0
M  V30 12098 O 1130.27 -1.89549 1.27606 0
M  V30 12099 C 1130.48 1.01709 3.33851 0
M  V30 12100 C 1131.83 1.074 4.10792 0
M  V30 12101 O 1132.86 0.966295 3.42843 0
M  V30 12102 O 1131.71 1.23909 5.32268 0
M  V30 12103 H 1128.81 0.15271 0.812778 0
M  V30 12104 H 1131.35 1.01306 1.36144 0
M  V30 12105 H 1130.13 2.061 3.32623 0
M  V30 12106 H 1129.75 0.463031 3.94895 0
M  V30 12107 N 1130.75 -1.41857 0.686609 0
M  V30 12108 C 1132.16 -1.55549 0.357288 0
M  V30 12109 C 1132.36 -1.66394 -1.13646 0
M  V30 12110 O 1131.42 -1.63739 -1.92213 0
M  V30 12111 C 1132.73 -2.79938 1.09796 0
M  V30 12112 C 1134.28 -2.93724 1.08143 0
M  V30 12113 C 1134.75 -4.20989 1.80367 0
M  V30 12114 N 1136.25 -4.27927 1.77293 0
M  V30 12115 C 1136.98 -5.2524 2.30022 0
M  V30 12116 N 1136.48 -6.28636 2.91185 0
M  V30 12117 N 1138.27 -5.17118 2.20329 0
M  V30 12118 H 1130.42 -1.33063 1.65554 0
M  V30 12119 H 1132.68 -0.641335 0.698135 0
M  V30 12120 H 1132.39 -2.78104 2.15293 0
M  V30 12121 H 1132.26 -3.71188 0.670763 0
M  V30 12122 H 1134.65 -2.9508 0.0347554 0
M  V30 12123 H 1134.73 -2.03673 1.54761 0
M  V30 12124 H 1134.38 -4.20395 2.85009 0
M  V30 12125 H 1134.31 -5.09997 1.3119 0
M  V30 12126 H 1136.8 -3.53838 1.32692 0
M  V30 12127 H 1137.11 -6.99265 3.29011 0
M  V30 12128 H 1135.45 -6.29164 2.95259 0
M  V30 12129 H 1138.65 -4.35265 1.72226 0
M  V30 12130 H 1138.82 -5.92792 2.61728 0
M  V30 12131 N 1132.22 -0.430739 -1.51599 0
M  V30 12132 C 1133.47 0.137929 -2.0203 0
M  V30 12133 C 1133.8 1.43287 -1.31526 0
M  V30 12134 O 1133.05 1.9121 -0.416814 0
M  V30 12135 C 1133.35 0.410694 -3.55032 0
M  V30 12136 C 1133.02 -0.797634 -4.43789 0
M  V30 12137 C 1131.68 -1.12902 -4.67768 0
M  V30 12138 C 1134.03 -1.60403 -4.95904 0
M  V30 12139 C 1131.36 -2.2676 -5.41107 0
M  V30 12140 C 1133.71 -2.73354 -5.70491 0
M  V30 12141 C 1132.38 -3.06955 -5.92735 0
M  V30 12142 H 1131.65 0.0504718 -0.739279 0
M  V30 12143 H 1134.29 -0.576585 -1.82614 0
M  V30 12144 H 1132.6 1.20703 -3.72744 0
M  V30 12145 H 1134.3 0.864006 -3.91581 0
M  V30 12146 H 1130.89 -0.529397 -4.25318 0
M  V30 12147 H 1135.07 -1.36122 -4.77268 0
M  V30 12148 H 1130.33 -2.53114 -5.56546 0
M  V30 12149 H 1134.5 -3.36213 -6.09864 0
M  V30 12150 H 1132.13 -3.95293 -6.49344 0
M  V30 12151 N 1133.7 1.56767 -0.161869 0
M  V30 12152 C 1134.67 2.16299 0.758104 0
M  V30 12153 C 1135.67 1.10859 1.16478 0
M  V30 12154 O 1136.86 1.36422 1.08327 0
M  V30 12155 C 1133.99 2.73819 2.03067 0
M  V30 12156 H 1135.18 2.98938 0.239992 0
M  V30 12157 H 1132.73 1.56054 0.0876532 0
M  V30 12158 H 1133.47 1.94887 2.59209 0
M  V30 12159 H 1133.25 3.50974 1.74813 0
M  V30 12160 H 1134.74 3.19638 2.68741 0
M  V30 12161 N 1135.18 -0.111886 1.57202 0
M  V30 12162 C 1136.41 -0.8312 1.89142 0
M  V30 12163 C 1136.82 -1.73614 0.751987 0
M  V30 12164 O 1136.16 -1.81462 -0.285877 0
M  V30 12165 C 1136.22 -1.71107 3.16169 0
M  V30 12166 C 1135.89 -0.9797 4.46375 0
M  V30 12167 C 1136.88 -0.317219 5.18931 0
M  V30 12168 C 1134.57 -0.958764 4.93065 0
M  V30 12169 C 1136.56 0.356419 6.36403 0
M  V30 12170 C 1134.25 -0.281332 6.10452 0
M  V30 12171 C 1135.25 0.375098 6.81969 0
M  V30 12172 O 1134.94 1.0417 7.97122 0
M  V30 12173 H 1134.67 -0.243855 0.630484 0
M  V30 12174 H 1137.22 -0.0986634 2.05163 0
M  V30 12175 H 1135.45 -2.48543 2.96249 0
M  V30 12176 H 1137.14 -2.30544 3.34072 0
M  V30 12177 H 1137.91 -0.324965 4.8391 0
M  V30 12178 H 1133.79 -1.45913 4.37299 0
M  V30 12179 H 1137.33 0.869362 6.92162 0
M  V30 12180 H 1133.23 -0.271374 6.44929 0
M  V30 12181 H 1134 0.946899 8.13004 0
M  V30 12182 N 1136.66 -1.52894 -0.382264 0
M  V30 12183 C 1138.07 -1.60135 -0.959887 0
M  V30 12184 C 1138.42 -0.458363 -1.90771 0
M  V30 12185 O 1137.55 0.417614 -2.12332 0
M  V30 12186 C 1138.14 -2.90243 -1.74769 0
M  V30 12187 C 1136.7 -2.99874 -2.27491 0
M  V30 12188 C 1135.85 -2.55302 -1.0824 0
M  V30 12189 H 1138.8 -1.57875 -0.161589 0
M  V30 12190 H 1138.82 -2.77108 -2.60751 0
M  V30 12191 H 1138.33 -3.73412 -1.0576 0
M  V30 12192 H 1136.43 -2.21258 -2.99793 0
M  V30 12193 H 1136.54 -4.04643 -2.56516 0
M  V30 12194 H 1134.91 -2.09781 -1.44444 0
M  V30 12195 H 1135.69 -3.40872 -0.407553 0
M  V30 12196 N 1138.14 0.641106 -1.43971 0
M  V30 12197 C 1139.39 1.39676 -1.45511 0
M  V30 12198 C 1139.7 1.95403 -0.0877084 0
M  V30 12199 O 1140.91 2.71493 0.0193965 0
M  V30 12200 C 1139.36 2.52839 -2.56126 0
M  V30 12201 C 1138.97 2.03668 -3.99028 0
M  V30 12202 C 1140.71 3.30118 -2.66875 0
M  V30 12203 C 1138.62 3.14114 -5.01085 0
M  V30 12204 H 1137.55 0.524854 -0.541336 0
M  V30 12205 H 1140.2 0.69075 -1.70003 0
M  V30 12206 H 1138.58 3.25968 -2.24857 0
M  V30 12207 H 1139.76 1.3747 -4.39817 0
M  V30 12208 H 1138.07 1.39233 -3.92432 0
M  V30 12209 H 1140.67 4.12434 -3.40297 0
M  V30 12210 H 1141.01 3.78946 -1.72353 0
M  V30 12211 H 1141.55 2.64075 -2.97505 0
M  V30 12212 H 1138.28 2.70241 -5.97202 0
M  V30 12213 H 1137.8 3.78985 -4.64898 0
M  V30 12214 H 1139.48 3.79051 -5.24337 0
M  V30 12215 N 1139.62 1.30703 0.880598 0
M  V30 12216 C 1141.03 1.17818 1.4483 0
M  V30 12217 C 1141.38 -0.219456 1.94969 0
M  V30 12218 O 1140.5 -1.11646 1.85375 0
M  V30 12219 C 1141.1 2.13275 2.63247 0
M  V30 12220 C 1139.66 2.04356 3.16094 0
M  V30 12221 C 1138.8 2.03108 1.88792 0
M  V30 12222 H 1141.75 1.42909 0.690125 0
M  V30 12223 H 1141.78 1.71615 3.39601 0
M  V30 12224 H 1141.29 3.14988 2.26725 0
M  V30 12225 H 1139.39 1.058 3.57263 0
M  V30 12226 H 1139.5 2.92953 3.79098 0
M  V30 12227 H 1137.87 1.47971 2.07308 0
M  V30 12228 H 1138.65 3.06558 1.54521 0
M  V30 12229 N 1141.09 -1.09351 1.1349 0
M  V30 12230 C 1142.04 -2.14179 0.781739 0
M  V30 12231 C 1143.03 -1.59325 -0.224575 0
M  V30 12232 O 1144.22 -1.76977 -0.0283747 0
M  V30 12233 C 1141.35 -3.42386 0.250278 0
M  V30 12234 C 1140.43 -4.04147 1.28555 0
M  V30 12235 N 1140.83 -4.40451 2.4867 0
M  V30 12236 C 1139.12 -4.31356 1.13351 0
M  V30 12237 C 1139.82 -4.89115 3.14867 0
M  V30 12238 N 1138.8 -4.86618 2.42289 0
M  V30 12239 H 1142.6 -2.40055 1.69561 0
M  V30 12240 H 1140.12 -1.26587 1.01733 0
M  V30 12241 H 1142.11 -4.16895 -0.0209767 0
M  V30 12242 H 1140.77 -3.17965 -0.657904 0
M  V30 12243 H 1141.78 -4.31789 2.8597 0
M  V30 12244 H 1138.46 -4.16536 0.28355 0
M  V30 12245 H 1139.85 -5.26663 4.17224 0
M  V30 12246 N 1142.57 -0.928524 -1.27343 0
M  V30 12247 C 1143.8 -0.585734 -1.98436 0
M  V30 12248 C 1144.21 0.83644 -1.69261 0
M  V30 12249 O 1143.57 1.55603 -0.953626 0
M  V30 12250 C 1143.62 -0.803092 -3.52467 0
M  V30 12251 O 1143.34 -2.16932 -3.80621 0
M  V30 12252 C 1144.84 -0.469127 -4.40811 0
M  V30 12253 H 1142.06 -0.221887 -0.633251 0
M  V30 12254 H 1144.61 -1.24577 -1.62175 0
M  V30 12255 H 1142.76 -0.189846 -3.86935 0
M  V30 12256 H 1143.18 -2.21992 -4.75205 0
M  V30 12257 H 1144.65 -0.671906 -5.47895 0
M  V30 12258 H 1145.13 0.595365 -4.35146 0
M  V30 12259 H 1145.73 -1.06055 -4.11865 0
M  V30 12260 N 1144.05 1.41491 -0.694123 0
M  V30 12261 C 1145.28 2.05579 -0.233466 0
M  V30 12262 C 1145.69 1.5223 1.11675 0
M  V30 12263 O 1145.05 0.669937 1.69759 0
M  V30 12264 C 1145.1 3.61047 -0.180967 0
M  V30 12265 O 1144.82 4.12421 -1.47785 0
M  V30 12266 C 1146.32 4.42278 0.300853 0
M  V30 12267 H 1143.54 0.662097 -0.108943 0
M  V30 12268 H 1146.09 1.81288 -0.946299 0
M  V30 12269 H 1144.24 3.84381 0.482678 0
M  V30 12270 H 1144.66 5.06454 -1.364 0
M  V30 12271 H 1146.13 5.51256 0.286464 0
M  V30 12272 H 1146.61 4.18276 1.33948 0
M  V30 12273 H 1147.21 4.24004 -0.331741 0
M  V30 12274 N 1145.53 0.438773 1.51369 0
M  V30 12275 C 1146.94 0.0911416 1.5934 0
M  V30 12276 C 1147.14 -1.39962 1.44958 0
M  V30 12277 O 1146.2 -2.16968 1.29155 0
M  V30 12278 C 1147.51 0.612531 2.94395 0
M  V30 12279 C 1149.06 0.573098 3.07709 0
M  V30 12280 C 1149.54 1.07149 4.4529 0
M  V30 12281 N 1151.03 1.02953 4.51614 0
M  V30 12282 C 1151.76 1.38602 5.56397 0
M  V30 12283 N 1151.26 1.81543 6.68591 0
M  V30 12284 N 1153.05 1.30409 5.46763 0
M  V30 12285 H 1145.2 1.40872 1.58962 0
M  V30 12286 H 1147.46 0.580589 0.749414 0
M  V30 12287 H 1147.17 1.65562 3.10294 0
M  V30 12288 H 1147.04 0.0382375 3.77181 0
M  V30 12289 H 1149.43 -0.461006 2.91477 0
M  V30 12290 H 1149.51 1.18381 2.26759 0
M  V30 12291 H 1149.16 2.10406 4.62268 0
M  V30 12292 H 1149.09 0.437297 5.24781 0
M  V30 12293 H 1151.58 0.714208 3.7109 0
M  V30 12294 H 1151.89 2.06977 7.44567 0
M  V30 12295 H 1150.24 1.8547 6.69795 0
M  V30 12296 H 1153.43 0.967272 4.57997 0
M  V30 12297 H 1153.6 1.5852 6.28312 0
M  V30 12298 N 1147.01 -1.56678 0.170181 0
M  V30 12299 C 1148.42 -1.83452 -0.346742 0
M  V30 12300 C 1148.77 -1.08993 -1.63141 0
M  V30 12301 O 1147.89 -0.342607 -2.13671 0
M  V30 12302 C 1148.49 -3.32779 -0.635882 0
M  V30 12303 C 1147.05 -3.60052 -1.09725 0
M  V30 12304 C 1146.19 -2.76983 -0.132516 0
M  V30 12305 H 1149.14 -1.53719 0.394465 0
M  V30 12306 H 1149.17 -3.50195 -1.48806 0
M  V30 12307 H 1148.68 -3.86944 0.299291 0
M  V30 12308 H 1146.78 -3.11297 -2.04756 0
M  V30 12309 H 1146.89 -4.68393 -1.00719 0
M  V30 12310 H 1145.26 -2.46794 -0.62966 0
M  V30 12311 H 1146.04 -3.33929 0.796658 0
M  V30 12312 N 1148.48 0.103547 -1.57259 0
M  V30 12313 C 1149.89 0.659006 -1.74683 0
M  V30 12314 C 1150.25 1.79542 -0.791142 0
M  V30 12315 O 1149.37 2.16376 0.0323585 0
M  V30 12316 C 1149.97 1.20222 -3.16752 0
M  V30 12317 C 1148.52 1.70382 -3.35629 0
M  V30 12318 C 1147.67 0.609886 -2.7051 0
M  V30 12319 H 1150.62 -0.122474 -1.58227 0
M  V30 12320 H 1150.64 2.07169 -3.19157 0
M  V30 12321 H 1150.16 0.374901 -3.86285 0
M  V30 12322 H 1148.26 2.55542 -2.71162 0
M  V30 12323 H 1148.37 1.80263 -4.43894 0
M  V30 12324 H 1146.73 1.04728 -2.32173 0
M  V30 12325 H 1147.52 -0.206713 -3.42677 0
M  V30 12326 N 1149.96 1.53094 0.37415 0
M  V30 12327 C 1150.91 1.78927 1.45787 0
M  V30 12328 C 1151.88 0.633187 1.53558 0
M  V30 12329 O 1153.06 0.874472 1.69581 0
M  V30 12330 C 1150.2 1.97726 2.8284 0
M  V30 12331 C 1149.32 3.25436 2.84104 0
M  V30 12332 C 1148.45 3.3447 4.12678 0
M  V30 12333 C 1147.49 4.56246 4.08051 0
M  V30 12334 N 1146.63 4.6248 5.28258 0
M  V30 12335 H 1151.47 2.71404 1.2306 0
M  V30 12336 H 1149 1.34453 0.596716 0
M  V30 12337 H 1150.96 2.06611 3.62447 0
M  V30 12338 H 1149.59 1.08593 3.03986 0
M  V30 12339 H 1148.64 3.25548 1.96781 0
M  V30 12340 H 1149.96 4.15112 2.76556 0
M  V30 12341 H 1149.11 3.4262 5.00696 0
M  V30 12342 H 1147.85 2.42795 4.22968 0
M  V30 12343 H 1146.85 4.48206 3.1842 0
M  V30 12344 H 1148.08 5.49254 3.99371 0
M  V30 12345 H 1146.03 3.73703 5.3915 0
M  V30 12346 H 1145.94 5.46049 5.22845 0
M  V30 12347 H 1147.21 4.74903 6.18132 0
M  V30 12348 N 1151.44 -0.633461 1.44309 0
M  V30 12349 C 1152.39 -1.74554 1.50995 0
M  V30 12350 C 1153.36 -1.62199 0.357873 0
M  V30 12351 O 1154.54 -1.82156 0.567787 0
M  V30 12352 C 1151.68 -3.12792 1.45791 0
M  V30 12353 C 1150.79 -3.3614 2.71356 0
M  V30 12354 C 1149.93 -4.64337 2.58002 0
M  V30 12355 C 1148.97 -4.80855 3.78741 0
M  V30 12356 N 1148.11 -6.00327 3.64077 0
M  V30 12357 H 1152.95 -1.68174 2.46011 0
M  V30 12358 H 1150.48 -0.820407 1.22097 0
M  V30 12359 H 1152.44 -3.92735 1.40765 0
M  V30 12360 H 1151.07 -3.18193 0.543445 0
M  V30 12361 H 1150.12 -2.50154 2.86579 0
M  V30 12362 H 1151.43 -3.44226 3.60985 0
M  V30 12363 H 1150.59 -5.52437 2.50795 0
M  V30 12364 H 1149.33 -4.58605 1.65929 0
M  V30 12365 H 1148.33 -3.91185 3.86334 0
M  V30 12366 H 1149.56 -4.88403 4.71847 0
M  V30 12367 H 1147.5 -5.9569 2.74754 0
M  V30 12368 H 1147.42 -6.09459 4.47321 0
M  V30 12369 H 1148.69 -6.90995 3.60758 0
M  V30 12370 N 1152.92 -1.31168 -0.873655 0
M  V30 12371 C 1154.2 -1.11285 -1.60857 0
M  V30 12372 C 1154.58 0.333788 -2.08444 0
M  V30 12373 O 1153.92 1.32726 -1.86 0
M  V30 12374 C 1154.13 -2.12379 -2.7694 0
M  V30 12375 C 1155.48 -2.44704 -3.46994 0
M  V30 12376 O 1156.51 -2.10778 -2.87143 0
M  V30 12377 O 1155.36 -3.02786 -4.54954 0
M  V30 12378 H 1152.46 -0.428177 -0.707526 0
M  V30 12379 H 1155 -1.42634 -0.91944 0
M  V30 12380 H 1153.78 -3.09703 -2.39164 0
M  V30 12381 H 1153.4 -1.81914 -3.53544 0
M  V30 12382 N 1154.4 1.08748 -1.14068 0
M  V30 12383 C 1155.31 2.19123 -0.837998 0
M  V30 12384 C 1156.32 1.73065 0.180164 0
M  V30 12385 O 1157.5 2.01398 0.00952285 0
M  V30 12386 C 1154.56 3.45257 -0.316 0
M  V30 12387 C 1153.62 4.05959 -1.39628 0
M  V30 12388 C 1152.86 5.26072 -0.899095 0
M  V30 12389 O 1153.08 5.69804 0.260744 0
M  V30 12390 O 1152.01 5.7808 -1.67652 0
M  V30 12391 H 1155.84 2.4748 -1.76033 0
M  V30 12392 H 1153.43 1.17816 -0.918675 0
M  V30 12393 H 1155.31 4.21389 -0.0306425 0
M  V30 12394 H 1153.98 3.18486 0.578654 0
M  V30 12395 H 1152.89 3.31432 -1.73505 0
M  V30 12396 H 1154.22 4.36971 -2.26533 0
M  V30 12397 N 1155.87 0.935264 1.26849 0
M  V30 12398 C 1156.78 0.446122 2.30319 0
M  V30 12399 C 1157.8 -0.476965 1.67335 0
M  V30 12400 O 1158.98 -0.357934 1.98194 0
M  V30 12401 C 1156.04 -0.286297 3.45516 0
M  V30 12402 C 1155.1 0.672626 4.23998 0
M  V30 12403 C 1154.34 -0.0249345 5.33694 0
M  V30 12404 O 1154.56 -1.24296 5.56693 0
M  V30 12405 O 1153.49 0.650752 5.98372 0
M  V30 12406 H 1157.32 1.30546 2.74211 0
M  V30 12407 H 1154.9 0.70091 1.31938 0
M  V30 12408 H 1156.79 -0.699109 4.1556 0
M  V30 12409 H 1155.46 -1.12112 3.03665 0
M  V30 12410 H 1154.37 1.13527 3.56458 0
M  V30 12411 H 1155.7 1.47489 4.69583 0
M  V30 12412 N 1157.35 -1.41121 0.701616 0
M  V30 12413 C 1158.3 -2.32582 0.0288052 0
M  V30 12414 C 1159.29 -1.5129 -0.762074 0
M  V30 12415 O 1160.5 -1.67185 -0.667014 0
M  V30 12416 H 1156.88 -0.75194 -0.00948675 0
M  V30 12417 H 1158.85 -2.86994 0.817141 0
M  V30 12418 C 1157.6 -3.36137 -0.889217 0
M  V30 12419 H 1156.92 -3.98746 -0.290062 0
M  V30 12420 H 1158.36 -4.0266 -1.32819 0
M  V30 12421 C 1156.82 -2.70504 -2.00821 0
M  V30 12422 O 1157.35 -2.55753 -3.09763 0
M  V30 12423 N 1155.55 -2.29105 -1.78772 0
M  V30 12424 H 1155.1 -2.41303 -0.901708 0
M  V30 12425 H 1155.06 -1.85527 -2.53825 0
M  V30 12426 N 1158.83 -0.446794 -1.51134 0
M  V30 12427 C 1160.08 0.116263 -2.01765 0
M  V30 12428 C 1160.4 1.42382 -1.33238 0
M  V30 12429 O 1159.67 1.9018 -0.469915 0
M  V30 12430 H 1158.25 0.0459558 -0.745585 0
M  V30 12431 H 1160.91 -0.591664 -1.85702 0
M  V30 12432 H 1160.01 0.285358 -3.10793 0
M  V30 12433 N 1160.31 1.56586 -0.178487 0
M  V30 12434 C 1161.26 2.18309 0.74899 0
M  V30 12435 C 1162.23 1.12525 1.22178 0
M  V30 12436 O 1163.41 1.40706 1.28866 0
M  V30 12437 C 1160.55 2.83353 1.9699 0
M  V30 12438 C 1159.66 4.03618 1.54002 0
M  V30 12439 C 1158.8 4.56567 2.71514 0
M  V30 12440 C 1157.84 5.69226 2.25051 0
M  V30 12441 N 1156.97 6.16654 3.35682 0
M  V30 12442 H 1161.81 2.97217 0.21587 0
M  V30 12443 H 1159.35 1.46794 0.0948182 0
M  V30 12444 H 1161.31 3.19226 2.68609 0
M  V30 12445 H 1159.94 2.07037 2.4766 0
M  V30 12446 H 1158.99 3.73518 0.720298 0
M  V30 12447 H 1160.3 4.85148 1.15901 0
M  V30 12448 H 1159.46 4.94659 3.5128 0
M  V30 12449 H 1158.2 3.7411 3.12879 0
M  V30 12450 H 1157.2 5.30679 1.43734 0
M  V30 12451 H 1158.43 6.5349 1.84736 0
M  V30 12452 H 1156.37 5.37124 3.76609 0
M  V30 12453 H 1156.29 6.93192 3.01697 0
M  V30 12454 H 1157.56 6.59397 4.15711 0
M  V30 12455 N 1161.79 -0.095206 1.57312 0
M  V30 12456 C 1162.73 -1.13438 2.03063 0
M  V30 12457 C 1163.73 -1.41478 0.931679 0
M  V30 12458 O 1164.93 -1.41161 1.11686 0
M  V30 12459 H 1161.31 -0.383042 0.647134 0
M  V30 12460 H 1163.28 -0.722186 2.89529 0
M  V30 12461 C 1162.03 -2.44641 2.47075 0
M  V30 12462 H 1161.35 -2.23908 3.31218 0
M  V30 12463 H 1162.79 -3.15855 2.82863 0
M  V30 12464 C 1161.25 -3.08931 1.34399 0
M  V30 12465 O 1161.78 -3.96021 0.673071 0
M  V30 12466 N 1159.99 -2.6918 1.09501 0
M  V30 12467 H 1159.53 -1.98451 1.6424 0
M  V30 12468 H 1159.49 -3.12522 0.34311 0
M  V30 12469 N 1163.26 -1.53291 -0.366026 0
M  V30 12470 C 1164.49 -1.73108 -1.1277 0
M  V30 12471 C 1164.9 -0.459662 -1.83531 0
M  V30 12472 O 1164.25 0.577151 -1.74398 0
M  V30 12473 C 1164.31 -2.84137 -2.20242 0
M  V30 12474 C 1163.97 -4.24503 -1.69252 0
M  V30 12475 C 1164.97 -5.06866 -1.15684 0
M  V30 12476 C 1162.65 -4.70912 -1.74778 0
M  V30 12477 C 1164.65 -6.33728 -0.683191 0
M  V30 12478 C 1162.33 -5.97752 -1.27025 0
M  V30 12479 C 1163.33 -6.78992 -0.738858 0
M  V30 12480 O 1163.02 -8.03452 -0.268375 0
M  V30 12481 H 1162.75 -0.582439 -0.343134 0
M  V30 12482 H 1165.31 -2.00828 -0.430969 0
M  V30 12483 H 1163.54 -2.5189 -2.93408 0
M  V30 12484 H 1165.23 -2.92136 -2.818 0
M  V30 12485 H 1165.99 -4.72185 -1.10753 0
M  V30 12486 H 1161.87 -4.07751 -2.15081 0
M  V30 12487 H 1165.41 -6.97086 -0.267746 0
M  V30 12488 H 1161.31 -6.31933 -1.31649 0
M  V30 12489 H 1162.08 -8.17581 -0.387745 0
M  V30 12490 N 1164.74 0.6258 -1.44643 0
M  V30 12491 C 1165.97 1.41028 -1.50979 0
M  V30 12492 C 1166.38 1.88717 -0.135092 0
M  V30 12493 O 1165.72 1.61778 0.870268 0
M  V30 12494 C 1165.79 2.66094 -2.41732 0
M  V30 12495 C 1165.45 2.40166 -3.88805 0
M  V30 12496 C 1166.45 2.01661 -4.79196 0
M  V30 12497 C 1164.13 2.53641 -4.33557 0
M  V30 12498 C 1166.13 1.76966 -6.12341 0
M  V30 12499 C 1163.81 2.2856 -5.66748 0
M  V30 12500 C 1164.81 1.90282 -6.55959 0
M  V30 12501 O 1164.5 1.65484 -7.86683 0
M  V30 12502 H 1164.23 0.438757 -0.514265 0
M  V30 12503 H 1166.78 0.772034 -1.90339 0
M  V30 12504 H 1165.01 3.32575 -1.97309 0
M  V30 12505 H 1166.7 3.28107 -2.38957 0
M  V30 12506 H 1167.47 1.90802 -4.45892 0
M  V30 12507 H 1163.35 2.82404 -3.64375 0
M  V30 12508 H 1166.89 1.47014 -6.81933 0
M  V30 12509 H 1162.79 2.3903 -5.99612 0
M  V30 12510 H 1163.56 1.79686 -7.98533 0
M  V30 12511 N 1166.22 1.31629 0.866686 0
M  V30 12512 C 1167.47 1.21503 1.61998 0
M  V30 12513 C 1167.8 -0.226044 1.93182 0
M  V30 12514 O 1167.05 -1.17573 1.56445 0
M  V30 12515 C 1167.35 2.00775 2.95676 0
M  V30 12516 C 1167.02 3.50245 2.83971 0
M  V30 12517 C 1165.68 3.91 2.80485 0
M  V30 12518 C 1168.03 4.45347 2.70769 0
M  V30 12519 C 1165.36 5.25119 2.61661 0
M  V30 12520 C 1167.71 5.79595 2.53481 0
M  V30 12521 C 1166.37 6.19567 2.48381 0
M  V30 12522 H 1165.64 0.44461 0.592792 0
M  V30 12523 H 1168.29 1.62929 1.00629 0
M  V30 12524 H 1166.6 1.52039 3.61097 0
M  V30 12525 H 1168.29 1.90318 3.52959 0
M  V30 12526 H 1164.88 3.17869 2.87502 0
M  V30 12527 H 1169.07 4.14789 2.72514 0
M  V30 12528 H 1164.32 5.5516 2.5614 0
M  V30 12529 H 1168.5 6.5291 2.42243 0
M  V30 12530 H 1166.12 7.23434 2.33554 0
M  V30 12531 N 1167.7 -1.08142 1.14644 0
M  V30 12532 C 1168.95 -1.80849 0.917685 0
M  V30 12533 C 1169.28 -1.86123 -0.554249 0
M  V30 12534 O 1168.55 -1.33907 -1.41065 0
M  V30 12535 C 1168.84 -3.26325 1.52264 0
M  V30 12536 C 1168.69 -3.29244 3.06461 0
M  V30 12537 C 1170.01 -4.23375 1.20175 0
M  V30 12538 H 1167.13 -0.656559 0.334812 0
M  V30 12539 H 1169.77 -1.26595 1.41682 0
M  V30 12540 H 1167.92 -3.72656 1.09817 0
M  V30 12541 H 1169.59 -2.91216 3.57758 0
M  V30 12542 H 1167.83 -2.68438 3.40769 0
M  V30 12543 H 1168.51 -4.31785 3.43897 0
M  V30 12544 H 1170.98 -3.85394 1.56877 0
M  V30 12545 H 1169.86 -5.23472 1.65132 0
M  V30 12546 H 1170.12 -4.41944 0.117474 0
M  V30 12547 N 1169.18 -0.941978 -1.26351 0
M  V30 12548 C 1170.4 -0.606231 -1.98342 0
M  V30 12549 C 1170.83 0.812014 -1.6967 0
M  V30 12550 O 1170.19 1.54712 -0.9452 0
M  V30 12551 C 1170.23 -0.855864 -3.50296 0
M  V30 12552 O 1169.34 0.0716251 -4.12338 0
M  V30 12553 H 1168.68 -0.231815 -0.62222 0
M  V30 12554 H 1171.21 -1.26513 -1.60797 0
M  V30 12555 H 1171.22 -0.777079 -4.00531 0
M  V30 12556 H 1169.89 -1.8896 -3.70496 0
M  V30 12557 H 1168.47 -0.0582866 -3.72854 0
M  V30 12558 N 1170.66 1.40747 -0.709091 0
M  V30 12559 C 1171.61 2.27982 -0.0289269 0
M  V30 12560 C 1172.59 1.42917 0.739164 0
M  V30 12561 O 1173.78 1.66067 0.612433 0
M  V30 12562 C 1170.91 3.31378 0.896856 0
M  V30 12563 C 1170 4.23918 0.124296 0
M  V30 12564 N 1170.39 4.97925 -0.889043 0
M  V30 12565 C 1168.69 4.44562 0.357808 0
M  V30 12566 C 1169.39 5.65754 -1.35268 0
M  V30 12567 N 1168.36 5.3938 -0.676047 0
M  V30 12568 H 1172.16 2.82641 -0.805676 0
M  V30 12569 H 1169.68 1.5312 -0.541105 0
M  V30 12570 H 1171.68 3.92712 1.39939 0
M  V30 12571 H 1170.34 2.78279 1.67305 0
M  V30 12572 H 1171.35 5.02095 -1.2697 0
M  V30 12573 H 1168.02 4.02451 1.11084 0
M  V30 12574 H 1169.41 6.35058 -2.19432 0
M  V30 12575 N 1172.13 0.454803 1.50895 0
M  V30 12576 C 1173.41 -0.166559 1.9489 0
M  V30 12577 C 1173.79 -1.58492 1.3944 0
M  V30 12578 O 1173.14 -2.20788 0.588622 0
M  V30 12579 C 1173.35 -0.126506 3.48771 0
M  V30 12580 C 1174.7 -0.32347 4.23366 0
M  V30 12581 O 1175.72 -0.203835 3.55616 0
M  V30 12582 O 1174.58 -0.563292 5.43589 0
M  V30 12583 H 1171.67 -0.120523 0.818171 0
M  V30 12584 H 1174.22 0.514037 1.61727 0
M  V30 12585 H 1172.99 0.864407 3.81633 0
M  V30 12586 H 1172.61 -0.849264 3.88424 0
M  V30 12587 N 1173.61 -1.56489 0.186789 0
M  V30 12588 C 1174.54 -2.15911 -0.769104 0
M  V30 12589 C 1175.56 -1.11872 -1.18273 0
M  V30 12590 O 1176.75 -1.38999 -1.1199 0
M  V30 12591 C 1173.85 -2.69957 -2.04882 0
M  V30 12592 C 1173.02 -3.98812 -1.79631 0
M  V30 12593 C 1172.08 -4.37767 -2.9197 0
M  V30 12594 O 1171.1 -5.0535 -2.61935 0
M  V30 12595 N 1172.31 -4.0059 -4.20128 0
M  V30 12596 H 1175.07 -2.98561 -0.261007 0
M  V30 12597 H 1172.63 -1.61899 0.00453357 0
M  V30 12598 H 1174.62 -2.93006 -2.79158 0
M  V30 12599 H 1173.19 -1.91808 -2.46837 0
M  V30 12600 H 1172.41 -3.8398 -0.891776 0
M  V30 12601 H 1173.7 -4.82939 -1.60148 0
M  V30 12602 H 1173.1 -3.46213 -4.47385 0
M  V30 12603 H 1171.66 -4.28608 -4.91059 0
M  V30 12604 N 1175.09 0.086862 -1.5736 0
M  V30 12605 C 1176.02 1.13614 -1.97907 0
M  V30 12606 C 1177 1.38395 -0.853564 0
M  V30 12607 O 1178.18 1.52018 -1.11457 0
M  V30 12608 C 1175.31 2.48364 -2.30289 0
M  V30 12609 C 1174.36 2.39814 -3.52692 0
M  V30 12610 S 1175.19 1.80673 -5.04101 0
M  V30 12611 C 1176.35 3.17031 -5.39669 0
M  V30 12612 H 1176.58 0.790538 -2.86597 0
M  V30 12613 H 1174.11 0.294847 -1.51559 0
M  V30 12614 H 1176.07 3.25883 -2.49621 0
M  V30 12615 H 1174.73 2.80091 -1.42154 0
M  V30 12616 H 1173.92 3.3915 -3.72818 0
M  V30 12617 H 1173.53 1.70427 -3.32912 0
M  V30 12618 H 1175.82 4.13319 -5.36818 0
M  V30 12619 H 1176.76 3.017 -6.40611 0
M  V30 12620 H 1177.17 3.16942 -4.67128 0
M  V30 12621 N 1176.57 1.53483 0.357892 0
M  V30 12622 C 1177.5 1.75257 1.46151 0
M  V30 12623 C 1178.48 0.601167 1.51079 0
M  V30 12624 O 1179.66 0.834661 1.69014 0
M  V30 12625 C 1176.79 1.8383 2.84472 0
M  V30 12626 C 1175.84 3.05866 2.97234 0
M  V30 12627 S 1176.67 4.65225 2.6519 0
M  V30 12628 C 1177.82 4.76657 4.05646 0
M  V30 12629 H 1178.06 2.6859 1.27462 0
M  V30 12630 H 1175.59 1.44169 0.552697 0
M  V30 12631 H 1177.55 1.89454 3.64167 0
M  V30 12632 H 1176.21 0.915345 3.00467 0
M  V30 12633 H 1175.4 3.08497 3.98555 0
M  V30 12634 H 1175 2.98393 2.25471 0
M  V30 12635 H 1177.3 4.57185 4.99988 0
M  V30 12636 H 1178.24 5.7873 4.08016 0
M  V30 12637 H 1178.65 4.05226 3.93004 0
M  V30 12638 N 1178.05 -0.61812 1.44973 0
M  V30 12639 C 1178.98 -1.74299 1.48837 0
M  V30 12640 C 1179.99 -1.58296 0.38028 0
M  V30 12641 O 1181.18 -1.66371 0.646757 0
M  V30 12642 C 1178.28 -3.12179 1.31901 0
M  V30 12643 C 1177.45 -3.54519 2.56193 0
M  V30 12644 C 1176.51 -4.71324 2.33966 0
M  V30 12645 O 1175.54 -4.78975 3.07525 0
M  V30 12646 N 1176.74 -5.63894 1.37854 0
M  V30 12647 H 1179.5 -1.7145 2.45815 0
M  V30 12648 H 1177.07 -0.803087 1.40578 0
M  V30 12649 H 1179.06 -3.88059 1.14858 0
M  V30 12650 H 1177.63 -3.09595 0.43239 0
M  V30 12651 H 1176.85 -2.68711 2.88423 0
M  V30 12652 H 1178.14 -3.79563 3.38835 0
M  V30 12653 H 1177.53 -5.60418 0.771273 0
M  V30 12654 H 1176.09 -6.3935 1.26787 0
M  V30 12655 N 1179.52 -1.32087 -0.859693 0
M  V30 12656 C 1180.8 -1.12984 -1.59668 0
M  V30 12657 C 1181.18 0.311661 -2.08787 0
M  V30 12658 O 1180.53 1.30746 -1.87397 0
M  V30 12659 C 1180.74 -2.15305 -2.74672 0
M  V30 12660 C 1182.09 -2.48371 -3.44379 0
M  V30 12661 O 1183.11 -2.13811 -2.84891 0
M  V30 12662 O 1181.97 -3.07594 -4.51717 0
M  V30 12663 H 1179.06 -0.435657 -0.702945 0
M  V30 12664 H 1181.61 -1.43601 -0.90426 0
M  V30 12665 H 1180.38 -3.12223 -2.35866 0
M  V30 12666 H 1180 -1.85653 -3.51594 0
M  V30 12667 N 1181 1.07532 -1.15215 0
M  V30 12668 C 1182.25 1.79474 -0.920439 0
M  V30 12669 C 1182.56 1.87593 0.553926 0
M  V30 12670 O 1183.77 2.56037 0.903169 0
M  V30 12671 C 1182.23 3.22509 -1.59738 0
M  V30 12672 C 1181.83 3.22596 -3.10863 0
M  V30 12673 C 1183.58 3.99072 -1.44714 0
M  V30 12674 C 1181.48 4.60273 -3.71352 0
M  V30 12675 H 1180.41 0.672625 -0.340722 0
M  V30 12676 H 1183.07 1.2071 -1.38208 0
M  V30 12677 H 1181.45 3.81454 -1.06342 0
M  V30 12678 H 1182.62 2.73306 -3.70999 0
M  V30 12679 H 1180.94 2.5953 -3.25627 0
M  V30 12680 H 1183.53 5.00823 -1.87299 0
M  V30 12681 H 1183.88 4.14428 -0.394386 0
M  V30 12682 H 1184.41 3.46617 -1.95195 0
M  V30 12683 H 1181.15 4.50122 -4.76519 0
M  V30 12684 H 1180.67 5.09809 -3.15998 0
M  V30 12685 H 1182.35 5.29243 -3.7217 0
M  V30 12686 N 1182.48 0.948665 1.2585 0
M  V30 12687 C 1183.71 0.616741 1.98018 0
M  V30 12688 C 1184.13 -0.803005 1.70098 0
M  V30 12689 O 1183.49 -1.54208 0.953392 0
M  V30 12690 C 1183.54 0.874429 3.49837 0
M  V30 12691 O 1182.64 -0.0497568 4.1237 0
M  V30 12692 H 1181.98 0.235112 0.620982 0
M  V30 12693 H 1184.51 1.27364 1.60124 0
M  V30 12694 H 1184.52 0.798309 4.00114 0
M  V30 12695 H 1183.2 1.90922 3.69488 0
M  V30 12696 H 1181.77 0.0780591 3.72818 0
M  V30 12697 N 1183.96 -1.40369 0.716545 0
M  V30 12698 C 1184.91 -2.32539 0.053472 0
M  V30 12699 C 1185.9 -1.5209 -0.745984 0
M  V30 12700 O 1187.11 -1.67883 -0.649245 0
M  V30 12701 H 1183.48 -0.751998 -0.00151088 0
M  V30 12702 H 1185.45 -2.86111 0.847535 0
M  V30 12703 C 1184.2 -3.37061 -0.853515 0
M  V30 12704 H 1183.52 -3.99032 -0.247754 0
M  V30 12705 H 1184.96 -4.04046 -1.28541 0
M  V30 12706 C 1183.42 -2.72619 -1.97941 0
M  V30 12707 O 1183.95 -2.59024 -3.07033 0
M  V30 12708 N 1182.16 -2.30988 -1.76332 0
M  V30 12709 H 1181.71 -2.42246 -0.876063 0
M  V30 12710 H 1181.66 -1.88209 -2.51843 0
M  V30 12711 N 1185.44 -0.462799 -1.50652 0
M  V30 12712 C 1186.38 0.349784 -2.29955 0
M  V30 12713 C 1187.38 0.997947 -1.36885 0
M  V30 12714 O 1188.58 0.93 -1.54114 0
M  V30 12715 H 1184.96 0.131635 -0.740389 0
M  V30 12716 H 1186.93 -0.33958 -2.96461 0
M  V30 12717 C 1185.68 1.42398 -3.17204 0
M  V30 12718 H 1185 0.934611 -3.88722 0
M  V30 12719 H 1186.44 1.96528 -3.75703 0
M  V30 12720 C 1184.9 2.42135 -2.34248 0
M  V30 12721 O 1185.43 3.47229 -2.01978 0
M  V30 12722 N 1183.64 2.13647 -1.96985 0
M  V30 12723 H 1183.18 1.28209 -2.23428 0
M  V30 12724 H 1183.14 2.80615 -1.41783 0
M  V30 12725 N 1186.91 1.56388 -0.195085 0
M  V30 12726 C 1187.82 2.22698 0.737743 0
M  V30 12727 C 1188.84 1.22605 1.23466 0
M  V30 12728 O 1190.02 1.55342 1.28183 0
M  V30 12729 C 1187.08 2.87333 1.94011 0
M  V30 12730 C 1186.14 4.02696 1.48776 0
M  V30 12731 C 1185.38 4.64239 2.63282 0
M  V30 12732 O 1185.6 4.24706 3.80763 0
M  V30 12733 O 1184.53 5.53705 2.35996 0
M  V30 12734 H 1188.36 3.03021 0.203013 0
M  V30 12735 H 1185.94 1.49361 0.0342044 0
M  V30 12736 H 1187.83 3.28226 2.64284 0
M  V30 12737 H 1186.5 2.0999 2.46345 0
M  V30 12738 H 1185.41 3.66426 0.753839 0
M  V30 12739 H 1186.74 4.81703 1.01109 0
M  V30 12740 N 1188.39 -0.0785156 1.57404 0
M  V30 12741 C 1189.62 -0.790893 1.90862 0
M  V30 12742 C 1190.03 -1.7198 0.788644 0
M  V30 12743 O 1189.37 -1.82027 -0.247322 0
M  V30 12744 C 1189.44 -1.64362 3.19727 0
M  V30 12745 C 1189.1 -0.884796 4.48353 0
M  V30 12746 C 1190.1 -0.207074 5.19487 0
M  V30 12747 C 1187.78 -0.853962 4.94988 0
M  V30 12748 C 1189.78 0.491329 6.35504 0
M  V30 12749 C 1187.46 -0.151783 6.10911 0
M  V30 12750 C 1188.46 0.519669 6.8102 0
M  V30 12751 O 1188.15 1.21055 7.94733 0
M  V30 12752 H 1187.88 -0.230427 0.635515 0
M  V30 12753 H 1190.43 -0.0551231 2.05326 0
M  V30 12754 H 1188.66 -2.42203 3.01454 0
M  V30 12755 H 1190.35 -2.23406 3.38887 0
M  V30 12756 H 1191.12 -0.222247 4.84491 0
M  V30 12757 H 1187 -1.36605 4.40296 0
M  V30 12758 H 1190.54 1.01598 6.90162 0
M  V30 12759 H 1186.44 -0.134514 6.4536 0
M  V30 12760 H 1187.21 1.11914 8.10813 0
M  V30 12761 N 1189.87 -1.5367 -0.349747 0
M  V30 12762 C 1190.8 -1.84208 -1.43492 0
M  V30 12763 C 1191.78 -0.696725 -1.55177 0
M  V30 12764 O 1192.97 -0.948061 -1.69486 0
M  V30 12765 C 1190.1 -2.04613 -2.80625 0
M  V30 12766 C 1189.05 -3.20419 -2.83753 0
M  V30 12767 C 1188.38 -3.26147 -4.23713 0
M  V30 12768 C 1189.68 -4.58666 -2.49846 0
M  V30 12769 H 1191.37 -2.75087 -1.18185 0
M  V30 12770 H 1188.92 -1.32363 -0.567101 0
M  V30 12771 H 1190.87 -2.2456 -3.56582 0
M  V30 12772 H 1189.59 -1.10459 -3.07354 0
M  V30 12773 H 1188.25 -3.00318 -2.10249 0
M  V30 12774 H 1187.9 -2.29599 -4.47541 0
M  V30 12775 H 1187.6 -4.03963 -4.26717 0
M  V30 12776 H 1189.12 -3.48296 -5.0152 0
M  V30 12777 H 1190.54 -4.78668 -3.15516 0
M  V30 12778 H 1188.94 -5.3884 -2.64144 0
M  V30 12779 H 1190.01 -4.62697 -1.4505 0
M  V30 12780 N 1191.35 0.610423 -1.45298 0
M  V30 12781 C 1192.26 1.74964 -1.56285 0
M  V30 12782 C 1193.27 1.68149 -0.447436 0
M  V30 12783 O 1194.45 1.88556 -0.707725 0
M  V30 12784 C 1191.52 3.11417 -1.52383 0
M  V30 12785 C 1190.58 3.29707 -2.7494 0
M  V30 12786 C 1189.81 4.5965 -2.71215 0
M  V30 12787 O 1190.03 5.41789 -1.78383 0
M  V30 12788 O 1188.97 4.80591 -3.62375 0
M  V30 12789 H 1192.79 1.68646 -2.52571 0
M  V30 12790 H 1190.38 0.774168 -1.27777 0
M  V30 12791 H 1192.26 3.9272 -1.52805 0
M  V30 12792 H 1190.93 3.18232 -0.592472 0
M  V30 12793 H 1189.84 2.48003 -2.80081 0
M  V30 12794 H 1191.17 3.27766 -3.67192 0
M  V30 12795 N 1192.83 1.32541 0.852676 0
M  V30 12796 C 1194.06 1.26037 1.63702 0
M  V30 12797 C 1194.46 -0.173583 1.88402 0
M  V30 12798 O 1193.81 -1.12175 1.45473 0
M  V30 12799 C 1193.87 1.95245 3.01861 0
M  V30 12800 C 1193.53 3.44576 3.00193 0
M  V30 12801 C 1194.53 4.40026 2.76899 0
M  V30 12802 C 1192.22 3.86541 3.20766 0
M  V30 12803 C 1194.21 5.75414 2.74185 0
M  V30 12804 C 1191.9 5.22038 3.17678 0
M  V30 12805 C 1192.89 6.16286 2.94416 0
M  V30 12806 O 1192.58 7.49303 2.91206 0
M  V30 12807 H 1192.31 0.436073 0.516543 0
M  V30 12808 H 1194.87 1.75251 1.07127 0
M  V30 12809 H 1193.1 1.40603 3.60233 0
M  V30 12810 H 1194.79 1.82423 3.62597 0
M  V30 12811 H 1195.55 4.0893 2.6077 0
M  V30 12812 H 1191.43 3.13603 3.37897 0
M  V30 12813 H 1194.98 6.4895 2.55947 0
M  V30 12814 H 1190.87 5.52762 3.33353 0
M  V30 12815 H 1191.64 7.58686 3.07146 0
M  V30 12816 N 1194.3 -1.0692 1.15784 0
M  V30 12817 C 1195.55 -1.79245 0.933581 0
M  V30 12818 C 1195.87 -1.87362 -0.540427 0
M  V30 12819 O 1195.14 -1.37769 -1.39271 0
M  V30 12820 H 1193.72 -0.663898 0.342416 0
M  V30 12821 H 1196.39 -1.29189 1.45932 0
M  V30 12822 H 1195.48 -2.81546 1.34679 0
M  V30 12823 N 1195.78 -0.955326 -1.25345 0
M  V30 12824 C 1197.01 -0.627233 -1.97688 0
M  V30 12825 C 1197.43 0.793973 -1.70522 0
M  V30 12826 O 1196.79 1.537 -0.961556 0
M  V30 12827 C 1196.84 -0.892969 -3.49369 0
M  V30 12828 O 1195.94 0.0278871 -4.12391 0
M  V30 12829 H 1195.28 -0.238402 -0.619726 0
M  V30 12830 H 1197.81 -1.28211 -1.59446 0
M  V30 12831 H 1197.82 -0.819517 -3.99685 0
M  V30 12832 H 1196.5 -1.92879 -3.6847 0
M  V30 12833 H 1195.08 -0.0978295 -3.72772 0
M  V30 12834 N 1197.26 1.39987 -0.723979 0
M  V30 12835 C 1198.21 2.27938 -0.0531058 0
M  V30 12836 C 1199.2 1.43693 0.723965 0
M  V30 12837 O 1200.39 1.66707 0.594785 0
M  V30 12838 C 1197.52 3.32311 0.861659 0
M  V30 12839 C 1196.6 4.24026 0.079327 0
M  V30 12840 N 1196.99 4.96954 -0.941805 0
M  V30 12841 C 1195.29 4.44917 0.310637 0
M  V30 12842 C 1195.99 5.64287 -1.41261 0
M  V30 12843 N 1194.97 5.38632 -0.733217 0
M  V30 12844 H 1198.77 2.81771 -0.835608 0
M  V30 12845 H 1196.28 1.52538 -0.557315 0
M  V30 12846 H 1198.28 3.94174 1.35766 0
M  V30 12847 H 1196.94 2.80038 1.64344 0
M  V30 12848 H 1197.95 5.0072 -1.32288 0
M  V30 12849 H 1194.63 4.03606 1.06809 0
M  V30 12850 H 1196.02 6.32695 -2.26155 0
M  V30 12851 N 1198.74 0.470782 1.50404 0
M  V30 12852 C 1199.65 -0.328877 2.32283 0
M  V30 12853 C 1200.67 -0.99629 1.42654 0
M  V30 12854 O 1201.84 -0.984331 1.75707 0
M  V30 12855 C 1198.91 -1.39675 3.1732 0
M  V30 12856 C 1197.97 -0.745965 4.22769 0
M  V30 12857 C 1197.2 -1.76295 5.03742 0
M  V30 12858 O 1197.42 -2.98943 4.85788 0
M  V30 12859 O 1196.36 -1.33495 5.86909 0
M  V30 12860 H 1200.18 0.340491 3.01785 0
M  V30 12861 H 1197.77 0.232637 1.47578 0
M  V30 12862 H 1199.65 -2.0153 3.70086 0
M  V30 12863 H 1198.33 -2.04959 2.50546 0
M  V30 12864 H 1197.23 -0.0884647 3.73995 0
M  V30 12865 H 1198.57 -0.136074 4.92012 0
M  V30 12866 N 1200.22 -1.56282 0.203376 0
M  V30 12867 C 1201.49 -1.89587 -0.481256 0
M  V30 12868 C 1201.87 -1.11812 -1.79057 0
M  V30 12869 O 1201.22 -0.221759 -2.27421 0
M  V30 12870 C 1201.43 -3.42071 -0.691965 0
M  V30 12871 C 1202.78 -4.12471 -1.00761 0
M  V30 12872 O 1203.8 -3.47568 -0.779396 0
M  V30 12873 O 1202.66 -5.27194 -1.43974 0
M  V30 12874 H 1199.76 -0.787682 -0.251963 0
M  V30 12875 H 1202.3 -1.67934 0.244207 0
M  V30 12876 H 1201.08 -3.9061 0.232322 0
M  V30 12877 H 1200.7 -3.69444 -1.46958 0
M  V30 12878 N 1201.7 0.070167 -1.57444 0
M  V30 12879 C 1202.66 1.06761 -2.02817 0
M  V30 12880 C 1203.66 1.31498 -0.925462 0
M  V30 12881 O 1204.85 1.27192 -1.19029 0
M  V30 12882 C 1201.98 2.41086 -2.41019 0
M  V30 12883 H 1203.17 0.67651 -2.9217 0
M  V30 12884 H 1200.73 0.315936 -1.53074 0
M  V30 12885 H 1201.46 2.85025 -1.54697 0
M  V30 12886 H 1201.25 2.24472 -3.21488 0
M  V30 12887 H 1202.74 3.12778 -2.76694 0
M  V30 12888 N 1203.17 1.53854 0.341593 0
M  V30 12889 C 1204.11 1.76797 1.44284 0
M  V30 12890 C 1205.08 0.617157 1.50432 0
M  V30 12891 O 1206.27 0.85254 1.68119 0
M  V30 12892 C 1203.4 1.86837 2.82506 0
M  V30 12893 C 1202.44 3.09001 2.93974 0
M  V30 12894 S 1203.27 4.68012 2.60241 0
M  V30 12895 C 1204.43 4.80933 4.00567 0
M  V30 12896 H 1204.66 2.69927 1.24606 0
M  V30 12897 H 1202.2 1.44747 0.537375 0
M  V30 12898 H 1204.15 1.93306 3.62137 0
M  V30 12899 H 1202.82 0.947162 2.99479 0
M  V30 12900 H 1202.01 3.12707 3.9526 0
M  V30 12901 H 1201.61 3.00768 2.22294 0
M  V30 12902 H 1203.9 4.62462 4.95111 0
M  V30 12903 H 1204.85 5.83025 4.01855 0
M  V30 12904 H 1205.25 4.09372 3.88684 0
M  V30 12905 N 1204.65 -0.602709 1.4562 0
M  V30 12906 C 1205.88 -1.38608 1.53203 0
M  V30 12907 C 1206.29 -1.88478 0.165098 0
M  V30 12908 O 1205.63 -1.63142 -0.844421 0
M  V30 12909 C 1205.69 -2.62214 2.45935 0
M  V30 12910 C 1205.36 -2.3395 3.92577 0
M  V30 12911 C 1206.36 -1.94011 4.82344 0
M  V30 12912 C 1204.04 -2.46711 4.37537 0
M  V30 12913 C 1206.03 -1.67202 6.15079 0
M  V30 12914 C 1203.72 -2.19515 5.70313 0
M  V30 12915 C 1204.72 -1.79823 6.58903 0
M  V30 12916 O 1204.41 -1.52948 7.89216 0
M  V30 12917 H 1204.14 -0.43052 0.52118 0
M  V30 12918 H 1206.69 -0.741655 1.91543 0
M  V30 12919 H 1204.92 -3.29394 2.02575 0
M  V30 12920 H 1206.61 -3.24264 2.44147 0
M  V30 12921 H 1207.38 -1.83684 4.48871 0
M  V30 12922 H 1203.26 -2.76572 3.68821 0
M  V30 12923 H 1206.8 -1.36146 6.84186 0
M  V30 12924 H 1202.7 -2.2946 6.03339 0
M  V30 12925 H 1203.47 -1.6696 8.01291 0
M  V30 12926 N 1206.13 -1.32992 -0.845635 0
M  V30 12927 C 1207.38 -1.2382 -1.59728 0
M  V30 12928 C 1207.7 0.197724 -1.93995 0
M  V30 12929 O 1206.97 1.12477 -1.60392 0
M  V30 12930 H 1205.55 -0.455296 -0.592212 0
M  V30 12931 H 1208.21 -1.66627 -1.01101 0
M  V30 12932 H 1207.31 -1.82717 -2.53023 0
M  V30 12933 N 1207.61 1.06304 -1.1635 0
M  V30 12934 C 1208.84 1.82799 -0.96913 0
M  V30 12935 C 1209.25 1.82526 0.482659 0
M  V30 12936 O 1208.61 1.24437 1.33498 0
M  V30 12937 C 1208.66 3.29417 -1.48884 0
M  V30 12938 O 1208.38 3.29803 -2.88377 0
M  V30 12939 C 1209.88 4.22642 -1.33748 0
M  V30 12940 H 1207.1 0.576388 -0.343537 0
M  V30 12941 H 1209.64 1.34122 -1.54375 0
M  V30 12942 H 1207.8 3.75406 -0.956509 0
M  V30 12943 H 1208.21 4.21486 -3.1217 0
M  V30 12944 H 1209.69 5.23545 -1.74942 0
M  V30 12945 H 1210.16 4.38287 -0.283021 0
M  V30 12946 H 1210.77 3.82499 -1.85942 0
M  V30 12947 N 1209.09 0.96196 1.24836 0
M  V30 12948 C 1210.03 0.48686 2.25607 0
M  V30 12949 C 1211 -0.464546 1.59472 0
M  V30 12950 O 1212.19 -0.376179 1.87055 0
M  V30 12951 C 1209.33 -0.222294 3.44383 0
M  V30 12952 C 1208.44 0.767206 4.25133 0
M  V30 12953 C 1207.58 0.0347458 5.31189 0
M  V30 12954 C 1206.61 1.01469 6.03631 0
M  V30 12955 N 1205.75 0.312619 7.01404 0
M  V30 12956 H 1210.59 1.35104 2.65614 0
M  V30 12957 H 1208.13 0.677373 1.30576 0
M  V30 12958 H 1210.09 -0.650087 4.12104 0
M  V30 12959 H 1208.72 -1.05047 3.0523 0
M  V30 12960 H 1207.77 1.31346 3.57005 0
M  V30 12961 H 1209.08 1.5147 4.75245 0
M  V30 12962 H 1208.23 -0.451325 6.05019 0
M  V30 12963 H 1206.97 -0.745485 4.81969 0
M  V30 12964 H 1205.98 1.51169 5.28609 0
M  V30 12965 H 1207.2 1.79527 6.5494 0
M  V30 12966 H 1205.15 -0.44874 6.54463 0
M  V30 12967 H 1205.07 0.999079 7.49369 0
M  V30 12968 H 1206.33 -0.151673 7.79352 0
M  V30 12969 N 1210.56 -1.39601 0.731392 0
M  V30 12970 C 1211.49 -2.33268 0.1041 0
M  V30 12971 C 1212.47 -1.53724 -0.728219 0
M  V30 12972 O 1213.66 -1.82131 -0.673933 0
M  V30 12973 C 1210.79 -3.37802 -0.806646 0
M  V30 12974 C 1209.74 -4.27928 -0.0787588 0
M  V30 12975 C 1209.07 -5.23131 -1.10628 0
M  V30 12976 C 1210.37 -5.11086 1.07651 0
M  V30 12977 H 1212.06 -2.85975 0.886496 0
M  V30 12978 H 1209.61 -1.375 0.427746 0
M  V30 12979 H 1211.56 -4.02278 -1.25499 0
M  V30 12980 H 1210.29 -2.83527 -1.62112 0
M  V30 12981 H 1208.95 -3.64926 0.349926 0
M  V30 12982 H 1208.59 -4.65152 -1.91422 0
M  V30 12983 H 1208.29 -5.84277 -0.624043 0
M  V30 12984 H 1209.82 -5.90483 -1.5544 0
M  V30 12985 H 1211.23 -5.68927 0.706781 0
M  V30 12986 H 1209.63 -5.81356 1.48814 0
M  V30 12987 H 1210.7 -4.46131 1.89988 0
M  V30 12988 N 1212.04 -0.478751 -1.50152 0
M  V30 12989 C 1212.95 0.316554 -2.32455 0
M  V30 12990 C 1213.97 0.98871 -1.4318 0
M  V30 12991 O 1215.14 0.974998 -1.76226 0
M  V30 12992 C 1212.21 1.3799 -3.18056 0
M  V30 12993 C 1211.27 0.723534 -4.23159 0
M  V30 12994 C 1210.5 1.73621 -5.0467 0
M  V30 12995 O 1210.73 2.96362 -4.87366 0
M  V30 12996 O 1209.66 1.30381 -5.87609 0
M  V30 12997 H 1213.49 -0.356491 -3.016 0
M  V30 12998 H 1211.07 -0.24046 -1.47452 0
M  V30 12999 H 1212.95 1.99565 -3.71149 0
M  V30 13000 H 1211.63 2.03627 -2.5163 0
M  V30 13001 H 1210.54 0.0686296 -3.74037 0
M  V30 13002 H 1211.87 0.109979 -4.92077 0
M  V30 13003 N 1213.52 1.56172 -0.211661 0
M  V30 13004 C 1214.75 2.02428 0.427843 0
M  V30 13005 C 1215.16 1.09162 1.54043 0
M  V30 13006 O 1214.52 0.0994249 1.82229 0
M  V30 13007 C 1214.57 3.48279 0.968728 0
M  V30 13008 O 1214.29 4.37987 -0.0994841 0
M  V30 13009 C 1215.79 4.10132 1.68246 0
M  V30 13010 H 1213.01 0.662611 0.10577 0
M  V30 13011 H 1215.56 2.01897 -0.32522 0
M  V30 13012 H 1213.71 3.49456 1.6721 0
M  V30 13013 H 1214.13 5.23609 0.305558 0
M  V30 13014 H 1215.6 5.13985 2.01304 0
M  V30 13015 H 1216.08 3.54552 2.5921 0
M  V30 13016 H 1216.68 4.12775 1.02453 0
M  V30 13017 N 1215 -0.0618163 1.57479 0
M  V30 13018 C 1216.25 -0.75794 1.86918 0
M  V30 13019 C 1216.56 -1.78234 0.80572 0
M  V30 13020 O 1217.77 -2.52874 0.98827 0
M  V30 13021 C 1216.22 -1.39898 3.31597 0
M  V30 13022 C 1215.83 -0.412621 4.46096 0
M  V30 13023 C 1217.57 -2.07688 3.70224 0
M  V30 13024 C 1215.48 -1.06014 5.8182 0
M  V30 13025 H 1214.41 -0.286825 0.697314 0
M  V30 13026 H 1217.06 -0.0114386 1.83496 0
M  V30 13027 H 1215.44 -2.19408 3.29661 0
M  V30 13028 H 1216.62 0.353392 4.59443 0
M  V30 13029 H 1214.93 0.161383 4.16087 0
M  V30 13030 H 1217.53 -2.56928 4.68927 0
M  V30 13031 H 1217.87 -2.88073 3.00532 0
M  V30 13032 H 1218.41 -1.34996 3.74194 0
M  V30 13033 H 1215.15 -0.296405 6.5483 0
M  V30 13034 H 1214.67 -1.79677 5.72255 0
M  V30 13035 H 1216.34 -1.57708 6.27485 0
M  V30 13036 N 1216.48 -1.54033 -0.333429 0
M  V30 13037 C 1217.89 -1.44522 -0.677166 0
M  V30 13038 C 1218.09 -0.610122 -1.92041 0
M  V30 13039 O 1217.15 -0.105058 -2.52281 0
M  V30 13040 C 1218.46 -2.88129 -0.860369 0
M  V30 13041 C 1220.01 -2.97968 -0.958342 0
M  V30 13042 C 1220.48 -4.42703 -1.17379 0
M  V30 13043 N 1221.98 -4.46273 -1.24075 0
M  V30 13044 C 1222.71 -5.55407 -1.42515 0
M  V30 13045 N 1222.21 -6.74528 -1.58062 0
M  V30 13046 N 1224 -5.43037 -1.45144 0
M  V30 13047 H 1216.15 -2.06815 0.483858 0
M  V30 13048 H 1218.41 -0.935307 0.15461 0
M  V30 13049 H 1218.12 -3.51695 -0.0182085 0
M  V30 13050 H 1217.99 -3.33668 -1.75913 0
M  V30 13051 H 1220.38 -2.34535 -1.79102 0
M  V30 13052 H 1220.46 -2.55774 -0.0362643 0
M  V30 13053 H 1220.11 -5.0672 -0.346004 0
M  V30 13054 H 1220.04 -4.82498 -2.10959 0
M  V30 13055 H 1222.53 -3.60439 -1.13545 0
M  V30 13056 H 1222.84 -7.53462 -1.71797 0
M  V30 13057 H 1221.18 -6.77454 -1.55179 0
M  V30 13058 H 1224.38 -4.4893 -1.32588 0
M  V30 13059 H 1224.55 -6.28146 -1.59173 0
M  V30 13060 N 1217.95 0.594978 -1.45938 0
M  V30 13061 C 1218.9 1.70489 -1.5557 0
M  V30 13062 C 1219.87 1.61193 -0.400751 0
M  V30 13063 O 1221.06 1.80587 -0.615882 0
M  V30 13064 C 1218.2 3.08817 -1.54033 0
M  V30 13065 C 1217.31 3.28827 -2.80173 0
M  V30 13066 C 1216.44 4.57333 -2.70222 0
M  V30 13067 C 1215.48 4.70644 -3.91357 0
M  V30 13068 N 1214.62 5.90463 -3.79865 0
M  V30 13069 H 1219.46 1.61593 -2.50383 0
M  V30 13070 H 1217 0.787747 -1.24229 0
M  V30 13071 H 1218.96 3.88865 -1.51129 0
M  V30 13072 H 1217.59 3.1664 -0.627617 0
M  V30 13073 H 1216.64 2.42467 -2.9311 0
M  V30 13074 H 1217.95 3.34534 -3.69985 0
M  V30 13075 H 1217.1 5.45593 -2.65354 0
M  V30 13076 H 1215.84 4.54045 -1.7803 0
M  V30 13077 H 1214.85 3.80805 -3.9657 0
M  V30 13078 H 1216.07 4.75721 -4.8463 0
M  V30 13079 H 1214.02 5.88196 -2.90451 0
M  V30 13080 H 1213.94 5.97385 -4.63322 0
M  V30 13081 H 1215.2 6.81187 -3.78952 0
M  V30 13082 N 1219.43 1.33438 0.838571 0
M  V30 13083 C 1220.68 1.24259 1.58879 0
M  V30 13084 C 1220.99 -0.189957 1.94675 0
M  V30 13085 O 1222.2 -0.40376 2.68481 0
M  V30 13086 C 1220.66 2.1773 2.86569 0
M  V30 13087 C 1220.26 3.66156 2.58135 0
M  V30 13088 C 1222.01 2.17424 3.64591 0
M  V30 13089 C 1219.92 4.5154 3.81923 0
M  V30 13090 H 1218.85 0.461534 0.59624 0
M  V30 13091 H 1221.5 1.58504 0.924588 0
M  V30 13092 H 1219.88 1.76418 3.54532 0
M  V30 13093 H 1221.05 4.1591 1.98382 0
M  V30 13094 H 1219.37 3.68754 1.93416 0
M  V30 13095 H 1221.96 2.78446 4.56478 0
M  V30 13096 H 1222.31 1.16939 3.99539 0
M  V30 13097 H 1222.84 2.571 3.03553 0
M  V30 13098 H 1219.58 5.52902 3.52107 0
M  V30 13099 H 1219.1 4.06529 4.41015 0
M  V30 13100 H 1220.78 4.65359 4.495 0
M  V30 13101 N 1220.91 -1.05686 1.16912 0
M  V30 13102 C 1221.86 -2.11584 0.849483 0
M  V30 13103 C 1222.84 -1.59959 -0.173774 0
M  V30 13104 O 1224.04 -1.76978 0.0279436 0
M  V30 13105 C 1221.17 -3.41417 0.359079 0
M  V30 13106 C 1220.25 -3.99852 1.41347 0
M  V30 13107 N 1220.64 -4.32317 2.62557 0
M  V30 13108 C 1218.94 -4.27531 1.27017 0
M  V30 13109 C 1219.64 -4.7885 3.30269 0
M  V30 13110 N 1218.62 -4.78664 2.57647 0
M  V30 13111 H 1222.42 -2.34539 1.77112 0
M  V30 13112 H 1219.93 -1.23286 1.05708 0
M  V30 13113 H 1221.93 -4.1675 0.111666 0
M  V30 13114 H 1220.59 -3.19897 -0.556413 0
M  V30 13115 H 1221.6 -4.22472 2.99563 0
M  V30 13116 H 1218.28 -4.15423 0.415924 0
M  V30 13117 H 1219.67 -5.13123 4.33768 0
M  V30 13118 N 1222.39 -0.968567 -1.24324 0
M  V30 13119 C 1223.3 -0.50703 -2.29055 0
M  V30 13120 C 1224.31 0.432431 -1.68541 0
M  V30 13121 O 1225.49 0.30526 -1.99073 0
M  V30 13122 C 1222.56 0.194589 -3.46153 0
M  V30 13123 C 1221.62 -0.784805 -4.22066 0
M  V30 13124 C 1220.85 -0.116574 -5.33573 0
M  V30 13125 O 1221.07 1.09492 -5.59792 0
M  V30 13126 O 1220.01 -0.809171 -5.96436 0
M  V30 13127 H 1223.83 -1.3777 -2.70653 0
M  V30 13128 H 1221.42 -0.735645 -1.30033 0
M  V30 13129 H 1223.3 0.588684 -4.17268 0
M  V30 13130 H 1221.97 1.04021 -3.06531 0
M  V30 13131 H 1220.88 -1.22938 -3.53323 0
M  V30 13132 H 1222.21 -1.59887 -4.65507 0
M  V30 13133 N 1223.87 1.39211 -0.738786 0
M  V30 13134 C 1224.8 2.29117 -0.0616489 0
M  V30 13135 C 1225.81 1.47008 0.699462 0
M  V30 13136 O 1227 1.70041 0.542998 0
M  V30 13137 C 1224.1 3.25692 0.936893 0
M  V30 13138 C 1223.27 4.3676 0.236515 0
M  V30 13139 C 1222.33 5.1362 1.1437 0
M  V30 13140 O 1221.36 5.65816 0.619762 0
M  V30 13141 N 1222.56 5.25184 2.4731 0
M  V30 13142 H 1225.33 2.8787 -0.833711 0
M  V30 13143 H 1222.89 1.50832 -0.588323 0
M  V30 13144 H 1224.88 3.73987 1.54648 0
M  V30 13145 H 1223.45 2.67943 1.61014 0
M  V30 13146 H 1222.67 3.90293 -0.553594 0
M  V30 13147 H 1223.96 5.08192 -0.248707 0
M  V30 13148 H 1223.35 4.84302 2.92349 0
M  V30 13149 H 1221.91 5.76905 3.03355 0
M  V30 13150 N 1225.34 0.486708 1.49896 0
M  V30 13151 C 1226.59 -0.0627279 2.02003 0
M  V30 13152 C 1226.91 -1.38799 1.36967 0
M  V30 13153 O 1226.18 -1.88868 0.520173 0
M  V30 13154 H 1224.76 -0.0261718 0.746541 0
M  V30 13155 H 1227.43 0.640692 1.84068 0
M  V30 13156 H 1226.52 -0.202856 3.1144 0
M  V30 13157 N 1226.82 -1.56058 0.219941 0
M  V30 13158 C 1227.75 -2.2321 -0.685547 0
M  V30 13159 C 1228.73 -1.20328 -1.20229 0
M  V30 13160 O 1229.92 -1.48909 -1.24659 0
M  V30 13161 C 1227.05 -2.91076 -1.89452 0
M  V30 13162 C 1226 -4.00415 -1.51169 0
M  V30 13163 C 1225.33 -4.55569 -2.79931 0
M  V30 13164 C 1226.63 -5.17549 -0.702896 0
M  V30 13165 H 1228.32 -2.99136 -0.125671 0
M  V30 13166 H 1225.87 -1.43879 -0.0590043 0
M  V30 13167 H 1227.82 -3.36744 -2.53341 0
M  V30 13168 H 1226.55 -2.12594 -2.47934 0
M  V30 13169 H 1225.21 -3.55475 -0.896275 0
M  V30 13170 H 1224.85 -3.73819 -3.36553 0
M  V30 13171 H 1224.55 -5.29361 -2.55049 0
M  V30 13172 H 1226.08 -5.03955 -3.44764 0
M  V30 13173 H 1227.49 -5.59608 -1.24544 0
M  V30 13174 H 1225.89 -5.97563 -0.551234 0
M  V30 13175 H 1226.96 -4.84027 0.29083 0
M  V30 13176 N 1228.3 0.053464 -1.57509 0
M  V30 13177 C 1229.55 0.748016 -1.87317 0
M  V30 13178 C 1229.86 1.77805 -0.815161 0
M  V30 13179 O 1231.07 2.52347 -1.00167 0
M  V30 13180 C 1229.53 1.38137 -3.32334 0
M  V30 13181 C 1229.13 0.388958 -4.46308 0
M  V30 13182 C 1230.88 2.05722 -3.7132 0
M  V30 13183 C 1228.78 1.02927 -5.82374 0
M  V30 13184 H 1227.71 0.283123 -0.698826 0
M  V30 13185 H 1230.37 0.00170723 -1.835 0
M  V30 13186 H 1228.75 2.17656 -3.3082 0
M  V30 13187 H 1229.92 -0.377752 -4.59249 0
M  V30 13188 H 1228.24 -0.183447 -4.15996 0
M  V30 13189 H 1230.83 2.54437 -4.70283 0
M  V30 13190 H 1231.18 2.86475 -3.02056 0
M  V30 13191 H 1231.71 1.3301 -3.74904 0
M  V30 13192 H 1228.45 0.261674 -6.54977 0
M  V30 13193 H 1227.97 1.7664 -5.732 0
M  V30 13194 H 1229.65 1.54378 -6.28312 0
M  V30 13195 N 1229.78 1.54207 0.325255 0
M  V30 13196 C 1230.74 1.82757 1.38321 0
M  V30 13197 C 1231.74 0.699312 1.44797 0
M  V30 13198 O 1232.93 0.96762 1.44854 0
M  V30 13199 C 1230.06 1.98608 2.7707 0
M  V30 13200 H 1231.26 2.7728 1.14261 0
M  V30 13201 H 1228.81 1.45899 0.560647 0
M  V30 13202 H 1229.55 1.0629 3.06387 0
M  V30 13203 H 1229.33 2.80707 2.73763 0
M  V30 13204 H 1230.82 2.2215 3.53609 0
M  V30 13205 N 1231.26 -0.58723 1.46251 0
M  V30 13206 C 1232.51 -1.34179 1.50595 0
M  V30 13207 C 1232.82 -1.94943 0.160171 0
M  V30 13208 O 1234.03 -2.71378 0.0813797 0
M  V30 13209 C 1232.48 -2.43159 2.65333 0
M  V30 13210 C 1232.09 -1.88718 4.06312 0
M  V30 13211 C 1233.83 -3.19986 2.78943 0
M  V30 13212 C 1231.74 -2.953 5.12398 0
M  V30 13213 H 1230.67 -0.504401 0.560442 0
M  V30 13214 H 1233.32 -0.627179 1.72449 0
M  V30 13215 H 1231.7 -3.17398 2.368 0
M  V30 13216 H 1232.88 -1.21051 4.44616 0
M  V30 13217 H 1231.19 -1.24572 3.97329 0
M  V30 13218 H 1233.79 -3.9952 3.5537 0
M  V30 13219 H 1234.13 -3.72288 1.86298 0
M  V30 13220 H 1234.67 -2.52852 3.07101 0
M  V30 13221 H 1231.4 -2.4789 6.0682 0
M  V30 13222 H 1230.92 -3.61469 4.78644 0
M  V30 13223 H 1232.6 -3.5933 5.38044 0
M  V30 13224 N 1232.74 -1.33881 -0.831482 0
M  V30 13225 C 1233.67 -1.27384 -1.95693 0
M  V30 13226 C 1234.65 -0.152943 -1.69411 0
M  V30 13227 O 1235.83 -0.34392 -1.9113 0
M  V30 13228 C 1232.96 -1.01982 -3.31989 0
M  V30 13229 C 1231.92 -2.10445 -3.72689 0
M  V30 13230 C 1231.24 -1.70245 -5.06873 0
M  V30 13231 C 1232.54 -3.52194 -3.8569 0
M  V30 13232 H 1234.24 -2.21549 -2.01386 0
M  V30 13233 H 1231.78 -1.06653 -0.967526 0
M  V30 13234 H 1233.73 -0.960841 -4.103 0
M  V30 13235 H 1232.46 -0.0425709 -3.26572 0
M  V30 13236 H 1231.12 -2.15398 -2.96647 0
M  V30 13237 H 1230.77 -0.712036 -4.97935 0
M  V30 13238 H 1230.47 -2.42834 -5.35075 0
M  V30 13239 H 1231.99 -1.65827 -5.87651 0
M  V30 13240 H 1233.4 -3.49701 -4.54293 0
M  V30 13241 H 1231.8 -4.23331 -4.25336 0
M  V30 13242 H 1232.87 -3.9016 -2.87929 0
M  V30 13243 N 1234.21 1.05064 -1.1747 0
M  V30 13244 C 1235.49 1.74999 -0.873776 0
M  V30 13245 C 1235.87 2.01615 0.625676 0
M  V30 13246 O 1235.22 1.65324 1.57734 0
M  V30 13247 C 1235.43 3.04231 -1.7101 0
M  V30 13248 C 1236.78 3.78157 -1.93087 0
M  V30 13249 O 1237.8 3.14104 -1.6798 0
M  V30 13250 O 1236.66 4.93255 -2.3529 0
M  V30 13251 H 1233.75 0.761042 -0.323641 0
M  V30 13252 H 1236.3 1.1122 -1.28172 0
M  V30 13253 H 1235.07 2.80621 -2.72704 0
M  V30 13254 H 1234.69 3.75746 -1.30002 0
M  V30 13255 N 1235.69 0.975146 1.23809 0
M  V30 13256 C 1236.94 0.642074 1.92367 0
M  V30 13257 C 1237.27 -0.82164 1.75962 0
M  V30 13258 O 1236.55 -1.59205 1.11732 0
M  V30 13259 C 1236.83 1.02677 3.45151 0
M  V30 13260 C 1236.68 2.54773 3.7069 0
M  V30 13261 C 1238 0.5668 4.36435 0
M  V30 13262 H 1235.12 0.234735 0.698619 0
M  V30 13263 H 1237.76 1.21549 1.46034 0
M  V30 13264 H 1235.91 0.538846 3.84745 0
M  V30 13265 H 1237.58 3.11099 3.4061 0
M  V30 13266 H 1235.83 2.97641 3.15583 0
M  V30 13267 H 1236.5 2.7674 4.77618 0
M  V30 13268 H 1238.97 0.985635 4.04258 0
M  V30 13269 H 1237.85 0.864458 5.4205 0
M  V30 13270 H 1238.11 -0.532989 4.38875 0
M  V30 13271 N 1237.17 -1.38817 0.746158 0
M  V30 13272 C 1238.08 -2.34316 0.115386 0
M  V30 13273 C 1239.1 -1.58892 -0.709179 0
M  V30 13274 O 1240.27 -1.91126 -0.635059 0
M  V30 13275 C 1237.34 -3.37977 -0.772821 0
M  V30 13276 C 1236.4 -4.2925 0.0652679 0
M  V30 13277 C 1235.63 -5.2796 -0.78064 0
M  V30 13278 O 1235.85 -5.33474 -2.01896 0
M  V30 13279 O 1234.79 -6.01556 -0.20338 0
M  V30 13280 H 1238.61 -2.89937 0.903887 0
M  V30 13281 H 1236.2 -1.40536 0.506958 0
M  V30 13282 H 1238.08 -4.01468 -1.28068 0
M  V30 13283 H 1236.76 -2.84723 -1.53994 0
M  V30 13284 H 1235.66 -3.68945 0.61891 0
M  V30 13285 H 1237 -4.85739 0.794871 0
M  V30 13286 N 1238.65 -0.49465 -1.49636 0
M  V30 13287 C 1240.06 -0.0452894 -1.86645 0
M  V30 13288 C 1240.41 1.36686 -1.40753 0
M  V30 13289 O 1239.53 2.01751 -0.78265 0
M  V30 13290 C 1240.13 -0.0754115 -3.38716 0
M  V30 13291 C 1238.69 0.318579 -3.75049 0
M  V30 13292 C 1237.84 -0.450712 -2.73613 0
M  V30 13293 H 1240.79 -0.707758 -1.42044 0
M  V30 13294 H 1240.81 0.721372 -3.73599 0
M  V30 13295 H 1240.32 -1.10331 -3.72087 0
M  V30 13296 H 1238.42 1.34995 -3.47285 0
M  V30 13297 H 1238.53 0.00354416 -4.791 0
M  V30 13298 H 1236.9 0.0986455 -2.54509 0
M  V30 13299 H 1237.68 -1.47857 -3.09828 0
M  V30 13300 N 1240.13 1.55939 -0.228214 0
M  V30 13301 C 1241.06 2.17874 0.711589 0
M  V30 13302 C 1242.07 1.14969 1.15265 0
M  V30 13303 O 1243.26 1.41919 1.08265 0
M  V30 13304 C 1240.36 2.75294 1.97652 0
M  V30 13305 C 1239.53 4.03435 1.68994 0
M  V30 13306 C 1238.59 4.45354 2.8026 0
M  V30 13307 O 1237.62 5.12117 2.48445 0
M  V30 13308 N 1238.82 4.11588 4.0936 0
M  V30 13309 H 1241.58 2.99148 0.181757 0
M  V30 13310 H 1239.15 1.6183 -0.0474567 0
M  V30 13311 H 1241.14 3.00305 2.71292 0
M  V30 13312 H 1239.71 1.98285 2.41665 0
M  V30 13313 H 1238.93 3.8621 0.789657 0
M  V30 13314 H 1240.22 4.87015 1.47287 0
M  V30 13315 H 1239.61 3.57953 4.38048 0
M  V30 13316 H 1238.17 4.41477 4.79522 0
M  V30 13317 N 1241.6 -0.0451101 1.57535 0
M  V30 13318 C 1242.57 -1.03521 2.0449 0
M  V30 13319 C 1243.57 -1.30009 0.946265 0
M  V30 13320 O 1244.76 -1.25282 1.21038 0
M  V30 13321 C 1241.89 -2.37221 2.44824 0
M  V30 13322 H 1243.08 -0.629943 2.93209 0
M  V30 13323 H 1240.64 -0.291544 1.53557 0
M  V30 13324 H 1241.37 -2.82528 1.59212 0
M  V30 13325 H 1241.16 -2.19329 3.25018 0
M  V30 13326 H 1242.65 -3.08337 2.81635 0
M  V30 13327 N 1243.08 -1.54377 -0.317073 0
M  V30 13328 C 1244.01 -1.8721 -1.39552 0
M  V30 13329 C 1244.99 -0.729483 -1.53664 0
M  V30 13330 O 1246.18 -0.983799 -1.67437 0
M  V30 13331 C 1243.31 -2.1052 -2.76222 0
M  V30 13332 C 1242.26 -3.26366 -2.76892 0
M  V30 13333 C 1241.59 -3.35061 -4.16699 0
M  V30 13334 C 1242.89 -4.63862 -2.40061 0
M  V30 13335 H 1244.58 -2.77532 -1.12323 0
M  V30 13336 H 1242.13 -1.33536 -0.538897 0
M  V30 13337 H 1244.08 -2.32073 -3.51739 0
M  V30 13338 H 1242.81 -1.16953 -3.04942 0
M  V30 13339 H 1241.46 -3.0471 -2.03831 0
M  V30 13340 H 1241.11 -2.39041 -4.4257 0
M  V30 13341 H 1240.81 -4.12923 -4.18053 0
M  V30 13342 H 1242.34 -3.58856 -4.94019 0
M  V30 13343 H 1243.75 -4.85252 -3.05292 0
M  V30 13344 H 1242.15 -5.44321 -2.52655 0
M  V30 13345 H 1243.22 -4.6567 -1.35202 0
M  V30 13346 N 1244.56 0.579466 -1.4656 0
M  V30 13347 C 1245.51 1.68829 -1.5737 0
M  V30 13348 C 1246.48 1.60759 -0.417825 0
M  V30 13349 O 1247.66 1.79923 -0.635001 0
M  V30 13350 C 1244.8 3.07166 -1.573 0
M  V30 13351 C 1243.92 3.25837 -2.83645 0
M  V30 13352 C 1243.05 4.54441 -2.75057 0
M  V30 13353 C 1242.09 4.66467 -3.96327 0
M  V30 13354 N 1241.23 5.86401 -3.86107 0
M  V30 13355 H 1246.07 1.58928 -2.52083 0
M  V30 13356 H 1243.6 0.774526 -1.25058 0
M  V30 13357 H 1245.56 3.8724 -1.55245 0
M  V30 13358 H 1244.19 3.15956 -0.661166 0
M  V30 13359 H 1243.24 2.39345 -2.95666 0
M  V30 13360 H 1244.56 3.30591 -3.73512 0
M  V30 13361 H 1243.71 5.42748 -2.71126 0
M  V30 13362 H 1242.45 4.52131 -1.82836 0
M  V30 13363 H 1241.45 3.76577 -4.00587 0
M  V30 13364 H 1242.68 4.70554 -4.89649 0
M  V30 13365 H 1240.62 5.85082 -2.96673 0
M  V30 13366 H 1240.54 5.92437 -4.69632 0
M  V30 13367 H 1241.81 6.7713 -3.86155 0
M  V30 13368 N 1246.04 1.3432 0.824371 0
M  V30 13369 C 1247.28 1.26783 1.58284 0
M  V30 13370 C 1247.62 -0.162282 1.93521 0
M  V30 13371 O 1246.89 -1.1073 1.59903 0
M  V30 13372 C 1247.18 2.15725 2.88331 0
M  V30 13373 C 1247.03 3.67266 2.59684 0
M  V30 13374 C 1248.35 2.04141 3.8989 0
M  V30 13375 H 1245.47 0.461893 0.574303 0
M  V30 13376 H 1248.11 1.64558 0.949769 0
M  V30 13377 H 1246.26 1.83639 3.42358 0
M  V30 13378 H 1247.93 4.09711 2.11978 0
M  V30 13379 H 1246.17 3.88426 1.93151 0
M  V30 13380 H 1246.84 4.24863 3.52414 0
M  V30 13381 H 1249.32 2.3231 3.45212 0
M  V30 13382 H 1248.2 2.68601 4.7869 0
M  V30 13383 H 1248.46 1.01795 4.30221 0
M  V30 13384 N 1247.52 -1.0444 1.18026 0
M  V30 13385 C 1248.45 -2.14297 0.927314 0
M  V30 13386 C 1249.43 -1.69575 -0.13357 0
M  V30 13387 O 1250.61 -1.94191 0.0182439 0
M  V30 13388 C 1247.74 -3.44397 0.448134 0
M  V30 13389 C 1246.7 -4.02723 1.44907 0
M  V30 13390 C 1246.02 -5.28257 0.827555 0
M  V30 13391 C 1247.32 -4.39331 2.82463 0
M  V30 13392 H 1249.02 -2.35715 1.84605 0
M  V30 13393 H 1246.56 -1.13281 0.889012 0
M  V30 13394 H 1248.52 -4.20606 0.258554 0
M  V30 13395 H 1247.24 -3.22654 -0.506159 0
M  V30 13396 H 1245.9 -3.28591 1.62552 0
M  V30 13397 H 1245.55 -5.02822 -0.13381 0
M  V30 13398 H 1245.25 -5.68242 1.49581 0
M  V30 13399 H 1246.77 -6.07147 0.64842 0
M  V30 13400 H 1248.18 -5.06543 2.68491 0
M  V30 13401 H 1246.58 -4.90355 3.45936 0
M  V30 13402 H 1247.65 -3.4933 3.36299 0
M  V30 13403 N 1248.99 -0.981699 -1.2329 0
M  V30 13404 C 1250.41 -0.690539 -1.43888 0
M  V30 13405 C 1250.61 0.742816 -1.87309 0
M  V30 13406 O 1249.67 1.5151 -2.01993 0
M  V30 13407 C 1250.98 -1.68657 -2.48948 0
M  V30 13408 C 1252.53 -1.70076 -2.62761 0
M  V30 13409 C 1253 -2.68513 -3.71032 0
M  V30 13410 N 1254.49 -2.67039 -3.78476 0
M  V30 13411 C 1255.23 -3.39874 -4.61815 0
M  V30 13412 N 1254.72 -4.22273 -5.49233 0
M  V30 13413 N 1256.52 -3.28633 -4.56023 0
M  V30 13414 H 1248.67 -1.90758 -0.934077 0
M  V30 13415 H 1250.93 -0.822058 -0.472149 0
M  V30 13416 H 1250.64 -2.7117 -2.23964 0
M  V30 13417 H 1250.51 -1.47045 -3.47358 0
M  V30 13418 H 1252.9 -0.682673 -2.87095 0
M  V30 13419 H 1252.98 -1.95754 -1.64663 0
M  V30 13420 H 1252.62 -3.70464 -3.47446 0
M  V30 13421 H 1252.55 -2.40109 -4.68674 0
M  V30 13422 H 1255.04 -2.07241 -3.16006 0
M  V30 13423 H 1255.36 -4.74702 -6.09818 0
M  V30 13424 H 1253.7 -4.26364 -5.48852 0
M  V30 13425 H 1256.89 -2.6371 -3.86749 0
M  V30 13426 H 1257.07 -3.85656 -5.20743 0
M  V30 13427 N 1250.47 1.3842 -0.753509 0
M  V30 13428 C 1251.7 2.04403 -0.320449 0
M  V30 13429 C 1252.12 1.5683 1.05118 0
M  V30 13430 O 1251.47 0.741335 1.66765 0
M  V30 13431 C 1251.52 3.59954 -0.333937 0
M  V30 13432 O 1251.24 4.05782 -1.65144 0
M  V30 13433 C 1252.75 4.43156 0.112997 0
M  V30 13434 H 1249.97 0.656881 -0.136927 0
M  V30 13435 H 1252.51 1.77112 -1.02234 0
M  V30 13436 H 1250.66 3.86083 0.319215 0
M  V30 13437 H 1251.08 5.00213 -1.57757 0
M  V30 13438 H 1252.55 5.51975 0.0523995 0
M  V30 13439 H 1253.03 4.23581 1.16087 0
M  V30 13440 H 1253.64 4.22216 -0.511278 0
M  V30 13441 N 1251.95 0.502579 1.49372 0
M  V30 13442 C 1252.91 -0.263993 2.27675 0
M  V30 13443 C 1253.91 -0.892538 1.33755 0
M  V30 13444 O 1255.1 -0.756826 1.56901 0
M  V30 13445 C 1252.24 -1.37895 3.11765 0
M  V30 13446 H 1253.43 0.423132 2.969 0
M  V30 13447 H 1250.98 0.257595 1.54163 0
M  V30 13448 H 1251.72 -2.10018 2.47109 0
M  V30 13449 H 1251.5 -0.933694 3.80821 0
M  V30 13450 H 1252.99 -1.91889 3.70902 0
M  V30 13451 N 1253.43 -1.55816 0.23648 0
M  V30 13452 C 1254.34 -2.24576 -0.678439 0
M  V30 13453 C 1255.35 -1.25836 -1.20172 0
M  V30 13454 O 1256.53 -1.58686 -1.24019 0
M  V30 13455 C 1253.6 -2.92376 -1.86325 0
M  V30 13456 C 1252.66 -4.06499 -1.38047 0
M  V30 13457 C 1251.89 -4.71057 -2.50881 0
M  V30 13458 O 1252.11 -4.34652 -3.69369 0
M  V30 13459 O 1251.05 -5.59768 -2.21232 0
M  V30 13460 H 1254.87 -3.03452 -0.122601 0
M  V30 13461 H 1252.46 -1.49399 0.00540803 0
M  V30 13462 H 1254.34 -3.35117 -2.55488 0
M  V30 13463 H 1253.01 -2.16448 -2.40691 0
M  V30 13464 H 1251.92 -3.68296 -0.656422 0
M  V30 13465 H 1253.25 -4.84214 -0.883024 0
M  V30 13466 N 1254.91 0.036755 -1.57557 0
M  V30 13467 C 1256.15 0.729106 -1.88919 0
M  V30 13468 C 1256.48 1.75769 -0.832801 0
M  V30 13469 O 1255.74 1.94985 0.167173 0
M  V30 13470 C 1256.04 1.44206 -3.27016 0
M  V30 13471 C 1255.7 0.550184 -4.47531 0
M  V30 13472 C 1254.36 0.304511 -4.80236 0
M  V30 13473 C 1256.72 -0.0660664 -5.21158 0
M  V30 13474 C 1254.04 -0.566316 -5.8396 0
M  V30 13475 C 1256.4 -0.92455 -6.25807 0
M  V30 13476 C 1255.06 -1.17976 -6.56992 0
M  V30 13477 H 1254.33 0.266799 -0.691303 0
M  V30 13478 H 1256.98 -0.0108698 -1.91497 0
M  V30 13479 H 1255.28 2.25516 -3.2039 0
M  V30 13480 H 1256.98 1.98317 -3.48527 0
M  V30 13481 H 1253.57 0.751814 -4.21955 0
M  V30 13482 H 1257.75 0.110784 -4.96176 0
M  V30 13483 H 1253.01 -0.772428 -6.06501 0
M  V30 13484 H 1257.18 -1.40861 -6.82005 0
M  V30 13485 H 1254.81 -1.85627 -7.37188 0
M  V30 13486 N 1256.39 1.54543 0.308881 0
M  V30 13487 C 1257.35 1.84214 1.36374 0
M  V30 13488 C 1258.35 0.71463 1.44047 0
M  V30 13489 O 1259.54 0.98293 1.4382 0
M  V30 13490 C 1256.67 2.01535 2.74948 0
M  V30 13491 H 1257.86 2.78477 1.11314 0
M  V30 13492 H 1255.42 1.46485 0.545141 0
M  V30 13493 H 1256.15 1.09533 3.05242 0
M  V30 13494 H 1255.94 2.83595 2.7077 0
M  V30 13495 H 1257.43 2.25888 3.51233 0
M  V30 13496 N 1257.86 -0.571685 1.46866 0
M  V30 13497 C 1259.27 -1.15383 1.46778 0
M  V30 13498 C 1259.63 -1.95023 0.214576 0
M  V30 13499 O 1258.75 -2.05386 -0.681574 0
M  V30 13500 C 1259.35 -2.09915 2.65935 0
M  V30 13501 C 1257.9 -2.6343 2.68852 0
M  V30 13502 C 1257.05 -1.39517 2.39646 0
M  V30 13503 H 1260 -0.359036 1.54585 0
M  V30 13504 H 1260.02 -2.9356 2.42081 0
M  V30 13505 H 1259.54 -1.51923 3.57129 0
M  V30 13506 H 1257.64 -3.2526 1.8176 0
M  V30 13507 H 1257.75 -3.05412 3.69134 0
M  V30 13508 H 1256.11 -1.69702 1.8993 0
M  V30 13509 H 1256.9 -0.833399 3.33031 0
M  V30 13510 N 1259.34 -1.34755 -0.817236 0
M  V30 13511 C 1260.59 -1.27432 -1.57377 0
M  V30 13512 C 1260.92 0.15419 -1.93888 0
M  V30 13513 O 1260.17 1.11686 -1.60701 0
M  V30 13514 C 1260.47 -2.11611 -2.8802 0
M  V30 13515 C 1260.14 -3.60543 -2.70776 0
M  V30 13516 C 1258.8 -4.01141 -2.6578 0
M  V30 13517 C 1261.15 -4.55089 -2.54053 0
M  V30 13518 C 1258.48 -5.34469 -2.41991 0
M  V30 13519 C 1260.83 -5.88603 -2.31795 0
M  V30 13520 C 1259.49 -6.28358 -2.25215 0
M  V30 13521 H 1258.76 -0.466305 -0.575882 0
M  V30 13522 H 1261.41 -1.66552 -0.945128 0
M  V30 13523 H 1259.72 -1.65336 -3.55206 0
M  V30 13524 H 1261.41 -2.03287 -3.45652 0
M  V30 13525 H 1258 -3.2832 -2.75506 0
M  V30 13526 H 1262.19 -4.24617 -2.56932 0
M  V30 13527 H 1257.44 -5.64284 -2.35359 0
M  V30 13528 H 1261.62 -6.61451 -2.17844 0
M  V30 13529 H 1259.24 -7.31604 -2.06543 0
M  V30 13530 N 1260.82 1.03812 -1.18578 0
M  V30 13531 C 1262.07 1.77319 -0.984173 0
M  V30 13532 C 1262.4 1.88052 0.484789 0
M  V30 13533 O 1261.67 1.3905 1.35998 0
M  V30 13534 C 1261.96 3.20448 -1.6427 0
M  V30 13535 C 1261.81 3.17643 -3.1847 0
M  V30 13536 C 1263.13 4.18623 -1.35805 0
M  V30 13537 H 1260.25 0.643681 -0.358949 0
M  V30 13538 H 1262.89 1.21249 -1.46283 0
M  V30 13539 H 1261.04 3.68324 -1.23572 0
M  V30 13540 H 1262.71 2.77738 -3.6832 0
M  V30 13541 H 1260.95 2.55606 -3.50497 0
M  V30 13542 H 1261.63 4.18724 -3.59686 0
M  V30 13543 H 1264.1 3.79306 -1.71073 0
M  V30 13544 H 1262.98 5.16982 -1.84446 0
M  V30 13545 H 1263.24 4.41203 -0.281418 0
M  V30 13546 N 1262.3 0.988223 1.22768 0
M  V30 13547 C 1263.54 0.662441 1.91676 0
M  V30 13548 C 1263.88 -0.802931 1.76824 0
M  V30 13549 O 1263.15 -1.58011 1.13415 0
M  V30 13550 C 1263.43 1.06332 3.44043 0
M  V30 13551 C 1263.29 2.5869 3.67967 0
M  V30 13552 C 1264.61 0.613058 4.35809 0
M  V30 13553 H 1261.73 0.242132 0.69609 0
M  V30 13554 H 1264.37 1.23091 1.44736 0
M  V30 13555 H 1262.52 0.579623 3.84152 0
M  V30 13556 H 1264.19 3.14694 3.37291 0
M  V30 13557 H 1262.43 3.00971 3.12408 0
M  V30 13558 H 1263.1 2.8179 4.74656 0
M  V30 13559 H 1265.58 1.02846 4.0319 0
M  V30 13560 H 1264.46 0.921901 5.41103 0
M  V30 13561 H 1264.72 -0.48641 4.39416 0
M  V30 13562 N 1263.78 -1.38018 0.760839 0
M  V30 13563 C 1265.02 -1.99952 0.320241 0
M  V30 13564 C 1265.35 -1.60397 -1.10014 0
M  V30 13565 O 1264.61 -0.836407 -1.76926 0
M  V30 13566 C 1264.9 -3.55168 0.398778 0
M  V30 13567 C 1264.57 -4.14457 1.77585 0
M  V30 13568 C 1263.23 -4.30363 2.15269 0
M  V30 13569 C 1265.58 -4.47089 2.67883 0
M  V30 13570 C 1262.91 -4.762 3.4271 0
M  V30 13571 C 1265.26 -4.94345 3.94722 0
M  V30 13572 C 1263.93 -5.08458 4.32466 0
M  V30 13573 H 1263.2 -0.731675 0.117185 0
M  V30 13574 H 1265.85 -1.64955 0.972736 0
M  V30 13575 H 1264.15 -3.90346 -0.337273 0
M  V30 13576 H 1265.85 -4.00981 0.0393393 0
M  V30 13577 H 1262.44 -4.02496 1.47292 0
M  V30 13578 H 1266.62 -4.34395 2.40031 0
M  V30 13579 H 1261.88 -4.85312 3.71863 0
M  V30 13580 H 1266.05 -5.18563 4.64828 0
M  V30 13581 H 1263.68 -5.43735 5.31278 0
M  V30 13582 N 1265.25 -0.510493 -1.49103 0
M  V30 13583 C 1266.5 0.0325393 -2.01674 0
M  V30 13584 C 1266.82 1.37162 -1.39448 0
M  V30 13585 O 1268.02 2.00189 -1.83402 0
M  V30 13586 C 1266.48 0.108433 -3.59737 0
M  V30 13587 C 1266.09 -1.22458 -4.30939 0
M  V30 13588 C 1267.83 0.601326 -4.20219 0
M  V30 13589 C 1265.74 -1.11033 -5.80884 0
M  V30 13590 H 1264.67 0.0159333 -0.753832 0
M  V30 13591 H 1267.32 -0.651344 -1.71551 0
M  V30 13592 H 1265.7 0.856974 -3.86616 0
M  V30 13593 H 1266.87 -1.98715 -4.15751 0
M  V30 13594 H 1265.19 -1.65166 -3.82242 0
M  V30 13595 H 1267.79 0.704462 -5.30039 0
M  V30 13596 H 1268.13 1.60247 -3.84222 0
M  V30 13597 H 1268.66 -0.0909561 -3.97696 0
M  V30 13598 H 1265.4 -2.08603 -6.21422 0
M  V30 13599 H 1264.92 -0.388798 -5.98539 0
M  V30 13600 H 1266.6 -0.792949 -6.42123 0
M  V30 13601 N 1266.73 1.55688 -0.24474 0
M  V30 13602 C 1267.69 2.20014 0.642382 0
M  V30 13603 C 1268.69 1.16877 1.10437 0
M  V30 13604 O 1269.88 1.41972 1.00943 0
M  V30 13605 C 1267.02 2.84198 1.88267 0
M  V30 13606 H 1268.21 2.9979 0.0811937 0
M  V30 13607 H 1265.76 1.56299 0.00480917 0
M  V30 13608 H 1266.5 2.08354 2.48514 0
M  V30 13609 H 1266.28 3.59747 1.55963 0
M  V30 13610 H 1267.77 3.33434 2.5142 0
M  V30 13611 N 1268.21 -0.0283989 1.57574 0
M  V30 13612 C 1269.17 -1.01346 2.05576 0
M  V30 13613 C 1270.17 -1.28999 0.960001 0
M  V30 13614 O 1271.36 -1.23991 1.2236 0
M  V30 13615 C 1268.49 -2.34611 2.47327 0
M  V30 13616 H 1269.69 -0.598809 2.93861 0
M  V30 13617 H 1267.24 -0.27524 1.53857 0
M  V30 13618 H 1267.98 -2.80823 1.622 0
M  V30 13619 H 1267.76 -2.1587 3.27326 0
M  V30 13620 H 1269.25 -3.05332 2.84889 0
M  V30 13621 N 1269.69 -1.54705 -0.300681 0
M  V30 13622 C 1271.1 -1.64998 -0.873654 0
M  V30 13623 C 1271.45 -0.558842 -1.88073 0
M  V30 13624 O 1270.57 0.304474 -2.14247 0
M  V30 13625 C 1271.17 -2.99099 -1.59138 0
M  V30 13626 C 1269.73 -3.11512 -2.11276 0
M  V30 13627 C 1268.88 -2.60681 -0.945551 0
M  V30 13628 H 1271.83 -1.5851 -0.0776752 0
M  V30 13629 H 1271.85 -2.9054 -2.45696 0
M  V30 13630 H 1271.36 -3.78493 -0.858172 0
M  V30 13631 H 1269.46 -2.36838 -2.87643 0
M  V30 13632 H 1269.57 -4.17672 -2.34707 0
M  V30 13633 H 1267.94 -2.17143 -1.33121 0
M  V30 13634 H 1268.72 -3.42553 -0.226291 0
M  V30 13635 N 1271.17 0.563888 -1.47167 0
M  V30 13636 C 1272.39 1.34693 -1.57052 0
M  V30 13637 C 1272.81 1.87534 -0.218308 0
M  V30 13638 O 1272.17 1.64639 0.787416 0
M  V30 13639 C 1272.22 2.52148 -2.59044 0
M  V30 13640 O 1271.94 2.01492 -3.89015 0
M  V30 13641 C 1273.44 3.4445 -2.7905 0
M  V30 13642 H 1270.66 0.410822 -0.530534 0
M  V30 13643 H 1273.2 0.683731 -1.92731 0
M  V30 13644 H 1271.36 3.14419 -2.26317 0
M  V30 13645 H 1271.77 2.78122 -4.44689 0
M  V30 13646 H 1273.25 4.23297 -3.54293 0
M  V30 13647 H 1273.72 3.97575 -1.86631 0
M  V30 13648 H 1274.33 2.88 -3.12948 0
M  V30 13649 N 1272.64 1.35187 0.810078 0
M  V30 13650 C 1273.89 1.27602 1.56207 0
M  V30 13651 C 1274.21 -0.148621 1.95035 0
M  V30 13652 O 1275.41 -0.346721 2.69277 0
M  V30 13653 C 1273.87 2.23759 2.81886 0
M  V30 13654 C 1273.48 3.71549 2.5031 0
M  V30 13655 C 1275.22 2.25109 3.59898 0
M  V30 13656 C 1273.13 4.5954 3.7226 0
M  V30 13657 H 1272.06 0.474078 0.586316 0
M  V30 13658 H 1274.71 1.6043 0.890759 0
M  V30 13659 H 1273.09 1.83898 3.5071 0
M  V30 13660 H 1274.26 4.20025 1.89515 0
M  V30 13661 H 1272.58 3.72773 1.85551 0
M  V30 13662 H 1275.18 2.88066 4.50469 0
M  V30 13663 H 1275.52 1.25387 3.96968 0
M  V30 13664 H 1276.05 2.63481 2.98031 0
M  V30 13665 H 1272.79 5.60246 3.403 0
M  V30 13666 H 1272.31 4.15792 4.32293 0
M  V30 13667 H 1273.99 4.74789 4.39528 0
M  V30 13668 N 1274.12 -1.03182 1.19127 0
M  V30 13669 C 1275.35 -1.80165 1.01726 0
M  V30 13670 C 1275.77 -1.83742 -0.434095 0
M  V30 13671 O 1275.12 -1.27932 -1.30152 0
M  V30 13672 C 1275.17 -3.25354 1.57566 0
M  V30 13673 O 1274.89 -3.22042 2.9702 0
M  V30 13674 C 1276.4 -4.18948 1.44906 0
M  V30 13675 H 1273.62 -0.567078 0.358698 0
M  V30 13676 H 1276.16 -1.29982 1.57877 0
M  V30 13677 H 1274.31 -3.72738 1.0557 0
M  V30 13678 H 1274.73 -4.13061 3.23235 0
M  V30 13679 H 1276.2 -5.18723 1.88762 0
M  V30 13680 H 1276.68 -4.37383 0.399125 0
M  V30 13681 H 1277.29 -3.77435 1.96018 0
M  V30 13682 N 1275.6 -0.99472 -1.22242 0
M  V30 13683 C 1277.01 -0.706456 -1.72818 0
M  V30 13684 C 1277.36 0.776566 -1.80177 0
M  V30 13685 O 1276.49 1.60698 -1.44931 0
M  V30 13686 C 1277.08 -1.27571 -3.13865 0
M  V30 13687 C 1275.64 -1.03679 -3.61839 0
M  V30 13688 C 1274.79 -1.3948 -2.39668 0
M  V30 13689 H 1277.74 -1.16687 -1.07564 0
M  V30 13690 H 1277.76 -0.655202 -3.74816 0
M  V30 13691 H 1277.27 -2.35508 -3.08476 0
M  V30 13692 H 1275.37 0.0258679 -3.72591 0
M  V30 13693 H 1275.49 -1.70145 -4.4787 0
M  V30 13694 H 1273.85 -0.813418 -2.41362 0
M  V30 13695 H 1274.63 -2.48425 -2.36939 0
M  V30 13696 N 1277.08 1.37613 -0.768148 0
M  V30 13697 C 1278.33 1.99384 -0.330187 0
M  V30 13698 C 1278.65 1.61283 1.09604 0
M  V30 13699 O 1277.92 0.876551 1.75195 0
M  V30 13700 H 1276.5 0.737445 -0.119095 0
M  V30 13701 H 1279.16 1.6815 -0.985476 0
M  V30 13702 H 1278.26 3.09462 -0.40494 0
M  V30 13703 N 1278.56 0.518393 1.4883 0
M  V30 13704 C 1279.49 -0.239685 2.32267 0
M  V30 13705 C 1280.47 -0.94613 1.41359 0
M  V30 13706 O 1281.65 -0.934162 1.70256 0
M  V30 13707 C 1278.78 -1.29411 3.22289 0
M  V30 13708 C 1277.74 -0.706504 4.22129 0
M  V30 13709 C 1277.06 -1.86273 5.01205 0
M  V30 13710 C 1278.36 0.314079 5.21355 0
M  V30 13711 H 1280.06 0.4568 2.95895 0
M  V30 13712 H 1277.6 0.221126 1.42292 0
M  V30 13713 H 1279.56 -1.8323 3.7948 0
M  V30 13714 H 1278.28 -2.02001 2.56638 0
M  V30 13715 H 1276.94 -0.189924 3.66108 0
M  V30 13716 H 1276.59 -2.57674 4.31988 0
M  V30 13717 H 1276.29 -1.47554 5.68772 0
M  V30 13718 H 1277.81 -2.40492 5.61245 0
M  V30 13719 H 1279.22 -0.136604 5.73137 0
M  V30 13720 H 1277.62 0.618026 5.96909 0
M  V30 13721 H 1278.69 1.22394 4.69199 0
M  V30 13722 N 1280.03 -1.55556 0.252993 0
M  V30 13723 C 1280.98 -2.23035 -0.660161 0
M  V30 13724 C 1281.98 -1.21994 -1.17532 0
M  V30 13725 O 1283.18 -1.39989 -1.13151 0
M  V30 13726 H 1279.56 -0.715516 -0.23139 0
M  V30 13727 H 1281.53 -2.98323 -0.0679506 0
M  V30 13728 C 1280.28 -2.94817 -1.84332 0
M  V30 13729 H 1279.6 -3.72342 -1.45607 0
M  V30 13730 H 1281.04 -3.45386 -2.45936 0
M  V30 13731 C 1279.5 -1.99033 -2.71822 0
M  V30 13732 O 1280.03 -1.5273 -3.71533 0
M  V30 13733 N 1278.24 -1.66004 -2.38518 0
M  V30 13734 H 1277.78 -2.03853 -1.57485 0
M  V30 13735 H 1277.74 -1.02183 -2.97331 0
M  V30 13736 N 1281.51 0.0200419 -1.57587 0
M  V30 13737 C 1282.42 1.0346 -2.10555 0
M  V30 13738 C 1283.44 1.39035 -1.0462 0
M  V30 13739 O 1284.61 1.48172 -1.36407 0
M  V30 13740 C 1281.68 2.31389 -2.58186 0
M  V30 13741 C 1280.74 2.02311 -3.7864 0
M  V30 13742 C 1279.97 3.24141 -4.23991 0
M  V30 13743 O 1280.2 4.35132 -3.68803 0
M  V30 13744 O 1279.13 3.09312 -5.16342 0
M  V30 13745 H 1282.96 0.614419 -2.9742 0
M  V30 13746 H 1280.54 0.237604 -1.47498 0
M  V30 13747 H 1282.42 3.06582 -2.89112 0
M  V30 13748 H 1281.1 2.72684 -1.74428 0
M  V30 13749 H 1280.01 1.24658 -3.5272 0
M  V30 13750 H 1281.34 1.65866 -4.6341 0
M  V30 13751 N 1282.99 1.54862 0.292472 0
M  V30 13752 C 1284.27 1.65237 1.04671 0
M  V30 13753 C 1284.65 0.506168 2.04942 0
M  V30 13754 O 1284 -0.496123 2.23049 0
M  V30 13755 C 1284.21 3.03618 1.72095 0
M  V30 13756 C 1285.55 3.6072 2.23979 0
M  V30 13757 O 1286.58 3.06126 1.82114 0
M  V30 13758 O 1285.44 4.56328 3.0071 0
M  V30 13759 H 1282.53 0.670347 0.484319 0
M  V30 13760 H 1285.08 1.67206 0.28988 0
M  V30 13761 H 1283.85 3.78482 0.993324 0
M  V30 13762 H 1283.47 3.05464 2.54514 0
M  V30 13763 N 1284.47 -0.556076 1.47464 0
M  V30 13764 C 1285.38 -1.69043 1.62671 0
M  V30 13765 C 1286.39 -1.66372 0.509535 0
M  V30 13766 O 1287.57 -1.85799 0.777218 0
M  V30 13767 C 1284.64 -3.05546 1.63836 0
M  V30 13768 C 1283.7 -3.19275 2.86988 0
M  V30 13769 C 1282.93 -4.49267 2.88088 0
M  V30 13770 O 1283.15 -5.34796 1.98368 0
M  V30 13771 O 1282.09 -4.66811 3.79962 0
M  V30 13772 H 1285.91 -1.59155 2.58657 0
M  V30 13773 H 1283.5 -0.726211 1.30562 0
M  V30 13774 H 1285.38 -3.86778 1.67275 0
M  V30 13775 H 1284.05 -3.15814 0.710173 0
M  V30 13776 H 1282.96 -2.37437 2.89093 0
M  V30 13777 H 1284.29 -3.13912 3.79104 0
M  V30 13778 N 1285.95 -1.35615 -0.802897 0
M  V30 13779 C 1287.17 -1.32377 -1.59659 0
M  V30 13780 C 1287.6 0.0954235 -1.87858 0
M  V30 13781 O 1286.96 1.06336 -1.46842 0
M  V30 13782 C 1287 -2.13972 -2.90256 0
M  V30 13783 O 1286.11 -1.52296 -3.83249 0
M  V30 13784 H 1285.45 -0.453699 -0.484823 0
M  V30 13785 H 1287.98 -1.78708 -0.996217 0
M  V30 13786 H 1287.99 -2.26061 -3.39647 0
M  V30 13787 H 1286.66 -3.17145 -2.69057 0
M  V30 13788 H 1285.24 -1.49068 -3.41809 0
M  V30 13789 N 1287.43 1.02549 -1.19673 0
M  V30 13790 C 1288.36 2.12794 -0.961289 0
M  V30 13791 C 1289.34 1.69766 0.106575 0
M  V30 13792 O 1290.52 1.94138 -0.0491358 0
M  V30 13793 C 1287.65 3.4364 -0.502868 0
M  V30 13794 C 1286.61 4.00367 -1.51296 0
M  V30 13795 C 1285.93 5.26874 -0.911491 0
M  V30 13796 C 1287.23 4.34782 -2.89416 0
M  V30 13797 H 1288.93 2.32748 -1.88331 0
M  V30 13798 H 1286.47 1.11852 -0.906922 0
M  V30 13799 H 1288.42 4.20141 -0.325436 0
M  V30 13800 H 1287.15 3.23418 0.454764 0
M  V30 13801 H 1285.81 3.25964 -1.67759 0
M  V30 13802 H 1285.46 5.02971 0.0537982 0
M  V30 13803 H 1285.16 5.65791 -1.58602 0
M  V30 13804 H 1286.68 6.06039 -0.74493 0
M  V30 13805 H 1288.09 5.02207 -2.76516 0
M  V30 13806 H 1286.49 4.8479 -3.53693 0
M  V30 13807 H 1287.56 3.43935 -3.41814 0
M  V30 13808 N 1288.9 1.00119 1.21713 0
M  V30 13809 C 1289.84 0.516633 2.23301 0
M  V30 13810 C 1290.85 -0.392732 1.57992 0
M  V30 13811 O 1292.04 -0.19354 1.77448 0
M  V30 13812 C 1289.14 -0.269612 3.37826 0
M  V30 13813 C 1288.31 0.637898 4.32723 0
M  V30 13814 C 1287.37 -0.0980745 5.26109 0
M  V30 13815 O 1286.4 0.519302 5.66826 0
M  V30 13816 N 1287.6 -1.37783 5.63911 0
M  V30 13817 H 1290.36 1.39022 2.65505 0
M  V30 13818 H 1287.92 0.87688 1.36097 0
M  V30 13819 H 1289.92 -0.770826 3.97291 0
M  V30 13820 H 1288.49 -1.04436 2.94638 0
M  V30 13821 H 1287.71 1.31966 3.71455 0
M  V30 13822 H 1288.99 1.25564 4.93063 0
M  V30 13823 H 1288.39 -1.90061 5.32817 0
M  V30 13824 H 1286.95 -1.82407 6.25756 0
M  V30 13825 N 1290.38 -1.37203 0.775435 0
M  V30 13826 C 1291.8 -1.52962 0.455488 0
M  V30 13827 C 1292 -1.73284 -1.02834 0
M  V30 13828 O 1291.05 -1.75631 -1.81411 0
M  V30 13829 C 1292.37 -2.72389 1.27377 0
M  V30 13830 C 1293.91 -2.86252 1.26604 0
M  V30 13831 C 1294.39 -4.08666 2.06775 0
M  V30 13832 N 1295.88 -4.15786 2.04148 0
M  V30 13833 C 1296.62 -5.09548 2.6296 0
M  V30 13834 N 1296.11 -6.08845 3.30574 0
M  V30 13835 N 1297.9 -5.02059 2.5277 0
M  V30 13836 H 1290.06 -1.22265 1.73681 0
M  V30 13837 H 1292.32 -0.595638 0.737509 0
M  V30 13838 H 1292.02 -2.63849 2.32544 0
M  V30 13839 H 1291.9 -3.66171 0.905467 0
M  V30 13840 H 1294.29 -2.94261 0.222345 0
M  V30 13841 H 1294.37 -1.93418 1.67401 0
M  V30 13842 H 1294.01 -4.01419 3.11168 0
M  V30 13843 H 1293.94 -5.00621 1.63358 0
M  V30 13844 H 1296.43 -3.44683 1.54926 0
M  V30 13845 H 1296.74 -6.76926 3.72815 0
M  V30 13846 H 1295.09 -6.09113 3.34674 0
M  V30 13847 H 1298.28 -4.23431 1.99559 0
M  V30 13848 H 1298.45 -5.74947 2.98898 0
M  V30 13849 N 1291.86 -0.526279 -1.48553 0
M  V30 13850 C 1292.79 0.227364 -2.3239 0
M  V30 13851 C 1293.77 0.93862 -1.41859 0
M  V30 13852 O 1294.96 0.925119 -1.70749 0
M  V30 13853 C 1292.09 1.277 -3.22971 0
M  V30 13854 C 1291.04 0.684107 -4.22497 0
M  V30 13855 C 1290.37 1.83612 -5.02186 0
M  V30 13856 C 1291.67 -0.341723 -5.21181 0
M  V30 13857 H 1293.36 -0.472486 -2.95648 0
M  V30 13858 H 1290.91 -0.228669 -1.42173 0
M  V30 13859 H 1292.86 1.81215 -3.80446 0
M  V30 13860 H 1291.58 2.00638 -2.57705 0
M  V30 13861 H 1290.24 0.170505 -3.66203 0
M  V30 13862 H 1289.89 2.55379 -4.33348 0
M  V30 13863 H 1289.59 1.44536 -5.69547 0
M  V30 13864 H 1291.11 2.37513 -5.62512 0
M  V30 13865 H 1292.53 0.106207 -5.73202 0
M  V30 13866 H 1290.92 -0.649673 -5.96573 0
M  V30 13867 H 1291.99 -1.2488 -4.68543 0
M  V30 13868 N 1293.34 1.5542 -0.261239 0
M  V30 13869 C 1294.27 2.19334 0.665214 0
M  V30 13870 C 1295.28 1.17388 1.128 0
M  V30 13871 O 1296.47 1.44183 1.0523 0
M  V30 13872 C 1293.57 2.79425 1.91768 0
M  V30 13873 C 1292.74 4.06929 1.60399 0
M  V30 13874 C 1291.8 4.51199 2.70751 0
M  V30 13875 O 1290.83 5.17272 2.37526 0
M  V30 13876 N 1292.03 4.20179 4.00537 0
M  V30 13877 H 1294.8 2.99467 0.118262 0
M  V30 13878 H 1292.36 1.61693 -0.0817727 0
M  V30 13879 H 1294.35 3.05992 2.64861 0
M  V30 13880 H 1292.92 2.03366 2.37405 0
M  V30 13881 H 1292.14 3.87798 0.707559 0
M  V30 13882 H 1293.43 4.9003 1.36924 0
M  V30 13883 H 1292.83 3.67164 4.30357 0
M  V30 13884 H 1291.38 4.51549 4.7005 0
M  V30 13885 N 1294.82 -0.0116844 1.57596 0
M  V30 13886 C 1295.76 -1.00684 2.07681 0
M  V30 13887 C 1296.73 -1.34858 0.969666 0
M  V30 13888 O 1297.92 -1.44896 1.24136 0
M  V30 13889 C 1295.06 -2.29729 2.57524 0
M  V30 13890 C 1294.17 -2.0156 3.82096 0
M  V30 13891 C 1293.31 -3.24601 4.20485 0
M  V30 13892 C 1292.34 -2.92066 5.37925 0
M  V30 13893 N 1291.48 -4.0761 5.71663 0
M  V30 13894 H 1296.32 -0.572787 2.92443 0
M  V30 13895 H 1293.86 -0.271184 1.44579 0
M  V30 13896 H 1295.82 -3.05152 2.84496 0
M  V30 13897 H 1294.45 -2.70824 1.75653 0
M  V30 13898 H 1293.5 -1.16556 3.62103 0
M  V30 13899 H 1294.81 -1.73572 4.67626 0
M  V30 13900 H 1293.96 -4.08379 4.48677 0
M  V30 13901 H 1292.7 -3.55718 3.3364 0
M  V30 13902 H 1291.71 -2.06693 5.09468 0
M  V30 13903 H 1292.93 -2.62209 6.26437 0
M  V30 13904 H 1290.88 -4.38645 4.87777 0
M  V30 13905 H 1290.8 -3.83105 6.51741 0
M  V30 13906 H 1292.06 -4.92211 6.04441 0
M  V30 13907 N 1296.29 -1.55015 -0.284256 0
M  V30 13908 C 1297.2 -1.90203 -1.37332 0
M  V30 13909 C 1298.22 -0.797994 -1.54622 0
M  V30 13910 O 1299.4 -1.09602 -1.68965 0
M  V30 13911 C 1296.46 -2.15687 -2.71441 0
M  V30 13912 C 1295.52 -3.39313 -2.62993 0
M  V30 13913 C 1294.75 -3.63571 -3.90707 0
M  V30 13914 O 1294.98 -2.90538 -4.9086 0
M  V30 13915 O 1293.91 -4.57102 -3.91589 0
M  V30 13916 H 1297.74 -2.82888 -1.1049 0
M  V30 13917 H 1295.32 -1.41418 -0.481798 0
M  V30 13918 H 1297.2 -2.33553 -3.50758 0
M  V30 13919 H 1295.88 -1.26185 -2.98092 0
M  V30 13920 H 1294.79 -3.26793 -1.82091 0
M  V30 13921 H 1296.12 -4.28997 -2.41293 0
M  V30 13922 N 1297.77 0.548248 -1.47757 0
M  V30 13923 C 1299 1.335 -1.58722 0
M  V30 13924 C 1299.42 1.86549 -0.241034 0
M  V30 13925 O 1298.78 1.63447 0.784517 0
M  V30 13926 C 1298.83 2.47457 -2.62293 0
M  V30 13927 O 1297.93 3.49956 -2.18185 0
M  V30 13928 H 1297.27 0.396166 -0.532868 0
M  V30 13929 H 1299.8 0.66164 -1.93607 0
M  V30 13930 H 1299.81 2.93901 -2.82995 0
M  V30 13931 H 1298.49 2.08203 -3.60034 0
M  V30 13932 H 1297.06 3.09755 -2.0762 0
M  V30 13933 N 1299.25 1.36039 0.795694 0
M  V30 13934 C 1300.53 1.20474 1.54096 0
M  V30 13935 C 1300.91 -0.211691 2.10036 0
M  V30 13936 O 1300.25 -1.21656 1.93422 0
M  V30 13937 C 1300.46 2.28164 2.64087 0
M  V30 13938 C 1301.81 2.64519 3.32137 0
M  V30 13939 O 1302.84 2.2716 2.74366 0
M  V30 13940 O 1301.7 3.28796 4.36527 0
M  V30 13941 H 1298.79 0.468699 0.681359 0
M  V30 13942 H 1301.34 1.47752 0.834716 0
M  V30 13943 H 1300.11 3.23121 2.20701 0
M  V30 13944 H 1299.73 2.02217 3.42336 0
M  V30 13945 N 1300.73 -1.01913 1.20215 0
M  V30 13946 C 1301.98 -1.74878 1.00502 0
M  V30 13947 C 1302.29 -1.90022 -0.463792 0
M  V30 13948 O 1303.5 -2.60055 -0.779982 0
M  V30 13949 C 1301.95 -3.1452 1.74943 0
M  V30 13950 C 1301.56 -3.07397 3.259 0
M  V30 13951 C 1303.3 -3.91713 1.63589 0
M  V30 13952 C 1301.21 -4.42032 3.92889 0
M  V30 13953 H 1300.14 -0.655603 0.372426 0
M  V30 13954 H 1302.79 -1.13978 1.4381 0
M  V30 13955 H 1301.17 -3.75946 1.24421 0
M  V30 13956 H 1302.35 -2.55294 3.83617 0
M  V30 13957 H 1300.66 -2.43698 3.37639 0
M  V30 13958 H 1303.26 -4.91316 2.1098 0
M  V30 13959 H 1303.6 -4.12074 0.591665 0
M  V30 13960 H 1304.14 -3.3691 2.11511 0
M  V30 13961 H 1300.88 -4.26874 4.97453 0
M  V30 13962 H 1300.4 -4.94151 3.39962 0
M  V30 13963 H 1302.07 -5.10884 3.96997 0
M  V30 13964 N 1302.21 -1.00763 -1.2118 0
M  V30 13965 C 1303.14 -0.590493 -2.2591 0
M  V30 13966 C 1304.12 0.390002 -1.65569 0
M  V30 13967 O 1305.3 0.277406 -1.92208 0
M  V30 13968 C 1302.43 0.0810388 -3.47205 0
M  V30 13969 C 1301.39 -0.81951 -4.20081 0
M  V30 13970 C 1300.71 -0.014244 -5.34698 0
M  V30 13971 C 1302.01 -2.12336 -4.7719 0
M  V30 13972 H 1303.71 -1.46595 -2.61056 0
M  V30 13973 H 1301.25 -0.706321 -1.25487 0
M  V30 13974 H 1303.21 0.384355 -4.19644 0
M  V30 13975 H 1301.93 0.991145 -3.11197 0
M  V30 13976 H 1300.59 -1.10669 -3.49497 0
M  V30 13977 H 1300.24 0.897233 -4.94933 0
M  V30 13978 H 1299.94 -0.613883 -5.84384 0
M  V30 13979 H 1301.46 0.282827 -6.09945 0
M  V30 13980 H 1302.87 -1.88301 -5.41494 0
M  V30 13981 H 1301.27 -2.67308 -5.37277 0
M  V30 13982 H 1302.34 -2.79238 -3.96427 0
M  V30 13983 N 1303.68 1.3679 -0.7827 0
M  V30 13984 C 1304.62 2.28805 -0.13451 0
M  V30 13985 C 1305.63 1.49159 0.652338 0
M  V30 13986 O 1306.82 1.71682 0.488626 0
M  V30 13987 C 1303.92 3.28508 0.832802 0
M  V30 13988 C 1303.09 4.37291 0.0974435 0
M  V30 13989 C 1302.15 5.16999 0.979715 0
M  V30 13990 O 1301.18 5.67501 0.439439 0
M  V30 13991 N 1302.38 5.32786 2.30477 0
M  V30 13992 H 1305.14 2.85072 -0.924873 0
M  V30 13993 H 1302.7 1.48884 -0.636012 0
M  V30 13994 H 1304.7 3.78718 1.42671 0
M  V30 13995 H 1303.27 2.7293 1.52408 0
M  V30 13996 H 1302.49 3.88335 -0.677483 0
M  V30 13997 H 1303.77 5.07143 -0.410259 0
M  V30 13998 H 1303.17 4.93358 2.76793 0
M  V30 13999 H 1301.73 5.86264 2.84848 0
M  V30 14000 N 1305.16 0.53415 1.48272 0
M  V30 14001 C 1306.58 0.192291 1.58437 0
M  V30 14002 C 1306.78 -1.3046 1.53566 0
M  V30 14003 O 1305.83 -2.08316 1.42692 0
M  V30 14004 C 1307.15 0.798515 2.89904 0
M  V30 14005 C 1308.7 0.76763 3.03441 0
M  V30 14006 C 1309.17 1.3525 4.37574 0
M  V30 14007 N 1310.66 1.31466 4.44152 0
M  V30 14008 C 1311.4 1.73706 5.46456 0
M  V30 14009 N 1310.89 2.23695 6.55692 0
M  V30 14010 N 1312.69 1.64918 5.37363 0
M  V30 14011 H 1304.84 1.50696 1.49681 0
M  V30 14012 H 1307.1 0.627073 0.710973 0
M  V30 14013 H 1306.81 1.8496 2.99136 0
M  V30 14014 H 1306.68 0.278033 3.76174 0
M  V30 14015 H 1309.07 -0.274704 2.93819 0
M  V30 14016 H 1309.15 1.32562 2.18771 0
M  V30 14017 H 1308.79 2.39379 4.47951 0
M  V30 14018 H 1308.72 0.770153 5.20938 0
M  V30 14019 H 1311.21 0.948761 3.65796 0
M  V30 14020 H 1311.53 2.5391 7.29897 0
M  V30 14021 H 1309.87 2.27691 6.56644 0
M  V30 14022 H 1313.06 1.25658 4.50919 0
M  V30 14023 H 1313.23 1.98157 6.16958 0
M  V30 14024 N 1306.64 -1.55279 0.269478 0
M  V30 14025 C 1307.87 -2.03876 -0.352418 0
M  V30 14026 C 1308.28 -1.14804 -1.49885 0
M  V30 14027 O 1307.64 -0.166989 -1.81734 0
M  V30 14028 C 1307.69 -3.51634 -0.838799 0
M  V30 14029 O 1307.41 -4.37316 0.261972 0
M  V30 14030 C 1308.91 -4.16094 -1.52909 0
M  V30 14031 H 1306.13 -0.66608 -0.0811043 0
M  V30 14032 H 1308.68 -2.00551 0.399929 0
M  V30 14033 H 1306.83 -3.55421 -1.54125 0
M  V30 14034 H 1307.25 -5.24383 -0.111013 0
M  V30 14035 H 1308.72 -5.21102 -1.82089 0
M  V30 14036 H 1309.2 -3.63928 -2.45872 0
M  V30 14037 H 1309.8 -4.16293 -0.87063 0
M  V30 14038 N 1308.12 0.00332656 -1.576 0
M  V30 14039 C 1309.35 0.69893 -1.94418 0
M  V30 14040 C 1309.76 1.68021 -0.8698 0
M  V30 14041 O 1309.1 1.83 0.160193 0
M  V30 14042 C 1309.16 1.4892 -3.27205 0
M  V30 14043 C 1308.83 0.669874 -4.52064 0
M  V30 14044 C 1309.82 -0.0410157 -5.19884 0
M  V30 14045 C 1307.51 0.616824 -4.98498 0
M  V30 14046 C 1309.5 -0.793976 -6.32436 0
M  V30 14047 C 1307.19 -0.139864 -6.1094 0
M  V30 14048 C 1308.19 -0.844001 -6.77765 0
M  V30 14049 O 1307.87 -1.58835 -7.88052 0
M  V30 14050 H 1307.61 0.199843 -0.645785 0
M  V30 14051 H 1310.16 -0.0429034 -2.05355 0
M  V30 14052 H 1308.39 2.27544 -3.12667 0
M  V30 14053 H 1310.08 2.06983 -3.4916 0
M  V30 14054 H 1310.85 -0.00916281 -4.84999 0
M  V30 14055 H 1306.72 1.15442 -4.46312 0
M  V30 14056 H 1310.27 -1.34411 -6.84529 0
M  V30 14057 H 1306.17 -0.173549 -6.45267 0
M  V30 14058 H 1306.93 -1.50471 -8.0455 0
M  V30 14059 N 1309.6 1.55164 0.276031 0
M  V30 14060 C 1310.56 1.87065 1.32436 0
M  V30 14061 C 1311.56 0.745024 1.42499 0
M  V30 14062 O 1312.75 1.01321 1.41702 0
M  V30 14063 C 1309.88 2.07322 2.70611 0
M  V30 14064 H 1311.07 2.80775 1.05382 0
M  V30 14065 H 1308.63 1.47609 0.513947 0
M  V30 14066 H 1309.36 1.15983 3.0285 0
M  V30 14067 H 1309.15 2.89275 2.64693 0
M  V30 14068 H 1310.64 2.33287 3.46362 0
M  V30 14069 N 1311.07 -0.540404 1.48045 0
M  V30 14070 C 1312.02 -1.64191 1.58194 0
M  V30 14071 C 1313.01 -1.54775 0.439703 0
M  V30 14072 O 1314.2 -1.62973 0.690572 0
M  V30 14073 C 1311.33 -3.02937 1.61505 0
M  V30 14074 C 1310.42 -3.17495 2.81172 0
M  V30 14075 N 1310.81 -3.02061 4.05701 0
M  V30 14076 C 1309.1 -3.4853 2.78286 0
M  V30 14077 C 1309.81 -3.19757 4.85932 0
M  V30 14078 N 1308.78 -3.46859 4.18557 0
M  V30 14079 H 1312.58 -1.50852 2.52232 0
M  V30 14080 H 1310.1 -0.745602 1.44272 0
M  V30 14081 H 1312.09 -3.82048 1.66868 0
M  V30 14082 H 1310.75 -3.17376 0.685753 0
M  V30 14083 H 1311.77 -2.79038 4.363 0
M  V30 14084 H 1308.44 -3.69391 1.94567 0
M  V30 14085 H 1309.83 -3.1265 5.94727 0
M  V30 14086 N 1312.55 -1.36459 -0.788468 0
M  V30 14087 C 1313.78 -1.33703 -1.57502 0
M  V30 14088 C 1314.19 0.0834961 -1.89016 0
M  V30 14089 O 1313.53 1.05107 -1.50659 0
M  V30 14090 C 1313.6 -2.09424 -2.92201 0
M  V30 14091 C 1313.26 -3.58507 -2.83411 0
M  V30 14092 C 1314.26 -4.52736 -2.5559 0
M  V30 14093 C 1311.94 -4.01405 -3.01959 0
M  V30 14094 C 1313.94 -5.87841 -2.46419 0
M  V30 14095 C 1311.62 -5.366 -2.92409 0
M  V30 14096 C 1312.62 -6.29631 -2.64677 0
M  V30 14097 O 1312.31 -7.62343 -2.55124 0
M  V30 14098 H 1312.04 -0.460221 -0.495149 0
M  V30 14099 H 1314.59 -1.80163 -0.986437 0
M  V30 14100 H 1312.82 -1.5763 -3.53114 0
M  V30 14101 H 1314.51 -1.99515 -3.53481 0
M  V30 14102 H 1315.28 -4.20906 -2.40962 0
M  V30 14103 H 1311.16 -3.29367 -3.2255 0
M  V30 14104 H 1314.7 -6.60423 -2.24694 0
M  V30 14105 H 1310.6 -5.68038 -3.066 0
M  V30 14106 H 1311.37 -7.72476 -2.70598 0
M  V30 14107 N 1314.03 1.01274 -1.20754 0
M  V30 14108 C 1315.28 1.74932 -1.02005 0
M  V30 14109 C 1315.61 1.89285 0.447372 0
M  V30 14110 O 1314.86 1.41838 1.34835 0
M  V30 14111 C 1315.16 3.16862 -1.65329 0
M  V30 14112 C 1314.83 3.22476 -3.15151 0
M  V30 14113 C 1313.49 3.23715 -3.56036 0
M  V30 14114 C 1315.84 3.20332 -4.11141 0
M  V30 14115 C 1313.17 3.20487 -4.91431 0
M  V30 14116 C 1315.52 3.18646 -5.46487 0
M  V30 14117 C 1314.18 3.18191 -5.8678 0
M  V30 14118 H 1313.45 0.640121 -0.373264 0
M  V30 14119 H 1316.1 1.18751 -1.50234 0
M  V30 14120 H 1314.41 3.76225 -1.09372 0
M  V30 14121 H 1316.1 3.72556 -1.48333 0
M  V30 14122 H 1312.69 3.22249 -2.82584 0
M  V30 14123 H 1316.88 3.18541 -3.80585 0
M  V30 14124 H 1312.13 3.18468 -5.21908 0
M  V30 14125 H 1316.31 3.1594 -6.20609 0
M  V30 14126 H 1313.93 3.15443 -6.91664 0
M  V30 14127 N 1315.51 1.01404 1.20644 0
M  V30 14128 C 1316.79 0.617088 1.85611 0
M  V30 14129 C 1317.17 -0.904947 1.9072 0
M  V30 14130 O 1316.51 -1.79562 1.41315 0
M  V30 14131 C 1316.72 1.26193 3.25386 0
M  V30 14132 C 1318.07 1.37575 4.01694 0
M  V30 14133 O 1319.1 1.21795 3.34731 0
M  V30 14134 O 1317.96 1.6305 5.2161 0
M  V30 14135 H 1315.05 0.212579 0.799211 0
M  V30 14136 H 1317.6 1.11126 1.28254 0
M  V30 14137 H 1316.37 2.30206 3.16419 0
M  V30 14138 H 1315.99 0.754679 3.90372 0
M  V30 14139 N 1316.99 -1.36373 0.789944 0
M  V30 14140 C 1317.92 -2.32616 0.202944 0
M  V30 14141 C 1318.9 -1.56674 -0.662364 0
M  V30 14142 O 1320.08 -1.84826 -0.596078 0
M  V30 14143 C 1317.21 -3.4092 -0.662646 0
M  V30 14144 C 1316.17 -4.27877 0.102811 0
M  V30 14145 C 1315.49 -5.27352 -0.883407 0
M  V30 14146 C 1316.79 -5.0606 1.29231 0
M  V30 14147 H 1318.49 -2.81958 1.00699 0
M  V30 14148 H 1316.03 -1.35562 0.48568 0
M  V30 14149 H 1317.99 -4.07239 -1.08324 0
M  V30 14150 H 1316.71 -2.90147 -1.4994 0
M  V30 14151 H 1315.37 -3.63114 0.504389 0
M  V30 14152 H 1315.02 -4.72853 -1.71521 0
M  V30 14153 H 1314.72 -5.86398 -0.375669 0
M  V30 14154 H 1316.24 -5.96545 -1.30256 0
M  V30 14155 H 1317.66 -5.65417 0.947446 0
M  V30 14156 H 1316.05 -5.74521 1.73338 0
M  V30 14157 H 1317.12 -4.37671 2.08739 0
M  V30 14158 N 1318.47 -0.542005 -1.47987 0
M  V30 14159 C 1319.69 -0.016717 -2.06893 0
M  V30 14160 C 1320.11 1.27015 -1.39687 0
M  V30 14161 O 1319.47 1.75845 -0.488326 0
M  V30 14162 C 1319.52 0.198437 -3.60955 0
M  V30 14163 O 1319.24 -1.03746 -4.25639 0
M  V30 14164 C 1320.74 0.762741 -4.36689 0
M  V30 14165 H 1317.96 -0.0389497 -0.669869 0
M  V30 14166 H 1320.5 -0.751082 -1.90208 0
M  V30 14167 H 1318.66 0.882884 -3.77205 0
M  V30 14168 H 1319.07 -0.82568 -5.1796 0
M  V30 14169 H 1320.55 0.862649 -5.45218 0
M  V30 14170 H 1321.02 1.77049 -4.01933 0
M  V30 14171 H 1321.63 0.114478 -4.25146 0
M  V30 14172 N 1319.94 1.55134 -0.277709 0
M  V30 14173 C 1321.19 1.98831 0.338982 0
M  V30 14174 C 1321.51 1.16958 1.56781 0
M  V30 14175 O 1322.71 1.50811 2.25762 0
M  V30 14176 C 1321.17 3.53899 0.654465 0
M  V30 14177 C 1320.78 4.44553 -0.554703 0
M  V30 14178 C 1322.52 4.06179 1.23364 0
M  V30 14179 C 1320.43 5.91014 -0.213663 0
M  V30 14180 H 1319.36 0.742632 0.130434 0
M  V30 14181 H 1322.01 1.79463 -0.382768 0
M  V30 14182 H 1320.39 3.69078 1.43519 0
M  V30 14183 H 1321.56 4.41143 -1.33151 0
M  V30 14184 H 1319.88 4.02921 -1.0509 0
M  V30 14185 H 1322.48 5.13152 1.50265 0
M  V30 14186 H 1322.82 3.5537 2.16836 0
M  V30 14187 H 1323.35 3.9445 0.515147 0
M  V30 14188 H 1320.09 6.45924 -1.11633 0
M  V30 14189 H 1319.61 5.97486 0.526329 0
M  V30 14190 H 1321.29 6.46712 0.19319 0
M  V30 14191 N 1321.42 0.00503138 1.57599 0
M  V30 14192 C 1322.67 -0.677979 1.89964 0
M  V30 14193 C 1322.98 -1.74657 0.88059 0
M  V30 14194 O 1324.19 -2.48455 1.09463 0
M  V30 14195 C 1322.65 -1.25708 3.37232 0
M  V30 14196 C 1322.25 -0.223045 4.47444 0
M  V30 14197 C 1324 -1.91799 3.787 0
M  V30 14198 C 1321.9 -0.812416 5.85793 0
M  V30 14199 H 1320.83 -0.256991 0.708852 0
M  V30 14200 H 1323.49 0.0663988 1.8338 0
M  V30 14201 H 1321.87 -2.05228 3.3867 0
M  V30 14202 H 1323.04 0.54794 4.57531 0
M  V30 14203 H 1321.36 0.337714 4.15028 0
M  V30 14204 H 1323.95 -2.36808 4.79402 0
M  V30 14205 H 1324.3 -2.75067 3.1248 0
M  V30 14206 H 1324.83 -1.19004 3.79583 0
M  V30 14207 H 1321.57 -0.0184031 6.55497 0
M  V30 14208 H 1321.09 -1.55244 5.79361 0
M  V30 14209 H 1322.77 -1.30952 6.33609 0
M  V30 14210 N 1322.9 -1.55308 -0.267798 0
M  V30 14211 C 1323.85 -1.89342 -1.35102 0
M  V30 14212 C 1324.84 -0.770277 -1.50874 0
M  V30 14213 O 1326.05 -0.954679 -1.52597 0
M  V30 14214 H 1322.42 -0.601036 -0.451952 0
M  V30 14215 H 1324.39 -2.7982 -1.03651 0
M  V30 14216 C 1323.14 -2.18644 -2.70352 0
M  V30 14217 H 1322.47 -3.04557 -2.59008 0
M  V30 14218 H 1323.91 -2.46374 -3.45073 0
M  V30 14219 C 1322.36 -0.995753 -3.21848 0
M  V30 14220 O 1322.89 -0.233037 -4.01023 0
M  V30 14221 N 1321.1 -0.792038 -2.79598 0
M  V30 14222 H 1320.65 -1.41396 -2.15325 0
M  V30 14223 H 1320.61 0.00300201 -3.144 0
M  V30 14224 N 1324.38 0.532545 -1.4833 0
M  V30 14225 C 1325.33 1.65832 -1.63103 0
M  V30 14226 C 1326.32 1.61929 -0.497538 0
M  V30 14227 O 1327.53 1.66817 -0.676176 0
M  V30 14228 H 1323.9 0.549152 -0.513748 0
M  V30 14229 H 1325.87 1.50515 -2.57658 0
M  V30 14230 C 1324.62 3.04113 -1.68555 0
M  V30 14231 H 1323.94 3.07809 -2.55135 0
M  V30 14232 H 1325.38 3.82506 -1.82936 0
M  V30 14233 C 1323.84 3.34225 -0.423711 0
M  V30 14234 O 1324.37 3.99005 0.464523 0
M  V30 14235 N 1322.58 2.89087 -0.296192 0
M  V30 14236 H 1322.13 2.36547 -1.01997 0
M  V30 14237 H 1322.08 3.09604 0.547082 0
M  V30 14238 N 1325.86 1.36875 0.78122 0
M  V30 14239 C 1326.77 1.3404 1.92537 0
M  V30 14240 C 1327.78 0.241354 1.72318 0
M  V30 14241 O 1328.96 0.475128 1.95715 0
M  V30 14242 C 1326.02 1.13708 3.27523 0
M  V30 14243 C 1325.08 2.33165 3.60462 0
M  V30 14244 C 1324.32 2.13793 4.89007 0
M  V30 14245 O 1324.54 1.11732 5.5935 0
M  V30 14246 O 1323.47 3.01762 5.20791 0
M  V30 14247 H 1327.3 2.30386 1.97879 0
M  V30 14248 H 1324.88 1.17506 0.922637 0
M  V30 14249 H 1326.77 1.0432 4.08283 0
M  V30 14250 H 1325.44 0.204306 3.23055 0
M  V30 14251 H 1324.35 2.48123 2.79974 0
M  V30 14252 H 1325.68 3.24977 3.69663 0
M  V30 14253 N 1327.33 -1.00632 1.21289 0
M  V30 14254 C 1328.58 -1.73802 1.02351 0
M  V30 14255 C 1328.9 -1.90503 -0.443611 0
M  V30 14256 O 1330.1 -2.60868 -0.752356 0
M  V30 14257 C 1328.56 -3.12647 1.78269 0
M  V30 14258 C 1328.17 -3.03923 3.29142 0
M  V30 14259 C 1329.91 -3.89956 1.67735 0
M  V30 14260 C 1327.82 -4.3784 3.97556 0
M  V30 14261 H 1326.75 -0.651616 0.379358 0
M  V30 14262 H 1329.4 -1.12446 1.45011 0
M  V30 14263 H 1327.78 -3.74605 1.28401 0
M  V30 14264 H 1328.95 -2.51211 3.86303 0
M  V30 14265 H 1327.27 -2.40103 3.40205 0
M  V30 14266 H 1329.87 -4.89051 2.1618 0
M  V30 14267 H 1330.21 -4.11423 0.635338 0
M  V30 14268 H 1330.74 -3.34647 2.15072 0
M  V30 14269 H 1327.48 -4.21573 5.01952 0
M  V30 14270 H 1327 -4.90518 3.45184 0
M  V30 14271 H 1328.68 -5.06644 4.02393 0
M  V30 14272 N 1328.81 -1.02043 -1.20104 0
M  V30 14273 C 1330.09 -0.626922 -1.85281 0
M  V30 14274 C 1330.47 0.894819 -1.91197 0
M  V30 14275 O 1329.82 1.7881 -1.42265 0
M  V30 14276 C 1330.03 -1.27917 -3.24713 0
M  V30 14277 C 1331.37 -1.39704 -4.00959 0
M  V30 14278 O 1332.4 -1.23568 -3.3408 0
M  V30 14279 O 1331.26 -1.65814 -5.20738 0
M  V30 14280 H 1328.35 -0.216815 -0.798073 0
M  V30 14281 H 1330.9 -1.11804 -1.27663 0
M  V30 14282 H 1329.67 -2.3188 -3.15194 0
M  V30 14283 H 1329.29 -0.775371 -3.89966 0
M  V30 14284 N 1330.29 1.35952 -0.797165 0
M  V30 14285 C 1331.2 2.33726 -0.202271 0
M  V30 14286 C 1332.22 1.61415 0.649719 0
M  V30 14287 O 1333.39 1.93351 0.563686 0
M  V30 14288 C 1330.46 3.40612 0.64685 0
M  V30 14289 C 1329.52 4.28712 -0.224536 0
M  V30 14290 C 1328.75 5.30493 0.584153 0
M  V30 14291 O 1328.97 5.40599 1.81957 0
M  V30 14292 O 1327.91 6.01897 -0.0200239 0
M  V30 14293 H 1331.73 2.86383 -1.01087 0
M  V30 14294 H 1329.32 1.38557 -0.558768 0
M  V30 14295 H 1331.2 4.05944 1.1308 0
M  V30 14296 H 1329.88 2.90243 1.43321 0
M  V30 14297 H 1328.78 3.66394 -0.755415 0
M  V30 14298 H 1330.12 4.82454 -0.974603 0
M  V30 14299 N 1331.77 0.549846 1.47697 0
M  V30 14300 C 1333 0.0276889 2.06881 0
M  V30 14301 C 1333.41 -1.26273 1.40359 0
M  V30 14302 O 1332.77 -1.75584 0.497644 0
M  V30 14303 C 1332.82 -0.179291 3.61055 0
M  V30 14304 O 1332.54 1.06002 4.25083 0
M  V30 14305 C 1334.04 -0.739571 4.37087 0
M  V30 14306 H 1331.26 0.0425016 0.669653 0
M  V30 14307 H 1333.81 0.761158 1.89807 0
M  V30 14308 H 1331.96 -0.862867 3.77668 0
M  V30 14309 H 1332.37 0.853137 5.17515 0
M  V30 14310 H 1333.85 -0.833722 5.45668 0
M  V30 14311 H 1334.33 -1.74915 4.02867 0
M  V30 14312 H 1334.93 -0.0919294 4.25201 0
M  V30 14313 N 1333.25 -1.54984 0.285932 0
M  V30 14314 C 1334.5 -1.99008 -0.328433 0
M  V30 14315 C 1334.81 -1.17787 -1.56158 0
M  V30 14316 O 1336.01 -1.52006 -2.24959 0
M  V30 14317 C 1334.47 -3.54241 -0.635688 0
M  V30 14318 C 1334.08 -4.44252 0.578271 0
M  V30 14319 C 1335.82 -4.06828 -1.21208 0
M  V30 14320 C 1333.73 -5.90892 0.245003 0
M  V30 14321 H 1332.66 -0.743314 -0.126494 0
M  V30 14322 H 1335.31 -1.79258 0.39228 0
M  V30 14323 H 1333.69 -3.69834 -1.41559 0
M  V30 14324 H 1334.87 -4.40431 1.35489 0
M  V30 14325 H 1333.18 -4.02358 1.07225 0
M  V30 14326 H 1335.78 -5.13941 -1.47542 0
M  V30 14327 H 1336.12 -3.56515 -2.14948 0
M  V30 14328 H 1336.65 -3.94718 -0.494222 0
M  V30 14329 H 1333.39 -6.45323 1.15057 0
M  V30 14330 H 1332.91 -5.97757 -0.494636 0
M  V30 14331 H 1334.59 -6.46805 -0.158891 0
M  V30 14332 N 1334.72 -0.0133892 -1.57594 0
M  V30 14333 C 1336.14 0.342848 -1.55874 0
M  V30 14334 C 1336.34 1.73928 -1.01742 0
M  V30 14335 O 1335.4 2.43798 -0.657158 0
M  V30 14336 C 1336.71 0.205831 -2.99995 0
M  V30 14337 C 1338.26 0.279774 -3.11747 0
M  V30 14338 C 1338.73 0.171729 -4.57678 0
M  V30 14339 N 1340.22 0.22921 -4.62633 0
M  V30 14340 C 1340.96 0.169153 -5.7315 0
M  V30 14341 N 1340.45 0.0589166 -6.92775 0
M  V30 14342 N 1342.25 0.221995 -5.61661 0
M  V30 14343 H 1334.4 -0.926727 -1.91117 0
M  V30 14344 H 1336.66 -0.356466 -0.878428 0
M  V30 14345 H 1336.37 -0.755482 -3.4349 0
M  V30 14346 H 1336.24 0.982476 -3.6418 0
M  V30 14347 H 1338.63 1.23154 -2.68174 0
M  V30 14348 H 1338.71 -0.526974 -2.50313 0
M  V30 14349 H 1338.35 -0.776547 -5.01928 0
M  V30 14350 H 1338.28 0.997138 -5.17073 0
M  V30 14351 H 1340.77 0.315196 -3.76583 0
M  V30 14352 H 1341.09 0.0193526 -7.72798 0
M  V30 14353 H 1339.43 0.0243543 -6.94996 0
M  V30 14354 H 1342.62 0.306406 -4.67096 0
M  V30 14355 H 1342.8 0.171727 -6.47772 0
M  V30 14356 N 1336.2 1.55448 0.259558 0
M  V30 14357 C 1337.15 1.85637 1.32374 0
M  V30 14358 C 1338.14 0.716256 1.44078 0
M  V30 14359 O 1339.33 0.977907 1.47533 0
M  V30 14360 C 1336.46 2.14353 2.68156 0
M  V30 14361 C 1335.54 3.34659 2.60508 0
M  V30 14362 N 1335.93 4.54241 2.22484 0
M  V30 14363 C 1334.23 3.37517 2.91545 0
M  V30 14364 C 1334.93 5.36358 2.25157 0
M  V30 14365 N 1333.91 4.751 2.64162 0
M  V30 14366 H 1337.71 2.75631 1.02005 0
M  V30 14367 H 1335.23 1.55505 0.468194 0
M  V30 14368 H 1337.22 2.34141 3.4494 0
M  V30 14369 H 1335.88 1.25651 2.99403 0
M  V30 14370 H 1336.89 4.80096 1.94237 0
M  V30 14371 H 1333.57 2.59048 3.27414 0
M  V30 14372 H 1334.96 6.42 1.98206 0
M  V30 14373 N 1337.68 -0.524672 1.4861 0
M  V30 14374 C 1338.61 -1.63782 1.66426 0
M  V30 14375 C 1339.59 -1.62177 0.513077 0
M  V30 14376 O 1340.78 -1.7929 0.74623 0
M  V30 14377 C 1337.91 -3.02354 1.70877 0
M  V30 14378 C 1336.86 -3.18819 2.85549 0
M  V30 14379 C 1336.19 -4.58506 2.75094 0
M  V30 14380 C 1337.49 -3.01086 4.26784 0
M  V30 14381 H 1339.18 -1.49127 2.59618 0
M  V30 14382 H 1336.73 -0.715997 1.24938 0
M  V30 14383 H 1338.68 -3.80105 1.81929 0
M  V30 14384 H 1337.4 -3.18044 0.742682 0
M  V30 14385 H 1336.06 -2.43487 2.74061 0
M  V30 14386 H 1335.71 -4.71038 1.76443 0
M  V30 14387 H 1335.41 -4.70466 3.52044 0
M  V30 14388 H 1336.93 -5.38348 2.88121 0
M  V30 14389 H 1338.35 -3.68624 4.39077 0
M  V30 14390 H 1336.75 -3.24536 5.04774 0
M  V30 14391 H 1337.82 -1.97454 4.42877 0
M  V30 14392 N 1339.16 -1.37287 -0.77395 0
M  V30 14393 C 1340.07 -1.35059 -1.91823 0
M  V30 14394 C 1341.08 -0.250489 -1.72188 0
M  V30 14395 O 1342.26 -0.485501 -1.95461 0
M  V30 14396 C 1339.33 -1.15444 -3.26915 0
M  V30 14397 C 1338.39 -2.35073 -3.5922 0
M  V30 14398 C 1337.62 -2.16384 -4.87867 0
M  V30 14399 O 1337.84 -1.14696 -5.58749 0
M  V30 14400 O 1336.78 -3.0452 -5.19183 0
M  V30 14401 H 1340.6 -2.31432 -1.96654 0
M  V30 14402 H 1338.19 -1.17994 -0.916392 0
M  V30 14403 H 1340.07 -1.06484 -4.07724 0
M  V30 14404 H 1338.74 -0.221435 -3.22942 0
M  V30 14405 H 1337.65 -2.49604 -2.78655 0
M  V30 14406 H 1338.98 -3.26933 -3.67934 0
M  V30 14407 N 1340.64 0.999871 -1.21821 0
M  V30 14408 C 1341.55 2.12303 -0.99823 0
M  V30 14409 C 1342.56 1.73924 0.0512923 0
M  V30 14410 O 1343.74 2.00914 -0.139895 0
M  V30 14411 C 1340.8 3.41962 -0.571232 0
M  V30 14412 C 1339.86 3.94483 -1.69356 0
M  V30 14413 C 1339.1 5.17954 -1.28685 0
M  V30 14414 O 1339.32 5.70168 -0.162641 0
M  V30 14415 O 1338.25 5.64051 -2.10071 0
M  V30 14416 H 1342.08 2.3374 -1.93905 0
M  V30 14417 H 1339.67 1.10677 -1.00354 0
M  V30 14418 H 1341.55 4.20001 -0.343134 0
M  V30 14419 H 1340.22 3.21901 0.340814 0
M  V30 14420 H 1339.13 3.17648 -1.97612 0
M  V30 14421 H 1340.46 4.18964 -2.58322 0
M  V30 14422 N 1342.11 1.02678 1.19562 0
M  V30 14423 C 1343.08 0.610407 2.20922 0
M  V30 14424 C 1344.08 -0.324858 1.57484 0
M  V30 14425 O 1345.27 -0.112153 1.73839 0
M  V30 14426 C 1342.4 -0.107115 3.40732 0
M  V30 14427 H 1343.59 1.50722 2.59274 0
M  V30 14428 H 1341.15 0.817725 1.33203 0
M  V30 14429 H 1341.88 -1.01837 3.07896 0
M  V30 14430 H 1341.67 0.564901 3.88009 0
M  V30 14431 H 1343.16 -0.385423 4.15818 0
M  V30 14432 N 1343.59 -1.35528 0.804364 0
M  V30 14433 C 1344.84 -1.99126 0.384261 0
M  V30 14434 C 1345.17 -1.63668 -1.0453 0
M  V30 14435 O 1344.45 -0.898896 -1.72482 0
M  V30 14436 C 1344.73 -3.55636 0.565278 0
M  V30 14437 C 1344.58 -4.00899 2.03961 0
M  V30 14438 C 1345.9 -4.40099 -0.0104301 0
M  V30 14439 H 1343.02 -0.723369 0.141092 0
M  V30 14440 H 1345.66 -1.60712 1.01348 0
M  V30 14441 H 1343.81 -3.88489 0.0296425 0
M  V30 14442 H 1345.48 -3.78465 2.63746 0
M  V30 14443 H 1343.73 -3.5189 2.53685 0
M  V30 14444 H 1344.4 -5.09785 2.11716 0
M  V30 14445 H 1346.87 -4.13692 0.446985 0
M  V30 14446 H 1345.75 -5.48705 0.146155 0
M  V30 14447 H 1346.01 -4.28096 -1.10392 0
M  V30 14448 N 1345.07 -0.557671 -1.47404 0
M  V30 14449 C 1345.98 0.19289 -2.33806 0
M  V30 14450 C 1347 0.911424 -1.4822 0
M  V30 14451 O 1348.17 0.880214 -1.81147 0
M  V30 14452 C 1345.24 1.20937 -3.24923 0
M  V30 14453 C 1344.3 0.498209 -4.26399 0
M  V30 14454 C 1343.53 1.46626 -5.13163 0
M  V30 14455 O 1343.76 2.70111 -5.0239 0
M  V30 14456 O 1342.69 0.990497 -5.93694 0
M  V30 14457 H 1346.52 -0.515861 -2.99287 0
M  V30 14458 H 1344.1 -0.318283 -1.4597 0
M  V30 14459 H 1345.98 1.7961 -3.81206 0
M  V30 14460 H 1344.66 1.90003 -2.6207 0
M  V30 14461 H 1343.56 -0.129736 -3.73875 0
M  V30 14462 H 1344.9 -0.151015 -4.91968 0
M  V30 14463 N 1346.55 1.54831 -0.294147 0
M  V30 14464 C 1347.48 2.26226 0.57827 0
M  V30 14465 C 1348.46 1.25928 1.14351 0
M  V30 14466 O 1349.65 1.54687 1.17412 0
M  V30 14467 C 1346.78 2.99783 1.75349 0
M  V30 14468 C 1345.73 4.07171 1.31892 0
M  V30 14469 C 1345.06 4.68406 2.57876 0
M  V30 14470 C 1346.36 5.20313 0.455167 0
M  V30 14471 H 1348.05 2.99395 -0.0171936 0
M  V30 14472 H 1345.6 1.43997 -0.00970944 0
M  V30 14473 H 1347.55 3.48448 2.36986 0
M  V30 14474 H 1346.27 2.24181 2.37509 0
M  V30 14475 H 1344.93 3.59346 0.725653 0
M  V30 14476 H 1344.58 3.89451 3.18335 0
M  V30 14477 H 1344.28 5.40927 2.29502 0
M  V30 14478 H 1345.8 5.1983 3.20327 0
M  V30 14479 H 1347.22 5.64913 0.977026 0
M  V30 14480 H 1345.61 5.99512 0.265501 0
M  V30 14481 H 1346.68 4.82088 -0.521434 0
M  V30 14482 N 1348.03 0.0217466 1.57585 0
M  V30 14483 C 1349.27 -0.659463 1.91778 0
M  V30 14484 C 1349.61 -1.72201 0.897801 0
M  V30 14485 O 1348.88 -1.94333 -0.080509 0
M  V30 14486 C 1349.16 -1.28269 3.36481 0
M  V30 14487 C 1349.02 -0.230201 4.49211 0
M  V30 14488 C 1350.34 -2.20279 3.81005 0
M  V30 14489 H 1347.46 -0.238263 0.697424 0
M  V30 14490 H 1350.1 0.0774967 1.89842 0
M  V30 14491 H 1348.25 -1.9108 3.38262 0
M  V30 14492 H 1349.92 0.399901 4.59563 0
M  V30 14493 H 1348.16 0.445157 4.3151 0
M  V30 14494 H 1348.83 -0.705732 5.4747 0
M  V30 14495 H 1351.31 -1.67463 3.80914 0
M  V30 14496 H 1350.19 -2.60842 4.82962 0
M  V30 14497 H 1350.45 -3.09092 3.16093 0
M  V30 14498 N 1349.51 -1.55583 -0.251311 0
M  V30 14499 C 1350.75 -1.7897 -0.987372 0
M  V30 14500 C 1351.11 -0.590559 -1.82692 0
M  V30 14501 O 1352.31 -0.703109 -2.59441 0
M  V30 14502 C 1350.58 -3.07069 -1.82876 0
M  V30 14503 S 1352.14 -3.51659 -2.62452 0
M  V30 14504 H 1348.96 -0.628624 -0.332194 0
M  V30 14505 H 1351.56 -1.93821 -0.255653 0
M  V30 14506 H 1350.26 -3.92415 -1.20161 0
M  V30 14507 H 1349.8 -2.94943 -2.60331 0
M  V30 14508 H 1351.81 -3.12644 -3.85316 0
M  V30 14509 N 1350.98 0.516783 -1.48886 0
M  V30 14510 C 1352.21 1.29628 -1.61258 0
M  V30 14511 C 1352.63 1.86744 -0.27786 0
M  V30 14512 O 1351.98 1.67061 0.734639 0
M  V30 14513 C 1352.03 2.43779 -2.66935 0
M  V30 14514 O 1351.76 1.89014 -3.95228 0
M  V30 14515 C 1353.26 3.35398 -2.89867 0
M  V30 14516 H 1350.48 0.393736 -0.543335 0
M  V30 14517 H 1353.02 0.622069 -1.94809 0
M  V30 14518 H 1351.18 3.0706 -2.36206 0
M  V30 14519 H 1351.59 2.63833 -4.53312 0
M  V30 14520 H 1353.06 4.11812 -3.6758 0
M  V30 14521 H 1353.54 3.91436 -1.99185 0
M  V30 14522 H 1354.15 2.77898 -3.21952 0
M  V30 14523 N 1352.46 1.37696 0.766659 0
M  V30 14524 C 1353.42 1.33688 1.86172 0
M  V30 14525 C 1354.42 0.239922 1.59 0
M  V30 14526 O 1355.61 0.496066 1.66988 0
M  V30 14527 C 1352.75 1.07807 3.23405 0
M  V30 14528 H 1353.94 2.311 1.91136 0
M  V30 14529 H 1351.49 1.22799 0.966961 0
M  V30 14530 H 1352.23 0.109477 3.24115 0
M  V30 14531 H 1352.01 1.87213 3.4452 0
M  V30 14532 H 1353.5 1.07665 4.03482 0
M  V30 14533 N 1353.94 -0.993397 1.22349 0
M  V30 14534 C 1355.35 -1.54739 1.04465 0
M  V30 14535 C 1355.7 -1.92243 -0.392057 0
M  V30 14536 O 1354.83 -1.74707 -1.27697 0
M  V30 14537 C 1355.42 -2.81179 1.89007 0
M  V30 14538 C 1353.98 -3.33023 1.75421 0
M  V30 14539 C 1353.13 -2.06114 1.85505 0
M  V30 14540 H 1356.08 -0.814539 1.36202 0
M  V30 14541 H 1356.1 -3.53523 1.40718 0
M  V30 14542 H 1355.61 -2.53851 2.93566 0
M  V30 14543 H 1353.71 -3.6526 0.735935 0
M  V30 14544 H 1353.83 -4.03659 2.58062 0
M  V30 14545 H 1352.19 -2.19651 1.2894 0
M  V30 14546 H 1352.97 -1.81184 2.91594 0
M  V30 14547 N 1355.42 -1.03311 -1.19015 0
M  V30 14548 C 1356.35 -0.575655 -2.21853 0
M  V30 14549 C 1357.36 0.350705 -1.58978 0
M  V30 14550 O 1358.55 0.146425 -1.77898 0
M  V30 14551 C 1355.65 0.179949 -3.38422 0
M  V30 14552 C 1354.82 -0.752403 -4.3088 0
M  V30 14553 C 1353.88 -0.0414484 -5.26184 0
M  V30 14554 O 1352.91 -0.669403 -5.6525 0
M  V30 14555 N 1354.11 1.22783 -5.67366 0
M  V30 14556 H 1356.88 -1.46013 -2.61726 0
M  V30 14557 H 1354.44 -0.912655 -1.33724 0
M  V30 14558 H 1356.43 0.66522 -3.99195 0
M  V30 14559 H 1355 0.965879 -2.97304 0
M  V30 14560 H 1354.22 -1.41768 -3.67825 0
M  V30 14561 H 1355.51 -1.38592 -4.89561 0
M  V30 14562 H 1354.91 1.75867 -5.37668 0
M  V30 14563 H 1353.46 1.65752 -6.30372 0
M  V30 14564 N 1356.9 1.35099 -0.81154 0
M  V30 14565 C 1358.14 1.99348 -0.403961 0
M  V30 14566 C 1358.5 1.63209 1.01885 0
M  V30 14567 O 1357.79 0.887707 1.69795 0
M  V30 14568 C 1357.98 3.53444 -0.530322 0
M  V30 14569 C 1357.81 4.04552 -1.96387 0
M  V30 14570 C 1356.58 4.33677 -2.5933 0
M  V30 14571 C 1358.78 4.2274 -2.92909 0
M  V30 14572 N 1356.76 4.70747 -3.94043 0
M  V30 14573 C 1358.13 4.62862 -4.12503 0
M  V30 14574 C 1360.19 4.0496 -2.89675 0
M  V30 14575 C 1358.89 4.87064 -5.29303 0
M  V30 14576 C 1360.92 4.30321 -4.05682 0
M  V30 14577 C 1360.28 4.7072 -5.24025 0
M  V30 14578 H 1356.38 0.757119 -0.195692 0
M  V30 14579 H 1358.96 1.63715 -1.05383 0
M  V30 14580 H 1357.13 3.88297 0.089583 0
M  V30 14581 H 1358.87 4.04584 -0.0968489 0
M  V30 14582 H 1355.62 4.24174 -2.1065 0
M  V30 14583 H 1356.04 4.93534 -4.63414 0
M  V30 14584 H 1360.69 3.72864 -1.99329 0
M  V30 14585 H 1358.4 5.18031 -6.20217 0
M  V30 14586 H 1361.99 4.18112 -4.04566 0
M  V30 14587 H 1360.87 4.89961 -6.12298 0
M  V30 14588 N 1358.37 0.56548 1.47106 0
M  V30 14589 C 1359.62 0.0445914 2.02751 0
M  V30 14590 C 1359.95 -1.30517 1.43801 0
M  V30 14591 O 1359.23 -1.85123 0.596646 0
M  V30 14592 C 1359.51 -0.0396474 3.60078 0
M  V30 14593 C 1359.36 1.3378 4.29445 0
M  V30 14594 C 1360.68 -0.748954 4.3368 0
M  V30 14595 H 1357.8 0.0176787 0.736788 0
M  V30 14596 H 1360.44 0.729363 1.75443 0
M  V30 14597 H 1358.59 -0.622826 3.83475 0
M  V30 14598 H 1360.27 1.96482 4.17364 0
M  V30 14599 H 1358.51 1.91024 3.89477 0
M  V30 14600 H 1359.18 1.23149 5.38088 0
M  V30 14601 H 1361.66 -0.253707 4.15326 0
M  V30 14602 H 1360.53 -0.776877 5.43374 0
M  V30 14603 H 1360.79 -1.80679 4.03494 0
M  V30 14604 N 1359.85 -1.54672 0.302354 0
M  V30 14605 C 1361.26 -1.85731 -0.190019 0
M  V30 14606 C 1361.61 -1.22427 -1.53317 0
M  V30 14607 O 1360.74 -0.522461 -2.09998 0
M  V30 14608 C 1361.33 -3.36971 -0.351562 0
M  V30 14609 C 1359.89 -3.68056 -0.788155 0
M  V30 14610 C 1359.04 -2.7711 0.102705 0
M  V30 14611 H 1361.99 -1.49823 0.523324 0
M  V30 14612 H 1362.01 -3.61547 -1.18592 0
M  V30 14613 H 1361.52 -3.83016 0.626152 0
M  V30 14614 H 1359.63 -3.2753 -1.77637 0
M  V30 14615 H 1359.74 -4.75244 -0.606604 0
M  V30 14616 H 1358.1 -2.51243 -0.418235 0
M  V30 14617 H 1358.89 -3.25975 1.0768 0
M  V30 14618 N 1361.33 -0.0301034 -1.57571 0
M  V30 14619 C 1362.58 0.649283 -1.92125 0
M  V30 14620 C 1362.91 1.71722 -0.90692 0
M  V30 14621 O 1362.18 1.94373 0.0702019 0
M  V30 14622 C 1362.47 1.26482 -3.37156 0
M  V30 14623 C 1362.32 0.206375 -4.49326 0
M  V30 14624 C 1363.64 2.18256 -3.82168 0
M  V30 14625 H 1360.76 0.234561 -0.698678 0
M  V30 14626 H 1363.4 -0.0875634 -1.89798 0
M  V30 14627 H 1361.55 1.89283 -3.3927 0
M  V30 14628 H 1363.22 -0.424268 -4.59345 0
M  V30 14629 H 1361.47 -0.468035 -4.31268 0
M  V30 14630 H 1362.14 0.676689 -5.47837 0
M  V30 14631 H 1364.61 1.65441 -3.81797 0
M  V30 14632 H 1363.49 2.58277 -4.84339 0
M  V30 14633 H 1363.75 3.07411 -3.17727 0
M  V30 14634 N 1362.81 1.55714 0.243056 0
M  V30 14635 C 1364.03 1.82126 0.992219 0
M  V30 14636 C 1364.46 0.607665 1.78014 0
M  V30 14637 O 1363.82 -0.443351 1.75796 0
M  V30 14638 C 1363.86 3.06314 1.90274 0
M  V30 14639 O 1362.97 2.83499 2.99503 0
M  V30 14640 H 1362.31 0.601082 0.282128 0
M  V30 14641 H 1364.84 2.02904 0.262881 0
M  V30 14642 H 1364.85 3.35849 2.31666 0
M  V30 14643 H 1363.52 3.94282 1.32344 0
M  V30 14644 H 1362.1 2.65141 2.62211 0
M  V30 14645 N 1364.29 -0.50888 1.49158 0
M  V30 14646 C 1365.53 -1.26274 1.59456 0
M  V30 14647 C 1365.89 -1.90436 0.274217 0
M  V30 14648 O 1365.18 -1.77359 -0.724875 0
M  V30 14649 C 1365.37 -2.35875 2.6851 0
M  V30 14650 C 1365.2 -1.8246 4.11021 0
M  V30 14651 C 1363.97 -1.64114 4.77907 0
M  V30 14652 C 1366.17 -1.34097 4.9651 0
M  V30 14653 N 1364.15 -1.05546 6.04759 0
M  V30 14654 C 1365.52 -0.876125 6.13779 0
M  V30 14655 C 1367.58 -1.22596 4.82571 0
M  V30 14656 C 1366.28 -0.307659 7.18642 0
M  V30 14657 C 1368.31 -0.671474 5.87576 0
M  V30 14658 C 1367.67 -0.216816 7.04066 0
M  V30 14659 H 1363.77 -0.452321 0.63791 0
M  V30 14660 H 1366.35 -0.571257 1.86131 0
M  V30 14661 H 1364.52 -3.02494 2.43622 0
M  V30 14662 H 1366.26 -3.02915 2.68374 0
M  V30 14663 H 1363.01 -1.88254 4.34577 0
M  V30 14664 H 1363.44 -0.782114 6.72467 0
M  V30 14665 H 1368.08 -1.56348 3.9283 0
M  V30 14666 H 1365.8 0.0421419 8.08089 0
M  V30 14667 H 1369.38 -0.585375 5.78848 0
M  V30 14668 H 1368.26 0.205554 7.83931 0
M  V30 14669 N 1365.76 -1.381 -0.759346 0
M  V30 14670 C 1367.01 -1.3419 -1.52055 0
M  V30 14671 C 1367.34 0.0697657 -1.94075 0
M  V30 14672 O 1366.62 1.02975 -1.65004 0
M  V30 14673 C 1366.9 -2.29236 -2.7771 0
M  V30 14674 C 1366.75 -3.79237 -2.41866 0
M  V30 14675 C 1368.07 -2.22511 -3.79706 0
M  V30 14676 H 1365.19 -0.488768 -0.551611 0
M  V30 14677 H 1367.83 -1.68902 -0.870174 0
M  V30 14678 H 1365.98 -1.99764 -3.33206 0
M  V30 14679 H 1367.66 -4.19358 -1.92189 0
M  V30 14680 H 1365.9 -3.97199 -1.74399 0
M  V30 14681 H 1366.57 -4.41193 -3.31742 0
M  V30 14682 H 1369.05 -2.48516 -3.33735 0
M  V30 14683 H 1367.92 -2.91134 -4.6533 0
M  V30 14684 H 1368.18 -1.22206 -4.24874 0
M  V30 14685 N 1367.24 0.986894 -1.22875 0
M  V30 14686 C 1368.47 1.7601 -1.08185 0
M  V30 14687 C 1368.88 1.85545 0.370088 0
M  V30 14688 O 1368.22 1.32915 1.26804 0
M  V30 14689 C 1368.29 3.20661 -1.62532 0
M  V30 14690 C 1367.95 3.34655 -3.11216 0
M  V30 14691 C 1368.95 3.21493 -4.08581 0
M  V30 14692 C 1366.63 3.59512 -3.50794 0
M  V30 14693 C 1368.63 3.32983 -5.43508 0
M  V30 14694 C 1366.31 3.70642 -4.85868 0
M  V30 14695 C 1367.31 3.57387 -5.82034 0
M  V30 14696 O 1367 3.68135 -7.14655 0
M  V30 14697 H 1366.73 0.559402 -0.379533 0
M  V30 14698 H 1369.28 1.24905 -1.63058 0
M  V30 14699 H 1367.51 3.72985 -1.02073 0
M  V30 14700 H 1369.2 3.7972 -1.43415 0
M  V30 14701 H 1369.97 3.02193 -3.79347 0
M  V30 14702 H 1365.85 3.68904 -2.76461 0
M  V30 14703 H 1369.39 3.22553 -6.18551 0
M  V30 14704 H 1365.29 3.89451 -5.1478 0
M  V30 14705 H 1366.06 3.84971 -7.22316 0
M  V30 14706 O 1368.76 1.16517 1.1183 0
M  V30 14707 H 1369.45 0.897764 1.71639 0
M  V30 END ATOM
M  V30 BEGIN BOND
M  V30 END BOND
M  V30 END CTAB
M  END
$$$$
