drugbank_target|O15067 Phosphoribosylformylglycinamidine synthase (DB00142)
 OpenBabel12092120083D

  0  0  0     0  0            999 V3000
M  V30 BEGIN CTAB
M  V30 COUNTS 20177 20431 0 0 0
M  V30 BEGIN ATOM
M  V30 1 H -0.908 1.98254 -0.117106 0
M  V30 2 N 0 1.576 0 0
M  V30 3 C 0.933 2.03868 1.02534 0
M  V30 4 C 1.911 0.928543 1.3348 0
M  V30 5 O 3.095 1.19667 1.45644 0
M  V30 6 C 0.222 2.43627 2.35294 0
M  V30 7 C -0.732 3.65373 2.2001 0
M  V30 8 S 0.101 5.13292 1.52614 0
M  V30 9 C 1.257 5.56322 2.86805 0
M  V30 10 H 1.49 2.90518 0.631377 0
M  V30 11 H -0.977 1.52953 0.210867 0
M  V30 12 H 0.981 2.67203 3.11629 0
M  V30 13 H -0.358 1.57376 2.7183 0
M  V30 14 H -1.165 3.90944 3.18086 0
M  V30 15 H -1.563 3.418 1.51819 0
M  V30 16 H 0.729 5.58782 3.83104 0
M  V30 17 H 1.672 6.56266 2.65933 0
M  V30 18 H 2.08 4.83886 2.90714 0
M  V30 19 N 1.4781 -0.272755 1.55222 0
M  V30 20 C 2.7031 -1.02683 1.80197 0
M  V30 21 C 3.1281 -1.79142 0.573551 0
M  V30 22 O 2.4861 -1.74917 -0.476849 0
M  V30 23 C 2.5341 -1.9609 3.02624 0
M  V30 24 O 1.6381 -3.04863 2.77727 0
M  V30 25 H 0.9791 -0.293557 0.595584 0
M  V30 26 H 3.5091 -0.30159 2.02365 0
M  V30 27 H 3.5191 -2.38039 3.31363 0
M  V30 28 H 2.1941 -1.39851 3.91682 0
M  V30 29 H 0.7711 -2.67228 2.60084 0
M  V30 30 N 2.9562 -1.48159 -0.537278 0
M  V30 31 C 4.3672 -1.49429 -1.11928 0
M  V30 32 C 4.7182 -0.26 -1.9447 0
M  V30 33 O 3.8432 0.633489 -2.0692 0
M  V30 34 C 4.4382 -2.70758 -2.03656 0
M  V30 35 C 2.9972 -2.74923 -2.57088 0
M  V30 36 C 2.1442 -2.42835 -1.3389 0
M  V30 37 H 5.0952 -1.55381 -0.322886 0
M  V30 38 H 5.1162 -2.48861 -2.87834 0
M  V30 39 H 4.6282 -3.60575 -1.43553 0
M  V30 40 H 2.7292 -1.89296 -3.20933 0
M  V30 41 H 2.8422 -3.76157 -2.9672 0
M  V30 42 H 1.2062 -1.93836 -1.65226 0
M  V30 43 H 1.9892 -3.34884 -0.755504 0
M  V30 44 N 4.4343 0.785586 -1.36625 0
M  V30 45 C 5.6803 1.54591 -1.31261 0
M  V30 46 C 6.0133 1.93906 0.106823 0
M  V30 47 O 5.2883 1.63007 1.06108 0
M  V30 48 C 5.5713 2.82038 -2.23889 0
M  V30 49 C 5.4243 2.49066 -3.74548 0
M  V30 50 C 6.7433 3.83887 -2.15217 0
M  V30 51 H 3.8623 0.560846 -0.478143 0
M  V30 52 H 6.5043 0.902278 -1.67209 0
M  V30 53 H 4.6543 3.36961 -1.93363 0
M  V30 54 H 6.3263 2.00164 -4.15611 0
M  V30 55 H 4.5693 1.81954 -3.93796 0
M  V30 56 H 5.2403 3.40109 -4.34776 0
M  V30 57 H 7.7163 3.38421 -2.42096 0
M  V30 58 H 6.5923 4.70806 -2.82193 0
M  V30 59 H 6.8533 4.27131 -1.14068 0
M  V30 60 N 5.9124 1.20967 1.01018 0
M  V30 61 C 6.8424 0.988272 2.11555 0
M  V30 62 C 7.8234 -0.0849778 1.69888 0
M  V30 63 O 9.0084 0.0738202 1.9406 0
M  V30 64 C 6.1384 0.546528 3.42973 0
M  V30 65 C 5.0924 1.56375 3.9841 0
M  V30 66 C 4.4184 0.97842 5.25672 0
M  V30 67 C 5.7184 2.94922 4.31066 0
M  V30 68 H 7.4124 1.91276 2.30334 0
M  V30 69 H 4.9584 0.921073 1.1069 0
M  V30 70 H 6.9114 0.378839 4.19694 0
M  V30 71 H 5.6354 -0.413598 3.23971 0
M  V30 72 H 4.2944 1.71891 3.23804 0
M  V30 73 H 3.9424 0.0101688 5.02999 0
M  V30 74 H 3.6424 1.65784 5.63728 0
M  V30 75 H 5.1664 0.821939 6.05043 0
M  V30 76 H 6.5804 2.8288 4.9865 0
M  V30 77 H 4.9774 3.5983 4.80253 0
M  V30 78 H 6.0474 3.4616 3.39561 0
M  V30 79 N 7.3905 -1.2043 1.01659 0
M  V30 80 C 8.3405 -2.21076 0.557623 0
M  V30 81 C 9.3245 -1.56176 -0.387029 0
M  V30 82 O 10.5165 -1.7575 -0.209996 0
M  V30 83 C 7.6455 -3.43146 -0.102707 0
M  V30 84 C 6.7315 -4.15213 0.863652 0
M  V30 85 N 7.1225 -4.63662 2.02117 0
M  V30 86 C 5.4205 -4.40716 0.684472 0
M  V30 87 C 6.1215 -5.18868 2.62966 0
M  V30 88 N 5.0975 -5.0893 1.91027 0
M  V30 89 H 8.8995 -2.56201 1.44008 0
M  V30 90 H 6.4135 -1.36366 0.881931 0
M  V30 91 H 8.4105 -4.14475 -0.449054 0
M  V30 92 H 7.0705 -3.09526 -0.981003 0
M  V30 93 H 8.0815 -4.58877 2.40109 0
M  V30 94 H 4.7585 -4.17245 -0.14577 0
M  V30 95 H 6.1485 -5.6673 3.60924 0
M  V30 96 N 8.8686 -0.792821 -1.36206 0
M  V30 97 C 10.1156 -0.366786 -1.99151 0
M  V30 98 C 10.4436 1.06243 -1.62919 0
M  V30 99 O 9.6986 1.74927 -0.877442 0
M  V30 100 C 9.9976 -0.481501 -3.54142 0
M  V30 101 C 9.6636 -1.87202 -4.10203 0
M  V30 102 C 8.3256 -2.25248 -4.25226 0
M  V30 103 C 10.6776 -2.78237 -4.40719 0
M  V30 104 C 8.0056 -3.53723 -4.68078 0
M  V30 105 C 10.3576 -4.06144 -4.85005 0
M  V30 106 C 9.0216 -4.44207 -4.98234 0
M  V30 107 H 8.2916 -0.134217 -0.728743 0
M  V30 108 H 10.9386 -1.01094 -1.62641 0
M  V30 109 H 9.2436 0.246146 -3.91026 0
M  V30 110 H 10.9406 -0.132844 -4.0078 0
M  V30 111 H 7.5306 -1.56639 -3.98951 0
M  V30 112 H 11.7146 -2.50097 -4.28679 0
M  V30 113 H 6.9706 -3.8308 -4.76508 0
M  V30 114 H 11.1446 -4.76796 -5.07581 0
M  V30 115 H 8.7716 -5.43814 -5.31197 0
M  V30 116 N 10.3467 1.47872 -0.545128 0
M  V30 117 C 11.5767 2.06589 -0.0210534 0
M  V30 118 C 11.9847 1.39997 1.27269 0
M  V30 119 O 11.3277 0.486421 1.77143 0
M  V30 120 C 11.3897 3.58574 0.257933 0
M  V30 121 C 11.0537 4.47132 -0.944573 0
M  V30 122 C 12.0507 4.85986 -1.84699 0
M  V30 123 C 9.7357 4.88821 -1.15584 0
M  V30 124 C 11.7297 5.65314 -2.94446 0
M  V30 125 C 9.4167 5.67916 -2.25642 0
M  V30 126 C 10.4147 6.06073 -3.14905 0
M  V30 127 O 10.1027 6.83578 -4.23057 0
M  V30 128 H 9.8347 0.674971 -0.0372899 0
M  V30 129 H 12.3887 1.91037 -0.754599 0
M  V30 130 H 10.6187 3.72295 1.04564 0
M  V30 131 H 12.3077 3.99356 0.72592 0
M  V30 132 H 13.0737 4.54388 -1.69577 0
M  V30 133 H 8.9527 4.58595 -0.470279 0
M  V30 134 H 12.4967 5.95016 -3.64145 0
M  V30 135 H 8.3937 5.98927 -2.40742 0
M  V30 136 H 9.1617 7.01954 -4.20954 0
M  V30 137 N 11.8248 0.280983 1.55075 0
M  V30 138 C 13.0708 -0.33461 2.00021 0
M  V30 139 C 13.4038 -1.55063 1.16915 0
M  V30 140 O 12.6788 -1.93006 0.240646 0
M  V30 141 C 12.9618 -0.711007 3.53011 0
M  V30 142 C 12.8148 0.512766 4.46868 0
M  V30 143 C 14.1338 -1.54522 4.12081 0
M  V30 144 H 11.2528 -0.120147 0.727141 0
M  V30 145 H 13.8948 0.389097 1.85973 0
M  V30 146 H 12.0448 -1.32761 3.65112 0
M  V30 147 H 13.7168 1.15131 4.46702 0
M  V30 148 H 11.9598 1.14975 4.18286 0
M  V30 149 H 12.6308 0.205556 5.51617 0
M  V30 150 H 15.1068 -1.02442 4.03293 0
M  V30 151 H 13.9828 -1.77739 5.19327 0
M  V30 152 H 14.2438 -2.52813 3.62682 0
M  V30 153 N 13.3029 -1.57598 0.00835791 0
M  V30 154 C 14.7189 -1.55764 -0.347822 0
M  V30 155 C 14.9189 -1.01186 -1.74252 0
M  V30 156 O 13.9749 -0.649371 -2.44007 0
M  V30 157 C 15.2879 -2.99927 -0.215407 0
M  V30 158 C 16.8359 -3.11656 -0.289725 0
M  V30 159 C 17.3109 -4.57621 -0.18634 0
M  V30 160 N 18.8019 -4.62557 -0.243978 0
M  V30 161 C 19.5369 -5.73094 -0.18745 0
M  V30 162 N 19.0329 -6.92753 -0.0810331 0
M  V30 163 N 20.8259 -5.61588 -0.239925 0
M  V30 164 H 12.9769 -1.91411 0.92062 0
M  V30 165 H 15.2399 -0.879562 0.353659 0
M  V30 166 H 14.9459 -3.43729 0.744512 0
M  V30 167 H 14.8199 -3.63865 -0.994097 0
M  V30 168 H 17.2069 -2.67779 -1.24009 0
M  V30 169 H 17.2879 -2.5048 0.51898 0
M  V30 170 H 16.9319 -5.02174 0.760519 0
M  V30 171 H 16.8619 -5.16752 -1.01364 0
M  V30 172 H 19.3529 -3.76481 -0.327217 0
M  V30 173 H 19.6659 -7.72787 -0.0440241 0
M  V30 174 H 18.0109 -6.94984 -0.0465419 0
M  V30 175 H 21.2019 -4.66996 -0.321317 0
M  V30 176 H 21.3749 -6.47714 -0.192407 0
M  V30 177 N 14.781 0.264519 -1.55364 0
M  V30 178 C 16.192 0.834936 -1.6699 0
M  V30 179 C 16.543 1.86718 -0.602552 0
M  V30 180 O 15.668 2.14899 0.254425 0
M  V30 181 C 16.263 1.5212 -3.02729 0
M  V30 182 C 14.822 2.03954 -3.16354 0
M  V30 183 C 13.969 0.884498 -2.62815 0
M  V30 184 H 16.92 0.0406869 -1.58648 0
M  V30 185 H 16.941 2.38853 -2.96191 0
M  V30 186 H 16.453 0.769668 -3.80392 0
M  V30 187 H 14.554 2.82041 -2.43482 0
M  V30 188 H 14.667 2.24902 -4.23032 0
M  V30 189 H 13.031 1.2802 -2.20188 0
M  V30 190 H 13.814 0.14634 -3.42988 0
M  V30 191 N 16.2591 1.48442 0.529413 0
M  V30 192 C 17.4841 1.60406 1.31471 0
M  V30 193 C 17.9091 0.264738 1.86228 0
M  V30 194 O 17.2671 -0.763668 1.64432 0
M  V30 195 C 17.3151 2.65419 2.44101 0
M  V30 196 O 16.4191 2.22618 3.47153 0
M  V30 197 H 15.7601 0.537863 0.389357 0
M  V30 198 H 18.2901 1.94432 0.636965 0
M  V30 199 H 18.3001 2.86709 2.90279 0
M  V30 200 H 16.9751 3.62652 2.03608 0
M  V30 201 H 15.5521 2.11543 3.0709 0
M  V30 202 N 17.7372 -0.778329 1.37039 0
M  V30 203 C 18.9852 -1.53361 1.31623 0
M  V30 204 C 19.3062 -1.94739 -0.100831 0
M  V30 205 O 18.5762 -1.65797 -1.04347 0
M  V30 206 H 17.1562 -0.568794 0.484234 0
M  V30 207 H 19.8182 -0.926742 1.71457 0
M  V30 208 H 18.9142 -2.43606 1.95096 0
M  V30 209 N 19.2153 -1.21501 -1.00376 0
M  V30 210 C 20.1653 -0.942843 -2.07592 0
M  V30 211 C 21.1493 0.102384 -1.60574 0
M  V30 212 O 22.3413 -0.10671 -1.76678 0
M  V30 213 C 19.4703 -0.510729 -3.3948 0
M  V30 214 C 18.5563 -1.59009 -3.93163 0
M  V30 215 N 18.9473 -2.81544 -4.20198 0
M  V30 216 C 17.2453 -1.45925 -4.21452 0
M  V30 217 C 17.9463 -3.51261 -4.63671 0
M  V30 218 N 16.9223 -2.78703 -4.66718 0
M  V30 219 H 20.7243 -1.87378 -2.26421 0
M  V30 220 H 18.2383 -1.11093 -1.18458 0
M  V30 221 H 20.2353 -0.297101 -4.1584 0
M  V30 222 H 18.8953 0.413436 -3.22057 0
M  V30 223 H 19.9063 -3.18075 -4.08716 0
M  V30 224 H 16.5833 -0.600467 -4.13159 0
M  V30 225 H 17.9733 -4.56183 -4.93302 0
M  V30 226 N 20.6934 1.19889 -1.02296 0
M  V30 227 C 21.6034 2.26571 -0.608508 0
M  V30 228 C 22.6194 1.70299 0.356964 0
M  V30 229 O 23.7954 2.00235 0.216326 0
M  V30 230 C 20.8604 3.46677 0.0402814 0
M  V30 231 C 19.9214 4.18153 -0.97194 0
M  V30 232 C 19.1544 5.32525 -0.354016 0
M  V30 233 O 19.3774 5.64112 0.844604 0
M  V30 234 O 18.3114 5.92242 -1.07391 0
M  V30 235 H 22.1374 2.64251 -1.49684 0
M  V30 236 H 19.7224 1.26629 -0.792809 0
M  V30 237 H 21.6044 4.19475 0.402324 0
M  V30 238 H 20.2794 3.10858 0.902707 0
M  V30 239 H 19.1864 3.47499 -1.38546 0
M  V30 240 H 20.5194 4.57927 -1.80454 0
M  V30 241 N 22.1715 0.800033 1.35784 0
M  V30 242 C 23.4195 0.376597 1.9856 0
M  V30 243 C 23.7405 -1.05812 1.63795 0
M  V30 244 O 23.0105 -1.73103 0.917171 0
M  V30 245 H 21.5905 0.136261 0.734467 0
M  V30 246 H 24.2525 1.02442 1.65806 0
M  V30 247 H 23.3485 0.477002 3.08433 0
M  V30 248 N 23.6496 -1.47581 0.552962 0
M  V30 249 C 24.6126 -2.28439 -0.186605 0
M  V30 250 C 25.6126 -1.36706 -0.84665 0
M  V30 251 O 26.8026 -1.59378 -0.703164 0
M  V30 252 C 23.9346 -3.16264 -1.2724 0
M  V30 253 H 25.1276 -2.95294 0.523609 0
M  V30 254 H 22.6806 -1.532 0.309745 0
M  V30 255 H 23.4156 -2.54091 -2.01514 0
M  V30 256 H 23.2006 -3.83769 -0.803968 0
M  V30 257 H 24.6906 -3.77198 -1.79196 0
M  V30 258 N 25.1277 -0.289203 -1.54924 0
M  V30 259 C 26.0907 0.579144 -2.21762 0
M  V30 260 C 27.0907 1.07047 -1.1999 0
M  V30 261 O 28.2807 0.968384 -1.44803 0
M  V30 262 C 25.4127 1.80055 -2.8947 0
M  V30 263 H 26.6057 -0.00464908 -2.999 0
M  V30 264 H 24.1587 -0.0399306 -1.56249 0
M  V30 265 H 24.8937 2.42449 -2.15381 0
M  V30 266 H 24.6787 1.45602 -3.64064 0
M  V30 267 H 26.1687 2.41773 -3.40493 0
M  V30 268 N 26.6058 1.57591 -0.0167156 0
M  V30 269 C 28.0168 1.79201 0.523834 0
M  V30 270 C 28.3678 0.925796 1.72984 0
M  V30 271 O 27.4928 0.132792 2.15992 0
M  V30 272 C 28.0878 3.25 0.957091 0
M  V30 273 C 26.6468 3.47648 1.44283 0
M  V30 274 C 25.7938 2.74374 0.401757 0
M  V30 275 H 28.7448 1.56831 -0.242816 0
M  V30 276 H 28.7658 3.34031 1.82219 0
M  V30 277 H 28.2778 3.88019 0.0791415 0
M  V30 278 H 26.3788 2.89866 2.34113 0
M  V30 279 H 26.4918 4.56352 1.45877 0
M  V30 280 H 24.8558 2.39485 0.867121 0
M  V30 281 H 25.6388 3.40102 -0.467513 0
M  V30 282 N 28.0839 -0.256276 1.55502 0
M  V30 283 C 29.3319 -0.983672 1.76545 0
M  V30 284 C 29.6529 -1.86206 0.578982 0
M  V30 285 O 28.9229 -1.91656 -0.405577 0
M  V30 286 H 27.5029 -0.366191 0.651086 0
M  V30 287 H 30.1649 -0.276479 1.92929 0
M  V30 288 H 29.2609 -1.61087 2.67315 0
M  V30 289 N 29.562 -1.4872 -0.521534 0
M  V30 290 C 30.512 -1.60269 -1.62166 0
M  V30 291 C 31.496 -0.45935 -1.54204 0
M  V30 292 O 32.688 -0.711241 -1.62081 0
M  V30 293 C 29.817 -1.65344 -3.00859 0
M  V30 294 C 28.903 -2.85187 -3.13894 0
M  V30 295 N 29.294 -4.09509 -2.96877 0
M  V30 296 C 27.592 -2.82695 -3.44963 0
M  V30 297 C 28.293 -4.89959 -3.13552 0
M  V30 298 N 27.269 -4.22934 -3.41508 0
M  V30 299 H 31.071 -2.5413 -1.47632 0
M  V30 300 H 28.585 -1.45209 -0.727194 0
M  V30 301 H 30.582 -1.71713 -3.79895 0
M  V30 302 H 29.242 -0.726058 -3.16478 0
M  V30 303 H 30.253 -4.39814 -2.73467 0
M  V30 304 H 26.93 -1.99249 -3.66887 0
M  V30 305 H 28.32 -5.98654 -3.05061 0
M  V30 306 N 31.0401 0.771051 -1.3745 0
M  V30 307 C 32.2681 1.56015 -1.35893 0
M  V30 308 C 32.6831 1.88718 0.0555523 0
M  V30 309 O 32.0401 1.51502 1.01752 0
M  V30 310 C 32.0911 2.87001 -2.19801 0
M  V30 311 O 31.8121 2.557 -3.55738 0
M  V30 312 C 33.3131 3.81228 -2.26231 0
M  V30 313 H 30.5331 0.483317 -0.465453 0
M  V30 314 H 33.0771 0.955611 -1.80799 0
M  V30 315 H 31.2321 3.43877 -1.78402 0
M  V30 316 H 31.6461 3.39584 -3.99729 0
M  V30 317 H 33.1201 4.70139 -2.89263 0
M  V30 318 H 33.5971 4.20409 -1.27093 0
M  V30 319 H 34.2031 3.30281 -2.67945 0
M  V30 320 N 32.5182 1.22032 0.997298 0
M  V30 321 C 33.9342 0.979326 1.26021 0
M  V30 322 C 34.1342 -0.32972 1.98784 0
M  V30 323 O 33.1902 -1.05345 2.29475 0
M  V30 324 C 34.5032 2.17509 2.07631 0
M  V30 325 C 36.0512 2.21817 2.2083 0
M  V30 326 C 36.5262 3.40933 3.05825 0
M  V30 327 N 38.0172 3.41067 3.13412 0
M  V30 328 C 38.7522 4.29885 3.79455 0
M  V30 329 N 38.2482 5.28914 4.47462 0
M  V30 330 N 40.0412 4.17673 3.76173 0
M  V30 331 H 32.1922 2.06202 0.509352 0
M  V30 332 H 34.4552 0.90334 0.287541 0
M  V30 333 H 34.1612 3.12415 1.61524 0
M  V30 334 H 34.0352 2.17206 3.08385 0
M  V30 335 H 36.4222 1.27462 2.66153 0
M  V30 336 H 36.5032 2.2616 1.1952 0
M  V30 337 H 36.1472 4.35586 2.61203 0
M  V30 338 H 36.0772 3.33829 4.07266 0
M  V30 339 H 38.5682 2.69406 2.65007 0
M  V30 340 H 38.8812 5.92973 4.95583 0
M  V30 341 H 37.2262 5.32831 4.46224 0
M  V30 342 H 40.4172 3.39564 3.22202 0
M  V30 343 H 40.5902 4.87098 4.27363 0
M  V30 344 N 33.9963 -1.19345 1.0293 0
M  V30 345 C 35.4123 -1.41069 0.746446 0
M  V30 346 C 35.6123 -1.90078 -0.668776 0
M  V30 347 O 34.6683 -2.0778 -1.4347 0
M  V30 348 C 35.9813 -2.42141 1.78292 0
M  V30 349 C 37.5293 -2.55887 1.80252 0
M  V30 350 C 38.0043 -3.60214 2.8286 0
M  V30 351 N 39.4953 -3.67711 2.81679 0
M  V30 352 C 40.2303 -4.48128 3.57727 0
M  V30 353 N 39.7263 -5.32248 4.43491 0
M  V30 354 N 41.5193 -4.42782 3.46267 0
M  V30 355 H 33.6703 -0.858536 1.94275 0
M  V30 356 H 35.9333 -0.439541 0.839945 0
M  V30 357 H 35.6393 -2.13155 2.79746 0
M  V30 358 H 35.5133 -3.41323 1.60557 0
M  V30 359 H 37.9003 -2.84196 0.794757 0
M  V30 360 H 37.9813 -1.56858 2.02062 0
M  V30 361 H 37.6253 -3.32647 3.83807 0
M  V30 362 H 37.5553 -4.58895 2.58307 0
M  V30 363 H 40.0463 -3.07634 2.19476 0
M  V30 364 H 40.3593 -5.90729 4.98256 0
M  V30 365 H 38.7043 -5.31707 4.47564 0
M  V30 366 H 41.8953 -3.76107 2.78677 0
M  V30 367 H 42.0683 -5.05215 4.05785 0
M  V30 368 N 35.4744 -0.807222 -1.35358 0
M  V30 369 C 36.4214 -0.216037 -2.29787 0
M  V30 370 C 37.3914 0.650278 -1.52842 0
M  V30 371 O 38.5764 0.595227 -1.81278 0
M  V30 372 C 35.7164 0.628893 -3.39321 0
M  V30 373 C 34.8294 -0.257927 -4.31229 0
M  V30 374 C 33.9644 0.595069 -5.27856 0
M  V30 375 C 33.0034 -0.292111 -6.11403 0
M  V30 376 N 32.1404 0.520895 -7.00165 0
M  V30 377 H 36.9804 -1.02671 -2.79755 0
M  V30 378 H 34.5174 -0.517839 -1.37684 0
M  V30 379 H 36.4754 1.13393 -4.01494 0
M  V30 380 H 35.1054 1.40482 -2.90628 0
M  V30 381 H 34.1574 -0.881076 -3.70056 0
M  V30 382 H 35.4694 -0.940759 -4.89848 0
M  V30 383 H 34.6234 1.16522 -5.95405 0
M  V30 384 H 33.3624 1.31146 -4.69736 0
M  V30 385 H 32.3674 -0.874525 -5.428 0
M  V30 386 H 33.5924 -1.00638 -6.71602 0
M  V30 387 H 31.5384 1.22125 -6.44532 0
M  V30 388 H 31.4554 -0.103877 -7.55929 0
M  V30 389 H 32.7234 1.0743 -7.72062 0
M  V30 390 N 36.9525 1.47285 -0.560781 0
M  V30 391 C 37.8825 2.32857 0.173105 0
M  V30 392 C 38.8635 1.44009 0.905281 0
M  V30 393 O 40.0485 1.7286 0.885046 0
M  V30 394 C 37.1785 3.25861 1.20133 0
M  V30 395 C 36.1325 4.23978 0.585388 0
M  V30 396 C 35.4585 5.06332 1.7185 0
M  V30 397 C 36.7585 5.20242 -0.463178 0
M  V30 398 H 38.4525 2.94466 -0.541307 0
M  V30 399 H 35.9985 1.41601 -0.261764 0
M  V30 400 H 37.9515 3.84569 1.72293 0
M  V30 401 H 36.6755 2.62315 1.94573 0
M  V30 402 H 35.3345 3.66501 0.085054 0
M  V30 403 H 34.9825 4.39186 2.45203 0
M  V30 404 H 34.6825 5.72762 1.31213 0
M  V30 405 H 36.2065 5.67899 2.24329 0
M  V30 406 H 37.6205 5.73293 -0.027502 0
M  V30 407 H 36.0175 5.94896 -0.788627 0
M  V30 408 H 37.0875 4.65504 -1.35773 0
M  V30 409 N 38.4306 0.297415 1.54768 0
M  V30 410 C 39.3626 -0.613881 2.20826 0
M  V30 411 C 40.3756 -1.10032 1.19987 0
M  V30 412 O 41.5646 -1.01839 1.46598 0
M  V30 413 C 38.6646 -1.852 2.83821 0
M  V30 414 C 37.8376 -1.50865 4.10559 0
M  V30 415 C 36.8966 -2.60154 4.57391 0
M  V30 416 O 35.9226 -2.25398 5.2267 0
M  V30 417 N 37.1246 -3.90629 4.29406 0
M  V30 418 H 39.8896 -0.048389 2.99661 0
M  V30 419 H 37.4506 0.11946 1.61459 0
M  V30 420 H 39.4426 -2.57652 3.12086 0
M  V30 421 H 38.0126 -2.32597 2.08847 0
M  V30 422 H 37.2326 -0.616925 3.89343 0
M  V30 423 H 38.5206 -1.25458 4.9309 0
M  V30 424 H 37.9186 -4.21677 3.77101 0
M  V30 425 H 36.4756 -4.59391 4.62388 0
M  V30 426 N 39.9087 -1.5758 0.0250728 0
M  V30 427 C 41.1567 -1.91255 -0.653151 0
M  V30 428 C 41.4777 -0.901691 -1.729 0
M  V30 429 O 40.7477 0.0573785 -1.95816 0
M  V30 430 H 39.3277 -0.705942 -0.244243 0
M  V30 431 H 41.9897 -1.94767 0.0719209 0
M  V30 432 H 41.0857 -2.91752 -1.10847 0
M  V30 433 N 41.3868 0.248026 -1.55636 0
M  V30 434 C 42.3338 1.30707 -1.90222 0
M  V30 435 C 43.3038 1.47881 -0.756332 0
M  V30 436 O 44.4888 1.61883 -1.00988 0
M  V30 437 C 41.6288 2.65769 -2.20138 0
M  V30 438 C 40.7418 2.56612 -3.47526 0
M  V30 439 C 39.8768 3.8402 -3.67017 0
M  V30 440 C 38.9158 3.69476 -4.8801 0
M  V30 441 N 38.0528 4.88774 -5.04029 0
M  V30 442 H 42.8928 1.00512 -2.80538 0
M  V30 443 H 40.4298 0.485055 -1.38873 0
M  V30 444 H 42.3878 3.44386 -2.35487 0
M  V30 445 H 41.0178 2.94115 -1.33027 0
M  V30 446 H 40.0698 1.69571 -3.40514 0
M  V30 447 H 41.3818 2.41774 -4.36287 0
M  V30 448 H 40.5358 4.7108 -3.8232 0
M  V30 449 H 39.2748 4.01754 -2.76487 0
M  V30 450 H 38.2798 2.80799 -4.72686 0
M  V30 451 H 39.5048 3.53238 -5.8 0
M  V30 452 H 37.4508 5.0687 -4.16435 0
M  V30 453 H 37.3678 4.76562 -5.86877 0
M  V30 454 H 38.6358 5.77335 -5.23741 0
M  V30 455 N 42.8649 1.48995 0.513639 0
M  V30 456 C 43.7949 1.67636 1.62544 0
M  V30 457 C 44.7759 0.525087 1.61793 0
M  V30 458 O 45.9609 0.759502 1.78732 0
M  V30 459 C 43.0909 1.73114 3.01079 0
M  V30 460 C 42.0449 2.87905 3.16693 0
M  V30 461 C 41.3709 2.78486 4.56453 0
M  V30 462 C 42.6709 4.29005 2.97913 0
M  V30 463 H 44.3649 2.60716 1.47198 0
M  V30 464 H 41.9109 1.25465 0.706714 0
M  V30 465 H 43.8639 1.84742 3.78746 0
M  V30 466 H 42.5879 0.766241 3.17484 0
M  V30 467 H 41.2469 2.75859 2.41448 0
M  V30 468 H 40.8949 1.7993 4.69717 0
M  V30 469 H 40.5949 3.55523 4.67843 0
M  V30 470 H 42.1189 2.92104 5.36197 0
M  V30 471 H 43.5329 4.41798 3.65359 0
M  V30 472 H 41.9299 5.07166 3.20785 0
M  V30 473 H 42.9999 4.44329 1.94165 0
M  V30 474 N 44.343 -0.763751 1.37857 0
M  V30 475 C 45.754 -1.3405 1.29952 0
M  V30 476 C 46.105 -1.96138 -0.0492898 0
M  V30 477 O 45.23 -1.94372 -0.951239 0
M  V30 478 C 45.825 -2.43729 2.35333 0
M  V30 479 C 44.384 -2.97151 2.31037 0
M  V30 480 C 43.531 -1.70438 2.18738 0
M  V30 481 H 46.482 -0.563396 1.48363 0
M  V30 482 H 46.503 -3.23412 2.00462 0
M  V30 483 H 46.015 -1.9851 3.33489 0
M  V30 484 H 44.116 -3.46724 1.3643 0
M  V30 485 H 44.229 -3.52221 3.24772 0
M  V30 486 H 42.593 -1.93673 1.65418 0
M  V30 487 H 43.376 -1.27312 3.18821 0
M  V30 488 N 45.8211 -1.22559 -0.990812 0
M  V30 489 C 46.7311 -1.01394 -2.11557 0
M  V30 490 C 47.7471 0.0383962 -1.73958 0
M  V30 491 O 48.9231 -0.154787 -2.00804 0
M  V30 492 C 45.9881 -0.596569 -3.41529 0
M  V30 493 C 45.0491 -1.72276 -3.93217 0
M  V30 494 C 44.2821 -1.32521 -5.16985 0
M  V30 495 O 44.5051 -0.204909 -5.70032 0
M  V30 496 O 43.4391 -2.14247 -5.62478 0
M  V30 497 H 47.2651 -1.95633 -2.32296 0
M  V30 498 H 44.8501 -1.01172 -1.0993 0
M  V30 499 H 46.7321 -0.374263 -4.19735 0
M  V30 500 H 45.4071 0.316939 -3.22145 0
M  V30 501 H 44.3141 -1.99961 -3.16174 0
M  V30 502 H 45.6471 -2.61421 -4.17037 0
M  V30 503 N 47.2992 1.18797 -1.03562 0
M  V30 504 C 48.2292 2.24472 -0.643019 0
M  V30 505 C 49.2102 1.66433 0.351283 0
M  V30 506 O 50.3952 1.92803 0.232505 0
M  V30 507 C 47.5252 3.473 4.24935e-05 0
M  V30 508 C 46.4792 4.18055 -0.917257 0
M  V30 509 C 45.8052 5.34519 -0.138941 0
M  V30 510 C 47.1052 4.72109 -2.23407 0
M  V30 511 H 48.7992 2.57566 -1.52643 0
M  V30 512 H 46.3452 1.23806 -0.735394 0
M  V30 513 H 48.2982 4.20426 0.286383 0
M  V30 514 H 47.0222 3.13424 0.918299 0
M  V30 515 H 45.6812 3.46821 -1.1879 0
M  V30 516 H 45.3292 4.96891 0.781562 0
M  V30 517 H 45.0292 5.82794 -0.750005 0
M  V30 518 H 46.5532 6.10438 0.1405 0
M  V30 519 H 47.9672 5.36955 -2.00879 0
M  V30 520 H 46.3642 5.30897 -2.79765 0
M  V30 521 H 47.4342 3.89807 -2.88407 0
M  V30 522 N 48.7773 0.814389 1.34928 0
M  V30 523 C 49.7093 0.187834 2.28429 0
M  V30 524 C 50.7223 -0.617374 1.5064 0
M  V30 525 O 51.9113 -0.448454 1.72775 0
M  V30 526 C 49.0113 -0.755962 3.30361 0
M  V30 527 C 48.1843 0.00456686 4.374 0
M  V30 528 C 47.2433 -0.858876 5.19143 0
M  V30 529 O 46.2693 -0.306968 5.68372 0
M  V30 530 N 47.4713 -2.17988 5.38016 0
M  V30 531 H 50.2363 0.991105 2.82838 0
M  V30 532 H 47.7973 0.670561 1.4736 0
M  V30 533 H 49.7893 -1.338 3.81942 0
M  V30 534 H 48.3593 -1.46001 2.7641 0
M  V30 535 H 47.5793 0.767865 3.86649 0
M  V30 536 H 48.8673 0.528422 5.06049 0
M  V30 537 H 48.2653 -2.65212 4.99679 0
M  V30 538 H 46.8223 -2.71098 5.92747 0
M  V30 539 N 50.2554 -1.46986 0.568584 0
M  V30 540 C 51.5034 -2.02041 0.0487022 0
M  V30 541 C 51.8244 -1.44408 -1.31039 0
M  V30 542 O 51.0944 -0.623477 -1.85714 0
M  V30 543 H 49.6744 -0.746849 0.015014 0
M  V30 544 H 52.3364 -1.80257 0.741168 0
M  V30 545 H 51.4324 -3.12085 -0.0308961 0
M  V30 546 N 51.7335 -0.305618 -1.54608 0
M  V30 547 C 52.9795 0.302746 -2.00528 0
M  V30 548 C 53.3125 1.53184 -1.19367 0
M  V30 549 O 52.5875 1.92598 -0.271321 0
M  V30 550 C 52.8705 0.654756 -3.54097 0
M  V30 551 C 52.7235 -0.583793 -4.45995 0
M  V30 552 C 54.0425 1.47947 -4.14487 0
M  V30 553 H 51.1615 0.108564 -0.72896 0
M  V30 554 H 53.8035 -0.418634 -1.85331 0
M  V30 555 H 51.9535 1.26935 -3.67178 0
M  V30 556 H 53.6255 -1.22224 -4.44814 0
M  V30 557 H 51.8685 -1.21615 -4.16404 0
M  V30 558 H 52.5395 -0.293287 -5.5122 0
M  V30 559 H 55.0155 0.96013 -4.04871 0
M  V30 560 H 53.8915 1.69454 -5.22088 0
M  V30 561 H 54.1525 2.47011 -3.66658 0
M  V30 562 N 53.2116 1.57565 -0.0334293 0
M  V30 563 C 54.1216 2.13943 0.962572 0
M  V30 564 C 55.1376 1.09276 1.35406 0
M  V30 565 O 56.3136 1.41355 1.4346 0
M  V30 566 C 53.3786 2.65887 2.22497 0
M  V30 567 C 52.4396 3.85286 1.8935 0
M  V30 568 C 51.6726 4.34743 3.09571 0
M  V30 569 O 51.8956 3.83352 4.22371 0
M  V30 570 O 50.8296 5.26538 2.91618 0
M  V30 571 H 54.6556 2.99333 0.513169 0
M  V30 572 H 52.2406 1.4822 0.18743 0
M  V30 573 H 54.1226 2.99346 2.96598 0
M  V30 574 H 52.7976 1.83578 2.6661 0
M  V30 575 H 51.7046 3.56746 1.1262 0
M  V30 576 H 53.0376 4.68771 1.5005 0
M  V30 577 N 54.6897 -0.239769 1.55765 0
M  V30 578 C 55.9177 -0.98417 1.81994 0
M  V30 579 C 56.3327 -1.7867 0.610124 0
M  V30 580 O 55.6897 -1.77571 -0.421271 0
M  V30 581 C 55.7407 -1.91635 3.06526 0
M  V30 582 O 55.4617 -1.14629 4.22838 0
M  V30 583 C 56.9627 -2.77616 3.45607 0
M  V30 584 H 54.1827 -0.28928 0.605441 0
M  V30 585 H 56.7267 -0.260499 2.02834 0
M  V30 586 H 54.8817 -2.5942 2.87715 0
M  V30 587 H 55.2957 -1.77745 4.93464 0
M  V30 588 H 56.7697 -3.38759 4.35828 0
M  V30 589 H 57.2467 -3.4909 2.6652 0
M  V30 590 H 57.8527 -2.15271 3.66795 0
M  V30 591 N 56.1678 -1.49265 -0.50573 0
M  V30 592 C 57.0778 -1.68312 -1.63427 0
M  V30 593 C 58.0938 -0.565682 -1.64548 0
M  V30 594 O 59.2698 -0.839801 -1.83055 0
M  V30 595 C 56.3348 -1.74107 -2.99813 0
M  V30 596 C 55.3958 -2.97653 -3.09356 0
M  V30 597 C 54.6288 -3.03163 -4.39236 0
M  V30 598 O 54.8518 -2.16396 -5.27758 0
M  V30 599 O 53.7858 -3.9558 -4.53652 0
M  V30 600 H 57.6118 -2.63907 -1.50289 0
M  V30 601 H 55.1968 -1.32951 -0.681502 0
M  V30 602 H 57.0788 -1.803 -3.80881 0
M  V30 603 H 55.7538 -0.816901 -3.13223 0
M  V30 604 H 54.6608 -2.96981 -2.27493 0
M  V30 605 H 55.9938 -3.89535 -3.00871 0
M  V30 606 N 57.6459 0.756429 -1.3826 0
M  V30 607 C 58.5759 1.88374 -1.37976 0
M  V30 608 C 59.5569 1.68311 -0.246082 0
M  V30 609 O 60.7419 1.88944 -0.44874 0
M  V30 610 C 57.8719 3.25864 -1.20125 0
M  V30 611 C 56.8259 3.60523 -2.30666 0
M  V30 612 C 56.1519 4.9672 -1.97923 0
M  V30 613 C 57.4519 3.65692 -3.72916 0
M  V30 614 H 59.1459 1.88869 -2.32312 0
M  V30 615 H 56.6919 0.907272 -1.11824 0
M  V30 616 H 58.6449 4.0438 -1.18552 0
M  V30 617 H 57.3689 3.25841 -0.222498 0
M  V30 618 H 56.0279 2.84324 -2.3142 0
M  V30 619 H 55.6759 4.93253 -0.985393 0
M  V30 620 H 55.3759 5.20878 -2.71955 0
M  V30 621 H 56.8999 5.77618 -1.97964 0
M  V30 622 H 58.3139 4.34328 -3.74208 0
M  V30 623 H 56.7109 4.01358 -4.4613 0
M  V30 624 H 57.7809 2.65987 -4.05436 0
M  V30 625 N 59.124 1.23083 0.984299 0
M  V30 626 C 60.364 1.07226 1.74017 0
M  V30 627 C 60.728 -0.384766 1.88105 0
M  V30 628 O 61.929 -0.664411 2.60459 0
M  V30 629 C 60.2 1.77348 3.10294 0
M  V30 630 S 61.759 1.77014 4.01512 0
M  V30 631 H 58.577 0.383819 0.598502 0
M  V30 632 H 61.179 1.56158 1.17622 0
M  V30 633 H 59.883 2.82506 2.97689 0
M  V30 634 H 59.414 1.28682 3.71759 0
M  V30 635 H 61.429 0.825956 4.89277 0
M  V30 636 N 60.6021 -1.18246 1.0419 0
M  V30 637 C 61.8321 -1.91916 0.764961 0
M  V30 638 C 62.2401 -1.76485 -0.681898 0
M  V30 639 O 61.5831 -1.09275 -1.47664 0
M  V30 640 C 61.6451 -3.4373 1.05309 0
M  V30 641 C 61.3091 -3.8294 2.4941 0
M  V30 642 C 62.3061 -3.86621 3.47592 0
M  V30 643 C 59.9911 -4.142 2.84155 0
M  V30 644 C 61.9851 -4.21013 4.78568 0
M  V30 645 C 59.6721 -4.48262 4.15337 0
M  V30 646 C 60.6701 -4.51645 5.12353 0
M  V30 647 O 60.3581 -4.84911 6.41183 0
M  V30 648 H 60.0901 -0.61606 0.278292 0
M  V30 649 H 62.6441 -1.50947 1.39299 0
M  V30 650 H 60.8741 -3.84946 0.367933 0
M  V30 651 H 62.5631 -3.9865 0.763752 0
M  V30 652 H 63.3291 -3.62607 3.22089 0
M  V30 653 H 59.2081 -4.10743 2.09311 0
M  V30 654 H 62.7521 -4.23568 5.54289 0
M  V30 655 H 58.6491 -4.71737 4.40607 0
M  V30 656 H 59.4171 -5.02809 6.45852 0
M  V30 657 N 62.0802 -0.821533 -1.34494 0
M  V30 658 C 63.0282 -0.230702 -2.31453 0
M  V30 659 C 64.0222 0.627793 -1.57338 0
M  V30 660 O 65.2282 0.519288 -1.72347 0
M  V30 661 H 61.6032 -0.0558577 -0.749923 0
M  V30 662 H 63.5742 -1.06332 -2.78812 0
M  V30 663 C 62.3232 0.59391 -3.4259 0
M  V30 664 H 61.6462 -0.0573588 -3.99759 0
M  V30 665 H 63.0862 0.973446 -4.12674 0
M  V30 666 C 61.5452 1.76568 -2.86924 0
M  V30 667 O 62.0752 2.8638 -2.81691 0
M  V30 668 N 60.2812 1.58198 -2.43766 0
M  V30 669 H 59.8282 0.68872 -2.48222 0
M  V30 670 H 59.7862 2.36752 -2.06871 0
M  V30 671 N 63.5583 1.46682 -0.576371 0
M  V30 672 C 64.8043 2.02712 -0.0596221 0
M  V30 673 C 65.1373 1.44765 1.29448 0
M  V30 674 O 64.4123 0.610355 1.84675 0
M  V30 675 C 64.6953 3.60098 0.0129503 0
M  V30 676 C 64.5483 4.28441 -1.3696 0
M  V30 677 C 65.8673 4.34224 0.71678 0
M  V30 678 H 62.9863 0.736637 -0.0231407 0
M  V30 679 H 65.6283 1.74898 -0.742351 0
M  V30 680 H 63.7783 3.83926 0.594378 0
M  V30 681 H 65.4503 4.15896 -1.9957 0
M  V30 682 H 63.6933 3.8805 -1.93907 0
M  V30 683 H 64.3643 5.3716 -1.27135 0
M  V30 684 H 66.8403 4.15503 0.222908 0
M  V30 685 H 65.7163 5.43936 0.73657 0
M  V30 686 H 65.9773 4.04823 1.77682 0
M  V30 687 N 65.0364 0.313813 1.54444 0
M  V30 688 C 65.9844 -0.572171 2.25453 0
M  V30 689 C 66.9784 -1.12657 1.2651 0
M  V30 690 O 68.1844 -1.07573 1.44319 0
M  V30 691 H 64.5594 -0.203146 0.724041 0
M  V30 692 H 66.5304 0.0491145 2.9836 0
M  V30 693 C 65.2794 -1.72626 3.0182 0
M  V30 694 H 64.6024 -1.30891 3.77767 0
M  V30 695 H 66.0424 -2.32199 3.54767 0
M  V30 696 C 64.5014 -2.63806 2.09542 0
M  V30 697 O 65.0314 -3.65256 1.67185 0
M  V30 698 N 63.2374 -2.31824 1.75232 0
M  V30 699 H 62.7844 -1.49368 2.09873 0
M  V30 700 H 62.7424 -2.93095 1.13767 0
M  V30 701 N 66.5145 -1.57545 0.0417849 0
M  V30 702 C 67.7605 -1.93424 -0.629168 0
M  V30 703 C 68.1155 -0.919564 -1.69002 0
M  V30 704 O 67.4085 0.0626178 -1.91498 0
M  V30 705 C 67.6025 -3.33794 -1.27735 0
M  V30 706 C 67.4315 -4.48822 -0.280806 0
M  V30 707 C 66.2015 -5.05148 0.123869 0
M  V30 708 C 68.3995 -5.12148 0.470012 0
M  V30 709 N 66.3815 -6.03703 1.11426 0
M  V30 710 C 67.7525 -6.05921 1.31377 0
M  V30 711 C 69.8075 -4.95078 0.529343 0
M  V30 712 C 68.5105 -6.84459 2.21152 0
M  V30 713 C 70.5365 -5.74235 1.41448 0
M  V30 714 C 69.8985 -6.67634 2.24598 0
M  V30 715 H 65.9975 -0.755418 -0.202158 0
M  V30 716 H 68.5815 -1.94378 0.111923 0
M  V30 717 H 66.7525 -3.33635 -1.98852 0
M  V30 718 H 68.4845 -3.56988 -1.90635 0
M  V30 719 H 65.2395 -4.72923 -0.253178 0
M  V30 720 H 65.6635 -6.57674 1.60607 0
M  V30 721 H 70.3055 -4.22683 -0.0992798 0
M  V30 722 H 68.0235 -7.56151 2.85063 0
M  V30 723 H 71.6095 -5.63057 1.46484 0
M  V30 724 H 70.4895 -7.27817 2.9198 0
M  V30 725 N 67.9926 0.231505 -1.5589 0
M  V30 726 C 69.2206 0.974505 -1.82513 0
M  V30 727 C 69.6356 1.78344 -0.619591 0
M  V30 728 O 68.9926 1.77792 0.411848 0
M  V30 729 C 69.0436 1.90007 -3.07538 0
M  V30 730 O 68.7646 1.12385 -4.2344 0
M  V30 731 C 70.2656 2.75779 -3.47075 0
M  V30 732 H 67.4856 0.286065 -0.606966 0
M  V30 733 H 70.0296 0.249739 -2.02969 0
M  V30 734 H 68.1846 2.57891 -2.89086 0
M  V30 735 H 68.5986 1.75125 -4.944 0
M  V30 736 H 70.0726 3.36443 -4.37619 0
M  V30 737 H 70.5496 3.47672 -2.68367 0
M  V30 738 H 71.1556 2.13323 -3.67931 0
M  V30 739 N 69.4707 1.49531 0.497807 0
M  V30 740 C 70.4337 1.65916 1.58128 0
M  V30 741 C 71.4337 0.530825 1.51786 0
M  V30 742 O 72.6237 0.797342 1.54881 0
M  V30 743 C 69.7557 1.65951 2.9778 0
M  V30 744 H 70.9487 2.62556 1.44929 0
M  V30 745 H 68.5017 1.38611 0.722275 0
M  V30 746 H 69.2367 0.709065 3.16453 0
M  V30 747 H 69.0217 2.47897 3.03792 0
M  V30 748 H 70.5117 1.80673 3.76493 0
M  V30 749 N 70.9488 -0.749086 1.3866 0
M  V30 750 C 71.8588 -1.89358 1.38494 0
M  V30 751 C 72.8748 -1.71708 0.281476 0
M  V30 752 O 74.0508 -1.94554 0.520643 0
M  V30 753 C 71.1158 -3.24782 1.21316 0
M  V30 754 C 70.1768 -3.54926 2.41508 0
M  V30 755 C 69.4098 -4.83888 2.2514 0
M  V30 756 O 69.6328 -5.56592 1.24746 0
M  V30 757 O 68.5668 -5.13612 3.13826 0
M  V30 758 H 72.3928 -1.92452 2.34938 0
M  V30 759 H 69.9778 -0.894981 1.19626 0
M  V30 760 H 71.8598 -4.05739 1.13814 0
M  V30 761 H 70.5348 -3.2249 0.279592 0
M  V30 762 H 69.4418 -2.74112 2.54585 0
M  V30 763 H 70.7748 -3.61983 3.3351 0
M  V30 764 N 72.4269 -1.23603 -0.977757 0
M  V30 765 C 73.3899 -1.02069 -2.05218 0
M  V30 766 C 74.3899 0.0184305 -1.60789 0
M  V30 767 O 75.5799 -0.221569 -1.72785 0
M  V30 768 C 72.7119 -0.544926 -3.36517 0
M  V30 769 H 73.9049 -1.9742 -2.25755 0
M  V30 770 H 71.4579 -1.05684 -1.15155 0
M  V30 771 H 72.1929 0.412241 -3.21669 0
M  V30 772 H 71.9779 -1.2948 -3.70105 0
M  V30 773 H 73.4679 -0.414985 -4.15533 0
M  V30 774 N 73.905 1.17692 -1.04816 0
M  V30 775 C 74.835 2.23777 -0.666791 0
M  V30 776 C 75.816 1.66796 0.33361 0
M  V30 777 O 77.001 1.93039 0.212042 0
M  V30 778 C 74.131 3.47281 -0.0367933 0
M  V30 779 C 73.085 4.17059 -0.961546 0
M  V30 780 C 72.411 5.34342 -0.195626 0
M  V30 781 C 73.711 4.69713 -2.28402 0
M  V30 782 H 75.405 2.55933 -1.55367 0
M  V30 783 H 72.951 1.23019 -0.748484 0
M  V30 784 H 74.904 4.20706 0.241775 0
M  V30 785 H 73.628 3.14381 0.885004 0
M  V30 786 H 72.287 3.45541 -1.22462 0
M  V30 787 H 71.935 4.97692 0.728816 0
M  V30 788 H 71.635 5.81966 -0.811775 0
M  V30 789 H 73.159 6.10553 0.0757473 0
M  V30 790 H 74.573 5.34794 -2.06563 0
M  V30 791 H 72.97 5.279 -2.8538 0
M  V30 792 H 74.04 3.86726 -2.92525 0
M  V30 793 N 75.3831 0.828654 1.34056 0
M  V30 794 C 76.7941 0.477534 1.8049 0
M  V30 795 C 77.1451 -1.00258 1.6865 0
M  V30 796 O 76.2701 -1.78057 1.22982 0
M  V30 797 C 76.8651 0.860018 3.27703 0
M  V30 798 C 75.4241 0.561185 3.72193 0
M  V30 799 C 74.5711 1.07385 2.55663 0
M  V30 800 H 77.5221 1.0183 1.21722 0
M  V30 801 H 77.5431 0.166038 3.80138 0
M  V30 802 H 77.0551 1.93731 3.36288 0
M  V30 803 H 75.1561 -0.506465 3.69142 0
M  V30 804 H 75.2691 1.10926 4.66082 0
M  V30 805 H 73.6331 0.495149 2.49841 0
M  V30 806 H 74.4161 2.15771 2.67016 0
M  V30 807 N 76.8612 -1.46375 0.584142 0
M  V30 808 C 78.0862 -2.07268 0.0740405 0
M  V30 809 C 78.5112 -1.42979 -1.22223 0
M  V30 810 O 77.8692 -0.514092 -1.73859 0
M  V30 811 C 77.9172 -3.60518 -0.0767769 0
M  V30 812 O 77.0212 -3.96533 -1.13292 0
M  V30 813 H 76.3622 -0.660961 0.0634524 0
M  V30 814 H 78.8922 -1.87991 0.807492 0
M  V30 815 H 78.9022 -4.07021 -0.282489 0
M  V30 816 H 77.5772 -4.06702 0.86986 0
M  V30 817 H 76.1542 -3.61738 -0.905553 0
M  V30 818 N 78.3393 -0.321999 -1.54275 0
M  V30 819 C 79.3023 0.531975 -2.22941 0
M  V30 820 C 80.3023 1.04478 -1.22234 0
M  V30 821 O 81.4923 0.937452 -1.46825 0
M  V30 822 C 78.6243 1.73874 -2.93224 0
M  V30 823 H 79.8173 -0.0682612 -2.99822 0
M  V30 824 H 77.3703 -0.0730644 -1.56129 0
M  V30 825 H 78.1053 2.37825 -2.20476 0
M  V30 826 H 77.8903 1.37847 -3.6707 0
M  V30 827 H 79.3803 2.34496 -3.45545 0
M  V30 828 N 79.8174 1.5752 -0.0501392 0
M  V30 829 C 80.7274 2.14952 0.939827 0
M  V30 830 C 81.7434 1.10706 1.34239 0
M  V30 831 O 82.9194 1.42869 1.41952 0
M  V30 832 C 79.9844 2.68232 2.19665 0
M  V30 833 C 79.0454 3.87272 1.85253 0
M  V30 834 C 78.2784 4.38002 3.04943 0
M  V30 835 O 78.5014 3.87811 4.18281 0
M  V30 836 O 77.4354 5.29602 2.86017 0
M  V30 837 H 81.2614 2.9986 0.481392 0
M  V30 838 H 78.8464 1.4841 0.171699 0
M  V30 839 H 80.7284 3.02475 2.93406 0
M  V30 840 H 79.4034 1.86395 2.64648 0
M  V30 841 H 78.3104 3.5792 1.0883 0
M  V30 842 H 79.6434 4.70336 1.4507 0
M  V30 843 N 81.2955 -0.223234 1.56011 0
M  V30 844 C 82.2055 -1.29766 1.95443 0
M  V30 845 C 83.2215 -1.51373 0.858028 0
M  V30 846 O 84.3975 -1.64536 1.16146 0
M  V30 847 C 81.4625 -2.62772 2.26167 0
M  V30 848 C 80.5235 -2.49482 3.49367 0
M  V30 849 C 79.7565 -3.76145 3.78616 0
M  V30 850 O 79.9795 -4.79087 3.09568 0
M  V30 851 O 78.9135 -3.73358 4.72109 0
M  V30 852 H 82.7395 -0.99309 2.87004 0
M  V30 853 H 80.3245 -0.425958 1.43199 0
M  V30 854 H 82.2065 -3.41327 2.47131 0
M  V30 855 H 80.8815 -2.92913 1.37781 0
M  V30 856 H 79.7885 -1.69133 3.33684 0
M  V30 857 H 81.1215 -2.2428 4.38131 0
M  V30 858 N 82.7736 -1.49793 -0.48987 0
M  V30 859 C 84.0016 -1.63568 -1.26701 0
M  V30 860 C 84.4166 -0.311465 -1.86213 0
M  V30 861 O 83.7736 0.704416 -1.68357 0
M  V30 862 C 83.8246 -2.71284 -2.38929 0
M  V30 863 O 83.5456 -3.9857 -1.81861 0
M  V30 864 C 85.0466 -2.95864 -3.3012 0
M  V30 865 H 82.2666 -0.550342 -0.383881 0
M  V30 866 H 84.8106 -1.95898 -0.586864 0
M  V30 867 H 82.9656 -2.417 -3.02753 0
M  V30 868 H 83.3796 -4.57993 -2.55622 0
M  V30 869 H 84.8536 -3.74941 -4.05121 0
M  V30 870 H 85.3306 -2.06206 -3.87783 0
M  V30 871 H 85.9366 -3.26907 -2.72051 0
M  V30 872 N 84.2517 0.741722 -1.39055 0
M  V30 873 C 85.1987 1.85566 -1.37237 0
M  V30 874 C 86.1687 1.64457 -0.233072 0
M  V30 875 O 87.3537 1.85957 -0.427147 0
M  V30 876 C 84.4937 3.23004 -1.215 0
M  V30 877 C 83.6067 3.55864 -2.44918 0
M  V30 878 C 82.7417 4.82669 -2.21821 0
M  V30 879 C 81.7807 5.08351 -3.40948 0
M  V30 880 N 80.9177 6.26356 -3.17211 0
M  V30 881 H 85.7577 1.86455 -2.32462 0
M  V30 882 H 83.2947 0.911176 -1.15482 0
M  V30 883 H 85.2527 4.02331 -1.10389 0
M  V30 884 H 83.8827 3.21411 -0.29908 0
M  V30 885 H 82.9347 2.7129 -2.66657 0
M  V30 886 H 84.2467 3.70765 -3.33668 0
M  V30 887 H 83.4007 5.69962 -2.07914 0
M  V30 888 H 82.1397 4.69929 -1.30454 0
M  V30 889 H 81.1447 4.19522 -3.55361 0
M  V30 890 H 82.3697 5.22981 -4.33207 0
M  V30 891 H 80.3157 6.14917 -2.28502 0
M  V30 892 H 80.2327 6.41813 -3.99515 0
M  V30 893 H 81.5007 7.16506 -3.06984 0
M  V30 894 N 85.7298 1.2412 0.971189 0
M  V30 895 C 86.6768 1.0305 2.06517 0
M  V30 896 C 87.6468 -0.0550666 1.66009 0
M  V30 897 O 88.8318 0.0988688 1.90544 0
M  V30 898 C 85.9718 0.637653 3.39158 0
M  V30 899 C 85.0848 1.79633 3.92882 0
M  V30 900 C 84.2198 1.34939 5.13775 0
M  V30 901 C 83.2588 2.47823 5.59687 0
M  V30 902 N 82.3958 2.04022 6.71803 0
M  V30 903 H 87.2358 1.96685 2.23873 0
M  V30 904 H 84.7728 0.979694 1.09729 0
M  V30 905 H 86.7308 0.390931 4.15364 0
M  V30 906 H 85.3608 -0.261693 3.21737 0
M  V30 907 H 84.4128 2.15681 3.13346 0
M  V30 908 H 85.7248 2.64466 4.22918 0
M  V30 909 H 84.8788 1.06134 5.97345 0
M  V30 910 H 83.6178 0.471557 4.85415 0
M  V30 911 H 82.6228 2.77392 4.74693 0
M  V30 912 H 83.8478 3.36158 5.90063 0
M  V30 913 H 81.7938 1.18632 6.45184 0
M  V30 914 H 81.7108 2.82409 7.01271 0
M  V30 915 H 82.9788 1.78347 7.58823 0
M  V30 916 N 87.2079 -1.17134 1.05439 0
M  V30 917 C 88.1379 -2.2342 0.678649 0
M  V30 918 C 89.1189 -1.66971 -0.32476 0
M  V30 919 O 90.3039 -1.93149 -0.201802 0
M  V30 920 C 87.4339 -3.47256 0.0552099 0
M  V30 921 C 86.3879 -4.16543 0.98365 0
M  V30 922 C 85.7139 -5.34231 0.223961 0
M  V30 923 C 87.0139 -4.68495 2.3089 0
M  V30 924 H 88.7079 -2.55105 1.56722 0
M  V30 925 H 86.2539 -1.2262 0.754998 0
M  V30 926 H 88.2069 -4.20828 -0.21946 0
M  V30 927 H 86.9309 -3.14846 -0.868319 0
M  V30 928 H 85.5899 -3.44887 1.24293 0
M  V30 929 H 85.2379 -4.98071 -0.702412 0
M  V30 930 H 84.9379 -5.81527 0.842627 0
M  V30 931 H 86.4619 -6.10585 -0.0433671 0
M  V30 932 H 87.8759 -5.33691 2.09396 0
M  V30 933 H 86.2729 -5.26379 2.88176 0
M  V30 934 H 87.3429 -3.85169 2.94572 0
M  V30 935 N 88.686 -0.835752 -1.33615 0
M  V30 936 C 89.619 -0.211815 -2.27215 0
M  V30 937 C 90.597 0.639249 -1.49507 0
M  V30 938 O 91.781 0.600193 -1.78689 0
M  V30 939 C 88.908 0.702893 -3.31326 0
M  V30 940 C 87.954 -0.0723049 -4.26439 0
M  V30 941 S 88.787 -1.42811 -5.16106 0
M  V30 942 C 89.943 -0.518613 -6.23748 0
M  V30 943 H 90.176 -1.00533 -2.79786 0
M  V30 944 H 87.709 -0.632336 -1.40858 0
M  V30 945 H 89.667 1.22505 -3.91794 0
M  V30 946 H 88.328 1.47004 -2.77576 0
M  V30 947 H 87.521 0.62359 -5.00127 0
M  V30 948 H 87.123 -0.525424 -3.70291 0
M  V30 949 H 89.415 0.284778 -6.76901 0
M  V30 950 H 90.358 -1.22556 -6.97413 0
M  V30 951 H 90.766 -0.101344 -5.64409 0
M  V30 952 N 90.1641 1.46063 -0.591896 0
M  V30 953 C 91.4101 2.03203 -0.0894879 0
M  V30 954 C 91.7651 1.45407 1.25994 0
M  V30 955 O 91.0581 0.61326 1.8152 0
M  V30 956 C 91.2521 3.57391 0.0249813 0
M  V30 957 C 91.0811 4.30142 -1.3118 0
M  V30 958 C 89.8511 4.68688 -1.88838 0
M  V30 959 C 92.0491 4.63098 -2.23708 0
M  V30 960 N 90.0311 5.26228 -3.1616 0
M  V30 961 C 91.4021 5.21305 -3.3562 0
M  V30 962 C 93.4571 4.45031 -2.23274 0
M  V30 963 C 92.1601 5.63351 -4.47245 0
M  V30 964 C 94.1861 4.881 -3.33935 0
M  V30 965 C 93.5481 5.46386 -4.44569 0
M  V30 966 H 89.6471 0.778323 -0.0757431 0
M  V30 967 H 92.2311 1.78094 -0.78681 0
M  V30 968 H 90.4021 3.82195 0.69149 0
M  V30 969 H 92.1341 4.0118 0.532613 0
M  V30 970 H 88.8891 4.5174 -1.42223 0
M  V30 971 H 89.3131 5.59512 -3.8115 0
M  V30 972 H 93.9551 3.99295 -1.39008 0
M  V30 973 H 91.6731 6.08061 -5.32247 0
M  V30 974 H 95.2591 4.75866 -3.34728 0
M  V30 975 H 94.1391 5.79102 -5.28782 0
M  V30 976 N 91.6422 0.330177 1.54103 0
M  V30 977 C 92.5722 -0.525353 2.27513 0
M  V30 978 C 93.5532 -1.11383 1.2856 0
M  V30 979 O 94.7382 -1.13773 1.57383 0
M  V30 980 C 91.8682 -1.6831 3.03791 0
M  V30 981 C 90.8222 -1.2236 4.10137 0
M  V30 982 C 90.1482 -2.46882 4.74293 0
M  V30 983 C 91.4482 -0.333697 5.21233 0
M  V30 984 H 93.1422 0.087013 2.99274 0
M  V30 985 H 90.6882 0.0432893 1.43935 0
M  V30 986 H 92.6412 -2.28795 3.5388 0
M  V30 987 H 91.3652 -2.32216 2.29659 0
M  V30 988 H 90.0242 -0.64165 3.60941 0
M  V30 989 H 89.6722 -3.09165 3.96769 0
M  V30 990 H 89.3722 -2.16825 5.46133 0
M  V30 991 H 90.8962 -3.08117 5.27159 0
M  V30 992 H 92.3102 -0.845013 5.67038 0
M  V30 993 H 90.7072 -0.125612 5.99969 0
M  V30 994 H 91.7772 0.633724 4.80741 0
M  V30 995 N 93.1203 -1.57491 0.0584922 0
M  V30 996 C 94.3673 -1.92978 -0.613648 0
M  V30 997 C 94.6953 -0.937461 -1.70417 0
M  V30 998 O 93.9503 0.049078 -1.95638 0
M  V30 999 C 94.2493 -3.3513 -1.24188 0
M  V30 1000 C 93.9153 -4.50037 -0.278826 0
M  V30 1001 C 92.5773 -4.81198 -0.0138447 0
M  V30 1002 C 94.9293 -5.19807 0.380777 0
M  V30 1003 C 92.2573 -5.79473 0.918052 0
M  V30 1004 C 94.6093 -6.19079 1.30091 0
M  V30 1005 C 93.2733 -6.48665 1.57449 0
M  V30 1006 H 92.5433 -0.706157 -0.22455 0
M  V30 1007 H 95.1903 -1.91082 0.126533 0
M  V30 1008 H 93.4953 -3.33429 -2.05749 0
M  V30 1009 H 95.1923 -3.59871 -1.769 0
M  V30 1010 H 91.7823 -4.25726 -0.495539 0
M  V30 1011 H 95.9663 -4.95939 0.189158 0
M  V30 1012 H 91.2223 -6.00727 1.1374 0
M  V30 1013 H 95.3963 -6.7225 1.81804 0
M  V30 1014 H 93.0233 -7.24628 2.29822 0
M  V30 1015 N 94.5984 0.214957 -1.56127 0
M  V30 1016 C 95.8464 0.936518 -1.79091 0
M  V30 1017 C 96.1674 1.84606 -0.628148 0
M  V30 1018 O 95.4374 1.92664 0.35462 0
M  V30 1019 H 94.0174 0.3488 -0.660566 0
M  V30 1020 H 96.6794 0.22523 -1.93594 0
M  V30 1021 H 95.7754 1.53943 -2.71492 0
M  V30 1022 N 96.0765 1.50051 0.48192 0
M  V30 1023 C 97.3165 1.62128 1.24474 0
M  V30 1024 C 97.6805 0.309742 1.89485 0
M  V30 1025 O 98.8815 0.305854 2.67054 0
M  V30 1026 C 97.1525 2.76151 2.26882 0
M  V30 1027 S 98.7115 3.08297 3.12247 0
M  V30 1028 H 95.5295 0.571661 0.422759 0
M  V30 1029 H 98.1315 1.87791 0.54359 0
M  V30 1030 H 96.8355 3.69942 1.77683 0
M  V30 1031 H 96.3665 2.52541 3.0164 0
M  V30 1032 H 98.3815 2.51287 4.27866 0
M  V30 1033 N 97.5546 -0.734337 1.39446 0
M  V30 1034 C 98.9656 -1.31264 1.32766 0
M  V30 1035 C 99.3166 -1.96198 -0.00767497 0
M  V30 1036 O 98.4416 -1.96346 -0.909796 0
M  V30 1037 C 99.0366 -2.38682 2.4045 0
M  V30 1038 C 97.5956 -2.92184 2.37288 0
M  V30 1039 C 96.7426 -1.6576 2.22304 0
M  V30 1040 H 99.6936 -0.531799 1.49525 0
M  V30 1041 H 99.7146 -3.19087 2.07276 0
M  V30 1042 H 99.2266 -1.91392 3.37625 0
M  V30 1043 H 97.3276 -3.43752 1.43754 0
M  V30 1044 H 97.4406 -3.45253 3.3217 0
M  V30 1045 H 95.8046 -1.9012 1.69489 0
M  V30 1046 H 96.5876 -1.20521 3.21449 0
M  V30 1047 N 99.0327 -1.24633 -0.964593 0
M  V30 1048 C 99.9627 -1.06611 -2.07741 0
M  V30 1049 C 100.944 0.0218666 -1.70086 0
M  V30 1050 O 102.129 -0.145793 -1.93652 0
M  V30 1051 C 99.2587 -0.673444 -3.40708 0
M  V30 1052 C 98.2127 -1.71054 -3.92332 0
M  V30 1053 C 97.5387 -1.17285 -5.21678 0
M  V30 1054 C 98.8387 -3.10718 -4.19824 0
M  V30 1055 H 100.533 -1.99693 -2.23076 0
M  V30 1056 H 98.0787 -0.96152 -1.07195 0
M  V30 1057 H 100.032 -0.534345 -4.17998 0
M  V30 1058 H 98.7557 0.293073 -3.25282 0
M  V30 1059 H 97.4147 -1.83791 -3.17201 0
M  V30 1060 H 97.0627 -0.196847 -5.02615 0
M  V30 1061 H 96.7627 -1.86592 -5.57187 0
M  V30 1062 H 98.2867 -1.04593 -6.01575 0
M  V30 1063 H 99.7007 -3.01192 -4.87808 0
M  V30 1064 H 98.0977 -3.77406 -4.66567 0
M  V30 1065 H 99.1677 -3.58524 -3.26479 0
M  V30 1066 N 100.511 1.16574 -1.06058 0
M  V30 1067 C 101.441 2.23057 -0.690488 0
M  V30 1068 C 102.422 1.67141 0.315901 0
M  V30 1069 O 103.607 1.93253 0.191556 0
M  V30 1070 C 100.737 3.47222 -0.073625 0
M  V30 1071 C 99.6908 4.16016 -1.00573 0
M  V30 1072 C 99.0168 5.34104 -0.252289 0
M  V30 1073 C 100.317 4.67264 -2.33371 0
M  V30 1074 H 102.011 2.54271 -1.58072 0
M  V30 1075 H 99.5568 1.22218 -0.76149 0
M  V30 1076 H 101.51 4.20939 0.19714 0
M  V30 1077 H 100.234 3.15302 0.85161 0
M  V30 1078 H 98.8928 3.44223 -1.2612 0
M  V30 1079 H 98.5408 4.98437 0.675988 0
M  V30 1080 H 98.2408 5.81072 -0.873455 0
M  V30 1081 H 99.7648 6.10599 0.0109857 0
M  V30 1082 H 101.179 5.32573 -2.12223 0
M  V30 1083 H 99.5758 5.24843 -2.90963 0
M  V30 1084 H 100.646 3.83602 -2.96611 0
M  V30 1085 N 101.989 0.842826 1.3317 0
M  V30 1086 C 102.919 0.294028 2.31641 0
M  V30 1087 C 103.9 -0.600401 1.59151 0
M  V30 1088 O 105.085 -0.523124 1.87022 0
M  V30 1089 C 102.215 -0.528416 3.43257 0
M  V30 1090 C 101.169 0.27056 4.27144 0
M  V30 1091 C 100.495 -0.675881 5.30411 0
M  V30 1092 C 101.795 1.48981 5.00602 0
M  V30 1093 H 103.489 1.11681 2.77791 0
M  V30 1094 H 101.035 0.538478 1.33553 0
M  V30 1095 H 102.988 -0.922674 4.11175 0
M  V30 1096 H 101.712 -1.38445 2.95805 0
M  V30 1097 H 100.371 0.646427 3.60856 0
M  V30 1098 H 100.019 -1.52842 4.79216 0
M  V30 1099 H 99.7189 -0.145374 5.8742 0
M  V30 1100 H 101.243 -1.06757 6.01195 0
M  V30 1101 H 102.657 1.16849 5.61266 0
M  V30 1102 H 101.054 1.95739 5.6728 0
M  V30 1103 H 102.124 2.25746 4.29147 0
M  V30 1104 N 103.467 -1.45747 0.599634 0
M  V30 1105 C 104.744 -1.95585 0.0240846 0
M  V30 1106 C 105.124 -1.54217 -1.44154 0
M  V30 1107 O 104.472 -0.800903 -2.14004 0
M  V30 1108 C 104.682 -3.48344 0.21385 0
M  V30 1109 C 106.03 -4.24504 0.0904902 0
M  V30 1110 O 107.054 -3.55911 0.143558 0
M  V30 1111 O 105.913 -5.46491 -0.0310766 0
M  V30 1112 H 103.007 -0.82602 -0.0402478 0
M  V30 1113 H 105.553 -1.55951 0.669139 0
M  V30 1114 H 104.325 -3.71397 1.23206 0
M  V30 1115 H 103.948 -3.9485 -0.466842 0
M  V30 1116 N 104.945 -0.338344 -1.53925 0
M  V30 1117 C 106.222 0.314774 -1.93051 0
M  V30 1118 C 106.602 1.68669 -1.26941 0
M  V30 1119 O 105.95 2.24636 -0.418445 0
M  V30 1120 C 106.16 0.392249 -3.46789 0
M  V30 1121 C 107.508 0.645554 -4.19664 0
M  V30 1122 O 108.532 0.474575 -3.53024 0
M  V30 1123 O 107.391 0.976408 -5.37707 0
M  V30 1124 H 104.485 0.182598 -0.80659 0
M  V30 1125 H 107.031 -0.389141 -1.65178 0
M  V30 1126 H 105.803 -0.570702 -3.87116 0
M  V30 1127 H 105.426 1.14316 -3.80812 0
M  V30 1128 N 106.423 1.57458 -0.0668435 0
M  V30 1129 C 107.669 1.93587 0.6043 0
M  V30 1130 C 108.002 0.946722 1.69561 0
M  V30 1131 O 107.277 -0.0248516 1.94484 0
M  V30 1132 C 107.56 3.40014 1.18585 0
M  V30 1133 C 107.413 4.49685 0.101529 0
M  V30 1134 C 108.732 3.87154 2.09284 0
M  V30 1135 H 105.851 0.703958 0.218202 0
M  V30 1136 H 108.493 1.89542 -0.131804 0
M  V30 1137 H 106.643 3.43592 1.81319 0
M  V30 1138 H 108.315 4.5823 -0.531279 0
M  V30 1139 H 106.558 4.30059 -0.568487 0
M  V30 1140 H 107.229 5.49266 0.54874 0
M  V30 1141 H 109.705 3.85551 1.56491 0
M  V30 1142 H 108.581 4.90231 2.46911 0
M  V30 1143 H 108.842 3.2481 2.99918 0
M  V30 1144 N 107.901 -0.206675 1.56239 0
M  V30 1145 C 108.864 -1.23976 1.92776 0
M  V30 1146 C 109.864 -1.39041 0.807729 0
M  V30 1147 O 111.054 -1.37051 1.0753 0
M  V30 1148 C 108.186 -2.61112 2.19165 0
M  V30 1149 H 109.379 -0.927764 2.85189 0
M  V30 1150 H 106.932 -0.447718 1.4975 0
M  V30 1151 H 107.667 -2.97386 1.29352 0
M  V30 1152 H 107.452 -2.51552 3.00772 0
M  V30 1153 H 108.942 -3.35633 2.48476 0
M  V30 1154 N 109.379 -1.50304 -0.473955 0
M  V30 1155 C 110.795 -1.37667 -0.807466 0
M  V30 1156 C 110.995 -0.430555 -1.96846 0
M  V30 1157 O 110.051 0.127874 -2.52176 0
M  V30 1158 C 111.364 -2.78974 -1.12223 0
M  V30 1159 C 112.912 -2.87868 -1.22885 0
M  V30 1160 C 113.387 -4.30003 -1.57676 0
M  V30 1161 N 114.878 -4.3294 -1.64673 0
M  V30 1162 C 115.613 -5.3991 -1.93091 0
M  V30 1163 N 115.109 -6.57092 -2.1955 0
M  V30 1164 N 116.902 -5.27351 -1.94569 0
M  V30 1165 H 109.053 -2.10394 0.291212 0
M  V30 1166 H 111.316 -0.945575 0.0677609 0
M  V30 1167 H 111.022 -3.50031 -0.342229 0
M  V30 1168 H 110.896 -3.16038 -2.05913 0
M  V30 1169 H 113.283 -2.17032 -1.99953 0
M  V30 1170 H 113.364 -2.54352 -0.271814 0
M  V30 1171 H 113.008 -5.01375 -0.81149 0
M  V30 1172 H 112.938 -4.61004 -2.54525 0
M  V30 1173 H 115.429 -3.48441 -1.46277 0
M  V30 1174 H 115.742 -7.34425 -2.405 0
M  V30 1175 H 114.087 -6.60272 -2.16948 0
M  V30 1176 H 117.278 -4.34801 -1.73394 0
M  V30 1177 H 117.451 -6.10805 -2.16381 0
M  V30 1178 N 110.857 0.726932 -1.39834 0
M  V30 1179 C 111.767 1.87131 -1.41489 0
M  V30 1180 C 112.783 1.71239 -0.308757 0
M  V30 1181 O 113.959 1.93701 -0.551529 0
M  V30 1182 C 111.024 3.22811 -1.26468 0
M  V30 1183 C 110.085 3.51039 -2.47124 0
M  V30 1184 C 109.318 4.80245 -2.3281 0
M  V30 1185 O 109.541 5.54537 -1.33585 0
M  V30 1186 O 108.475 5.08554 -3.21957 0
M  V30 1187 H 112.301 1.8869 -2.3797 0
M  V30 1188 H 109.886 0.875837 -1.21035 0
M  V30 1189 H 111.768 4.03877 -1.20255 0
M  V30 1190 H 110.443 3.22005 -0.330862 0
M  V30 1191 H 109.35 2.70027 -2.58914 0
M  V30 1192 H 110.683 3.56632 -3.39227 0
M  V30 1193 N 112.336 1.25143 0.95797 0
M  V30 1194 C 113.561 1.12521 1.74223 0
M  V30 1195 C 113.986 -0.317402 1.85403 0
M  V30 1196 O 113.344 -1.2299 1.33204 0
M  V30 1197 C 113.392 1.78062 3.1357 0
M  V30 1198 O 112.496 1.058 3.98598 0
M  V30 1199 H 111.837 0.39304 0.535178 0
M  V30 1200 H 114.367 1.65641 1.201 0
M  V30 1201 H 114.377 1.84213 3.64046 0
M  V30 1202 H 113.052 2.83021 3.04749 0
M  V30 1203 H 111.629 1.07506 3.57067 0
M  V30 1204 N 113.814 -1.1601 1.06675 0
M  V30 1205 C 115.06 -1.87145 0.796766 0
M  V30 1206 C 115.415 -1.8037 -0.669658 0
M  V30 1207 O 114.708 -1.21116 -1.48463 0
M  V30 1208 C 114.902 -3.35547 1.23057 0
M  V30 1209 C 114.731 -3.56769 2.73762 0
M  V30 1210 C 113.501 -3.72635 3.41279 0
M  V30 1211 C 115.699 -3.55166 3.7197 0
M  V30 1212 N 113.681 -3.81845 4.80695 0
M  V30 1213 C 115.052 -3.70406 4.97191 0
M  V30 1214 C 117.107 -3.384 3.65226 0
M  V30 1215 C 115.81 -3.70615 6.16471 0
M  V30 1216 C 117.836 -3.39904 4.83962 0
M  V30 1217 C 117.198 -3.55667 6.08013 0
M  V30 1218 H 113.297 -0.702267 0.344014 0
M  V30 1219 H 115.881 -1.39165 1.36166 0
M  V30 1220 H 114.052 -3.82159 0.693456 0
M  V30 1221 H 115.784 -3.94363 0.908844 0
M  V30 1222 H 112.539 -3.73121 2.91681 0
M  V30 1223 H 112.963 -3.90209 5.53232 0
M  V30 1224 H 117.605 -3.25138 2.70269 0
M  V30 1225 H 115.323 -3.82658 7.11757 0
M  V30 1226 H 118.909 -3.28169 4.80413 0
M  V30 1227 H 117.789 -3.56755 6.98352 0
M  V30 1228 N 115.292 -0.849877 -1.32721 0
M  V30 1229 C 116.222 -0.306308 -2.31482 0
M  V30 1230 C 117.203 0.591952 -1.59468 0
M  V30 1231 O 118.388 0.513199 -1.87296 0
M  V30 1232 C 115.518 0.510204 -3.43532 0
M  V30 1233 C 114.472 -0.293209 -4.26994 0
M  V30 1234 C 113.798 0.647743 -5.30762 0
M  V30 1235 C 115.098 -1.51634 -4.99804 0
M  V30 1236 H 116.792 -1.13153 -2.77195 0
M  V30 1237 H 114.338 -0.545553 -1.33266 0
M  V30 1238 H 116.291 0.900856 -4.11658 0
M  V30 1239 H 115.015 1.36874 -2.96535 0
M  V30 1240 H 113.674 -0.665555 -3.60508 0
M  V30 1241 H 113.322 1.50299 -4.8002 0
M  V30 1242 H 113.022 0.11422 -5.87489 0
M  V30 1243 H 114.546 1.03567 -6.01753 0
M  V30 1244 H 115.96 -1.19824 -5.60638 0
M  V30 1245 H 114.357 -1.98745 -5.66234 0
M  V30 1246 H 115.427 -2.28018 -4.27943 0
M  V30 1247 N 116.77 1.45427 -0.607355 0
M  V30 1248 C 117.7 2.3329 0.0989352 0
M  V30 1249 C 118.681 1.46816 0.859007 0
M  V30 1250 O 119.866 1.75588 0.829604 0
M  V30 1251 C 116.996 3.29518 1.09705 0
M  V30 1252 C 115.95 4.25626 0.450206 0
M  V30 1253 C 115.276 5.11542 1.55655 0
M  V30 1254 C 116.576 5.18505 -0.628455 0
M  V30 1255 H 118.27 2.92595 -0.634716 0
M  V30 1256 H 115.816 1.40696 -0.306681 0
M  V30 1257 H 117.769 3.89855 1.59971 0
M  V30 1258 H 116.493 2.68372 1.86129 0
M  V30 1259 H 115.152 3.66586 -0.0315886 0
M  V30 1260 H 114.8 4.46765 2.31107 0
M  V30 1261 H 114.5 5.76647 1.12925 0
M  V30 1262 H 116.024 5.74748 2.06148 0
M  V30 1263 H 117.438 5.72916 -0.209877 0
M  V30 1264 H 115.835 5.92085 -0.977489 0
M  V30 1265 H 116.905 4.60948 -1.50514 0
M  V30 1266 N 118.248 0.346503 1.53744 0
M  V30 1267 C 119.659 -0.136779 1.86198 0
M  V30 1268 C 120.01 -1.49749 1.26766 0
M  V30 1269 O 119.135 -2.08417 0.582355 0
M  V30 1270 C 119.73 -0.254966 3.37839 0
M  V30 1271 C 118.289 -0.682482 3.70161 0
M  V30 1272 C 117.436 0.181981 2.76702 0
M  V30 1273 H 120.387 0.565994 1.48264 0
M  V30 1274 H 120.408 -1.08195 3.64793 0
M  V30 1275 H 119.92 0.735526 3.81066 0
M  V30 1276 H 118.021 -1.68189 3.3248 0
M  V30 1277 H 118.134 -0.470326 4.76786 0
M  V30 1278 H 116.498 -0.34615 2.52337 0
M  V30 1279 H 117.281 1.16966 3.2276 0
M  V30 1280 N 119.726 -1.57421 0.075193 0
M  V30 1281 C 120.974 -1.93236 -0.591974 0
M  V30 1282 C 121.295 -0.956241 -1.69944 0
M  V30 1283 O 120.565 -0.00494792 -1.95899 0
M  V30 1284 H 119.145 -0.713355 -0.22166 0
M  V30 1285 H 121.807 -1.9444 0.133848 0
M  V30 1286 H 120.903 -2.95131 -1.01509 0
M  V30 1287 N 121.204 0.198386 -1.56346 0
M  V30 1288 C 122.429 0.939682 -1.84891 0
M  V30 1289 C 122.854 1.76202 -0.658369 0
M  V30 1290 O 122.212 1.76993 0.392851 0
M  V30 1291 C 122.26 1.81428 -3.11635 0
M  V30 1292 O 121.364 2.91265 -2.91956 0
M  V30 1293 H 120.705 0.264807 -0.608912 0
M  V30 1294 H 123.235 0.204695 -2.03573 0
M  V30 1295 H 123.245 2.21958 -3.42343 0
M  V30 1296 H 121.92 1.21004 -3.97908 0
M  V30 1297 H 120.497 2.54514 -2.72538 0
M  V30 1298 N 122.682 1.50554 0.465978 0
M  V30 1299 C 123.63 1.70324 1.58406 0
M  V30 1300 C 124.624 0.569139 1.59553 0
M  V30 1301 O 125.83 0.749776 1.63641 0
M  V30 1302 H 122.205 0.537688 0.525734 0
M  V30 1303 H 124.176 2.64104 1.38894 0
M  V30 1304 C 122.925 1.81928 2.96307 0
M  V30 1305 H 122.248 2.68586 2.96144 0
M  V30 1306 H 123.688 1.99784 3.73982 0
M  V30 1307 C 122.147 0.572095 3.32007 0
M  V30 1308 O 122.677 -0.286416 4.00678 0
M  V30 1309 N 120.883 0.424606 2.87481 0
M  V30 1310 H 120.43 1.12427 2.31771 0
M  V30 1311 H 120.388 -0.408697 3.11732 0
M  V30 1312 N 124.16 -0.719506 1.40217 0
M  V30 1313 C 125.437 -1.47221 1.28784 0
M  V30 1314 C 125.817 -2.10883 -0.0956067 0
M  V30 1315 O 125.165 -1.99833 -1.10811 0
M  V30 1316 C 125.375 -2.5111 2.42373 0
M  V30 1317 C 126.723 -3.17053 2.82423 0
M  V30 1318 O 127.747 -2.61429 2.41937 0
M  V30 1319 O 126.606 -4.17742 3.52355 0
M  V30 1320 H 123.7 -0.654491 0.50554 0
M  V30 1321 H 126.246 -0.752014 1.52128 0
M  V30 1322 H 125.018 -2.02556 3.34793 0
M  V30 1323 H 124.641 -3.3067 2.20778 0
M  V30 1324 N 125.638 -1.25649 -0.95132 0
M  V30 1325 C 126.568 -1.08808 -2.06599 0
M  V30 1326 C 127.549 0.00382547 -1.701 0
M  V30 1327 O 128.734 -0.166325 -1.93486 0
M  V30 1328 C 125.864 -0.709542 -3.39975 0
M  V30 1329 C 124.818 -1.75206 -3.90496 0
M  V30 1330 C 124.144 -1.22811 -5.20405 0
M  V30 1331 C 125.444 -3.15153 -4.16504 0
M  V30 1332 H 127.138 -2.02048 -2.20946 0
M  V30 1333 H 124.684 -0.972835 -1.06169 0
M  V30 1334 H 126.637 -0.578649 -4.17408 0
M  V30 1335 H 125.361 0.258556 -3.25575 0
M  V30 1336 H 124.02 -1.87145 -3.15234 0
M  V30 1337 H 123.668 -0.250145 -5.02378 0
M  V30 1338 H 123.368 -1.92492 -5.55176 0
M  V30 1339 H 124.892 -1.10968 -6.00432 0
M  V30 1340 H 126.306 -3.06349 -4.84586 0
M  V30 1341 H 124.703 -3.82333 -4.62538 0
M  V30 1342 H 125.773 -3.61966 -3.22658 0
M  V30 1343 N 127.117 1.15442 -1.07289 0
M  V30 1344 C 128.047 2.22312 -0.714107 0
M  V30 1345 C 129.028 1.67467 0.298155 0
M  V30 1346 O 130.213 1.93445 0.171048 0
M  V30 1347 C 127.343 3.47124 -0.110448 0
M  V30 1348 C 126.297 4.14926 -1.04979 0
M  V30 1349 C 125.623 5.33807 -0.308924 0
M  V30 1350 C 126.923 4.64762 -2.38314 0
M  V30 1351 H 128.617 2.5258 -1.6076 0
M  V30 1352 H 126.163 1.21404 -0.77441 0
M  V30 1353 H 128.116 4.21124 0.152482 0
M  V30 1354 H 126.84 3.16187 0.81812 0
M  V30 1355 H 125.499 3.42866 -1.29764 0
M  V30 1356 H 125.147 4.99126 0.623084 0
M  V30 1357 H 124.847 5.80113 -0.935036 0
M  V30 1358 H 126.371 6.10576 -0.0537771 0
M  V30 1359 H 127.785 5.30292 -2.1786 0
M  V30 1360 H 126.182 5.21728 -2.96514 0
M  V30 1361 H 127.252 3.80434 -3.00663 0
M  V30 1362 N 128.595 0.856903 1.32268 0
M  V30 1363 C 129.525 0.31858 2.31316 0
M  V30 1364 C 130.506 -0.583487 1.59779 0
M  V30 1365 O 131.691 -0.503259 1.87566 0
M  V30 1366 C 128.821 -0.491979 3.43798 0
M  V30 1367 C 127.775 0.315849 4.26833 0
M  V30 1368 C 127.101 -0.619586 5.31098 0
M  V30 1369 C 128.401 1.54282 4.98993 0
M  V30 1370 H 130.095 1.14621 2.76591 0
M  V30 1371 H 127.641 0.552613 1.32974 0
M  V30 1372 H 129.594 -0.879012 4.1213 0
M  V30 1373 H 128.318 -1.35299 2.97257 0
M  V30 1374 H 126.977 0.684664 3.6015 0
M  V30 1375 H 126.625 -1.47751 4.8081 0
M  V30 1376 H 126.325 -0.0830621 5.87541 0
M  V30 1377 H 127.849 -1.00375 6.02293 0
M  V30 1378 H 129.263 1.22796 5.59995 0
M  V30 1379 H 127.66 2.01745 5.65172 0
M  V30 1380 H 128.73 2.30285 4.26728 0
M  V30 1381 N 130.073 -1.45103 0.615059 0
M  V30 1382 C 130.983 -2.34382 -0.101034 0
M  V30 1383 C 131.999 -1.51681 -0.852585 0
M  V30 1384 O 133.175 -1.8446 -0.808484 0
M  V30 1385 C 130.24 -3.29417 -1.08099 0
M  V30 1386 C 129.301 -4.28025 -0.330577 0
M  V30 1387 C 128.534 -5.1852 -1.26385 0
M  V30 1388 O 128.757 -5.12598 -2.50198 0
M  V30 1389 O 127.691 -5.97122 -0.756866 0
M  V30 1390 H 131.517 -2.97033 0.632855 0
M  V30 1391 H 129.102 -1.4461 0.375293 0
M  V30 1392 H 130.984 -3.87958 -1.6452 0
M  V30 1393 H 129.659 -2.69321 -1.79577 0
M  V30 1394 H 128.566 -3.73078 0.276283 0
M  V30 1395 H 129.899 -4.90997 0.343866 0
M  V30 1396 N 131.551 -0.354651 -1.53558 0
M  V30 1397 C 132.797 0.238797 -2.01389 0
M  V30 1398 C 133.13 1.49309 -1.2418 0
M  V30 1399 O 132.405 1.91638 -0.332457 0
M  V30 1400 C 132.688 0.541771 -3.56001 0
M  V30 1401 C 132.541 -0.725388 -4.43912 0
M  V30 1402 C 133.86 1.34685 -4.18984 0
M  V30 1403 H 130.979 0.0853177 -0.732045 0
M  V30 1404 H 133.621 -0.477384 -1.83905 0
M  V30 1405 H 131.771 1.15189 -3.71031 0
M  V30 1406 H 133.443 -1.36313 -4.407 0
M  V30 1407 H 131.686 -1.34801 -4.12324 0
M  V30 1408 H 132.357 -0.468505 -5.50008 0
M  V30 1409 H 134.833 0.830837 -4.07721 0
M  V30 1410 H 133.709 1.52759 -5.27215 0
M  V30 1411 H 133.97 2.35221 -3.74331 0
M  V30 1412 N 133.029 1.57378 -0.0835403 0
M  V30 1413 C 134.277 1.93547 0.581718 0
M  V30 1414 C 134.598 0.96524 1.69435 0
M  V30 1415 O 133.868 0.0153369 1.95894 0
M  V30 1416 H 132.448 0.714521 0.217874 0
M  V30 1417 H 135.11 1.94366 -0.144158 0
M  V30 1418 H 134.206 2.95665 0.999423 0
M  V30 1419 N 134.507 -0.190092 1.56449 0
M  V30 1420 C 135.918 -0.754312 1.70784 0
M  V30 1421 C 136.269 -1.83631 0.690951 0
M  V30 1422 O 135.394 -2.15868 -0.151604 0
M  V30 1423 C 135.989 -1.37503 3.09642 0
M  V30 1424 C 134.548 -1.88628 3.25725 0
M  V30 1425 C 133.695 -0.758098 2.66736 0
M  V30 1426 H 136.646 0.0350524 1.58661 0
M  V30 1427 H 136.667 -2.2445 3.0725 0
M  V30 1428 H 136.179 -0.587302 3.83631 0
M  V30 1429 H 134.28 -2.70103 2.56661 0
M  V30 1430 H 134.393 -2.04462 4.3328 0
M  V30 1431 H 132.757 -1.17369 2.26046 0
M  V30 1432 H 133.54 0.0174705 3.43296 0
M  V30 1433 N 135.985 -1.50799 -0.457987 0
M  V30 1434 C 137.401 -1.38515 -0.792819 0
M  V30 1435 C 137.601 -0.451409 -1.96379 0
M  V30 1436 O 136.657 0.10112 -2.52297 0
M  V30 1437 C 137.97 -2.80149 -1.09258 0
M  V30 1438 C 139.518 -2.89156 -1.19825 0
M  V30 1439 C 139.993 -4.31651 -1.53106 0
M  V30 1440 N 141.484 -4.34662 -1.60072 0
M  V30 1441 C 142.219 -5.41928 -1.87354 0
M  V30 1442 N 141.715 -6.59384 -2.12568 0
M  V30 1443 N 143.508 -5.29385 -1.88965 0
M  V30 1444 H 135.659 -2.10073 0.313511 0
M  V30 1445 H 137.922 -0.944803 0.0777862 0
M  V30 1446 H 137.628 -3.50374 -0.305084 0
M  V30 1447 H 137.502 -3.18204 -2.02549 0
M  V30 1448 H 139.889 -2.19141 -1.97639 0
M  V30 1449 H 139.97 -2.54626 -0.244821 0
M  V30 1450 H 139.614 -5.02208 -0.758266 0
M  V30 1451 H 139.544 -4.63678 -2.49621 0
M  V30 1452 H 142.035 -3.49973 -1.42573 0
M  V30 1453 H 142.348 -7.36934 -2.32696 0
M  V30 1454 H 140.693 -6.62535 -2.09933 0
M  V30 1455 H 143.884 -4.36616 -1.68772 0
M  V30 1456 H 144.057 -6.13066 -2.09891 0
M  V30 1457 N 137.463 0.71206 -1.40597 0
M  V30 1458 C 138.393 1.83889 -1.43899 0
M  V30 1459 C 139.374 1.67442 -0.299504 0
M  V30 1460 O 140.559 1.87421 -0.508624 0
M  V30 1461 C 137.689 3.21877 -1.30431 0
M  V30 1462 C 136.643 3.53002 -2.42019 0
M  V30 1463 C 135.969 4.90172 -2.13626 0
M  V30 1464 C 137.269 3.53643 -3.84362 0
M  V30 1465 H 138.963 1.81383 -2.38203 0
M  V30 1466 H 136.509 0.871237 -1.14654 0
M  V30 1467 H 138.462 4.00404 -1.31357 0
M  V30 1468 H 137.186 3.24968 -0.326049 0
M  V30 1469 H 135.845 2.76818 -2.40349 0
M  V30 1470 H 135.493 4.89869 -1.14182 0
M  V30 1471 H 135.193 5.11962 -2.88389 0
M  V30 1472 H 136.717 5.71028 -2.1624 0
M  V30 1473 H 138.131 4.22203 -3.87837 0
M  V30 1474 H 136.528 3.86961 -4.58673 0
M  V30 1475 H 137.598 2.52954 -4.13693 0
M  V30 1476 N 138.941 1.26152 0.944643 0
M  V30 1477 C 139.889 1.07215 2.06417 0
M  V30 1478 C 140.883 9.2007e-05 1.694 0
M  V30 1479 O 142.089 0.1565 1.79318 0
M  V30 1480 H 138.464 0.329837 0.675805 0
M  V30 1481 H 140.435 2.02099 2.19541 0
M  V30 1482 C 139.184 0.718197 3.40202 0
M  V30 1483 H 138.507 1.53497 3.69159 0
M  V30 1484 H 139.947 0.625459 4.19361 0
M  V30 1485 C 138.406 -0.576435 3.31932 0
M  V30 1486 O 138.936 -1.61574 3.67773 0
M  V30 1487 N 137.142 -0.565781 2.85039 0
M  V30 1488 H 136.689 0.280367 2.5607 0
M  V30 1489 H 136.647 -1.43213 2.79888 0
M  V30 1490 N 140.419 -1.14872 1.07899 0
M  V30 1491 C 141.666 -1.85789 0.805532 0
M  V30 1492 C 141.994 -1.82649 -0.668561 0
M  V30 1493 O 141.249 -1.24858 -1.50695 0
M  V30 1494 C 141.548 -3.34223 1.26609 0
M  V30 1495 C 141.214 -3.57555 2.74709 0
M  V30 1496 C 139.876 -3.63631 3.1516 0
M  V30 1497 C 142.228 -3.66803 3.70277 0
M  V30 1498 C 139.556 -3.76473 4.49983 0
M  V30 1499 C 141.908 -3.8117 5.04869 0
M  V30 1500 C 140.572 -3.85494 5.44932 0
M  V30 1501 H 139.842 -0.679849 0.294765 0
M  V30 1502 H 142.489 -1.3572 1.35101 0
M  V30 1503 H 140.794 -3.86536 0.640103 0
M  V30 1504 H 142.491 -3.87511 1.03132 0
M  V30 1505 H 139.081 -3.5347 2.42398 0
M  V30 1506 H 143.265 -3.61404 3.40149 0
M  V30 1507 H 138.521 -3.7808 4.80484 0
M  V30 1508 H 142.695 -3.87268 5.78789 0
M  V30 1509 H 140.322 -3.95197 6.49403 0
M  V30 1510 N 141.898 -0.863906 -1.31812 0
M  V30 1511 C 143.123 -0.48527 -2.01643 0
M  V30 1512 C 143.548 0.913058 -1.64453 0
M  V30 1513 O 142.906 1.6014 -0.849985 0
M  V30 1514 C 142.954 -0.642625 -3.54828 0
M  V30 1515 O 142.058 0.320659 -4.11151 0
M  V30 1516 H 141.399 -0.193793 -0.635091 0
M  V30 1517 H 143.929 -1.16565 -1.68148 0
M  V30 1518 H 143.939 -0.533628 -4.04495 0
M  V30 1519 H 142.614 -1.66227 -3.81237 0
M  V30 1520 H 141.191 0.167126 -3.72525 0
M  V30 1521 N 143.376 1.44774 -0.622745 0
M  V30 1522 C 144.604 2.06487 -0.130722 0
M  V30 1523 C 145.019 1.46476 1.19123 0
M  V30 1524 O 144.376 0.584502 1.72887 0
M  V30 1525 C 144.427 3.615 -0.000807207 0
M  V30 1526 O 144.148 4.19274 -1.27048 0
M  V30 1527 C 145.649 4.40229 0.520898 0
M  V30 1528 H 142.869 0.666704 -0.0758106 0
M  V30 1529 H 145.413 1.85779 -0.854774 0
M  V30 1530 H 143.568 3.81498 0.673643 0
M  V30 1531 H 143.982 5.12622 -1.1099 0
M  V30 1532 H 145.456 5.49144 0.560838 0
M  V30 1533 H 145.933 4.1108 1.54627 0
M  V30 1534 H 146.539 4.25131 -0.120018 0
M  V30 1535 N 144.854 0.36279 1.53368 0
M  V30 1536 C 146.265 -0.117022 1.86333 0
M  V30 1537 C 146.616 -1.48397 1.28347 0
M  V30 1538 O 145.741 -2.07787 0.604428 0
M  V30 1539 C 146.336 -0.21912 3.38091 0
M  V30 1540 C 144.895 -0.643184 3.70864 0
M  V30 1541 C 144.042 0.211318 2.76494 0
M  V30 1542 H 146.993 0.581687 1.47655 0
M  V30 1543 H 147.014 -1.04319 3.6592 0
M  V30 1544 H 146.526 0.775902 3.80265 0
M  V30 1545 H 144.627 -1.64654 3.34245 0
M  V30 1546 H 144.74 -0.41973 4.77258 0
M  V30 1547 H 143.104 -0.319367 2.5269 0
M  V30 1548 H 143.887 1.20383 3.21501 0
M  V30 1549 N 146.332 -1.57332 0.0918853 0
M  V30 1550 C 147.56 -1.98574 -0.581048 0
M  V30 1551 C 147.975 -0.970903 -1.61923 0
M  V30 1552 O 147.332 0.0399054 -1.82456 0
M  V30 1553 C 147.383 -3.39872 -1.23164 0
M  V30 1554 O 147.104 -4.37469 -0.234989 0
M  V30 1555 C 148.605 -3.96099 -1.99049 0
M  V30 1556 H 145.825 -0.65261 -0.156018 0
M  V30 1557 H 148.369 -2.0379 0.170225 0
M  V30 1558 H 146.524 -3.35679 -1.93386 0
M  V30 1559 H 146.938 -5.19751 -0.70418 0
M  V30 1560 H 148.412 -4.97127 -2.39934 0
M  V30 1561 H 148.889 -3.3374 -2.85507 0
M  V30 1562 H 149.495 -4.03755 -1.3365 0
M  V30 1563 N 147.81 0.181792 -1.56548 0
M  V30 1564 C 149.035 0.920019 -1.85877 0
M  V30 1565 C 149.46 1.75494 -0.677021 0
M  V30 1566 O 148.818 1.77399 0.374056 0
M  V30 1567 C 148.866 1.78112 -3.13542 0
M  V30 1568 O 147.97 2.88152 -2.95029 0
M  V30 1569 H 147.311 0.258334 -0.611686 0
M  V30 1570 H 149.841 0.183092 -2.03779 0
M  V30 1571 H 149.851 2.18314 -3.44678 0
M  V30 1572 H 148.526 1.16777 -3.99169 0
M  V30 1573 H 147.103 2.51609 -2.75222 0
M  V30 1574 N 149.288 1.51039 0.449983 0
M  V30 1575 C 150.516 1.66869 1.2232 0
M  V30 1576 C 150.931 0.360727 1.85322 0
M  V30 1577 O 150.288 -0.659531 1.70166 0
M  V30 1578 C 150.339 2.77524 2.31652 0
M  V30 1579 O 150.06 4.03252 1.7123 0
M  V30 1580 C 151.561 3.04512 3.2216 0
M  V30 1581 H 148.781 0.560326 0.369155 0
M  V30 1582 H 151.325 1.97385 0.534719 0
M  V30 1583 H 149.48 2.49642 2.96239 0
M  V30 1584 H 149.894 4.64609 2.43389 0
M  V30 1585 H 151.368 3.85551 3.95038 0
M  V30 1586 H 151.845 2.16415 3.8218 0
M  V30 1587 H 152.451 3.34005 2.63288 0
M  V30 1588 N 150.766 -0.704594 1.40972 0
M  V30 1589 C 151.714 -1.83994 1.42299 0
M  V30 1590 C 152.708 -1.66684 0.302111 0
M  V30 1591 O 153.914 -1.73655 0.473697 0
M  V30 1592 H 150.289 -0.606171 0.44504 0
M  V30 1593 H 152.26 -1.79992 2.38003 0
M  V30 1594 C 151.009 -3.21946 1.31323 0
M  V30 1595 H 150.332 -3.35878 2.16855 0
M  V30 1596 H 151.772 -4.01491 1.36311 0
M  V30 1597 C 150.231 -3.36891 0.0245977 0
M  V30 1598 O 150.761 -3.90687 -0.934153 0
M  V30 1599 N 148.967 -2.90559 -0.0485243 0
M  V30 1600 H 148.514 -2.46968 0.732419 0
M  V30 1601 H 148.472 -3.00937 -0.910171 0
M  V30 1602 N 152.244 -1.26651 -0.937939 0
M  V30 1603 C 153.493 -1.11775 -1.67897 0
M  V30 1604 C 153.806 0.33794 -1.92659 0
M  V30 1605 O 155.012 0.607434 -2.64618 0
M  V30 1606 C 153.468 -1.9523 -3.02346 0
M  V30 1607 C 153.076 -3.45393 -2.8532 0
M  V30 1608 C 154.82 -1.88972 -3.80118 0
M  V30 1609 C 152.727 -4.21083 -4.15263 0
M  V30 1610 H 151.657 -0.414696 -0.629717 0
M  V30 1611 H 154.308 -1.50988 -1.04283 0
M  V30 1612 H 152.69 -1.48853 -3.66959 0
M  V30 1613 H 153.864 -3.99561 -2.29537 0
M  V30 1614 H 152.179 -3.52921 -2.20988 0
M  V30 1615 H 154.776 -2.42805 -4.76392 0
M  V30 1616 H 155.119 -0.86113 -4.07296 0
M  V30 1617 H 155.652 -2.33189 -3.22285 0
M  V30 1618 H 152.391 -5.24425 -3.93267 0
M  V30 1619 H 151.911 -3.71695 -4.70747 0
M  V30 1620 H 153.59 -4.29706 -4.83696 0
M  V30 1621 N 153.722 1.14298 -1.08507 0
M  V30 1622 C 154.968 1.85633 -0.816581 0
M  V30 1623 C 155.301 1.82784 0.656021 0
M  V30 1624 O 154.576 1.25926 1.48233 0
M  V30 1625 C 154.859 3.34223 -1.34041 0
M  V30 1626 C 154.712 3.45639 -2.87843 0
M  V30 1627 C 156.031 4.29356 -0.9665 0
M  V30 1628 H 153.15 0.67402 -0.298104 0
M  V30 1629 H 155.792 1.34214 -1.34487 0
M  V30 1630 H 153.942 3.78144 -0.89104 0
M  V30 1631 H 155.614 3.10498 -3.41158 0
M  V30 1632 H 153.857 2.86817 -3.25451 0
M  V30 1633 H 154.528 4.50089 -3.19569 0
M  V30 1634 H 157.004 3.93457 -1.35391 0
M  V30 1635 H 155.88 5.3178 -1.3602 0
M  V30 1636 H 156.141 4.41919 0.126362 0
M  V30 1637 N 155.201 0.870884 1.31352 0
M  V30 1638 C 156.426 0.495957 2.01383 0
M  V30 1639 C 156.851 -0.904324 1.64935 0
M  V30 1640 O 156.209 -1.59687 0.858466 0
M  V30 1641 C 156.257 0.661433 3.54482 0
M  V30 1642 O 155.361 -0.298851 4.11316 0
M  V30 1643 H 154.702 0.197158 0.634054 0
M  V30 1644 H 157.232 1.17455 1.67527 0
M  V30 1645 H 157.242 0.555072 4.04207 0
M  V30 1646 H 155.917 1.68246 3.8035 0
M  V30 1647 H 154.494 -0.147368 3.72609 0
M  V30 1648 N 156.679 -1.44442 0.630414 0
M  V30 1649 C 157.925 -2.02351 0.134816 0
M  V30 1650 C 158.258 -1.4947 -1.23986 0
M  V30 1651 O 157.533 -0.678475 -1.82283 0
M  V30 1652 C 157.816 -3.59898 0.120707 0
M  V30 1653 C 157.669 -4.23063 1.52767 0
M  V30 1654 C 158.988 -4.36585 -0.555127 0
M  V30 1655 H 156.107 -0.73527 0.0504646 0
M  V30 1656 H 158.749 -1.72022 0.806751 0
M  V30 1657 H 156.899 -3.85868 -0.451477 0
M  V30 1658 H 158.571 -4.08202 2.14869 0
M  V30 1659 H 156.814 -3.80586 2.08175 0
M  V30 1660 H 157.485 -5.32071 1.46984 0
M  V30 1661 H 159.961 -4.16044 -0.0685429 0
M  V30 1662 H 158.837 -5.46294 -0.534185 0
M  V30 1663 H 159.098 -4.11138 -1.62535 0
M  V30 1664 N 158.157 -0.370918 -1.53173 0
M  V30 1665 C 159.397 0.217106 -2.03244 0
M  V30 1666 C 159.761 1.45558 -1.25207 0
M  V30 1667 O 160.962 2.11957 -1.65311 0
M  V30 1668 C 159.233 0.496664 -3.53932 0
M  V30 1669 S 160.792 1.0576 -4.25864 0
M  V30 1670 H 157.61 0.0627827 -0.708223 0
M  V30 1671 H 160.212 -0.515019 -1.88594 0
M  V30 1672 H 158.916 -0.412096 -4.08326 0
M  V30 1673 H 158.447 1.25772 -3.72753 0
M  V30 1674 H 160.462 2.34145 -4.37482 0
M  V30 1675 N 159.635 1.57281 -0.100228 0
M  V30 1676 C 161.051 1.57527 0.256416 0
M  V30 1677 C 161.251 1.11173 1.68056 0
M  V30 1678 O 160.307 0.79053 2.39806 0
M  V30 1679 C 161.62 3.00673 0.0401747 0
M  V30 1680 C 163.168 3.12815 0.107528 0
M  V30 1681 C 163.643 4.57929 -0.0807834 0
M  V30 1682 N 165.134 4.63193 -0.0261207 0
M  V30 1683 C 165.869 5.73212 -0.146999 0
M  V30 1684 N 165.365 6.92047 -0.322999 0
M  V30 1685 N 167.158 5.62031 -0.0879044 0
M  V30 1686 H 159.309 1.85718 -1.03065 0
M  V30 1687 H 161.572 0.857446 -0.404339 0
M  V30 1688 H 161.278 3.38804 -0.943649 0
M  V30 1689 H 161.152 3.69042 0.780262 0
M  V30 1690 H 163.539 2.74554 1.08186 0
M  V30 1691 H 163.62 2.47028 -0.664134 0
M  V30 1692 H 163.264 4.96886 -1.05201 0
M  V30 1693 H 163.194 5.21783 0.710635 0
M  V30 1694 H 165.685 3.77748 0.107161 0
M  V30 1695 H 165.998 7.7173 -0.406608 0
M  V30 1696 H 164.343 6.94074 -0.358733 0
M  V30 1697 H 167.534 4.68075 0.048498 0
M  V30 1698 H 167.707 6.47734 -0.185557 0
M  V30 1699 N 161.113 -0.173488 1.56642 0
M  V30 1700 C 162.076 -1.19859 1.95362 0
M  V30 1701 C 163.076 -1.37296 0.83704 0
M  V30 1702 O 164.266 -1.34739 1.10413 0
M  V30 1703 C 161.398 -2.56405 2.24654 0
M  V30 1704 H 162.591 -0.867062 2.87092 0
M  V30 1705 H 160.144 -0.415853 1.50666 0
M  V30 1706 H 160.879 -2.94576 1.35631 0
M  V30 1707 H 160.664 -2.45115 3.06041 0
M  V30 1708 H 162.154 -3.30287 2.5554 0
M  V30 1709 N 162.591 -1.51276 -0.441967 0
M  V30 1710 C 163.819 -1.67516 -1.21434 0
M  V30 1711 C 164.234 -0.37055 -1.85128 0
M  V30 1712 O 163.591 0.650498 -1.70513 0
M  V30 1713 C 163.642 -2.78748 -2.30177 0
M  V30 1714 O 163.363 -4.04154 -1.69089 0
M  V30 1715 C 164.864 -3.06217 -3.20541 0
M  V30 1716 H 162.084 -0.562276 -0.366178 0
M  V30 1717 H 164.628 -1.97666 -0.524244 0
M  V30 1718 H 162.783 -2.5121 -2.94911 0
M  V30 1719 H 163.197 -4.65894 -2.40922 0
M  V30 1720 H 164.671 -3.8764 -3.92987 0
M  V30 1721 H 165.148 -2.18439 -3.81026 0
M  V30 1722 H 165.754 -3.35397 -2.61513 0
M  V30 1723 N 164.069 0.697108 -1.41344 0
M  V30 1724 C 165.317 1.45426 -1.40341 0
M  V30 1725 C 165.638 1.94996 -0.0128787 0
M  V30 1726 O 164.908 1.71599 0.945027 0
M  V30 1727 H 163.488 0.539594 -0.516573 0
M  V30 1728 H 166.15 0.825201 -1.76569 0
M  V30 1729 H 165.246 2.31817 -2.08967 0
M  V30 1730 N 165.547 1.27147 0.931209 0
M  V30 1731 C 166.477 1.12081 2.04842 0
M  V30 1732 C 167.458 0.0232364 1.70084 0
M  V30 1733 O 168.643 0.197085 1.93197 0
M  V30 1734 C 165.773 0.76354 3.38803 0
M  V30 1735 C 164.727 1.81396 3.87659 0
M  V30 1736 C 164.053 1.31075 5.18385 0
M  V30 1737 C 165.353 3.21739 4.11438 0
M  V30 1738 H 167.047 2.05537 2.17703 0
M  V30 1739 H 164.593 0.989603 1.04608 0
M  V30 1740 H 166.546 0.644982 4.16435 0
M  V30 1741 H 165.27 -0.206727 3.25945 0
M  V30 1742 H 163.929 1.92136 3.12217 0
M  V30 1743 H 163.577 0.330037 5.01916 0
M  V30 1744 H 163.277 2.013 5.52044 0
M  V30 1745 H 164.801 1.20506 5.98591 0
M  V30 1746 H 166.215 3.14019 4.79651 0
M  V30 1747 H 164.612 3.89644 4.56397 0
M  V30 1748 H 165.682 3.67054 3.16859 0
M  V30 1749 N 167.025 -1.13721 1.09112 0
M  V30 1750 C 168.273 -1.84559 0.823562 0
M  V30 1751 C 168.594 -1.83754 -0.652658 0
M  V30 1752 O 167.864 -1.29102 -1.47342 0
M  V30 1753 H 166.444 -0.683376 0.301673 0
M  V30 1754 H 169.106 -1.37771 1.37859 0
M  V30 1755 H 168.202 -2.8917 1.17419 0
M  V30 1756 N 168.503 -0.877838 -1.30888 0
M  V30 1757 C 169.914 -0.544193 -1.78593 0
M  V30 1758 C 170.265 0.939301 -1.72254 0
M  V30 1759 O 169.39 1.7337 -1.29505 0
M  V30 1760 C 169.985 -0.98105 -3.24285 0
M  V30 1761 C 168.544 -0.698935 -3.69854 0
M  V30 1762 C 167.691 -1.168 -2.51502 0
M  V30 1763 H 170.642 -1.06278 -1.17859 0
M  V30 1764 H 170.663 -0.307009 -3.79259 0
M  V30 1765 H 170.175 -2.06079 -3.28866 0
M  V30 1766 H 168.276 0.369112 -3.70767 0
M  V30 1767 H 168.389 -1.28148 -4.61644 0
M  V30 1768 H 166.753 -0.587535 -2.47831 0
M  V30 1769 H 167.536 -2.25533 -2.58824 0
M  V30 1770 N 169.982 1.44106 -0.638065 0
M  V30 1771 C 171.228 2.02277 -0.145546 0
M  V30 1772 C 171.561 1.50125 1.23191 0
M  V30 1773 O 170.836 0.688133 1.8192 0
M  V30 1774 C 171.119 3.59829 -0.139791 0
M  V30 1775 C 170.972 4.22247 -1.55008 0
M  V30 1776 C 172.291 4.36873 0.531966 0
M  V30 1777 H 169.41 0.734992 -0.0543632 0
M  V30 1778 H 172.052 1.71592 -0.815863 0
M  V30 1779 H 170.202 3.86102 0.431007 0
M  V30 1780 H 171.874 4.07057 -2.1703 0
M  V30 1781 H 170.117 3.79476 -2.10191 0
M  V30 1782 H 170.788 5.31284 -1.49804 0
M  V30 1783 H 173.264 4.16074 0.0464781 0
M  V30 1784 H 172.14 5.4657 0.505206 0
M  V30 1785 H 172.401 4.11995 1.60352 0
M  V30 1786 N 171.46 0.379036 1.52974 0
M  V30 1787 C 172.737 -0.263479 1.93817 0
M  V30 1788 C 173.117 -1.65244 1.31368 0
M  V30 1789 O 172.465 -2.23448 0.477856 0
M  V30 1790 C 172.675 -0.300166 3.47707 0
M  V30 1791 C 174.023 -0.534061 4.21228 0
M  V30 1792 O 175.047 -0.38081 3.54159 0
M  V30 1793 O 173.906 -0.833501 5.40106 0
M  V30 1794 H 171 -0.161149 0.811147 0
M  V30 1795 H 173.546 0.432798 1.64088 0
M  V30 1796 H 172.318 0.673138 3.85467 0
M  V30 1797 H 171.941 -1.04179 3.83709 0
M  V30 1798 N 172.938 -1.57226 0.108567 0
M  V30 1799 C 174.354 -1.5766 -0.248058 0
M  V30 1800 C 174.554 -1.12063 -1.67464 0
M  V30 1801 O 173.61 -0.803236 -2.39383 0
M  V30 1802 C 174.923 -3.0069 -0.0242287 0
M  V30 1803 C 176.471 -3.12868 -0.0909372 0
M  V30 1804 C 176.946 -4.57879 0.105067 0
M  V30 1805 N 178.437 -4.63172 0.0506846 0
M  V30 1806 C 179.172 -5.73126 0.177396 0
M  V30 1807 N 178.668 -6.91866 0.359696 0
M  V30 1808 N 180.461 -5.61977 0.117709 0
M  V30 1809 H 172.612 -1.85169 1.04049 0
M  V30 1810 H 174.875 -0.85529 0.40888 0
M  V30 1811 H 174.581 -3.38299 0.961604 0
M  V30 1812 H 174.455 -3.6945 -0.76068 0
M  V30 1813 H 176.842 -2.75124 -1.06729 0
M  V30 1814 H 176.923 -2.46672 0.677225 0
M  V30 1815 H 176.567 -4.96321 1.07834 0
M  V30 1816 H 176.497 -5.22153 -0.682954 0
M  V30 1817 H 178.988 -3.778 -0.0871266 0
M  V30 1818 H 179.301 -7.71503 0.447529 0
M  V30 1819 H 177.646 -6.93874 0.395536 0
M  V30 1820 H 180.837 -4.68094 -0.0236741 0
M  V30 1821 H 181.01 -6.47627 0.219905 0
M  V30 1822 N 174.416 0.165178 -1.56732 0
M  V30 1823 C 175.662 0.882112 -1.82611 0
M  V30 1824 C 175.995 1.81628 -0.687378 0
M  V30 1825 O 175.27 1.92009 0.310267 0
M  V30 1826 C 175.553 1.67245 -3.18906 0
M  V30 1827 C 175.406 0.760987 -4.43316 0
M  V30 1828 C 176.725 2.63884 -3.52212 0
M  V30 1829 H 173.844 0.319242 -0.664269 0
M  V30 1830 H 176.486 0.148052 -1.89422 0
M  V30 1831 H 174.636 2.29824 -3.1323 0
M  V30 1832 H 176.308 0.147596 -4.61064 0
M  V30 1833 H 174.551 0.0694102 -4.33744 0
M  V30 1834 H 175.222 1.34962 -5.35247 0
M  V30 1835 H 177.698 2.11429 -3.58381 0
M  V30 1836 H 176.574 3.16245 -4.48643 0
M  V30 1837 H 176.835 3.44377 -2.77231 0
M  V30 1838 N 175.894 1.51508 0.433938 0
M  V30 1839 C 176.804 1.75917 1.5521 0
M  V30 1840 C 177.82 0.643545 1.61662 0
M  V30 1841 O 178.996 0.926183 1.7884 0
M  V30 1842 C 176.061 1.88213 2.91164 0
M  V30 1843 C 175.122 3.12074 2.94802 0
M  V30 1844 C 174.355 3.23774 4.24271 0
M  V30 1845 O 174.578 2.4133 5.16833 0
M  V30 1846 O 173.512 4.16774 4.34262 0
M  V30 1847 H 177.338 2.70777 1.37527 0
M  V30 1848 H 174.923 1.36051 0.617293 0
M  V30 1849 H 176.805 1.98267 3.71845 0
M  V30 1850 H 175.48 0.965413 3.08968 0
M  V30 1851 H 174.387 3.07497 2.13065 0
M  V30 1852 H 175.72 4.03446 2.81943 0
M  V30 1853 N 177.372 -0.689602 1.41712 0
M  V30 1854 C 178.6 -1.47827 1.44758 0
M  V30 1855 C 179.015 -1.88721 0.0545703 0
M  V30 1856 O 178.372 -1.57176 -0.927463 0
M  V30 1857 C 178.423 -2.73698 2.3616 0
M  V30 1858 O 178.144 -2.34524 3.7004 0
M  V30 1859 C 179.645 -3.67389 2.48072 0
M  V30 1860 H 176.865 -0.455357 0.49284 0
M  V30 1861 H 179.409 -0.848574 1.86063 0
M  V30 1862 H 177.564 -3.32891 1.98148 0
M  V30 1863 H 177.978 -3.15701 4.18847 0
M  V30 1864 H 179.452 -4.52475 3.16181 0
M  V30 1865 H 179.929 -4.12284 1.51388 0
M  V30 1866 H 180.535 -3.14097 2.86746 0
M  V30 1867 N 178.85 -1.27639 -0.924453 0
M  V30 1868 C 180.078 -1.16989 -1.70649 0
M  V30 1869 C 180.493 0.272869 -1.86818 0
M  V30 1870 O 179.85 1.18549 -1.38753 0
M  V30 1871 C 179.901 -1.85229 -3.10439 0
M  V30 1872 O 179.622 -3.23868 -2.95028 0
M  V30 1873 C 181.123 -1.80746 -4.04779 0
M  V30 1874 H 178.343 -0.406595 -0.53378 0
M  V30 1875 H 180.887 -1.68569 -1.15778 0
M  V30 1876 H 179.042 -1.37545 -3.6216 0
M  V30 1877 H 179.456 -3.57889 -3.83426 0
M  V30 1878 H 180.93 -2.33101 -5.00368 0
M  V30 1879 H 181.407 -0.777499 -4.32263 0
M  V30 1880 H 182.013 -2.28059 -3.58984 0
M  V30 1881 N 180.328 1.1314 -1.09713 0
M  V30 1882 C 181.744 1.36477 -0.827423 0
M  V30 1883 C 181.944 1.93654 0.556817 0
M  V30 1884 O 181 2.15791 1.31112 0
M  V30 1885 C 182.313 2.31334 -1.92106 0
M  V30 1886 C 183.861 2.44943 -1.94864 0
M  V30 1887 C 184.336 3.4311 -3.0338 0
M  V30 1888 N 185.827 3.50662 -3.02639 0
M  V30 1889 C 186.562 4.2651 -3.83246 0
M  V30 1890 N 186.058 5.05485 -4.73768 0
M  V30 1891 N 187.851 4.2184 -3.71493 0
M  V30 1892 H 180.002 0.743807 -1.9895 0
M  V30 1893 H 182.265 0.389823 -0.864143 0
M  V30 1894 H 181.971 1.96483 -2.91698 0
M  V30 1895 H 181.845 3.31381 -1.80184 0
M  V30 1896 H 184.232 2.79079 -0.959099 0
M  V30 1897 H 184.313 1.4481 -2.10864 0
M  V30 1898 H 183.957 3.09704 -4.02549 0
M  V30 1899 H 183.887 4.43055 -2.84622 0
M  V30 1900 H 186.378 2.94315 -2.37039 0
M  V30 1901 H 186.691 5.60675 -5.3185 0
M  V30 1902 H 185.036 5.04708 -4.77802 0
M  V30 1903 H 188.227 3.5922 -3.00131 0
M  V30 1904 H 188.4 4.80697 -4.3455 0
M  V30 1905 N 181.806 0.884767 1.30421 0
M  V30 1906 C 183.222 0.57874 1.48737 0
M  V30 1907 C 183.422 -0.883567 1.81095 0
M  V30 1908 O 182.478 -1.6648 1.89844 0
M  V30 1909 C 183.791 1.49171 2.61091 0
M  V30 1910 C 185.339 1.49532 2.74971 0
M  V30 1911 C 185.814 2.39421 3.90438 0
M  V30 1912 N 187.305 2.37383 3.97748 0
M  V30 1913 C 188.04 3.03647 4.86401 0
M  V30 1914 N 187.536 3.79136 5.79852 0
M  V30 1915 N 189.329 2.9288 4.79768 0
M  V30 1916 H 181.48 1.83075 1.0769 0
M  V30 1917 H 183.743 0.783637 0.533495 0
M  V30 1918 H 183.449 2.53291 2.44001 0
M  V30 1919 H 183.323 1.20113 3.57565 0
M  V30 1920 H 185.71 0.46163 2.91467 0
M  V30 1921 H 185.791 1.8262 1.79119 0
M  V30 1922 H 185.435 3.42874 3.74699 0
M  V30 1923 H 185.365 2.03649 4.85628 0
M  V30 1924 H 187.856 1.82525 3.30897 0
M  V30 1925 H 188.169 4.26789 6.4426 0
M  V30 1926 H 186.514 3.83243 5.79784 0
M  V30 1927 H 189.705 2.33433 4.05742 0
M  V30 1928 H 189.878 3.448 5.4865 0
M  V30 1929 N 183.284 -1.43765 0.645699 0
M  V30 1930 C 184.514 -2.05953 0.163318 0
M  V30 1931 C 184.922 -1.48432 -1.17322 0
M  V30 1932 O 184.265 -0.607295 -1.73371 0
M  V30 1933 C 184.327 -3.59499 -0.0103065 0
M  V30 1934 C 183.991 -4.39563 1.25035 0
M  V30 1935 C 184.988 -4.72108 2.17739 0
M  V30 1936 C 182.673 -4.79697 1.48983 0
M  V30 1937 C 184.667 -5.43688 3.3269 0
M  V30 1938 C 182.354 -5.51023 2.64229 0
M  V30 1939 C 183.352 -5.8294 3.55908 0
M  V30 1940 O 183.04 -6.5281 4.69142 0
M  V30 1941 H 182.772 -0.670798 0.0836986 0
M  V30 1942 H 185.326 -1.85384 0.884407 0
M  V30 1943 H 183.556 -3.78613 -0.78669 0
M  V30 1944 H 185.245 -4.03408 -0.449087 0
M  V30 1945 H 186.011 -4.41627 2.00476 0
M  V30 1946 H 181.89 -4.54266 0.785078 0
M  V30 1947 H 185.434 -5.68517 4.04269 0
M  V30 1948 H 181.331 -5.8092 2.81429 0
M  V30 1949 H 182.099 -6.71288 4.6831 0
M  V30 1950 N 184.763 -0.387143 -1.52771 0
M  V30 1951 C 186.179 -0.037007 -1.59557 0
M  V30 1952 C 186.379 1.44801 -1.40124 0
M  V30 1953 O 185.435 2.21227 -1.21716 0
M  V30 1954 C 186.748 -0.512256 -2.96305 0
M  V30 1955 C 188.296 -0.468328 -3.09476 0
M  V30 1956 C 188.771 -0.919731 -4.4867 0
M  V30 1957 N 190.262 -0.875656 -4.54848 0
M  V30 1958 C 190.997 -1.19637 -5.6078 0
M  V30 1959 N 190.493 -1.58745 -6.74368 0
M  V30 1960 N 192.286 -1.11776 -5.50874 0
M  V30 1961 H 184.437 -1.35395 -1.63652 0
M  V30 1962 H 186.7 -0.554818 -0.768688 0
M  V30 1963 H 186.406 -1.54935 -3.15734 0
M  V30 1964 H 186.28 0.089805 -3.77093 0
M  V30 1965 H 188.667 0.559671 -2.89744 0
M  V30 1966 H 188.748 -1.10616 -2.30646 0
M  V30 1967 H 188.392 -1.94595 -4.69143 0
M  V30 1968 H 188.322 -0.258927 -5.25963 0
M  V30 1969 H 190.813 -0.587843 -3.733 0
M  V30 1970 H 191.126 -1.81586 -7.51163 0
M  V30 1971 H 189.471 -1.6263 -6.75705 0
M  V30 1972 H 192.662 -0.811264 -4.61016 0
M  V30 1973 H 192.835 -1.37103 -6.3333 0
M  V30 1974 N 186.241 1.57166 -0.116904 0
M  V30 1975 C 187.171 2.18222 0.830759 0
M  V30 1976 C 188.152 1.12167 1.27877 0
M  V30 1977 O 189.337 1.40394 1.34176 0
M  V30 1978 C 186.467 2.77996 2.08172 0
M  V30 1979 C 185.421 3.89614 1.77157 0
M  V30 1980 C 184.747 4.36187 3.09265 0
M  V30 1981 C 186.047 5.1181 1.04151 0
M  V30 1982 H 187.741 2.97664 0.321992 0
M  V30 1983 H 185.287 1.4318 0.153434 0
M  V30 1984 H 187.24 3.19366 2.74924 0
M  V30 1985 H 185.964 1.9584 2.6137 0
M  V30 1986 H 184.623 3.48816 1.12796 0
M  V30 1987 H 184.271 3.50893 3.60393 0
M  V30 1988 H 183.971 5.11455 2.89288 0
M  V30 1989 H 185.495 4.80207 3.77139 0
M  V30 1990 H 186.909 5.50214 1.61052 0
M  V30 1991 H 185.306 5.92648 0.942762 0
M  V30 1992 H 186.376 4.84892 0.0279022 0
M  V30 1993 N 187.719 -0.156864 1.56817 0
M  V30 1994 C 188.944 -0.890331 1.87318 0
M  V30 1995 C 189.369 -1.74394 0.704855 0
M  V30 1996 O 188.727 -1.77972 -0.345786 0
M  V30 1997 C 188.775 -1.73102 3.16336 0
M  V30 1998 O 187.879 -2.83422 2.99576 0
M  V30 1999 H 187.22 -0.24857 0.615718 0
M  V30 2000 H 189.75 -0.150649 2.04045 0
M  V30 2001 H 189.76 -2.12803 3.48107 0
M  V30 2002 H 188.435 -1.10412 4.00976 0
M  V30 2003 H 187.012 -2.47199 2.7919 0
M  V30 2004 N 189.197 -1.51736 -0.425897 0
M  V30 2005 C 190.444 -1.6497 -1.17436 0
M  V30 2006 C 190.772 -0.371445 -1.9092 0
M  V30 2007 O 190.027 0.644963 -1.84767 0
M  V30 2008 C 190.326 -2.81103 -2.20717 0
M  V30 2009 C 189.992 -4.19954 -1.64162 0
M  V30 2010 C 188.654 -4.57725 -1.48462 0
M  V30 2011 C 191.006 -5.06552 -1.22696 0
M  V30 2012 C 188.334 -5.79789 -0.897873 0
M  V30 2013 C 190.686 -6.29205 -0.654464 0
M  V30 2014 C 189.35 -6.6574 -0.484456 0
M  V30 2015 H 188.62 -0.603668 -0.429727 0
M  V30 2016 H 191.267 -1.85798 -0.463829 0
M  V30 2017 H 189.572 -2.54542 -2.97852 0
M  V30 2018 H 191.269 -2.8854 -2.78471 0
M  V30 2019 H 187.859 -3.90181 -1.77361 0
M  V30 2020 H 192.043 -4.77968 -1.33642 0
M  V30 2021 H 187.299 -6.06733 -0.75402 0
M  V30 2022 H 191.473 -6.95643 -0.324694 0
M  V30 2023 H 189.1 -7.60195 -0.0276833 0
M  V30 2024 N 190.675 0.682077 -1.42076 0
M  V30 2025 C 191.638 1.77756 -1.44691 0
M  V30 2026 C 192.638 1.5726 -0.335535 0
M  V30 2027 O 193.828 1.63686 -0.596037 0
M  V30 2028 C 190.96 3.16301 -1.27146 0
M  V30 2029 H 192.153 1.76826 -2.42224 0
M  V30 2030 H 189.706 0.891012 -1.28416 0
M  V30 2031 H 190.441 3.22862 -0.305075 0
M  V30 2032 H 190.226 3.32581 -2.07683 0
M  V30 2033 H 191.716 3.96241 -1.31843 0
M  V30 2034 N 192.153 1.28127 0.917671 0
M  V30 2035 C 193.103 1.08361 2.00604 0
M  V30 2036 C 194.087 0.00847518 1.60898 0
M  V30 2037 O 195.279 0.228167 1.75523 0
M  V30 2038 C 192.408 0.743376 3.35155 0
M  V30 2039 C 191.494 1.85716 3.81275 0
M  V30 2040 N 191.885 3.09822 3.99805 0
M  V30 2041 C 190.183 1.74612 4.10398 0
M  V30 2042 C 190.884 3.82368 4.38372 0
M  V30 2043 N 189.86 3.10192 4.4641 0
M  V30 2044 H 193.662 2.02531 2.12975 0
M  V30 2045 H 191.176 1.18989 1.10523 0
M  V30 2046 H 193.173 0.582859 4.12805 0
M  V30 2047 H 191.833 -0.190595 3.2414 0
M  V30 2048 H 192.844 3.45475 3.85833 0
M  V30 2049 H 189.521 0.883657 4.08041 0
M  V30 2050 H 190.911 4.89082 4.60704 0
M  V30 2051 N 193.631 -1.12557 1.10312 0
M  V30 2052 C 195.042 -1.65574 0.862678 0
M  V30 2053 C 195.393 -1.86566 -0.607256 0
M  V30 2054 O 194.518 -1.59121 -1.46662 0
M  V30 2055 C 195.113 -3.00776 1.55947 0
M  V30 2056 C 193.672 -3.50748 1.36576 0
M  V30 2057 C 192.819 -2.25797 1.60968 0
M  V30 2058 H 195.77 -0.963552 1.26101 0
M  V30 2059 H 195.791 -3.67185 0.997753 0
M  V30 2060 H 195.303 -2.85465 2.62928 0
M  V30 2061 H 193.404 -3.71245 0.317531 0
M  V30 2062 H 193.517 -4.30289 2.10686 0
M  V30 2063 H 191.881 -2.32841 1.03234 0
M  V30 2064 H 192.664 -2.13043 2.69198 0
M  V30 2065 N 195.109 -0.891671 -1.2995 0
M  V30 2066 C 196.52 -0.563104 -1.78006 0
M  V30 2067 C 196.871 0.920978 -1.73241 0
M  V30 2068 O 195.996 1.71987 -1.31337 0
M  V30 2069 C 196.591 -1.01539 -3.23226 0
M  V30 2070 C 195.15 -0.738124 -3.69092 0
M  V30 2071 C 194.297 -1.19461 -2.50249 0
M  V30 2072 H 197.248 -1.07522 -1.16725 0
M  V30 2073 H 197.269 -0.347217 -3.78912 0
M  V30 2074 H 196.781 -2.09555 -3.26662 0
M  V30 2075 H 194.882 0.329766 -3.71138 0
M  V30 2076 H 194.995 -1.33037 -4.60259 0
M  V30 2077 H 193.359 -0.613787 -2.47194 0
M  V30 2078 H 194.142 -2.28265 -2.56417 0
M  V30 2079 N 196.587 1.43421 -0.653314 0
M  V30 2080 C 197.812 2.06678 -0.172846 0
M  V30 2081 C 198.237 1.48648 1.15262 0
M  V30 2082 O 197.595 0.596457 1.71208 0
M  V30 2083 C 197.643 3.60474 -0.0953184 0
M  V30 2084 O 196.747 4.01487 0.942442 0
M  V30 2085 H 196.088 0.657181 -0.0949155 0
M  V30 2086 H 198.618 1.83925 -0.896265 0
M  V30 2087 H 198.628 4.07905 0.0879728 0
M  V30 2088 H 197.303 4.02088 -1.06291 0
M  V30 2089 H 195.88 3.65646 0.731932 0
M  V30 2090 N 198.065 0.39524 1.52563 0
M  V30 2091 C 199.028 -0.425001 2.25225 0
M  V30 2092 C 200.028 -0.985266 1.27079 0
M  V30 2093 O 201.218 -0.866332 1.5113 0
M  V30 2094 C 198.35 -1.59686 3.01186 0
M  V30 2095 H 199.543 0.211233 2.99155 0
M  V30 2096 H 197.096 0.147472 1.55603 0
M  V30 2097 H 197.831 -2.27035 2.31572 0
M  V30 2098 H 197.616 -1.20176 3.73229 0
M  V30 2099 H 199.106 -2.17743 3.5634 0
M  V30 2100 N 199.544 -1.57102 0.125237 0
M  V30 2101 C 200.454 -2.19191 -0.8362 0
M  V30 2102 C 201.47 -1.16985 -1.28805 0
M  V30 2103 O 202.646 -1.49479 -1.34974 0
M  V30 2104 C 199.711 -2.78407 -2.06617 0
M  V30 2105 C 198.772 -3.9567 -1.66565 0
M  V30 2106 C 198.005 -4.52052 -2.83698 0
M  V30 2107 O 198.228 -4.07326 -3.99302 0
M  V30 2108 O 197.162 -5.42645 -2.60423 0
M  V30 2109 H 200.988 -3.01816 -0.337776 0
M  V30 2110 H 198.573 -1.4906 -0.100695 0
M  V30 2111 H 200.455 -3.16129 -2.7864 0
M  V30 2112 H 199.13 -1.9881 -2.55453 0
M  V30 2113 H 198.037 -3.62705 -0.916296 0
M  V30 2114 H 199.37 -4.76722 -1.22464 0
M  V30 2115 N 201.022 0.148545 -1.56898 0
M  V30 2116 C 202.268 0.862694 -1.83536 0
M  V30 2117 C 202.601 1.80889 -0.706604 0
M  V30 2118 O 201.876 1.92328 0.289885 0
M  V30 2119 C 202.159 1.63853 -3.20662 0
M  V30 2120 C 202.012 0.713925 -4.44098 0
M  V30 2121 C 203.331 2.60133 -3.54991 0
M  V30 2122 H 200.45 0.312179 -0.667618 0
M  V30 2123 H 203.092 0.127953 -1.89569 0
M  V30 2124 H 201.242 2.26489 -3.1565 0
M  V30 2125 H 202.914 0.098686 -4.61194 0
M  V30 2126 H 201.157 0.0234019 -4.33794 0
M  V30 2127 H 201.828 1.29278 -5.36648 0
M  V30 2128 H 204.304 2.07616 -3.60603 0
M  V30 2129 H 203.18 3.11468 -4.51972 0
M  V30 2130 H 203.441 3.41417 -2.80868 0
M  V30 2131 N 202.5 1.5196 0.417844 0
M  V30 2132 C 203.41 1.77554 1.53336 0
M  V30 2133 C 204.426 0.660655 1.6097 0
M  V30 2134 O 205.602 0.945099 1.77848 0
M  V30 2135 C 202.667 1.91291 2.89152 0
M  V30 2136 C 201.728 3.15183 2.91475 0
M  V30 2137 C 200.961 3.28256 4.20813 0
M  V30 2138 O 201.184 2.46798 5.14244 0
M  V30 2139 O 200.118 4.21356 4.29817 0
M  V30 2140 H 203.944 2.7222 1.34647 0
M  V30 2141 H 201.529 1.36698 0.602828 0
M  V30 2142 H 203.411 2.02199 3.69721 0
M  V30 2143 H 202.086 0.998129 3.07927 0
M  V30 2144 H 200.993 3.09739 2.09791 0
M  V30 2145 H 202.326 4.06414 2.77648 0
M  V30 2146 N 203.978 -0.674533 1.42435 0
M  V30 2147 C 204.941 -1.76986 1.45632 0
M  V30 2148 C 205.941 -1.5708 0.343871 0
M  V30 2149 O 207.131 -1.63367 0.604709 0
M  V30 2150 C 204.263 -3.15623 1.28822 0
M  V30 2151 H 205.456 -1.75539 2.43158 0
M  V30 2152 H 203.009 -0.884189 1.28887 0
M  V30 2153 H 203.744 -3.22696 0.322193 0
M  V30 2154 H 203.529 -3.31475 2.09444 0
M  V30 2155 H 205.019 -3.95537 1.33942 0
M  V30 2156 N 205.456 -1.28612 -0.910864 0
M  V30 2157 C 206.705 -1.15311 -1.65488 0
M  V30 2158 C 207.018 0.296999 -1.93332 0
M  V30 2159 O 208.224 0.551168 -2.65847 0
M  V30 2160 C 206.68 -2.01599 -2.98137 0
M  V30 2161 C 206.288 -3.51367 -2.7793 0
M  V30 2162 C 208.032 -1.96993 -3.76024 0
M  V30 2163 C 205.939 -4.29797 -4.06237 0
M  V30 2164 H 204.869 -0.42796 -0.620779 0
M  V30 2165 H 207.52 -1.53166 -1.01057 0
M  V30 2166 H 205.902 -1.56603 -3.63719 0
M  V30 2167 H 207.076 -4.0434 -2.21011 0
M  V30 2168 H 205.391 -3.57529 -2.13452 0
M  V30 2169 H 207.988 -2.52856 -4.71135 0
M  V30 2170 H 208.331 -0.94733 -4.05378 0
M  V30 2171 H 208.864 -2.39973 -3.17266 0
M  V30 2172 H 205.603 -5.32648 -3.82055 0
M  V30 2173 H 205.123 -3.81596 -4.62757 0
M  V30 2174 H 206.802 -4.39869 -4.74473 0
M  V30 2175 N 206.934 1.1197 -1.10907 0
M  V30 2176 C 207.897 2.16031 -0.765707 0
M  V30 2177 C 208.897 1.59393 0.212235 0
M  V30 2178 O 210.087 1.74196 -0.0115441 0
M  V30 2179 C 207.219 3.40632 -0.135053 0
M  V30 2180 H 208.412 2.47919 -1.68748 0
M  V30 2181 H 205.965 1.27061 -0.910226 0
M  V30 2182 H 206.7 3.14348 0.797218 0
M  V30 2183 H 206.485 3.8302 -0.838937 0
M  V30 2184 H 207.975 4.17505 0.0892469 0
M  V30 2185 N 208.412 0.89855 1.29475 0
M  V30 2186 C 209.342 0.39201 2.30186 0
M  V30 2187 C 210.323 -0.532359 1.61555 0
M  V30 2188 O 211.508 -0.443331 1.89072 0
M  V30 2189 C 208.638 -0.382353 3.45189 0
M  V30 2190 C 207.592 0.451483 4.25612 0
M  V30 2191 C 206.918 -0.450307 5.328 0
M  V30 2192 C 208.218 1.70079 4.93832 0
M  V30 2193 H 209.912 1.23362 2.72804 0
M  V30 2194 H 207.458 0.594638 1.31149 0
M  V30 2195 H 209.411 -0.747451 4.14718 0
M  V30 2196 H 208.135 -1.25774 3.01411 0
M  V30 2197 H 206.794 0.798897 3.57789 0
M  V30 2198 H 206.442 -1.32379 4.85268 0
M  V30 2199 H 206.142 0.103902 5.87508 0
M  V30 2200 H 207.666 -0.811623 6.05182 0
M  V30 2201 H 209.08 1.40549 5.55805 0
M  V30 2202 H 207.477 2.19623 5.58467 0
M  V30 2203 H 208.547 2.43744 4.19186 0
M  V30 2204 N 209.89 -1.43072 0.660911 0
M  V30 2205 C 210.853 -2.29194 -0.0166406 0
M  V30 2206 C 211.853 -1.42609 -0.742912 0
M  V30 2207 O 213.043 -1.64155 -0.583004 0
M  V30 2208 C 210.175 -3.24831 -1.0343 0
M  V30 2209 H 211.368 -2.90596 0.741208 0
M  V30 2210 H 208.921 -1.5048 0.422532 0
M  V30 2211 H 209.656 -2.68339 -1.82111 0
M  V30 2212 H 209.441 -3.88676 -0.517082 0
M  V30 2213 H 210.931 -3.89451 -1.50723 0
M  V30 2214 N 211.368 -0.403325 -1.52352 0
M  V30 2215 C 212.596 0.174012 -2.06167 0
M  V30 2216 C 213.011 1.39347 -1.27388 0
M  V30 2217 O 212.368 1.79597 -0.324201 0
M  V30 2218 C 212.419 0.530223 -3.5759 0
M  V30 2219 O 212.14 -0.640806 -4.33388 0
M  V30 2220 C 213.641 1.16192 -4.27802 0
M  V30 2221 H 210.861 0.0229464 -0.670608 0
M  V30 2222 H 213.405 -0.572604 -1.9632 0
M  V30 2223 H 211.56 1.22673 -3.67464 0
M  V30 2224 H 211.974 -0.344851 -5.23365 0
M  V30 2225 H 213.448 1.36141 -5.34948 0
M  V30 2226 H 213.925 2.13335 -3.83907 0
M  V30 2227 H 214.531 0.505775 -4.22282 0
M  V30 2228 N 212.846 1.57033 -0.133567 0
M  V30 2229 C 213.776 2.1909 0.807567 0
M  V30 2230 C 214.757 1.13517 1.26681 0
M  V30 2231 O 215.942 1.41809 1.32679 0
M  V30 2232 C 213.072 2.80188 2.05212 0
M  V30 2233 C 212.026 3.91471 1.73015 0
M  V30 2234 C 211.352 4.39443 3.04622 0
M  V30 2235 C 212.652 5.12886 0.987168 0
M  V30 2236 H 214.346 2.97988 0.290403 0
M  V30 2237 H 211.892 1.43335 0.138239 0
M  V30 2238 H 213.845 3.22264 2.71521 0
M  V30 2239 H 212.569 1.98601 2.59278 0
M  V30 2240 H 211.228 3.49993 1.0909 0
M  V30 2241 H 210.876 3.54695 3.56651 0
M  V30 2242 H 210.576 5.14495 2.83847 0
M  V30 2243 H 212.1 4.8418 3.72024 0
M  V30 2244 H 213.514 5.51891 1.55208 0
M  V30 2245 H 211.911 5.93615 0.87985 0
M  V30 2246 H 212.981 4.84894 -0.0235286 0
M  V30 2247 N 214.325 -0.140222 1.56975 0
M  V30 2248 C 215.275 -1.17827 1.95194 0
M  V30 2249 C 216.259 -1.38195 0.824075 0
M  V30 2250 O 217.451 -1.39643 1.0876 0
M  V30 2251 C 214.58 -2.51024 2.34184 0
M  V30 2252 C 213.666 -2.3422 3.53556 0
M  V30 2253 N 214.057 -1.87185 4.69889 0
M  V30 2254 C 212.355 -2.64949 3.58773 0
M  V30 2255 C 213.056 -1.83586 5.5197 0
M  V30 2256 N 212.032 -2.2715 4.93866 0
M  V30 2257 H 215.834 -0.806817 2.82609 0
M  V30 2258 H 213.348 -0.348208 1.58623 0
M  V30 2259 H 215.345 -3.26074 2.59772 0
M  V30 2260 H 214.005 -2.88945 1.48124 0
M  V30 2261 H 215.016 -1.57048 4.93514 0
M  V30 2262 H 211.693 -3.067 2.8327 0
M  V30 2263 H 213.083 -1.48655 6.55249 0
M  V30 2264 N 215.803 -1.52179 -0.40978 0
M  V30 2265 C 217.08 -1.56769 -1.16974 0
M  V30 2266 C 217.46 -0.348322 -2.08206 0
M  V30 2267 O 216.808 0.664862 -2.18613 0
M  V30 2268 C 217.018 -2.89603 -1.9476 0
M  V30 2269 C 218.366 -3.42579 -2.50849 0
M  V30 2270 O 219.39 -2.91338 -2.04941 0
M  V30 2271 O 218.249 -4.32054 -3.34652 0
M  V30 2272 H 215.343 -0.631439 -0.534054 0
M  V30 2273 H 217.889 -1.64507 -0.416613 0
M  V30 2274 H 216.661 -3.698 -1.27921 0
M  V30 2275 H 216.284 -2.85155 -2.77079 0
M  V30 2276 N 217.281 0.66697 -1.42791 0
M  V30 2277 C 218.697 0.981027 -1.25889 0
M  V30 2278 C 218.897 2.00793 -0.168695 0
M  V30 2279 O 217.953 2.48321 0.45747 0
M  V30 2280 C 219.266 1.47838 -2.61848 0
M  V30 2281 C 220.814 1.59575 -2.69267 0
M  V30 2282 C 221.289 2.12704 -4.05612 0
M  V30 2283 N 222.78 2.20026 -4.07606 0
M  V30 2284 C 223.515 2.62227 -5.09926 0
M  V30 2285 N 223.011 3.03824 -6.22626 0
M  V30 2286 N 224.804 2.62045 -4.97281 0
M  V30 2287 H 216.955 -0.0127891 -2.12396 0
M  V30 2288 H 219.218 0.0568258 -0.946295 0
M  V30 2289 H 218.924 0.798299 -3.4252 0
M  V30 2290 H 218.798 2.45579 -2.86305 0
M  V30 2291 H 221.185 2.26687 -1.88936 0
M  V30 2292 H 221.266 0.60302 -2.48591 0
M  V30 2293 H 220.91 1.46198 -4.86404 0
M  V30 2294 H 220.84 3.12782 -4.23645 0
M  V30 2295 H 223.331 1.90708 -3.2625 0
M  V30 2296 H 223.644 3.34734 -6.96544 0
M  V30 2297 H 221.989 3.01662 -6.26119 0
M  V30 2298 H 225.18 2.28916 -4.08308 0
M  V30 2299 H 225.353 2.94613 -5.77154 0
M  V30 2300 N 218.759 1.29093 0.90403 0
M  V30 2301 C 219.692 1.08176 2.00931 0
M  V30 2302 C 220.67 -0.005083 1.62599 0
M  V30 2303 O 221.854 0.144765 1.87943 0
M  V30 2304 C 218.981 0.645897 3.32484 0
M  V30 2305 C 218.027 1.73081 3.89801 0
M  V30 2306 S 218.86 3.32905 4.19446 0
M  V30 2307 C 220.016 2.91176 5.54046 0
M  V30 2308 H 220.249 2.01752 2.18365 0
M  V30 2309 H 217.782 1.13191 1.0501 0
M  V30 2310 H 219.74 0.401131 4.08535 0
M  V30 2311 H 218.401 -0.270188 3.12936 0
M  V30 2312 H 217.594 1.37768 4.84805 0
M  V30 2313 H 217.196 1.92888 3.20422 0
M  V30 2314 H 219.488 2.37952 6.34338 0
M  V30 2315 H 220.431 3.85014 5.94281 0
M  V30 2316 H 220.839 2.296 5.15698 0
M  V30 2317 N 220.237 -1.11381 1.11499 0
M  V30 2318 C 221.465 -1.86934 0.88675 0
M  V30 2319 C 221.88 -1.80195 -0.563476 0
M  V30 2320 O 221.237 -1.18367 -1.38908 0
M  V30 2321 C 221.288 -3.35722 1.34064 0
M  V30 2322 O 221.009 -3.4232 2.73401 0
M  V30 2323 C 222.51 -4.2818 1.14791 0
M  V30 2324 H 219.73 -0.591117 0.317523 0
M  V30 2325 H 222.274 -1.40865 1.48248 0
M  V30 2326 H 220.429 -3.79294 0.788355 0
M  V30 2327 H 220.843 -4.34971 2.93087 0
M  V30 2328 H 222.317 -5.30817 1.5145 0
M  V30 2329 H 222.794 -4.39113 0.0875279 0
M  V30 2330 H 223.4 -3.90402 1.68721 0
M  V30 2331 N 221.715 -0.905404 -1.28997 0
M  V30 2332 C 222.625 -0.392246 -2.31298 0
M  V30 2333 C 223.641 0.515889 -1.66176 0
M  V30 2334 O 224.817 0.404093 -1.97304 0
M  V30 2335 C 221.882 0.36686 -3.44754 0
M  V30 2336 C 220.943 -0.573485 -4.25452 0
M  V30 2337 C 220.176 0.149488 -5.33491 0
M  V30 2338 O 220.399 1.37255 -5.5364 0
M  V30 2339 O 219.333 -0.510919 -5.99728 0
M  V30 2340 H 223.159 -1.2411 -2.77183 0
M  V30 2341 H 220.744 -0.669926 -1.33538 0
M  V30 2342 H 222.626 0.795907 -4.13816 0
M  V30 2343 H 221.301 1.19169 -3.00966 0
M  V30 2344 H 220.208 -1.05176 -3.59011 0
M  V30 2345 H 221.541 -1.36489 -4.72897 0
M  V30 2346 N 223.193 1.4272 -0.668489 0
M  V30 2347 C 224.125 2.2914 0.052613 0
M  V30 2348 C 225.138 1.43339 0.771857 0
M  V30 2349 O 226.327 1.67123 0.627067 0
M  V30 2350 C 223.427 3.20618 1.09804 0
M  V30 2351 C 222.6 4.35039 0.45389 0
M  V30 2352 C 221.659 5.07282 1.39825 0
M  V30 2353 O 220.685 5.62024 0.900978 0
M  V30 2354 N 221.887 5.12206 2.73176 0
M  V30 2355 H 224.652 2.91668 -0.689209 0
M  V30 2356 H 222.213 1.53577 -0.512422 0
M  V30 2357 H 224.205 3.65815 1.73094 0
M  V30 2358 H 222.775 2.59585 1.74167 0
M  V30 2359 H 221.995 3.92567 -0.358396 0
M  V30 2360 H 223.283 5.088 0.00486972 0
M  V30 2361 H 222.681 4.6913 3.16122 0
M  V30 2362 H 221.238 5.61069 3.31729 0
M  V30 2363 N 224.671 0.411399 1.52136 0
M  V30 2364 C 225.621 -0.430376 2.23901 0
M  V30 2365 C 226.605 -1.0116 1.25121 0
M  V30 2366 O 227.797 -0.934044 1.50348 0
M  V30 2367 C 224.926 -1.54527 3.06556 0
M  V30 2368 C 224.012 -0.9747 4.12747 0
M  V30 2369 N 224.403 -0.130991 5.0563 0
M  V30 2370 C 222.701 -1.24497 4.28271 0
M  V30 2371 C 223.402 0.186689 5.814 0
M  V30 2372 N 222.378 -0.42304 5.41951 0
M  V30 2373 H 226.18 0.220509 2.93072 0
M  V30 2374 H 223.694 0.221952 1.60876 0
M  V30 2375 H 225.691 -2.16093 3.56524 0
M  V30 2376 H 224.351 -2.19875 2.38925 0
M  V30 2377 H 225.362 0.23349 5.17373 0
M  V30 2378 H 222.039 -1.89787 3.7187 0
M  V30 2379 H 223.429 0.871673 6.66222 0
M  V30 2380 N 226.149 -1.5696 0.141893 0
M  V30 2381 C 227.396 -1.9596 -0.510492 0
M  V30 2382 C 227.724 -1.02648 -1.65208 0
M  V30 2383 O 226.979 -0.0546947 -1.95624 0
M  V30 2384 C 227.278 -3.41242 -1.06249 0
M  V30 2385 C 226.944 -4.50882 -0.0398791 0
M  V30 2386 C 225.606 -4.80595 0.241247 0
M  V30 2387 C 227.958 -5.17058 0.65578 0
M  V30 2388 C 225.286 -5.73792 1.22393 0
M  V30 2389 C 227.638 -6.11313 1.62724 0
M  V30 2390 C 226.302 -6.39407 1.91612 0
M  V30 2391 H 225.572 -0.717068 -0.186802 0
M  V30 2392 H 228.219 -1.90142 0.227643 0
M  V30 2393 H 226.524 -3.43866 -1.87785 0
M  V30 2394 H 228.221 -3.68742 -1.57576 0
M  V30 2395 H 224.811 -4.27754 -0.269174 0
M  V30 2396 H 228.995 -4.94239 0.451779 0
M  V30 2397 H 224.251 -5.93853 1.45424 0
M  V30 2398 H 228.425 -6.61668 2.17183 0
M  V30 2399 H 226.052 -7.11427 2.6791 0
M  V30 2400 N 227.627 0.131896 -1.57047 0
M  V30 2401 C 229.038 0.690407 -1.73465 0
M  V30 2402 C 229.389 1.8094 -0.758629 0
M  V30 2403 O 228.514 2.16282 0.0713813 0
M  V30 2404 C 229.109 1.25916 -3.14532 0
M  V30 2405 C 227.668 1.76409 -3.32501 0
M  V30 2406 C 226.815 0.658579 -2.69366 0
M  V30 2407 H 229.766 -0.0939144 -1.58422 0
M  V30 2408 H 229.787 2.12892 -3.15369 0
M  V30 2409 H 229.299 0.444515 -3.85546 0
M  V30 2410 H 227.4 2.60391 -2.66509 0
M  V30 2411 H 227.513 1.88241 -4.4057 0
M  V30 2412 H 225.877 1.08899 -2.30246 0
M  V30 2413 H 226.66 -0.14487 -3.42994 0
M  V30 2414 N 229.106 1.52395 0.401703 0
M  V30 2415 C 230.056 1.72649 1.48917 0
M  V30 2416 C 231.04 0.580436 1.50066 0
M  V30 2417 O 232.232 0.83779 1.55917 0
M  V30 2418 C 229.361 1.88729 2.86769 0
M  V30 2419 C 228.447 3.09228 2.90239 0
M  V30 2420 N 228.838 4.31805 2.63396 0
M  V30 2421 C 227.136 3.09214 3.21408 0
M  V30 2422 C 227.837 5.13326 2.73625 0
M  V30 2423 N 226.813 4.48735 3.06819 0
M  V30 2424 H 230.615 2.65058 1.26971 0
M  V30 2425 H 228.129 1.50528 0.609504 0
M  V30 2426 H 230.126 2.01358 3.65049 0
M  V30 2427 H 228.786 0.975252 3.09708 0
M  V30 2428 H 229.797 4.60154 2.37653 0
M  V30 2429 H 226.474 2.27774 3.49893 0
M  V30 2430 H 227.864 6.21003 2.56524 0
M  V30 2431 N 230.584 -0.659388 1.43143 0
M  V30 2432 C 231.995 -1.24041 1.39537 0
M  V30 2433 C 232.346 -1.95963 0.0963364 0
M  V30 2434 O 231.471 -2.00892 -0.804438 0
M  V30 2435 C 232.066 -2.25601 2.52764 0
M  V30 2436 C 230.625 -2.79195 2.52443 0
M  V30 2437 C 229.772 -1.53743 2.30778 0
M  V30 2438 H 232.723 -0.451792 1.52133 0
M  V30 2439 H 232.744 -3.07651 2.23899 0
M  V30 2440 H 232.256 -1.73226 3.47296 0
M  V30 2441 H 230.357 -3.35649 1.61773 0
M  V30 2442 H 230.47 -3.2716 3.50004 0
M  V30 2443 H 228.834 -1.80869 1.79328 0
M  V30 2444 H 229.617 -1.03312 3.27386 0
M  V30 2445 N 232.062 -1.29571 -0.897171 0
M  V30 2446 C 233.311 -1.1706 -1.64256 0
M  V30 2447 C 233.624 0.276476 -1.93636 0
M  V30 2448 O 234.83 0.52294 -2.66416 0
M  V30 2449 C 233.286 -2.0475 -2.95982 0
M  V30 2450 C 232.894 -3.54295 -2.74187 0
M  V30 2451 C 234.638 -2.0097 -3.73914 0
M  V30 2452 C 232.545 -4.34081 -4.01656 0
M  V30 2453 H 231.475 -0.43452 -0.616205 0
M  V30 2454 H 234.126 -1.54229 -0.994268 0
M  V30 2455 H 232.508 -1.60452 -3.62038 0
M  V30 2456 H 233.682 -4.06662 -2.1671 0
M  V30 2457 H 231.997 -3.59773 -2.09648 0
M  V30 2458 H 234.594 -2.57838 -4.68427 0
M  V30 2459 H 234.937 -0.990273 -4.0435 0
M  V30 2460 H 235.47 -2.43325 -3.14703 0
M  V30 2461 H 232.209 -5.36671 -3.76384 0
M  V30 2462 H 231.729 -3.86483 -4.58684 0
M  V30 2463 H 233.408 -4.44877 -4.69781 0
M  V30 2464 N 233.54 1.10788 -1.12088 0
M  V30 2465 C 234.472 2.16816 -0.743213 0
M  V30 2466 C 235.485 1.6119 0.228412 0
M  V30 2467 O 236.674 1.78497 0.0102931 0
M  V30 2468 C 233.774 3.38809 -0.0787313 0
M  V30 2469 C 232.947 4.23885 -1.0789 0
M  V30 2470 C 232.006 5.24334 -0.442713 0
M  V30 2471 O 231.032 5.58497 -1.09864 0
M  V30 2472 N 232.234 5.75079 0.791457 0
M  V30 2473 H 234.999 2.49825 -1.65552 0
M  V30 2474 H 232.56 1.26373 -1.012 0
M  V30 2475 H 234.552 4.03107 0.358766 0
M  V30 2476 H 233.122 3.03805 0.736275 0
M  V30 2477 H 232.342 3.55939 -1.69414 0
M  V30 2478 H 233.63 4.77562 -1.75533 0
M  V30 2479 H 233.028 5.49517 1.3434 0
M  V30 2480 H 231.585 6.4118 1.17183 0
M  V30 2481 N 235.018 0.912232 1.28515 0
M  V30 2482 C 236.243 0.559774 1.99703 0
M  V30 2483 C 236.668 -0.851393 1.67729 0
M  V30 2484 O 236.026 -1.56875 0.908834 0
M  V30 2485 C 236.074 0.773874 3.52198 0
M  V30 2486 O 235.178 -0.167842 4.12058 0
M  V30 2487 H 234.519 0.21723 0.627461 0
M  V30 2488 H 237.049 1.22725 1.63706 0
M  V30 2489 H 237.059 0.683386 4.02236 0
M  V30 2490 H 235.734 1.80261 3.74805 0
M  V30 2491 H 234.311 -0.0287509 3.72889 0
M  V30 2492 N 236.496 -1.42363 0.676048 0
M  V30 2493 C 237.743 -2.01522 0.19883 0
M  V30 2494 C 238.071 -1.53456 -1.19505 0
M  V30 2495 O 237.326 -0.727967 -1.81657 0
M  V30 2496 C 237.625 -3.56929 0.183431 0
M  V30 2497 C 237.291 -4.24431 1.52215 0
M  V30 2498 C 235.953 -4.42585 1.8887 0
M  V30 2499 C 238.305 -4.62459 2.40377 0
M  V30 2500 C 235.633 -4.96039 3.13309 0
M  V30 2501 C 237.985 -5.17294 3.64129 0
M  V30 2502 C 236.649 -5.33661 4.00951 0
M  V30 2503 H 235.919 -0.737419 0.0727571 0
M  V30 2504 H 238.566 -1.70531 0.871281 0
M  V30 2505 H 236.871 -3.87594 -0.572532 0
M  V30 2506 H 238.568 -4.00486 -0.203035 0
M  V30 2507 H 235.158 -4.10661 1.22701 0
M  V30 2508 H 239.342 -4.48105 2.13343 0
M  V30 2509 H 234.598 -5.06896 3.41857 0
M  V30 2510 H 238.772 -5.45704 4.32644 0
M  V30 2511 H 236.399 -5.74845 4.9745 0
M  V30 2512 N 237.974 -0.419461 -1.51915 0
M  V30 2513 C 239.199 0.154572 -2.06823 0
M  V30 2514 C 239.624 1.3722 -1.28656 0
M  V30 2515 O 238.982 1.78461 -0.319583 0
M  V30 2516 C 239.03 0.473172 -3.57482 0
M  V30 2517 O 238.134 1.56255 -3.81652 0
M  V30 2518 H 237.475 0.0096924 -0.663929 0
M  V30 2519 H 240.005 -0.595642 -1.95738 0
M  V30 2520 H 240.015 0.728825 -4.01438 0
M  V30 2521 H 238.69 -0.416873 -4.13805 0
M  V30 2522 H 237.267 1.29825 -3.49571 0
M  V30 2523 N 239.452 1.56882 -0.150215 0
M  V30 2524 C 240.863 1.82995 0.370076 0
M  V30 2525 C 241.214 1.06907 1.64515 0
M  V30 2526 O 240.339 0.315369 2.1409 0
M  V30 2527 C 240.934 3.31942 0.678208 0
M  V30 2528 C 239.493 3.58625 1.14301 0
M  V30 2529 C 238.64 2.76792 0.167778 0
M  V30 2530 H 241.591 1.54209 -0.374858 0
M  V30 2531 H 241.612 3.48272 1.53254 0
M  V30 2532 H 241.124 3.87294 -0.249991 0
M  V30 2533 H 239.225 3.08664 2.08704 0
M  V30 2534 H 239.338 4.67073 1.06676 0
M  V30 2535 H 237.702 2.45972 0.661037 0
M  V30 2536 H 238.485 3.34916 -0.754069 0
M  V30 2537 N 240.93 -0.123565 1.57115 0
M  V30 2538 C 241.84 -1.17074 2.033 0
M  V30 2539 C 242.856 -1.4561 0.952559 0
M  V30 2540 O 244.032 -1.56817 1.26374 0
M  V30 2541 C 241.097 -2.47857 2.42421 0
M  V30 2542 C 240.158 -2.26758 3.64526 0
M  V30 2543 C 239.391 -3.51305 4.01771 0
M  V30 2544 O 239.614 -4.5843 3.39409 0
M  V30 2545 O 238.548 -3.42578 4.94898 0
M  V30 2546 H 242.374 -0.808555 2.92739 0
M  V30 2547 H 239.959 -0.334027 1.45618 0
M  V30 2548 H 241.841 -3.2492 2.68338 0
M  V30 2549 H 240.516 -2.83558 1.5613 0
M  V30 2550 H 239.423 -1.47569 3.43765 0
M  V30 2551 H 240.756 -1.95963 4.51508 0
M  V30 2552 N 242.408 -1.52605 -0.393616 0
M  V30 2553 C 243.633 -1.71592 -1.16495 0
M  V30 2554 C 244.058 -0.43133 -1.83088 0
M  V30 2555 O 243.416 0.612523 -1.7064 0
M  V30 2556 C 243.464 -2.86318 -2.19213 0
M  V30 2557 O 242.568 -2.52969 -3.257 0
M  V30 2558 H 241.909 -0.570734 -0.33935 0
M  V30 2559 H 244.439 -1.99377 -0.459324 0
M  V30 2560 H 244.449 -3.1168 -2.63286 0
M  V30 2561 H 243.124 -3.79511 -1.7013 0
M  V30 2562 H 241.701 -2.38332 -2.86797 0
M  V30 2563 N 243.887 0.651787 -1.4349 0
M  V30 2564 C 244.82 1.77668 -1.43211 0
M  V30 2565 C 245.798 1.59931 -0.29338 0
M  V30 2566 O 246.982 1.82095 -0.487191 0
M  V30 2567 C 244.109 3.14986 -1.24505 0
M  V30 2568 C 243.155 3.51421 -2.41673 0
M  V30 2569 S 243.988 3.51234 -4.04222 0
M  V30 2570 C 245.144 4.91206 -3.87902 0
M  V30 2571 H 245.377 1.77635 -2.38397 0
M  V30 2572 H 242.91 0.824558 -1.30539 0
M  V30 2573 H 244.868 3.94237 -1.144 0
M  V30 2574 H 243.529 3.1258 -0.308651 0
M  V30 2575 H 242.722 4.51291 -2.24393 0
M  V30 2576 H 242.324 2.79585 -2.48411 0
M  V30 2577 H 244.616 5.79902 -3.50315 0
M  V30 2578 H 245.559 5.13537 -4.8753 0
M  V30 2579 H 245.967 4.64808 -3.20334 0
M  V30 2580 N 245.365 1.30045 0.890287 0
M  V30 2581 C 246.776 1.16738 1.45702 0
M  V30 2582 C 247.127 -0.233939 1.948 0
M  V30 2583 O 246.252 -1.13021 1.84541 0
M  V30 2584 C 246.847 2.11313 2.64825 0
M  V30 2585 C 245.406 2.02001 3.17604 0
M  V30 2586 C 244.553 2.01699 1.90296 0
M  V30 2587 H 247.504 1.42392 0.700726 0
M  V30 2588 H 247.525 1.69086 3.40867 0
M  V30 2589 H 247.037 3.13294 2.2906 0
M  V30 2590 H 245.138 1.03142 3.5804 0
M  V30 2591 H 245.251 2.90128 3.81264 0
M  V30 2592 H 243.615 1.46427 2.08402 0
M  V30 2593 H 244.398 3.05402 1.56795 0
M  V30 2594 N 246.843 -1.10192 1.12674 0
M  V30 2595 C 247.753 -2.20172 0.810026 0
M  V30 2596 C 248.769 -1.72821 -0.202188 0
M  V30 2597 O 249.945 -2.01369 -0.0351691 0
M  V30 2598 C 247.01 -3.45631 0.272007 0
M  V30 2599 C 246.071 -4.07704 1.34447 0
M  V30 2600 C 245.304 -5.27175 0.832029 0
M  V30 2601 O 245.527 -5.69425 -0.333284 0
M  V30 2602 O 244.461 -5.80168 1.60277 0
M  V30 2603 H 248.287 -2.49701 1.72867 0
M  V30 2604 H 245.872 -1.18977 0.903597 0
M  V30 2605 H 247.754 -4.21394 -0.0230219 0
M  V30 2606 H 246.429 -3.17723 -0.619164 0
M  V30 2607 H 245.336 -3.33614 1.6927 0
M  V30 2608 H 246.669 -4.3982 2.2095 0
M  V30 2609 N 248.321 -0.919034 -1.28029 0
M  V30 2610 C 249.732 -0.600735 -1.76771 0
M  V30 2611 C 250.083 0.884024 -1.75156 0
M  V30 2612 O 249.208 1.69163 -1.34956 0
M  V30 2613 C 249.803 -1.08372 -3.21 0
M  V30 2614 C 248.362 -0.816248 -3.67443 0
M  V30 2615 C 247.509 -1.24742 -2.47658 0
M  V30 2616 H 250.46 -1.09974 -1.14418 0
M  V30 2617 H 250.481 -0.427512 -3.78091 0
M  V30 2618 H 249.993 -2.16437 -3.22144 0
M  V30 2619 H 248.094 0.250968 -3.71754 0
M  V30 2620 H 248.207 -1.4277 -4.57333 0
M  V30 2621 H 246.571 -0.666083 -2.45836 0
M  V30 2622 H 247.354 -2.33653 -2.51518 0
M  V30 2623 N 249.799 1.42003 -0.683588 0
M  V30 2624 C 250.729 2.33487 -0.024866 0
M  V30 2625 C 251.71 1.51163 0.779975 0
M  V30 2626 O 252.895 1.79739 0.735362 0
M  V30 2627 C 250.025 3.3487 0.920836 0
M  V30 2628 C 248.979 4.27414 0.223958 0
M  V30 2629 C 248.305 5.19074 1.2832 0
M  V30 2630 C 249.605 5.14445 -0.90242 0
M  V30 2631 H 251.299 2.88819 -0.788921 0
M  V30 2632 H 248.845 1.38873 -0.38083 0
M  V30 2633 H 250.798 3.97787 1.39081 0
M  V30 2634 H 249.522 2.77861 1.71642 0
M  V30 2635 H 248.181 3.65904 -0.225864 0
M  V30 2636 H 247.829 4.58387 2.071 0
M  V30 2637 H 247.529 5.81822 0.821995 0
M  V30 2638 H 249.053 5.84867 1.75392 0
M  V30 2639 H 250.467 5.70998 -0.513272 0
M  V30 2640 H 248.864 5.86072 -1.28997 0
M  V30 2641 H 249.934 4.52322 -1.74737 0
M  V30 2642 N 251.277 0.427512 1.51691 0
M  V30 2643 C 252.225 -0.403359 2.29076 0
M  V30 2644 C 253.219 -1.02962 1.34518 0
M  V30 2645 O 254.425 -0.965715 1.51901 0
M  V30 2646 H 250.8 -0.148879 0.737115 0
M  V30 2647 H 252.771 0.270295 2.97173 0
M  V30 2648 C 251.52 -1.49763 3.13794 0
M  V30 2649 H 250.843 -1.02508 3.86435 0
M  V30 2650 H 252.283 -2.05244 3.71014 0
M  V30 2651 C 250.742 -2.47536 2.28533 0
M  V30 2652 O 251.272 -3.51848 1.93819 0
M  V30 2653 N 249.478 -2.18187 1.91945 0
M  V30 2654 H 249.025 -1.33389 2.20375 0
M  V30 2655 H 248.983 -2.83848 1.35195 0
M  V30 2656 N 252.755 -1.56801 0.158532 0
M  V30 2657 C 254.003 -1.96102 -0.488712 0
M  V30 2658 C 254.324 -1.04498 -1.64636 0
M  V30 2659 O 253.594 -0.108783 -1.95598 0
M  V30 2660 H 252.174 -0.724102 -0.183535 0
M  V30 2661 H 254.836 -1.93457 0.236728 0
M  V30 2662 H 253.932 -3.00097 -0.857219 0
M  V30 2663 N 254.233 0.115231 -1.57178 0
M  V30 2664 C 255.644 0.67197 -1.74188 0
M  V30 2665 C 255.995 1.80125 -0.777777 0
M  V30 2666 O 255.12 2.16346 0.0484376 0
M  V30 2667 C 255.715 1.22573 -3.1585 0
M  V30 2668 C 254.274 1.72872 -3.34353 0
M  V30 2669 C 253.421 0.629972 -2.70049 0
M  V30 2670 H 256.372 -0.110712 -1.58313 0
M  V30 2671 H 256.393 2.09535 -3.17609 0
M  V30 2672 H 255.905 0.403598 -3.85996 0
M  V30 2673 H 254.006 2.5755 -2.69256 0
M  V30 2674 H 254.119 1.83557 -4.42542 0
M  V30 2675 H 252.483 1.0645 -2.31388 0
M  V30 2676 H 253.266 -0.181241 -3.42821 0
M  V30 2677 N 255.711 1.52812 0.385517 0
M  V30 2678 C 256.96 1.67249 1.12741 0
M  V30 2679 C 257.273 0.4205 1.91027 0
M  V30 2680 O 258.479 0.445064 2.67827 0
M  V30 2681 C 256.935 2.95583 2.05326 0
M  V30 2682 C 256.543 4.27974 1.32447 0
M  V30 2683 C 258.287 3.19386 2.7963 0
M  V30 2684 C 256.194 5.47412 2.23818 0
M  V30 2685 H 255.124 0.6231 0.424573 0
M  V30 2686 H 257.775 1.79309 0.389924 0
M  V30 2687 H 256.157 2.77277 2.82725 0
M  V30 2688 H 257.331 4.56844 0.602495 0
M  V30 2689 H 255.646 4.10459 0.700885 0
M  V30 2690 H 258.243 4.05801 3.48181 0
M  V30 2691 H 258.586 2.34604 3.43899 0
M  V30 2692 H 259.119 3.38274 2.09322 0
M  V30 2693 H 255.858 6.34612 1.64157 0
M  V30 2694 H 255.378 5.22849 2.93921 0
M  V30 2695 H 257.057 5.81423 2.83824 0
M  V30 2696 N 257.189 -0.644168 1.43834 0
M  V30 2697 C 258.137 -1.77793 1.49974 0
M  V30 2698 C 259.131 -1.65253 0.372536 0
M  V30 2699 O 260.337 -1.7149 0.546924 0
M  V30 2700 H 256.712 -0.58675 0.47035 0
M  V30 2701 H 258.683 -1.69736 2.45423 0
M  V30 2702 C 257.432 -3.16087 1.4486 0
M  V30 2703 H 256.755 -3.26378 2.30905 0
M  V30 2704 H 258.195 -3.95349 1.53217 0
M  V30 2705 C 256.654 -3.36484 0.167463 0
M  V30 2706 O 257.184 -3.94298 -0.767609 0
M  V30 2707 N 255.39 -2.90504 0.0747556 0
M  V30 2708 H 254.937 -2.4364 0.836507 0
M  V30 2709 H 254.895 -3.04527 -0.781714 0
M  V30 2710 N 258.668 -1.30515 -0.883378 0
M  V30 2711 C 259.917 -1.18795 -1.63005 0
M  V30 2712 C 260.23 0.255923 -1.93919 0
M  V30 2713 O 261.436 0.494654 -2.66956 0
M  V30 2714 C 259.892 -2.07878 -2.93794 0
M  V30 2715 C 259.5 -3.57184 -2.70414 0
M  V30 2716 C 261.244 -2.04924 -3.71761 0
M  V30 2717 C 259.151 -4.38317 -3.97029 0
M  V30 2718 H 258.081 -0.441031 -0.611562 0
M  V30 2719 H 260.732 -1.55275 -0.977854 0
M  V30 2720 H 259.114 -1.64283 -3.60315 0
M  V30 2721 H 260.288 -4.08937 -2.12384 0
M  V30 2722 H 258.603 -3.61976 -2.0582 0
M  V30 2723 H 261.2 -2.62792 -4.65665 0
M  V30 2724 H 261.543 -1.0331 -4.03277 0
M  V30 2725 H 262.076 -2.46649 -3.12104 0
M  V30 2726 H 258.815 -5.40632 -3.70671 0
M  V30 2727 H 258.335 -3.91326 -4.54559 0
M  V30 2728 H 260.014 -4.49834 -4.65036 0
M  V30 2729 N 260.146 1.09593 -1.13257 0
M  V30 2730 C 261.076 2.18214 -0.830946 0
M  V30 2731 C 262.057 1.68812 0.208966 0
M  V30 2732 O 263.242 1.9408 0.0682666 0
M  V30 2733 C 260.372 3.46051 -0.294296 0
M  V30 2734 C 259.326 4.08778 -1.26826 0
M  V30 2735 C 258.652 5.31419 -0.591449 0
M  V30 2736 C 259.952 4.51476 -2.62615 0
M  V30 2737 H 261.646 2.43703 -1.73923 0
M  V30 2738 H 259.192 1.17128 -0.837675 0
M  V30 2739 H 261.145 4.2134 -0.0709606 0
M  V30 2740 H 259.869 3.20079 0.649366 0
M  V30 2741 H 258.528 3.35505 -1.47756 0
M  V30 2742 H 258.176 5.01727 0.357633 0
M  V30 2743 H 257.876 5.74341 -1.24123 0
M  V30 2744 H 259.4 6.09433 -0.377355 0
M  V30 2745 H 260.814 5.17999 -2.45663 0
M  V30 2746 H 259.211 5.05277 -3.23752 0
M  V30 2747 H 260.281 3.63962 -3.20406 0
M  V30 2748 N 261.624 0.925811 1.2754 0
M  V30 2749 C 262.872 0.564138 1.94067 0
M  V30 2750 C 263.193 -0.897188 1.73134 0
M  V30 2751 O 262.463 -1.63573 1.07799 0
M  V30 2752 H 261.043 0.205645 0.718136 0
M  V30 2753 H 263.705 1.1778 1.55287 0
M  V30 2754 H 262.801 0.76881 3.02483 0
M  V30 2755 N 263.102 -1.41638 0.69111 0
M  V30 2756 C 264.012 -2.34588 0.0233487 0
M  V30 2757 C 265.028 -1.55987 -0.770984 0
M  V30 2758 O 266.204 -1.88486 -0.709569 0
M  V30 2759 C 263.269 -3.34684 -0.904851 0
M  V30 2760 C 262.33 -4.29176 -0.103225 0
M  V30 2761 C 261.563 -5.2449 -0.987216 0
M  V30 2762 O 261.786 -5.2514 -2.22674 0
M  V30 2763 O 260.72 -6.00295 -0.439281 0
M  V30 2764 H 264.546 -2.93261 0.789416 0
M  V30 2765 H 262.131 -1.42417 0.45142 0
M  V30 2766 H 264.013 -3.96133 -1.43724 0
M  V30 2767 H 262.688 -2.78461 -1.65049 0
M  V30 2768 H 261.595 -3.71089 0.473655 0
M  V30 2769 H 262.928 -4.88484 0.60365 0
M  V30 2770 N 264.58 -0.43555 -1.51462 0
M  V30 2771 C 265.828 0.131254 -2.01673 0
M  V30 2772 C 266.149 1.43368 -1.32177 0
M  V30 2773 O 265.419 1.90524 -0.455769 0
M  V30 2774 H 263.999 0.0514954 -0.745223 0
M  V30 2775 H 266.661 -0.577847 -1.86137 0
M  V30 2776 H 265.757 0.308446 -3.10572 0
M  V30 2777 N 266.058 1.56714 -0.166846 0
M  V30 2778 C 267.474 1.58473 0.189372 0
M  V30 2779 C 267.674 1.18201 1.63189 0
M  V30 2780 O 266.73 0.891528 2.36237 0
M  V30 2781 C 268.043 3.00573 -0.0873872 0
M  V30 2782 C 269.591 3.1299 -0.0252443 0
M  V30 2783 C 270.066 4.57174 -0.274934 0
M  V30 2784 N 271.557 4.62665 -0.222553 0
M  V30 2785 C 272.292 5.72072 -0.389985 0
M  V30 2786 N 271.788 6.90054 -0.616229 0
M  V30 2787 N 273.581 5.61153 -0.326202 0
M  V30 2788 H 265.732 1.8118 -1.10849 0
M  V30 2789 H 267.995 0.839525 -0.440342 0
M  V30 2790 H 267.701 3.34497 -1.0865 0
M  V30 2791 H 267.575 3.72019 0.623037 0
M  V30 2792 H 269.962 2.78895 0.96444 0
M  V30 2793 H 270.043 2.43989 -0.768309 0
M  V30 2794 H 269.687 4.91976 -1.26181 0
M  V30 2795 H 269.617 5.24328 0.48869 0
M  V30 2796 H 272.108 3.77863 -0.0531512 0
M  V30 2797 H 272.421 7.69311 -0.733559 0
M  V30 2798 H 270.766 6.91927 -0.652791 0
M  V30 2799 H 273.957 4.67859 -0.150072 0
M  V30 2800 H 274.13 6.46364 -0.460116 0
M  V30 2801 N 267.536 -0.106894 1.57237 0
M  V30 2802 C 268.466 -1.13148 2.04254 0
M  V30 2803 C 269.447 -1.42476 0.929224 0
M  V30 2804 O 270.632 -1.52709 1.19973 0
M  V30 2805 C 267.762 -2.4545 2.45706 0
M  V30 2806 C 266.716 -2.30558 3.60592 0
M  V30 2807 C 266.042 -3.67931 3.87983 0
M  V30 2808 C 267.342 -1.75597 4.91897 0
M  V30 2809 H 269.036 -0.740374 2.90101 0
M  V30 2810 H 266.582 -0.354696 1.39563 0
M  V30 2811 H 268.535 -3.17389 2.77205 0
M  V30 2812 H 267.259 -2.86475 1.56843 0
M  V30 2813 H 265.918 -1.61067 3.29322 0
M  V30 2814 H 265.566 -4.06462 2.96306 0
M  V30 2815 H 265.266 -3.58817 4.65322 0
M  V30 2816 H 266.79 -4.41356 4.21945 0
M  V30 2817 H 268.204 -2.37364 5.21854 0
M  V30 2818 H 266.601 -1.77272 5.73319 0
M  V30 2819 H 267.671 -0.714451 4.79608 0
M  V30 2820 N 269.014 -1.53014 -0.377408 0
M  V30 2821 C 269.977 -1.77957 -1.44444 0
M  V30 2822 C 270.977 -0.649763 -1.47087 0
M  V30 2823 O 272.167 -0.917897 -1.48055 0
M  V30 2824 C 269.299 -1.89089 -2.83651 0
M  V30 2825 H 270.492 -2.73243 -1.23606 0
M  V30 2826 H 268.045 -1.43912 -0.609844 0
M  V30 2827 H 268.78 -0.958293 -3.09818 0
M  V30 2828 H 268.565 -2.71254 -2.83132 0
M  V30 2829 H 270.055 -2.1002 -3.60945 0
M  V30 2830 N 270.492 0.636531 -1.44174 0
M  V30 2831 C 271.422 1.76003 -1.53444 0
M  V30 2832 C 272.403 1.65619 -0.387841 0
M  V30 2833 O 273.588 1.84461 -0.607257 0
M  V30 2834 C 270.718 3.14511 -1.4731 0
M  V30 2835 C 269.672 3.39677 -2.60391 0
M  V30 2836 C 268.998 4.78159 -2.39308 0
M  V30 2837 C 270.298 3.32772 -4.02567 0
M  V30 2838 H 271.992 1.68501 -2.47483 0
M  V30 2839 H 269.538 0.809237 -1.19111 0
M  V30 2840 H 271.491 3.92878 -1.52397 0
M  V30 2841 H 270.215 3.22783 -0.49785 0
M  V30 2842 H 268.874 2.63688 -2.54684 0
M  V30 2843 H 268.522 4.83128 -1.39988 0
M  V30 2844 H 268.222 4.95956 -3.15122 0
M  V30 2845 H 269.746 5.58762 -2.46205 0
M  V30 2846 H 271.16 4.01051 -4.09672 0
M  V30 2847 H 269.557 3.62104 -4.7854 0
M  V30 2848 H 270.627 2.30669 -4.2652 0
M  V30 2849 N 271.97 1.30982 0.876444 0
M  V30 2850 C 272.88 1.2003 2.01569 0
M  V30 2851 C 273.896 0.11838 1.73597 0
M  V30 2852 O 275.072 0.33495 1.98595 0
M  V30 2853 C 272.137 0.901637 3.34771 0
M  V30 2854 C 271.198 2.06979 3.76109 0
M  V30 2855 C 270.431 1.78529 5.02954 0
M  V30 2856 O 270.654 0.717296 5.65872 0
M  V30 2857 O 269.588 2.64019 5.40905 0
M  V30 2858 H 273.414 2.15753 2.13739 0
M  V30 2859 H 270.999 1.10658 1.00375 0
M  V30 2860 H 272.881 0.750645 4.1466 0
M  V30 2861 H 271.556 -0.0256141 3.2369 0
M  V30 2862 H 270.463 2.27616 2.96887 0
M  V30 2863 H 271.796 2.97907 3.91807 0
M  V30 2864 N 273.449 -1.08991 1.13837 0
M  V30 2865 C 274.396 -2.15748 0.819835 0
M  V30 2866 C 275.366 -1.64636 -0.220026 0
M  V30 2867 O 276.551 -1.90582 -0.0912757 0
M  V30 2868 C 273.691 -3.4382 0.296913 0
M  V30 2869 C 272.804 -4.0881 1.39636 0
M  V30 2870 C 271.939 -5.24655 0.831314 0
M  V30 2871 C 270.978 -5.81575 1.90886 0
M  V30 2872 N 270.115 -6.88774 1.36142 0
M  V30 2873 H 274.955 -2.42338 1.73426 0
M  V30 2874 H 272.492 -1.18935 0.865613 0
M  V30 2875 H 274.45 -4.17193 -0.0244339 0
M  V30 2876 H 273.08 -3.17535 -0.580628 0
M  V30 2877 H 272.132 -3.33258 1.83422 0
M  V30 2878 H 273.444 -4.47141 2.21058 0
M  V30 2879 H 272.598 -6.04942 0.461515 0
M  V30 2880 H 271.337 -4.87698 -0.013932 0
M  V30 2881 H 270.342 -4.99946 2.28767 0
M  V30 2882 H 271.567 -6.20592 2.75758 0
M  V30 2883 H 269.513 -6.53788 0.538254 0
M  V30 2884 H 269.43 -7.25898 2.11208 0
M  V30 2885 H 270.698 -7.72806 1.01933 0
M  V30 2886 N 274.927 -0.932562 -1.27047 0
M  V30 2887 C 275.89 -0.440064 -2.24936 0
M  V30 2888 C 276.89 0.444071 -1.54547 0
M  V30 2889 O 278.08 0.244465 -1.72476 0
M  V30 2890 C 275.212 0.36678 -3.38921 0
M  V30 2891 H 276.405 -1.305 -2.70018 0
M  V30 2892 H 273.958 -0.713707 -1.39054 0
M  V30 2893 H 274.693 1.25033 -2.99228 0
M  V30 2894 H 274.478 -0.267204 -3.91188 0
M  V30 2895 H 275.968 0.701567 -4.11665 0
M  V30 2896 N 276.405 1.4127 -0.698611 0
M  V30 2897 C 277.353 2.32588 -0.023855 0
M  V30 2898 C 278.347 1.51128 0.765292 0
M  V30 2899 O 279.553 1.67043 0.670571 0
M  V30 2900 H 275.928 0.751918 0.0110871 0
M  V30 2901 H 277.899 2.87167 -0.811031 0
M  V30 2902 C 276.648 3.35947 0.896369 0
M  V30 2903 H 275.971 3.98684 0.298548 0
M  V30 2904 H 277.411 4.02376 1.33676 0
M  V30 2905 C 275.87 2.70076 2.01396 0
M  V30 2906 O 276.4 2.55093 3.10307 0
M  V30 2907 N 274.606 2.28724 1.79259 0
M  V30 2908 H 274.153 2.4111 0.906841 0
M  V30 2909 H 274.111 1.84986 2.54219 0
M  V30 2910 N 277.883 0.443576 1.51229 0
M  V30 2911 C 278.815 -0.400608 2.25672 0
M  V30 2912 C 279.828 -0.980945 1.29928 0
M  V30 2913 O 281.017 -0.874024 1.55638 0
M  V30 2914 C 278.117 -1.57304 3.00181 0
M  V30 2915 C 277.29 -1.11046 4.23069 0
M  V30 2916 C 276.349 -2.15374 4.80105 0
M  V30 2917 O 275.375 -1.74554 5.41774 0
M  V30 2918 N 276.577 -3.47922 4.64683 0
M  V30 2919 H 279.342 0.23745 2.98758 0
M  V30 2920 H 276.903 0.272809 1.59585 0
M  V30 2921 H 278.895 -2.26733 3.35223 0
M  V30 2922 H 277.465 -2.11632 2.30066 0
M  V30 2923 H 276.685 -0.243019 3.9345 0
M  V30 2924 H 277.973 -0.778888 5.02803 0
M  V30 2925 H 277.371 -3.83815 4.15575 0
M  V30 2926 H 275.928 -4.13228 5.0407 0
M  V30 2927 N 279.361 -1.56624 0.175154 0
M  V30 2928 C 280.271 -2.21741 -0.766042 0
M  V30 2929 C 281.287 -1.21023 -1.25018 0
M  V30 2930 O 282.463 -1.53697 -1.3015 0
M  V30 2931 C 279.528 -2.84839 -1.97655 0
M  V30 2932 C 278.589 -4.00769 -1.53892 0
M  V30 2933 C 277.822 -4.60849 -2.69173 0
M  V30 2934 O 278.045 -4.19823 -3.86141 0
M  V30 2935 O 276.979 -5.50655 -2.43028 0
M  V30 2936 H 280.805 -3.02738 -0.241585 0
M  V30 2937 H 278.39 -1.49305 -0.053222 0
M  V30 2938 H 280.272 -3.24834 -2.68442 0
M  V30 2939 H 278.947 -2.06836 -2.48999 0
M  V30 2940 H 277.854 -3.65436 -0.80044 0
M  V30 2941 H 279.187 -4.80376 -1.07236 0
M  V30 2942 N 280.839 0.0985539 -1.57292 0
M  V30 2943 C 281.769 1.12064 -2.04851 0
M  V30 2944 C 282.75 1.41981 -0.936767 0
M  V30 2945 O 283.935 1.52071 -1.20781 0
M  V30 2946 C 281.065 2.44144 -2.47004 0
M  V30 2947 C 280.019 2.28643 -3.6181 0
M  V30 2948 C 279.345 3.65869 -3.89929 0
M  V30 2949 C 280.645 1.72986 -4.92822 0
M  V30 2950 H 282.339 0.724979 -2.9049 0
M  V30 2951 H 279.885 0.34729 -1.39749 0
M  V30 2952 H 281.838 3.15914 -2.78884 0
M  V30 2953 H 280.562 2.85639 -1.5836 0
M  V30 2954 H 279.221 1.59318 -3.30172 0
M  V30 2955 H 278.869 4.04885 -2.98458 0
M  V30 2956 H 278.569 3.56344 -4.67218 0
M  V30 2957 H 280.093 4.39112 -4.2428 0
M  V30 2958 H 281.507 2.34593 -5.23105 0
M  V30 2959 H 279.904 1.74229 -5.74251 0
M  V30 2960 H 280.974 0.689007 -4.7998 0
M  V30 2961 N 282.317 1.53212 0.369288 0
M  V30 2962 C 283.565 1.68881 1.11012 0
M  V30 2963 C 283.886 0.441285 1.89941 0
M  V30 2964 O 283.156 -0.544623 1.88177 0
M  V30 2965 H 281.736 0.622569 0.412816 0
M  V30 2966 H 284.398 1.90391 0.416802 0
M  V30 2967 H 283.494 2.54822 1.80201 0
M  V30 2968 N 283.795 -0.628877 1.44509 0
M  V30 2969 C 284.725 -1.75187 1.54376 0
M  V30 2970 C 285.706 -1.65411 0.396618 0
M  V30 2971 O 286.891 -1.84137 0.617031 0
M  V30 2972 C 284.021 -3.13725 1.48976 0
M  V30 2973 C 282.975 -3.38291 2.62189 0
M  V30 2974 C 282.301 -4.76883 2.41841 0
M  V30 2975 C 283.601 -3.30632 4.04326 0
M  V30 2976 H 285.295 -1.67187 2.48373 0
M  V30 2977 H 282.841 -0.802909 1.19538 0
M  V30 2978 H 284.794 -3.92064 1.54478 0
M  V30 2979 H 283.518 -3.22515 0.514961 0
M  V30 2980 H 282.177 -2.62334 2.56079 0
M  V30 2981 H 281.825 -4.82378 1.42548 0
M  V30 2982 H 281.525 -4.94278 3.17747 0
M  V30 2983 H 283.049 -5.57449 2.49165 0
M  V30 2984 H 284.463 -3.98873 4.11793 0
M  V30 2985 H 282.86 -3.59561 4.80454 0
M  V30 2986 H 283.93 -2.28404 4.27738 0
M  V30 2987 N 285.273 -1.31445 -0.869486 0
M  V30 2988 C 286.236 -1.19094 -1.9583 0
M  V30 2989 C 287.236 -0.117906 -1.60367 0
M  V30 2990 O 288.426 -0.367208 -1.70286 0
M  V30 2991 C 285.558 -0.828165 -3.30688 0
M  V30 2992 H 286.751 -2.15842 -2.08212 0
M  V30 2993 H 284.304 -1.15063 -1.05784 0
M  V30 2994 H 285.039 0.138142 -3.24006 0
M  V30 2995 H 284.824 -1.6038 -3.578 0
M  V30 2996 H 286.314 -0.765658 -4.10521 0
M  V30 2997 N 286.751 1.08385 -1.14413 0
M  V30 2998 C 287.681 2.17321 -0.854044 0
M  V30 2999 C 288.662 1.69024 0.191049 0
M  V30 3000 O 289.847 1.94141 0.0476779 0
M  V30 3001 C 286.977 3.45719 -0.330983 0
M  V30 3002 C 285.931 4.07409 -1.31155 0
M  V30 3003 C 285.257 5.30762 -0.64778 0
M  V30 3004 C 286.557 4.48665 -2.67388 0
M  V30 3005 H 288.251 2.41845 -1.76498 0
M  V30 3006 H 285.797 1.16233 -0.850051 0
M  V30 3007 H 287.75 4.21241 -0.115645 0
M  V30 3008 H 286.474 3.2075 0.615381 0
M  V30 3009 H 285.133 3.33919 -1.51306 0
M  V30 3010 H 284.781 5.02078 0.304398 0
M  V30 3011 H 284.481 5.72992 -1.30207 0
M  V30 3012 H 286.005 6.08998 -0.441972 0
M  V30 3013 H 287.419 5.15364 -2.51143 0
M  V30 3014 H 285.816 5.01814 -3.29093 0
M  V30 3015 H 286.886 3.60543 -3.24248 0
M  V30 3016 N 288.23 0.939286 1.26551 0
M  V30 3017 C 289.507 0.5038 1.89001 0
M  V30 3018 C 289.887 -1.01854 1.84903 0
M  V30 3019 O 289.235 -1.87773 1.30206 0
M  V30 3020 C 289.445 1.063 3.32417 0
M  V30 3021 C 290.793 1.13051 4.09273 0
M  V30 3022 O 291.817 1.01345 3.41479 0
M  V30 3023 O 290.676 1.31233 5.30509 0
M  V30 3024 H 287.77 0.163897 0.810597 0
M  V30 3025 H 290.316 1.03173 1.34735 0
M  V30 3026 H 289.088 2.10665 3.29752 0
M  V30 3027 H 288.711 0.517408 3.94219 0
M  V30 3028 N 289.708 -1.40897 0.706093 0
M  V30 3029 C 290.933 -2.05895 0.249435 0
M  V30 3030 C 291.358 -1.52823 -1.09666 0
M  V30 3031 O 290.716 -0.659589 -1.68876 0
M  V30 3032 C 290.764 -3.59872 0.22904 0
M  V30 3033 O 289.868 -4.04708 -0.792784 0
M  V30 3034 H 289.209 -0.653206 0.119241 0
M  V30 3035 H 291.739 -1.80471 0.96391 0
M  V30 3036 H 291.749 -4.07951 0.0634791 0
M  V30 3037 H 290.424 -3.97866 1.21141 0
M  V30 3038 H 289.001 -3.68111 -0.59572 0
M  V30 3039 N 291.186 -0.45159 -1.50991 0
M  V30 3040 C 292.432 0.102439 -2.03142 0
M  V30 3041 C 292.787 1.39138 -1.32884 0
M  V30 3042 O 292.08 1.86493 -0.439438 0
M  V30 3043 C 292.274 0.361728 -3.55565 0
M  V30 3044 C 292.103 -0.900535 -4.40591 0
M  V30 3045 C 290.873 -1.43821 -4.844 0
M  V30 3046 C 293.071 -1.79063 -4.82121 0
M  V30 3047 N 291.053 -2.65153 -5.53685 0
M  V30 3048 C 292.424 -2.84991 -5.50618 0
M  V30 3049 C 294.479 -1.80334 -4.64095 0
M  V30 3050 C 293.182 -3.92155 -6.02998 0
M  V30 3051 C 295.208 -2.86442 -5.17402 0
M  V30 3052 C 294.57 -3.9109 -5.85857 0
M  V30 3053 H 290.669 -0.00204537 -0.781997 0
M  V30 3054 H 293.253 -0.615446 -1.84717 0
M  V30 3055 H 291.424 1.04865 -3.73976 0
M  V30 3056 H 293.156 0.908372 -3.94374 0
M  V30 3057 H 289.911 -0.990117 -4.63135 0
M  V30 3058 H 290.335 -3.26717 -5.92946 0
M  V30 3059 H 294.977 -1.00753 -4.1062 0
M  V30 3060 H 292.695 -4.72565 -6.55521 0
M  V30 3061 H 296.281 -2.88386 -5.05297 0
M  V30 3062 H 295.161 -4.71845 -6.26364 0
M  V30 3063 N 292.664 1.56529 -0.183458 0
M  V30 3064 C 293.941 1.88959 0.50536 0
M  V30 3065 C 294.321 1.09523 1.80466 0
M  V30 3066 O 293.669 0.19278 2.27685 0
M  V30 3067 C 293.879 3.41162 0.73547 0
M  V30 3068 C 295.227 4.11155 1.06005 0
M  V30 3069 O 296.251 3.46548 0.823594 0
M  V30 3070 O 295.11 5.25318 1.50675 0
M  V30 3071 H 292.204 0.78441 0.261973 0
M  V30 3072 H 294.75 1.68231 -0.222802 0
M  V30 3073 H 293.522 3.90874 -0.182561 0
M  V30 3074 H 293.145 3.67543 1.51651 0
M  V30 3075 N 294.142 -0.090211 1.57342 0
M  V30 3076 C 295.072 -1.10976 2.05443 0
M  V30 3077 C 296.053 -1.41482 0.944284 0
M  V30 3078 O 297.238 -1.51428 1.21586 0
M  V30 3079 C 294.368 -2.42831 2.48295 0
M  V30 3080 C 293.322 -2.26721 3.63018 0
M  V30 3081 C 292.648 -3.63796 3.91863 0
M  V30 3082 C 293.948 -1.7037 4.93732 0
M  V30 3083 H 295.642 -0.709564 2.9087 0
M  V30 3084 H 293.188 -0.339874 1.39932 0
M  V30 3085 H 295.141 -3.14431 2.80555 0
M  V30 3086 H 293.865 -2.84795 1.59873 0
M  V30 3087 H 292.524 -1.57565 3.31012 0
M  V30 3088 H 292.172 -4.03297 3.00601 0
M  V30 3089 H 291.872 -3.53861 4.69101 0
M  V30 3090 H 293.396 -4.36855 4.26603 0
M  V30 3091 H 294.81 -2.31816 5.24342 0
M  V30 3092 H 293.207 -1.71181 5.75167 0
M  V30 3093 H 294.277 -0.663542 4.80339 0
M  V30 3094 N 295.62 -1.53406 -0.361157 0
M  V30 3095 C 296.897 -1.60411 -1.11927 0
M  V30 3096 C 297.277 -0.414385 -2.06993 0
M  V30 3097 O 296.625 0.594976 -2.20618 0
M  V30 3098 C 296.835 -2.95652 -1.85448 0
M  V30 3099 C 298.183 -3.50386 -2.39823 0
M  V30 3100 O 299.207 -2.97711 -1.95568 0
M  V30 3101 O 298.066 -4.42482 -3.20737 0
M  V30 3102 H 295.16 -0.64811 -0.513695 0
M  V30 3103 H 297.706 -1.65749 -0.364065 0
M  V30 3104 H 296.478 -3.73682 -1.16091 0
M  V30 3105 H 296.101 -2.93825 -2.67866 0
M  V30 3106 N 297.098 0.621204 -1.44841 0
M  V30 3107 C 298.345 1.38055 -1.48145 0
M  V30 3108 C 298.673 1.94143 -0.117867 0
M  V30 3109 O 297.928 1.74713 0.881694 0
M  V30 3110 C 298.227 2.55675 -2.4973 0
M  V30 3111 C 297.893 2.17817 -3.94799 0
M  V30 3112 C 296.555 2.07205 -4.34303 0
M  V30 3113 C 298.907 1.88065 -4.86087 0
M  V30 3114 C 296.235 1.65045 -5.63007 0
M  V30 3115 C 298.587 1.47394 -6.15189 0
M  V30 3116 C 297.251 1.35331 -6.53637 0
M  V30 3117 H 296.521 0.505181 -0.542101 0
M  V30 3118 H 299.168 0.703477 -1.78111 0
M  V30 3119 H 297.473 3.2866 -2.13284 0
M  V30 3120 H 299.17 3.13904 -2.4953 0
M  V30 3121 H 295.76 2.26998 -3.63552 0
M  V30 3122 H 299.944 1.95168 -4.56315 0
M  V30 3123 H 295.2 1.54317 -5.91605 0
M  V30 3124 H 299.374 1.23415 -6.85377 0
M  V30 3125 H 297.001 1.02435 -7.53267 0
M  V30 3126 N 298.576 1.31904 0.862503 0
M  V30 3127 C 299.806 1.24817 1.64634 0
M  V30 3128 C 300.214 -0.187579 1.88268 0
M  V30 3129 O 299.557 -1.13253 1.44635 0
M  V30 3130 C 299.619 1.92996 3.03303 0
M  V30 3131 C 299.283 3.42336 3.02746 0
M  V30 3132 C 300.28 4.37956 2.80162 0
M  V30 3133 C 297.965 3.84147 3.2363 0
M  V30 3134 C 299.959 5.73361 2.78453 0
M  V30 3135 C 297.646 5.19663 3.21549 0
M  V30 3136 C 298.644 6.14081 2.98988 0
M  V30 3137 O 298.332 7.47118 2.96766 0
M  V30 3138 H 298.064 0.432222 0.519769 0
M  V30 3139 H 300.618 1.7445 1.08427 0
M  V30 3140 H 298.848 1.37922 3.61268 0
M  V30 3141 H 300.537 1.79723 3.63943 0
M  V30 3142 H 301.303 4.06981 2.63802 0
M  V30 3143 H 297.182 3.11083 3.40218 0
M  V30 3144 H 300.726 6.4703 2.60763 0
M  V30 3145 H 296.623 5.5027 3.37451 0
M  V30 3146 H 297.391 7.56382 3.12775 0
M  V30 3147 N 300.054 -1.07777 1.14986 0
M  V30 3148 C 301.282 -1.84018 0.945773 0
M  V30 3149 C 301.697 -1.81897 -0.505863 0
M  V30 3150 O 301.054 -1.22726 -1.35072 0
M  V30 3151 C 301.105 -3.31287 1.44677 0
M  V30 3152 O 300.826 -3.33449 2.84154 0
M  V30 3153 C 302.327 -4.24311 1.28355 0
M  V30 3154 H 299.547 -0.580716 0.336169 0
M  V30 3155 H 302.091 -1.36077 1.52654 0
M  V30 3156 H 300.246 -3.76594 0.908625 0
M  V30 3157 H 300.66 -4.25427 3.06777 0
M  V30 3158 H 302.134 -5.2573 1.68261 0
M  V30 3159 H 302.611 -4.38612 0.227184 0
M  V30 3160 H 303.217 -3.84836 1.81056 0
M  V30 3161 N 301.532 -0.945985 -1.26051 0
M  V30 3162 C 302.479 -0.45809 -2.26208 0
M  V30 3163 C 303.449 0.484816 -1.58867 0
M  V30 3164 O 304.634 0.399969 -1.86561 0
M  V30 3165 C 301.774 0.266131 -3.44072 0
M  V30 3166 C 300.887 -0.713005 -4.26075 0
M  V30 3167 C 300.022 0.0329013 -5.3119 0
M  V30 3168 C 299.061 -0.93774 -6.04874 0
M  V30 3169 N 298.198 -0.223274 -7.01745 0
M  V30 3170 H 303.038 -1.3171 -2.67313 0
M  V30 3171 H 300.575 -0.66069 -1.31428 0
M  V30 3172 H 302.533 0.702514 -4.11243 0
M  V30 3173 H 301.163 1.08925 -3.03867 0
M  V30 3174 H 300.215 -1.26789 -3.58648 0
M  V30 3175 H 301.527 -1.45406 -4.77136 0
M  V30 3176 H 300.681 0.528335 -6.04395 0
M  V30 3177 H 299.42 0.806801 -4.8098 0
M  V30 3178 H 298.425 -1.44425 -5.30492 0
M  V30 3179 H 299.65 -1.71172 -6.57173 0
M  V30 3180 H 297.596 0.532046 -6.53839 0
M  V30 3181 H 297.513 -0.90357 -7.50581 0
M  V30 3182 H 298.781 0.250907 -7.79096 0
M  V30 3183 N 303.011 1.40521 -0.713556 0
M  V30 3184 C 304.427 1.54839 -0.386907 0
M  V30 3185 C 304.627 1.68532 1.1045 0
M  V30 3186 O 303.683 1.67377 1.89053 0
M  V30 3187 C 304.996 2.77792 -1.15118 0
M  V30 3188 C 306.544 2.91607 -1.13729 0
M  V30 3189 C 307.019 4.1747 -1.88368 0
M  V30 3190 N 308.51 4.24466 -1.85427 0
M  V30 3191 C 309.245 5.20755 -2.40004 0
M  V30 3192 N 308.741 6.22965 -3.03129 0
M  V30 3193 N 310.534 5.1282 -2.30158 0
M  V30 3194 H 302.685 1.29879 -1.68063 0
M  V30 3195 H 304.948 0.627896 -0.710247 0
M  V30 3196 H 304.654 2.73944 -2.20561 0
M  V30 3197 H 304.528 3.6984 -0.741477 0
M  V30 3198 H 306.915 2.94959 -0.0910608 0
M  V30 3199 H 306.996 2.00682 -1.5862 0
M  V30 3200 H 306.64 4.1488 -2.9298 0
M  V30 3201 H 306.57 5.074 -1.40898 0
M  V30 3202 H 309.061 3.51241 -1.3942 0
M  V30 3203 H 309.374 6.92859 -3.42295 0
M  V30 3204 H 307.719 6.23415 -3.07212 0
M  V30 3205 H 310.91 4.31899 -1.80501 0
M  V30 3206 H 311.083 5.87689 -2.72993 0
M  V30 3207 N 304.489 0.459591 1.5075 0
M  V30 3208 C 305.736 -0.0993495 2.02256 0
M  V30 3209 C 306.064 -1.40751 1.34237 0
M  V30 3210 O 305.319 -1.90379 0.453228 0
M  V30 3211 C 305.618 -0.342866 3.55752 0
M  V30 3212 C 305.284 0.88218 4.42186 0
M  V30 3213 C 303.946 1.21808 4.65528 0
M  V30 3214 C 306.298 1.69837 4.92752 0
M  V30 3215 C 303.626 2.37045 5.36681 0
M  V30 3216 C 305.978 2.84192 5.65171 0
M  V30 3217 C 304.642 3.1821 5.8677 0
M  V30 3218 H 303.912 -0.0363545 0.740108 0
M  V30 3219 H 306.559 0.611329 1.8148 0
M  V30 3220 H 304.864 -1.13567 3.7498 0
M  V30 3221 H 306.561 -0.789121 3.93159 0
M  V30 3222 H 303.151 0.610467 4.2423 0
M  V30 3223 H 307.335 1.45205 4.74583 0
M  V30 3224 H 302.591 2.63689 5.51614 0
M  V30 3225 H 306.765 3.4779 6.03337 0
M  V30 3226 H 304.392 4.07613 6.41682 0
M  V30 3227 N 305.967 -1.56429 0.191757 0
M  V30 3228 C 306.899 -2.16154 -0.762245 0
M  V30 3229 C 307.912 -1.12247 -1.17917 0
M  V30 3230 O 309.101 -1.39353 -1.11548 0
M  V30 3231 C 306.201 -2.70606 -2.04024 0
M  V30 3232 C 305.374 -3.99381 -1.78364 0
M  V30 3233 C 304.433 -4.38692 -2.90578 0
M  V30 3234 O 303.459 -5.06179 -2.6033 0
M  V30 3235 N 304.661 -4.01922 -4.18854 0
M  V30 3236 H 307.426 -2.98643 -0.251526 0
M  V30 3237 H 304.987 -1.61897 0.00967373 0
M  V30 3238 H 306.979 -2.93891 -2.78227 0
M  V30 3239 H 305.549 -1.9259 -2.46227 0
M  V30 3240 H 304.769 -3.84262 -0.879581 0
M  V30 3241 H 306.057 -4.83445 -1.58614 0
M  V30 3242 H 305.455 -3.47631 -4.46283 0
M  V30 3243 H 304.012 -4.30165 -4.89695 0
M  V30 3244 N 307.445 0.0818655 -1.57387 0
M  V30 3245 C 308.355 1.11642 -2.06333 0
M  V30 3246 C 309.371 1.43033 -0.99083 0
M  V30 3247 O 310.547 1.53411 -1.30488 0
M  V30 3248 C 307.612 2.41342 -2.48907 0
M  V30 3249 C 306.673 2.17014 -3.7041 0
M  V30 3250 C 305.906 3.4053 -4.10944 0
M  V30 3251 O 306.129 4.4927 -3.51444 0
M  V30 3252 O 305.063 3.29336 -5.03807 0
M  V30 3253 H 308.889 0.730657 -2.9478 0
M  V30 3254 H 306.474 0.295301 -1.46452 0
M  V30 3255 H 308.356 3.17691 -2.76858 0
M  V30 3256 H 307.031 2.79319 -1.63593 0
M  V30 3257 H 305.938 1.38403 -3.47556 0
M  V30 3258 H 307.271 1.83923 -4.56545 0
M  V30 3259 N 308.923 1.53595 0.353017 0
M  V30 3260 C 309.853 1.83902 1.43883 0
M  V30 3261 C 310.834 0.693421 1.55324 0
M  V30 3262 O 312.019 0.944452 1.69687 0
M  V30 3263 C 309.149 2.04016 2.8106 0
M  V30 3264 C 308.103 3.19814 2.84434 0
M  V30 3265 C 307.429 3.25244 4.24406 0
M  V30 3266 C 308.729 4.58133 2.50822 0
M  V30 3267 H 310.423 2.74835 1.1877 0
M  V30 3268 H 307.969 1.32242 0.569917 0
M  V30 3269 H 309.922 2.238 3.57059 0
M  V30 3270 H 308.646 1.09804 3.07588 0
M  V30 3271 H 307.305 2.9987 2.10887 0
M  V30 3272 H 306.953 2.28646 4.48029 0
M  V30 3273 H 306.653 4.03054 4.27576 0
M  V30 3274 H 308.177 3.47228 5.0226 0
M  V30 3275 H 309.591 4.77995 3.16534 0
M  V30 3276 H 307.988 5.38276 2.6529 0
M  V30 3277 H 309.058 4.62387 1.46034 0
M  V30 3278 N 310.401 -0.613514 1.45168 0
M  V30 3279 C 311.333 -1.73825 1.4939 0
M  V30 3280 C 312.346 -1.58175 0.385304 0
M  V30 3281 O 313.535 -1.66165 0.652036 0
M  V30 3282 C 310.635 -3.11758 1.32891 0
M  V30 3283 C 309.808 -3.53704 2.57317 0
M  V30 3284 C 308.867 -4.70579 2.35462 0
M  V30 3285 O 307.893 -4.77996 3.09044 0
M  V30 3286 N 309.095 -5.63454 1.39644 0
M  V30 3287 H 311.86 -1.70669 2.46358 0
M  V30 3288 H 309.421 -0.79862 1.40832 0
M  V30 3289 H 311.413 -3.87692 1.1609 0
M  V30 3290 H 309.983 -3.09456 0.442218 0
M  V30 3291 H 309.203 -2.67794 2.89275 0
M  V30 3292 H 310.491 -3.78486 3.40038 0
M  V30 3293 H 309.889 -5.6017 0.789062 0
M  V30 3294 H 308.446 -6.38944 1.28816 0
M  V30 3295 N 311.879 -1.3236 -0.855495 0
M  V30 3296 C 313.295 -1.11332 -1.14356 0
M  V30 3297 C 313.495 0.106751 -2.01217 0
M  V30 3298 O 312.551 0.791891 -2.39761 0
M  V30 3299 C 313.864 -2.39237 -1.82171 0
M  V30 3300 C 315.412 -2.44986 -1.9481 0
M  V30 3301 C 315.887 -3.7281 -2.66039 0
M  V30 3302 N 317.378 -3.73787 -2.73565 0
M  V30 3303 C 318.113 -4.69394 -3.29327 0
M  V30 3304 N 317.609 -5.75367 -3.85907 0
M  V30 3305 N 319.402 -4.56893 -3.27423 0
M  V30 3306 H 311.553 -2.10586 -0.277027 0
M  V30 3307 H 313.816 -0.929701 -0.185364 0
M  V30 3308 H 313.522 -3.28431 -1.25802 0
M  V30 3309 H 313.396 -2.50134 -2.82335 0
M  V30 3310 H 315.783 -1.56252 -2.50338 0
M  V30 3311 H 315.864 -2.38043 -0.936448 0
M  V30 3312 H 315.508 -4.61918 -2.11174 0
M  V30 3313 H 315.438 -3.77024 -3.67642 0
M  V30 3314 H 317.929 -2.97189 -2.33424 0
M  V30 3315 H 318.242 -6.44378 -4.26611 0
M  V30 3316 H 316.587 -5.79123 -3.84242 0
M  V30 3317 H 319.778 -3.73269 -2.82467 0
M  V30 3318 H 319.951 -5.31577 -3.7058 0
M  V30 3319 N 313.357 1.07166 -1.15556 0
M  V30 3320 C 314.305 2.16517 -0.8499 0
M  V30 3321 C 315.299 1.68468 0.177454 0
M  V30 3322 O 316.505 1.79971 0.0323026 0
M  V30 3323 H 312.88 0.706652 -0.25719 0
M  V30 3324 H 314.851 2.39514 -1.77976 0
M  V30 3325 C 313.6 3.45855 -0.357682 0
M  V30 3326 H 312.923 3.83214 -1.13961 0
M  V30 3327 H 314.363 4.23607 -0.182489 0
M  V30 3328 C 312.822 3.24062 0.921152 0
M  V30 3329 O 313.352 3.48813 1.9923 0
M  V30 3330 N 311.558 2.77539 0.86141 0
M  V30 3331 H 311.105 2.57598 -0.0104408 0
M  V30 3332 H 311.063 2.63337 1.71758 0
M  V30 3333 N 314.835 0.952656 1.25548 0
M  V30 3334 C 316.246 0.647392 1.75116 0
M  V30 3335 C 316.597 -0.837274 1.77438 0
M  V30 3336 O 315.722 -1.65525 1.39393 0
M  V30 3337 C 316.317 1.16845 3.18014 0
M  V30 3338 C 314.876 0.913382 3.6515 0
M  V30 3339 C 314.023 1.31265 2.44264 0
M  V30 3340 H 316.974 1.12968 1.11462 0
M  V30 3341 H 316.995 0.527606 3.76824 0
M  V30 3342 H 316.507 2.24902 3.16292 0
M  V30 3343 H 314.608 -0.152316 3.72289 0
M  V30 3344 H 314.721 1.54845 4.53387 0
M  V30 3345 H 313.085 0.731028 2.43984 0
M  V30 3346 H 313.868 2.40239 2.45234 0
M  V30 3347 N 316.313 -1.40141 0.720998 0
M  V30 3348 C 317.538 -2.05618 0.271258 0
M  V30 3349 C 317.963 -1.53978 -1.08039 0
M  V30 3350 O 317.321 -0.677463 -1.68167 0
M  V30 3351 C 317.369 -3.59609 0.267197 0
M  V30 3352 O 316.473 -4.05526 -0.749814 0
M  V30 3353 H 315.814 -0.651904 0.126162 0
M  V30 3354 H 318.344 -1.79439 0.982997 0
M  V30 3355 H 318.354 -4.0786 0.106744 0
M  V30 3356 H 317.029 -3.96559 1.25354 0
M  V30 3357 H 315.606 -3.68722 -0.556644 0
M  V30 3358 N 317.792 -0.46758 -1.50504 0
M  V30 3359 C 319.02 0.0864133 -2.06719 0
M  V30 3360 C 319.435 1.33819 -1.33184 0
M  V30 3361 O 318.792 1.78061 -0.400083 0
M  V30 3362 C 318.843 0.378079 -3.59517 0
M  V30 3363 O 318.564 -0.824044 -4.3028 0
M  V30 3364 C 320.065 0.979426 -4.32345 0
M  V30 3365 H 317.285 -0.00551697 -0.670977 0
M  V30 3366 H 319.829 -0.655354 -1.93715 0
M  V30 3367 H 317.984 1.06977 -3.72337 0
M  V30 3368 H 318.398 -0.566518 -5.21432 0
M  V30 3369 H 319.872 1.1333 -5.40241 0
M  V30 3370 H 320.349 1.9686 -3.9261 0
M  V30 3371 H 320.955 0.326216 -4.24047 0
M  V30 3372 N 319.27 1.56325 -0.20005 0
M  V30 3373 C 320.516 1.98012 0.438059 0
M  V30 3374 C 320.849 1.08702 1.60927 0
M  V30 3375 O 320.124 0.140064 1.93995 0
M  V30 3376 C 320.407 3.48841 0.893419 0
M  V30 3377 C 320.26 4.48928 -0.279947 0
M  V30 3378 C 321.579 4.03498 1.75719 0
M  V30 3379 H 318.698 0.719918 0.157757 0
M  V30 3380 H 321.34 1.87743 -0.291968 0
M  V30 3381 H 319.49 3.57723 1.51547 0
M  V30 3382 H 321.162 4.52079 -0.91772 0
M  V30 3383 H 319.405 4.23694 -0.930919 0
M  V30 3384 H 320.076 5.5194 0.0812601 0
M  V30 3385 H 322.552 3.97427 1.23253 0
M  V30 3386 H 321.428 5.09393 2.04476 0
M  V30 3387 H 321.689 3.4906 2.71311 0
M  V30 3388 N 320.748 -0.0735177 1.57428 0
M  V30 3389 C 321.658 -1.10547 2.06922 0
M  V30 3390 C 322.674 -1.42506 0.998402 0
M  V30 3391 O 323.85 -1.52717 1.31299 0
M  V30 3392 C 320.915 -2.40019 2.50184 0
M  V30 3393 C 319.976 -2.15046 3.71556 0
M  V30 3394 C 319.209 -3.38345 4.12745 0
M  V30 3395 O 319.432 -4.47399 3.53822 0
M  V30 3396 O 318.366 -3.2666 5.05546 0
M  V30 3397 H 322.192 -0.715013 2.95163 0
M  V30 3398 H 319.777 -0.287531 1.46607 0
M  V30 3399 H 321.659 -3.16218 2.78539 0
M  V30 3400 H 320.334 -2.78447 1.65072 0
M  V30 3401 H 319.241 -1.36558 3.48285 0
M  V30 3402 H 320.574 -1.81499 4.57514 0
M  V30 3403 N 322.226 -1.5378 -0.344866 0
M  V30 3404 C 323.189 -1.80981 -1.40637 0
M  V30 3405 C 324.189 -0.680816 -1.45676 0
M  V30 3406 O 325.379 -0.949095 -1.46075 0
M  V30 3407 C 322.511 -1.95063 -2.79577 0
M  V30 3408 H 323.704 -2.75803 -1.17783 0
M  V30 3409 H 321.257 -1.45173 -0.579181 0
M  V30 3410 H 321.992 -1.02379 -3.07716 0
M  V30 3411 H 321.777 -2.77198 -2.77315 0
M  V30 3412 H 323.267 -2.17629 -3.56409 0
M  V30 3413 N 323.704 0.605807 -1.45491 0
M  V30 3414 C 324.951 1.36476 -1.49601 0
M  V30 3415 C 325.279 1.94007 -0.138452 0
M  V30 3416 O 324.534 1.75638 0.863114 0
M  V30 3417 C 324.833 2.53012 -2.52428 0
M  V30 3418 C 324.499 2.13617 -3.97087 0
M  V30 3419 C 323.161 2.02587 -4.36477 0
M  V30 3420 C 325.513 1.82899 -4.88055 0
M  V30 3421 C 322.841 1.59064 -5.64726 0
M  V30 3422 C 325.193 1.40861 -6.16718 0
M  V30 3423 C 323.857 1.28391 -6.55036 0
M  V30 3424 H 323.127 0.499402 -0.547429 0
M  V30 3425 H 325.774 0.684546 -1.78847 0
M  V30 3426 H 324.079 3.26379 -2.16758 0
M  V30 3427 H 325.776 3.1124 -2.52845 0
M  V30 3428 H 322.366 2.23129 -3.65939 0
M  V30 3429 H 326.55 1.90317 -4.58359 0
M  V30 3430 H 321.806 1.48034 -5.93208 0
M  V30 3431 H 325.98 1.16138 -6.86648 0
M  V30 3432 H 323.607 0.944403 -7.54311 0
M  V30 3433 N 325.182 1.32811 0.848464 0
M  V30 3434 C 326.459 1.14334 1.58704 0
M  V30 3435 C 326.839 -0.293948 2.09043 0
M  V30 3436 O 326.187 -1.29153 1.88499 0
M  V30 3437 C 326.397 2.17626 2.72837 0
M  V30 3438 C 327.745 2.51282 3.42261 0
M  V30 3439 O 328.769 2.16219 2.83068 0
M  V30 3440 O 327.628 3.11413 4.49093 0
M  V30 3441 H 324.722 0.441601 0.699226 0
M  V30 3442 H 327.268 1.44362 0.892053 0
M  V30 3443 H 326.04 3.14211 2.3321 0
M  V30 3444 H 325.663 1.88628 3.50008 0
M  V30 3445 N 326.66 -1.06551 1.16123 0
M  V30 3446 C 327.59 -2.15935 0.88851 0
M  V30 3447 C 328.571 -1.69306 -0.164135 0
M  V30 3448 O 329.756 -1.94193 -0.0167857 0
M  V30 3449 C 326.886 -3.45149 0.385942 0
M  V30 3450 C 325.84 -4.05271 1.3762 0
M  V30 3451 C 325.166 -5.29664 0.732137 0
M  V30 3452 C 326.466 -4.44355 2.74493 0
M  V30 3453 H 328.16 -2.39006 1.80323 0
M  V30 3454 H 325.706 -1.14866 0.868435 0
M  V30 3455 H 327.659 -4.21004 0.182647 0
M  V30 3456 H 326.383 -3.21689 -0.564274 0
M  V30 3457 H 325.042 -3.3147 1.56599 0
M  V30 3458 H 324.69 -5.02499 -0.224483 0
M  V30 3459 H 324.39 -5.70848 1.39307 0
M  V30 3460 H 325.914 -6.08218 0.538802 0
M  V30 3461 H 327.328 -5.11303 2.59311 0
M  V30 3462 H 325.725 -4.96515 3.37035 0
M  V30 3463 H 326.795 -3.55339 3.29943 0
M  V30 3464 N 328.138 -0.959301 -1.25041 0
M  V30 3465 C 329.101 -0.487677 -2.23952 0
M  V30 3466 C 330.101 0.41119 -1.55454 0
M  V30 3467 O 331.291 0.207825 -1.72956 0
M  V30 3468 C 328.423 0.294807 -3.39623 0
M  V30 3469 H 329.616 -1.36198 -2.67189 0
M  V30 3470 H 327.169 -0.743042 -1.37508 0
M  V30 3471 H 327.904 1.18658 -3.01813 0
M  V30 3472 H 327.689 -0.35012 -3.90534 0
M  V30 3473 H 329.179 0.614089 -4.1306 0
M  V30 3474 N 329.616 1.39756 -0.72842 0
M  V30 3475 C 330.548 2.29157 -0.0446202 0
M  V30 3476 C 331.561 1.46484 0.710367 0
M  V30 3477 O 332.75 1.69632 0.55562 0
M  V30 3478 C 329.85 3.24987 0.961071 0
M  V30 3479 C 329.023 4.36572 0.268967 0
M  V30 3480 C 328.082 5.12756 1.18184 0
M  V30 3481 O 327.108 5.6534 0.661794 0
M  V30 3482 N 328.31 5.23331 2.51206 0
M  V30 3483 H 331.075 2.88482 -0.812295 0
M  V30 3484 H 328.636 1.51265 -0.577098 0
M  V30 3485 H 330.628 3.72827 1.57423 0
M  V30 3486 H 329.198 2.66739 1.63 0
M  V30 3487 H 328.418 3.90694 -0.524574 0
M  V30 3488 H 329.706 5.08363 -0.210934 0
M  V30 3489 H 329.104 4.82116 2.9594 0
M  V30 3490 H 327.661 5.74634 3.07634 0
M  V30 3491 N 331.094 0.475555 1.50254 0
M  V30 3492 C 332.319 -0.0777042 2.07254 0
M  V30 3493 C 332.744 -1.3235 1.3366 0
M  V30 3494 O 332.102 -1.77152 0.385597 0
M  V30 3495 C 332.15 -0.340169 3.58992 0
M  V30 3496 O 331.254 -1.41982 3.87188 0
M  V30 3497 H 330.595 0.0149556 0.663832 0
M  V30 3498 H 333.125 0.667878 1.93392 0
M  V30 3499 H 333.135 -0.579332 4.03866 0
M  V30 3500 H 331.81 0.570167 4.11973 0
M  V30 3501 H 330.387 -1.16762 3.54148 0
M  V30 3502 N 332.573 -1.56217 0.208337 0
M  V30 3503 C 333.521 -2.21053 -0.723769 0
M  V30 3504 C 334.515 -1.18578 -1.20978 0
M  V30 3505 O 335.721 -1.36691 -1.17114 0
M  V30 3506 H 332.096 -0.708595 -0.251788 0
M  V30 3507 H 334.067 -2.98006 -0.153365 0
M  V30 3508 C 332.816 -2.89417 -1.927 0
M  V30 3509 H 332.139 -3.68019 -1.56212 0
M  V30 3510 H 333.579 -3.38201 -2.55727 0
M  V30 3511 C 332.038 -1.91166 -2.77411 0
M  V30 3512 O 332.568 -1.42026 -3.75754 0
M  V30 3513 N 330.774 -1.59105 -2.43175 0
M  V30 3514 H 330.321 -1.99259 -1.63259 0
M  V30 3515 H 330.279 -0.936255 -3.00136 0
M  V30 3516 N 334.051 0.0651679 -1.57465 0
M  V30 3517 C 335.276 0.779605 -1.9219 0
M  V30 3518 C 335.701 1.69988 -0.805333 0
M  V30 3519 O 335.059 1.79685 0.241435 0
M  V30 3520 C 335.107 1.54364 -3.2589 0
M  V30 3521 O 334.211 2.65474 -3.1559 0
M  V30 3522 H 333.552 0.212249 -0.629163 0
M  V30 3523 H 336.082 0.0314294 -2.04576 0
M  V30 3524 H 336.092 1.92146 -3.59922 0
M  V30 3525 H 334.767 0.868457 -4.06732 0
M  V30 3526 H 333.344 2.30501 -2.93128 0
M  V30 3527 N 335.529 1.53961 0.336706 0
M  V30 3528 C 336.439 1.85432 1.43708 0
M  V30 3529 C 337.455 0.745053 1.57242 0
M  V30 3530 O 338.631 1.03804 1.72588 0
M  V30 3531 C 335.696 2.06349 2.78605 0
M  V30 3532 C 334.757 3.30191 2.74358 0
M  V30 3533 C 333.99 3.50101 4.02822 0
M  V30 3534 O 334.213 2.7371 5.00439 0
M  V30 3535 O 333.147 4.43547 4.06878 0
M  V30 3536 H 336.973 2.78975 1.20028 0
M  V30 3537 H 334.558 1.39701 0.52952 0
M  V30 3538 H 336.44 2.21513 3.58483 0
M  V30 3539 H 335.115 1.15995 3.02203 0
M  V30 3540 H 334.022 3.20425 1.93078 0
M  V30 3541 H 335.355 4.2056 2.55715 0
M  V30 3542 N 337.007 -0.598083 1.45811 0
M  V30 3543 C 337.957 -1.70272 1.51629 0
M  V30 3544 C 338.941 -1.56382 0.378629 0
M  V30 3545 O 340.133 -1.65557 0.626087 0
M  V30 3546 C 337.262 -3.09042 1.49493 0
M  V30 3547 C 336.348 -3.28284 2.68496 0
M  V30 3548 N 336.739 -3.17748 3.93535 0
M  V30 3549 C 335.037 -3.59182 2.64394 0
M  V30 3550 C 335.738 -3.38579 4.7301 0
M  V30 3551 N 334.714 -3.63016 4.04624 0
M  V30 3552 H 338.516 -1.60634 2.46118 0
M  V30 3553 H 336.03 -0.801642 1.41235 0
M  V30 3554 H 338.027 -3.88302 1.51747 0
M  V30 3555 H 336.687 -3.19823 0.560683 0
M  V30 3556 H 337.698 -2.95944 4.25014 0
M  V30 3557 H 334.375 -3.76742 1.79922 0
M  V30 3558 H 335.765 -3.35747 5.82 0
M  V30 3559 N 338.485 -1.33259 -0.841409 0
M  V30 3560 C 339.71 -1.2775 -1.63385 0
M  V30 3561 C 340.135 0.149188 -1.87507 0
M  V30 3562 O 339.493 1.10498 -1.43736 0
M  V30 3563 C 339.541 -2.05571 -2.96265 0
M  V30 3564 O 338.645 -1.41257 -3.87453 0
M  V30 3565 H 337.986 -0.439627 -0.497618 0
M  V30 3566 H 340.516 -1.75782 -1.04699 0
M  V30 3567 H 340.526 -2.16241 -3.45982 0
M  V30 3568 H 339.201 -3.09309 -2.7803 0
M  V30 3569 H 337.778 -1.39217 -3.45938 0
M  V30 3570 N 339.963 1.05934 -1.16686 0
M  V30 3571 C 341.379 1.30938 -0.912542 0
M  V30 3572 C 341.579 1.96803 0.432533 0
M  V30 3573 O 340.635 2.23693 1.17123 0
M  V30 3574 C 341.948 2.18649 -2.06429 0
M  V30 3575 C 343.496 2.32055 -2.10047 0
M  V30 3576 C 343.971 3.23122 -3.24586 0
M  V30 3577 N 345.462 3.30706 -3.24327 0
M  V30 3578 C 346.197 4.01273 -4.09594 0
M  V30 3579 N 345.693 4.74332 -5.04956 0
M  V30 3580 N 347.486 3.97361 -3.97569 0
M  V30 3581 H 339.637 0.615777 -2.03278 0
M  V30 3582 H 341.9 0.334077 -0.887185 0
M  V30 3583 H 341.606 1.77534 -3.03603 0
M  V30 3584 H 341.48 3.19252 -2.00894 0
M  V30 3585 H 343.867 2.72415 -1.13464 0
M  V30 3586 H 343.948 1.31107 -2.19647 0
M  V30 3587 H 343.592 2.83477 -4.2143 0
M  V30 3588 H 343.522 4.24057 -3.12223 0
M  V30 3589 H 346.013 2.78644 -2.55276 0
M  V30 3590 H 346.326 5.25716 -5.6643 0
M  V30 3591 H 344.671 4.733 -5.08933 0
M  V30 3592 H 347.862 3.39405 -3.22369 0
M  V30 3593 H 348.035 4.52089 -4.64241 0
M  V30 3594 N 341.441 0.965919 1.2453 0
M  V30 3595 C 342.391 0.465731 2.23193 0
M  V30 3596 C 343.375 -0.451277 1.54442 0
M  V30 3597 O 344.567 -0.282489 1.74731 0
M  V30 3598 C 341.696 -0.244511 3.42428 0
M  V30 3599 C 340.782 0.691222 4.18429 0
M  V30 3600 N 341.173 1.82771 4.71623 0
M  V30 3601 C 339.471 0.501649 4.4317 0
M  V30 3602 C 340.172 2.41285 5.29298 0
M  V30 3603 N 339.148 1.69819 5.16394 0
M  V30 3604 H 342.95 1.33291 2.61937 0
M  V30 3605 H 340.464 0.824789 1.39896 0
M  V30 3606 H 342.461 -0.620056 4.12263 0
M  V30 3607 H 341.121 -1.10815 3.05205 0
M  V30 3608 H 342.132 2.20929 4.68413 0
M  V30 3609 H 338.809 -0.318177 4.16286 0
M  V30 3610 H 340.199 3.37181 5.8117 0
M  V30 3611 N 342.919 -1.39368 0.735821 0
M  V30 3612 C 344.165 -2.01272 0.293439 0
M  V30 3613 C 344.52 -1.57344 -1.10728 0
M  V30 3614 O 343.813 -0.792744 -1.74431 0
M  V30 3615 C 344.007 -3.5583 0.334651 0
M  V30 3616 C 343.836 -4.14764 1.73784 0
M  V30 3617 C 342.606 -4.47315 2.35026 0
M  V30 3618 C 344.804 -4.38246 2.69157 0
M  V30 3619 N 342.786 -4.91756 3.6749 0
M  V30 3620 C 344.157 -4.849 3.86357 0
M  V30 3621 C 346.212 -4.20315 2.66908 0
M  V30 3622 C 344.915 -5.15505 5.01645 0
M  V30 3623 C 346.941 -4.52033 3.8134 0
M  V30 3624 C 346.303 -4.98895 4.97276 0
M  V30 3625 H 342.402 -0.766756 0.153652 0
M  V30 3626 H 344.986 -1.69276 0.961967 0
M  V30 3627 H 343.157 -3.87212 -0.303527 0
M  V30 3628 H 344.889 -4.04503 -0.126358 0
M  V30 3629 H 341.644 -4.35143 1.86943 0
M  V30 3630 H 342.068 -5.18333 4.35499 0
M  V30 3631 H 346.71 -3.83287 1.78468 0
M  V30 3632 H 344.428 -5.51437 5.90713 0
M  V30 3633 H 348.014 -4.39781 3.80899 0
M  V30 3634 H 346.894 -5.22973 5.84353 0
M  V30 3635 N 344.397 -0.483516 -1.5 0
M  V30 3636 C 345.644 0.0671597 -2.02389 0
M  V30 3637 C 345.972 1.38597 -1.36459 0
M  V30 3638 O 345.227 1.89634 -0.483458 0
M  V30 3639 C 345.526 0.286226 -3.56252 0
M  V30 3640 C 345.192 -0.952416 -4.40726 0
M  V30 3641 C 343.854 -1.29199 -4.63531 0
M  V30 3642 C 346.206 -1.77655 -4.89988 0
M  V30 3643 C 343.534 -2.45553 -5.32842 0
M  V30 3644 C 345.886 -2.93147 -5.60578 0
M  V30 3645 C 344.55 -3.27505 -5.81633 0
M  V30 3646 H 343.82 0.0245755 -0.740592 0
M  V30 3647 H 346.467 -0.640124 -1.80485 0
M  V30 3648 H 344.772 1.07587 -3.76739 0
M  V30 3649 H 346.469 0.726473 -3.94365 0
M  V30 3650 H 343.059 -0.677881 -4.23205 0
M  V30 3651 H 347.243 -1.52737 -4.72213 0
M  V30 3652 H 342.499 -2.72431 -5.47349 0
M  V30 3653 H 346.673 -3.57344 -5.97727 0
M  V30 3654 H 344.3 -4.1777 -6.35116 0
M  V30 3655 N 345.875 1.56104 -0.216619 0
M  V30 3656 C 347.122 1.98172 0.416416 0
M  V30 3657 C 347.45 1.10413 1.60122 0
M  V30 3658 O 346.705 0.147967 1.9514 0
M  V30 3659 C 347.004 3.45923 0.898464 0
M  V30 3660 C 346.67 4.50559 -0.175288 0
M  V30 3661 C 345.332 4.78897 -0.470271 0
M  V30 3662 C 347.684 5.1334 -0.901728 0
M  V30 3663 C 345.012 5.67299 -1.4963 0
M  V30 3664 C 347.364 6.02853 -1.91705 0
M  V30 3665 C 346.028 6.29537 -2.21901 0
M  V30 3666 H 345.298 0.725164 0.152377 0
M  V30 3667 H 347.945 1.88839 -0.318103 0
M  V30 3668 H 346.25 3.52434 1.71165 0
M  V30 3669 H 347.947 3.75841 1.39803 0
M  V30 3670 H 344.537 4.28551 0.0647806 0
M  V30 3671 H 348.721 4.91521 -0.687072 0
M  V30 3672 H 343.977 5.86239 -1.73592 0
M  V30 3673 H 348.151 6.50552 -2.48505 0
M  V30 3674 H 345.778 6.97835 -3.01548 0
M  V30 3675 N 347.353 -0.0568162 1.57498 0
M  V30 3676 C 348.3 -1.06591 2.04712 0
M  V30 3677 C 349.27 -1.3758 0.930644 0
M  V30 3678 O 350.455 -1.48392 1.19935 0
M  V30 3679 C 347.595 -2.3701 2.50839 0
M  V30 3680 C 346.708 -2.12421 3.76167 0
M  V30 3681 C 345.843 -3.36511 4.11015 0
M  V30 3682 C 344.882 -3.07353 5.2934 0
M  V30 3683 N 344.019 -4.23816 5.59754 0
M  V30 3684 H 348.859 -0.65631 2.90683 0
M  V30 3685 H 346.396 -0.312481 1.43743 0
M  V30 3686 H 348.354 -3.13175 2.7564 0
M  V30 3687 H 346.984 -2.75744 1.67825 0
M  V30 3688 H 346.036 -1.2688 3.58616 0
M  V30 3689 H 347.348 -1.86894 4.62463 0
M  V30 3690 H 346.502 -4.21062 4.36797 0
M  V30 3691 H 345.241 -3.65128 3.23315 0
M  V30 3692 H 344.246 -2.212 5.03339 0
M  V30 3693 H 345.471 -2.80043 6.1867 0
M  V30 3694 H 343.417 -4.52436 4.75014 0
M  V30 3695 H 343.334 -4.01614 6.40501 0
M  V30 3696 H 344.602 -5.0932 5.90096 0
M  V30 3697 N 348.832 -1.54138 -0.328536 0
M  V30 3698 C 350.08 -1.71765 -1.06496 0
M  V30 3699 C 350.401 -0.49149 -1.88704 0
M  V30 3700 O 349.671 0.494539 -1.89555 0
M  V30 3701 H 348.251 -0.633295 -0.396164 0
M  V30 3702 H 350.913 -1.91429 -0.366176 0
M  V30 3703 H 350.009 -2.5951 -1.73381 0
M  V30 3704 N 350.31 0.590341 -1.46126 0
M  V30 3705 C 351.242 1.71427 -1.52136 0
M  V30 3706 C 352.255 1.57542 -0.41042 0
M  V30 3707 O 353.444 1.65106 -0.678389 0
M  V30 3708 C 350.544 3.09605 -1.37834 0
M  V30 3709 C 349.717 3.49566 -2.62912 0
M  V30 3710 C 348.776 4.66773 -2.42918 0
M  V30 3711 O 347.802 4.73019 -3.1661 0
M  V30 3712 N 349.004 5.61161 -1.4859 0
M  V30 3713 H 351.769 1.66728 -2.49042 0
M  V30 3714 H 349.33 0.776113 -1.42085 0
M  V30 3715 H 351.322 3.85796 -1.22243 0
M  V30 3716 H 349.892 3.08714 -0.491393 0
M  V30 3717 H 349.112 2.63158 -2.93499 0
M  V30 3718 H 350.4 3.73028 -3.46017 0
M  V30 3719 H 349.798 5.58844 -0.87808 0
M  V30 3720 H 348.355 6.36814 -1.38965 0
M  V30 3721 N 351.788 1.33704 0.83433 0
M  V30 3722 C 352.718 1.26967 1.95963 0
M  V30 3723 C 353.699 0.149337 1.69443 0
M  V30 3724 O 354.884 0.339852 1.91203 0
M  V30 3725 C 352.014 1.01275 3.32206 0
M  V30 3726 C 350.968 2.09652 3.73136 0
M  V30 3727 C 350.294 1.69166 5.07235 0
M  V30 3728 C 351.594 3.51372 3.86439 0
M  V30 3729 H 353.288 2.2112 2.01857 0
M  V30 3730 H 350.834 1.06447 0.969793 0
M  V30 3731 H 352.787 0.952106 4.10503 0
M  V30 3732 H 351.511 0.0356203 3.26581 0
M  V30 3733 H 350.17 2.14766 2.97104 0
M  V30 3734 H 349.818 0.701437 4.98085 0
M  V30 3735 H 349.518 2.41694 5.35591 0
M  V30 3736 H 351.042 1.64576 5.88003 0
M  V30 3737 H 352.456 3.48734 4.55036 0
M  V30 3738 H 350.853 4.22425 4.26236 0
M  V30 3739 H 351.923 3.89546 2.88759 0
M  V30 3740 N 353.266 -1.05314 1.17247 0
M  V30 3741 C 354.216 -2.11313 0.856196 0
M  V30 3742 C 355.2 -1.60013 -0.168694 0
M  V30 3743 O 356.392 -1.76968 0.0335624 0
M  V30 3744 C 353.521 -3.41301 0.369917 0
M  V30 3745 C 352.607 -3.99401 1.42616 0
M  V30 3746 N 352.998 -4.31481 2.63928 0
M  V30 3747 C 351.296 -4.27126 1.28373 0
M  V30 3748 C 351.997 -4.77799 3.31787 0
M  V30 3749 N 350.973 -4.77843 2.59166 0
M  V30 3750 H 354.775 -2.33976 1.77856 0
M  V30 3751 H 352.289 -1.2295 1.06099 0
M  V30 3752 H 354.286 -4.16713 0.124897 0
M  V30 3753 H 352.946 -3.20072 -0.546253 0
M  V30 3754 H 353.957 -4.21519 3.00902 0
M  V30 3755 H 350.634 -4.15289 0.429111 0
M  V30 3756 H 352.024 -5.11743 4.35395 0
M  V30 3757 N 354.744 -0.972509 -1.24016 0
M  V30 3758 C 355.99 -0.637978 -1.92504 0
M  V30 3759 C 356.323 0.825383 -1.75787 0
M  V30 3760 O 355.598 1.59442 -1.11393 0
M  V30 3761 C 355.881 -1.01942 -3.45369 0
M  V30 3762 C 355.734 -2.53983 -3.71231 0
M  V30 3763 C 357.053 -0.55751 -4.36555 0
M  V30 3764 H 354.172 -0.233248 -0.699117 0
M  V30 3765 H 356.814 -1.21238 -1.46292 0
M  V30 3766 H 354.964 -0.530656 -3.84859 0
M  V30 3767 H 356.636 -3.10374 -3.41271 0
M  V30 3768 H 354.879 -2.96968 -3.16216 0
M  V30 3769 H 355.55 -2.75723 -4.78206 0
M  V30 3770 H 358.026 -0.977029 -4.04467 0
M  V30 3771 H 356.902 -0.85292 -5.42233 0
M  V30 3772 H 357.163 0.542328 -4.38761 0
M  V30 3773 N 356.222 1.38976 -0.743202 0
M  V30 3774 C 357.499 1.94351 -0.220705 0
M  V30 3775 C 357.879 1.67935 1.2791 0
M  V30 3776 O 357.227 1.01211 2.04862 0
M  V30 3777 C 357.437 3.44426 -0.563171 0
M  V30 3778 C 358.785 4.2144 -0.517046 0
M  V30 3779 O 359.809 3.52661 -0.500846 0
M  V30 3780 O 358.668 5.44032 -0.518806 0
M  V30 3781 H 355.762 0.825879 -0.043047 0
M  V30 3782 H 358.308 1.48429 -0.822618 0
M  V30 3783 H 357.08 3.5712 -1.59941 0
M  V30 3784 H 356.703 3.97543 0.0672883 0
M  V30 3785 N 357.7 0.491464 1.49741 0
M  V30 3786 C 358.948 -0.0563141 2.02022 0
M  V30 3787 C 359.269 -1.38363 1.37407 0
M  V30 3788 O 358.539 -1.88702 0.526166 0
M  V30 3789 H 357.119 -0.0238014 0.746621 0
M  V30 3790 H 359.781 0.646533 1.83864 0
M  V30 3791 H 358.877 -0.192967 3.11503 0
M  V30 3792 N 359.178 -1.55987 0.224894 0
M  V30 3793 C 360.11 -2.17722 -0.716224 0
M  V30 3794 C 361.123 -1.14723 -1.15509 0
M  V30 3795 O 362.312 -1.41688 -1.08567 0
M  V30 3796 C 359.412 -2.74873 -1.98238 0
M  V30 3797 C 358.585 -4.03074 -1.69853 0
M  V30 3798 C 357.644 -4.44757 -2.81208 0
M  V30 3799 O 356.67 -5.11587 -2.49534 0
M  V30 3800 N 357.872 -4.10716 -4.10235 0
M  V30 3801 H 360.637 -2.99109 -0.188123 0
M  V30 3802 H 358.198 -1.6184 0.0440123 0
M  V30 3803 H 360.19 -2.99727 -2.7193 0
M  V30 3804 H 358.76 -1.9777 -2.42086 0
M  V30 3805 H 357.98 -3.86041 -0.797875 0
M  V30 3806 H 359.268 -4.86701 -1.48324 0
M  V30 3807 H 358.666 -3.57019 -4.38809 0
M  V30 3808 H 357.223 -4.40455 -4.80461 0
M  V30 3809 N 360.656 0.0484629 -1.57525 0
M  V30 3810 C 361.603 1.05504 -2.05275 0
M  V30 3811 C 362.573 1.37084 -0.937927 0
M  V30 3812 O 363.758 1.47754 -1.2072 0
M  V30 3813 C 360.898 2.35676 -2.52093 0
M  V30 3814 C 360.011 2.10423 -3.77288 0
M  V30 3815 C 359.146 3.34327 -4.12794 0
M  V30 3816 C 358.185 3.04542 -5.30962 0
M  V30 3817 N 357.322 4.20841 -5.61994 0
M  V30 3818 H 362.162 0.640885 -2.91027 0
M  V30 3819 H 359.699 0.304854 -1.43906 0
M  V30 3820 H 361.657 3.11709 -2.77297 0
M  V30 3821 H 360.287 2.7485 -1.69285 0
M  V30 3822 H 359.339 1.24976 -3.59284 0
M  V30 3823 H 360.651 1.84438 -4.63448 0
M  V30 3824 H 359.805 4.1874 -4.39024 0
M  V30 3825 H 358.544 3.63408 -3.25247 0
M  V30 3826 H 357.549 2.18528 -5.04505 0
M  V30 3827 H 358.774 2.76758 -6.20146 0
M  V30 3828 H 356.72 4.4991 -4.77406 0
M  V30 3829 H 356.637 3.98212 -6.42622 0
M  V30 3830 H 357.905 5.06184 -5.92789 0
M  V30 3831 N 362.134 1.5431 0.320358 0
M  V30 3832 C 363.064 1.86912 1.3995 0
M  V30 3833 C 364.045 0.726211 1.53819 0
M  V30 3834 O 365.23 0.980233 1.67646 0
M  V30 3835 C 362.36 2.09932 2.7667 0
M  V30 3836 C 361.314 3.25776 2.77586 0
M  V30 3837 C 360.64 3.34173 4.17412 0
M  V30 3838 C 361.94 4.6335 2.41048 0
M  V30 3839 H 363.634 2.77292 1.12914 0
M  V30 3840 H 361.18 1.33421 0.541738 0
M  V30 3841 H 363.133 2.31324 3.52232 0
M  V30 3842 H 361.857 1.16304 3.0519 0
M  V30 3843 H 360.516 3.04276 2.04479 0
M  V30 3844 H 360.164 2.38098 4.43078 0
M  V30 3845 H 359.864 4.12033 4.18931 0
M  V30 3846 H 361.388 3.57803 4.94782 0
M  V30 3847 H 362.802 4.84602 3.06324 0
M  V30 3848 H 361.199 5.43782 2.53813 0
M  V30 3849 H 362.269 4.65381 1.36193 0
M  V30 3850 N 363.613 -0.582584 1.46437 0
M  V30 3851 C 364.859 -1.34278 1.51978 0
M  V30 3852 C 365.192 -1.93446 0.170973 0
M  V30 3853 O 364.467 -1.76481 -0.817608 0
M  V30 3854 C 364.75 -2.47203 2.61845 0
M  V30 3855 C 364.603 -1.93069 4.06257 0
M  V30 3856 C 365.922 -3.49247 2.67795 0
M  V30 3857 H 363.041 -0.486876 0.553282 0
M  V30 3858 H 365.683 -0.654437 1.78374 0
M  V30 3859 H 363.833 -3.0592 2.39469 0
M  V30 3860 H 365.505 -1.38808 4.3992 0
M  V30 3861 H 363.748 -1.23898 4.1573 0
M  V30 3862 H 364.419 -2.74586 4.7886 0
M  V30 3863 H 366.895 -3.00411 2.8791 0
M  V30 3864 H 365.771 -4.25719 3.46489 0
M  V30 3865 H 366.032 -4.06482 1.73852 0
M  V30 3866 N 365.091 -1.34144 -0.827227 0
M  V30 3867 C 366.041 -1.21923 -1.92663 0
M  V30 3868 C 367.025 -0.119294 -1.60457 0
M  V30 3869 O 368.217 -0.348539 -1.73534 0
M  V30 3870 C 365.346 -0.972492 -3.29238 0
M  V30 3871 C 364.432 -2.1154 -3.67576 0
M  V30 3872 N 364.823 -3.36627 -3.77512 0
M  V30 3873 C 363.121 -2.02468 -3.97395 0
M  V30 3874 C 363.822 -4.11658 -4.1099 0
M  V30 3875 N 362.798 -3.40207 -4.23981 0
M  V30 3876 H 366.6 -2.16721 -1.98517 0
M  V30 3877 H 364.114 -1.2632 -1.02064 0
M  V30 3878 H 366.111 -0.865847 -4.0781 0
M  V30 3879 H 364.771 -0.0331509 -3.24683 0
M  V30 3880 H 365.782 -3.71234 -3.61118 0
M  V30 3881 H 362.459 -1.16265 -4.00985 0
M  V30 3882 H 363.849 -5.19657 -4.25918 0
M  V30 3883 N 366.569 1.04691 -1.17803 0
M  V30 3884 C 367.794 1.81984 -0.994813 0
M  V30 3885 C 368.219 1.82586 0.452112 0
M  V30 3886 O 367.577 1.23854 1.324 0
M  V30 3887 C 367.625 3.2575 -1.54659 0
M  V30 3888 O 366.729 4.05267 -0.763728 0
M  V30 3889 H 366.07 0.562483 -0.352857 0
M  V30 3890 H 368.6 1.3189 -1.56417 0
M  V30 3891 H 368.61 3.76541 -1.57102 0
M  V30 3892 H 367.285 3.24627 -2.59981 0
M  V30 3893 H 365.862 3.63972 -0.811108 0
M  V30 3894 N 368.047 0.979072 1.23499 0
M  V30 3895 C 368.977 0.537606 2.27227 0
M  V30 3896 C 369.958 -0.428539 1.64613 0
M  V30 3897 O 371.143 -0.322191 1.91509 0
M  V30 3898 C 368.273 -0.162052 3.46922 0
M  V30 3899 C 367.227 0.721242 4.21879 0
M  V30 3900 C 366.553 -0.110555 5.34586 0
M  V30 3901 C 367.853 2.01141 4.82016 0
M  V30 3902 H 369.547 1.40462 2.64406 0
M  V30 3903 H 367.093 0.67684 1.27102 0
M  V30 3904 H 369.046 -0.482192 4.18632 0
M  V30 3905 H 367.77 -1.06351 3.08799 0
M  V30 3906 H 366.429 1.02482 3.51984 0
M  V30 3907 H 366.077 -1.0125 4.92704 0
M  V30 3908 H 365.777 0.477325 5.85658 0
M  V30 3909 H 367.301 -0.425107 6.09118 0
M  V30 3910 H 368.715 1.75612 5.45741 0
M  V30 3911 H 367.112 2.54695 5.43369 0
M  V30 3912 H 368.182 2.69909 4.02836 0
M  V30 3913 N 369.525 -1.3858 0.750561 0
M  V30 3914 C 370.772 -2.00184 0.305373 0
M  V30 3915 C 371.1 -1.59575 -1.11203 0
M  V30 3916 O 370.355 -0.823236 -1.77542 0
M  V30 3917 C 370.654 -3.55455 0.372373 0
M  V30 3918 C 370.32 -4.15765 1.745 0
M  V30 3919 C 368.982 -4.31951 2.12065 0
M  V30 3920 C 371.334 -4.49067 2.64553 0
M  V30 3921 C 368.662 -4.78734 3.39162 0
M  V30 3922 C 371.014 -4.97265 3.91038 0
M  V30 3923 C 369.678 -5.11658 4.28676 0
M  V30 3924 H 368.948 -0.732526 0.111744 0
M  V30 3925 H 371.595 -1.65673 0.960451 0
M  V30 3926 H 369.9 -3.90084 -0.366272 0
M  V30 3927 H 371.597 -4.00999 0.00953918 0
M  V30 3928 H 368.187 -4.03579 1.44297 0
M  V30 3929 H 372.371 -4.36166 2.36796 0
M  V30 3930 H 367.627 -4.88062 3.68246 0
M  V30 3931 H 371.801 -5.22003 4.60962 0
M  V30 3932 H 369.428 -5.47668 5.27222 0
M  V30 3933 N 371.003 -0.499398 -1.49478 0
M  V30 3934 C 371.913 0.284489 -2.32869 0
M  V30 3935 C 372.929 0.968885 -1.44529 0
M  V30 3936 O 374.105 0.95062 -1.77553 0
M  V30 3937 C 371.17 1.33594 -3.19928 0
M  V30 3938 C 370.231 0.665149 -4.24116 0
M  V30 3939 C 369.464 1.6665 -5.07014 0
M  V30 3940 O 369.687 2.89618 -4.91404 0
M  V30 3941 O 368.621 1.22271 -5.8935 0
M  V30 3942 H 372.447 -0.39802 -3.01081 0
M  V30 3943 H 370.032 -0.260758 -1.47107 0
M  V30 3944 H 371.914 1.94431 -3.73864 0
M  V30 3945 H 370.589 2.0014 -2.54412 0
M  V30 3946 H 369.496 0.0170769 -3.74096 0
M  V30 3947 H 370.829 0.0421555 -4.92182 0
M  V30 3948 N 372.481 1.55866 -0.233164 0
M  V30 3949 C 373.706 2.03449 0.402906 0
M  V30 3950 C 374.131 1.11166 1.51736 0
M  V30 3951 O 373.489 0.101996 1.81013 0
M  V30 3952 C 373.537 3.49165 0.9009 0
M  V30 3953 O 372.641 3.60019 2.01147 0
M  V30 3954 H 371.982 0.657913 0.0897025 0
M  V30 3955 H 374.512 2.01493 -0.355201 0
M  V30 3956 H 374.522 3.89716 1.2077 0
M  V30 3957 H 373.197 4.15813 0.0852889 0
M  V30 3958 H 371.774 3.3136 1.71042 0
M  V30 3959 N 373.959 -0.0401083 1.57549 0
M  V30 3960 C 375.208 -0.732108 1.87944 0
M  V30 3961 C 375.521 -1.77107 0.830206 0
M  V30 3962 O 376.727 -2.51488 1.02302 0
M  V30 3963 C 375.183 -1.35315 3.33494 0
M  V30 3964 C 374.791 -0.351105 4.46622 0
M  V30 3965 C 376.535 -2.02566 3.73051 0
M  V30 3966 C 374.442 -0.979859 5.83226 0
M  V30 3967 H 373.372 -0.277188 0.701201 0
M  V30 3968 H 376.023 0.0138501 1.83495 0
M  V30 3969 H 374.405 -2.14844 3.32653 0
M  V30 3970 H 375.579 0.416674 4.58912 0
M  V30 3971 H 373.894 0.218708 4.15825 0
M  V30 3972 H 376.491 -2.50441 4.72423 0
M  V30 3973 H 376.834 -2.83904 3.04474 0
M  V30 3974 H 377.367 -1.29827 3.76018 0
M  V30 3975 H 374.106 -0.206135 6.55176 0
M  V30 3976 H 373.626 -1.71774 5.74677 0
M  V30 3977 H 375.305 -1.49046 6.29599 0
M  V30 3978 N 375.437 -1.54477 -0.31217 0
M  V30 3979 C 376.37 -1.79519 -1.40884 0
M  V30 3980 C 377.348 -0.645753 -1.49227 0
M  V30 3981 O 378.532 -0.884468 -1.66461 0
M  V30 3982 C 375.659 -1.92194 -2.78889 0
M  V30 3983 C 374.705 -3.14555 -2.88023 0
M  V30 3984 S 375.538 -4.72893 -2.51262 0
M  V30 3985 C 376.694 -4.8849 -3.91317 0
M  V30 3986 H 376.927 -2.72256 -1.19432 0
M  V30 3987 H 374.46 -1.45746 -0.509654 0
M  V30 3988 H 376.418 -2.00182 -3.58382 0
M  V30 3989 H 375.079 -1.00414 -2.97617 0
M  V30 3990 H 374.272 -3.20193 -3.89221 0
M  V30 3991 H 373.874 -3.04955 -2.16514 0
M  V30 3992 H 376.166 -4.71826 -4.86196 0
M  V30 3993 H 377.109 -5.90588 -3.90656 0
M  V30 3994 H 377.517 -4.16715 -3.80801 0
M  V30 3995 N 376.915 0.57481 -1.46744 0
M  V30 3996 C 378.14 1.36341 -1.56288 0
M  V30 3997 C 378.565 1.86954 -0.207347 0
M  V30 3998 O 377.923 1.62006 0.813871 0
M  V30 3999 C 377.971 2.52147 -2.57787 0
M  V30 4000 O 377.075 3.53834 -2.11838 0
M  V30 4001 H 376.416 0.405713 -0.525636 0
M  V30 4002 H 378.946 0.696453 -1.92382 0
M  V30 4003 H 378.956 2.98958 -2.77648 0
M  V30 4004 H 377.631 2.14663 -3.5622 0
M  V30 4005 H 376.208 3.1345 -2.01999 0
M  V30 4006 N 378.394 1.34581 0.820102 0
M  V30 4007 C 379.622 1.3018 1.60813 0
M  V30 4008 C 380.037 -0.123551 1.88395 0
M  V30 4009 O 379.394 -1.07148 1.47735 0
M  V30 4010 C 379.445 2.09312 2.94739 0
M  V30 4011 O 379.166 3.46288 2.68358 0
M  V30 4012 C 380.667 2.1234 3.89136 0
M  V30 4013 H 377.887 0.447726 0.499782 0
M  V30 4014 H 380.431 1.77237 1.02017 0
M  V30 4015 H 378.586 1.65889 3.50085 0
M  V30 4016 H 379 3.87227 3.53774 0
M  V30 4017 H 380.474 2.72126 4.80262 0
M  V30 4018 H 380.951 1.11854 4.24718 0
M  V30 4019 H 381.557 2.55864 3.39726 0
M  V30 4020 N 379.872 -1.04064 1.18357 0
M  V30 4021 C 380.804 -2.12114 0.868358 0
M  V30 4022 C 381.817 -1.62247 -0.134045 0
M  V30 4023 O 383.006 -1.78253 0.0937933 0
M  V30 4024 C 380.106 -3.37773 0.276132 0
M  V30 4025 C 379.279 -4.16874 1.3242 0
M  V30 4026 C 378.338 -5.20861 0.747662 0
M  V30 4027 O 377.364 -5.51141 1.42239 0
M  V30 4028 N 378.566 -5.78715 -0.454823 0
M  V30 4029 H 381.331 -2.39748 1.79836 0
M  V30 4030 H 378.892 -1.20258 1.08396 0
M  V30 4031 H 380.884 -4.04513 -0.123133 0
M  V30 4032 H 379.454 -3.07581 -0.557895 0
M  V30 4033 H 378.674 -3.45456 1.89878 0
M  V30 4034 H 379.962 -4.66516 2.03078 0
M  V30 4035 H 379.36 -5.56415 -1.02073 0
M  V30 4036 H 377.917 -6.46921 -0.79601 0
M  V30 4037 N 381.35 -0.985608 -1.22978 0
M  V30 4038 C 382.26 -0.538548 -2.28335 0
M  V30 4039 C 383.276 0.409163 -1.69121 0
M  V30 4040 O 384.452 0.277797 -1.99475 0
M  V30 4041 C 381.517 0.146867 -3.46389 0
M  V30 4042 C 380.578 -0.842896 -4.20944 0
M  V30 4043 C 379.811 -0.190095 -5.33361 0
M  V30 4044 O 380.034 1.01767 -5.61248 0
M  V30 4045 O 378.968 -0.891289 -5.95264 0
M  V30 4046 H 382.794 -1.41487 -2.68729 0
M  V30 4047 H 380.379 -0.753495 -1.29007 0
M  V30 4048 H 382.261 0.531125 -4.1804 0
M  V30 4049 H 380.936 0.997871 -3.07935 0
M  V30 4050 H 379.843 -1.27795 -3.51595 0
M  V30 4051 H 381.176 -1.66287 -4.6326 0
M  V30 4052 N 382.828 1.3818 -0.7579 0
M  V30 4053 C 384.053 2.04827 -0.325679 0
M  V30 4054 C 384.478 1.56788 1.03919 0
M  V30 4055 O 383.836 0.721811 1.66312 0
M  V30 4056 C 383.884 3.58774 -0.362447 0
M  V30 4057 O 382.988 4.07372 0.642033 0
M  V30 4058 H 382.329 0.64833 -0.143402 0
M  V30 4059 H 384.859 1.7677 -1.03023 0
M  V30 4060 H 384.869 4.07434 -0.214844 0
M  V30 4061 H 383.544 3.93096 -1.35824 0
M  V30 4062 H 382.121 3.70068 0.458688 0
M  V30 4063 N 384.306 0.507319 1.49211 0
M  V30 4064 C 385.531 -0.033725 2.07373 0
M  V30 4065 C 385.956 -1.29485 1.36437 0
M  V30 4066 O 385.314 -1.76294 0.423087 0
M  V30 4067 C 385.362 -0.263945 3.59633 0
M  V30 4068 O 384.466 -1.33737 3.90113 0
M  V30 4069 H 383.807 0.0290331 0.663365 0
M  V30 4070 H 386.337 0.708749 1.91932 0
M  V30 4071 H 386.347 -0.493536 4.05004 0
M  V30 4072 H 385.022 0.657424 4.10671 0
M  V30 4073 H 383.599 -1.09224 3.56545 0
M  V30 4074 N 385.784 -1.5574 0.241426 0
M  V30 4075 C 386.732 -2.22538 -0.676718 0
M  V30 4076 C 387.726 -1.21117 -1.18436 0
M  V30 4077 O 388.932 -1.39144 -1.14188 0
M  V30 4078 H 385.307 -0.713776 -0.236701 0
M  V30 4079 H 387.278 -2.98264 -0.0901187 0
M  V30 4080 C 386.027 -2.93439 -1.86518 0
M  V30 4081 H 385.35 -3.7125 -1.4837 0
M  V30 4082 H 386.79 -3.43549 -2.48495 0
M  V30 4083 C 385.249 -1.97008 -2.73294 0
M  V30 4084 O 385.779 -1.49965 -3.72657 0
M  V30 4085 N 383.985 -1.64227 -2.39745 0
M  V30 4086 H 383.532 -2.02677 -1.58996 0
M  V30 4087 H 383.49 -0.999708 -2.98083 0
M  V30 4088 N 387.262 0.0317525 -1.57568 0
M  V30 4089 C 388.673 0.578692 -1.77505 0
M  V30 4090 C 389.024 1.75749 -0.872164 0
M  V30 4091 O 388.149 2.16298 -0.0663106 0
M  V30 4092 C 388.744 1.05658 -3.21904 0
M  V30 4093 C 387.303 1.54906 -3.43047 0
M  V30 4094 C 386.45 0.485939 -2.73009 0
M  V30 4095 H 389.401 -0.194475 -1.57504 0
M  V30 4096 H 389.422 1.92404 -3.28269 0
M  V30 4097 H 388.934 0.198422 -3.87592 0
M  V30 4098 H 387.035 2.42915 -2.82529 0
M  V30 4099 H 387.148 1.59841 -4.5165 0
M  V30 4100 H 385.512 0.940354 -2.36705 0
M  V30 4101 H 386.295 -0.362709 -3.41379 0
M  V30 4102 N 388.74 1.54641 0.303973 0
M  V30 4103 C 389.688 1.86137 1.39484 0
M  V30 4104 C 390.682 0.734854 1.52631 0
M  V30 4105 O 391.888 0.918803 1.54784 0
M  V30 4106 H 388.263 0.590324 0.465856 0
M  V30 4107 H 390.234 2.77324 1.10154 0
M  V30 4108 C 388.983 2.12274 2.75382 0
M  V30 4109 H 388.306 2.98429 2.66046 0
M  V30 4110 H 389.746 2.38254 3.5073 0
M  V30 4111 C 388.205 0.920365 3.24085 0
M  V30 4112 O 388.735 0.139377 4.01458 0
M  V30 4113 N 386.941 0.726566 2.81371 0
M  V30 4114 H 386.488 1.36332 2.18567 0
M  V30 4115 H 386.446 -0.0763799 3.14307 0
M  V30 4116 N 390.218 -0.567019 1.47046 0
M  V30 4117 C 391.166 -1.69593 1.59188 0
M  V30 4118 C 392.16 -1.63046 0.459609 0
M  V30 4119 O 393.366 -1.6835 0.637058 0
M  V30 4120 H 389.741 -0.560993 0.500791 0
M  V30 4121 H 391.712 -1.56488 2.54075 0
M  V30 4122 C 390.461 -3.07964 1.61411 0
M  V30 4123 H 389.784 -3.13679 2.47881 0
M  V30 4124 H 391.224 -3.86671 1.73958 0
M  V30 4125 C 389.683 -3.35123 0.34559 0
M  V30 4126 O 390.213 -3.97812 -0.557521 0
M  V30 4127 N 388.419 -2.89699 0.22864 0
M  V30 4128 H 387.966 -2.38863 0.964479 0
M  V30 4129 H 387.924 -3.08242 -0.619192 0
M  V30 4130 N 391.696 -1.35014 -0.812953 0
M  V30 4131 C 392.942 -1.2812 -1.57204 0
M  V30 4132 C 393.275 0.145869 -1.93651 0
M  V30 4133 O 392.55 1.0937 -1.60836 0
M  V30 4134 C 392.833 -2.18162 -2.86492 0
M  V30 4135 C 392.686 -3.69454 -2.56561 0
M  V30 4136 C 394.005 -2.07439 -3.88145 0
M  V30 4137 H 391.124 -0.466746 -0.570366 0
M  V30 4138 H 393.766 -1.65357 -0.935783 0
M  V30 4139 H 391.916 -1.86535 -3.40789 0
M  V30 4140 H 393.588 -4.11493 -2.08497 0
M  V30 4141 H 391.831 -3.9005 -1.89851 0
M  V30 4142 H 392.502 -4.27835 -3.48799 0
M  V30 4143 H 394.978 -2.35228 -3.4323 0
M  V30 4144 H 393.854 -2.7265 -4.76396 0
M  V30 4145 H 394.115 -1.05439 -4.29343 0
M  V30 4146 N 393.175 1.03435 -1.18907 0
M  V30 4147 C 394.105 2.13503 -0.945448 0
M  V30 4148 C 395.086 1.69682 0.119189 0
M  V30 4149 O 396.271 1.94169 -0.034707 0
M  V30 4150 C 393.401 3.44004 -0.477316 0
M  V30 4151 C 392.355 4.0148 -1.48316 0
M  V30 4152 C 391.681 5.27537 -0.872311 0
M  V30 4153 C 392.981 4.36921 -2.86177 0
M  V30 4154 H 394.675 2.34141 -1.86597 0
M  V30 4155 H 392.221 1.12523 -0.898584 0
M  V30 4156 H 394.174 4.20372 -0.294204 0
M  V30 4157 H 392.898 3.23072 0.478786 0
M  V30 4158 H 391.557 3.27201 -1.65332 0
M  V30 4159 H 391.205 5.02917 0.0911752 0
M  V30 4160 H 390.905 5.66954 -1.54393 0
M  V30 4161 H 392.429 6.06576 -0.699871 0
M  V30 4162 H 393.843 5.04248 -2.72776 0
M  V30 4163 H 392.24 4.87405 -3.50081 0
M  V30 4164 H 393.31 3.46466 -3.39248 0
M  V30 4165 N 394.653 0.992116 1.22453 0
M  V30 4166 C 395.6 0.541731 2.24352 0
M  V30 4167 C 396.57 -0.425519 1.60557 0
M  V30 4168 O 397.755 -0.330453 1.87917 0
M  V30 4169 C 394.895 -0.138248 3.44823 0
M  V30 4170 C 394.008 0.870649 4.23136 0
M  V30 4171 C 393.143 0.164269 5.30946 0
M  V30 4172 C 392.182 1.16159 6.00977 0
M  V30 4173 N 391.319 0.483568 7.00433 0
M  V30 4174 H 396.159 1.41541 2.62241 0
M  V30 4175 H 393.696 0.709013 1.28885 0
M  V30 4176 H 395.654 -0.5494 4.13567 0
M  V30 4177 H 394.284 -0.975721 3.077 0
M  V30 4178 H 393.336 1.40013 3.53696 0
M  V30 4179 H 394.648 1.63014 4.7141 0
M  V30 4180 H 393.802 -0.303653 6.0594 0
M  V30 4181 H 392.541 -0.627733 4.83643 0
M  V30 4182 H 391.546 1.64015 5.24766 0
M  V30 4183 H 392.771 1.95445 6.50368 0
M  V30 4184 H 390.717 -0.289012 6.55363 0
M  V30 4185 H 390.634 1.18152 7.4671 0
M  V30 4186 H 391.902 0.0384219 7.79491 0
M  V30 4187 N 396.131 -1.37776 0.765217 0
M  V30 4188 C 397.378 -1.99849 0.326588 0
M  V30 4189 C 397.706 -1.60746 -1.09504 0
M  V30 4190 O 396.961 -0.84202 -1.76659 0
M  V30 4191 C 397.26 -3.5504 0.410053 0
M  V30 4192 C 396.926 -4.13891 1.78899 0
M  V30 4193 C 395.588 -4.29678 2.16635 0
M  V30 4194 C 397.94 -4.46236 2.69301 0
M  V30 4195 C 395.268 -4.7511 3.44221 0
M  V30 4196 C 397.62 -4.93089 3.9629 0
M  V30 4197 C 396.284 -5.07082 4.34078 0
M  V30 4198 H 395.554 -0.7313 0.119507 0
M  V30 4199 H 398.201 -1.64645 0.977968 0
M  V30 4200 H 396.506 -3.90451 -0.324878 0
M  V30 4201 H 398.203 -4.00966 0.0520699 0
M  V30 4202 H 394.793 -4.02026 1.48569 0
M  V30 4203 H 398.977 -4.3363 2.41409 0
M  V30 4204 H 394.233 -4.84129 3.73402 0
M  V30 4205 H 398.407 -5.17084 4.66472 0
M  V30 4206 H 396.034 -5.42046 5.33001 0
M  V30 4207 N 397.609 -0.515225 -1.4894 0
M  V30 4208 C 398.849 0.0223983 -2.04388 0
M  V30 4209 C 399.213 1.32961 -1.38511 0
M  V30 4210 O 400.414 1.95236 -1.8476 0
M  V30 4211 C 398.685 0.157056 -3.57055 0
M  V30 4212 S 400.244 0.646875 -4.34006 0
M  V30 4213 H 397.062 -0.00500662 -0.710982 0
M  V30 4214 H 399.664 -0.69243 -1.82827 0
M  V30 4215 H 398.368 -0.799412 -4.02539 0
M  V30 4216 H 397.899 0.896704 -3.83044 0
M  V30 4217 H 399.914 1.91381 -4.57808 0
M  V30 4218 N 399.087 1.5561 -0.249682 0
M  V30 4219 C 400.364 1.90932 0.424761 0
M  V30 4220 C 400.744 1.17078 1.75658 0
M  V30 4221 O 400.092 0.289176 2.26663 0
M  V30 4222 C 400.302 3.43975 0.590109 0
M  V30 4223 C 401.65 4.15281 0.884714 0
M  V30 4224 O 402.674 3.49729 0.67587 0
M  V30 4225 O 401.533 5.31236 1.28259 0
M  V30 4226 H 398.627 0.794815 0.228468 0
M  V30 4227 H 401.173 1.67135 -0.293954 0
M  V30 4228 H 399.945 3.89748 -0.34818 0
M  V30 4229 H 399.568 3.73644 1.35926 0
M  V30 4230 N 400.565 -0.0233959 1.57583 0
M  V30 4231 C 401.513 -1.04063 2.08023 0
M  V30 4232 C 402.507 -1.37084 0.995204 0
M  V30 4233 O 403.713 -1.35923 1.18004 0
M  V30 4234 H 400.088 -0.353144 0.663922 0
M  V30 4235 H 402.059 -0.589453 2.9252 0
M  V30 4236 C 400.808 -2.33123 2.57971 0
M  V30 4237 H 400.131 -2.08577 3.4108 0
M  V30 4238 H 401.571 -3.02632 2.96967 0
M  V30 4239 C 400.03 -3.02483 1.48342 0
M  V30 4240 O 400.56 -3.92541 0.852898 0
M  V30 4241 N 398.766 -2.63909 1.21658 0
M  V30 4242 H 398.313 -1.90758 1.73116 0
M  V30 4243 H 398.271 -3.10633 0.485218 0
M  V30 4244 N 402.043 -1.548 -0.295768 0
M  V30 4245 C 403.268 -1.78653 -1.05346 0
M  V30 4246 C 403.693 -0.546894 -1.79974 0
M  V30 4247 O 403.051 0.502763 -1.7419 0
M  V30 4248 C 403.099 -2.99679 -2.00561 0
M  V30 4249 O 402.203 -2.7317 -3.08953 0
M  V30 4250 H 401.544 -0.59116 -0.302367 0
M  V30 4251 H 404.074 -2.01895 -0.331598 0
M  V30 4252 H 404.084 -3.27793 -2.42932 0
M  V30 4253 H 402.759 -3.89562 -1.4565 0
M  V30 4254 H 401.336 -2.56089 -2.71059 0
M  V30 4255 N 403.521 0.559213 -1.47345 0
M  V30 4256 C 404.746 1.34676 -1.57725 0
M  V30 4257 C 405.171 1.86723 -0.227164 0
M  V30 4258 O 404.529 1.6286 0.796642 0
M  V30 4259 C 404.577 2.49399 -2.60447 0
M  V30 4260 O 403.681 3.51567 -2.15578 0
M  V30 4261 H 403.022 0.400115 -0.52991 0
M  V30 4262 H 405.552 0.676009 -1.93109 0
M  V30 4263 H 405.562 2.95996 -2.80803 0
M  V30 4264 H 404.237 2.10873 -3.58477 0
M  V30 4265 H 402.814 3.11289 -2.05313 0
M  V30 4266 N 404.999 1.35443 0.805782 0
M  V30 4267 C 405.962 1.28301 1.89925 0
M  V30 4268 C 406.962 0.194285 1.59622 0
M  V30 4269 O 408.152 0.448036 1.6834 0
M  V30 4270 C 405.284 0.984997 3.2636 0
M  V30 4271 H 406.477 2.2553 1.97677 0
M  V30 4272 H 404.03 1.19979 1.00173 0
M  V30 4273 H 404.765 0.016603 3.24296 0
M  V30 4274 H 404.55 1.77269 3.4974 0
M  V30 4275 H 406.04 0.960651 4.064 0
M  V30 4276 N 406.477 -1.02803 1.19454 0
M  V30 4277 C 407.726 -1.7562 0.991996 0
M  V30 4278 C 408.039 -1.89672 -0.477901 0
M  V30 4279 O 409.245 -2.59468 -0.799287 0
M  V30 4280 C 407.701 -3.15812 1.72601 0
M  V30 4281 C 407.309 -3.0981 3.23607 0
M  V30 4282 C 409.053 -3.92918 1.60674 0
M  V30 4283 C 406.96 -4.44939 3.89594 0
M  V30 4284 H 405.89 -0.658352 0.367543 0
M  V30 4285 H 408.541 -1.15044 1.42959 0
M  V30 4286 H 406.923 -3.7686 1.21624 0
M  V30 4287 H 408.097 -2.58138 3.81709 0
M  V30 4288 H 406.412 -2.46201 3.35819 0
M  V30 4289 H 409.009 -4.9287 2.07323 0
M  V30 4290 H 409.352 -4.12502 0.561025 0
M  V30 4291 H 409.885 -3.38472 2.09001 0
M  V30 4292 H 406.624 -4.30559 4.94267 0
M  V30 4293 H 406.144 -4.96664 3.36281 0
M  V30 4294 H 407.823 -5.1382 3.93189 0
M  V30 4295 N 407.956 -0.998596 -1.21925 0
M  V30 4296 C 408.888 -0.511879 -2.23411 0
M  V30 4297 C 409.901 0.396094 -1.57908 0
M  V30 4298 O 411.09 0.197316 -1.77406 0
M  V30 4299 C 408.19 0.276802 -3.37768 0
M  V30 4300 C 407.363 -0.628687 -4.32858 0
M  V30 4301 C 406.422 0.109272 -5.26087 0
M  V30 4302 O 405.448 -0.507237 -5.66935 0
M  V30 4303 N 406.65 1.38983 -5.63617 0
M  V30 4304 H 409.415 -1.38457 -2.658 0
M  V30 4305 H 406.976 -0.873981 -1.36283 0
M  V30 4306 H 408.968 0.77928 -3.97126 0
M  V30 4307 H 407.538 1.05063 -2.94415 0
M  V30 4308 H 406.758 -1.31175 -3.71735 0
M  V30 4309 H 408.046 -1.24514 -4.93329 0
M  V30 4310 H 407.444 1.91194 -5.32411 0
M  V30 4311 H 406.001 1.83739 -6.25367 0
M  V30 4312 N 409.434 1.37368 -0.772513 0
M  V30 4313 C 410.682 1.99279 -0.336516 0
M  V30 4314 C 411.003 1.6163 1.09091 0
M  V30 4315 O 410.273 0.882109 1.74916 0
M  V30 4316 H 408.853 0.737063 -0.121435 0
M  V30 4317 H 411.515 1.67836 -0.990809 0
M  V30 4318 H 410.611 3.09332 -0.414763 0
M  V30 4319 N 410.912 0.523116 1.48665 0
M  V30 4320 C 411.859 -0.243398 2.29513 0
M  V30 4321 C 412.829 -0.940139 1.36933 0
M  V30 4322 O 414.014 -0.942503 1.65896 0
M  V30 4323 C 411.154 -1.28855 3.20141 0
M  V30 4324 C 410.267 -0.60135 4.27794 0
M  V30 4325 C 409.402 -1.62884 5.05611 0
M  V30 4326 C 408.441 -0.924726 6.05075 0
M  V30 4327 N 407.578 -1.89744 6.75975 0
M  V30 4328 H 412.418 0.452234 2.94549 0
M  V30 4329 H 409.955 0.234858 1.45213 0
M  V30 4330 H 411.913 -1.90674 3.71079 0
M  V30 4331 H 410.543 -1.95266 2.57043 0
M  V30 4332 H 409.595 0.130623 3.80176 0
M  V30 4333 H 410.907 -0.0481585 4.98777 0
M  V30 4334 H 410.061 -2.32149 5.60528 0
M  V30 4335 H 408.8 -2.21592 4.34452 0
M  V30 4336 H 407.805 -0.217966 5.49368 0
M  V30 4337 H 409.03 -0.343851 6.78229 0
M  V30 4338 H 406.976 -2.47373 6.07571 0
M  V30 4339 H 406.893 -1.3955 7.43009 0
M  V30 4340 H 408.161 -2.58229 7.35485 0
M  V30 4341 N 412.39 -1.55475 0.257931 0
M  V30 4342 C 413.3 -2.2549 -0.647425 0
M  V30 4343 C 414.316 -1.2748 -1.18427 0
M  V30 4344 O 415.492 -1.6038 -1.2182 0
M  V30 4345 C 412.557 -2.94916 -1.82278 0
M  V30 4346 C 411.618 -4.08363 -1.32432 0
M  V30 4347 C 410.851 -4.74469 -2.44366 0
M  V30 4348 O 411.074 -4.39701 -3.63344 0
M  V30 4349 O 410.008 -5.62763 -2.13497 0
M  V30 4350 H 413.834 -3.03593 -0.0807707 0
M  V30 4351 H 411.419 -1.49377 0.0259962 0
M  V30 4352 H 413.301 -3.38606 -2.50846 0
M  V30 4353 H 411.976 -2.19744 -2.37685 0
M  V30 4354 H 410.883 -3.69166 -0.605605 0
M  V30 4355 H 412.216 -4.85385 -0.816211 0
M  V30 4356 N 413.868 0.0150385 -1.57593 0
M  V30 4357 C 415.114 0.704043 -1.90187 0
M  V30 4358 C 415.447 1.74249 -0.857366 0
M  V30 4359 O 414.722 1.94092 0.125843 0
M  V30 4360 C 415.005 1.36087 -3.33395 0
M  V30 4361 C 414.858 0.334981 -4.48551 0
M  V30 4362 C 416.177 2.29112 -3.7576 0
M  V30 4363 H 413.296 0.254475 -0.691673 0
M  V30 4364 H 415.938 -0.0331678 -1.89971 0
M  V30 4365 H 414.088 1.98922 -3.3371 0
M  V30 4366 H 415.76 -0.292534 -4.60372 0
M  V30 4367 H 414.003 -0.344325 -4.32431 0
M  V30 4368 H 414.674 0.833316 -5.45674 0
M  V30 4369 H 417.15 1.76308 -3.76902 0
M  V30 4370 H 416.026 2.72043 -4.76743 0
M  V30 4371 H 416.287 3.16385 -3.08793 0
M  V30 4372 N 415.346 1.54954 0.287554 0
M  V30 4373 C 416.762 1.46469 0.633964 0
M  V30 4374 C 416.962 0.666865 1.90145 0
M  V30 4375 O 416.018 0.179906 2.51858 0
M  V30 4376 C 417.331 2.90556 0.774454 0
M  V30 4377 C 418.879 3.00681 0.869462 0
M  V30 4378 C 419.354 4.45993 1.04184 0
M  V30 4379 N 420.845 4.4976 1.10772 0
M  V30 4380 C 421.58 5.59393 1.25964 0
M  V30 4381 N 421.076 6.78923 1.37968 0
M  V30 4382 N 422.869 5.47107 1.28959 0
M  V30 4383 H 415.02 2.05288 -0.545041 0
M  V30 4384 H 417.283 0.930305 -0.182308 0
M  V30 4385 H 416.989 3.51594 -0.086207 0
M  V30 4386 H 416.863 3.38743 1.6593 0
M  V30 4387 H 419.25 2.39749 1.7206 0
M  V30 4388 H 419.331 2.55769 -0.0396831 0
M  V30 4389 H 418.975 5.07524 0.195422 0
M  V30 4390 H 418.905 4.88548 1.96542 0
M  V30 4391 H 421.396 3.63651 1.02794 0
M  V30 4392 H 421.709 7.58231 1.49353 0
M  V30 4393 H 420.054 6.81763 1.34999 0
M  V30 4394 H 423.245 4.52668 1.19202 0
M  V30 4395 H 423.418 6.32595 1.40455 0
M  V30 4396 N 416.824 -0.551391 1.4764 0
M  V30 4397 C 418.071 -1.3083 1.54563 0
M  V30 4398 C 418.399 -1.93359 0.210361 0
M  V30 4399 O 417.654 -1.78721 -0.797332 0
M  V30 4400 C 417.953 -2.43469 2.61644 0
M  V30 4401 C 417.619 -1.98732 4.04742 0
M  V30 4402 C 416.281 -1.86248 4.43695 0
M  V30 4403 C 418.633 -1.64659 4.94507 0
M  V30 4404 C 415.961 -1.37995 5.70241 0
M  V30 4405 C 418.313 -1.17875 6.21521 0
M  V30 4406 C 416.977 -1.03992 6.5935 0
M  V30 4407 H 416.247 -0.478741 0.565587 0
M  V30 4408 H 418.894 -0.617697 1.81264 0
M  V30 4409 H 417.199 -3.18109 2.28722 0
M  V30 4410 H 418.896 -3.01642 2.64222 0
M  V30 4411 H 415.486 -2.09393 3.73968 0
M  V30 4412 H 419.67 -1.73174 4.65107 0
M  V30 4413 H 414.926 -1.25915 5.98294 0
M  V30 4414 H 419.1 -0.905739 6.90485 0
M  V30 4415 H 416.727 -0.663794 7.57296 0
M  V30 4416 N 418.302 -1.35869 -0.798587 0
M  V30 4417 C 419.232 -1.32118 -1.92528 0
M  V30 4418 C 420.213 -0.194209 -1.68988 0
M  V30 4419 O 421.398 -0.390426 -1.90235 0
M  V30 4420 C 418.528 -1.10047 -3.29404 0
M  V30 4421 C 417.482 -2.19471 -3.67446 0
M  V30 4422 C 416.808 -1.82555 -5.02571 0
M  V30 4423 C 418.108 -3.61495 -3.76987 0
M  V30 4424 H 419.802 -2.26394 -1.95924 0
M  V30 4425 H 417.348 -1.08981 -0.94123 0
M  V30 4426 H 419.301 -1.06061 -4.07835 0
M  V30 4427 H 418.025 -0.122195 -3.26371 0
M  V30 4428 H 416.684 -2.22568 -2.91306 0
M  V30 4429 H 416.332 -0.833249 -4.9605 0
M  V30 4430 H 416.032 -2.5581 -5.28995 0
M  V30 4431 H 417.556 -1.80108 -5.83432 0
M  V30 4432 H 418.97 -3.60676 -4.4563 0
M  V30 4433 H 417.367 -4.33577 -4.14887 0
M  V30 4434 H 418.437 -3.97065 -2.78329 0
M  V30 4435 N 419.78 1.02168 -1.19998 0
M  V30 4436 C 421.196 1.27969 -0.953737 0
M  V30 4437 C 421.396 1.98079 0.369703 0
M  V30 4438 O 420.452 2.27306 1.09947 0
M  V30 4439 C 421.765 2.11971 -2.13281 0
M  V30 4440 C 423.313 2.25255 -2.17323 0
M  V30 4441 C 423.788 3.12632 -3.34702 0
M  V30 4442 N 425.279 3.2022 -3.34684 0
M  V30 4443 C 426.014 3.88039 -4.22153 0
M  V30 4444 N 425.51 4.58027 -5.19791 0
M  V30 4445 N 427.303 3.84511 -4.10009 0
M  V30 4446 H 419.454 0.550794 -2.05134 0
M  V30 4447 H 421.717 0.305683 -0.897364 0
M  V30 4448 H 421.423 1.67785 -3.09097 0
M  V30 4449 H 421.297 3.12699 -2.10949 0
M  V30 4450 H 423.684 2.68667 -1.22073 0
M  V30 4451 H 423.765 1.24053 -2.23706 0
M  V30 4452 H 423.409 2.69926 -4.30235 0
M  V30 4453 H 423.339 4.13909 -3.25556 0
M  V30 4454 H 425.83 2.70382 -2.64012 0
M  V30 4455 H 426.143 5.07429 -5.82868 0
M  V30 4456 H 424.488 4.56869 -5.23733 0
M  V30 4457 H 427.679 3.28978 -3.33003 0
M  V30 4458 H 427.852 4.3709 -4.78389 0
M  V30 4459 N 421.258 1.00505 1.21394 0
M  V30 4460 C 422.669 0.721082 1.72213 0
M  V30 4461 C 423.02 -0.761263 1.80829 0
M  V30 4462 O 422.145 -1.59464 1.46288 0
M  V30 4463 C 422.74 1.30228 3.12772 0
M  V30 4464 C 421.299 1.06743 3.60947 0
M  V30 4465 C 420.446 1.41507 2.38477 0
M  V30 4466 H 423.397 1.17594 1.06571 0
M  V30 4467 H 423.418 0.686955 3.74247 0
M  V30 4468 H 422.93 2.38115 3.06468 0
M  V30 4469 H 421.031 0.00572162 3.726 0
M  V30 4470 H 421.144 1.73936 4.46411 0
M  V30 4471 H 419.508 0.833852 2.40664 0
M  V30 4472 H 420.291 2.50424 2.34824 0
M  V30 4473 N 422.737 -1.36956 0.779787 0
M  V30 4474 C 423.647 -2.33965 0.172491 0
M  V30 4475 C 424.663 -1.60574 -0.670222 0
M  V30 4476 O 425.839 -1.92617 -0.588263 0
M  V30 4477 C 422.904 -3.39761 -0.690173 0
M  V30 4478 C 421.965 -4.28964 0.169924 0
M  V30 4479 C 421.198 -5.29707 -0.651662 0
M  V30 4480 O 421.421 -5.38238 -1.88827 0
M  V30 4481 O 420.355 -6.01873 -0.0566264 0
M  V30 4482 H 424.181 -2.87647 0.974321 0
M  V30 4483 H 421.766 -1.39258 0.541078 0
M  V30 4484 H 423.648 -4.04471 -1.1824 0
M  V30 4485 H 422.323 -2.88394 -1.47006 0
M  V30 4486 H 421.23 -3.67326 0.708696 0
M  V30 4487 H 422.563 -4.83656 0.913085 0
M  V30 4488 N 424.215 -0.530993 -1.48385 0
M  V30 4489 C 425.492 0.0671788 -1.95485 0
M  V30 4490 C 425.872 1.51191 -1.47324 0
M  V30 4491 O 425.22 2.17507 -0.700202 0
M  V30 4492 C 425.43 -0.0511206 -3.48963 0
M  V30 4493 C 426.778 0.107632 -4.24464 0
M  V30 4494 O 427.802 0.0226248 -3.56193 0
M  V30 4495 O 426.661 0.285972 -5.45751 0
M  V30 4496 H 423.755 0.0787365 -0.823243 0
M  V30 4497 H 426.301 -0.595662 -1.58902 0
M  V30 4498 H 425.073 -1.05747 -3.7674 0
M  V30 4499 H 424.696 0.650525 -3.92242 0
M  V30 4500 N 425.693 1.55336 -0.266172 0
M  V30 4501 C 427.104 1.85236 0.233315 0
M  V30 4502 C 427.455 1.18816 1.56132 0
M  V30 4503 O 426.58 0.473307 2.11161 0
M  V30 4504 C 427.175 3.36059 0.430113 0
M  V30 4505 C 425.734 3.66116 0.873842 0
M  V30 4506 C 424.881 2.77274 -0.0380016 0
M  V30 4507 H 427.832 1.51004 -0.488214 0
M  V30 4508 H 427.853 3.58681 1.26998 0
M  V30 4509 H 427.365 3.84373 -0.536588 0
M  V30 4510 H 425.466 3.23295 1.85233 0
M  V30 4511 H 425.579 4.73699 0.717358 0
M  V30 4512 H 423.943 2.50198 0.476759 0
M  V30 4513 H 424.726 3.284 -1.00042 0
M  V30 4514 N 427.171 -0.0066808 1.57599 0
M  V30 4515 C 428.399 -0.704087 1.94551 0
M  V30 4516 C 428.814 -1.67677 0.867746 0
M  V30 4517 O 428.171 -1.8185 -0.153925 0
M  V30 4518 C 428.222 -1.44177 3.31505 0
M  V30 4519 O 427.943 -0.508097 4.35144 0
M  V30 4520 C 429.444 -2.23429 3.82876 0
M  V30 4521 H 426.664 -0.196523 0.641576 0
M  V30 4522 H 429.208 0.042453 2.04456 0
M  V30 4523 H 427.363 -2.13999 3.22929 0
M  V30 4524 H 427.777 -1.02782 5.14331 0
M  V30 4525 H 429.251 -2.70552 4.8115 0
M  V30 4526 H 429.728 -3.05818 3.15233 0
M  V30 4527 H 430.334 -1.58636 3.94607 0
M  V30 4528 N 428.649 -1.55105 -0.279332 0
M  V30 4529 C 430.065 -1.46803 -0.626187 0
M  V30 4530 C 430.265 -0.676939 -1.89789 0
M  V30 4531 O 429.321 -0.19326 -2.51759 0
M  V30 4532 C 430.634 -2.90962 -0.759034 0
M  V30 4533 C 432.182 -3.01138 -0.853504 0
M  V30 4534 C 432.657 -4.46539 -1.01818 0
M  V30 4535 N 434.148 -4.50341 -1.08386 0
M  V30 4536 C 434.883 -5.60053 -1.22996 0
M  V30 4537 N 434.379 -6.79645 -1.34366 0
M  V30 4538 N 436.172 -5.47783 -1.26056 0
M  V30 4539 H 428.323 -2.04996 0.555921 0
M  V30 4540 H 430.586 -0.929325 0.187239 0
M  V30 4541 H 430.292 -3.51544 0.104852 0
M  V30 4542 H 430.166 -3.39619 -1.64131 0
M  V30 4543 H 432.553 -2.40658 -1.70786 0
M  V30 4544 H 432.634 -2.55745 0.0532466 0
M  V30 4545 H 432.278 -5.0762 -0.168504 0
M  V30 4546 H 432.208 -4.89583 -1.93948 0
M  V30 4547 H 434.699 -3.64191 -1.00864 0
M  V30 4548 H 435.012 -7.59012 -1.4533 0
M  V30 4549 H 433.357 -6.82469 -1.31382 0
M  V30 4550 H 436.548 -4.53294 -1.168 0
M  V30 4551 H 436.721 -6.33331 -1.37098 0
M  V30 4552 N 430.127 0.543554 -1.4793 0
M  V30 4553 C 431.538 1.12561 -1.48953 0
M  V30 4554 C 431.889 1.94578 -0.251754 0
M  V30 4555 O 431.014 2.0665 0.642255 0
M  V30 4556 C 431.609 2.04801 -2.69892 0
M  V30 4557 C 430.168 2.58251 -2.73831 0
M  V30 4558 C 429.315 1.34918 -2.42265 0
M  V30 4559 H 432.266 0.32947 -1.55242 0
M  V30 4560 H 432.287 2.88886 -2.47639 0
M  V30 4561 H 431.799 1.4508 -3.59963 0
M  V30 4562 H 429.9 3.21732 -1.87934 0
M  V30 4563 H 430.013 2.98312 -3.74895 0
M  V30 4564 H 428.377 1.66046 -1.93134 0
M  V30 4565 H 429.16 0.769693 -3.3456 0
M  V30 4566 N 431.605 1.3629 0.791371 0
M  V30 4567 C 432.83 1.33726 1.58531 0
M  V30 4568 C 433.255 -0.0794933 1.87932 0
M  V30 4569 O 432.613 -1.05087 1.47738 0
M  V30 4570 C 432.661 2.16425 2.88431 0
M  V30 4571 O 431.765 1.5554 3.81944 0
M  V30 4572 H 431.106 0.457793 0.480959 0
M  V30 4573 H 433.636 1.79547 0.981031 0
M  V30 4574 H 433.646 2.28933 3.37718 0
M  V30 4575 H 432.321 3.19415 2.66359 0
M  V30 4576 H 430.898 1.51961 3.40532 0
M  V30 4577 N 433.083 -1.0153 1.20538 0
M  V30 4578 C 434.499 -1.27461 0.96051 0
M  V30 4579 C 434.699 -1.98273 -0.359193 0
M  V30 4580 O 433.755 -2.27886 -1.0874 0
M  V30 4581 C 435.068 -2.10837 2.14402 0
M  V30 4582 C 436.616 -2.24099 2.18515 0
M  V30 4583 C 437.091 -3.10852 3.36355 0
M  V30 4584 N 438.582 -3.18441 3.36377 0
M  V30 4585 C 439.317 -3.85795 4.24205 0
M  V30 4586 N 438.813 -4.55264 5.22213 0
M  V30 4587 N 440.606 -3.82331 4.12043 0
M  V30 4588 H 432.757 -0.539907 2.05423 0
M  V30 4589 H 435.02 -0.30092 0.898972 0
M  V30 4590 H 434.726 -1.66144 3.09983 0
M  V30 4591 H 434.6 -3.11576 2.12604 0
M  V30 4592 H 436.987 -2.68016 1.23497 0
M  V30 4593 H 437.068 -1.22865 2.24361 0
M  V30 4594 H 436.712 -2.6764 4.31661 0
M  V30 4595 H 436.642 -4.12177 3.27746 0
M  V30 4596 H 439.133 -2.68978 2.65442 0
M  V30 4597 H 439.446 -5.04331 5.85551 0
M  V30 4598 H 437.791 -4.54085 5.26148 0
M  V30 4599 H 440.982 -3.27207 3.34743 0
M  V30 4600 H 441.155 -4.34547 4.807 0
M  V30 4601 N 434.561 -1.01147 -1.20859 0
M  V30 4602 C 435.808 -0.697865 -1.90095 0
M  V30 4603 C 436.136 0.772014 -1.78522 0
M  V30 4604 O 435.391 1.57595 -1.16027 0
M  V30 4605 C 435.69 -1.0727 -3.40922 0
M  V30 4606 C 435.356 -2.53792 -3.72693 0
M  V30 4607 C 434.018 -2.93829 -3.81075 0
M  V30 4608 C 436.37 -3.48674 -3.87397 0
M  V30 4609 C 433.698 -4.27696 -4.01613 0
M  V30 4610 C 436.05 -4.82223 -4.09444 0
M  V30 4611 C 434.714 -5.21973 -4.16054 0
M  V30 4612 H 433.984 -0.255367 -0.695607 0
M  V30 4613 H 436.631 -1.27111 -1.43231 0
M  V30 4614 H 434.936 -0.417799 -3.89566 0
M  V30 4615 H 436.633 -0.807818 -3.92779 0
M  V30 4616 H 433.223 -2.21768 -3.66765 0
M  V30 4617 H 437.407 -3.18904 -3.80281 0
M  V30 4618 H 432.663 -4.58055 -4.04964 0
M  V30 4619 H 436.837 -5.55672 -4.19763 0
M  V30 4620 H 434.464 -6.25717 -4.31721 0
M  V30 4621 N 436.039 1.36541 -0.78704 0
M  V30 4622 C 436.971 2.28761 -0.141773 0
M  V30 4623 C 437.984 1.49365 0.647599 0
M  V30 4624 O 439.173 1.71836 0.483173 0
M  V30 4625 C 436.273 3.28771 0.822368 0
M  V30 4626 C 435.446 4.3732 0.0835594 0
M  V30 4627 C 434.505 5.17307 0.963296 0
M  V30 4628 O 433.531 5.67638 0.421419 0
M  V30 4629 N 434.733 5.33515 2.28784 0
M  V30 4630 H 437.498 2.84777 -0.933919 0
M  V30 4631 H 435.059 1.48682 -0.640735 0
M  V30 4632 H 437.051 3.79169 1.41468 0
M  V30 4633 H 435.621 2.73412 1.5154 0
M  V30 4634 H 434.841 3.88118 -0.689809 0
M  V30 4635 H 436.129 5.0701 -0.426358 0
M  V30 4636 H 435.527 4.94234 2.75226 0
M  V30 4637 H 434.084 5.87165 2.82985 0
M  V30 4638 N 437.518 0.538854 1.48102 0
M  V30 4639 C 438.45 -0.256278 2.27763 0
M  V30 4640 C 439.463 -0.89633 1.35904 0
M  V30 4641 O 440.652 -0.773275 1.60881 0
M  V30 4642 C 437.752 -1.37896 3.09577 0
M  V30 4643 C 436.925 -0.839159 4.29275 0
M  V30 4644 C 435.984 -1.84405 4.9283 0
M  V30 4645 O 435.01 -1.39746 5.51779 0
M  V30 4646 N 436.212 -3.17666 4.85869 0
M  V30 4647 H 438.977 0.426968 2.96643 0
M  V30 4648 H 436.538 0.373747 1.57527 0
M  V30 4649 H 438.53 -2.04955 3.48963 0
M  V30 4650 H 437.1 -1.96572 2.4306 0
M  V30 4651 H 436.32 0.00769287 3.94199 0
M  V30 4652 H 437.608 -0.457548 5.06739 0
M  V30 4653 H 437.006 -3.56609 4.39143 0
M  V30 4654 H 435.563 -3.80334 5.29329 0
M  V30 4655 N 438.996 -1.55193 0.274407 0
M  V30 4656 C 439.928 -2.1989 -0.646595 0
M  V30 4657 C 440.941 -1.1834 -1.11801 0
M  V30 4658 O 442.13 -1.4507 -1.04004 0
M  V30 4659 C 439.23 -2.8104 -1.89393 0
M  V30 4660 C 438.403 -4.08274 -1.56943 0
M  V30 4661 C 437.462 -4.53478 -2.66916 0
M  V30 4662 O 436.488 -5.19267 -2.33132 0
M  V30 4663 N 437.69 -4.2356 -3.9696 0
M  V30 4664 H 440.455 -2.99556 -0.0928686 0
M  V30 4665 H 438.016 -1.61618 0.0954783 0
M  V30 4666 H 440.008 -3.08226 -2.62257 0
M  V30 4667 H 438.578 -2.05372 -2.35672 0
M  V30 4668 H 437.798 -3.88384 -0.674655 0
M  V30 4669 H 439.086 -4.91173 -1.32764 0
M  V30 4670 H 438.484 -3.70799 -4.27229 0
M  V30 4671 H 437.041 -4.55518 -4.66205 0
M  V30 4672 N 440.474 -0.00167713 -1.576 0
M  V30 4673 C 441.406 1.0174 -2.05382 0
M  V30 4674 C 442.419 1.30595 -0.972052 0
M  V30 4675 O 443.608 1.27542 -1.24882 0
M  V30 4676 C 440.708 2.35174 -2.44022 0
M  V30 4677 C 439.881 2.25234 -3.74951 0
M  V30 4678 C 438.94 3.4137 -4.00441 0
M  V30 4679 O 437.966 3.19483 -4.71083 0
M  V30 4680 N 439.168 4.64275 -3.48467 0
M  V30 4681 H 441.933 0.609902 -2.93428 0
M  V30 4682 H 439.494 0.185672 -1.60832 0
M  V30 4683 H 441.486 3.11643 -2.58187 0
M  V30 4684 H 440.056 2.67659 -1.61485 0
M  V30 4685 H 439.276 1.33664 -3.70847 0
M  V30 4686 H 440.564 2.15767 -4.60784 0
M  V30 4687 H 439.962 4.84955 -2.91264 0
M  V30 4688 H 438.519 5.38005 -3.67959 0
M  V30 4689 N 441.952 1.55251 0.271103 0
M  V30 4690 C 443.2 1.75599 1.00047 0
M  V30 4691 C 443.521 0.561188 1.8675 0
M  V30 4692 O 442.791 -0.423846 1.9126 0
M  V30 4693 H 441.371 0.647562 0.372387 0
M  V30 4694 H 444.033 1.92656 0.294876 0
M  V30 4695 H 443.129 2.65766 1.6363 0
M  V30 4696 N 443.43 -0.535701 1.48216 0
M  V30 4697 C 444.36 -1.65014 1.65204 0
M  V30 4698 C 445.341 -1.62554 0.501011 0
M  V30 4699 O 446.526 -1.7984 0.732886 0
M  V30 4700 C 443.656 -3.03616 1.68626 0
M  V30 4701 C 442.61 -3.20932 2.83172 0
M  V30 4702 C 441.936 -4.60537 2.71679 0
M  V30 4703 C 443.236 -3.04249 4.24535 0
M  V30 4704 H 444.93 -1.51053 2.58502 0
M  V30 4705 H 442.476 -0.725262 1.24402 0
M  V30 4706 H 444.429 -3.81446 1.79099 0
M  V30 4707 H 443.153 -3.18587 0.719026 0
M  V30 4708 H 441.812 -2.45517 2.72244 0
M  V30 4709 H 441.46 -4.72336 1.72937 0
M  V30 4710 H 441.16 -4.73069 3.48538 0
M  V30 4711 H 442.684 -5.40475 2.84112 0
M  V30 4712 H 444.098 -3.71877 4.36326 0
M  V30 4713 H 442.495 -3.28278 5.02348 0
M  V30 4714 H 443.565 -2.00739 4.41397 0
M  V30 4715 N 444.908 -1.36708 -0.784132 0
M  V30 4716 C 446.324 -1.17237 -1.08294 0
M  V30 4717 C 446.524 -5.93947e-05 -2.015 0
M  V30 4718 O 445.58 0.663686 -2.43622 0
M  V30 4719 C 446.893 -2.48557 -1.69233 0
M  V30 4720 C 448.441 -2.54968 -1.8155 0
M  V30 4721 C 448.916 -3.86388 -2.45904 0
M  V30 4722 N 450.407 -3.87762 -2.53367 0
M  V30 4723 C 451.142 -4.86191 -3.03983 0
M  V30 4724 N 450.638 -5.95015 -3.54866 0
M  V30 4725 N 452.431 -4.73606 -3.02743 0
M  V30 4726 H 444.582 -2.11758 -0.16501 0
M  V30 4727 H 446.845 -0.93822 -0.135822 0
M  V30 4728 H 446.551 -3.34638 -1.08215 0
M  V30 4729 H 446.425 -2.64748 -2.68679 0
M  V30 4730 H 448.812 -1.69302 -2.41704 0
M  V30 4731 H 448.893 -2.42672 -0.80895 0
M  V30 4732 H 448.537 -4.72462 -1.86392 0
M  V30 4733 H 448.467 -3.95982 -3.4714 0
M  V30 4734 H 450.958 -3.09145 -2.17343 0
M  V30 4735 H 451.271 -6.66086 -3.91854 0
M  V30 4736 H 449.616 -5.98676 -3.53003 0
M  V30 4737 H 452.807 -3.87717 -2.62284 0
M  V30 4738 H 452.98 -5.50473 -3.41881 0
M  V30 4739 N 446.386 1.0089 -1.21074 0
M  V30 4740 C 447.336 2.0799 -0.934034 0
M  V30 4741 C 448.32 1.60529 0.10919 0
M  V30 4742 O 449.512 1.76722 -0.0992198 0
M  V30 4743 C 446.641 3.39693 -0.496334 0
M  V30 4744 C 445.727 3.93833 -1.57341 0
M  V30 4745 N 446.118 4.21388 -2.7976 0
M  V30 4746 C 444.416 4.22067 -1.44137 0
M  V30 4747 C 445.117 4.65156 -3.49292 0
M  V30 4748 N 444.093 4.67895 -2.76722 0
M  V30 4749 H 447.895 2.27213 -1.86417 0
M  V30 4750 H 445.409 1.18927 -1.10589 0
M  V30 4751 H 447.406 4.15962 -0.279471 0
M  V30 4752 H 446.066 3.21879 0.427084 0
M  V30 4753 H 447.077 4.10061 -3.1634 0
M  V30 4754 H 443.754 4.1341 -0.582947 0
M  V30 4755 H 445.144 4.95231 -4.54088 0
M  V30 4756 N 447.864 1.01787 1.20321 0
M  V30 4757 C 449.11 0.708985 1.90003 0
M  V30 4758 C 449.443 -0.759572 1.78729 0
M  V30 4759 O 448.718 -1.55198 1.17234 0
M  V30 4760 C 449.001 1.1469 3.41348 0
M  V30 4761 C 448.854 2.67586 3.61549 0
M  V30 4762 C 450.173 0.71915 4.34185 0
M  V30 4763 H 447.292 0.259034 0.689978 0
M  V30 4764 H 449.934 1.26584 1.41692 0
M  V30 4765 H 448.084 0.673128 3.82624 0
M  V30 4766 H 449.756 3.22826 3.29517 0
M  V30 4767 H 447.999 3.085 3.04976 0
M  V30 4768 H 448.67 2.93281 4.67643 0
M  V30 4769 H 451.146 1.12647 4.00562 0
M  V30 4770 H 450.022 1.05358 5.38694 0
M  V30 4771 H 450.283 -0.379111 4.40472 0
M  V30 4772 N 449.342 -1.36122 0.79427 0
M  V30 4773 C 450.588 -1.99406 0.369452 0
M  V30 4774 C 450.921 -1.62886 -1.05743 0
M  V30 4775 O 450.196 -0.886053 -1.73145 0
M  V30 4776 C 450.479 -3.56046 0.538833 0
M  V30 4777 C 450.332 -4.02404 2.00976 0
M  V30 4778 C 451.651 -4.40079 -0.0431359 0
M  V30 4779 H 448.77 -0.724397 0.135712 0
M  V30 4780 H 451.412 -1.61461 1.00151 0
M  V30 4781 H 449.562 -3.885 0.000771004 0
M  V30 4782 H 451.234 -3.80415 2.60926 0
M  V30 4783 H 449.477 -3.53765 2.51063 0
M  V30 4784 H 450.148 -5.11344 2.07922 0
M  V30 4785 H 452.624 -4.14013 0.416228 0
M  V30 4786 H 451.5 -5.48799 0.105374 0
M  V30 4787 H 451.761 -4.27264 -1.13571 0
M  V30 4788 N 450.82 -0.546701 -1.47814 0
M  V30 4789 C 452.067 -0.0187407 -2.02491 0
M  V30 4790 C 452.395 1.32685 -1.42215 0
M  V30 4791 O 451.65 1.87413 -0.563454 0
M  V30 4792 C 451.949 0.134869 -3.57145 0
M  V30 4793 C 451.615 -1.13849 -4.3629 0
M  V30 4794 C 450.277 -1.48743 -4.57634 0
M  V30 4795 C 452.629 -1.98277 -4.82012 0
M  V30 4796 C 449.957 -2.67932 -5.21948 0
M  V30 4797 C 452.309 -3.16659 -5.4764 0
M  V30 4798 C 450.973 -3.51879 -5.67219 0
M  V30 4799 H 450.243 -0.0068577 -0.740968 0
M  V30 4800 H 452.89 -0.716097 -1.77607 0
M  V30 4801 H 451.195 0.915118 -3.80963 0
M  V30 4802 H 452.892 0.558556 -3.97091 0
M  V30 4803 H 449.482 -0.856767 -4.19949 0
M  V30 4804 H 453.666 -1.72628 -4.6531 0
M  V30 4805 H 448.922 -2.95401 -5.35302 0
M  V30 4806 H 453.096 -3.82374 -5.82033 0
M  V30 4807 H 450.723 -4.44331 -6.16825 0
M  V30 4808 N 452.299 1.55045 -0.282633 0
M  V30 4809 C 453.527 2.04168 0.33512 0
M  V30 4810 C 453.942 1.16071 1.48906 0
M  V30 4811 O 453.299 0.182391 1.81586 0
M  V30 4812 C 453.35 3.52332 0.808957 0
M  V30 4813 O 453.071 4.37078 -0.299038 0
M  V30 4814 C 454.572 4.17375 1.49375 0
M  V30 4815 H 451.792 0.666744 0.0754543 0
M  V30 4816 H 454.336 2.00205 -0.416918 0
M  V30 4817 H 452.491 3.56715 1.51106 0
M  V30 4818 H 452.905 5.24458 0.0665514 0
M  V30 4819 H 454.379 5.22627 1.77664 0
M  V30 4820 H 454.856 3.65999 2.42778 0
M  V30 4821 H 455.462 4.17016 0.835305 0
M  V30 4822 N 453.777 0.010035 1.57597 0
M  V30 4823 C 454.74 -0.963029 2.07986 0
M  V30 4824 C 455.74 -1.26619 0.991173 0
M  V30 4825 O 456.93 -1.2097 1.25347 0
M  V30 4826 C 454.062 -2.2851 2.52974 0
M  V30 4827 H 455.255 -0.526971 2.95234 0
M  V30 4828 H 452.808 -0.237639 1.54483 0
M  V30 4829 H 453.543 -2.76784 1.69 0
M  V30 4830 H 453.328 -2.07824 3.32493 0
M  V30 4831 H 454.818 -2.98294 2.9225 0
M  V30 4832 N 455.255 -1.55392 -0.262866 0
M  V30 4833 C 456.165 -1.92077 -1.34698 0
M  V30 4834 C 457.181 -0.819227 -1.53508 0
M  V30 4835 O 458.357 -1.11921 -1.67439 0
M  V30 4836 C 455.422 -2.19407 -2.68443 0
M  V30 4837 C 454.483 -3.42905 -2.58292 0
M  V30 4838 C 453.716 -3.68921 -3.85659 0
M  V30 4839 O 453.939 -2.97275 -4.8681 0
M  V30 4840 O 452.873 -4.62455 -3.85252 0
M  V30 4841 H 456.699 -2.84384 -1.06581 0
M  V30 4842 H 454.284 -1.42069 -0.462264 0
M  V30 4843 H 456.166 -2.38365 -3.47506 0
M  V30 4844 H 454.841 -1.30282 -2.96325 0
M  V30 4845 H 453.748 -3.29272 -1.7757 0
M  V30 4846 H 455.081 -4.32282 -2.35358 0
M  V30 4847 N 456.733 0.527833 -1.48498 0
M  V30 4848 C 457.961 1.30823 -1.6029 0
M  V30 4849 C 458.376 1.86945 -0.263974 0
M  V30 4850 O 457.733 1.6651 0.747034 0
M  V30 4851 C 457.784 2.45756 -2.65116 0
M  V30 4852 O 457.505 1.91946 -3.93813 0
M  V30 4853 C 459.006 3.37543 -2.87367 0
M  V30 4854 H 456.226 0.397763 -0.540394 0
M  V30 4855 H 458.77 0.636529 -1.94341 0
M  V30 4856 H 456.925 3.08806 -2.33917 0
M  V30 4857 H 457.339 2.67195 -4.51339 0
M  V30 4858 H 458.813 4.14532 -3.6451 0
M  V30 4859 H 459.29 3.92905 -1.9627 0
M  V30 4860 H 459.896 2.80283 -3.19878 0
M  V30 4861 N 458.211 1.37122 0.776871 0
M  V30 4862 C 459.161 1.28989 1.88005 0
M  V30 4863 C 460.145 0.178765 1.59904 0
M  V30 4864 O 461.337 0.412705 1.72121 0
M  V30 4865 C 458.466 1.09402 3.25402 0
M  V30 4866 C 457.552 2.25036 3.59471 0
M  V30 4867 N 457.943 3.50407 3.64759 0
M  V30 4868 C 456.241 2.17078 3.89607 0
M  V30 4869 C 456.942 4.26628 3.95428 0
M  V30 4870 N 455.918 3.55709 4.11062 0
M  V30 4871 H 459.72 2.2394 1.90337 0
M  V30 4872 H 457.234 1.30021 0.973052 0
M  V30 4873 H 459.231 1.01661 4.04315 0
M  V30 4874 H 457.891 0.153632 3.24336 0
M  V30 4875 H 458.902 3.8438 3.47091 0
M  V30 4876 H 455.579 1.31067 3.96393 0
M  V30 4877 H 456.969 5.35107 4.06338 0
M  V30 4878 N 459.689 -1.00246 1.21608 0
M  V30 4879 C 460.637 -2.11193 0.97469 0
M  V30 4880 C 461.631 -1.69216 -0.0789303 0
M  V30 4881 O 462.837 -1.79853 0.0726806 0
M  V30 4882 H 459.212 -0.690455 0.297953 0
M  V30 4883 H 461.183 -2.2873 1.91638 0
M  V30 4884 C 459.932 -3.43182 0.558717 0
M  V30 4885 H 459.255 -3.75918 1.3611 0
M  V30 4886 H 460.695 -4.21823 0.429154 0
M  V30 4887 C 459.154 -3.28882 -0.730648 0
M  V30 4888 O 459.684 -3.59835 -1.78554 0
M  V30 4889 N 457.89 -2.8209 -0.698131 0
M  V30 4890 H 457.437 -2.57099 0.16061 0
M  V30 4891 H 457.395 -2.72903 -1.56113 0
M  V30 4892 N 461.167 -1.02423 -1.1978 0
M  V30 4893 C 462.414 -0.717988 -1.89344 0
M  V30 4894 C 462.742 0.753036 -1.79331 0
M  V30 4895 O 461.997 1.56355 -1.17692 0
M  V30 4896 C 462.296 -1.1088 -3.39765 0
M  V30 4897 C 461.962 -2.57731 -3.6998 0
M  V30 4898 C 460.624 -2.97854 -3.77937 0
M  V30 4899 C 462.976 -3.52763 -3.83677 0
M  V30 4900 C 460.304 -4.31931 -3.97054 0
M  V30 4901 C 462.656 -4.86538 -4.04306 0
M  V30 4902 C 461.32 -5.26356 -4.10494 0
M  V30 4903 H 460.59 -0.26273 -0.692859 0
M  V30 4904 H 463.237 -1.28623 -1.41875 0
M  V30 4905 H 461.542 -0.459094 -3.89101 0
M  V30 4906 H 463.239 -0.849432 -3.919 0
M  V30 4907 H 459.829 -2.25646 -3.64393 0
M  V30 4908 H 464.013 -3.2292 -3.76877 0
M  V30 4909 H 459.269 -4.62324 -4.00083 0
M  V30 4910 H 463.443 -5.60093 -4.13846 0
M  V30 4911 H 461.07 -6.3026 -4.2506 0
M  V30 4912 N 462.645 1.35699 -0.801477 0
M  V30 4913 C 464.056 1.81415 -0.441073 0
M  V30 4914 C 464.407 1.66595 1.03636 0
M  V30 4915 O 463.532 1.19369 1.80499 0
M  V30 4916 C 464.127 3.29369 -0.793819 0
M  V30 4917 C 462.686 3.73248 -0.486083 0
M  V30 4918 C 461.833 2.57775 -1.02213 0
M  V30 4919 H 464.784 1.23749 -0.993572 0
M  V30 4920 H 464.805 3.80395 -0.0894158 0
M  V30 4921 H 464.317 3.40123 -1.86917 0
M  V30 4922 H 462.418 3.68046 0.580735 0
M  V30 4923 H 462.531 4.68222 -1.01513 0
M  V30 4924 H 460.895 2.50788 -0.444712 0
M  V30 4925 H 461.678 2.71309 -2.10348 0
M  V30 4926 N 464.123 0.554532 1.47522 0
M  V30 4927 C 465.351 0.034257 2.06872 0
M  V30 4928 C 465.766 -1.25826 1.40759 0
M  V30 4929 O 465.123 -1.75425 0.503217 0
M  V30 4930 C 465.174 -0.167827 3.6111 0
M  V30 4931 O 464.895 1.07351 4.24744 0
M  V30 4932 C 466.396 -0.72569 4.3732 0
M  V30 4933 H 463.616 0.0446275 0.669514 0
M  V30 4934 H 466.16 0.767181 1.89564 0
M  V30 4935 H 464.315 -0.850872 3.7794 0
M  V30 4936 H 464.729 0.869563 5.17242 0
M  V30 4937 H 466.203 -0.816394 5.45929 0
M  V30 4938 H 466.68 -1.73635 4.0342 0
M  V30 4939 H 467.286 -0.0784292 4.25228 0
M  V30 4940 N 465.601 -1.54893 0.290851 0
M  V30 4941 C 466.849 -1.99538 -0.320756 0
M  V30 4942 C 467.17 -1.18075 -1.55188 0
M  V30 4943 O 466.44 -0.274162 -1.93972 0
M  V30 4944 H 465.02 -0.737052 -0.121507 0
M  V30 4945 H 467.682 -1.90755 0.399832 0
M  V30 4946 H 466.778 -3.06282 -0.599802 0
M  V30 4947 N 467.08 -0.0183926 -1.57589 0
M  V30 4948 C 468.326 0.663543 -1.91638 0
M  V30 4949 C 468.659 1.72392 -0.894134 0
M  V30 4950 O 467.934 1.94316 0.0846449 0
M  V30 4951 C 468.217 1.28984 -3.36207 0
M  V30 4952 C 468.07 0.239761 -4.49161 0
M  V30 4953 C 469.389 2.2109 -3.80536 0
M  V30 4954 H 466.508 0.239746 -0.696915 0
M  V30 4955 H 469.15 -0.073456 -1.89858 0
M  V30 4956 H 467.3 1.91799 -3.37854 0
M  V30 4957 H 468.972 -0.390119 -4.59647 0
M  V30 4958 H 467.215 -0.435972 -4.31604 0
M  V30 4959 H 467.886 0.717383 -5.47319 0
M  V30 4960 H 470.362 1.68273 -3.80557 0
M  V30 4961 H 469.238 2.61869 -4.82406 0
M  V30 4962 H 469.499 3.09764 -3.15434 0
M  V30 4963 N 468.558 1.5553 0.254621 0
M  V30 4964 C 469.798 1.7876 0.991179 0
M  V30 4965 C 470.162 0.586669 1.82817 0
M  V30 4966 O 471.363 0.697585 2.5959 0
M  V30 4967 C 469.634 3.06679 1.83529 0
M  V30 4968 S 471.193 3.511 2.632 0
M  V30 4969 H 468.011 0.627916 0.333531 0
M  V30 4970 H 470.613 1.93766 0.259778 0
M  V30 4971 H 469.317 3.92158 1.20996 0
M  V30 4972 H 468.848 2.94388 2.60958 0
M  V30 4973 H 470.863 3.11823 3.8598 0
M  V30 4974 N 470.036 -0.519951 1.48776 0
M  V30 4975 C 471.447 -1.10177 1.50725 0
M  V30 4976 C 471.798 -1.94153 0.282678 0
M  V30 4977 O 470.923 -2.07645 -0.609298 0
M  V30 4978 C 471.518 -2.00482 2.73116 0
M  V30 4979 C 470.077 -2.53862 2.77905 0
M  V30 4980 C 469.224 -1.31047 2.44381 0
M  V30 4981 H 472.175 -0.30473 1.55747 0
M  V30 4982 H 472.196 -2.8491 2.52203 0
M  V30 4983 H 471.708 -1.39335 3.62225 0
M  V30 4984 H 469.809 -3.18702 1.93029 0
M  V30 4985 H 469.922 -2.9231 3.79594 0
M  V30 4986 H 468.286 -1.62953 1.95751 0
M  V30 4987 H 469.069 -0.71637 3.35743 0
M  V30 4988 N 471.514 -1.37532 -0.769588 0
M  V30 4989 C 472.761 -1.3286 -1.52822 0
M  V30 4990 C 473.089 0.0862597 -1.94309 0
M  V30 4991 O 472.344 1.05995 -1.6451 0
M  V30 4992 C 472.643 -2.21558 -2.8044 0
M  V30 4993 C 472.309 -3.69796 -2.57996 0
M  V30 4994 C 470.971 -4.10194 -2.51583 0
M  V30 4995 C 473.323 -4.63699 -2.37976 0
M  V30 4996 C 470.651 -5.42608 -2.23144 0
M  V30 4997 C 473.003 -5.96353 -2.1106 0
M  V30 4998 C 471.667 -6.35853 -2.03093 0
M  V30 4999 H 470.937 -0.486168 -0.559215 0
M  V30 5000 H 473.584 -1.69757 -0.886277 0
M  V30 5001 H 471.889 -1.77663 -3.49204 0
M  V30 5002 H 473.586 -2.15256 -3.38328 0
M  V30 5003 H 470.176 -3.37759 -2.63851 0
M  V30 5004 H 474.36 -4.33346 -2.41919 0
M  V30 5005 H 469.616 -5.72173 -2.15472 0
M  V30 5006 H 473.79 -6.68667 -1.94568 0
M  V30 5007 H 471.417 -7.38382 -1.8082 0
M  V30 5008 N 472.992 0.995999 -1.22138 0
M  V30 5009 C 474.217 1.77601 -1.0711 0
M  V30 5010 C 474.642 1.84339 0.374264 0
M  V30 5011 O 474 1.29359 1.27028 0
M  V30 5012 C 474.048 3.18897 -1.68336 0
M  V30 5013 O 473.152 4.01663 -0.934928 0
M  V30 5014 H 472.493 0.547011 -0.376397 0
M  V30 5015 H 475.023 1.25137 -1.6187 0
M  V30 5016 H 475.033 3.69539 -1.72931 0
M  V30 5017 H 473.708 3.13308 -2.73516 0
M  V30 5018 H 472.285 3.60204 -0.964751 0
M  V30 5019 N 474.47 1.03057 1.19235 0
M  V30 5020 C 475.718 0.726581 1.88587 0
M  V30 5021 C 476.039 -0.747227 1.80115 0
M  V30 5022 O 475.309 -1.53849 1.21274 0
M  V30 5023 H 473.889 0.265768 0.698124 0
M  V30 5024 H 476.551 1.30516 1.44746 0
M  V30 5025 H 475.647 1.0224 2.94879 0
M  V30 5026 N 475.948 -1.35272 0.808662 0
M  V30 5027 C 476.911 -2.28082 0.226093 0
M  V30 5028 C 477.911 -1.49673 -0.587762 0
M  V30 5029 O 479.101 -1.69404 -0.405943 0
M  V30 5030 C 476.233 -3.33955 -0.684596 0
M  V30 5031 H 477.426 -2.81116 1.04469 0
M  V30 5032 H 474.979 -1.45162 0.579466 0
M  V30 5033 H 475.714 -2.86111 -1.5268 0
M  V30 5034 H 475.499 -3.91965 -0.102699 0
M  V30 5035 H 476.989 -4.03219 -1.08646 0
M  V30 5036 N 477.426 -0.562348 -1.47226 0
M  V30 5037 C 478.654 -0.0452275 -2.06851 0
M  V30 5038 C 479.069 1.25078 -1.41424 0
M  V30 5039 O 478.426 1.75156 -0.512513 0
M  V30 5040 C 478.477 0.148674 -3.61194 0
M  V30 5041 O 478.198 -1.09602 -4.24169 0
M  V30 5042 C 479.699 0.702488 -4.37699 0
M  V30 5043 H 476.919 -0.0481775 -0.669268 0
M  V30 5044 H 479.463 -0.777223 -1.89155 0
M  V30 5045 H 477.618 0.830817 -3.78386 0
M  V30 5046 H 478.032 -0.896982 -5.16773 0
M  V30 5047 H 479.506 0.78743 -5.46355 0
M  V30 5048 H 479.983 1.71493 -4.04335 0
M  V30 5049 H 480.589 0.0558772 -4.25263 0
M  V30 5050 N 478.904 1.54736 -0.299062 0
M  V30 5051 C 480.132 2.04512 0.313447 0
M  V30 5052 C 480.547 1.17643 1.47667 0
M  V30 5053 O 479.904 0.20164 1.81383 0
M  V30 5054 C 479.955 3.53171 0.771542 0
M  V30 5055 O 479.676 4.36736 -0.345379 0
M  V30 5056 C 481.177 4.18936 1.4494 0
M  V30 5057 H 478.397 0.667507 0.0683784 0
M  V30 5058 H 480.941 1.99752 -0.438129 0
M  V30 5059 H 479.096 3.58298 1.47314 0
M  V30 5060 H 479.51 5.24499 0.0109219 0
M  V30 5061 H 480.984 5.24482 1.72111 0
M  V30 5062 H 481.461 3.68554 2.38883 0
M  V30 5063 H 482.067 4.17879 0.791028 0
M  V30 5064 N 480.382 0.0267497 1.57577 0
M  V30 5065 C 481.63 -0.651116 1.91324 0
M  V30 5066 C 481.951 -1.72804 0.90353 0
M  V30 5067 O 481.221 -1.95822 -0.0552946 0
M  V30 5068 H 479.801 -0.243491 0.706202 0
M  V30 5069 H 482.463 0.0739935 1.94759 0
M  V30 5070 H 481.559 -1.10536 2.9187 0
M  V30 5071 N 481.861 -1.55662 -0.24637 0
M  V30 5072 C 483.089 -1.81575 -0.991876 0
M  V30 5073 C 483.504 -0.602545 -1.78927 0
M  V30 5074 O 482.861 0.428795 -1.77391 0
M  V30 5075 C 482.912 -3.05711 -1.92933 0
M  V30 5076 O 482.633 -4.22348 -1.1642 0
M  V30 5077 C 484.134 -3.44428 -2.79078 0
M  V30 5078 H 481.354 -0.604209 -0.291844 0
M  V30 5079 H 483.898 -2.02722 -0.269095 0
M  V30 5080 H 482.053 -2.86612 -2.60638 0
M  V30 5081 H 482.467 -4.92706 -1.79835 0
M  V30 5082 H 483.941 -4.34388 -3.40603 0
M  V30 5083 H 484.418 -2.65037 -3.50217 0
M  V30 5084 H 485.024 -3.65879 -2.16824 0
M  V30 5085 N 483.339 0.512053 -1.4905 0
M  V30 5086 C 484.587 1.26436 -1.57665 0
M  V30 5087 C 484.908 1.93255 -0.260293 0
M  V30 5088 O 484.178 1.82206 0.719564 0
M  V30 5089 H 482.758 0.469658 -0.580888 0
M  V30 5090 H 485.42 0.594398 -1.85615 0
M  V30 5091 H 484.516 2.03417 -2.36702 0
M  V30 5092 N 484.817 1.37938 0.762283 0
M  V30 5093 C 486.065 1.33404 1.51815 0
M  V30 5094 C 486.386 -0.0780975 1.94844 0
M  V30 5095 O 485.656 -1.02405 1.67003 0
M  V30 5096 H 484.236 0.490839 0.563104 0
M  V30 5097 H 486.898 1.72527 0.906669 0
M  V30 5098 H 485.994 1.97926 2.41313 0
M  V30 5099 N 486.295 -0.989507 1.22664 0
M  V30 5100 C 487.711 -1.25395 0.987331 0
M  V30 5101 C 487.911 -1.9899 -0.317056 0
M  V30 5102 O 486.967 -2.30141 -1.03882 0
M  V30 5103 C 488.28 -2.06242 2.18826 0
M  V30 5104 C 489.828 -2.19413 2.23219 0
M  V30 5105 C 490.303 -3.03648 3.42873 0
M  V30 5106 N 491.794 -3.11234 3.43056 0
M  V30 5107 C 492.529 -3.7671 4.32293 0
M  V30 5108 N 492.025 -4.44085 5.31752 0
M  V30 5109 N 493.818 -3.73505 4.2006 0
M  V30 5110 H 485.969 -0.496212 2.06522 0
M  V30 5111 H 488.232 -0.281784 0.905153 0
M  V30 5112 H 487.938 -1.59531 3.13437 0
M  V30 5113 H 487.812 -3.06996 2.19165 0
M  V30 5114 H 490.199 -2.65336 1.29154 0
M  V30 5115 H 490.28 -1.18078 2.26917 0
M  V30 5116 H 489.924 -2.58424 4.37241 0
M  V30 5117 H 489.854 -4.05132 3.36416 0
M  V30 5118 H 492.345 -2.63287 2.71088 0
M  V30 5119 H 492.658 -4.91797 5.96117 0
M  V30 5120 H 491.003 -4.42822 5.35662 0
M  V30 5121 H 494.194 -3.20033 3.41609 0
M  V30 5122 H 494.367 -4.24253 4.8981 0
M  V30 5123 N 487.773 -1.03688 -1.18687 0
M  V30 5124 C 489.022 -0.733235 -1.879 0
M  V30 5125 C 489.335 0.741745 -1.8099 0
M  V30 5126 O 490.541 1.15875 -2.4553 0
M  V30 5127 C 488.997 -1.26127 -3.37076 0
M  V30 5128 C 488.605 -2.76461 -3.52524 0
M  V30 5129 C 490.349 -1.03398 -4.11715 0
M  V30 5130 C 488.256 -3.22642 -4.95637 0
M  V30 5131 H 487.186 -0.270584 -0.703776 0
M  V30 5132 H 489.837 -1.25222 -1.34133 0
M  V30 5133 H 488.219 -0.670165 -3.90288 0
M  V30 5134 H 489.393 -3.41296 -3.09602 0
M  V30 5135 H 487.708 -2.97559 -2.91286 0
M  V30 5136 H 490.305 -1.3542 -5.17267 0
M  V30 5137 H 490.648 0.0289246 -4.1629 0
M  V30 5138 H 491.181 -1.5895 -3.64664 0
M  V30 5139 H 487.92 -4.28296 -4.96228 0
M  V30 5140 H 487.44 -2.62539 -5.39289 0
M  V30 5141 H 489.119 -3.16444 -5.64333 0
M  V30 5142 N 489.251 1.34841 -0.815825 0
M  V30 5143 C 490.667 1.51543 -0.500697 0
M  V30 5144 C 490.867 1.76261 0.976444 0
M  V30 5145 O 489.923 1.8094 1.76117 0
M  V30 5146 C 491.236 2.68487 -1.35407 0
M  V30 5147 C 492.784 2.82368 -1.35046 0
M  V30 5148 C 493.259 4.02347 -2.18816 0
M  V30 5149 N 494.75 4.09542 -2.16402 0
M  V30 5150 C 495.485 5.01517 -2.77971 0
M  V30 5151 N 494.981 5.98763 -3.48503 0
M  V30 5152 N 496.774 4.94334 -2.67563 0
M  V30 5153 H 488.925 1.17055 -1.77234 0
M  V30 5154 H 491.188 0.573481 -0.754866 0
M  V30 5155 H 490.894 2.56829 -2.40274 0
M  V30 5156 H 490.768 3.63321 -1.01377 0
M  V30 5157 H 493.155 2.93471 -0.309604 0
M  V30 5158 H 493.236 1.88363 -1.73069 0
M  V30 5159 H 492.88 3.92004 -3.22948 0
M  V30 5160 H 492.81 4.95551 -1.78148 0
M  V30 5161 H 495.301 3.39932 -1.65091 0
M  V30 5162 H 495.614 6.6556 -3.92747 0
M  V30 5163 H 493.959 5.98909 -3.52609 0
M  V30 5164 H 497.15 4.1732 -2.12041 0
M  V30 5165 H 497.323 5.6582 -3.15834 0
M  V30 5166 N 490.729 0.570148 1.46925 0
M  V30 5167 C 492.006 -0.0153259 1.95594 0
M  V30 5168 C 492.386 -1.47232 1.51281 0
M  V30 5169 O 491.734 -2.15574 0.757624 0
M  V30 5170 C 491.944 0.143624 3.48704 0
M  V30 5171 C 493.292 0.00494484 4.246 0
M  V30 5172 O 494.316 0.0718214 3.56128 0
M  V30 5173 O 493.175 -0.141175 5.46318 0
M  V30 5174 H 490.269 -0.0568819 0.825041 0
M  V30 5175 H 492.815 0.637583 1.57267 0
M  V30 5176 H 491.587 1.15699 3.73804 0
M  V30 5177 H 491.21 -0.5463 3.93829 0
M  V30 5178 N 492.207 -1.54576 0.307264 0
M  V30 5179 C 493.453 -2.0056 -0.300612 0
M  V30 5180 C 493.786 -1.1953 -1.53057 0
M  V30 5181 O 493.061 -0.27337 -1.92569 0
M  V30 5182 C 493.344 -3.54167 -0.650987 0
M  V30 5183 C 493.197 -4.45933 0.588539 0
M  V30 5184 C 494.516 -4.14645 -1.47506 0
M  V30 5185 H 491.635 -0.729075 -0.107788 0
M  V30 5186 H 494.277 -1.85286 0.420606 0
M  V30 5187 H 492.427 -3.67313 -1.26544 0
M  V30 5188 H 494.099 -4.44683 1.22697 0
M  V30 5189 H 492.342 -4.16274 1.22058 0
M  V30 5190 H 493.013 -5.51189 0.299153 0
M  V30 5191 H 495.489 -4.04973 -0.955821 0
M  V30 5192 H 494.365 -5.22269 -1.68899 0
M  V30 5193 H 494.626 -3.66921 -2.4662 0
M  V30 5194 N 493.685 -0.035106 -1.57561 0
M  V30 5195 C 494.617 0.973604 -2.07494 0
M  V30 5196 C 495.63 1.28504 -0.999534 0
M  V30 5197 O 496.819 1.24864 -1.27559 0
M  V30 5198 C 493.919 2.29945 -2.48955 0
M  V30 5199 C 493.092 2.1723 -3.79644 0
M  V30 5200 C 492.151 3.328 -4.07592 0
M  V30 5201 O 491.177 3.09418 -4.77754 0
M  V30 5202 N 492.379 4.56779 -3.58236 0
M  V30 5203 H 495.144 0.547525 -2.94656 0
M  V30 5204 H 492.705 0.151515 -1.61189 0
M  V30 5205 H 494.697 3.06097 -2.64739 0
M  V30 5206 H 493.267 2.64173 -1.67126 0
M  V30 5207 H 492.487 1.25768 -3.73599 0
M  V30 5208 H 493.775 2.05945 -4.65257 0
M  V30 5209 H 493.173 4.78668 -3.01485 0
M  V30 5210 H 491.73 5.30079 -3.79288 0
M  V30 5211 N 495.163 1.55791 0.238111 0
M  V30 5212 C 496.403 1.79801 0.972163 0
M  V30 5213 C 496.767 0.606027 1.82185 0
M  V30 5214 O 497.968 0.725079 2.58836 0
M  V30 5215 C 496.239 3.08608 1.80266 0
M  V30 5216 S 497.798 3.53872 2.59461 0
M  V30 5217 H 494.616 0.631418 0.326852 0
M  V30 5218 H 497.218 1.94031 0.239212 0
M  V30 5219 H 495.922 3.93419 1.1683 0
M  V30 5220 H 495.453 2.9714 2.57821 0
M  V30 5221 H 497.468 3.15899 3.82651 0
M  V30 5222 N 496.642 -0.504142 1.49319 0
M  V30 5223 C 497.87 -1.28256 1.62351 0
M  V30 5224 C 498.285 -1.86502 0.293682 0
M  V30 5225 O 497.642 -1.67678 -0.720449 0
M  V30 5226 C 497.693 -2.41507 2.68992 0
M  V30 5227 O 497.414 -1.85656 3.96817 0
M  V30 5228 C 498.915 -3.32929 2.927 0
M  V30 5229 H 496.135 -0.389115 0.546654 0
M  V30 5230 H 498.679 -0.605531 1.95329 0
M  V30 5231 H 496.834 -3.05046 2.38801 0
M  V30 5232 H 497.248 -2.59981 4.55533 0
M  V30 5233 H 498.722 -4.0868 3.71058 0
M  V30 5234 H 499.199 -3.89733 2.02496 0
M  V30 5235 H 499.805 -2.75158 3.24296 0
M  V30 5236 N 498.12 -1.38341 -0.754957 0
M  V30 5237 C 499.368 -1.34208 -1.51105 0
M  V30 5238 C 499.689 0.0677634 -1.94882 0
M  V30 5239 O 498.959 1.01517 -1.67544 0
M  V30 5240 H 497.539 -0.493819 -0.560493 0
M  V30 5241 H 500.201 -1.73005 -0.897507 0
M  V30 5242 H 499.297 -1.99203 -2.4026 0
M  V30 5243 N 499.598 0.982988 -1.23187 0
M  V30 5244 C 501.014 1.2487 -0.993967 0
M  V30 5245 C 501.214 1.99155 0.306498 0
M  V30 5246 O 500.27 2.30688 1.0266 0
M  V30 5247 C 501.583 2.05078 -2.19917 0
M  V30 5248 C 503.131 2.18227 -2.2438 0
M  V30 5249 C 503.606 3.01825 -3.44479 0
M  V30 5250 N 505.097 3.09411 -3.44702 0
M  V30 5251 C 505.832 3.74412 -4.34285 0
M  V30 5252 N 505.328 4.41259 -5.341 0
M  V30 5253 N 507.121 3.71273 -4.22035 0
M  V30 5254 H 499.272 0.485253 -2.06783 0
M  V30 5255 H 501.535 0.276979 -0.906635 0
M  V30 5256 H 501.241 1.57867 -3.14279 0
M  V30 5257 H 501.115 3.05829 -2.2079 0
M  V30 5258 H 503.502 2.64648 -1.30559 0
M  V30 5259 H 503.583 1.16873 -2.2754 0
M  V30 5260 H 503.227 2.56102 -4.38605 0
M  V30 5261 H 503.157 4.03342 -3.38559 0
M  V30 5262 H 505.648 2.61845 -2.7248 0
M  V30 5263 H 505.961 4.88629 -5.98717 0
M  V30 5264 H 504.306 4.39975 -5.38002 0
M  V30 5265 H 507.497 3.18217 -3.43301 0
M  V30 5266 H 507.67 4.21649 -4.92053 0
M  V30 5267 N 501.076 1.04316 1.18135 0
M  V30 5268 C 502.324 0.746542 1.87806 0
M  V30 5269 C 502.645 -0.728082 1.80898 0
M  V30 5270 O 501.915 -1.52554 1.22899 0
M  V30 5271 H 500.495 0.273157 0.695265 0
M  V30 5272 H 503.157 1.32044 1.43354 0
M  V30 5273 H 502.253 1.05362 2.93778 0
M  V30 5274 N 502.554 -1.34406 0.822964 0
M  V30 5275 C 503.517 -2.2783 0.250271 0
M  V30 5276 C 504.517 -1.50288 -0.571854 0
M  V30 5277 O 505.707 -1.69825 -0.387952 0
M  V30 5278 C 502.839 -3.34663 -0.649137 0
M  V30 5279 H 504.032 -2.79992 1.07444 0
M  V30 5280 H 501.585 -1.44539 0.594829 0
M  V30 5281 H 502.32 -2.87714 -1.49637 0
M  V30 5282 H 502.105 -3.92052 -0.0611199 0
M  V30 5283 H 503.595 -4.04349 -1.04363 0
M  V30 5284 N 504.032 -0.577932 -1.46621 0
M  V30 5285 C 504.982 0.178869 -2.27297 0
M  V30 5286 C 505.966 0.866279 -1.35589 0
M  V30 5287 O 507.158 0.761163 -1.59798 0
M  V30 5288 C 504.287 1.19499 -3.2183 0
M  V30 5289 C 503.373 0.50994 -4.21023 0
M  V30 5290 N 503.764 -0.43177 -5.03954 0
M  V30 5291 C 502.062 0.761287 -4.39455 0
M  V30 5292 C 502.763 -0.831693 -5.75724 0
M  V30 5293 N 501.739 -0.181897 -5.43296 0
M  V30 5294 H 505.541 -0.544859 -2.88805 0
M  V30 5295 H 503.055 -0.399373 -1.57413 0
M  V30 5296 H 505.052 1.75131 -3.78332 0
M  V30 5297 H 503.712 1.91959 -2.61881 0
M  V30 5298 H 504.723 -0.807045 -5.11573 0
M  V30 5299 H 501.4 1.47282 -3.90659 0
M  V30 5300 H 502.79 -1.6067 -6.52407 0
M  V30 5301 N 505.51 1.54411 -0.315457 0
M  V30 5302 C 506.756 2.00716 0.289972 0
M  V30 5303 C 507.089 1.2034 1.5242 0
M  V30 5304 O 506.364 0.283579 1.92422 0
M  V30 5305 C 506.647 3.54507 0.632196 0
M  V30 5306 C 506.5 4.45615 -0.61218 0
M  V30 5307 C 507.819 4.15421 1.45305 0
M  V30 5308 H 504.938 0.729637 0.10392 0
M  V30 5309 H 507.58 1.8506 -0.430427 0
M  V30 5310 H 505.73 3.67979 1.24595 0
M  V30 5311 H 507.402 4.44026 -1.25053 0
M  V30 5312 H 505.645 4.15621 -1.24264 0
M  V30 5313 H 506.316 5.51022 -0.328379 0
M  V30 5314 H 508.792 4.05474 0.934331 0
M  V30 5315 H 507.668 5.23157 1.66127 0
M  V30 5316 H 507.929 3.68223 2.44671 0
M  V30 5317 N 506.988 0.0434614 1.5754 0
M  V30 5318 C 508.234 -0.632971 1.92669 0
M  V30 5319 C 508.567 -1.70947 0.921446 0
M  V30 5320 O 507.842 -1.94426 -0.0537202 0
M  V30 5321 C 508.125 -1.23619 3.38216 0
M  V30 5322 C 507.978 -0.168274 4.49485 0
M  V30 5323 C 509.297 -2.15008 3.84005 0
M  V30 5324 H 506.416 -0.228629 0.700641 0
M  V30 5325 H 509.058 0.103651 1.89717 0
M  V30 5326 H 507.208 -1.864 3.40863 0
M  V30 5327 H 508.88 0.463196 4.58969 0
M  V30 5328 H 507.123 0.504581 4.30855 0
M  V30 5329 H 507.794 -0.630218 5.48391 0
M  V30 5330 H 510.27 -1.62198 3.83185 0
M  V30 5331 H 509.146 -2.54161 4.86511 0
M  V30 5332 H 509.407 -3.04707 3.20322 0
M  V30 5333 N 508.466 -1.55915 -0.229846 0
M  V30 5334 C 509.429 -1.90914 -1.26824 0
M  V30 5335 C 510.429 -0.786999 -1.40225 0
M  V30 5336 O 511.619 -1.05484 -1.38632 0
M  V30 5337 C 508.751 -2.15264 -2.64337 0
M  V30 5338 H 509.944 -2.8378 -0.969998 0
M  V30 5339 H 507.497 -1.49069 -0.4699 0
M  V30 5340 H 508.232 -1.24923 -2.99274 0
M  V30 5341 H 508.017 -2.97005 -2.55989 0
M  V30 5342 H 509.507 -2.43467 -3.39284 0
M  V30 5343 N 509.944 0.496216 -1.49584 0
M  V30 5344 C 511.192 1.24756 -1.58998 0
M  V30 5345 C 511.513 1.92968 -0.280775 0
M  V30 5346 O 510.783 1.82959 0.700198 0
M  V30 5347 H 509.363 0.463471 -0.585836 0
M  V30 5348 H 512.025 0.574678 -1.86235 0
M  V30 5349 H 511.121 2.00895 -2.38847 0
M  V30 5350 N 511.423 1.38739 0.74761 0
M  V30 5351 C 512.651 1.38521 1.53686 0
M  V30 5352 C 513.066 -0.0235129 1.88785 0
M  V30 5353 O 512.423 -0.991662 1.53207 0
M  V30 5354 C 512.474 2.24641 2.83229 0
M  V30 5355 O 512.195 3.60026 2.49625 0
M  V30 5356 C 513.696 2.32669 3.77333 0
M  V30 5357 H 510.916 0.473589 0.475347 0
M  V30 5358 H 513.46 1.82395 0.924786 0
M  V30 5359 H 511.615 1.84213 3.40799 0
M  V30 5360 H 512.029 4.05435 3.3275 0
M  V30 5361 H 513.503 2.97201 4.65162 0
M  V30 5362 H 513.98 1.3421 4.18192 0
M  V30 5363 H 514.586 2.73512 3.25685 0
M  V30 5364 N 512.901 -0.976442 1.23707 0
M  V30 5365 C 513.864 -2.0511 1.02287 0
M  V30 5366 C 514.864 -1.60791 -0.0167195 0
M  V30 5367 O 516.054 -1.72761 0.223408 0
M  V30 5368 C 513.186 -3.36458 0.548507 0
M  V30 5369 H 514.379 -2.25545 1.9766 0
M  V30 5370 H 511.932 -1.15042 1.05806 0
M  V30 5371 H 512.667 -3.21713 -0.408818 0
M  V30 5372 H 512.452 -3.69967 1.29874 0
M  V30 5373 H 513.942 -4.15489 0.419406 0
M  V30 5374 N 514.379 -1.04941 -1.1758 0
M  V30 5375 C 515.627 -0.756492 -1.87408 0
M  V30 5376 C 515.948 0.718478 -1.81281 0
M  V30 5377 O 515.218 1.519 -1.23706 0
M  V30 5378 H 513.798 -0.276841 -0.693807 0
M  V30 5379 H 516.46 -1.32803 -1.42652 0
M  V30 5380 H 515.556 -1.06918 -2.93215 0
M  V30 5381 N 515.857 1.33968 -0.830081 0
M  V30 5382 C 517.087 2.01987 -0.434142 0
M  V30 5383 C 517.495 1.62639 0.96671 0
M  V30 5384 O 516.838 0.831151 1.63822 0
M  V30 5385 C 516.9 3.5648 -0.465018 0
M  V30 5386 C 516.564 4.19176 -1.82045 0
M  V30 5387 C 517.561 4.39181 -2.78237 0
M  V30 5388 C 515.246 4.55792 -2.11089 0
M  V30 5389 C 517.24 4.94937 -4.01642 0
M  V30 5390 C 514.927 5.11258 -3.34752 0
M  V30 5391 C 515.925 5.30775 -4.29845 0
M  V30 5392 O 515.613 5.85064 -5.51322 0
M  V30 5393 H 515.345 0.653847 -0.171639 0
M  V30 5394 H 517.899 1.72066 -1.12171 0
M  V30 5395 H 516.129 3.8569 0.279284 0
M  V30 5396 H 517.818 4.05804 -0.0881334 0
M  V30 5397 H 518.584 4.11249 -2.57097 0
M  V30 5398 H 514.463 4.39901 -1.3787 0
M  V30 5399 H 518.007 5.10086 -4.75876 0
M  V30 5400 H 513.904 5.38619 -3.55753 0
M  V30 5401 H 514.672 6.03489 -5.5294 0
M  V30 5402 N 517.335 0.585699 1.46312 0
M  V30 5403 C 518.575 0.0751432 2.04262 0
M  V30 5404 C 518.939 -1.26201 1.44697 0
M  V30 5405 O 520.14 -1.86198 1.93865 0
M  V30 5406 C 518.411 0.013478 3.57397 0
M  V30 5407 S 519.97 -0.439068 4.36598 0
M  V30 5408 H 516.788 0.0389228 0.709934 0
M  V30 5409 H 519.39 0.778871 1.79315 0
M  V30 5410 H 518.094 0.990558 3.98266 0
M  V30 5411 H 517.625 -0.712927 3.86886 0
M  V30 5412 H 519.64 -1.6932 4.66417 0
M  V30 5413 N 518.813 -1.54241 0.323641 0
M  V30 5414 C 520.06 -2.0057 -0.27891 0
M  V30 5415 C 520.388 -1.21181 -1.52136 0
M  V30 5416 O 519.643 -0.282043 -1.93657 0
M  V30 5417 C 519.942 -3.5129 -0.658031 0
M  V30 5418 C 519.608 -4.48281 0.485252 0
M  V30 5419 C 518.27 -4.74519 0.799055 0
M  V30 5420 C 520.622 -5.05909 1.25322 0
M  V30 5421 C 517.95 -5.55643 1.88354 0
M  V30 5422 C 520.302 -5.88215 2.32779 0
M  V30 5423 C 518.966 -6.12755 2.64741 0
M  V30 5424 H 518.236 -0.733938 -0.10206 0
M  V30 5425 H 520.883 -1.862 0.447435 0
M  V30 5426 H 519.188 -3.63388 -1.4648 0
M  V30 5427 H 520.885 -3.84578 -1.1358 0
M  V30 5428 H 517.475 -4.27979 0.230593 0
M  V30 5429 H 521.659 -4.8562 1.02404 0
M  V30 5430 H 516.915 -5.72888 2.13564 0
M  V30 5431 H 521.089 -6.31888 2.92729 0
M  V30 5432 H 518.716 -6.75404 3.48904 0
M  V30 5433 N 520.291 -0.0518155 -1.57515 0
M  V30 5434 C 521.539 0.620595 -1.92336 0
M  V30 5435 C 521.86 1.71345 -0.930907 0
M  V30 5436 O 521.13 1.95885 0.0241341 0
M  V30 5437 H 519.71 0.232226 -0.709986 0
M  V30 5438 H 522.372 -0.104969 -1.94617 0
M  V30 5439 H 521.468 1.05879 -2.93592 0
M  V30 5440 N 521.769 1.56035 0.221574 0
M  V30 5441 C 522.717 1.93269 1.29421 0
M  V30 5442 C 523.711 0.814727 1.48521 0
M  V30 5443 O 524.917 0.999559 1.49696 0
M  V30 5444 H 521.292 0.614188 0.43391 0
M  V30 5445 H 523.263 2.82773 0.952987 0
M  V30 5446 C 522.012 2.26573 2.63742 0
M  V30 5447 H 521.335 3.12112 2.49853 0
M  V30 5448 H 522.775 2.5651 3.37607 0
M  V30 5449 C 521.234 1.09086 3.1875 0
M  V30 5450 O 521.764 0.351985 4.00155 0
M  V30 5451 N 519.97 0.874693 2.77124 0
M  V30 5452 H 519.517 1.47726 2.11033 0
M  V30 5453 H 519.475 0.0903349 3.1427 0
M  V30 5454 N 523.247 -0.488276 1.49845 0
M  V30 5455 C 524.177 -1.59675 1.70371 0
M  V30 5456 C 525.158 -1.60878 0.552473 0
M  V30 5457 O 526.343 -1.77417 0.78973 0
M  V30 5458 C 523.473 -2.98098 1.782 0
M  V30 5459 C 522.427 -3.11761 2.93239 0
M  V30 5460 C 521.753 -4.51661 2.86193 0
M  V30 5461 C 523.053 -2.90589 4.33999 0
M  V30 5462 H 524.747 -1.42752 2.63177 0
M  V30 5463 H 522.293 -0.685317 1.26647 0
M  V30 5464 H 524.246 -3.75555 1.91144 0
M  V30 5465 H 522.97 -3.16138 0.820018 0
M  V30 5466 H 521.629 -2.36732 2.79917 0
M  V30 5467 H 521.277 -4.66595 1.87877 0
M  V30 5468 H 520.977 -4.61742 3.63412 0
M  V30 5469 H 522.501 -5.31162 3.01163 0
M  V30 5470 H 523.915 -3.57807 4.47936 0
M  V30 5471 H 522.312 -3.1213 5.12538 0
M  V30 5472 H 523.382 -1.86595 4.4756 0
M  V30 5473 N 524.725 -1.39134 -0.740242 0
M  V30 5474 C 525.675 -1.33928 -1.84519 0
M  V30 5475 C 526.659 -0.221097 -1.59374 0
M  V30 5476 O 527.851 -0.458195 -1.70967 0
M  V30 5477 C 524.98 -1.17991 -3.22387 0
M  V30 5478 C 524.066 -2.34488 -3.53378 0
M  V30 5479 N 524.457 -3.59954 -3.5534 0
M  V30 5480 C 522.755 -2.27331 -3.83714 0
M  V30 5481 C 523.456 -4.36962 -3.83978 0
M  V30 5482 N 522.432 -3.66482 -4.01487 0
M  V30 5483 H 526.234 -2.28907 -1.84333 0
M  V30 5484 H 523.748 -1.32555 -0.938237 0
M  V30 5485 H 525.745 -1.12345 -4.01478 0
M  V30 5486 H 524.405 -0.23957 -3.23815 0
M  V30 5487 H 525.416 -3.93448 -3.36778 0
M  V30 5488 H 522.093 -1.41531 -3.92779 0
M  V30 5489 H 523.483 -5.45692 -3.92008 0
M  V30 5490 N 526.204 0.969867 -1.24223 0
M  V30 5491 C 527.453 1.70687 -1.07466 0
M  V30 5492 C 527.766 1.91736 0.386861 0
M  V30 5493 O 528.972 2.62986 0.674581 0
M  V30 5494 C 527.428 3.07217 -1.87472 0
M  V30 5495 C 527.036 2.94018 -3.3802 0
M  V30 5496 C 528.78 3.84804 -1.79237 0
M  V30 5497 C 526.687 4.25844 -4.10379 0
M  V30 5498 H 525.617 0.640067 -0.398536 0
M  V30 5499 H 528.268 1.08092 -1.48285 0
M  V30 5500 H 526.65 3.70628 -1.39466 0
M  V30 5501 H 527.824 2.39632 -3.9359 0
M  V30 5502 H 526.139 2.29898 -3.47183 0
M  V30 5503 H 528.736 4.82417 -2.30603 0
M  V30 5504 H 529.079 4.09356 -0.757197 0
M  V30 5505 H 529.612 3.28115 -2.24912 0
M  V30 5506 H 526.351 4.06486 -5.14246 0
M  V30 5507 H 525.871 4.80054 -3.59594 0
M  V30 5508 H 527.55 4.94475 -4.17257 0
M  V30 5509 N 527.682 1.05563 1.17022 0
M  V30 5510 C 529.093 0.793475 1.69 0
M  V30 5511 C 529.444 -0.683882 1.83895 0
M  V30 5512 O 528.569 -1.53116 1.5292 0
M  V30 5513 C 529.164 1.43376 3.06967 0
M  V30 5514 C 527.723 1.21956 3.56095 0
M  V30 5515 C 526.87 1.51494 2.3226 0
M  V30 5516 H 529.821 1.22008 1.01487 0
M  V30 5517 H 529.842 0.845068 3.70997 0
M  V30 5518 H 529.354 2.50899 2.96093 0
M  V30 5519 H 527.455 0.163749 3.7224 0
M  V30 5520 H 527.568 1.92713 4.38633 0
M  V30 5521 H 525.932 0.935175 2.3691 0
M  V30 5522 H 526.715 2.60159 2.23992 0
M  V30 5523 N 529.16 -1.33526 0.837174 0
M  V30 5524 C 530.408 -1.97446 0.431211 0
M  V30 5525 C 530.729 -1.6665 -1.01255 0
M  V30 5526 O 529.999 -0.964559 -1.70508 0
M  V30 5527 H 528.579 -0.73043 0.156463 0
M  V30 5528 H 531.241 -1.62918 1.06976 0
M  V30 5529 H 530.337 -3.07001 0.561877 0
M  V30 5530 N 530.638 -0.59345 -1.46 0
M  V30 5531 C 531.868 -0.0889642 -2.06408 0
M  V30 5532 C 532.276 1.22597 -1.44106 0
M  V30 5533 O 531.619 1.75448 -0.544398 0
M  V30 5534 C 531.681 0.139902 -3.59228 0
M  V30 5535 C 531.345 -1.09107 -4.43784 0
M  V30 5536 C 532.342 -2.00577 -4.79651 0
M  V30 5537 C 530.027 -1.31593 -4.84756 0
M  V30 5538 C 532.021 -3.12873 -5.55328 0
M  V30 5539 C 529.708 -2.44192 -5.60191 0
M  V30 5540 C 530.706 -3.34661 -5.95392 0
M  V30 5541 O 530.394 -4.45302 -6.69299 0
M  V30 5542 H 530.126 -0.0594613 -0.67338 0
M  V30 5543 H 532.68 -0.817 -1.88452 0
M  V30 5544 H 530.91 0.922672 -3.75531 0
M  V30 5545 H 532.599 0.594228 -4.01527 0
M  V30 5546 H 533.365 -1.84425 -4.48567 0
M  V30 5547 H 529.244 -0.620801 -4.56801 0
M  V30 5548 H 532.788 -3.83511 -5.82722 0
M  V30 5549 H 528.685 -2.60303 -5.90688 0
M  V30 5550 H 529.453 -4.43805 -6.87735 0
M  V30 5551 N 532.116 1.54067 -0.331816 0
M  V30 5552 C 533.064 2.26105 0.54582 0
M  V30 5553 C 534.058 1.27816 1.11173 0
M  V30 5554 O 535.264 1.45565 1.05882 0
M  V30 5555 H 531.639 0.726363 0.194683 0
M  V30 5556 H 533.61 2.98282 -0.083931 0
M  V30 5557 C 532.359 3.03814 1.69092 0
M  V30 5558 H 531.682 3.79269 1.26473 0
M  V30 5559 H 533.122 3.57453 2.28043 0
M  V30 5560 C 531.581 2.12606 2.61343 0
M  V30 5561 O 532.111 1.71437 3.6328 0
M  V30 5562 N 530.317 1.77925 2.29763 0
M  V30 5563 H 529.864 2.11602 1.46909 0
M  V30 5564 H 529.822 1.1718 2.91747 0
M  V30 5565 N 533.594 0.0601682 1.57485 0
M  V30 5566 C 534.524 -0.90889 2.15085 0
M  V30 5567 C 535.505 -1.31838 1.07484 0
M  V30 5568 O 536.69 -1.3915 1.35466 0
M  V30 5569 C 533.82 -2.18059 2.7031 0
M  V30 5570 C 532.774 -1.91088 3.82974 0
M  V30 5571 C 532.1 -3.24789 4.24754 0
M  V30 5572 C 533.4 -1.22535 5.07723 0
M  V30 5573 H 535.094 -0.429093 2.96309 0
M  V30 5574 H 532.64 -0.204952 1.42534 0
M  V30 5575 H 534.593 -2.86258 3.09248 0
M  V30 5576 H 533.317 -2.6826 1.8629 0
M  V30 5577 H 531.976 -1.25297 3.44523 0
M  V30 5578 H 531.624 -3.72809 3.37672 0
M  V30 5579 H 531.324 -3.07538 5.00694 0
M  V30 5580 H 532.848 -3.94205 4.66299 0
M  V30 5581 H 534.262 -1.80783 5.4405 0
M  V30 5582 H 532.659 -1.1558 5.88864 0
M  V30 5583 H 533.729 -0.202692 4.84476 0
M  V30 5584 N 535.072 -1.5615 -0.213296 0
M  V30 5585 C 536.483 -1.69645 -0.779582 0
M  V30 5586 C 536.834 -0.663615 -1.84636 0
M  V30 5587 O 535.959 0.183633 -2.15619 0
M  V30 5588 C 536.554 -3.07567 -1.42084 0
M  V30 5589 C 535.113 -3.22889 -1.93442 0
M  V30 5590 C 534.26 -2.65581 -0.797612 0
M  V30 5591 H 537.211 -1.58696 0.0114951 0
M  V30 5592 H 537.232 -3.03884 -2.28986 0
M  V30 5593 H 536.744 -3.82716 -0.644187 0
M  V30 5594 H 534.845 -2.52623 -2.73884 0
M  V30 5595 H 534.958 -4.30197 -2.10872 0
M  V30 5596 H 533.322 -2.24278 -1.20712 0
M  V30 5597 H 534.105 -3.43284 -0.033494 0
M  V30 5598 N 536.55 0.480323 -1.50102 0
M  V30 5599 C 537.796 1.23208 -1.61837 0
M  V30 5600 C 538.151 1.89878 -0.310509 0
M  V30 5601 O 537.444 1.7871 0.690897 0
M  V30 5602 C 537.638 2.30708 -2.72963 0
M  V30 5603 C 537.467 1.74583 -4.14428 0
M  V30 5604 C 536.237 1.54964 -4.80951 0
M  V30 5605 C 538.435 1.24597 -4.98979 0
M  V30 5606 N 536.417 0.939855 -6.06663 0
M  V30 5607 C 537.788 0.758834 -6.15339 0
M  V30 5608 C 539.843 1.13365 -4.84822 0
M  V30 5609 C 538.546 0.17046 -7.19098 0
M  V30 5610 C 540.572 0.559221 -5.8875 0
M  V30 5611 C 539.934 0.082415 -7.04352 0
M  V30 5612 H 536.033 0.440065 -0.646426 0
M  V30 5613 H 538.617 0.535632 -1.87187 0
M  V30 5614 H 536.788 2.9779 -2.4935 0
M  V30 5615 H 538.52 2.97738 -2.74106 0
M  V30 5616 H 535.275 1.79926 -4.38091 0
M  V30 5617 H 535.699 0.653641 -6.73837 0
M  V30 5618 H 540.341 1.48823 -3.95742 0
M  V30 5619 H 538.059 -0.196347 -8.07861 0
M  V30 5620 H 541.645 0.474804 -5.79859 0
M  V30 5621 H 540.525 -0.355119 -7.83396 0
M  V30 5622 N 538.028 1.39524 0.732853 0
M  V30 5623 C 538.938 1.40695 1.87729 0
M  V30 5624 C 539.954 0.301496 1.71368 0
M  V30 5625 O 541.13 0.543313 1.93933 0
M  V30 5626 C 538.195 1.25098 3.23344 0
M  V30 5627 C 537.256 2.45634 3.52083 0
M  V30 5628 C 536.489 2.30772 4.81228 0
M  V30 5629 O 536.712 1.31233 5.55098 0
M  V30 5630 O 535.646 3.19799 5.09914 0
M  V30 5631 H 539.472 2.37168 1.89697 0
M  V30 5632 H 537.057 1.20663 0.880959 0
M  V30 5633 H 538.939 1.18541 4.04383 0
M  V30 5634 H 537.614 0.317209 3.22142 0
M  V30 5635 H 536.521 2.57767 2.71122 0
M  V30 5636 H 537.854 3.37712 3.58066 0
M  V30 5637 N 539.506 -0.963266 1.24736 0
M  V30 5638 C 540.783 -1.68248 0.9976 0
M  V30 5639 C 541.163 -2.05599 -0.478776 0
M  V30 5640 O 540.511 -1.7626 -1.45412 0
M  V30 5641 C 540.721 -2.91118 1.92487 0
M  V30 5642 C 542.069 -3.63261 2.19833 0
M  V30 5643 O 543.093 -3.01184 1.90176 0
M  V30 5644 O 541.952 -4.75019 2.7022 0
M  V30 5645 H 539.046 -0.735744 0.377637 0
M  V30 5646 H 541.592 -1.01696 1.35853 0
M  V30 5647 H 540.364 -2.60242 2.92215 0
M  V30 5648 H 539.987 -3.65402 1.56738 0
M  V30 5649 N 540.985 -1.06182 -1.16461 0
M  V30 5650 C 542.396 -0.802426 -1.68576 0
M  V30 5651 C 542.747 0.67412 -1.84255 0
M  V30 5652 O 541.872 1.52303 -1.5373 0
M  V30 5653 C 542.467 -1.45002 -3.06202 0
M  V30 5654 C 541.026 -1.23843 -3.55443 0
M  V30 5655 C 540.173 -1.52724 -2.31454 0
M  V30 5656 H 543.124 -1.22545 -1.00839 0
M  V30 5657 H 543.145 -0.864731 -3.70544 0
M  V30 5658 H 542.657 -2.52466 -2.94759 0
M  V30 5659 H 540.758 -0.183487 -3.72148 0
M  V30 5660 H 540.871 -1.95036 -4.37604 0
M  V30 5661 H 539.235 -0.947726 -2.36411 0
M  V30 5662 H 540.018 -2.61343 -2.22609 0
M  V30 5663 N 542.463 1.3308 -0.844243 0
M  V30 5664 C 543.688 2.02341 -0.455282 0
M  V30 5665 C 544.113 1.6308 0.93737 0
M  V30 5666 O 543.471 0.826118 1.61385 0
M  V30 5667 C 543.519 3.55743 -0.58988 0
M  V30 5668 O 542.623 4.1063 0.38166 0
M  V30 5669 H 541.964 0.637898 -0.184343 0
M  V30 5670 H 544.494 1.6986 -1.14056 0
M  V30 5671 H 544.504 4.05243 -0.473522 0
M  V30 5672 H 543.179 3.83662 -1.60549 0
M  V30 5673 H 541.756 3.72236 0.22241 0
M  V30 5674 N 543.941 0.601185 1.45683 0
M  V30 5675 C 545.188 0.0938811 2.02282 0
M  V30 5676 C 545.516 -1.27315 1.47041 0
M  V30 5677 O 544.771 -1.85193 0.632623 0
M  V30 5678 C 545.07 -0.00222425 3.574 0
M  V30 5679 C 544.736 1.29963 4.31764 0
M  V30 5680 C 543.398 1.65625 4.51798 0
M  V30 5681 C 545.75 2.1603 4.74321 0
M  V30 5682 C 543.078 2.87119 5.11644 0
M  V30 5683 C 545.43 3.36766 5.3551 0
M  V30 5684 C 544.094 3.72689 5.53768 0
M  V30 5685 H 543.364 0.0343535 0.740203 0
M  V30 5686 H 546.011 0.781522 1.74827 0
M  V30 5687 H 544.316 -0.773096 3.84097 0
M  V30 5688 H 546.013 -0.410794 3.9889 0
M  V30 5689 H 542.603 1.01204 4.1648 0
M  V30 5690 H 546.787 1.89778 4.58582 0
M  V30 5691 H 542.043 3.15065 5.2397 0
M  V30 5692 H 546.217 4.03713 5.67441 0
M  V30 5693 H 543.844 4.66918 5.99909 0
M  V30 5694 N 545.419 -1.53889 0.339982 0
M  V30 5695 C 546.351 -2.22435 -0.55275 0
M  V30 5696 C 547.364 -1.22975 -1.06681 0
M  V30 5697 O 548.553 -1.49351 -0.977575 0
M  V30 5698 C 545.653 -2.8882 -1.77302 0
M  V30 5699 C 544.826 -4.14563 -1.39486 0
M  V30 5700 C 543.885 -4.64391 -2.47442 0
M  V30 5701 O 542.911 -5.28687 -2.10899 0
M  V30 5702 N 544.113 -4.40015 -3.78639 0
M  V30 5703 H 546.878 -2.9968 0.0342669 0
M  V30 5704 H 544.439 -1.61068 0.16394 0
M  V30 5705 H 546.431 -3.19072 -2.48948 0
M  V30 5706 H 545.001 -2.15182 -2.26749 0
M  V30 5707 H 544.221 -3.90896 -0.509321 0
M  V30 5708 H 545.509 -4.96362 -1.11813 0
M  V30 5709 H 544.907 -3.88586 -4.11118 0
M  V30 5710 H 543.464 -4.74881 -4.46465 0
M  V30 5711 N 546.897 -0.0685191 -1.57451 0
M  V30 5712 C 548.127 0.609577 -1.97402 0
M  V30 5713 C 548.535 1.63882 -0.945489 0
M  V30 5714 O 547.878 1.8354 0.0766052 0
M  V30 5715 C 547.94 1.3385 -3.33653 0
M  V30 5716 C 547.604 0.463103 -4.54648 0
M  V30 5717 C 548.601 -0.277964 -5.19156 0
M  V30 5718 C 546.286 0.388941 -5.00792 0
M  V30 5719 C 548.28 -1.08145 -6.28159 0
M  V30 5720 C 545.967 -0.418217 -6.09667 0
M  V30 5721 C 546.965 -1.15208 -6.73213 0
M  V30 5722 O 546.653 -1.94594 -7.79993 0
M  V30 5723 H 546.385 0.170197 -0.654224 0
M  V30 5724 H 548.939 -0.13647 -2.04946 0
M  V30 5725 H 547.169 2.13055 -3.22714 0
M  V30 5726 H 548.858 1.90851 -3.58233 0
M  V30 5727 H 549.624 -0.230241 -4.84453 0
M  V30 5728 H 545.503 0.949769 -4.5111 0
M  V30 5729 H 549.047 -1.65476 -6.7769 0
M  V30 5730 H 544.944 -0.467515 -6.43805 0
M  V30 5731 H 545.712 -1.8699 -7.96854 0
M  V30 5732 N 548.375 1.56261 0.205012 0
M  V30 5733 C 549.786 1.70056 0.770574 0
M  V30 5734 C 550.137 0.673398 1.84282 0
M  V30 5735 O 549.262 -0.172196 2.15714 0
M  V30 5736 C 549.857 3.08316 1.40451 0
M  V30 5737 C 548.416 3.2391 1.91727 0
M  V30 5738 C 547.563 2.66001 0.783516 0
M  V30 5739 H 550.514 1.58688 -0.019911 0
M  V30 5740 H 550.535 3.05094 2.27371 0
M  V30 5741 H 550.047 3.83053 0.623882 0
M  V30 5742 H 548.148 2.54072 2.7254 0
M  V30 5743 H 548.261 4.3131 2.08588 0
M  V30 5744 H 546.625 2.24915 1.19521 0
M  V30 5745 H 547.408 3.43297 0.0152883 0
M  V30 5746 N 549.853 -0.472356 1.50355 0
M  V30 5747 C 551.101 -1.22211 1.60962 0
M  V30 5748 C 551.422 -1.92497 0.311439 0
M  V30 5749 O 550.692 -1.8405 -0.671002 0
M  V30 5750 H 549.272 -0.454092 0.593135 0
M  V30 5751 H 551.934 -0.544977 1.87126 0
M  V30 5752 H 551.03 -1.9707 2.42012 0
M  V30 5753 N 551.331 -1.39911 -0.725443 0
M  V30 5754 C 552.279 -1.39552 -1.86086 0
M  V30 5755 C 553.273 -0.277334 -1.67114 0
M  V30 5756 O 554.479 -0.447865 -1.74339 0
M  V30 5757 H 550.854 -0.435993 -0.612711 0
M  V30 5758 H 552.825 -2.35305 -1.83505 0
M  V30 5759 C 551.574 -1.26529 -3.2386 0
M  V30 5760 H 550.897 -2.11845 -3.3906 0
M  V30 5761 H 552.337 -1.30336 -4.03471 0
M  V30 5762 C 550.796 0.0254168 -3.3689 0
M  V30 5763 O 551.326 0.992048 -3.89257 0
M  V30 5764 N 549.532 0.0916528 -2.90455 0
M  V30 5765 H 549.079 -0.695675 -2.48028 0
M  V30 5766 H 549.037 0.954745 -2.99553 0
M  V30 5767 N 552.809 0.956637 -1.25245 0
M  V30 5768 C 554.056 1.701 -1.09874 0
M  V30 5769 C 554.384 1.91128 0.36062 0
M  V30 5770 O 553.639 1.47837 1.28229 0
M  V30 5771 C 553.938 3.08996 -1.79601 0
M  V30 5772 C 553.604 3.07774 -3.29523 0
M  V30 5773 C 552.266 3.07149 -3.70423 0
M  V30 5774 C 554.618 3.01257 -4.25316 0
M  V30 5775 C 551.946 2.97752 -5.0553 0
M  V30 5776 C 554.298 2.93403 -5.60444 0
M  V30 5777 C 552.962 2.91111 -6.00675 0
M  V30 5778 H 552.232 0.62244 -0.402056 0
M  V30 5779 H 554.879 1.1178 -1.55491 0
M  V30 5780 H 553.184 3.70848 -1.26408 0
M  V30 5781 H 554.881 3.65407 -1.65162 0
M  V30 5782 H 551.471 3.09032 -2.9698 0
M  V30 5783 H 555.655 3.00861 -3.9471 0
M  V30 5784 H 550.911 2.94346 -5.35883 0
M  V30 5785 H 555.085 2.87321 -6.34366 0
M  V30 5786 H 552.712 2.83586 -7.05325 0
M  V30 5787 N 554.287 1.06798 1.15896 0
M  V30 5788 C 555.25 0.687328 2.18651 0
M  V30 5789 C 556.25 -0.269559 1.58524 0
M  V30 5790 O 557.44 -0.0512627 1.74125 0
M  V30 5791 C 554.572 0.0121642 3.40898 0
M  V30 5792 H 555.765 1.59701 2.53842 0
M  V30 5793 H 553.318 0.863828 1.3026 0
M  V30 5794 H 554.053 -0.910025 3.1127 0
M  V30 5795 H 553.838 0.700309 3.85795 0
M  V30 5796 H 555.328 -0.239703 4.16911 0
M  V30 5797 N 555.766 -1.3263 0.851289 0
M  V30 5798 C 557.182 -1.50162 0.5407 0
M  V30 5799 C 557.382 -1.78788 -0.929369 0
M  V30 5800 O 556.438 -1.85545 -1.71258 0
M  V30 5801 C 557.751 -2.64803 1.42478 0
M  V30 5802 C 559.299 -2.78688 1.42485 0
M  V30 5803 C 559.774 -3.96405 2.29407 0
M  V30 5804 N 561.265 -4.0366 2.27184 0
M  V30 5805 C 562 -4.93971 2.9117 0
M  V30 5806 N 561.496 -5.89313 3.64256 0
M  V30 5807 N 563.289 -4.87066 2.80576 0
M  V30 5808 H 555.44 -1.12315 1.80275 0
M  V30 5809 H 557.703 -0.553266 0.769806 0
M  V30 5810 H 557.409 -2.50368 2.46999 0
M  V30 5811 H 557.283 -3.60506 1.10974 0
M  V30 5812 H 559.67 -2.92547 0.387304 0
M  V30 5813 H 559.751 -1.83708 1.78002 0
M  V30 5814 H 559.395 -3.83304 3.33228 0
M  V30 5815 H 559.325 -4.90654 1.91224 0
M  V30 5816 H 561.816 -3.35435 1.74045 0
M  V30 5817 H 562.129 -6.54913 4.10255 0
M  V30 5818 H 560.474 -5.8935 3.68364 0
M  V30 5819 H 563.665 -4.11552 2.23031 0
M  V30 5820 H 563.838 -5.57248 3.30725 0
M  V30 5821 N 557.244 -0.608902 -1.45362 0
M  V30 5822 C 558.655 -0.189511 -1.85736 0
M  V30 5823 C 559.006 1.2539 -1.50903 0
M  V30 5824 O 558.131 1.95094 -0.936347 0
M  V30 5825 C 558.726 -0.33716 -3.37118 0
M  V30 5826 C 557.285 0.0275487 -3.7639 0
M  V30 5827 C 556.432 -0.660983 -2.69307 0
M  V30 5828 H 559.383 -0.815499 -1.36144 0
M  V30 5829 H 559.404 0.430257 -3.7806 0
M  V30 5830 H 558.916 -1.38779 -3.62439 0
M  V30 5831 H 557.017 1.0773 -3.56686 0
M  V30 5832 H 557.13 -0.367018 -4.77692 0
M  V30 5833 H 555.494 -0.0984958 -2.54509 0
M  V30 5834 H 556.277 -1.71377 -2.97464 0
M  V30 5835 N 558.722 1.53707 -0.348139 0
M  V30 5836 C 559.652 2.28111 0.498766 0
M  V30 5837 C 560.633 1.29851 1.09876 0
M  V30 5838 O 561.818 1.587 1.11928 0
M  V30 5839 C 558.948 3.05735 1.64753 0
M  V30 5840 C 557.902 4.11537 1.17565 0
M  V30 5841 C 557.228 4.77142 2.4133 0
M  V30 5842 C 558.528 5.21587 0.272844 0
M  V30 5843 H 560.222 2.99152 -0.121934 0
M  V30 5844 H 557.768 1.43875 -0.0600842 0
M  V30 5845 H 559.721 3.56526 2.24649 0
M  V30 5846 H 558.445 2.32354 2.2952 0
M  V30 5847 H 557.104 3.61665 0.599483 0
M  V30 5848 H 556.752 4.0035 3.04514 0
M  V30 5849 H 556.452 5.48626 2.10436 0
M  V30 5850 H 557.976 5.30719 3.01943 0
M  V30 5851 H 559.39 5.67986 0.778779 0
M  V30 5852 H 557.787 6.00074 0.0555849 0
M  V30 5853 H 558.857 4.79969 -0.689785 0
M  V30 5854 N 560.2 0.0768682 1.57412 0
M  V30 5855 C 561.11 -0.903207 2.16516 0
M  V30 5856 C 562.126 -1.32341 1.12968 0
M  V30 5857 O 563.302 -1.39507 1.45258 0
M  V30 5858 C 560.367 -2.1508 2.71922 0
M  V30 5859 C 559.428 -1.78653 3.90361 0
M  V30 5860 C 558.661 -2.97465 4.43114 0
M  V30 5861 O 558.884 -4.11638 3.94854 0
M  V30 5862 O 557.818 -2.76987 5.3438 0
M  V30 5863 H 561.644 -0.430427 3.00634 0
M  V30 5864 H 559.229 -0.146485 1.4868 0
M  V30 5865 H 561.111 -2.8823 3.07411 0
M  V30 5866 H 559.786 -2.61446 1.9086 0
M  V30 5867 H 558.693 -1.0274 3.59716 0
M  V30 5868 H 560.026 -1.37066 4.7273 0
M  V30 5869 N 561.678 -1.56367 -0.196722 0
M  V30 5870 C 562.924 -1.80796 -0.918725 0
M  V30 5871 C 563.257 -0.650645 -1.82976 0
M  V30 5872 O 562.532 0.348889 -1.91345 0
M  V30 5873 C 562.815 -3.15472 -1.73636 0
M  V30 5874 C 562.668 -4.41693 -0.85015 0
M  V30 5875 C 563.987 -3.46824 -2.70927 0
M  V30 5876 H 561.106 -0.657702 -0.332561 0
M  V30 5877 H 563.748 -1.89086 -0.186186 0
M  V30 5878 H 561.898 -3.08536 -2.36088 0
M  V30 5879 H 563.57 -4.60673 -0.240459 0
M  V30 5880 H 561.813 -4.33517 -0.156785 0
M  V30 5881 H 562.484 -5.32419 -1.45719 0
M  V30 5882 H 564.96 -3.54049 -2.18607 0
M  V30 5883 H 563.836 -4.4218 -3.25219 0
M  V30 5884 H 564.097 -2.70236 -3.49893 0
M  V30 5885 N 563.156 0.464375 -1.50603 0
M  V30 5886 C 564.119 1.54393 -1.69397 0
M  V30 5887 C 565.119 1.50566 -0.564504 0
M  V30 5888 O 566.309 1.53066 -0.831645 0
M  V30 5889 C 563.441 2.9401 -1.72543 0
M  V30 5890 H 564.634 1.39044 -2.65719 0
M  V30 5891 H 562.187 0.69122 -1.40185 0
M  V30 5892 H 562.922 3.14795 -0.77938 0
M  V30 5893 H 562.707 2.98195 -2.54602 0
M  V30 5894 H 564.197 3.72375 -1.89015 0
M  V30 5895 N 564.634 1.40294 0.718013 0
M  V30 5896 C 565.883 1.37746 1.4734 0
M  V30 5897 C 566.196 -0.0180754 1.95592 0
M  V30 5898 O 567.402 -0.166166 2.70991 0
M  V30 5899 C 565.858 2.4208 2.66318 0
M  V30 5900 C 565.466 3.87432 2.24945 0
M  V30 5901 C 567.21 2.48635 3.44065 0
M  V30 5902 C 565.117 4.83368 3.40748 0
M  V30 5903 H 564.047 0.512165 0.553356 0
M  V30 5904 H 566.698 1.66019 0.781661 0
M  V30 5905 H 565.08 2.06903 3.3765 0
M  V30 5906 H 566.254 4.3174 1.6105 0
M  V30 5907 H 564.569 3.8433 1.60249 0
M  V30 5908 H 567.166 3.17499 4.30231 0
M  V30 5909 H 567.509 1.51611 3.87711 0
M  V30 5910 H 568.042 2.82791 2.79775 0
M  V30 5911 H 564.781 5.81716 3.02136 0
M  V30 5912 H 564.301 4.43726 4.03568 0
M  V30 5913 H 565.98 5.03074 4.06848 0
M  V30 5914 N 566.112 -0.949982 1.2575 0
M  V30 5915 C 567.022 -2.08109 1.08295 0
M  V30 5916 C 568.038 -1.7399 0.0188181 0
M  V30 5917 O 569.214 -2.00187 0.220724 0
M  V30 5918 C 566.279 -3.39383 0.708534 0
M  V30 5919 C 565.34 -3.8734 1.85111 0
M  V30 5920 C 564.573 -5.12349 1.49447 0
M  V30 5921 O 564.796 -5.6905 0.392212 0
M  V30 5922 O 563.73 -5.5513 2.32624 0
M  V30 5923 H 567.556 -2.25738 2.03165 0
M  V30 5924 H 565.141 -1.06545 1.04731 0
M  V30 5925 H 567.023 -4.18277 0.512061 0
M  V30 5926 H 565.698 -3.23013 -0.210854 0
M  V30 5927 H 564.605 -3.09429 2.10248 0
M  V30 5928 H 565.938 -4.08216 2.74991 0
M  V30 5929 N 567.59 -1.07411 -1.15328 0
M  V30 5930 C 568.553 -0.698914 -2.18284 0
M  V30 5931 C 569.553 0.261149 -1.58665 0
M  V30 5932 O 570.743 0.0420277 -1.74149 0
M  V30 5933 C 567.875 -0.0302427 -3.40887 0
M  V30 5934 H 569.068 -1.61045 -2.52991 0
M  V30 5935 H 566.621 -0.870724 -1.298 0
M  V30 5936 H 567.356 0.893505 -3.11748 0
M  V30 5937 H 567.141 -0.720759 -3.85419 0
M  V30 5938 H 568.631 0.21759 -4.17033 0
M  V30 5939 N 569.068 1.32177 -0.85831 0
M  V30 5940 C 570.293 2.01847 -0.476718 0
M  V30 5941 C 570.718 1.64065 0.920021 0
M  V30 5942 O 570.076 0.843189 1.60499 0
M  V30 5943 C 570.124 3.55097 -0.627578 0
M  V30 5944 O 569.228 4.11012 0.338086 0
M  V30 5945 H 568.569 0.635907 -0.191099 0
M  V30 5946 H 571.099 1.68641 -1.15851 0
M  V30 5947 H 571.109 4.04718 -0.516476 0
M  V30 5948 H 569.784 3.81938 -1.64609 0
M  V30 5949 H 568.361 3.72451 0.182917 0
M  V30 5950 N 570.547 0.616602 1.45037 0
M  V30 5951 C 571.495 -0.109318 2.32343 0
M  V30 5952 C 572.489 -0.850543 1.465 0
M  V30 5953 O 573.695 -0.765088 1.62931 0
M  V30 5954 H 570.07 -0.0541091 0.750051 0
M  V30 5955 H 572.041 0.645326 2.91338 0
M  V30 5956 C 570.79 -1.0872 3.30266 0
M  V30 5957 H 570.113 -0.526267 3.96321 0
M  V30 5958 H 571.553 -1.56489 3.94065 0
M  V30 5959 C 570.012 -2.16525 2.58105 0
M  V30 5960 O 570.542 -3.244 2.36913 0
M  V30 5961 N 568.748 -1.92057 2.18088 0
M  V30 5962 H 568.295 -1.04337 2.35524 0
M  V30 5963 H 568.253 -2.64391 1.70131 0
M  V30 5964 N 572.025 -1.5352 0.356285 0
M  V30 5965 C 573.273 -2.00719 -0.235837 0
M  V30 5966 C 573.594 -1.24551 -1.5004 0
M  V30 5967 O 572.864 -0.356185 -1.92635 0
M  V30 5968 H 571.444 -0.741542 -0.0901366 0
M  V30 5969 H 574.106 -1.88887 0.480378 0
M  V30 5970 H 573.202 -3.08551 -0.469357 0
M  V30 5971 N 573.503 -0.0852151 -1.57369 0
M  V30 5972 C 574.466 0.8627 -2.12344 0
M  V30 5973 C 575.466 1.21746 -1.05046 0
M  V30 5974 O 576.656 1.14852 -1.30976 0
M  V30 5975 C 573.788 2.1618 -2.63589 0
M  V30 5976 H 574.981 0.385511 -2.97412 0
M  V30 5977 H 572.534 0.163663 -1.55441 0
M  V30 5978 H 573.269 2.68406 -1.82013 0
M  V30 5979 H 573.054 1.91723 -3.4203 0
M  V30 5980 H 574.544 2.84011 -3.06149 0
M  V30 5981 N 574.981 1.5647 0.188427 0
M  V30 5982 C 576.206 1.85486 0.927891 0
M  V30 5983 C 576.631 0.669575 1.75779 0
M  V30 5984 O 575.989 -0.381573 1.77239 0
M  V30 5985 C 576.037 3.12784 1.7944 0
M  V30 5986 O 575.141 2.93805 2.894 0
M  V30 5987 H 574.482 0.610585 0.260925 0
M  V30 5988 H 577.012 2.037 0.191729 0
M  V30 5989 H 577.022 3.43749 2.19774 0
M  V30 5990 H 575.697 3.98671 1.18468 0
M  V30 5991 H 574.274 2.74153 2.52774 0
M  V30 5992 N 576.459 -0.456382 1.50847 0
M  V30 5993 C 577.736 -1.21739 1.53098 0
M  V30 5994 C 578.116 -2.09179 0.284132 0
M  V30 5995 O 577.464 -2.16466 -0.731773 0
M  V30 5996 C 577.674 -2.03573 2.83477 0
M  V30 5997 C 579.022 -2.61264 3.34703 0
M  V30 5998 O 580.046 -2.13802 2.84898 0
M  V30 5999 O 578.905 -3.47779 4.21559 0
M  V30 6000 H 575.999 -0.553219 0.614718 0
M  V30 6001 H 578.545 -0.467003 1.63148 0
M  V30 6002 H 577.317 -1.39232 3.65691 0
M  V30 6003 H 576.94 -2.85716 2.76499 0
M  V30 6004 N 577.937 -1.40673 -0.710563 0
M  V30 6005 C 579.167 -1.4234 -1.49742 0
M  V30 6006 C 579.575 -0.022821 -1.89186 0
M  V30 6007 O 578.918 0.964773 -1.56326 0
M  V30 6008 C 578.98 -2.25509 -2.79975 0
M  V30 6009 C 578.644 -3.73862 -2.62824 0
M  V30 6010 C 579.641 -4.66379 -2.29752 0
M  V30 6011 C 577.326 -4.17735 -2.78932 0
M  V30 6012 C 579.32 -6.00756 -2.13006 0
M  V30 6013 C 577.007 -5.5218 -2.61802 0
M  V30 6014 C 578.005 -6.43505 -2.28888 0
M  V30 6015 O 577.693 -7.75472 -2.11894 0
M  V30 6016 H 577.425 -0.487311 -0.468513 0
M  V30 6017 H 579.979 -1.8542 -0.883668 0
M  V30 6018 H 578.209 -1.77218 -3.43701 0
M  V30 6019 H 579.898 -2.19058 -3.41714 0
M  V30 6020 H 580.664 -4.33778 -2.16936 0
M  V30 6021 H 576.543 -3.46967 -3.03537 0
M  V30 6022 H 580.087 -6.72003 -1.87237 0
M  V30 6023 H 575.984 -5.84365 -2.74204 0
M  V30 6024 H 576.752 -7.86458 -2.26775 0
M  V30 6025 N 579.415 0.9433 -1.26252 0
M  V30 6026 C 580.663 1.68592 -1.11451 0
M  V30 6027 C 580.984 1.91957 0.343123 0
M  V30 6028 O 580.254 1.51475 1.24226 0
M  V30 6029 H 578.834 0.624789 -0.409448 0
M  V30 6030 H 581.496 1.13351 -1.58548 0
M  V30 6031 H 580.592 2.66054 -1.63162 0
M  V30 6032 N 580.893 1.08022 1.14757 0
M  V30 6033 C 581.841 0.701088 2.21783 0
M  V30 6034 C 582.835 -0.291311 1.66876 0
M  V30 6035 O 584.041 -0.154296 1.79337 0
M  V30 6036 H 580.416 0.208668 0.722469 0
M  V30 6037 H 582.387 1.61321 2.51034 0
M  V30 6038 C 581.136 0.122278 3.47485 0
M  V30 6039 H 580.459 0.877065 3.90061 0
M  V30 6040 H 581.899 -0.105248 4.23869 0
M  V30 6041 C 580.358 -1.13883 3.17068 0
M  V30 6042 O 580.888 -2.22429 3.34497 0
M  V30 6043 N 579.094 -1.04767 2.71058 0
M  V30 6044 H 578.641 -0.164302 2.57075 0
M  V30 6045 H 578.599 -1.89224 2.51081 0
M  V30 6046 N 582.371 -1.3172 0.865308 0
M  V30 6047 C 583.318 -2.2863 0.315736 0
M  V30 6048 C 584.288 -1.55524 -0.583213 0
M  V30 6049 O 585.473 -1.83694 -0.51585 0
M  V30 6050 C 582.613 -3.41735 -0.480773 0
M  V30 6051 C 581.726 -4.297 0.445167 0
M  V30 6052 C 580.861 -5.29944 -0.365012 0
M  V30 6053 C 579.9 -6.09554 0.557651 0
M  V30 6054 N 579.037 -7.01768 -0.215994 0
M  V30 6055 H 583.877 -2.75026 1.14736 0
M  V30 6056 H 581.414 -1.35302 0.577209 0
M  V30 6057 H 583.372 -4.06045 -0.958306 0
M  V30 6058 H 582.002 -2.96461 -1.27714 0
M  V30 6059 H 581.054 -3.65875 1.04113 0
M  V30 6060 H 582.366 -4.85295 1.15284 0
M  V30 6061 H 581.52 -5.99908 -0.905255 0
M  V30 6062 H 580.259 -4.74994 -1.106 0
M  V30 6063 H 579.264 -5.38485 1.10969 0
M  V30 6064 H 580.489 -6.66591 1.29742 0
M  V30 6065 H 578.435 -6.49232 -0.939878 0
M  V30 6066 H 578.352 -7.54762 0.432431 0
M  V30 6067 H 579.62 -7.76002 -0.737618 0
M  V30 6068 N 583.85 -0.624285 -1.44708 0
M  V30 6069 C 585.096 -0.126051 -2.02107 0
M  V30 6070 C 585.425 1.2496 -1.49048 0
M  V30 6071 O 584.68 1.84163 -0.662005 0
M  V30 6072 C 584.979 -0.0546353 -3.57358 0
M  V30 6073 C 584.644 -1.36815 -4.29642 0
M  V30 6074 C 583.307 -1.72792 -4.49106 0
M  V30 6075 C 585.659 -2.23549 -4.70824 0
M  V30 6076 C 582.986 -2.95222 -5.07012 0
M  V30 6077 C 585.339 -3.45243 -5.30085 0
M  V30 6078 C 584.003 -3.81452 -5.47769 0
M  V30 6079 H 583.273 -0.0461252 -0.739563 0
M  V30 6080 H 585.92 -0.809236 -1.73562 0
M  V30 6081 H 584.225 0.711891 -3.85278 0
M  V30 6082 H 585.922 0.347282 -3.99493 0
M  V30 6083 H 582.512 -1.07817 -4.14817 0
M  V30 6084 H 586.696 -1.9705 -4.55505 0
M  V30 6085 H 581.952 -3.23361 -5.18891 0
M  V30 6086 H 586.125 -4.12689 -5.60946 0
M  V30 6087 H 583.753 -4.76403 -5.92405 0
M  V30 6088 N 585.328 1.53329 -0.364422 0
M  V30 6089 C 586.576 2.00842 0.225189 0
M  V30 6090 C 586.897 1.25345 1.49378 0
M  V30 6091 O 586.167 0.366396 1.92443 0
M  V30 6092 H 584.747 0.742009 0.0862027 0
M  V30 6093 H 587.409 1.8863 -0.490389 0
M  V30 6094 H 586.505 3.08795 0.452987 0
M  V30 6095 N 586.806 0.0935595 1.57322 0
M  V30 6096 C 587.716 -0.880192 2.17462 0
M  V30 6097 C 588.732 -1.31135 1.14366 0
M  V30 6098 O 589.908 -1.37958 1.46729 0
M  V30 6099 C 586.973 -2.12184 2.74188 0
M  V30 6100 C 586.034 -1.74503 3.92234 0
M  V30 6101 C 585.267 -2.92748 4.46245 0
M  V30 6102 O 585.49 -4.07427 3.99198 0
M  V30 6103 O 584.424 -2.71303 5.37288 0
M  V30 6104 H 588.25 -0.398516 3.01074 0
M  V30 6105 H 585.835 -0.130707 1.48827 0
M  V30 6106 H 587.717 -2.84953 3.10451 0
M  V30 6107 H 586.392 -2.59407 1.93623 0
M  V30 6108 H 585.299 -0.989186 3.60785 0
M  V30 6109 H 586.632 -1.32044 4.74157 0
M  V30 6110 N 588.284 -1.56567 -0.180126 0
M  V30 6111 C 589.695 -1.7126 -0.743422 0
M  V30 6112 C 590.046 -0.70263 -1.83187 0
M  V30 6113 O 589.171 0.137856 -2.1596 0
M  V30 6114 C 589.766 -3.10512 -1.35528 0
M  V30 6115 C 588.325 -3.26919 -1.8655 0
M  V30 6116 C 587.472 -2.67213 -0.741099 0
M  V30 6117 H 590.423 -1.58636 0.0451543 0
M  V30 6118 H 590.444 -3.08673 -2.22489 0
M  V30 6119 H 589.956 -3.83997 -0.562862 0
M  V30 6120 H 588.057 -2.58376 -2.68464 0
M  V30 6121 H 588.17 -4.34574 -2.01699 0
M  V30 6122 H 586.534 -2.26788 -1.15927 0
M  V30 6123 H 587.317 -3.43277 0.0393291 0
M  V30 6124 N 589.762 0.448376 -1.51087 0
M  V30 6125 C 591.008 1.20049 -1.6345 0
M  V30 6126 C 591.341 1.91121 -0.344444 0
M  V30 6127 O 590.616 1.83125 0.655396 0
M  V30 6128 C 590.899 2.22624 -2.83038 0
M  V30 6129 C 590.752 1.55708 -4.21989 0
M  V30 6130 C 592.071 3.23718 -2.98152 0
M  V30 6131 H 589.19 0.435085 -0.59487 0
M  V30 6132 H 591.832 0.491183 -1.83541 0
M  V30 6133 H 589.982 2.83117 -2.66039 0
M  V30 6134 H 591.654 0.986367 -4.50631 0
M  V30 6135 H 589.897 0.859647 -4.25197 0
M  V30 6136 H 590.568 2.30357 -5.01637 0
M  V30 6137 H 593.044 2.73269 -3.13788 0
M  V30 6138 H 591.92 3.92795 -3.83411 0
M  V30 6139 H 592.181 3.89179 -2.09743 0
M  V30 6140 N 591.24 1.41047 0.703093 0
M  V30 6141 C 592.17 1.45067 1.82969 0
M  V30 6142 C 593.151 0.31016 1.67248 0
M  V30 6143 O 594.336 0.520548 1.87093 0
M  V30 6144 C 591.466 1.32478 3.2104 0
M  V30 6145 C 590.42 2.44262 3.51454 0
M  V30 6146 C 589.746 2.16742 4.88801 0
M  V30 6147 C 591.046 3.86606 3.51189 0
M  V30 6148 H 592.74 2.39353 1.79863 0
M  V30 6149 H 590.286 1.15206 0.863919 0
M  V30 6150 H 592.239 1.33904 3.99559 0
M  V30 6151 H 590.963 0.346735 3.24754 0
M  V30 6152 H 589.622 2.42107 2.75282 0
M  V30 6153 H 589.27 1.17299 4.89132 0
M  V30 6154 H 588.97 2.91643 5.10116 0
M  V30 6155 H 590.494 2.19872 5.69639 0
M  V30 6156 H 591.908 3.90517 4.19725 0
M  V30 6157 H 590.305 4.61128 3.84033 0
M  V30 6158 H 591.375 4.15296 2.50315 0
M  V30 6159 N 592.718 -0.936591 1.26751 0
M  V30 6160 C 593.681 -2.01752 1.08761 0
M  V30 6161 C 594.681 -1.60763 0.0344435 0
M  V30 6162 O 595.871 -1.71963 0.278258 0
M  V30 6163 C 593.003 -3.34543 0.655271 0
M  V30 6164 H 594.196 -2.19143 2.04735 0
M  V30 6165 H 591.749 -1.11618 1.09413 0
M  V30 6166 H 592.484 -3.22851 -0.30626 0
M  V30 6167 H 592.269 -3.65647 1.41578 0
M  V30 6168 H 593.759 -4.13944 0.551378 0
M  V30 6169 N 594.196 -1.08629 -1.14182 0
M  V30 6170 C 595.444 -0.815731 -1.84906 0
M  V30 6171 C 595.765 0.660441 -1.83475 0
M  V30 6172 O 595.035 1.47888 -1.28476 0
M  V30 6173 H 593.615 -0.298773 -0.684648 0
M  V30 6174 H 596.277 -1.37274 -1.38354 0
M  V30 6175 H 595.373 -1.16193 -2.89665 0
M  V30 6176 N 595.674 1.31259 -0.872281 0
M  V30 6177 C 596.921 1.96622 -0.484365 0
M  V30 6178 C 597.249 1.68939 0.963841 0
M  V30 6179 O 596.504 0.97974 1.6941 0
M  V30 6180 C 596.803 3.50659 -0.690889 0
M  V30 6181 C 596.469 3.98366 -2.11224 0
M  V30 6182 C 595.131 4.11104 -2.50094 0
M  V30 6183 C 597.483 4.23425 -3.0391 0
M  V30 6184 C 594.811 4.46254 -3.80887 0
M  V30 6185 C 597.163 4.60039 -4.3422 0
M  V30 6186 C 595.827 4.70984 -4.73001 0
M  V30 6187 H 595.097 0.71949 -0.177242 0
M  V30 6188 H 597.744 1.56353 -1.10571 0
M  V30 6189 H 596.049 3.91798 0.0135782 0
M  V30 6190 H 597.746 3.99284 -0.370534 0
M  V30 6191 H 594.336 3.88949 -1.80047 0
M  V30 6192 H 598.52 4.13075 -2.75104 0
M  V30 6193 H 593.776 4.52926 -4.10692 0
M  V30 6194 H 597.95 4.78381 -5.06088 0
M  V30 6195 H 595.577 4.97977 -5.7439 0
M  V30 6196 N 597.152 0.631951 1.44375 0
M  V30 6197 C 598.115 -0.0628142 2.29114 0
M  V30 6198 C 599.115 -0.771494 1.41084 0
M  V30 6199 O 600.305 -0.615959 1.62947 0
M  V30 6200 C 597.437 -1.09953 3.22681 0
M  V30 6201 H 598.63 0.682509 2.92031 0
M  V30 6202 H 596.183 0.392128 1.51301 0
M  V30 6203 H 596.918 -1.87481 2.64616 0
M  V30 6204 H 596.703 -0.595286 3.87555 0
M  V30 6205 H 598.193 -1.58538 3.86336 0
M  V30 6206 N 598.631 -1.53133 0.372548 0
M  V30 6207 C 600.047 -1.59585 0.02178 0
M  V30 6208 C 600.247 -1.38736 -1.46132 0
M  V30 6209 O 599.303 -1.19599 -2.22379 0
M  V30 6210 C 600.616 -2.9678 0.483959 0
M  V30 6211 C 602.164 -3.09909 0.438775 0
M  V30 6212 C 602.639 -4.49527 0.876876 0
M  V30 6213 N 604.13 -4.55663 0.832214 0
M  V30 6214 C 604.865 -5.61896 1.14281 0
M  V30 6215 N 604.361 -6.75852 1.52303 0
M  V30 6216 N 606.154 -5.51916 1.06515 0
M  V30 6217 H 598.305 -1.64936 1.33827 0
M  V30 6218 H 600.568 -0.773947 0.547458 0
M  V30 6219 H 600.274 -3.17198 1.51915 0
M  V30 6220 H 600.148 -3.7699 -0.125784 0
M  V30 6221 H 602.535 -2.89197 -0.587294 0
M  V30 6222 H 602.616 -2.31691 1.0841 0
M  V30 6223 H 602.26 -4.70979 1.90109 0
M  V30 6224 H 602.19 -5.26186 0.208727 0
M  V30 6225 H 604.681 -3.73844 0.552195 0
M  V30 6226 H 604.994 -7.52862 1.7441 0
M  V30 6227 H 603.339 -6.77226 1.56175 0
M  V30 6228 H 606.53 -4.6177 0.767235 0
M  V30 6229 H 606.703 -6.34609 1.31053 0
M  V30 6230 N 600.109 -0.101901 -1.5727 0
M  V30 6231 C 601.334 0.571759 -1.99363 0
M  V30 6232 C 601.759 1.60507 -0.980768 0
M  V30 6233 O 601.117 1.81231 0.0498517 0
M  V30 6234 C 601.165 1.18996 -3.404 0
M  V30 6235 O 600.269 2.30572 -3.41922 0
M  V30 6236 H 599.61 0.144449 -0.648098 0
M  V30 6237 H 602.14 -0.185325 -2.03759 0
M  V30 6238 H 602.15 1.52962 -3.78241 0
M  V30 6239 H 600.825 0.432984 -4.1364 0
M  V30 6240 H 599.402 1.98173 -3.15883 0
M  V30 6241 N 601.587 1.56661 0.17182 0
M  V30 6242 C 602.517 1.99401 1.21498 0
M  V30 6243 C 603.498 0.869516 1.46197 0
M  V30 6244 O 604.683 1.13556 1.57539 0
M  V30 6245 C 601.813 2.35346 2.55401 0
M  V30 6246 C 600.767 3.5075 2.45272 0
M  V30 6247 C 600.093 3.72437 3.8366 0
M  V30 6248 C 601.393 4.84216 1.95787 0
M  V30 6249 H 603.087 2.86792 0.859699 0
M  V30 6250 H 600.633 1.37977 0.412103 0
M  V30 6251 H 602.586 2.63843 3.2858 0
M  V30 6252 H 601.31 1.44864 2.92715 0
M  V30 6253 H 599.969 3.2238 1.74547 0
M  V30 6254 H 599.617 2.79246 4.18367 0
M  V30 6255 H 599.317 4.50087 3.77751 0
M  V30 6256 H 600.841 4.03334 4.58426 0
M  V30 6257 H 602.255 5.11592 2.5874 0
M  V30 6258 H 600.652 5.65498 2.00827 0
M  V30 6259 H 601.722 4.76243 0.912159 0
M  V30 6260 N 603.065 -0.440357 1.51323 0
M  V30 6261 C 604.313 -1.18769 1.63518 0
M  V30 6262 C 604.634 -1.91793 0.352201 0
M  V30 6263 O 603.904 -1.85432 -0.631811 0
M  V30 6264 H 602.484 -0.441408 0.602634 0
M  V30 6265 H 605.146 -0.505162 1.8824 0
M  V30 6266 H 604.242 -1.91892 2.46138 0
M  V30 6267 N 604.543 -1.41418 -0.695603 0
M  V30 6268 C 605.473 -1.46035 -1.82197 0
M  V30 6269 C 606.454 -0.319025 -1.67082 0
M  V30 6270 O 607.639 -0.530462 -1.86815 0
M  V30 6271 C 604.769 -1.34179 -3.20333 0
M  V30 6272 C 603.723 -2.46123 -3.50154 0
M  V30 6273 C 603.049 -2.19332 -4.87645 0
M  V30 6274 C 604.349 -3.88463 -3.49133 0
M  V30 6275 H 606.043 -2.40303 -1.78591 0
M  V30 6276 H 603.589 -1.15663 -0.857797 0
M  V30 6277 H 605.542 -1.36021 -3.98844 0
M  V30 6278 H 604.266 -0.363952 -3.24566 0
M  V30 6279 H 602.925 -2.43563 -2.73994 0
M  V30 6280 H 602.573 -1.19891 -4.88503 0
M  V30 6281 H 602.273 -2.94344 -5.08562 0
M  V30 6282 H 603.797 -2.22889 -5.68465 0
M  V30 6283 H 605.211 -3.92738 -4.17648 0
M  V30 6284 H 603.608 -4.63158 -3.81582 0
M  V30 6285 H 604.678 -4.16617 -2.48109 0
M  V30 6286 N 606.021 0.929856 -1.27246 0
M  V30 6287 C 606.953 2.03434 -1.0558 0
M  V30 6288 C 607.966 1.62795 -0.0125762 0
M  V30 6289 O 609.155 1.76685 -0.2539 0
M  V30 6290 C 606.255 3.33915 -0.57912 0
M  V30 6291 C 605.428 4.03259 -1.69415 0
M  V30 6292 C 604.487 5.12014 -1.21357 0
M  V30 6293 O 603.513 5.36097 -1.91282 0
M  V30 6294 N 604.715 5.8046 -0.0680622 0
M  V30 6295 H 607.48 2.22583 -2.00691 0
M  V30 6296 H 605.041 1.1001 -1.18783 0
M  V30 6297 H 607.033 4.03978 -0.241563 0
M  V30 6298 H 605.603 3.11355 0.278703 0
M  V30 6299 H 604.823 3.26958 -2.20209 0
M  V30 6300 H 606.111 4.46337 -2.44255 0
M  V30 6301 H 605.509 5.63345 0.515626 0
M  V30 6302 H 604.066 6.51461 0.210332 0
M  V30 6303 N 607.499 1.09233 1.13605 0
M  V30 6304 C 608.429 0.751738 2.21068 0
M  V30 6305 C 609.41 -0.269688 1.67948 0
M  V30 6306 O 610.595 -0.13819 1.93708 0
M  V30 6307 C 607.725 0.16935 3.46887 0
M  V30 6308 C 606.679 1.12007 4.13084 0
M  V30 6309 C 606.005 0.399483 5.33206 0
M  V30 6310 C 607.305 2.46168 4.6065 0
M  V30 6311 H 608.999 1.65024 2.49815 0
M  V30 6312 H 606.545 0.794905 1.20072 0
M  V30 6313 H 608.498 -0.0809824 4.21322 0
M  V30 6314 H 607.222 -0.764335 3.1753 0
M  V30 6315 H 605.881 1.35564 3.40614 0
M  V30 6316 H 605.529 -0.538277 5.00112 0
M  V30 6317 H 605.229 1.03337 5.78442 0
M  V30 6318 H 606.753 0.157403 6.10397 0
M  V30 6319 H 608.167 2.26829 5.26518 0
M  V30 6320 H 606.564 3.05326 5.1662 0
M  V30 6321 H 607.634 3.07076 3.75276 0
M  V30 6322 N 608.977 -1.30795 0.87923 0
M  V30 6323 C 610.388 -1.78535 0.546093 0
M  V30 6324 C 610.739 -1.72354 -0.937467 0
M  V30 6325 O 609.864 -1.2969 -1.73233 0
M  V30 6326 C 610.459 -3.24181 0.9845 0
M  V30 6327 C 609.018 -3.69779 0.702871 0
M  V30 6328 C 608.165 -2.51377 1.17068 0
M  V30 6329 H 611.116 -1.17746 1.06403 0
M  V30 6330 H 611.137 -3.79227 0.311045 0
M  V30 6331 H 610.649 -3.28647 2.06429 0
M  V30 6332 H 608.75 -3.70806 -0.365166 0
M  V30 6333 H 608.863 -4.61507 1.28639 0
M  V30 6334 H 607.227 -2.47768 0.590172 0
M  V30 6335 H 608.01 -2.58584 2.25808 0
M  V30 6336 N 610.455 -0.639598 -1.44038 0
M  V30 6337 C 611.732 -0.078012 -1.95444 0
M  V30 6338 C 612.112 1.39847 -1.58133 0
M  V30 6339 O 611.46 2.11714 -0.859614 0
M  V30 6340 C 611.67 -0.309832 -3.47622 0
M  V30 6341 C 613.018 -0.207521 -4.24093 0
M  V30 6342 O 614.042 -0.241653 -3.55379 0
M  V30 6343 O 612.901 -0.119641 -5.46369 0
M  V30 6344 H 609.995 0.0174534 -0.826816 0
M  V30 6345 H 612.541 -0.711891 -1.54046 0
M  V30 6346 H 611.313 -1.33401 -3.67858 0
M  V30 6347 H 610.936 0.357777 -3.95987 0
M  V30 6348 N 611.933 1.52934 -0.380664 0
M  V30 6349 C 613.181 2.01069 0.203874 0
M  V30 6350 C 613.502 1.26922 1.4804 0
M  V30 6351 O 612.772 0.386787 1.92044 0
M  V30 6352 H 611.352 0.742882 0.0783279 0
M  V30 6353 H 614.014 1.88099 -0.510368 0
M  V30 6354 H 613.11 3.09258 0.42021 0
M  V30 6355 N 613.412 0.11024 1.57214 0
M  V30 6356 C 614.344 -0.873497 2.11902 0
M  V30 6357 C 615.357 -1.23588 1.05971 0
M  V30 6358 O 616.546 -1.18636 1.33371 0
M  V30 6359 C 613.646 -2.17805 2.59643 0
M  V30 6360 C 612.819 -1.98869 3.89576 0
M  V30 6361 C 611.878 -3.12974 4.23006 0
M  V30 6362 O 610.904 -2.86272 4.91973 0
M  V30 6363 N 612.106 -4.39167 3.79622 0
M  V30 6364 H 614.871 -0.406317 2.96933 0
M  V30 6365 H 612.432 -0.074437 1.61729 0
M  V30 6366 H 614.424 -2.93117 2.79042 0
M  V30 6367 H 612.994 -2.55899 1.7954 0
M  V30 6368 H 612.214 -1.078 3.79174 0
M  V30 6369 H 613.502 -1.83512 4.74553 0
M  V30 6370 H 612.9 -4.63739 3.2398 0
M  V30 6371 H 611.457 -5.11379 4.04147 0
M  V30 6372 N 614.89 -1.56749 -0.16351 0
M  V30 6373 C 616.306 -1.51043 -0.515567 0
M  V30 6374 C 616.506 -0.815855 -1.84245 0
M  V30 6375 O 615.562 -0.379477 -2.49632 0
M  V30 6376 C 616.875 -2.95791 -0.541114 0
M  V30 6377 C 618.423 -3.0664 -0.627776 0
M  V30 6378 C 618.898 -4.52861 -0.684141 0
M  V30 6379 N 620.389 -4.5714 -0.746818 0
M  V30 6380 C 621.124 -5.67634 -0.811137 0
M  V30 6381 N 620.62 -6.8774 -0.835811 0
M  V30 6382 N 622.413 -5.55624 -0.850756 0
M  V30 6383 H 614.564 -2.00307 0.70645 0
M  V30 6384 H 616.827 -0.912876 0.255659 0
M  V30 6385 H 616.533 -3.49797 0.365329 0
M  V30 6386 H 616.407 -3.50858 -1.38487 0
M  V30 6387 H 618.794 -2.52663 -1.52464 0
M  V30 6388 H 618.875 -2.54645 0.242805 0
M  V30 6389 H 618.519 -5.07472 0.2085 0
M  V30 6390 H 618.449 -5.02621 -1.57098 0
M  V30 6391 H 620.94 -3.70669 -0.735717 0
M  V30 6392 H 621.253 -7.67701 -0.886279 0
M  V30 6393 H 619.598 -6.90334 -0.803958 0
M  V30 6394 H 622.789 -4.60709 -0.828535 0
M  V30 6395 H 622.962 -6.41756 -0.897418 0
M  V30 6396 N 616.368 0.432326 -1.51554 0
M  V30 6397 C 617.784 0.769195 -1.39841 0
M  V30 6398 C 617.984 1.95584 -0.484675 0
M  V30 6399 O 617.04 2.52433 0.0582829 0
M  V30 6400 C 618.353 1.04487 -2.81963 0
M  V30 6401 C 619.901 1.149 -2.91148 0
M  V30 6402 C 620.376 1.45758 -4.34187 0
M  V30 6403 N 621.867 1.52671 -4.37317 0
M  V30 6404 C 622.602 1.78129 -5.4503 0
M  V30 6405 N 622.098 2.01345 -6.62897 0
M  V30 6406 N 623.891 1.79953 -5.32516 0
M  V30 6407 H 616.042 -0.349122 -2.09511 0
M  V30 6408 H 618.305 -0.0938113 -0.943347 0
M  V30 6409 H 618.011 0.24557 -3.50842 0
M  V30 6410 H 617.885 1.97119 -3.21596 0
M  V30 6411 H 620.272 1.93891 -2.22464 0
M  V30 6412 H 620.353 0.201568 -2.55005 0
M  V30 6413 H 619.997 0.672917 -5.03423 0
M  V30 6414 H 619.927 2.41715 -4.67848 0
M  V30 6415 H 622.418 1.36612 -3.52343 0
M  V30 6416 H 622.731 2.20155 -7.40778 0
M  V30 6417 H 621.076 1.98657 -6.66003 0
M  V30 6418 H 624.267 1.61337 -4.39418 0
M  V30 6419 H 624.44 1.99455 -6.1654 0
M  V30 6420 N 617.846 1.41785 0.688094 0
M  V30 6421 C 618.756 1.46596 1.83158 0
M  V30 6422 C 619.772 0.355862 1.70322 0
M  V30 6423 O 620.948 0.604737 1.92106 0
M  V30 6424 C 618.013 1.35322 3.192 0
M  V30 6425 C 617.074 2.56711 3.4409 0
M  V30 6426 C 616.307 2.45965 4.73642 0
M  V30 6427 O 616.53 1.48827 5.50642 0
M  V30 6428 O 615.464 3.35859 4.99482 0
M  V30 6429 H 619.29 2.43083 1.82056 0
M  V30 6430 H 616.875 1.23404 0.842126 0
M  V30 6431 H 618.757 1.31347 4.00407 0
M  V30 6432 H 617.432 0.419536 3.2097 0
M  V30 6433 H 616.339 2.66262 2.62784 0
M  V30 6434 H 617.672 3.48933 3.47141 0
M  V30 6435 N 619.324 -0.923095 1.27737 0
M  V30 6436 C 620.57 -1.67409 1.15524 0
M  V30 6437 C 620.925 -1.90124 -0.295072 0
M  V30 6438 O 620.218 -1.48382 -1.21216 0
M  V30 6439 C 620.412 -3.04125 1.8773 0
M  V30 6440 C 620.241 -2.94752 3.39634 0
M  V30 6441 C 619.011 -2.96783 4.0896 0
M  V30 6442 C 621.209 -2.73524 4.35533 0
M  V30 6443 N 619.191 -2.779 5.47398 0
M  V30 6444 C 620.562 -2.63391 5.61271 0
M  V30 6445 C 622.617 -2.58447 4.2557 0
M  V30 6446 C 621.32 -2.3972 6.78179 0
M  V30 6447 C 623.346 -2.36154 5.42204 0
M  V30 6448 C 622.708 -2.26768 6.669 0
M  V30 6449 H 618.807 -0.619196 0.477619 0
M  V30 6450 H 621.391 -1.09094 1.61266 0
M  V30 6451 H 619.562 -3.60545 1.44436 0
M  V30 6452 H 621.294 -3.6819 1.67982 0
M  V30 6453 H 618.049 -3.07186 3.60463 0
M  V30 6454 H 618.473 -2.71576 6.20141 0
M  V30 6455 H 623.115 -2.6446 3.2988 0
M  V30 6456 H 620.833 -2.32447 7.73947 0
M  V30 6457 H 624.419 -2.25367 5.36378 0
M  V30 6458 H 623.299 -2.09751 7.55628 0
M  V30 6459 N 620.802 -1.09834 -1.13024 0
M  V30 6460 C 622.051 -0.831806 -1.83749 0
M  V30 6461 C 622.364 0.644763 -1.84668 0
M  V30 6462 O 623.57 1.02697 -2.51327 0
M  V30 6463 C 622.026 -1.43817 -3.29916 0
M  V30 6464 C 621.634 -2.94759 -3.37374 0
M  V30 6465 C 623.378 -1.25077 -4.05655 0
M  V30 6466 C 621.285 -3.48461 -4.77838 0
M  V30 6467 H 620.215 -0.30751 -0.688443 0
M  V30 6468 H 622.866 -1.32156 -1.27307 0
M  V30 6469 H 621.248 -0.876106 -3.86187 0
M  V30 6470 H 622.422 -3.57228 -2.91076 0
M  V30 6471 H 620.737 -3.12581 -2.75103 0
M  V30 6472 H 623.334 -1.62649 -5.09362 0
M  V30 6473 H 623.677 -0.191782 -4.15858 0
M  V30 6474 H 624.21 -1.78057 -3.55725 0
M  V30 6475 H 620.949 -4.53998 -4.72828 0
M  V30 6476 H 620.469 -2.90757 -5.24615 0
M  V30 6477 H 622.148 -3.45914 -5.46766 0
M  V30 6478 N 622.28 1.30327 -0.886154 0
M  V30 6479 C 623.227 2.28099 -0.352069 0
M  V30 6480 C 624.197 1.56433 0.558397 0
M  V30 6481 O 625.382 1.84492 0.486561 0
M  V30 6482 C 622.522 3.42456 0.426346 0
M  V30 6483 C 621.635 4.28938 -0.513472 0
M  V30 6484 C 620.77 5.30458 0.280657 0
M  V30 6485 C 619.809 6.0859 -0.654556 0
M  V30 6486 N 618.946 7.02022 0.104322 0
M  V30 6487 H 623.786 2.73166 -1.19097 0
M  V30 6488 H 621.323 1.34367 -0.598662 0
M  V30 6489 H 623.281 4.07518 0.893587 0
M  V30 6490 H 621.911 2.98455 1.22981 0
M  V30 6491 H 620.963 3.64173 -1.09921 0
M  V30 6492 H 622.275 4.83399 -1.2299 0
M  V30 6493 H 621.429 6.01273 0.8097 0
M  V30 6494 H 620.168 4.76693 1.03029 0
M  V30 6495 H 619.173 5.36651 -1.19522 0
M  V30 6496 H 620.398 6.64443 -1.4033 0
M  V30 6497 H 618.344 6.50645 0.836472 0
M  V30 6498 H 618.261 7.53979 -0.552453 0
M  V30 6499 H 619.529 7.77077 0.614069 0
M  V30 6500 N 623.758 0.647228 1.43697 0
M  V30 6501 C 625.169 0.238689 1.85168 0
M  V30 6502 C 625.52 -1.21345 1.54175 0
M  V30 6503 O 624.645 -1.92542 0.987743 0
M  V30 6504 C 625.24 0.426422 3.36106 0
M  V30 6505 C 623.799 0.0722541 3.76331 0
M  V30 6506 C 622.946 0.732153 2.6746 0
M  V30 6507 H 625.897 0.851309 1.33934 0
M  V30 6508 H 625.918 -0.32987 3.79067 0
M  V30 6509 H 625.43 1.48339 3.58632 0
M  V30 6510 H 623.531 -0.982355 3.59417 0
M  V30 6511 H 623.644 0.493541 4.76551 0
M  V30 6512 H 622.008 0.16594 2.54159 0
M  V30 6513 H 622.791 1.79204 2.92816 0
M  V30 6514 N 625.236 -1.5273 0.388769 0
M  V30 6515 C 626.485 -2.00757 -0.194833 0
M  V30 6516 C 626.798 -1.27951 -1.47946 0
M  V30 6517 O 628.004 -1.66686 -2.14308 0
M  V30 6518 C 626.46 -3.57695 -0.397762 0
M  V30 6519 C 626.068 -4.394 0.873583 0
M  V30 6520 C 627.812 -4.14012 -0.937759 0
M  V30 6521 C 625.719 -5.87938 0.638962 0
M  V30 6522 H 624.649 -0.750101 -0.0765845 0
M  V30 6523 H 627.3 -1.76239 0.511086 0
M  V30 6524 H 625.682 -3.7846 -1.16552 0
M  V30 6525 H 626.856 -4.30403 1.64591 0
M  V30 6526 H 625.171 -3.94301 1.33849 0
M  V30 6527 H 627.768 -5.22645 -1.12899 0
M  V30 6528 H 628.111 -3.7007 -1.90666 0
M  V30 6529 H 628.644 -3.97137 -0.229588 0
M  V30 6530 H 625.383 -6.36202 1.57885 0
M  V30 6531 H 624.903 -5.99726 -0.094443 0
M  V30 6532 H 626.582 -6.46423 0.273299 0
M  V30 6533 N 626.714 -0.118576 -1.57153 0
M  V30 6534 C 627.647 0.869046 -2.11004 0
M  V30 6535 C 628.625 1.26115 -1.02634 0
M  V30 6536 O 629.809 1.36228 -1.30285 0
M  V30 6537 C 626.936 2.16297 -2.6064 0
M  V30 6538 C 625.982 1.91896 -3.80891 0
M  V30 6539 S 626.815 1.13562 -5.2332 0
M  V30 6540 C 627.971 2.44135 -5.76324 0
M  V30 6541 H 628.204 0.411005 -2.94445 0
M  V30 6542 H 625.737 0.0951891 -1.54106 0
M  V30 6543 H 627.695 2.90642 -2.89892 0
M  V30 6544 H 626.356 2.59219 -1.77382 0
M  V30 6545 H 625.549 2.8777 -4.13768 0
M  V30 6546 H 625.151 1.25672 -3.52253 0
M  V30 6547 H 627.443 3.39976 -5.86022 0
M  V30 6548 H 628.386 2.15803 -6.74414 0
M  V30 6549 H 628.794 2.53483 -5.04387 0
M  V30 6550 N 628.193 1.56834 0.155195 0
M  V30 6551 C 629.44 1.82898 0.869179 0
M  V30 6552 C 629.768 0.698194 1.81537 0
M  V30 6553 O 629.023 -0.313404 1.93174 0
M  V30 6554 C 629.322 3.15239 1.68402 0
M  V30 6555 C 628.988 4.42123 0.885341 0
M  V30 6556 C 627.65 4.76583 0.664971 0
M  V30 6557 C 630.002 5.20178 0.326234 0
M  V30 6558 C 627.33 5.86566 -0.125346 0
M  V30 6559 C 629.682 6.3099 -0.45108 0
M  V30 6560 C 628.346 6.64006 -0.682102 0
M  V30 6561 H 627.616 0.66927 0.318055 0
M  V30 6562 H 630.263 1.91036 0.133241 0
M  V30 6563 H 628.568 3.02515 2.48982 0
M  V30 6564 H 630.265 3.32618 2.23978 0
M  V30 6565 H 626.855 4.15102 1.06716 0
M  V30 6566 H 631.039 4.93936 0.483787 0
M  V30 6567 H 626.295 6.10594 -0.313915 0
M  V30 6568 H 630.469 6.9067 -0.89149 0
M  V30 6569 H 628.096 7.49065 -1.29636 0
M  V30 6570 N 629.671 -0.424282 1.51781 0
M  V30 6571 C 630.896 -1.19928 1.6921 0
M  V30 6572 C 631.321 -1.8392 0.394355 0
M  V30 6573 O 630.679 -1.69371 -0.646778 0
M  V30 6574 C 630.727 -2.24937 2.81843 0
M  V30 6575 O 629.831 -3.3073 2.46356 0
M  V30 6576 H 629.172 -0.35078 0.563781 0
M  V30 6577 H 631.702 -0.499401 1.98412 0
M  V30 6578 H 631.712 -2.69512 3.06312 0
M  V30 6579 H 630.387 -1.77742 3.76006 0
M  V30 6580 H 628.964 -2.9154 2.32505 0
M  V30 6581 N 631.149 -1.42148 -0.680565 0
M  V30 6582 C 632.397 -1.42029 -1.43779 0
M  V30 6583 C 632.718 -0.0356347 -1.94967 0
M  V30 6584 O 631.988 0.924936 -1.7269 0
M  V30 6585 H 630.568 -0.522835 -0.533529 0
M  V30 6586 H 633.23 -1.7752 -0.804538 0
M  V30 6587 H 632.326 -2.11658 -2.29363 0
M  V30 6588 N 632.627 0.916307 -1.28225 0
M  V30 6589 C 633.875 1.6619 -1.15002 0
M  V30 6590 C 634.196 1.92642 0.302329 0
M  V30 6591 O 633.466 1.54076 1.20985 0
M  V30 6592 H 632.046 0.615964 -0.422608 0
M  V30 6593 H 634.708 1.09963 -1.60917 0
M  V30 6594 H 633.804 2.62533 -1.68769 0
M  V30 6595 N 634.105 1.10431 1.1244 0
M  V30 6596 C 635.354 0.841539 1.83306 0
M  V30 6597 C 635.667 -0.634961 1.85007 0
M  V30 6598 O 636.873 -1.01363 2.51869 0
M  V30 6599 C 635.329 1.45565 3.29149 0
M  V30 6600 C 634.937 2.96544 3.35806 0
M  V30 6601 C 636.681 1.27227 4.04986 0
M  V30 6602 C 634.588 3.5099 4.75983 0
M  V30 6603 H 633.518 0.311156 0.686803 0
M  V30 6604 H 636.169 1.32829 1.26604 0
M  V30 6605 H 634.551 0.896574 3.85717 0
M  V30 6606 H 635.725 3.58766 2.89177 0
M  V30 6607 H 634.04 3.14036 2.73442 0
M  V30 6608 H 636.637 1.65348 5.08492 0
M  V30 6609 H 636.98 0.213834 4.1575 0
M  V30 6610 H 637.513 1.79941 3.54776 0
M  V30 6611 H 634.252 4.56499 4.70413 0
M  V30 6612 H 633.772 2.93535 5.23065 0
M  V30 6613 H 635.451 3.48808 5.44924 0
M  V30 6614 N 635.583 -1.29855 0.893053 0
M  V30 6615 C 636.831 -1.9544 0.514566 0
M  V30 6616 C 637.152 -1.70795 -0.940959 0
M  V30 6617 O 636.422 -1.03601 -1.66264 0
M  V30 6618 H 635.002 -0.723137 0.187302 0
M  V30 6619 H 637.664 -1.58234 1.13789 0
M  V30 6620 H 636.76 -3.04341 0.691581 0
M  V30 6621 N 637.061 -0.65484 -1.43351 0
M  V30 6622 C 638.286 -0.175046 -2.0666 0
M  V30 6623 C 638.711 1.15104 -1.4877 0
M  V30 6624 O 638.069 1.71144 -0.598279 0
M  V30 6625 C 638.117 -0.0991544 -3.60464 0
M  V30 6626 O 637.221 0.938169 -4.01587 0
M  V30 6627 H 636.562 -0.0956148 -0.65708 0
M  V30 6628 H 639.092 -0.898222 -1.83829 0
M  V30 6629 H 639.102 0.083632 -4.07914 0
M  V30 6630 H 637.777 -1.06719 -4.01975 0
M  V30 6631 H 636.354 0.72804 -3.65724 0
M  V30 6632 N 638.539 1.52521 -0.396863 0
M  V30 6633 C 639.472 2.23118 0.478926 0
M  V30 6634 C 640.45 1.23475 1.05796 0
M  V30 6635 O 641.634 1.52486 1.10817 0
M  V30 6636 C 638.761 2.95028 1.66362 0
M  V30 6637 C 637.807 4.09002 1.20913 0
M  V30 6638 S 638.64 5.35182 0.184407 0
M  V30 6639 C 639.796 6.10616 1.37471 0
M  V30 6640 H 640.029 2.97056 -0.120542 0
M  V30 6641 H 637.562 1.53334 -0.18109 0
M  V30 6642 H 639.52 3.37066 2.34301 0
M  V30 6643 H 638.181 2.20756 2.23441 0
M  V30 6644 H 637.374 4.58445 2.09389 0
M  V30 6645 H 636.976 3.69016 0.608559 0
M  V30 6646 H 639.268 6.37247 2.30048 0
M  V30 6647 H 640.211 7.02084 0.921051 0
M  V30 6648 H 640.619 5.41499 1.59495 0
M  V30 6649 N 640.017 0.126909 1.57088 0
M  V30 6650 C 640.927 -0.833867 2.1928 0
M  V30 6651 C 641.943 -1.2868 1.17122 0
M  V30 6652 O 643.119 -1.34815 1.49622 0
M  V30 6653 C 640.184 -2.0632 2.78627 0
M  V30 6654 C 639.245 -1.66143 3.95847 0
M  V30 6655 C 638.478 -2.83217 4.52354 0
M  V30 6656 O 638.701 -3.98868 4.0775 0
M  V30 6657 O 637.635 -2.59846 5.42922 0
M  V30 6658 H 641.461 -0.334564 3.01852 0
M  V30 6659 H 639.046 -0.0991091 1.49071 0
M  V30 6660 H 640.928 -2.78304 3.16425 0
M  V30 6661 H 639.603 -2.55242 1.99082 0
M  V30 6662 H 638.51 -0.912435 3.62802 0
M  V30 6663 H 639.843 -1.21957 4.76852 0
M  V30 6664 N 641.495 -1.56914 -0.146875 0
M  V30 6665 C 642.458 -1.97368 -1.16526 0
M  V30 6666 C 643.458 -0.860223 -1.35856 0
M  V30 6667 O 644.648 -1.12684 -1.32846 0
M  V30 6668 C 641.78 -2.28974 -2.52555 0
M  V30 6669 H 642.973 -2.88523 -0.818209 0
M  V30 6670 H 640.526 -1.5135 -0.390221 0
M  V30 6671 H 641.261 -1.40611 -2.92231 0
M  V30 6672 H 641.046 -3.10157 -2.39886 0
M  V30 6673 H 642.536 -2.61109 -3.25902 0
M  V30 6674 N 642.974 0.416227 -1.52004 0
M  V30 6675 C 644.251 1.17637 -1.56272 0
M  V30 6676 C 644.631 2.08352 -0.339493 0
M  V30 6677 O 643.979 2.1833 0.674124 0
M  V30 6678 C 644.189 1.95986 -2.88774 0
M  V30 6679 C 645.537 2.52299 -3.41512 0
M  V30 6680 O 646.561 2.06174 -2.90467 0
M  V30 6681 O 645.42 3.3648 -4.30631 0
M  V30 6682 H 642.514 0.536726 -0.629169 0
M  V30 6683 H 645.06 0.423583 -1.64329 0
M  V30 6684 H 643.832 1.29487 -3.69254 0
M  V30 6685 H 643.455 2.78285 -2.83978 0
M  V30 6686 N 644.452 1.42507 0.673017 0
M  V30 6687 C 645.402 1.4258 1.77919 0
M  V30 6688 C 646.386 0.296885 1.58137 0
M  V30 6689 O 647.578 0.539243 1.68586 0
M  V30 6690 C 644.707 1.33238 3.1639 0
M  V30 6691 C 643.793 2.51081 3.41788 0
M  V30 6692 N 644.184 3.76498 3.37761 0
M  V30 6693 C 642.482 2.4538 3.72431 0
M  V30 6694 C 643.183 4.54784 3.62693 0
M  V30 6695 N 642.159 3.8522 3.83544 0
M  V30 6696 H 645.961 2.37442 1.73201 0
M  V30 6697 H 643.475 1.36881 0.873924 0
M  V30 6698 H 645.472 1.31372 3.9566 0
M  V30 6699 H 644.132 0.393794 3.22303 0
M  V30 6700 H 645.143 4.09068 3.17622 0
M  V30 6701 H 641.82 1.60109 3.85579 0
M  V30 6702 H 643.21 5.63774 3.65525 0
M  V30 6703 N 645.93 -0.909495 1.28709 0
M  V30 6704 C 647.179 -1.65365 1.15487 0
M  V30 6705 C 647.492 -1.93364 -0.294941 0
M  V30 6706 O 648.698 -2.65905 -0.548338 0
M  V30 6707 C 647.154 -2.97923 2.01916 0
M  V30 6708 C 646.762 -2.77556 3.51663 0
M  V30 6709 C 648.506 -3.75814 1.97393 0
M  V30 6710 C 646.413 -4.0578 4.30229 0
M  V30 6711 H 645.343 -0.620323 0.42862 0
M  V30 6712 H 647.994 -1.00894 1.53273 0
M  V30 6713 H 646.376 -3.63552 1.5699 0
M  V30 6714 H 647.55 -2.2058 4.04575 0
M  V30 6715 H 645.865 -2.13072 3.57756 0
M  V30 6716 H 648.462 -4.70866 2.53357 0
M  V30 6717 H 648.805 -4.05277 0.951643 0
M  V30 6718 H 649.338 -3.1701 2.40311 0
M  V30 6719 H 646.077 -3.81488 5.33055 0
M  V30 6720 H 645.597 -4.62351 3.82089 0
M  V30 6721 H 647.276 -4.74004 4.40374 0
M  V30 6722 N 647.408 -1.11026 -1.11852 0
M  V30 6723 C 648.633 -0.879064 -1.87849 0
M  V30 6724 C 649.058 0.565406 -1.79401 0
M  V30 6725 O 648.416 1.39886 -1.15333 0
M  V30 6726 C 648.464 -1.33985 -3.34784 0
M  V30 6727 O 647.568 -0.508803 -4.09249 0
M  V30 6728 H 646.909 -0.316992 -0.583448 0
M  V30 6729 H 649.439 -1.47863 -1.41413 0
M  V30 6730 H 649.449 -1.33248 -3.85628 0
M  V30 6731 H 648.124 -2.39172 -3.40249 0
M  V30 6732 H 646.701 -0.581913 -3.68332 0
M  V30 6733 N 648.886 1.2938 -0.899927 0
M  V30 6734 C 649.833 2.27713 -0.376243 0
M  V30 6735 C 650.803 1.57016 0.541774 0
M  V30 6736 O 651.988 1.84997 0.466966 0
M  V30 6737 C 649.128 3.42889 0.39 0
M  V30 6738 C 648.241 4.28369 -0.558938 0
M  V30 6739 C 647.376 5.30726 0.224379 0
M  V30 6740 C 646.415 6.07862 -0.719068 0
M  V30 6741 N 645.552 7.02094 0.0298569 0
M  V30 6742 H 650.392 2.71888 -1.21988 0
M  V30 6743 H 647.929 1.33724 -0.612879 0
M  V30 6744 H 649.887 4.08443 0.850314 0
M  V30 6745 H 648.517 2.99743 1.19809 0
M  V30 6746 H 647.569 3.62986 -1.13777 0
M  V30 6747 H 648.881 4.82068 -1.2811 0
M  V30 6748 H 648.035 6.02098 0.745881 0
M  V30 6749 H 646.774 4.77759 0.979674 0
M  V30 6750 H 645.779 5.35353 -1.25207 0
M  V30 6751 H 647.004 6.62917 -1.4737 0
M  V30 6752 H 644.95 6.51496 0.767415 0
M  V30 6753 H 644.867 7.5335 -0.632391 0
M  V30 6754 H 646.135 7.77685 0.531615 0
M  V30 6755 N 650.364 0.662433 1.43002 0
M  V30 6756 C 651.274 -0.0239199 2.34588 0
M  V30 6757 C 652.29 -0.802255 1.54402 0
M  V30 6758 O 653.466 -0.747401 1.87018 0
M  V30 6759 C 650.531 -0.972098 3.32793 0
M  V30 6760 C 649.592 -0.189673 4.28881 0
M  V30 6761 C 648.825 -1.09269 5.22395 0
M  V30 6762 O 649.048 -2.33209 5.20547 0
M  V30 6763 O 647.982 -0.560136 5.99288 0
M  V30 6764 H 651.808 0.730171 2.94792 0
M  V30 6765 H 649.393 0.422635 1.43297 0
M  V30 6766 H 651.275 -1.51676 3.93157 0
M  V30 6767 H 649.95 -1.70626 2.75079 0
M  V30 6768 H 648.857 0.398794 3.71968 0
M  V30 6769 H 650.19 0.50511 4.89601 0
M  V30 6770 N 651.842 -1.52309 0.404946 0
M  V30 6771 C 652.805 -2.25491 -0.410651 0
M  V30 6772 C 653.805 -1.27704 -0.977154 0
M  V30 6773 O 654.995 -1.51679 -0.856691 0
M  V30 6774 C 652.127 -3.02197 -1.57765 0
M  V30 6775 H 653.32 -2.99015 0.230277 0
M  V30 6776 H 650.873 -1.55506 0.157377 0
M  V30 6777 H 651.608 -2.33013 -2.25556 0
M  V30 6778 H 651.393 -3.73987 -1.17797 0
M  V30 6779 H 652.883 -3.57719 -2.15469 0
M  V30 6780 N 653.32 -0.135238 -1.57019 0
M  V30 6781 C 654.731 0.387521 -1.82634 0
M  V30 6782 C 655.082 1.65528 -1.05332 0
M  V30 6783 O 654.207 2.14381 -0.294926 0
M  V30 6784 C 654.802 0.709852 -3.3128 0
M  V30 6785 C 653.361 1.17718 -3.57518 0
M  V30 6786 C 652.508 0.194183 -2.76619 0
M  V30 6787 H 655.459 -0.360126 -1.5456 0
M  V30 6788 H 655.48 1.5657 -3.46794 0
M  V30 6789 H 654.992 -0.213024 -3.87515 0
M  V30 6790 H 653.093 2.1164 -3.06658 0
M  V30 6791 H 653.206 1.11128 -4.66034 0
M  V30 6792 H 651.57 0.684478 -2.4533 0
M  V30 6793 H 652.353 -0.722076 -3.3562 0
M  V30 6794 N 654.798 1.5699 0.138552 0
M  V30 6795 C 655.708 2.02174 1.19008 0
M  V30 6796 C 656.724 0.938622 1.46512 0
M  V30 6797 O 657.9 1.24872 1.58016 0
M  V30 6798 C 654.965 2.40045 2.50159 0
M  V30 6799 C 654.026 3.62346 2.30226 0
M  V30 6800 C 653.259 3.98401 3.55123 0
M  V30 6801 O 653.482 3.35019 4.61647 0
M  V30 6802 O 652.416 4.91606 3.47285 0
M  V30 6803 H 656.242 2.91954 0.836452 0
M  V30 6804 H 653.827 1.45293 0.347907 0
M  V30 6805 H 655.709 2.65225 3.27465 0
M  V30 6806 H 654.384 1.53417 2.85035 0
M  V30 6807 H 653.291 3.42341 1.50843 0
M  V30 6808 H 654.624 4.49617 2.00262 0
M  V30 6809 N 656.276 -0.40816 1.52223 0
M  V30 6810 C 657.687 -0.986929 1.58482 0
M  V30 6811 C 658.038 -1.91521 0.425917 0
M  V30 6812 O 657.163 -2.11593 -0.453593 0
M  V30 6813 C 657.758 -1.7967 2.87235 0
M  V30 6814 C 656.317 -2.32549 2.9597 0
M  V30 6815 C 655.464 -1.12558 2.53428 0
M  V30 6816 H 658.415 -0.188362 1.57578 0
M  V30 6817 H 658.436 -2.65417 2.72642 0
M  V30 6818 H 657.948 -1.12082 3.71563 0
M  V30 6819 H 656.049 -3.03505 2.16137 0
M  V30 6820 H 656.162 -2.63348 4.00231 0
M  V30 6821 H 654.526 -1.47984 2.07299 0
M  V30 6822 H 655.309 -0.465351 3.40131 0
M  V30 6823 N 657.755 -1.42862 -0.66545 0
M  V30 6824 C 659.003 -1.43546 -1.42264 0
M  V30 6825 C 659.324 -0.0563116 -1.94919 0
M  V30 6826 O 658.594 0.906568 -1.73661 0
M  V30 6827 H 657.174 -0.528464 -0.527953 0
M  V30 6828 H 659.836 -1.78363 -0.785665 0
M  V30 6829 H 658.932 -2.14079 -2.27105 0
M  V30 6830 N 659.233 0.902656 -1.29189 0
M  V30 6831 C 660.166 2.00816 -1.0839 0
M  V30 6832 C 661.144 1.626 0.00335266 0
M  V30 6833 O 662.328 1.87928 -0.146765 0
M  V30 6834 C 659.455 3.32415 -0.649435 0
M  V30 6835 C 658.501 3.89617 -1.73496 0
M  V30 6836 S 659.334 4.19091 -3.33351 0
M  V30 6837 C 660.49 5.53736 -2.91766 0
M  V30 6838 H 660.723 2.18151 -2.01984 0
M  V30 6839 H 658.256 1.0489 -1.13303 0
M  V30 6840 H 660.214 4.08492 -0.405479 0
M  V30 6841 H 658.875 3.12964 0.266857 0
M  V30 6842 H 658.068 4.84658 -1.38284 0
M  V30 6843 H 657.67 3.20217 -1.93229 0
M  V30 6844 H 659.962 6.34085 -2.38627 0
M  V30 6845 H 660.905 5.93871 -3.85647 0
M  V30 6846 H 661.313 5.15453 -2.30149 0
M  V30 6847 N 660.711 1.11618 1.11262 0
M  V30 6848 C 661.621 0.78898 2.20935 0
M  V30 6849 C 662.637 -0.21867 1.7262 0
M  V30 6850 O 663.813 -0.0543826 2.01327 0
M  V30 6851 C 660.878 0.239014 3.45875 0
M  V30 6852 C 659.939 1.3055 4.08968 0
M  V30 6853 C 659.172 0.781687 5.27944 0
M  V30 6854 O 659.395 -0.387605 5.69082 0
M  V30 6855 O 658.329 1.54734 5.81671 0
M  V30 6856 H 662.155 1.70477 2.51339 0
M  V30 6857 H 659.74 0.892203 1.19834 0
M  V30 6858 H 661.622 -0.0632312 4.21353 0
M  V30 6859 H 660.297 -0.649454 3.17118 0
M  V30 6860 H 659.204 1.66079 3.35214 0
M  V30 6861 H 660.537 2.16743 4.41909 0
M  V30 6862 N 662.189 -1.289 0.906776 0
M  V30 6863 C 663.435 -1.95558 0.53712 0
M  V30 6864 C 663.768 -1.71262 -0.915582 0
M  V30 6865 O 663.043 -1.02961 -1.65013 0
M  V30 6866 C 663.326 -3.50198 0.838645 0
M  V30 6867 C 663.179 -3.83923 2.34357 0
M  V30 6868 C 664.498 -4.38861 0.329988 0
M  V30 6869 H 661.617 -0.710289 0.196617 0
M  V30 6870 H 664.259 -1.52392 1.13475 0
M  V30 6871 H 662.409 -3.87096 0.330024 0
M  V30 6872 H 664.081 -3.56933 2.92227 0
M  V30 6873 H 662.324 -3.31215 2.80141 0
M  V30 6874 H 662.995 -4.91883 2.5051 0
M  V30 6875 H 665.471 -4.08996 0.765609 0
M  V30 6876 H 664.347 -5.45931 0.570105 0
M  V30 6877 H 664.608 -4.35352 -0.769511 0
M  V30 6878 N 663.667 -0.670007 -1.42649 0
M  V30 6879 C 664.913 -0.190568 -2.01903 0
M  V30 6880 C 665.246 1.19817 -1.52832 0
M  V30 6881 O 664.521 1.80342 -0.728485 0
M  V30 6882 C 664.804 -0.21991 -3.59428 0
M  V30 6883 C 664.657 -1.64376 -4.18689 0
M  V30 6884 C 665.976 0.434519 -4.3795 0
M  V30 6885 H 663.095 -0.0707219 -0.733599 0
M  V30 6886 H 665.737 -0.853883 -1.69732 0
M  V30 6887 H 663.887 0.344894 -3.86966 0
M  V30 6888 H 665.559 -2.26044 -4.02122 0
M  V30 6889 H 663.802 -2.18591 -3.747 0
M  V30 6890 H 664.473 -1.61601 -5.27815 0
M  V30 6891 H 666.949 -0.0462156 -4.16074 0
M  V30 6892 H 665.825 0.38333 -5.4756 0
M  V30 6893 H 666.086 1.51135 -4.15464 0
M  V30 6894 N 665.145 1.52092 -0.413018 0
M  V30 6895 C 666.092 2.27119 0.410558 0
M  V30 6896 C 667.062 1.29692 1.03774 0
M  V30 6897 O 668.247 1.58561 1.06128 0
M  V30 6898 C 665.387 3.09863 1.51918 0
M  V30 6899 C 664.5 4.22252 0.912528 0
M  V30 6900 C 663.635 4.92348 1.99417 0
M  V30 6901 C 662.674 5.96694 1.36466 0
M  V30 6902 N 661.811 6.60292 2.38661 0
M  V30 6903 H 666.651 2.97067 -0.235661 0
M  V30 6904 H 664.188 1.46542 -0.128055 0
M  V30 6905 H 666.146 3.56144 2.17295 0
M  V30 6906 H 664.776 2.42078 2.13537 0
M  V30 6907 H 663.828 3.80113 0.147697 0
M  V30 6908 H 665.14 4.9709 0.412717 0
M  V30 6909 H 664.294 5.42054 2.72512 0
M  V30 6910 H 663.033 4.17087 2.52764 0
M  V30 6911 H 662.038 5.46304 0.61906 0
M  V30 6912 H 663.263 6.73899 0.838827 0
M  V30 6913 H 661.209 5.87858 2.91134 0
M  V30 6914 H 661.126 7.30816 1.93503 0
M  V30 6915 H 662.394 7.14635 3.11314 0
M  V30 6916 N 666.623 0.143563 1.56945 0
M  V30 6917 C 667.869 -0.50916 1.96304 0
M  V30 6918 C 668.202 -1.64741 1.0283 0
M  V30 6919 O 667.477 -1.94374 0.0700361 0
M  V30 6920 C 667.76 -1.0186 3.45393 0
M  V30 6921 C 667.613 0.117923 4.49645 0
M  V30 6922 C 668.932 -1.90151 3.96901 0
M  V30 6923 H 666.051 -0.183608 0.713763 0
M  V30 6924 H 668.693 0.224095 1.88674 0
M  V30 6925 H 666.843 -1.64345 3.52027 0
M  V30 6926 H 668.515 0.754145 4.55094 0
M  V30 6927 H 666.758 0.777568 4.26774 0
M  V30 6928 H 667.429 -0.280187 5.51288 0
M  V30 6929 H 669.905 -1.375 3.92725 0
M  V30 6930 H 668.781 -2.22707 5.0169 0
M  V30 6931 H 669.042 -2.83718 3.39052 0
M  V30 6932 N 668.101 -1.57061 -0.130224 0
M  V30 6933 C 669.349 -1.83893 -0.838313 0
M  V30 6934 C 669.67 -0.727046 -1.80939 0
M  V30 6935 O 668.94 0.249927 -1.94299 0
M  V30 6936 H 667.52 -0.67846 -0.312573 0
M  V30 6937 H 670.182 -1.94529 -0.120224 0
M  V30 6938 H 669.278 -2.79419 -1.39038 0
M  V30 6939 N 669.579 0.400081 -1.52437 0
M  V30 6940 C 670.827 1.14392 -1.6661 0
M  V30 6941 C 671.148 1.90792 -0.402927 0
M  V30 6942 O 670.418 1.87042 0.582425 0
M  V30 6943 H 668.998 0.425275 -0.614125 0
M  V30 6944 H 671.66 0.455076 -1.89513 0
M  V30 6945 H 670.756 1.85298 -2.51139 0
M  V30 6946 N 671.057 1.43213 0.657864 0
M  V30 6947 C 672.468 1.39669 1.23893 0
M  V30 6948 C 672.819 0.0984217 1.95953 0
M  V30 6949 O 671.944 -0.8023 2.00978 0
M  V30 6950 C 672.539 2.53004 2.25332 0
M  V30 6951 C 671.098 2.5274 2.78926 0
M  V30 6952 C 670.245 2.30941 1.53497 0
M  V30 6953 H 673.196 1.52181 0.450172 0
M  V30 6954 H 673.217 2.24226 3.07413 0
M  V30 6955 H 672.729 3.4748 1.72856 0
M  V30 6956 H 670.83 1.6213 3.35477 0
M  V30 6957 H 670.943 3.50352 3.26787 0
M  V30 6958 H 669.307 1.7952 1.80678 0
M  V30 6959 H 670.09 3.27496 1.02963 0
M  V30 6960 N 672.536 -0.895792 1.29666 0
M  V30 6961 C 673.782 -1.64908 1.18039 0
M  V30 6962 C 674.115 -1.9236 -0.266682 0
M  V30 6963 O 673.39 -1.53682 -1.19214 0
M  V30 6964 C 673.673 -2.99574 1.99819 0
M  V30 6965 C 673.526 -2.79163 3.52687 0
M  V30 6966 C 674.845 -4.00358 1.82761 0
M  V30 6967 H 671.964 -0.598437 0.430165 0
M  V30 6968 H 674.606 -1.03736 1.59182 0
M  V30 6969 H 672.756 -3.51786 1.64859 0
M  V30 6970 H 674.428 -2.33821 3.9765 0
M  V30 6971 H 672.671 -2.13871 3.77414 0
M  V30 6972 H 673.342 -3.74871 4.05186 0
M  V30 6973 H 675.818 -3.57268 2.13304 0
M  V30 6974 H 674.694 -4.92514 2.42325 0
M  V30 6975 H 674.955 -4.35096 0.783839 0
M  V30 6976 N 674.014 -1.12206 -1.10668 0
M  V30 6977 C 675.244 -0.897332 -1.86095 0
M  V30 6978 C 675.652 0.556778 -1.80822 0
M  V30 6979 O 674.995 1.39658 -1.19337 0
M  V30 6980 C 675.057 -1.29095 -3.35522 0
M  V30 6981 C 674.721 -2.75586 -3.64556 0
M  V30 6982 C 675.718 -3.73785 -3.6136 0
M  V30 6983 C 673.403 -3.12432 -3.93309 0
M  V30 6984 C 675.397 -5.06845 -3.86506 0
M  V30 6985 C 673.084 -4.45675 -4.18111 0
M  V30 6986 C 674.082 -5.42691 -4.147 0
M  V30 6987 O 673.77 -6.73532 -4.38873 0
M  V30 6988 H 673.502 -0.320704 -0.595084 0
M  V30 6989 H 676.056 -1.49517 -1.40833 0
M  V30 6990 H 674.286 -0.636299 -3.81429 0
M  V30 6991 H 675.975 -1.04073 -3.92331 0
M  V30 6992 H 676.741 -3.46664 -3.39189 0
M  V30 6993 H 672.62 -2.3753 -3.95096 0
M  V30 6994 H 676.164 -5.82559 -3.83758 0
M  V30 6995 H 672.061 -4.72526 -4.39761 0
M  V30 6996 H 672.829 -6.79442 -4.564 0
M  V30 6997 N 675.492 1.28418 -0.913599 0
M  V30 6998 C 676.908 1.47411 -0.611728 0
M  V30 6999 C 677.108 1.83018 0.843008 0
M  V30 7000 O 676.164 1.93505 1.6221 0
M  V30 7001 C 677.477 2.57703 -1.5495 0
M  V30 7002 C 679.025 2.71572 -1.5562 0
M  V30 7003 C 679.5 3.85008 -2.48058 0
M  V30 7004 N 680.991 3.92361 -2.46184 0
M  V30 7005 C 681.726 4.79516 -3.14407 0
M  V30 7006 N 681.222 5.71262 -3.91958 0
M  V30 7007 N 683.015 4.73125 -3.03495 0
M  V30 7008 H 675.166 1.03585 -1.85429 0
M  V30 7009 H 677.429 0.515907 -0.795326 0
M  V30 7010 H 677.135 2.38298 -2.58663 0
M  V30 7011 H 677.009 3.54801 -1.28048 0
M  V30 7012 H 679.396 2.90366 -0.526441 0
M  V30 7013 H 679.477 1.75006 -1.86565 0
M  V30 7014 H 679.121 3.66969 -3.51136 0
M  V30 7015 H 679.051 4.80971 -2.14416 0
M  V30 7016 H 681.542 3.26749 -1.89851 0
M  V30 7017 H 681.855 6.34593 -4.41034 0
M  V30 7018 H 680.2 5.71103 -3.96063 0
M  V30 7019 H 683.391 4.00442 -2.42413 0
M  V30 7020 H 683.564 5.40834 -3.56935 0
M  V30 7021 N 676.97 0.677563 1.42291 0
M  V30 7022 C 678.219 0.198173 2.00724 0
M  V30 7023 C 678.532 -1.20325 1.54211 0
M  V30 7024 O 679.738 -1.77916 2.05081 0
M  V30 7025 C 678.194 0.303432 3.58619 0
M  V30 7026 C 677.802 1.70909 4.14119 0
M  V30 7027 C 679.546 -0.117103 4.24338 0
M  V30 7028 C 677.453 1.76696 5.64387 0
M  V30 7029 H 676.383 0.070329 0.750713 0
M  V30 7030 H 679.034 0.843147 1.62982 0
M  V30 7031 H 677.416 -0.409482 3.93877 0
M  V30 7032 H 678.59 2.44931 3.90315 0
M  V30 7033 H 676.905 2.07771 3.6086 0
M  V30 7034 H 679.502 -0.0940471 5.34617 0
M  V30 7035 H 679.845 -1.15283 4.00019 0
M  V30 7036 H 680.378 0.5449 3.9405 0
M  V30 7037 H 677.117 2.7826 5.93508 0
M  V30 7038 H 676.637 1.07034 5.90173 0
M  V30 7039 H 678.316 1.52166 6.28852 0
M  V30 7040 N 678.448 -1.51871 0.421078 0
M  V30 7041 C 679.696 -2.01539 -0.150492 0
M  V30 7042 C 680.017 -1.30803 -1.44623 0
M  V30 7043 O 679.287 -0.437568 -1.90951 0
M  V30 7044 H 677.867 -0.744698 -0.0586041 0
M  V30 7045 H 680.529 -1.8668 0.560059 0
M  V30 7046 H 679.625 -3.10264 -0.338068 0
M  V30 7047 N 679.926 -0.151884 -1.56866 0
M  V30 7048 C 681.172 0.498742 -1.96572 0
M  V30 7049 C 681.505 1.64194 -1.03702 0
M  V30 7050 O 680.78 1.94334 -0.0803432 0
M  V30 7051 C 681.063 1.00027 -3.45929 0
M  V30 7052 C 680.916 -0.141767 -4.49577 0
M  V30 7053 C 682.235 1.88044 -3.97904 0
M  V30 7054 H 679.354 0.17982 -0.714726 0
M  V30 7055 H 681.996 -0.234097 -1.88552 0
M  V30 7056 H 680.146 1.62476 -3.52894 0
M  V30 7057 H 681.818 -0.778269 -4.54687 0
M  V30 7058 H 680.061 -0.80019 -4.26356 0
M  V30 7059 H 680.732 0.250947 -5.51429 0
M  V30 7060 H 683.208 1.35416 -3.93449 0
M  V30 7061 H 682.084 2.20043 -5.02864 0
M  V30 7062 H 682.345 2.81916 -3.40552 0
M  V30 7063 N 681.404 1.57128 0.121893 0
M  V30 7064 C 682.652 1.84335 0.828548 0
M  V30 7065 C 682.973 0.736632 1.80551 0
M  V30 7066 O 682.243 -0.23962 1.94429 0
M  V30 7067 H 680.823 0.680108 0.30897 0
M  V30 7068 H 683.485 1.9459 0.109906 0
M  V30 7069 H 682.581 2.80152 1.37554 0
M  V30 7070 N 682.882 -0.391992 1.52647 0
M  V30 7071 C 684.13 -1.13507 1.67214 0
M  V30 7072 C 684.451 -1.90575 0.41304 0
M  V30 7073 O 683.721 -1.87348 -0.572498 0
M  V30 7074 H 682.301 -0.422013 0.616372 0
M  V30 7075 H 684.963 -0.44502 1.89751 0
M  V30 7076 H 684.059 -1.83964 2.52118 0
M  V30 7077 N 684.36 -1.4356 -0.65026 0
M  V30 7078 C 685.608 -1.45046 -1.40734 0
M  V30 7079 C 685.929 -0.0769822 -1.94848 0
M  V30 7080 O 685.199 0.888098 -1.74613 0
M  V30 7081 H 683.779 -0.534034 -0.522318 0
M  V30 7082 H 686.441 -1.79186 -0.766703 0
M  V30 7083 H 685.537 -2.16476 -2.24822 0
M  V30 7084 N 685.838 0.888903 -1.30139 0
M  V30 7085 C 686.801 1.97576 -1.16174 0
M  V30 7086 C 687.801 1.60525 -0.094086 0
M  V30 7087 O 688.991 1.70812 -0.341889 0
M  V30 7088 C 686.123 3.3188 -0.778983 0
M  V30 7089 H 687.316 2.11393 -2.12728 0
M  V30 7090 H 684.869 1.0748 -1.1348 0
M  V30 7091 H 685.604 3.23765 0.186225 0
M  V30 7092 H 685.389 3.60141 -1.55051 0
M  V30 7093 H 686.879 4.11612 -0.704631 0
M  V30 7094 N 687.317 1.12792 1.10072 0
M  V30 7095 C 688.28 0.802264 2.14701 0
M  V30 7096 C 689.28 -0.18515 1.59731 0
M  V30 7097 O 690.47 0.041109 1.74151 0
M  V30 7098 C 687.602 0.19285 3.40354 0
M  V30 7099 H 688.795 1.72932 2.45019 0
M  V30 7100 H 686.348 0.931662 1.25498 0
M  V30 7101 H 687.083 -0.743748 3.15656 0
M  V30 7102 H 686.868 0.903827 3.81541 0
M  V30 7103 H 688.358 -0.0183704 4.17596 0
M  V30 7104 N 688.795 -1.27931 0.920396 0
M  V30 7105 C 690.02 -1.99343 0.572478 0
M  V30 7106 C 690.445 -1.68267 -0.840696 0
M  V30 7107 O 689.803 -0.918805 -1.56294 0
M  V30 7108 C 689.851 -3.51698 0.796284 0
M  V30 7109 O 688.955 -4.12157 -0.141602 0
M  V30 7110 H 688.296 -0.626065 0.221221 0
M  V30 7111 H 690.826 -1.62921 1.23765 0
M  V30 7112 H 690.836 -4.01793 0.708984 0
M  V30 7113 H 689.511 -3.73649 1.82644 0
M  V30 7114 H 688.088 -3.729 -0.005007 0
M  V30 7115 N 690.273 -0.685099 -1.4193 0
M  V30 7116 C 691.498 -0.218842 -2.06242 0
M  V30 7117 C 691.923 1.11923 -1.51178 0
M  V30 7118 O 691.281 1.69837 -0.634446 0
M  V30 7119 C 691.329 -0.175592 -3.60172 0
M  V30 7120 O 690.433 0.852776 -4.03487 0
M  V30 7121 H 689.774 -0.109531 -0.654904 0
M  V30 7122 H 692.304 -0.937013 -1.81882 0
M  V30 7123 H 692.314 -0.00291151 -4.08 0
M  V30 7124 H 690.989 -1.15222 -3.99621 0
M  V30 7125 H 689.566 0.650301 -3.67186 0
M  V30 7126 N 691.751 1.51645 -0.429126 0
M  V30 7127 C 692.997 2.02314 0.140286 0
M  V30 7128 C 693.33 1.31314 1.43074 0
M  V30 7129 O 692.605 0.425531 1.89788 0
M  V30 7130 C 692.888 3.5822 0.36749 0
M  V30 7131 C 692.741 4.39846 -0.941039 0
M  V30 7132 C 694.06 4.25055 1.14089 0
M  V30 7133 H 691.179 0.735335 0.0495112 0
M  V30 7134 H 693.821 1.81358 -0.566514 0
M  V30 7135 H 691.971 3.76207 0.969556 0
M  V30 7136 H 693.643 4.33527 -1.57646 0
M  V30 7137 H 691.886 4.05259 -1.54751 0
M  V30 7138 H 692.557 5.47069 -0.73621 0
M  V30 7139 H 695.033 4.11288 0.630986 0
M  V30 7140 H 693.909 5.34038 1.26863 0
M  V30 7141 H 694.17 3.85358 2.16683 0
M  V30 7142 N 693.229 0.160201 1.56784 0
M  V30 7143 C 694.161 -0.80564 2.14574 0
M  V30 7144 C 695.174 -1.20154 1.09849 0
M  V30 7145 O 696.363 -1.14333 1.37078 0
M  V30 7146 C 693.463 -2.09434 2.6644 0
M  V30 7147 C 692.636 -1.86375 3.95706 0
M  V30 7148 C 691.695 -2.99358 4.32749 0
M  V30 7149 O 690.721 -2.70475 5.00831 0
M  V30 7150 N 691.923 -4.26867 3.93402 0
M  V30 7151 H 694.688 -0.311644 2.98075 0
M  V30 7152 H 692.249 -0.0229465 1.61884 0
M  V30 7153 H 694.241 -2.84091 2.88226 0
M  V30 7154 H 692.811 -2.50057 1.8759 0
M  V30 7155 H 692.031 -0.956821 3.82412 0
M  V30 7156 H 693.319 -1.68322 4.80151 0
M  V30 7157 H 692.717 -4.53197 3.38569 0
M  V30 7158 H 691.274 -4.98263 4.20211 0
M  V30 7159 N 694.707 -1.5719 -0.113559 0
M  V30 7160 C 695.953 -1.85412 -0.821597 0
M  V30 7161 C 696.286 -0.746722 -1.7927 0
M  V30 7162 O 695.561 0.246971 -1.92926 0
M  V30 7163 C 695.844 -3.24233 -1.56669 0
M  V30 7164 C 695.697 -4.45578 -0.614823 0
M  V30 7165 C 697.016 -3.60697 -2.52161 0
M  V30 7166 H 694.135 -0.674406 -0.29723 0
M  V30 7167 H 696.777 -1.89807 -0.085694 0
M  V30 7168 H 694.927 -3.20617 -2.19401 0
M  V30 7169 H 696.599 -4.613 0.00407137 0
M  V30 7170 H 694.842 -4.33738 0.0732332 0
M  V30 7171 H 695.513 -5.39395 -1.17292 0
M  V30 7172 H 697.989 -3.65139 -1.99532 0
M  V30 7173 H 696.865 -4.58798 -3.01323 0
M  V30 7174 H 697.126 -2.88403 -3.35076 0
M  V30 7175 N 696.185 0.383891 -1.52853 0
M  V30 7176 C 697.117 1.48889 -1.74255 0
M  V30 7177 C 698.13 1.50405 -0.623063 0
M  V30 7178 O 699.319 1.54215 -0.898887 0
M  V30 7179 C 696.419 2.87721 -1.79081 0
M  V30 7180 C 695.592 3.10111 -3.08464 0
M  V30 7181 C 694.651 4.28954 -3.0477 0
M  V30 7182 O 693.677 4.25012 -3.78621 0
M  V30 7183 N 694.879 5.35411 -2.24311 0
M  V30 7184 H 697.644 1.30915 -2.69595 0
M  V30 7185 H 695.205 0.573454 -1.51404 0
M  V30 7186 H 697.197 3.65333 -1.7411 0
M  V30 7187 H 695.767 2.99029 -0.911052 0
M  V30 7188 H 694.987 2.20319 -3.26884 0
M  V30 7189 H 696.275 3.21928 -3.94005 0
M  V30 7190 H 695.673 5.41471 -1.63787 0
M  V30 7191 H 694.23 6.1167 -2.25175 0
M  V30 7192 N 697.663 1.43903 0.642637 0
M  V30 7193 C 698.911 1.45791 1.39962 0
M  V30 7194 C 699.232 0.0873144 1.94804 0
M  V30 7195 O 698.502 -0.878825 1.75081 0
M  V30 7196 H 697.082 0.536797 0.519479 0
M  V30 7197 H 699.744 1.7959 0.757189 0
M  V30 7198 H 698.84 2.17665 2.2367 0
M  V30 7199 N 699.141 -0.881989 1.30609 0
M  V30 7200 C 700.418 -1.61563 1.10258 0
M  V30 7201 C 700.798 -2.08228 -0.347053 0
M  V30 7202 O 700.146 -1.85151 -1.33908 0
M  V30 7203 C 700.356 -2.78287 2.10612 0
M  V30 7204 C 701.704 -3.48545 2.4249 0
M  V30 7205 O 702.728 -2.88479 2.08945 0
M  V30 7206 O 701.587 -4.56873 2.99883 0
M  V30 7207 H 698.681 -0.710238 0.423663 0
M  V30 7208 H 701.227 -0.928503 1.42045 0
M  V30 7209 H 699.999 -2.41131 3.08174 0
M  V30 7210 H 699.622 -3.54695 1.79659 0
M  V30 7211 N 700.619 -1.13374 -1.09472 0
M  V30 7212 C 701.567 -0.806105 -2.18185 0
M  V30 7213 C 702.561 0.21136 -1.68076 0
M  V30 7214 O 703.767 0.0685558 -1.79869 0
M  V30 7215 H 700.142 -0.242901 -0.71169 0
M  V30 7216 H 702.113 -1.73115 -2.43051 0
M  V30 7217 C 700.862 -0.287928 -3.46506 0
M  V30 7218 H 700.185 -1.06217 -3.85432 0
M  V30 7219 H 701.625 -0.0971054 -4.23889 0
M  V30 7220 C 700.084 0.986256 -3.22141 0
M  V30 7221 O 700.614 2.06217 -3.44728 0
M  V30 7222 N 698.82 0.917153 -2.75747 0
M  V30 7223 H 698.367 0.0414609 -2.57567 0
M  V30 7224 H 698.325 1.77029 -2.59823 0
M  V30 7225 N 702.098 1.27442 -0.927168 0
M  V30 7226 C 703.326 1.98498 -0.583622 0
M  V30 7227 C 703.741 1.69171 0.838241 0
M  V30 7228 O 703.098 0.951969 1.55704 0
M  V30 7229 C 703.149 3.52552 -0.799341 0
M  V30 7230 O 702.87 3.80851 -2.16527 0
M  V30 7231 C 704.371 4.4086 -0.464436 0
M  V30 7232 H 701.591 0.633487 -0.221213 0
M  V30 7233 H 704.135 1.62308 -1.24404 0
M  V30 7234 H 702.29 3.86955 -0.185728 0
M  V30 7235 H 702.704 4.75441 -2.21487 0
M  V30 7236 H 704.178 5.47967 -0.666075 0
M  V30 7237 H 704.655 4.35082 0.599995 0
M  V30 7238 H 705.261 4.11977 -1.05617 0
M  V30 7239 N 703.576 0.692616 1.41565 0
M  V30 7240 C 704.801 0.229776 2.06123 0
M  V30 7241 C 705.226 -1.11119 1.5177 0
M  V30 7242 O 704.584 -1.69498 0.643444 0
M  V30 7243 C 704.632 0.19469 3.60074 0
M  V30 7244 O 703.736 -0.831366 4.03933 0
M  V30 7245 H 703.077 0.113002 0.654314 0
M  V30 7246 H 705.607 0.946645 1.81383 0
M  V30 7247 H 705.617 0.0245487 4.07993 0
M  V30 7248 H 704.292 1.17339 3.99004 0
M  V30 7249 H 702.869 -0.630819 3.67526 0
M  V30 7250 N 705.054 -1.51416 0.437162 0
M  V30 7251 C 706.331 -1.94682 -0.189292 0
M  V30 7252 C 706.711 -1.37581 -1.60108 0
M  V30 7253 O 706.059 -0.562815 -2.2146 0
M  V30 7254 C 706.269 -3.48599 -0.167201 0
M  V30 7255 C 707.617 -4.2296 -0.372856 0
M  V30 7256 O 708.641 -3.55354 -0.245323 0
M  V30 7257 O 707.5 -5.42895 -0.626693 0
M  V30 7258 H 704.594 -0.816708 -0.130063 0
M  V30 7259 H 707.14 -1.62316 0.495128 0
M  V30 7260 H 705.912 -3.82616 0.81981 0
M  V30 7261 H 705.535 -3.87406 -0.894537 0
M  V30 7262 N 706.532 -0.168513 -1.56696 0
M  V30 7263 C 707.462 0.758563 -2.20835 0
M  V30 7264 C 708.443 1.24121 -1.1631 0
M  V30 7265 O 709.628 1.29487 -1.4473 0
M  V30 7266 C 706.758 1.9892 -2.8469 0
M  V30 7267 C 705.712 1.64252 -3.95228 0
M  V30 7268 C 705.038 2.94757 -4.46119 0
M  V30 7269 C 706.338 0.872675 -5.14958 0
M  V30 7270 H 708.032 0.223953 -2.98561 0
M  V30 7271 H 705.578 0.106277 -1.43607 0
M  V30 7272 H 707.531 2.64275 -3.28233 0
M  V30 7273 H 706.255 2.5479 -2.04327 0
M  V30 7274 H 704.914 1.01266 -3.52336 0
M  V30 7275 H 704.562 3.48662 -3.62552 0
M  V30 7276 H 704.262 2.72316 -5.2069 0
M  V30 7277 H 705.786 3.61147 -4.92347 0
M  V30 7278 H 707.2 1.42875 -5.55211 0
M  V30 7279 H 705.597 0.747402 -5.95428 0
M  V30 7280 H 706.667 -0.131535 -4.84722 0
M  V30 7281 N 708.01 1.57248 0.105221 0
M  V30 7282 C 709.287 1.76566 0.841647 0
M  V30 7283 C 709.667 0.747566 1.9742 0
M  V30 7284 O 709.015 -0.225886 2.27381 0
M  V30 7285 C 709.225 3.22016 1.3456 0
M  V30 7286 C 710.573 3.84911 1.79244 0
M  V30 7287 O 711.597 3.25703 1.44207 0
M  V30 7288 O 710.456 4.89008 2.43995 0
M  V30 7289 H 707.55 0.723443 0.400698 0
M  V30 7290 H 710.096 1.69472 0.0878893 0
M  V30 7291 H 708.868 3.87644 0.533685 0
M  V30 7292 H 708.491 3.33703 2.16167 0
M  V30 7293 N 709.488 -0.375779 1.53054 0
M  V30 7294 C 710.735 -1.11948 1.68742 0
M  V30 7295 C 711.063 -1.89596 0.434015 0
M  V30 7296 O 710.318 -1.86787 -0.583867 0
M  V30 7297 C 710.617 -2.11356 2.88207 0
M  V30 7298 C 710.283 -1.50266 4.25124 0
M  V30 7299 C 708.945 -1.33333 4.62359 0
M  V30 7300 C 711.297 -1.05976 5.10312 0
M  V30 7301 C 708.625 -0.706765 5.82427 0
M  V30 7302 C 710.977 -0.447241 6.31017 0
M  V30 7303 C 709.641 -0.265314 6.66973 0
M  V30 7304 H 708.911 -0.409648 0.61747 0
M  V30 7305 H 711.558 -0.402492 1.87222 0
M  V30 7306 H 709.863 -2.89322 2.64197 0
M  V30 7307 H 711.56 -2.68833 2.97539 0
M  V30 7308 H 708.15 -1.64437 3.95801 0
M  V30 7309 H 712.334 -1.17855 4.82104 0
M  V30 7310 H 707.59 -0.554132 6.08884 0
M  V30 7311 H 711.764 -0.0958064 6.96334 0
M  V30 7312 H 709.391 0.222267 7.59875 0
M  V30 7313 N 710.966 -1.44241 -0.634997 0
M  V30 7314 C 712.214 -1.46531 -1.39187 0
M  V30 7315 C 712.535 -0.0976441 -1.94755 0
M  V30 7316 O 711.805 0.869528 -1.75545 0
M  V30 7317 H 710.385 -0.539544 -0.516625 0
M  V30 7318 H 713.047 -1.79989 -0.747655 0
M  V30 7319 H 712.143 -2.18848 -2.22513 0
M  V30 7320 N 712.444 0.87505 -1.31075 0
M  V30 7321 C 713.407 1.96333 -1.18263 0
M  V30 7322 C 714.407 1.60416 -0.111106 0
M  V30 7323 O 715.597 1.7044 -0.359987 0
M  V30 7324 C 712.729 3.31036 -0.81414 0
M  V30 7325 H 713.922 2.09125 -2.14958 0
M  V30 7326 H 711.475 1.06271 -1.14614 0
M  V30 7327 H 712.21 3.23944 0.151875 0
M  V30 7328 H 711.995 3.58476 -1.58862 0
M  V30 7329 H 713.485 4.10842 -0.748249 0
M  V30 7330 N 713.922 1.13953 1.08869 0
M  V30 7331 C 715.168 0.906151 1.8143 0
M  V30 7332 C 715.501 -0.566089 1.85766 0
M  V30 7333 O 714.776 -1.41915 1.33006 0
M  V30 7334 C 715.059 1.50183 3.27287 0
M  V30 7335 C 714.912 3.04359 3.31189 0
M  V30 7336 C 716.231 1.17477 4.24131 0
M  V30 7337 H 713.35 0.330624 0.658678 0
M  V30 7338 H 715.992 1.40873 1.27495 0
M  V30 7339 H 714.142 1.07442 3.73348 0
M  V30 7340 H 715.814 3.55896 2.93488 0
M  V30 7341 H 714.057 3.39053 2.70602 0
M  V30 7342 H 714.728 3.41141 4.33966 0
M  V30 7343 H 717.204 1.5442 3.86385 0
M  V30 7344 H 716.08 1.61795 5.24513 0
M  V30 7345 H 716.341 0.0893312 4.4201 0
M  V30 7346 N 715.4 -1.26948 0.933913 0
M  V30 7347 C 716.332 -2.25768 0.395137 0
M  V30 7348 C 717.345 -1.55637 -0.477585 0
M  V30 7349 O 718.534 -1.76142 -0.289204 0
M  V30 7350 C 715.634 -3.35874 -0.451882 0
M  V30 7351 C 714.807 -4.3554 0.40299 0
M  V30 7352 C 713.866 -5.24809 -0.3824 0
M  V30 7353 O 712.892 -5.68805 0.212057 0
M  V30 7354 N 714.094 -5.55636 -1.68072 0
M  V30 7355 H 716.859 -2.72634 1.24463 0
M  V30 7356 H 714.42 -1.40639 0.802008 0
M  V30 7357 H 716.412 -3.92542 -0.984516 0
M  V30 7358 H 714.982 -2.8856 -1.20215 0
M  V30 7359 H 714.202 -3.78047 1.11688 0
M  V30 7360 H 715.49 -4.99131 0.987201 0
M  V30 7361 H 714.888 -5.2176 -2.18592 0
M  V30 7362 H 713.445 -6.14978 -2.15975 0
M  V30 7363 N 716.879 -0.700114 -1.41195 0
M  V30 7364 C 718.295 -0.372114 -1.55201 0
M  V30 7365 C 718.495 1.12053 -1.6747 0
M  V30 7366 O 717.551 1.90642 -1.65566 0
M  V30 7367 C 718.864 -1.12462 -2.78878 0
M  V30 7368 C 720.412 -1.10941 -2.92679 0
M  V30 7369 C 720.887 -1.84376 -4.19249 0
M  V30 7370 N 722.378 -1.81368 -4.26216 0
M  V30 7371 C 723.113 -2.35024 -5.23021 0
M  V30 7372 N 722.609 -2.9717 -6.25829 0
M  V30 7373 N 724.402 -2.25254 -5.14992 0
M  V30 7374 H 716.553 -1.66816 -1.31477 0
M  V30 7375 H 718.816 -0.704223 -0.634644 0
M  V30 7376 H 718.522 -2.17937 -2.76037 0
M  V30 7377 H 718.396 -0.706152 -3.70531 0
M  V30 7378 H 720.783 -0.062911 -2.95033 0
M  V30 7379 H 720.864 -1.56698 -2.02187 0
M  V30 7380 H 720.508 -2.89008 -4.17656 0
M  V30 7381 H 720.438 -1.3605 -5.08722 0
M  V30 7382 H 722.929 -1.36062 -3.52556 0
M  V30 7383 H 723.242 -3.35668 -6.96094 0
M  V30 7384 H 721.587 -3.01249 -6.26318 0
M  V30 7385 H 724.778 -1.76372 -4.33602 0
M  V30 7386 H 724.951 -2.67373 -5.90268 0
M  V30 7387 N 718.357 1.51182 -0.445186 0
M  V30 7388 C 719.605 2.01753 0.11841 0
M  V30 7389 C 719.926 1.33087 1.42523 0
M  V30 7390 O 719.196 0.467891 1.9023 0
M  V30 7391 H 717.776 0.745536 0.0467492 0
M  V30 7392 H 720.438 1.85765 -0.589688 0
M  V30 7393 H 719.534 3.10762 0.288665 0
M  V30 7394 N 719.835 0.176821 1.56605 0
M  V30 7395 C 721.112 -0.513365 1.88743 0
M  V30 7396 C 721.492 -1.80929 1.08757 0
M  V30 7397 O 720.84 -2.27765 0.183127 0
M  V30 7398 C 721.05 -0.749925 3.40848 0
M  V30 7399 C 722.398 -1.07747 4.10701 0
M  V30 7400 O 723.422 -0.838277 3.46196 0
M  V30 7401 O 722.281 -1.52901 5.24675 0
M  V30 7402 H 719.375 -0.265296 0.783292 0
M  V30 7403 H 721.921 0.215669 1.68324 0
M  V30 7404 H 720.693 0.16599 3.90948 0
M  V30 7405 H 720.316 -1.53208 3.66897 0
M  V30 7406 N 721.313 -1.57302 -0.09688 0
M  V30 7407 C 722.724 -1.7496 -0.651595 0
M  V30 7408 C 723.075 -0.798746 -1.79205 0
M  V30 7409 O 722.2 0.0231858 -2.16388 0
M  V30 7410 C 722.795 -3.17259 -1.18878 0
M  V30 7411 C 721.354 -3.36348 -1.68958 0
M  V30 7412 C 720.501 -2.70766 -0.598413 0
M  V30 7413 H 723.452 -1.58173 0.12918 0
M  V30 7414 H 723.473 -3.20033 -2.05814 0
M  V30 7415 H 722.985 -3.8644 -0.358523 0
M  V30 7416 H 721.086 -2.72243 -2.5439 0
M  V30 7417 H 721.199 -4.44654 -1.7838 0
M  V30 7418 H 719.563 -2.32615 -1.03743 0
M  V30 7419 H 720.346 -3.42586 0.221238 0
M  V30 7420 N 722.791 0.367657 -1.53252 0
M  V30 7421 C 723.701 1.47415 -1.82499 0
M  V30 7422 C 724.717 1.58711 -0.713222 0
M  V30 7423 O 725.893 1.74644 -1.00306 0
M  V30 7424 C 722.958 2.82706 -2.00694 0
M  V30 7425 C 722.019 2.80955 -3.24596 0
M  V30 7426 C 721.252 4.09793 -3.41914 0
M  V30 7427 O 721.475 5.05852 -2.63572 0
M  V30 7428 O 720.409 4.15731 -4.3526 0
M  V30 7429 H 724.235 1.25624 -2.765 0
M  V30 7430 H 721.82 0.557559 -1.38606 0
M  V30 7431 H 723.702 3.62873 -2.14246 0
M  V30 7432 H 722.377 3.04479 -1.09883 0
M  V30 7433 H 721.284 1.99494 -3.16469 0
M  V30 7434 H 722.617 2.64136 -4.15323 0
M  V30 7435 N 724.269 1.44576 0.627338 0
M  V30 7436 C 725.202 1.46206 1.75212 0
M  V30 7437 C 726.18 0.320483 1.5941 0
M  V30 7438 O 727.364 0.518028 1.81242 0
M  V30 7439 C 724.491 1.29834 3.12827 0
M  V30 7440 C 723.537 2.47603 3.47268 0
M  V30 7441 S 724.37 4.10125 3.44322 0
M  V30 7442 C 725.526 3.96183 4.84551 0
M  V30 7443 H 725.759 2.41378 1.73563 0
M  V30 7444 H 723.292 1.3192 0.802283 0
M  V30 7445 H 725.25 1.21075 3.92239 0
M  V30 7446 H 723.911 0.361662 3.12011 0
M  V30 7447 H 723.104 2.3202 4.47418 0
M  V30 7448 H 722.706 2.53121 2.75329 0
M  V30 7449 H 724.998 3.60107 5.73872 0
M  V30 7450 H 725.941 4.96176 5.05188 0
M  V30 7451 H 726.349 3.28177 4.59304 0
M  V30 7452 N 725.747 -0.868086 1.31537 0
M  V30 7453 C 726.657 -2.00801 1.21311 0
M  V30 7454 C 727.673 -1.73518 0.129431 0
M  V30 7455 O 728.849 -1.98378 0.347588 0
M  V30 7456 C 725.914 -3.3419 0.922935 0
M  V30 7457 C 724.975 -3.74783 2.0937 0
M  V30 7458 C 724.208 -5.01807 1.81728 0
M  V30 7459 O 724.431 -5.65404 0.753313 0
M  V30 7460 O 723.365 -5.39213 2.67457 0
M  V30 7461 H 727.191 -2.12361 2.17109 0
M  V30 7462 H 724.776 -0.996684 1.11295 0
M  V30 7463 H 726.658 -4.14174 0.777033 0
M  V30 7464 H 725.333 -3.237 -0.00500301 0
M  V30 7465 H 724.24 -2.95432 2.29501 0
M  V30 7466 H 725.573 -3.89902 3.00396 0
M  V30 7467 N 727.225 -1.14528 -1.08264 0
M  V30 7468 C 728.157 -0.791325 -2.15106 0
M  V30 7469 C 729.17 0.192449 -1.61659 0
M  V30 7470 O 730.359 -0.0294704 -1.78476 0
M  V30 7471 C 727.459 -0.154183 -3.38549 0
M  V30 7472 C 726.632 -1.17305 -4.21377 0
M  V30 7473 C 725.691 -0.559401 -5.23218 0
M  V30 7474 O 724.717 -1.22277 -5.55911 0
M  V30 7475 N 725.919 0.663159 -5.767 0
M  V30 7476 H 728.684 -1.71076 -2.46075 0
M  V30 7477 H 726.245 -1.0399 -1.24087 0
M  V30 7478 H 728.237 0.268884 -4.03806 0
M  V30 7479 H 726.807 0.668418 -3.0537 0
M  V30 7480 H 726.027 -1.773 -3.52077 0
M  V30 7481 H 727.315 -1.86128 -4.73533 0
M  V30 7482 H 726.713 1.22066 -5.52373 0
M  V30 7483 H 725.27 1.02871 -6.43631 0
M  V30 7484 N 728.703 1.26451 -0.940633 0
M  V30 7485 C 729.65 2.264 -0.448497 0
M  V30 7486 C 730.62 1.5866 0.491546 0
M  V30 7487 O 731.805 1.86389 0.407874 0
M  V30 7488 C 728.945 3.43956 0.280715 0
M  V30 7489 C 728.058 4.26374 -0.694937 0
M  V30 7490 C 727.193 5.31171 0.0554186 0
M  V30 7491 C 726.232 6.05266 -0.912091 0
M  V30 7492 N 725.369 7.01833 -0.193524 0
M  V30 7493 H 730.209 2.67869 -1.30576 0
M  V30 7494 H 727.746 1.31707 -0.655112 0
M  V30 7495 H 729.704 4.10941 0.71994 0
M  V30 7496 H 728.334 3.03403 1.10212 0
M  V30 7497 H 727.386 3.59183 -1.25267 0
M  V30 7498 H 728.698 4.77748 -1.43382 0
M  V30 7499 H 727.852 6.04166 0.553951 0
M  V30 7500 H 726.591 4.80634 0.827183 0
M  V30 7501 H 725.596 5.31099 -1.42175 0
M  V30 7502 H 726.821 6.57893 -1.68385 0
M  V30 7503 H 724.767 6.53607 0.559758 0
M  V30 7504 H 724.684 7.50957 -0.871744 0
M  V30 7505 H 725.952 7.78983 0.283932 0
M  V30 7506 N 730.181 0.707592 1.40822 0
M  V30 7507 C 731.114 -0.000859377 2.282 0
M  V30 7508 C 732.092 -0.7758 1.42899 0
M  V30 7509 O 733.276 -0.76411 1.72318 0
M  V30 7510 C 730.403 -1.00861 3.23334 0
M  V30 7511 C 729.449 -0.32543 4.25257 0
M  V30 7512 S 730.282 0.940908 5.27169 0
M  V30 7513 C 731.438 -0.0649459 6.25866 0
M  V30 7514 H 731.671 0.740207 2.87938 0
M  V30 7515 H 729.204 0.498311 1.46138 0
M  V30 7516 H 731.162 -1.58485 3.78672 0
M  V30 7517 H 729.823 -1.72233 2.62668 0
M  V30 7518 H 729.016 -1.08697 4.92139 0
M  V30 7519 H 728.618 0.178044 3.73576 0
M  V30 7520 H 730.91 -0.914377 6.71301 0
M  V30 7521 H 731.853 0.570276 7.058 0
M  V30 7522 H 732.261 -0.425098 5.62897 0
M  V30 7523 N 731.66 -1.50943 0.453197 0
M  V30 7524 C 732.608 -2.29728 -0.364419 0
M  V30 7525 C 733.602 -1.36246 -1.00664 0
M  V30 7526 O 734.808 -1.53518 -0.939794 0
M  V30 7527 H 731.183 -0.739536 -0.136347 0
M  V30 7528 H 733.154 -2.96672 0.320696 0
M  V30 7529 C 731.903 -3.1629 -1.44415 0
M  V30 7530 H 731.226 -3.88119 -0.959343 0
M  V30 7531 H 732.666 -3.74444 -1.98917 0
M  V30 7532 C 731.125 -2.32702 -2.43622 0
M  V30 7533 O 731.655 -1.99763 -3.48508 0
M  V30 7534 N 729.861 -1.95621 -2.14897 0
M  V30 7535 H 729.408 -2.22607 -1.29629 0
M  V30 7536 H 729.366 -1.39993 -2.81513 0
M  V30 7537 N 733.138 -0.185124 -1.56509 0
M  V30 7538 C 734.554 0.170865 -1.58683 0
M  V30 7539 C 734.754 1.61799 -1.20098 0
M  V30 7540 O 733.81 2.35181 -0.919038 0
M  V30 7541 C 735.123 -0.122459 -3.00451 0
M  V30 7542 C 736.671 -0.0617699 -3.12939 0
M  V30 7543 C 737.146 -0.328269 -4.56822 0
M  V30 7544 N 738.637 -0.276533 -4.62374 0
M  V30 7545 C 739.372 -0.456722 -5.71578 0
M  V30 7546 N 738.868 -0.69672 -6.89288 0
M  V30 7547 N 740.661 -0.391669 -5.60734 0
M  V30 7548 H 732.812 -1.12956 -1.79874 0
M  V30 7549 H 735.075 -0.45011 -0.834329 0
M  V30 7550 H 734.781 -1.12546 -3.33206 0
M  V30 7551 H 734.655 0.579578 -3.72721 0
M  V30 7552 H 737.042 0.931826 -2.80002 0
M  V30 7553 H 737.123 -0.796732 -2.43076 0
M  V30 7554 H 736.767 -1.31914 -4.9047 0
M  V30 7555 H 736.697 0.427465 -5.24862 0
M  V30 7556 H 739.188 -0.0972458 -3.77775 0
M  V30 7557 H 739.501 -0.823291 -7.68402 0
M  V30 7558 H 737.846 -0.733497 -6.91119 0
M  V30 7559 H 741.037 -0.204663 -4.67652 0
M  V30 7560 H 741.21 -0.535518 -6.45783 0
M  V30 7561 N 734.616 1.57351 0.0885366 0
M  V30 7562 C 735.862 1.86696 0.791996 0
M  V30 7563 C 736.195 0.775148 1.78059 0
M  V30 7564 O 735.47 -0.216247 1.93294 0
M  V30 7565 C 735.753 3.26684 1.51491 0
M  V30 7566 C 735.606 4.465 0.543858 0
M  V30 7567 C 736.925 3.64664 2.46391 0
M  V30 7568 H 734.044 0.679049 0.286463 0
M  V30 7569 H 736.686 1.89919 0.0554866 0
M  V30 7570 H 734.836 3.24067 2.14273 0
M  V30 7571 H 736.508 4.61235 -0.0774597 0
M  V30 7572 H 734.751 4.33567 -0.142228 0
M  V30 7573 H 735.422 5.41192 1.08696 0
M  V30 7574 H 737.898 3.68267 1.93698 0
M  V30 7575 H 736.774 4.63534 2.93986 0
M  V30 7576 H 737.035 2.93698 3.30445 0
M  V30 7577 N 736.094 -0.359525 1.53444 0
M  V30 7578 C 737.343 -1.09886 1.69139 0
M  V30 7579 C 737.656 -1.90285 0.452863 0
M  V30 7580 O 738.862 -2.67033 0.490459 0
M  V30 7581 C 737.318 -2.0028 2.99025 0
M  V30 7582 C 736.926 -1.25164 4.30161 0
M  V30 7583 C 738.67 -2.74168 3.24086 0
M  V30 7584 C 736.577 -2.14494 5.51132 0
M  V30 7585 H 735.507 -0.413936 0.630217 0
M  V30 7586 H 738.158 -0.359434 1.79945 0
M  V30 7587 H 736.54 -2.77978 2.82036 0
M  V30 7588 H 737.714 -0.524867 4.57801 0
M  V30 7589 H 736.029 -0.631116 4.11589 0
M  V30 7590 H 738.626 -3.41243 4.11652 0
M  V30 7591 H 738.969 -3.39868 2.40407 0
M  V30 7592 H 739.502 -2.0355 3.41778 0
M  V30 7593 H 736.241 -1.53362 6.37307 0
M  V30 7594 H 735.761 -2.85004 5.27762 0
M  V30 7595 H 737.44 -2.73914 5.86157 0
M  V30 7596 N 737.572 -1.44907 -0.619662 0
M  V30 7597 C 738.988 -1.29046 -0.939107 0
M  V30 7598 C 739.188 -0.23462 -2.00129 0
M  V30 7599 O 738.244 0.37558 -2.49691 0
M  V30 7600 C 739.557 -2.66567 -1.39149 0
M  V30 7601 C 741.105 -2.74368 -1.50635 0
M  V30 7602 C 741.58 -4.12386 -1.99253 0
M  V30 7603 N 743.071 -4.1462 -2.06506 0
M  V30 7604 C 743.806 -5.18272 -2.4532 0
M  V30 7605 N 743.302 -6.32278 -2.83189 0
M  V30 7606 N 745.095 -5.05628 -2.45554 0
M  V30 7607 H 737.246 -2.12239 0.0826135 0
M  V30 7608 H 739.509 -0.947652 -0.0256829 0
M  V30 7609 H 739.215 -3.4496 -0.685254 0
M  V30 7610 H 739.089 -2.94224 -2.36034 0
M  V30 7611 H 741.476 -1.96287 -2.20353 0
M  V30 7612 H 741.557 -2.50439 -0.520963 0
M  V30 7613 H 741.201 -4.90947 -1.30127 0
M  V30 7614 H 741.131 -4.33699 -2.98684 0
M  V30 7615 H 743.622 -3.32343 -1.79878 0
M  V30 7616 H 743.935 -7.07172 -3.11652 0
M  V30 7617 H 742.28 -6.35699 -2.80913 0
M  V30 7618 H 745.471 -4.15613 -2.15367 0
M  V30 7619 H 745.644 -5.86529 -2.75478 0
M  V30 7620 N 739.05 0.861098 -1.31996 0
M  V30 7621 C 740.013 1.95068 -1.20338 0
M  V30 7622 C 741.013 1.60289 -0.128114 0
M  V30 7623 O 742.203 1.70048 -0.378044 0
M  V30 7624 C 739.335 3.30153 -0.849205 0
M  V30 7625 H 740.528 2.06833 -2.17164 0
M  V30 7626 H 738.081 1.05049 -1.15734 0
M  V30 7627 H 738.816 3.24087 0.117508 0
M  V30 7628 H 738.601 3.56771 -1.62655 0
M  V30 7629 H 740.091 4.10025 -0.791782 0
M  V30 7630 N 740.528 1.15101 1.07655 0
M  V30 7631 C 741.768 0.934462 1.81789 0
M  V30 7632 C 742.132 -0.529101 1.84566 0
M  V30 7633 O 743.333 -0.863868 2.5454 0
M  V30 7634 C 741.604 1.52817 3.23082 0
M  V30 7635 S 743.163 1.45429 4.14 0
M  V30 7636 H 739.981 0.336379 0.626395 0
M  V30 7637 H 742.583 1.46593 1.29347 0
M  V30 7638 H 741.287 2.58635 3.18647 0
M  V30 7639 H 740.818 0.995432 3.80598 0
M  V30 7640 H 742.833 0.445058 4.942 0
M  V30 7641 N 742.006 -1.2595 0.947325 0
M  V30 7642 C 743.252 -1.9375 0.599064 0
M  V30 7643 C 743.585 -1.74088 -0.860632 0
M  V30 7644 O 742.86 -1.08158 -1.61654 0
M  V30 7645 C 743.143 -3.47353 0.949634 0
M  V30 7646 C 742.996 -3.76273 2.46452 0
M  V30 7647 C 744.315 -4.37589 0.469442 0
M  V30 7648 H 741.434 -0.703674 0.219115 0
M  V30 7649 H 744.076 -1.48705 1.18266 0
M  V30 7650 H 742.226 -3.8585 0.453008 0
M  V30 7651 H 743.898 -3.47455 3.03435 0
M  V30 7652 H 742.141 -3.22135 2.90537 0
M  V30 7653 H 742.812 -4.83664 2.66032 0
M  V30 7654 H 745.288 -4.06353 0.89534 0
M  V30 7655 H 744.164 -5.43841 0.7435 0
M  V30 7656 H 744.425 -4.37579 -0.630618 0
M  V30 7657 N 743.484 -0.715051 -1.40445 0
M  V30 7658 C 744.394 -0.0631624 -2.34515 0
M  V30 7659 C 745.41 0.744397 -1.57273 0
M  V30 7660 O 746.586 0.677475 -1.89663 0
M  V30 7661 C 743.651 0.847915 -3.36172 0
M  V30 7662 C 742.712 0.0303655 -4.29289 0
M  V30 7663 C 741.945 0.898051 -5.2609 0
M  V30 7664 O 742.168 2.13729 -5.28844 0
M  V30 7665 O 741.102 0.337328 -6.00954 0
M  V30 7666 H 744.928 -0.839078 -2.91879 0
M  V30 7667 H 742.513 -0.475527 -1.4163 0
M  V30 7668 H 744.395 1.3698 -3.98515 0
M  V30 7669 H 743.07 1.60299 -2.81222 0
M  V30 7670 H 741.977 -0.536573 -3.70232 0
M  V30 7671 H 743.31 -0.686474 -4.87389 0
M  V30 7672 N 744.962 1.50701 -0.461195 0
M  V30 7673 C 745.925 2.2686 0.326679 0
M  V30 7674 C 746.925 1.31243 0.929085 0
M  V30 7675 O 748.115 1.54754 0.799807 0
M  V30 7676 C 745.247 3.07844 1.46441 0
M  V30 7677 H 746.44 2.97954 -0.341095 0
M  V30 7678 H 743.993 1.54814 -0.214984 0
M  V30 7679 H 744.728 2.41223 2.16753 0
M  V30 7680 H 744.513 3.78101 1.03836 0
M  V30 7681 H 746.003 3.65469 2.02044 0
M  V30 7682 N 746.441 0.193421 1.56409 0
M  V30 7683 C 747.852 -0.319471 1.83946 0
M  V30 7684 C 748.203 -1.61505 1.11403 0
M  V30 7685 O 747.328 -2.13139 0.374289 0
M  V30 7686 C 747.923 -0.586411 3.33686 0
M  V30 7687 C 746.482 -1.04368 3.61641 0
M  V30 7688 C 745.629 -0.0913834 2.77149 0
M  V30 7689 H 748.58 0.417242 1.53117 0
M  V30 7690 H 748.601 -1.43591 3.52366 0
M  V30 7691 H 748.113 0.356701 3.86457 0
M  V30 7692 H 746.214 -2.00113 3.14302 0
M  V30 7693 H 746.327 -0.937549 4.69837 0
M  V30 7694 H 744.691 -0.592954 2.47702 0
M  V30 7695 H 745.474 0.846142 3.32709 0
M  V30 7696 N 747.919 -1.57396 -0.0801906 0
M  V30 7697 C 748.866 -2.03107 -1.09618 0
M  V30 7698 C 749.836 -0.910118 -1.38946 0
M  V30 7699 O 751.021 -1.17719 -1.50156 0
M  V30 7700 C 748.161 -2.47293 -2.40708 0
M  V30 7701 C 747.274 -3.72972 -2.17982 0
M  V30 7702 C 746.409 -4.05975 -3.42576 0
M  V30 7703 C 745.448 -5.24719 -3.15177 0
M  V30 7704 N 744.585 -5.53401 -4.32078 0
M  V30 7705 H 749.425 -2.89677 -0.69939 0
M  V30 7706 H 746.962 -1.43263 -0.333785 0
M  V30 7707 H 748.92 -2.7096 -3.17232 0
M  V30 7708 H 747.55 -1.63713 -2.78205 0
M  V30 7709 H 746.602 -3.56693 -1.32189 0
M  V30 7710 H 747.914 -4.59638 -1.93738 0
M  V30 7711 H 747.068 -4.30498 -4.275 0
M  V30 7712 H 745.807 -3.17859 -3.69887 0
M  V30 7713 H 744.812 -5 -2.28648 0
M  V30 7714 H 746.037 -6.14445 -2.89197 0
M  V30 7715 H 743.983 -4.68245 -4.59437 0
M  V30 7716 H 743.9 -6.34469 -4.11078 0
M  V30 7717 H 745.168 -5.8247 -5.18024 0
M  V30 7718 N 749.397 0.351382 -1.53633 0
M  V30 7719 C 750.645 1.09034 -1.70165 0
M  V30 7720 C 750.966 1.89413 -0.463422 0
M  V30 7721 O 750.236 1.888 0.522624 0
M  V30 7722 H 748.816 0.405522 -0.627344 0
M  V30 7723 H 751.478 0.394554 -1.90865 0
M  V30 7724 H 750.574 1.77215 -2.56907 0
M  V30 7725 N 750.875 1.45233 0.611969 0
M  V30 7726 C 751.823 1.53898 1.74408 0
M  V30 7727 C 752.817 0.409254 1.64382 0
M  V30 7728 O 754.023 0.584988 1.70229 0
M  V30 7729 H 750.398 0.483303 0.576127 0
M  V30 7730 H 752.369 2.49143 1.64227 0
M  V30 7731 C 751.118 1.51865 3.12782 0
M  V30 7732 H 750.441 2.38118 3.21154 0
M  V30 7733 H 751.881 1.61986 3.91838 0
M  V30 7734 C 750.34 0.242374 3.36027 0
M  V30 7735 O 750.87 -0.679587 3.9591 0
M  V30 7736 N 749.076 0.139448 2.90265 0
M  V30 7737 H 748.623 0.890571 2.41716 0
M  V30 7738 H 748.581 -0.713686 3.06193 0
M  V30 7739 N 752.353 -0.854086 1.3245 0
M  V30 7740 C 753.764 -1.42427 1.20712 0
M  V30 7741 C 754.115 -1.95371 -0.18013 0
M  V30 7742 O 753.24 -1.87587 -1.07889 0
M  V30 7743 C 753.835 -2.58897 2.18536 0
M  V30 7744 C 752.394 -3.11913 2.10683 0
M  V30 7745 C 751.541 -1.84661 2.06871 0
M  V30 7746 H 754.492 -0.661192 1.4427 0
M  V30 7747 H 754.513 -3.36074 1.78422 0
M  V30 7748 H 754.025 -2.20333 3.19492 0
M  V30 7749 H 752.126 -3.55059 1.12977 0
M  V30 7750 H 752.239 -3.73119 3.00532 0
M  V30 7751 H 750.603 -2.04285 1.52118 0
M  V30 7752 H 751.386 -1.48314 3.09609 0
M  V30 7753 N 753.831 -1.1567 -1.07043 0
M  V30 7754 C 755.08 -0.928039 -1.79082 0
M  V30 7755 C 755.393 0.545968 -1.87826 0
M  V30 7756 O 756.599 0.892308 -2.56418 0
M  V30 7757 C 755.055 -1.61103 -3.21829 0
M  V30 7758 C 754.663 -3.12228 -3.21275 0
M  V30 7759 C 756.407 -1.46404 -3.98455 0
M  V30 7760 C 754.314 -3.733 -4.58695 0
M  V30 7761 H 753.244 -0.34357 -0.671175 0
M  V30 7762 H 755.895 -1.38718 -1.20123 0
M  V30 7763 H 754.277 -1.07958 -3.81 0
M  V30 7764 H 755.451 -3.72155 -2.71731 0
M  V30 7765 H 753.766 -3.26725 -2.58147 0
M  V30 7766 H 756.363 -1.8942 -5.00024 0
M  V30 7767 H 756.706 -0.41195 -4.14257 0
M  V30 7768 H 757.239 -1.96663 -3.45787 0
M  V30 7769 H 753.978 -4.78423 -4.48098 0
M  V30 7770 H 753.498 -3.18157 -5.08465 0
M  V30 7771 H 755.177 -3.7441 -5.27661 0
M  V30 7772 N 755.309 1.25446 -0.953992 0
M  V30 7773 C 756.549 1.94894 -0.616087 0
M  V30 7774 C 756.913 1.73067 0.831374 0
M  V30 7775 O 758.114 2.3643 1.27884 0
M  V30 7776 C 756.385 3.44147 -0.964225 0
M  V30 7777 S 757.944 4.32536 -0.738798 0
M  V30 7778 H 754.762 0.673967 -0.226472 0
M  V30 7779 H 757.364 1.52117 -1.22803 0
M  V30 7780 H 756.068 3.57537 -2.01484 0
M  V30 7781 H 755.599 3.91906 -0.342507 0
M  V30 7782 H 757.614 4.94659 0.390732 0
M  V30 7783 N 756.787 0.722489 1.40064 0
M  V30 7784 C 758.012 0.273446 2.05589 0
M  V30 7785 C 758.437 -1.07875 1.54093 0
M  V30 7786 O 757.795 -1.68095 0.679252 0
M  V30 7787 C 757.843 0.271023 3.5958 0
M  V30 7788 O 756.947 -0.745499 4.05606 0
M  V30 7789 H 756.288 0.126856 0.65177 0
M  V30 7790 H 758.818 0.984906 1.79334 0
M  V30 7791 H 758.828 0.111084 4.07849 0
M  V30 7792 H 757.503 1.25776 3.96425 0
M  V30 7793 H 756.08 -0.552719 3.68781 0
M  V30 7794 N 758.265 -1.50454 0.469181 0
M  V30 7795 C 759.195 -2.31353 -0.31592 0
M  V30 7796 C 760.176 -1.38172 -0.992094 0
M  V30 7797 O 761.361 -1.67093 -0.989633 0
M  V30 7798 C 758.491 -3.1786 -1.39937 0
M  V30 7799 C 757.445 -4.19578 -0.844909 0
M  V30 7800 C 756.771 -4.9481 -2.0265 0
M  V30 7801 C 758.071 -5.22106 0.142499 0
M  V30 7802 H 759.765 -2.97237 0.359269 0
M  V30 7803 H 757.311 -1.42942 0.174224 0
M  V30 7804 H 759.264 -3.7325 -1.95607 0
M  V30 7805 H 757.988 -2.49858 -2.1033 0
M  V30 7806 H 756.647 -3.65285 -0.310189 0
M  V30 7807 H 756.295 -4.23282 -2.71737 0
M  V30 7808 H 755.995 -5.63613 -1.66174 0
M  V30 7809 H 757.519 -5.53035 -2.58815 0
M  V30 7810 H 758.933 -5.72378 -0.324966 0
M  V30 7811 H 757.33 -5.98618 0.421441 0
M  V30 7812 H 758.4 -4.7297 1.06901 0
M  V30 7813 N 759.743 -0.201713 -1.56304 0
M  V30 7814 C 760.693 0.729444 -2.16016 0
M  V30 7815 C 761.677 1.17164 -1.10279 0
M  V30 7816 O 762.869 1.12893 -1.36324 0
M  V30 7817 C 759.998 1.94594 -2.82822 0
M  V30 7818 C 759.084 1.52434 -3.95758 0
M  V30 7819 N 759.475 0.814106 -4.99205 0
M  V30 7820 C 757.773 1.81314 -4.07481 0
M  V30 7821 C 758.474 0.601896 -5.78578 0
M  V30 7822 N 757.45 1.15263 -5.3124 0
M  V30 7823 H 761.252 0.178163 -2.93359 0
M  V30 7824 H 758.766 -0.00218038 -1.624 0
M  V30 7825 H 760.763 2.62357 -3.23998 0
M  V30 7826 H 759.423 2.50188 -2.06969 0
M  V30 7827 H 760.434 0.468872 -5.15773 0
M  V30 7828 H 757.111 2.3837 -3.42762 0
M  V30 7829 H 758.501 0.0380119 -6.71889 0
M  V30 7830 N 761.222 1.57436 0.0718424 0
M  V30 7831 C 762.499 1.78312 0.804006 0
M  V30 7832 C 762.879 0.789273 1.9579 0
M  V30 7833 O 762.227 -0.177605 2.27809 0
M  V30 7834 C 762.437 3.24798 1.277 0
M  V30 7835 C 763.785 3.88627 1.71039 0
M  V30 7836 O 764.809 3.28689 1.37266 0
M  V30 7837 O 763.668 4.94073 2.33567 0
M  V30 7838 H 760.762 0.73178 0.385262 0
M  V30 7839 H 763.308 1.69621 0.0519219 0
M  V30 7840 H 762.08 3.88688 0.45134 0
M  V30 7841 H 761.703 3.38213 2.0904 0
M  V30 7842 N 762.7 -0.34323 1.53817 0
M  V30 7843 C 763.632 -1.44216 1.78141 0
M  V30 7844 C 764.645 -1.48701 0.662721 0
M  V30 7845 O 765.834 -1.51778 0.939458 0
M  V30 7846 C 762.934 -2.82872 1.86646 0
M  V30 7847 C 762.107 -3.01824 3.16577 0
M  V30 7848 C 761.166 -4.20723 3.16036 0
M  V30 7849 O 760.192 -4.14824 3.89756 0
M  V30 7850 N 761.394 -5.29276 2.38427 0
M  V30 7851 H 764.159 -1.23721 2.72971 0
M  V30 7852 H 761.72 -0.53311 1.52871 0
M  V30 7853 H 763.712 -3.60588 1.83735 0
M  V30 7854 H 762.282 -2.96509 0.990014 0
M  V30 7855 H 761.502 -2.11575 3.3261 0
M  V30 7856 H 762.79 -3.11369 4.02402 0
M  V30 7857 H 762.188 -5.36938 1.78085 0
M  V30 7858 H 760.745 -6.05484 2.41313 0
M  V30 7859 N 764.178 -1.45556 -0.604258 0
M  V30 7860 C 765.426 -1.4945 -1.36048 0
M  V30 7861 C 765.747 -0.138933 -1.94504 0
M  V30 7862 O 765.017 0.832097 -1.7735 0
M  V30 7863 H 763.597 -0.550381 -0.505064 0
M  V30 7864 H 766.259 -1.81535 -0.709308 0
M  V30 7865 H 765.355 -2.23519 -2.17821 0
M  V30 7866 N 765.656 0.84705 -1.32902 0
M  V30 7867 C 766.619 1.9378 -1.224 0
M  V30 7868 C 767.619 1.60144 -0.145108 0
M  V30 7869 O 768.809 1.69638 -0.396058 0
M  V30 7870 C 765.941 3.29234 -0.884174 0
M  V30 7871 H 767.134 2.04518 -2.19345 0
M  V30 7872 H 764.687 1.03816 -1.16842 0
M  V30 7873 H 765.422 3.24193 0.0831277 0
M  V30 7874 H 765.207 3.55026 -1.6643 0
M  V30 7875 H 766.697 4.09162 -0.835226 0
M  V30 7876 N 767.134 1.16236 1.06428 0
M  V30 7877 C 768.382 0.941171 1.78847 0
M  V30 7878 C 768.703 -0.53248 1.87589 0
M  V30 7879 O 767.973 -1.38686 1.38358 0
M  V30 7880 H 766.553 0.345228 0.66244 0
M  V30 7881 H 769.215 1.46479 1.28569 0
M  V30 7882 H 768.311 1.35871 2.80972 0
M  V30 7883 N 768.612 -1.24939 0.960631 0
M  V30 7884 C 769.86 -1.92437 0.617441 0
M  V30 7885 C 770.181 -1.75543 -0.849101 0
M  V30 7886 O 769.451 -1.12269 -1.60538 0
M  V30 7887 H 768.031 -0.712192 0.225371 0
M  V30 7888 H 770.693 -1.5198 1.22017 0
M  V30 7889 H 769.789 -3.00247 0.851933 0
M  V30 7890 N 770.09 -0.729906 -1.39679 0
M  V30 7891 C 771.038 -0.0756589 -2.32477 0
M  V30 7892 C 772.032 0.731438 -1.52795 0
M  V30 7893 O 773.238 0.633195 -1.68495 0
M  V30 7894 H 769.613 -0.00566492 -0.751979 0
M  V30 7895 H 771.584 -0.874797 -2.85289 0
M  V30 7896 C 770.333 0.821313 -3.37861 0
M  V30 7897 H 769.656 0.209666 -3.9925 0
M  V30 7898 H 771.096 1.24679 -4.05254 0
M  V30 7899 C 769.555 1.9533 -2.74495 0
M  V30 7900 O 770.085 3.04548 -2.61942 0
M  V30 7901 N 768.291 1.74119 -2.3266 0
M  V30 7902 H 767.838 0.852908 -2.4307 0
M  V30 7903 H 767.796 2.50036 -1.90603 0
M  V30 7904 N 771.568 1.50203 -0.477153 0
M  V30 7905 C 772.816 2.01959 0.0755889 0
M  V30 7906 C 773.137 1.3608 1.39668 0
M  V30 7907 O 772.407 0.508136 1.89195 0
M  V30 7908 H 770.987 0.74636 0.0309248 0
M  V30 7909 H 773.649 1.84473 -0.628959 0
M  V30 7910 H 772.745 3.11305 0.222683 0
M  V30 7911 N 773.046 0.209999 1.56195 0
M  V30 7912 C 773.994 -0.721416 2.2113 0
M  V30 7913 C 774.988 -1.20852 1.18706 0
M  V30 7914 O 776.194 -1.16968 1.36815 0
M  V30 7915 H 772.569 -0.251033 0.708863 0
M  V30 7916 H 774.54 -0.150193 2.98022 0
M  V30 7917 C 773.289 -1.92392 2.89621 0
M  V30 7918 H 772.612 -1.5582 3.68185 0
M  V30 7919 H 774.052 -2.55367 3.38473 0
M  V30 7920 C 772.511 -2.77208 1.91461 0
M  V30 7921 O 773.041 -3.75603 1.42426 0
M  V30 7922 N 771.247 -2.43006 1.59363 0
M  V30 7923 H 770.794 -1.63047 1.99433 0
M  V30 7924 H 770.752 -3.00036 0.939449 0
M  V30 7925 N 774.524 -1.57472 -0.0634922 0
M  V30 7926 C 775.77 -1.87932 -0.762194 0
M  V30 7927 C 776.103 -0.803377 -1.76804 0
M  V30 7928 O 775.378 0.185468 -1.93614 0
M  V30 7929 C 775.661 -3.29053 -1.46275 0
M  V30 7930 C 775.514 -4.47309 -0.472755 0
M  V30 7931 C 776.833 -3.68537 -2.40558 0
M  V30 7932 H 773.952 -0.683521 -0.275624 0
M  V30 7933 H 776.594 -1.89983 -0.0252651 0
M  V30 7934 H 774.744 -3.27435 -2.0909 0
M  V30 7935 H 776.416 -4.61053 0.150828 0
M  V30 7936 H 774.659 -4.33286 0.211187 0
M  V30 7937 H 775.33 -5.42853 -1.00072 0
M  V30 7938 H 777.806 -3.71302 -1.87814 0
M  V30 7939 H 776.682 -4.68152 -2.86574 0
M  V30 7940 H 776.943 -2.98917 -3.25731 0
M  V30 7941 N 776.003 0.335068 -1.53997 0
M  V30 7942 C 776.933 1.41727 -1.85568 0
M  V30 7943 C 777.914 1.54505 -0.7115 0
M  V30 7944 O 779.099 1.68573 -0.964191 0
M  V30 7945 C 776.229 2.7866 -2.07282 0
M  V30 7946 C 775.183 2.80682 -3.23112 0
M  V30 7947 C 774.509 4.20581 -3.30175 0
M  V30 7948 C 775.809 2.45458 -4.61029 0
M  V30 7949 H 777.503 1.15555 -2.76202 0
M  V30 7950 H 775.049 0.554445 -1.32898 0
M  V30 7951 H 777.002 3.54423 -2.27952 0
M  V30 7952 H 775.726 3.06286 -1.13387 0
M  V30 7953 H 774.385 2.07373 -3.02311 0
M  V30 7954 H 774.033 4.4533 -2.33859 0
M  V30 7955 H 773.733 4.22843 -4.08016 0
M  V30 7956 H 775.257 4.98174 -3.53066 0
M  V30 7957 H 776.671 3.10934 -4.81656 0
M  V30 7958 H 775.068 2.5899 -5.41336 0
M  V30 7959 H 776.138 1.40628 -4.6406 0
M  V30 7960 N 777.481 1.45874 0.596531 0
M  V30 7961 C 778.428 1.55389 1.70655 0
M  V30 7962 C 779.398 0.399036 1.61236 0
M  V30 7963 O 780.583 0.61396 1.80652 0
M  V30 7964 C 777.723 1.53705 3.0898 0
M  V30 7965 C 776.836 2.79823 3.29125 0
M  V30 7966 C 775.971 2.69735 4.5762 0
M  V30 7967 C 775.01 3.90856 4.71061 0
M  V30 7968 N 774.147 3.79237 5.90867 0
M  V30 7969 H 778.987 2.50211 1.61859 0
M  V30 7970 H 776.524 1.24146 0.789069 0
M  V30 7971 H 778.482 1.50715 3.89026 0
M  V30 7972 H 777.112 0.624247 3.16706 0
M  V30 7973 H 776.164 2.92852 2.42779 0
M  V30 7974 H 777.476 3.69628 3.34927 0
M  V30 7975 H 776.63 2.64773 5.45875 0
M  V30 7976 H 775.369 1.77547 4.54234 0
M  V30 7977 H 774.374 3.96164 3.81227 0
M  V30 7978 H 775.599 4.84124 4.76236 0
M  V30 7979 H 773.545 2.89825 5.88504 0
M  V30 7980 H 773.462 4.62686 5.97877 0
M  V30 7981 H 774.73 3.78227 6.8159 0
M  V30 7982 N 778.959 -0.83999 1.33349 0
M  V30 7983 C 779.869 -1.98182 1.25543 0
M  V30 7984 C 780.885 -1.73204 0.166208 0
M  V30 7985 O 782.061 -1.97596 0.389589 0
M  V30 7986 C 779.126 -3.32157 0.993614 0
M  V30 7987 C 778.187 -3.70258 2.17273 0
M  V30 7988 C 777.42 -4.9784 1.92331 0
M  V30 7989 O 777.643 -5.63679 0.873074 0
M  V30 7990 O 776.577 -5.33418 2.78835 0
M  V30 7991 H 780.403 -2.07708 2.21565 0
M  V30 7992 H 777.988 -0.972852 1.13384 0
M  V30 7993 H 779.87 -4.12433 0.864711 0
M  V30 7994 H 778.545 -3.23637 0.0636596 0
M  V30 7995 H 777.452 -2.90497 2.35716 0
M  V30 7996 H 778.785 -3.83442 3.08598 0
M  V30 7997 N 780.437 -1.16799 -1.0581 0
M  V30 7998 C 781.367 -0.902241 -2.15364 0
M  V30 7999 C 782.348 0.153351 -1.69407 0
M  V30 8000 O 783.533 0.00442032 -1.94199 0
M  V30 8001 C 780.663 -0.407911 -3.44896 0
M  V30 8002 C 779.617 -1.40197 -4.04387 0
M  V30 8003 C 778.943 -0.765848 -5.29187 0
M  V30 8004 C 780.243 -2.77316 -4.42598 0
M  V30 8005 H 781.937 -1.81841 -2.37853 0
M  V30 8006 H 779.483 -0.875731 -1.14311 0
M  V30 8007 H 781.436 -0.20945 -4.20879 0
M  V30 8008 H 780.16 0.54378 -3.22041 0
M  V30 8009 H 778.819 -1.58707 -3.30466 0
M  V30 8010 H 778.467 0.192482 -5.02632 0
M  V30 8011 H 778.167 -1.42939 -5.69949 0
M  V30 8012 H 779.691 -0.577519 -6.07863 0
M  V30 8013 H 781.105 -2.62561 -5.09642 0
M  V30 8014 H 779.502 -3.4019 -4.94359 0
M  V30 8015 H 780.572 -3.32199 -3.53231 0
M  V30 8016 N 781.915 1.24427 -0.967243 0
M  V30 8017 C 783.14 1.9708 -0.646069 0
M  V30 8018 C 783.565 1.71272 0.777665 0
M  V30 8019 O 782.923 0.976179 1.52776 0
M  V30 8020 C 782.971 3.48501 -0.926266 0
M  V30 8021 O 782.075 4.12398 -0.0114653 0
M  V30 8022 H 781.416 0.617423 -0.244304 0
M  V30 8023 H 783.946 1.58215 -1.29727 0
M  V30 8024 H 783.956 3.98885 -0.857619 0
M  V30 8025 H 782.631 3.66613 -1.96386 0
M  V30 8026 H 781.208 3.72661 -0.133396 0
M  V30 8027 N 783.393 0.737304 1.3929 0
M  V30 8028 C 784.67 0.212464 1.94443 0
M  V30 8029 C 785.05 -1.28621 1.67391 0
M  V30 8030 O 784.398 -2.0529 1.00342 0
M  V30 8031 C 784.608 0.548565 3.44662 0
M  V30 8032 C 785.956 0.499177 4.21656 0
M  V30 8033 O 786.98 0.485892 3.5287 0
M  V30 8034 O 785.839 0.495739 5.44247 0
M  V30 8035 H 782.933 0.0395457 0.826054 0
M  V30 8036 H 785.479 0.816319 1.48776 0
M  V30 8037 H 784.251 1.58426 3.57795 0
M  V30 8038 H 783.874 -0.0841399 3.97511 0
M  V30 8039 N 784.871 -1.49948 0.485112 0
M  V30 8040 C 786.282 -1.8667 0.0334041 0
M  V30 8041 C 786.633 -1.3988 -1.37579 0
M  V30 8042 O 785.758 -0.769788 -2.02245 0
M  V30 8043 C 786.353 -3.38757 0.0538426 0
M  V30 8044 C 784.912 -3.74839 -0.342453 0
M  V30 8045 C 784.059 -2.73894 0.433281 0
M  V30 8046 H 787.01 -1.42492 0.698699 0
M  V30 8047 H 787.031 -3.73132 -0.745146 0
M  V30 8048 H 786.543 -3.72782 1.07959 0
M  V30 8049 H 784.644 -3.46419 -1.37203 0
M  V30 8050 H 784.757 -4.79088 -0.0340503 0
M  V30 8051 H 783.121 -2.54441 -0.114849 0
M  V30 8052 H 783.904 -3.10763 1.45881 0
M  V30 8053 N 786.349 -0.21828 -1.56081 0
M  V30 8054 C 787.312 0.679633 -2.18892 0
M  V30 8055 C 788.312 1.12405 -1.14986 0
M  V30 8056 O 789.502 1.03339 -1.40238 0
M  V30 8057 C 786.634 1.93063 -2.80962 0
M  V30 8058 H 787.827 0.132066 -2.99609 0
M  V30 8059 H 785.38 0.0313374 -1.56269 0
M  V30 8060 H 786.115 2.52015 -2.04106 0
M  V30 8061 H 785.9 1.62046 -3.57048 0
M  V30 8062 H 787.39 2.57043 -3.29118 0
M  V30 8063 N 787.827 1.57504 0.0551401 0
M  V30 8064 C 789.075 1.87684 0.74962 0
M  V30 8065 C 789.396 0.812547 1.77264 0
M  V30 8066 O 788.666 -0.15694 1.9527 0
M  V30 8067 H 787.246 0.6926 0.279846 0
M  V30 8068 H 789.908 1.94881 0.0272745 0
M  V30 8069 H 789.004 2.85734 1.25548 0
M  V30 8070 N 789.305 -0.326896 1.54172 0
M  V30 8071 C 790.268 -1.38515 1.8261 0
M  V30 8072 C 791.268 -1.44872 0.697771 0
M  V30 8073 O 792.458 -1.44957 0.966078 0
M  V30 8074 C 789.59 -2.77281 1.98313 0
M  V30 8075 H 790.783 -1.14556 2.77159 0
M  V30 8076 H 788.336 -0.562199 1.45839 0
M  V30 8077 H 789.071 -3.065 1.05964 0
M  V30 8078 H 788.856 -2.74061 2.80416 0
M  V30 8079 H 790.346 -3.53845 2.21773 0
M  V30 8080 N 790.784 -1.46188 -0.588786 0
M  V30 8081 C 792.033 -1.50452 -1.34339 0
M  V30 8082 C 792.346 -0.158096 -1.9496 0
M  V30 8083 O 793.552 -0.0784918 -2.71387 0
M  V30 8084 C 792.008 -2.65074 -2.43441 0
M  V30 8085 C 791.616 -4.06111 -1.8915 0
M  V30 8086 C 793.36 -2.78603 -3.20282 0
M  V30 8087 C 791.267 -5.12084 -2.95845 0
M  V30 8088 H 790.197 -0.559905 -0.504997 0
M  V30 8089 H 792.848 -1.72382 -0.629014 0
M  V30 8090 H 791.23 -2.36462 -3.1765 0
M  V30 8091 H 792.404 -4.44487 -1.21524 0
M  V30 8092 H 790.719 -3.97197 -1.24995 0
M  V30 8093 H 793.316 -3.54944 -3.99898 0
M  V30 8094 H 793.659 -1.85902 -3.72486 0
M  V30 8095 H 794.192 -3.06832 -2.53178 0
M  V30 8096 H 790.931 -6.06556 -2.48535 0
M  V30 8097 H 790.451 -4.78259 -3.61979 0
M  V30 8098 H 792.13 -5.37661 -3.59902 0
M  V30 8099 N 792.262 0.832906 -1.33792 0
M  V30 8100 C 793.511 1.58351 -1.24932 0
M  V30 8101 C 793.824 1.94754 0.181703 0
M  V30 8102 O 795.03 2.6865 0.392375 0
M  V30 8103 C 793.486 2.85643 -2.18943 0
M  V30 8104 C 793.094 2.56581 -3.67247 0
M  V30 8105 C 794.838 3.63667 -2.18968 0
M  V30 8106 C 792.745 3.80006 -4.53155 0
M  V30 8107 H 791.675 0.594278 -0.464058 0
M  V30 8108 H 794.326 0.91786 -1.58895 0
M  V30 8109 H 792.708 3.53781 -1.77919 0
M  V30 8110 H 793.882 1.96617 -4.16747 0
M  V30 8111 H 792.197 1.91851 -3.6957 0
M  V30 8112 H 794.794 4.55293 -2.80379 0
M  V30 8113 H 795.137 3.99039 -1.18631 0
M  V30 8114 H 795.67 3.0246 -2.58384 0
M  V30 8115 H 792.409 3.4976 -5.5439 0
M  V30 8116 H 791.929 4.39288 -4.08395 0
M  V30 8117 H 793.608 4.47523 -4.6726 0
M  V30 8118 N 793.74 1.17359 1.05189 0
M  V30 8119 C 794.97 0.985099 1.81602 0
M  V30 8120 C 795.378 -0.469872 1.83273 0
M  V30 8121 O 794.721 -1.33806 1.25864 0
M  V30 8122 C 794.783 1.44956 3.2898 0
M  V30 8123 C 794.447 2.92666 3.50993 0
M  V30 8124 C 795.444 3.906 3.43115 0
M  V30 8125 C 793.129 3.30841 3.77954 0
M  V30 8126 C 795.123 5.24709 3.61883 0
M  V30 8127 C 792.81 4.65116 3.96371 0
M  V30 8128 C 793.808 5.61859 3.88335 0
M  V30 8129 O 793.496 6.93704 4.06238 0
M  V30 8130 H 793.228 0.348731 0.579105 0
M  V30 8131 H 795.782 1.56066 1.33539 0
M  V30 8132 H 794.012 0.817559 3.77959 0
M  V30 8133 H 795.701 1.22674 3.86919 0
M  V30 8134 H 796.467 3.62453 3.22262 0
M  V30 8135 H 792.346 2.5611 3.83313 0
M  V30 8136 H 795.89 6.00205 3.55527 0
M  V30 8137 H 791.787 4.92969 4.16715 0
M  V30 8138 H 792.555 7.00443 4.23463 0
M  V30 8139 N 795.218 -1.23913 0.973828 0
M  V30 8140 C 796.446 -1.96195 0.656891 0
M  V30 8141 C 796.861 -1.72166 -0.774876 0
M  V30 8142 O 796.218 -1.0091 -1.52064 0
M  V30 8143 C 796.269 -3.49342 0.929638 0
M  V30 8144 O 795.99 -3.72553 2.30512 0
M  V30 8145 C 797.491 -4.38833 0.627739 0
M  V30 8146 H 794.711 -0.624841 0.244572 0
M  V30 8147 H 797.255 -1.57579 1.30343 0
M  V30 8148 H 795.41 -3.85999 0.329216 0
M  V30 8149 H 795.824 -4.66893 2.3898 0
M  V30 8150 H 797.298 -5.45117 0.868991 0
M  V30 8151 H 797.775 -4.37009 -0.438104 0
M  V30 8152 H 798.381 -4.07773 1.20834 0
M  V30 8153 N 796.696 -0.74468 -1.38897 0
M  V30 8154 C 797.921 -0.306119 -2.05128 0
M  V30 8155 C 798.346 1.0541 -1.55789 0
M  V30 8156 O 797.704 1.66993 -0.705909 0
M  V30 8157 C 797.752 -0.328195 -3.59103 0
M  V30 8158 O 796.856 0.680876 -4.06741 0
M  V30 8159 H 796.197 -0.137209 -0.649669 0
M  V30 8160 H 798.727 -1.01331 -1.77745 0
M  V30 8161 H 798.737 -0.175956 -4.0762 0
M  V30 8162 H 797.412 -1.32067 -3.94374 0
M  V30 8163 H 795.989 0.49398 -3.69614 0
M  V30 8164 N 798.174 1.49689 -0.493057 0
M  V30 8165 C 799.59 1.58907 -0.148526 0
M  V30 8166 C 799.79 1.4991 1.34645 0
M  V30 8167 O 798.846 1.36893 2.12171 0
M  V30 8168 C 800.159 2.91996 -0.718265 0
M  V30 8169 C 801.707 3.05443 -0.683658 0
M  V30 8170 C 802.182 4.41138 -1.23132 0
M  V30 8171 N 803.673 4.47608 -1.19167 0
M  V30 8172 C 804.408 5.51038 -1.5857 0
M  V30 8173 N 803.904 6.61612 -2.05528 0
M  V30 8174 N 805.697 5.41706 -1.50036 0
M  V30 8175 H 797.848 1.5378 -1.46511 0
M  V30 8176 H 800.111 0.727996 -0.607228 0
M  V30 8177 H 799.817 3.04123 -1.7664 0
M  V30 8178 H 799.691 3.76798 -0.17419 0
M  V30 8179 H 802.078 2.92949 0.355626 0
M  V30 8180 H 802.159 2.22344 -1.26479 0
M  V30 8181 H 801.803 4.54382 -2.26935 0
M  V30 8182 H 801.733 5.22864 -0.626201 0
M  V30 8183 H 804.224 3.68274 -0.847524 0
M  V30 8184 H 804.537 7.36622 -2.33685 0
M  V30 8185 H 802.882 6.62674 -2.09497 0
M  V30 8186 H 806.073 4.54212 -1.13176 0
M  V30 8187 H 806.246 6.22188 -1.81068 0
M  V30 8188 N 799.652 0.226554 1.55963 0
M  V30 8189 C 800.899 -0.403789 1.98433 0
M  V30 8190 C 801.227 -1.59416 1.1143 0
M  V30 8191 O 800.482 -1.95042 0.160389 0
M  V30 8192 C 800.781 -0.87642 3.46488 0
M  V30 8193 C 800.447 0.203973 4.50438 0
M  V30 8194 C 799.109 0.500754 4.78587 0
M  V30 8195 C 801.461 0.934396 5.12756 0
M  V30 8196 C 798.789 1.53239 5.66334 0
M  V30 8197 C 801.141 1.9554 6.0162 0
M  V30 8198 C 799.805 2.25905 6.28111 0
M  V30 8199 H 799.075 -0.147757 0.726119 0
M  V30 8200 H 801.722 0.330121 1.88633 0
M  V30 8201 H 800.027 -1.68918 3.53517 0
M  V30 8202 H 801.724 -1.37407 3.76723 0
M  V30 8203 H 798.314 -0.0374917 4.28584 0
M  V30 8204 H 802.498 0.718355 4.91074 0
M  V30 8205 H 797.754 1.77321 5.85122 0
M  V30 8206 H 801.928 2.52642 6.48957 0
M  V30 8207 H 799.555 3.05985 6.959 0
M  V30 8208 N 801.13 -1.57531 -0.0467866 0
M  V30 8209 C 802.062 -2.02156 -1.08007 0
M  V30 8210 C 803.075 -0.931434 -1.33522 0
M  V30 8211 O 804.264 -1.209 -1.31321 0
M  V30 8212 C 801.364 -2.36675 -2.42566 0
M  V30 8213 C 800.537 -3.67848 -2.36658 0
M  V30 8214 C 799.596 -3.89754 -3.53523 0
M  V30 8215 O 798.622 -4.61036 -3.33818 0
M  V30 8216 N 799.824 -3.34025 -4.74771 0
M  V30 8217 H 802.589 -2.91414 -0.699845 0
M  V30 8218 H 800.15 -1.60185 -0.235041 0
M  V30 8219 H 802.142 -2.48482 -3.19435 0
M  V30 8220 H 800.712 -1.53178 -2.72498 0
M  V30 8221 H 799.932 -3.66561 -1.45005 0
M  V30 8222 H 801.22 -4.53931 -2.29835 0
M  V30 8223 H 800.618 -2.76214 -4.93683 0
M  V30 8224 H 799.175 -3.51241 -5.49066 0
M  V30 8225 N 802.608 0.318715 -1.54344 0
M  V30 8226 C 803.538 1.39751 -1.87061 0
M  V30 8227 C 804.519 1.53741 -0.727848 0
M  V30 8228 O 805.704 1.67541 -0.982016 0
M  V30 8229 C 802.834 2.76446 -2.10226 0
M  V30 8230 C 801.788 2.77239 -3.26071 0
M  V30 8231 C 801.114 4.17056 -3.34617 0
M  V30 8232 C 802.414 2.40555 -4.63606 0
M  V30 8233 H 804.108 1.12619 -2.77412 0
M  V30 8234 H 801.654 0.540318 -1.33479 0
M  V30 8235 H 803.607 3.51985 -2.31699 0
M  V30 8236 H 802.331 3.05066 -1.16629 0
M  V30 8237 H 800.99 2.04155 -3.04493 0
M  V30 8238 H 800.638 4.42824 -2.3857 0
M  V30 8239 H 800.338 4.18492 -4.12478 0
M  V30 8240 H 801.862 4.94401 -3.5833 0
M  V30 8241 H 803.276 3.05808 -4.84927 0
M  V30 8242 H 801.673 2.53234 -5.44052 0
M  V30 8243 H 802.743 1.35698 -4.65526 0
M  V30 8244 N 804.086 1.46499 0.581025 0
M  V30 8245 C 805.334 1.51596 1.33653 0
M  V30 8246 C 805.655 0.169859 1.94259 0
M  V30 8247 O 804.925 -0.803776 1.78651 0
M  V30 8248 H 803.505 0.558346 0.496244 0
M  V30 8249 H 806.167 1.8264 0.680338 0
M  V30 8250 H 805.263 2.26956 2.14237 0
M  V30 8251 N 805.565 -0.825799 1.34232 0
M  V30 8252 C 806.842 -1.56741 1.17011 0
M  V30 8253 C 807.222 -2.09512 -0.258425 0
M  V30 8254 O 806.57 -1.90664 -1.25935 0
M  V30 8255 C 806.78 -2.69104 2.22225 0
M  V30 8256 C 808.128 -3.37947 2.57055 0
M  V30 8257 O 809.152 -2.79358 2.20992 0
M  V30 8258 O 808.011 -4.43743 3.1899 0
M  V30 8259 H 805.105 -0.69163 0.453405 0
M  V30 8260 H 807.651 -0.867422 1.45856 0
M  V30 8261 H 806.423 -2.27844 3.18124 0
M  V30 8262 H 806.046 -3.46756 1.94541 0
M  V30 8263 N 807.043 -1.17915 -1.04565 0
M  V30 8264 C 808.454 -0.976383 -1.59134 0
M  V30 8265 C 808.805 0.475267 -1.90357 0
M  V30 8266 O 807.93 1.35172 -1.6899 0
M  V30 8267 C 808.525 -1.76604 -2.89131 0
M  V30 8268 C 807.084 -1.60777 -3.40335 0
M  V30 8269 C 806.231 -1.76369 -2.13985 0
M  V30 8270 H 809.182 -1.32532 -0.872985 0
M  V30 8271 H 809.203 -1.25215 -3.59307 0
M  V30 8272 H 808.715 -2.82252 -2.66375 0
M  V30 8273 H 806.816 -0.576436 -3.68114 0
M  V30 8274 H 806.929 -2.40268 -4.14497 0
M  V30 8275 H 805.293 -1.19268 -2.25049 0
M  V30 8276 H 806.076 -2.83441 -1.9369 0
M  V30 8277 N 808.521 1.23394 -0.980386 0
M  V30 8278 C 809.749 1.95844 -0.667286 0
M  V30 8279 C 810.164 1.72574 0.765735 0
M  V30 8280 O 809.521 1.01715 1.51526 0
M  V30 8281 C 809.572 3.48844 -0.948151 0
M  V30 8282 O 809.293 3.71325 -2.32485 0
M  V30 8283 C 810.794 4.38494 -0.651002 0
M  V30 8284 H 808.014 0.623535 -0.247882 0
M  V30 8285 H 810.558 1.56885 -1.31176 0
M  V30 8286 H 808.713 3.85819 -0.349681 0
M  V30 8287 H 809.127 4.65619 -2.41452 0
M  V30 8288 H 810.601 5.44648 -0.897887 0
M  V30 8289 H 811.078 4.37236 0.414922 0
M  V30 8290 H 811.684 4.07127 -1.22995 0
M  V30 8291 N 809.999 0.752036 1.385 0
M  V30 8292 C 810.929 0.138718 2.33088 0
M  V30 8293 C 811.91 -0.705318 1.54788 0
M  V30 8294 O 813.095 -0.646821 1.83112 0
M  V30 8295 C 810.225 -0.75641 3.38963 0
M  V30 8296 C 809.179 -0.0152239 4.27997 0
M  V30 8297 C 808.505 -1.0285 5.24715 0
M  V30 8298 C 809.805 1.15226 5.09431 0
M  V30 8299 H 811.499 0.928852 2.84627 0
M  V30 8300 H 809.045 0.448111 1.3685 0
M  V30 8301 H 810.998 -1.19513 4.04097 0
M  V30 8302 H 809.722 -1.57885 2.85902 0
M  V30 8303 H 808.381 0.404061 3.64366 0
M  V30 8304 H 808.029 -1.84496 4.67943 0
M  V30 8305 H 807.729 -0.537238 5.85139 0
M  V30 8306 H 809.253 -1.46657 5.92726 0
M  V30 8307 H 810.667 0.791161 5.67815 0
M  V30 8308 H 809.064 1.57428 5.79082 0
M  V30 8309 H 810.134 1.9659 4.43261 0
M  V30 8310 N 811.477 -1.49425 0.500989 0
M  V30 8311 C 812.425 -2.30771 -0.291149 0
M  V30 8312 C 813.419 -1.3938 -0.962787 0
M  V30 8313 O 814.625 -1.56431 -0.890477 0
M  V30 8314 H 811 -0.743499 -0.11275 0
M  V30 8315 H 812.971 -2.95501 0.414917 0
M  V30 8316 C 811.72 -3.20725 -1.34279 0
M  V30 8317 H 811.043 -3.90975 -0.83538 0
M  V30 8318 H 812.483 -3.80583 -1.86903 0
M  V30 8319 C 810.942 -2.40334 -2.36095 0
M  V30 8320 O 811.472 -2.10749 -3.41976 0
M  V30 8321 N 809.678 -2.02359 -2.08565 0
M  V30 8322 H 809.225 -2.26619 -1.22482 0
M  V30 8323 H 809.183 -1.48878 -2.76916 0
M  V30 8324 N 812.955 -0.234822 -1.55841 0
M  V30 8325 C 813.918 0.656378 -2.196 0
M  V30 8326 C 814.918 1.11179 -1.16171 0
M  V30 8327 O 816.108 1.01845 -1.41326 0
M  V30 8328 C 813.24 1.90072 -2.82993 0
M  V30 8329 H 814.433 0.100281 -2.99732 0
M  V30 8330 H 811.986 0.0147613 -1.56293 0
M  V30 8331 H 812.721 2.49836 -2.06767 0
M  V30 8332 H 812.506 1.5825 -3.58747 0
M  V30 8333 H 813.996 2.53538 -3.31826 0
M  V30 8334 N 814.433 1.57553 0.0384317 0
M  V30 8335 C 815.363 2.0898 1.04161 0
M  V30 8336 C 816.344 0.99029 1.38301 0
M  V30 8337 O 817.529 1.26499 1.47349 0
M  V30 8338 C 814.659 2.56145 2.34536 0
M  V30 8339 C 813.613 3.70275 2.14663 0
M  V30 8340 C 812.939 4.03612 3.50715 0
M  V30 8341 C 814.239 4.99067 1.54045 0
M  V30 8342 H 815.933 2.93046 0.613548 0
M  V30 8343 H 813.479 1.40973 0.293684 0
M  V30 8344 H 815.432 2.90741 3.05037 0
M  V30 8345 H 814.156 1.6915 2.79385 0
M  V30 8346 H 812.815 3.36013 1.46597 0
M  V30 8347 H 812.463 3.13698 3.93195 0
M  V30 8348 H 812.163 4.80482 3.38247 0
M  V30 8349 H 813.687 4.40735 4.22593 0
M  V30 8350 H 815.101 5.3168 2.14451 0
M  V30 8351 H 813.498 5.80484 1.52178 0
M  V30 8352 H 814.568 4.8226 0.505259 0
M  V30 8353 N 815.911 -0.310526 1.54511 0
M  V30 8354 C 816.821 -1.4054 1.87844 0
M  V30 8355 C 817.837 -1.55954 0.771635 0
M  V30 8356 O 819.013 -1.70801 1.06719 0
M  V30 8357 C 816.078 -2.75063 2.11048 0
M  V30 8358 C 815.139 -2.68715 3.348 0
M  V30 8359 C 814.372 -3.96821 3.56887 0
M  V30 8360 O 814.595 -4.95721 2.82165 0
M  V30 8361 O 813.529 -3.99291 4.50389 0
M  V30 8362 H 817.355 -1.15275 2.80972 0
M  V30 8363 H 814.94 -0.505732 1.4058 0
M  V30 8364 H 816.822 -3.54671 2.27566 0
M  V30 8365 H 815.497 -3.00191 1.21108 0
M  V30 8366 H 814.404 -1.87611 3.23655 0
M  V30 8367 H 815.737 -2.4854 4.2484 0
M  V30 8368 N 817.389 -1.46805 -0.573248 0
M  V30 8369 C 818.638 -1.51868 -1.32736 0
M  V30 8370 C 818.951 -0.178765 -1.94781 0
M  V30 8371 O 820.157 -0.107272 -2.71288 0
M  V30 8372 C 818.613 -2.67641 -2.40616 0
M  V30 8373 C 818.221 -4.08094 -1.84832 0
M  V30 8374 C 819.965 -2.81984 -3.17309 0
M  V30 8375 C 817.872 -5.15193 -2.90397 0
M  V30 8376 H 816.802 -0.56523 -0.49903 0
M  V30 8377 H 819.453 -1.7304 -0.610695 0
M  V30 8378 H 817.835 -2.39818 -3.15124 0
M  V30 8379 H 819.009 -4.45751 -1.16803 0
M  V30 8380 H 817.324 -3.985 -1.20775 0
M  V30 8381 H 819.921 -3.59166 -3.96111 0
M  V30 8382 H 820.264 -1.89842 -3.70494 0
M  V30 8383 H 820.797 -3.095 -2.4991 0
M  V30 8384 H 817.536 -6.09158 -2.42088 0
M  V30 8385 H 817.056 -4.82071 -3.56886 0
M  V30 8386 H 818.735 -5.41448 -3.54179 0
M  V30 8387 N 818.867 0.818669 -1.34668 0
M  V30 8388 C 820.113 1.577 -1.28461 0
M  V30 8389 C 820.468 1.91867 0.143057 0
M  V30 8390 O 819.761 1.57545 1.09041 0
M  V30 8391 C 819.955 2.88245 -2.11304 0
M  V30 8392 C 819.784 2.66831 -3.61982 0
M  V30 8393 C 818.554 2.63346 -4.3125 0
M  V30 8394 C 820.752 2.38049 -4.55892 0
M  V30 8395 N 818.734 2.33522 -5.67751 0
M  V30 8396 C 820.105 2.17957 -5.80426 0
M  V30 8397 C 822.16 2.23812 -4.44761 0
M  V30 8398 C 820.863 1.8507 -6.95084 0
M  V30 8399 C 822.889 1.92321 -5.59255 0
M  V30 8400 C 822.251 1.73056 -6.82811 0
M  V30 8401 H 818.35 0.579284 -0.525314 0
M  V30 8402 H 820.934 0.959336 -1.69425 0
M  V30 8403 H 819.105 3.47927 -1.7263 0
M  V30 8404 H 820.837 3.53677 -1.96709 0
M  V30 8405 H 817.592 2.7757 -3.83734 0
M  V30 8406 H 818.016 2.21438 -6.39761 0
M  V30 8407 H 822.658 2.3741 -3.49852 0
M  V30 8408 H 820.376 1.7021 -7.89971 0
M  V30 8409 H 823.962 1.82031 -5.5259 0
M  V30 8410 H 822.842 1.49042 -7.69907 0
M  V30 8411 N 820.346 1.18468 1.03938 0
M  V30 8412 C 821.594 0.978895 1.76811 0
M  V30 8413 C 821.915 -0.49257 1.88676 0
M  V30 8414 O 821.185 -1.3572 1.41269 0
M  V30 8415 H 819.765 0.359201 0.654968 0
M  V30 8416 H 822.427 1.49173 1.25433 0
M  V30 8417 H 821.523 1.418 2.78027 0
M  V30 8418 N 821.824 -1.22873 0.986916 0
M  V30 8419 C 822.787 -2.2281 0.537442 0
M  V30 8420 C 823.787 -1.56331 -0.37646 0
M  V30 8421 O 824.977 -1.73376 -0.169247 0
M  V30 8422 C 822.109 -3.40195 -0.219082 0
M  V30 8423 H 823.302 -2.64089 1.42116 0
M  V30 8424 H 820.855 -1.35819 0.773488 0
M  V30 8425 H 821.59 -3.04381 -1.11905 0
M  V30 8426 H 821.375 -3.89657 0.437026 0
M  V30 8427 H 822.865 -4.14326 -0.521926 0
M  V30 8428 N 823.302 -0.75937 -1.38099 0
M  V30 8429 C 824.212 -0.13774 -2.34195 0
M  V30 8430 C 825.228 0.693985 -1.59561 0
M  V30 8431 O 826.404 0.616792 -1.91723 0
M  V30 8432 C 823.469 0.740535 -3.38699 0
M  V30 8433 C 822.53 -0.106225 -4.29169 0
M  V30 8434 C 821.763 0.730225 -5.28681 0
M  V30 8435 O 821.986 1.96796 -5.35376 0
M  V30 8436 O 820.92 0.145969 -6.01723 0
M  V30 8437 H 824.746 -0.931512 -2.89061 0
M  V30 8438 H 822.331 -0.520345 -1.40046 0
M  V30 8439 H 824.213 1.24232 -4.02672 0
M  V30 8440 H 822.888 1.51271 -2.8618 0
M  V30 8441 H 821.795 -0.654088 -3.68337 0
M  V30 8442 H 823.128 -0.841186 -4.84959 0
M  V30 8443 N 824.78 1.49157 -0.508906 0
M  V30 8444 C 826.01 2.06579 0.0293308 0
M  V30 8445 C 826.418 1.36852 1.30645 0
M  V30 8446 O 825.761 0.443079 1.78276 0
M  V30 8447 C 825.823 3.57838 0.345296 0
M  V30 8448 C 825.487 4.49302 -0.835256 0
M  V30 8449 C 826.484 4.90345 -1.72793 0
M  V30 8450 C 824.169 4.91494 -1.0363 0
M  V30 8451 C 826.163 5.72327 -2.80573 0
M  V30 8452 C 823.85 5.7325 -2.11726 0
M  V30 8453 C 824.848 6.13572 -3.00032 0
M  V30 8454 O 824.536 6.93691 -4.06261 0
M  V30 8455 H 824.268 0.675679 -0.0208193 0
M  V30 8456 H 826.822 1.9282 -0.707789 0
M  V30 8457 H 825.052 3.69634 1.13612 0
M  V30 8458 H 826.741 3.97467 0.823089 0
M  V30 8459 H 827.507 4.58388 -1.58446 0
M  V30 8460 H 823.386 4.59605 -0.358308 0
M  V30 8461 H 826.93 6.03719 -3.49527 0
M  V30 8462 H 822.827 6.0462 -2.26065 0
M  V30 8463 H 823.595 7.12011 -4.03711 0
M  V30 8464 N 826.258 0.243083 1.55714 0
M  V30 8465 C 827.19 -0.690766 2.18543 0
M  V30 8466 C 828.203 -1.14163 1.16064 0
M  V30 8467 O 829.392 -1.06906 1.42946 0
M  V30 8468 C 826.492 -1.95016 2.77168 0
M  V30 8469 C 825.665 -1.65137 4.05029 0
M  V30 8470 C 824.724 -2.75998 4.48009 0
M  V30 8471 O 823.75 -2.43547 5.14464 0
M  V30 8472 N 824.952 -4.05414 4.15476 0
M  V30 8473 H 827.717 -0.153203 2.99308 0
M  V30 8474 H 825.278 0.0628968 1.61778 0
M  V30 8475 H 827.27 -2.68414 3.0288 0
M  V30 8476 H 825.84 -2.39762 2.00582 0
M  V30 8477 H 825.06 -0.752768 3.86946 0
M  V30 8478 H 826.348 -1.42633 4.88399 0
M  V30 8479 H 825.746 -4.34613 3.62116 0
M  V30 8480 H 824.303 -4.75288 4.46032 0
M  V30 8481 N 827.736 -1.57571 -0.0300757 0
M  V30 8482 C 828.646 -2.09892 -1.04798 0
M  V30 8483 C 829.662 -1.03732 -1.39698 0
M  V30 8484 O 830.838 -1.35461 -1.49038 0
M  V30 8485 C 827.903 -2.56707 -2.33028 0
M  V30 8486 C 826.964 -3.77345 -2.04718 0
M  V30 8487 C 826.197 -4.21918 -3.26834 0
M  V30 8488 O 826.42 -3.66025 -4.37472 0
M  V30 8489 O 825.354 -5.14362 -3.12594 0
M  V30 8490 H 829.18 -2.97023 -0.633344 0
M  V30 8491 H 826.765 -1.47344 -0.246991 0
M  V30 8492 H 828.647 -2.87154 -3.08417 0
M  V30 8493 H 827.322 -1.72688 -2.73789 0
M  V30 8494 H 826.229 -3.51919 -1.26901 0
M  V30 8495 H 827.562 -4.62345 -1.68813 0
M  V30 8496 N 829.214 0.302327 -1.54673 0
M  V30 8497 C 830.439 1.06103 -1.78205 0
M  V30 8498 C 830.864 1.80204 -0.53926 0
M  V30 8499 O 830.222 1.73975 0.510142 0
M  V30 8500 C 830.27 2.01829 -2.98827 0
M  V30 8501 O 829.374 3.10108 -2.71858 0
M  V30 8502 H 828.715 0.30487 -0.589873 0
M  V30 8503 H 831.245 0.340153 -2.01753 0
M  V30 8504 H 831.255 2.44319 -3.2676 0
M  V30 8505 H 829.93 1.473 -3.88942 0
M  V30 8506 H 828.507 2.72142 -2.54937 0
M  V30 8507 N 830.692 1.47107 0.565454 0
M  V30 8508 C 831.64 1.59368 1.69424 0
M  V30 8509 C 832.634 0.461344 1.62997 0
M  V30 8510 O 833.84 0.638849 1.68282 0
M  V30 8511 H 830.215 0.501387 0.560459 0
M  V30 8512 H 832.186 2.54242 1.56217 0
M  V30 8513 C 830.935 1.61739 3.07792 0
M  V30 8514 H 830.258 2.48215 3.13416 0
M  V30 8515 H 831.698 1.7437 3.86486 0
M  V30 8516 C 830.157 0.349156 3.35086 0
M  V30 8517 O 830.687 -0.553287 3.97871 0
M  V30 8518 N 828.893 0.231723 2.89675 0
M  V30 8519 H 828.44 0.967021 2.3876 0
M  V30 8520 H 828.398 -0.615911 3.08308 0
M  V30 8521 N 832.17 -0.811516 1.35101 0
M  V30 8522 C 833.133 -1.90467 1.27495 0
M  V30 8523 C 834.133 -1.59703 0.187516 0
M  V30 8524 O 835.323 -1.68528 0.440896 0
M  V30 8525 C 832.455 -3.26774 0.971154 0
M  V30 8526 H 833.648 -1.98631 2.2469 0
M  V30 8527 H 831.201 -1.00681 1.19553 0
M  V30 8528 H 831.936 -3.243 0.0028557 0
M  V30 8529 H 831.721 -3.50488 1.75785 0
M  V30 8530 H 833.211 -4.06804 0.943414 0
M  V30 8531 N 833.648 -1.19017 -1.03309 0
M  V30 8532 C 834.578 -0.94772 -2.13402 0
M  V30 8533 C 835.559 0.117383 -1.69694 0
M  V30 8534 O 836.744 -0.0367733 -1.94165 0
M  V30 8535 C 833.874 -0.480977 -3.43953 0
M  V30 8536 C 832.828 -1.48743 -4.01322 0
M  V30 8537 C 832.154 -0.877924 -5.27443 0
M  V30 8538 C 833.454 -2.86642 -4.36616 0
M  V30 8539 H 835.148 -1.86846 -2.33942 0
M  V30 8540 H 832.694 -0.899781 -1.12427 0
M  V30 8541 H 834.647 -0.298677 -4.2034 0
M  V30 8542 H 833.371 0.475348 -3.23122 0
M  V30 8543 H 832.03 -1.65681 -3.27025 0
M  V30 8544 H 831.678 0.0858232 -5.02927 0
M  V30 8545 H 831.378 -1.54996 -5.66789 0
M  V30 8546 H 832.902 -0.706326 -6.06501 0
M  V30 8547 H 834.316 -2.73312 -5.03958 0
M  V30 8548 H 832.713 -3.50599 -4.87032 0
M  V30 8549 H 833.783 -3.39617 -3.46105 0
M  V30 8550 N 835.127 1.22348 -0.993418 0
M  V30 8551 C 836.057 2.26584 -0.564088 0
M  V30 8552 C 837.038 1.65102 0.409298 0
M  V30 8553 O 838.223 1.91872 0.299819 0
M  V30 8554 C 835.353 3.47087 0.121554 0
M  V30 8555 C 834.307 4.21009 -0.770429 0
M  V30 8556 C 833.633 5.34678 0.0481586 0
M  V30 8557 C 834.933 4.79636 -2.06752 0
M  V30 8558 H 836.627 2.62749 -1.43538 0
M  V30 8559 H 834.173 1.26303 -0.691628 0
M  V30 8560 H 836.126 4.19166 0.433303 0
M  V30 8561 H 834.85 3.1002 1.0274 0
M  V30 8562 H 833.509 3.50764 -1.06583 0
M  V30 8563 H 833.157 4.93852 0.954933 0
M  V30 8564 H 832.857 5.85061 -0.545641 0
M  V30 8565 H 834.381 6.09573 0.353991 0
M  V30 8566 H 835.795 5.43654 -1.81969 0
M  V30 8567 H 834.192 5.4036 -2.61019 0
M  V30 8568 H 835.262 3.99659 -2.74592 0
M  V30 8569 N 836.605 0.766683 1.37694 0
M  V30 8570 C 837.535 0.163432 2.32927 0
M  V30 8571 C 838.516 -0.688861 1.55527 0
M  V30 8572 O 839.701 -0.627363 1.83787 0
M  V30 8573 C 836.831 -0.720416 3.39746 0
M  V30 8574 C 835.785 0.0301718 4.27989 0
M  V30 8575 C 835.111 -0.972788 5.25776 0
M  V30 8576 C 836.411 1.20623 5.0818 0
M  V30 8577 H 838.105 0.958988 2.83626 0
M  V30 8578 H 835.651 0.462601 1.36367 0
M  V30 8579 H 837.604 -1.15221 4.05342 0
M  V30 8580 H 836.328 -1.54844 2.8756 0
M  V30 8581 H 834.987 0.442685 3.63917 0
M  V30 8582 H 834.635 -1.79522 4.69873 0
M  V30 8583 H 834.335 -0.475145 5.85676 0
M  V30 8584 H 835.859 -1.40362 5.94248 0
M  V30 8585 H 837.273 0.851341 5.66944 0
M  V30 8586 H 835.67 1.63561 5.7738 0
M  V30 8587 H 836.74 2.01281 4.41151 0
M  V30 8588 N 838.083 -1.48885 0.516809 0
M  V30 8589 C 839.499 -1.58651 0.173788 0
M  V30 8590 C 839.699 -1.52033 -1.32243 0
M  V30 8591 O 838.755 -1.40251 -2.09967 0
M  V30 8592 C 840.068 -2.90816 0.764628 0
M  V30 8593 C 841.616 -3.04316 0.732164 0
M  V30 8594 C 842.091 -4.39123 1.30135 0
M  V30 8595 N 843.582 -4.45656 1.26273 0
M  V30 8596 C 844.317 -5.48446 1.67317 0
M  V30 8597 N 843.813 -6.58258 2.16028 0
M  V30 8598 N 845.606 -5.39251 1.58635 0
M  V30 8599 H 837.757 -1.5143 1.48939 0
M  V30 8600 H 840.02 -0.718243 0.618733 0
M  V30 8601 H 839.726 -3.01275 1.81456 0
M  V30 8602 H 839.6 -3.76473 0.234113 0
M  V30 8603 H 841.987 -2.93478 -0.308975 0
M  V30 8604 H 842.068 -2.20303 1.3 0
M  V30 8605 H 841.712 -4.50714 2.34135 0
M  V30 8606 H 841.642 -5.21801 0.709305 0
M  V30 8607 H 844.133 -3.66879 0.906006 0
M  V30 8608 H 844.446 -7.32811 2.45374 0
M  V30 8609 H 842.791 -6.59257 2.20013 0
M  V30 8610 H 845.982 -4.52354 1.20387 0
M  V30 8611 H 846.155 -6.19229 1.90944 0
M  V30 8612 N 839.561 -0.251338 -1.55583 0
M  V30 8613 C 840.786 0.379136 -2.03905 0
M  V30 8614 C 841.211 1.50428 -1.12929 0
M  V30 8615 O 840.569 1.80882 -0.123114 0
M  V30 8616 C 840.617 0.86009 -3.50193 0
M  V30 8617 O 839.721 1.96932 -3.62342 0
M  V30 8618 H 839.062 0.0820183 -0.658915 0
M  V30 8619 H 841.592 -0.378692 -2.01065 0
M  V30 8620 H 841.602 1.16214 -3.91099 0
M  V30 8621 H 840.277 0.0367559 -4.15884 0
M  V30 8622 H 838.854 1.67163 -3.33333 0
M  V30 8623 N 841.039 1.57585 0.0217189 0
M  V30 8624 C 842.45 1.7787 0.567377 0
M  V30 8625 C 842.801 0.883337 1.7519 0
M  V30 8626 O 841.926 0.0800819 2.16252 0
M  V30 8627 C 842.521 3.2257 1.03606 0
M  V30 8628 C 841.08 3.44026 1.52718 0
M  V30 8629 C 840.227 2.73313 0.468545 0
M  V30 8630 H 843.178 1.57377 -0.2045 0
M  V30 8631 H 843.199 3.29488 1.9031 0
M  V30 8632 H 842.711 3.87711 0.173739 0
M  V30 8633 H 840.812 2.8407 2.41111 0
M  V30 8634 H 840.925 4.52659 1.56962 0
M  V30 8635 H 839.289 2.37299 0.925263 0
M  V30 8636 H 840.072 3.41141 -0.384438 0
M  V30 8637 N 842.517 -0.29412 1.54831 0
M  V30 8638 C 843.465 -1.38296 1.87021 0
M  V30 8639 C 844.459 -1.5216 0.744557 0
M  V30 8640 O 845.665 -1.54196 0.92864 0
M  V30 8641 H 842.04 -0.462088 0.593278 0
M  V30 8642 H 844.011 -1.08386 2.7802 0
M  V30 8643 C 842.76 -2.74024 2.14023 0
M  V30 8644 H 842.083 -2.6414 3.00117 0
M  V30 8645 H 843.523 -3.49205 2.40482 0
M  V30 8646 C 841.982 -3.23492 0.940982 0
M  V30 8647 O 842.512 -4.01361 0.164937 0
M  V30 8648 N 840.718 -2.80902 0.744467 0
M  V30 8649 H 840.265 -2.17694 1.37721 0
M  V30 8650 H 840.223 -3.14349 -0.0563652 0
M  V30 8651 N 843.995 -1.47404 -0.557645 0
M  V30 8652 C 845.411 -1.32913 -0.88353 0
M  V30 8653 C 845.611 -0.31929 -1.98954 0
M  V30 8654 O 844.667 0.26934 -2.51059 0
M  V30 8655 C 845.98 -2.72229 -1.27718 0
M  V30 8656 C 847.528 -2.8051 -1.38863 0
M  V30 8657 C 848.003 -4.20466 -1.81583 0
M  V30 8658 N 849.494 -4.23005 -1.88735 0
M  V30 8659 C 850.229 -5.2821 -2.23118 0
M  V30 8660 N 849.725 -6.4372 -2.56117 0
M  V30 8661 N 851.518 -5.15588 -2.23888 0
M  V30 8662 H 843.669 -2.11698 0.172557 0
M  V30 8663 H 845.932 -0.947889 0.0145334 0
M  V30 8664 H 845.638 -3.47556 -0.538329 0
M  V30 8665 H 845.512 -3.03971 -2.23342 0
M  V30 8666 H 847.899 -2.05457 -2.11829 0
M  V30 8667 H 847.98 -2.52423 -0.414274 0
M  V30 8668 H 847.624 -4.96025 -1.09187 0
M  V30 8669 H 847.554 -4.45977 -2.80021 0
M  V30 8670 H 850.045 -3.39674 -1.65621 0
M  V30 8671 H 850.358 -7.19754 -2.81378 0
M  V30 8672 H 848.703 -6.47041 -2.53698 0
M  V30 8673 H 851.894 -4.24374 -1.97546 0
M  V30 8674 H 852.067 -5.97685 -2.50353 0
M  V30 8675 N 845.473 0.80434 -1.35529 0
M  V30 8676 C 846.75 1.5486 -1.1949 0
M  V30 8677 C 847.13 2.09897 0.22506 0
M  V30 8678 O 846.478 1.92643 1.22886 0
M  V30 8679 C 846.688 2.65535 -2.26478 0
M  V30 8680 C 848.036 3.33814 -2.62399 0
M  V30 8681 O 849.06 2.75807 -2.25409 0
M  V30 8682 O 847.919 4.38612 -3.26009 0
M  V30 8683 H 845.013 0.68433 -0.464351 0
M  V30 8684 H 847.559 0.844107 -1.47217 0
M  V30 8685 H 846.331 2.22754 -3.21709 0
M  V30 8686 H 845.954 3.43617 -2.00033 0
M  V30 8687 N 846.951 1.19563 1.02676 0
M  V30 8688 C 848.198 0.999568 1.7611 0
M  V30 8689 C 848.526 -0.469432 1.8875 0
M  V30 8690 O 847.781 -1.36481 1.40255 0
M  V30 8691 C 848.08 1.61619 3.18769 0
M  V30 8692 C 847.746 3.11366 3.26132 0
M  V30 8693 C 846.408 3.52234 3.27848 0
M  V30 8694 C 848.76 4.07374 3.25109 0
M  V30 8695 C 846.088 4.87658 3.26201 0
M  V30 8696 C 848.44 5.42731 3.25002 0
M  V30 8697 C 847.104 5.83027 3.25017 0
M  V30 8698 H 846.374 0.365768 0.644434 0
M  V30 8699 H 849.021 1.48838 1.20497 0
M  V30 8700 H 847.326 1.04974 3.77476 0
M  V30 8701 H 849.023 1.43975 3.74262 0
M  V30 8702 H 845.613 2.78804 3.25525 0
M  V30 8703 H 849.797 3.76842 3.22961 0
M  V30 8704 H 845.053 5.18156 3.24537 0
M  V30 8705 H 849.227 6.16879 3.23161 0
M  V30 8706 H 846.854 6.87936 3.23494 0
M  V30 8707 N 848.429 -1.21819 0.999893 0
M  V30 8708 C 849.359 -2.26282 0.576096 0
M  V30 8709 C 850.34 -1.65317 -0.400537 0
M  V30 8710 O 851.525 -1.92028 -0.28964 0
M  V30 8711 C 848.655 -3.47147 -0.103145 0
M  V30 8712 C 847.609 -4.20594 0.792745 0
M  V30 8713 C 846.935 -5.34696 -0.0198026 0
M  V30 8714 C 848.235 -4.78533 2.09293 0
M  V30 8715 H 849.929 -2.61984 1.4493 0
M  V30 8716 H 847.475 -1.25935 0.698316 0
M  V30 8717 H 849.428 -4.1939 -0.411068 0
M  V30 8718 H 848.152 -3.1056 -1.01094 0
M  V30 8719 H 846.811 -3.50194 1.08442 0
M  V30 8720 H 846.459 -4.94352 -0.928729 0
M  V30 8721 H 846.159 -5.84764 0.576661 0
M  V30 8722 H 847.683 -6.09752 -0.321659 0
M  V30 8723 H 849.097 -5.42682 1.8485 0
M  V30 8724 H 847.494 -5.38968 2.63881 0
M  V30 8725 H 848.564 -3.98197 2.76708 0
M  V30 8726 N 849.908 -0.773975 -1.37286 0
M  V30 8727 C 851.136 -0.350758 -2.03905 0
M  V30 8728 C 851.551 1.02779 -1.58373 0
M  V30 8729 O 850.908 1.65646 -0.766009 0
M  V30 8730 C 850.959 -0.387335 -3.59419 0
M  V30 8731 O 850.68 -1.7115 -4.03286 0
M  V30 8732 C 852.181 0.047198 -4.43275 0
M  V30 8733 H 849.401 -0.146663 -0.654775 0
M  V30 8734 H 851.945 -1.04852 -1.75574 0
M  V30 8735 H 850.1 0.261865 -3.86514 0
M  V30 8736 H 850.514 -1.65166 -4.97816 0
M  V30 8737 H 851.988 -0.0295474 -5.51992 0
M  V30 8738 H 852.465 1.09786 -4.25257 0
M  V30 8739 H 853.071 -0.573899 -4.2141 0
M  V30 8740 N 851.386 1.48609 -0.524698 0
M  V30 8741 C 852.336 2.26505 0.260696 0
M  V30 8742 C 853.32 1.32378 0.914597 0
M  V30 8743 O 854.512 1.5695 0.818277 0
M  V30 8744 C 851.641 3.17313 1.31024 0
M  V30 8745 C 850.727 4.18911 0.661391 0
M  V30 8746 N 851.118 5.05183 -0.24981 0
M  V30 8747 C 849.416 4.36425 0.91922 0
M  V30 8748 C 850.117 5.78348 -0.623598 0
M  V30 8749 N 849.093 5.43598 0.0140839 0
M  V30 8750 H 852.895 2.90582 -0.440388 0
M  V30 8751 H 850.409 1.5875 -0.342364 0
M  V30 8752 H 852.406 3.71772 1.88656 0
M  V30 8753 H 851.066 2.54791 2.01275 0
M  V30 8754 H 852.077 5.1415 -0.622093 0
M  V30 8755 H 848.754 3.85095 1.6127 0
M  V30 8756 H 850.144 6.57775 -1.37046 0
M  V30 8757 N 852.864 0.259585 1.55447 0
M  V30 8758 C 854.11 -0.362143 1.9954 0
M  V30 8759 C 854.443 -1.5666 1.14767 0
M  V30 8760 O 853.718 -1.93319 0.214025 0
M  V30 8761 C 854.001 -0.759588 3.51998 0
M  V30 8762 C 853.854 0.451134 4.47532 0
M  V30 8763 C 855.173 -1.60186 4.09913 0
M  V30 8764 H 852.292 -0.130157 0.725416 0
M  V30 8765 H 854.934 0.363431 1.86492 0
M  V30 8766 H 853.084 -1.3778 3.63248 0
M  V30 8767 H 854.756 1.08965 4.48246 0
M  V30 8768 H 852.999 1.092 4.19831 0
M  V30 8769 H 853.67 0.129518 5.51848 0
M  V30 8770 H 856.146 -1.0799 4.01842 0
M  V30 8771 H 855.022 -1.84879 5.16828 0
M  V30 8772 H 855.283 -2.57787 3.59163 0
M  V30 8773 N 854.342 -1.57594 -0.0133615 0
M  V30 8774 C 855.567 -1.94649 -0.715996 0
M  V30 8775 C 855.992 -0.860786 -1.67249 0
M  V30 8776 O 855.35 0.182228 -1.80382 0
M  V30 8777 C 855.398 -3.30789 -1.43566 0
M  V30 8778 O 854.502 -3.24148 -2.54955 0
M  V30 8779 H 853.843 -0.635801 -0.191449 0
M  V30 8780 H 856.373 -2.04569 0.0358478 0
M  V30 8781 H 856.383 -3.66045 -1.80208 0
M  V30 8782 H 855.058 -4.09367 -0.734263 0
M  V30 8783 H 853.635 -3.00548 -2.20739 0
M  V30 8784 N 855.82 0.285905 -1.54985 0
M  V30 8785 C 856.783 1.33625 -1.86218 0
M  V30 8786 C 857.783 1.42971 -0.735936 0
M  V30 8787 O 858.973 1.42345 -1.00417 0
M  V30 8788 C 856.105 2.71926 -2.05595 0
M  V30 8789 H 857.298 1.07167 -2.80099 0
M  V30 8790 H 854.851 0.523335 -1.47278 0
M  V30 8791 H 855.586 3.03583 -1.14053 0
M  V30 8792 H 855.371 2.6653 -2.87583 0
M  V30 8793 H 856.861 3.47841 -2.31077 0
M  V30 8794 N 857.298 1.47698 0.54982 0
M  V30 8795 C 858.714 1.3338 0.876468 0
M  V30 8796 C 858.914 0.329837 1.98782 0
M  V30 8797 O 857.97 -0.256022 2.51199 0
M  V30 8798 C 859.283 2.72903 1.26272 0
M  V30 8799 C 860.831 2.81243 1.37373 0
M  V30 8800 C 861.306 4.21423 1.79351 0
M  V30 8801 N 862.797 4.24 1.86489 0
M  V30 8802 C 863.532 5.29386 2.20313 0
M  V30 8803 N 863.028 6.4507 2.527 0
M  V30 8804 N 864.821 5.16768 2.2115 0
M  V30 8805 H 856.972 2.11603 -0.183781 0
M  V30 8806 H 859.235 0.947798 -0.0195601 0
M  V30 8807 H 858.941 3.47836 0.519889 0
M  V30 8808 H 858.815 3.05151 2.21727 0
M  V30 8809 H 861.202 2.06577 2.10737 0
M  V30 8810 H 861.283 2.52639 0.400882 0
M  V30 8811 H 860.927 4.96597 1.06555 0
M  V30 8812 H 860.857 4.47456 2.77652 0
M  V30 8813 H 863.348 3.40547 1.63817 0
M  V30 8814 H 863.661 7.21236 2.77557 0
M  V30 8815 H 862.006 6.48377 2.50263 0
M  V30 8816 H 865.197 4.25416 1.95293 0
M  V30 8817 H 865.37 5.99004 2.4718 0
M  V30 8818 N 858.776 -0.797141 1.35954 0
M  V30 8819 C 859.686 -1.94088 1.31784 0
M  V30 8820 C 860.702 -1.72588 0.221227 0
M  V30 8821 O 861.878 -1.96256 0.452255 0
M  V30 8822 C 858.943 -3.28828 1.09878 0
M  V30 8823 C 858.004 -3.63158 2.28942 0
M  V30 8824 C 857.237 -4.91469 2.08072 0
M  V30 8825 O 857.46 -5.60616 1.05196 0
M  V30 8826 O 856.394 -5.24277 2.95664 0
M  V30 8827 H 860.22 -2.00554 2.28061 0
M  V30 8828 H 857.805 -0.936288 1.16422 0
M  V30 8829 H 859.687 -4.09473 0.995485 0
M  V30 8830 H 858.362 -3.23271 0.16659 0
M  V30 8831 H 857.269 -2.82851 2.44839 0
M  V30 8832 H 858.602 -3.7343 3.20641 0
M  V30 8833 N 860.254 -1.20106 -1.0204 0
M  V30 8834 C 861.67 -0.955099 -1.27867 0
M  V30 8835 C 861.87 0.367595 -1.98119 0
M  V30 8836 O 860.926 1.09705 -2.27423 0
M  V30 8837 C 862.239 -2.13507 -2.11744 0
M  V30 8838 C 863.787 -2.17563 -2.25023 0
M  V30 8839 C 864.262 -3.35035 -3.12275 0
M  V30 8840 N 865.753 -3.35024 -3.19864 0
M  V30 8841 C 866.488 -4.22566 -3.8759 0
M  V30 8842 N 865.984 -5.20278 -4.57474 0
M  V30 8843 N 867.777 -4.10418 -3.84075 0
M  V30 8844 H 859.928 -2.05193 -0.54861 0
M  V30 8845 H 862.191 -0.897689 -0.304728 0
M  V30 8846 H 861.897 -3.09275 -1.67456 0
M  V30 8847 H 861.771 -2.11281 -3.12474 0
M  V30 8848 H 864.158 -1.22359 -2.68537 0
M  V30 8849 H 864.239 -2.23838 -1.23815 0
M  V30 8850 H 863.883 -4.30522 -2.69468 0
M  V30 8851 H 863.813 -3.25996 -4.13563 0
M  V30 8852 H 866.304 -2.64299 -2.701 0
M  V30 8853 H 866.617 -5.83408 -5.06809 0
M  V30 8854 H 864.962 -5.24219 -4.56311 0
M  V30 8855 H 868.153 -3.33353 -3.28623 0
M  V30 8856 H 868.326 -4.78854 -4.36581 0
M  V30 8857 N 861.732 1.21287 -1.00634 0
M  V30 8858 C 862.972 1.92106 -0.698194 0
M  V30 8859 C 863.336 1.76437 0.757222 0
M  V30 8860 O 864.537 2.41641 1.17741 0
M  V30 8861 C 862.808 3.39748 -1.10932 0
M  V30 8862 S 864.367 4.29013 -0.921586 0
M  V30 8863 H 861.185 0.663755 -0.254853 0
M  V30 8864 H 863.787 1.46772 -1.29145 0
M  V30 8865 H 862.491 3.48669 -2.16467 0
M  V30 8866 H 862.022 3.90101 -0.508419 0
M  V30 8867 H 864.037 4.95871 0.180578 0
M  V30 8868 N 863.21 0.781244 1.36873 0
M  V30 8869 C 864.621 0.414093 1.8205 0
M  V30 8870 C 864.972 -1.06098 1.65039 0
M  V30 8871 O 864.097 -1.82251 1.16677 0
M  V30 8872 C 864.692 0.744837 3.30511 0
M  V30 8873 C 863.251 0.430621 3.73929 0
M  V30 8874 C 862.398 0.983746 2.59264 0
M  V30 8875 H 865.349 0.975091 1.2521 0
M  V30 8876 H 865.37 0.032936 3.80486 0
M  V30 8877 H 864.882 1.81847 3.42861 0
M  V30 8878 H 862.983 -0.635308 3.67144 0
M  V30 8879 H 863.096 0.945514 4.69677 0
M  V30 8880 H 861.46 0.407433 2.5142 0
M  V30 8881 H 862.243 2.06297 2.74402 0
M  V30 8882 N 864.689 -1.48329 0.532571 0
M  V30 8883 C 865.652 -2.2816 -0.218069 0
M  V30 8884 C 866.652 -1.35526 -0.865409 0
M  V30 8885 O 867.842 -1.58394 -0.725061 0
M  V30 8886 C 864.974 -3.1448 -1.31586 0
M  V30 8887 H 866.167 -2.95987 0.482865 0
M  V30 8888 H 863.72 -1.53612 0.288603 0
M  V30 8889 H 864.455 -2.5129 -2.04997 0
M  V30 8890 H 864.24 -3.82625 -0.856779 0
M  V30 8891 H 865.73 -3.74693 -1.84377 0
M  V30 8892 N 866.167 -0.267825 -1.55308 0
M  V30 8893 C 867.407 0.352316 -2.01341 0
M  V30 8894 C 867.771 1.53593 -1.1521 0
M  V30 8895 O 868.972 2.22521 -1.50791 0
M  V30 8896 C 867.243 0.731857 -3.49827 0
M  V30 8897 S 868.802 1.33956 -4.17853 0
M  V30 8898 H 865.62 0.109927 -0.702451 0
M  V30 8899 H 868.222 -0.387955 -1.91612 0
M  V30 8900 H 866.926 -0.138561 -4.10166 0
M  V30 8901 H 866.457 1.50378 -3.63525 0
M  V30 8902 H 868.472 2.62831 -4.20874 0
M  V30 8903 N 867.645 1.57599 0.00500368 0
M  V30 8904 C 868.892 1.90349 0.690895 0
M  V30 8905 C 869.22 0.868045 1.74055 0
M  V30 8906 O 868.475 -0.127855 1.95282 0
M  V30 8907 C 868.774 3.29855 1.37588 0
M  V30 8908 C 868.44 4.48548 0.459906 0
M  V30 8909 C 867.102 4.80752 0.207693 0
M  V30 8910 C 869.454 5.20919 -0.171054 0
M  V30 8911 C 866.782 5.82701 -0.683855 0
M  V30 8912 C 869.134 6.23818 -1.05045 0
M  V30 8913 C 867.798 6.54481 -1.31189 0
M  V30 8914 H 867.068 0.696538 0.252816 0
M  V30 8915 H 869.715 1.91436 -0.0494495 0
M  V30 8916 H 868.02 3.24869 2.19015 0
M  V30 8917 H 869.717 3.52452 1.91255 0
M  V30 8918 H 866.307 4.23384 0.666648 0
M  V30 8919 H 870.491 4.96299 0.0107942 0
M  V30 8920 H 865.747 6.04822 -0.894467 0
M  V30 8921 H 869.921 6.79029 -1.54574 0
M  V30 8922 H 867.548 7.33299 -2.00442 0
M  V30 8923 N 869.123 -0.277682 1.55134 0
M  V30 8924 C 870.369 -1.0114 1.7578 0
M  V30 8925 C 870.702 -1.86109 0.554719 0
M  V30 8926 O 869.977 -1.89275 -0.447813 0
M  V30 8927 C 870.26 -1.89789 3.06027 0
M  V30 8928 C 870.113 -1.07844 4.3668 0
M  V30 8929 C 871.432 -2.88577 3.32282 0
M  V30 8930 H 868.551 -0.366277 0.639539 0
M  V30 8931 H 871.193 -0.284155 1.87863 0
M  V30 8932 H 869.343 -2.51796 2.95856 0
M  V30 8933 H 871.015 -0.479432 4.58802 0
M  V30 8934 H 869.258 -0.381764 4.32117 0
M  V30 8935 H 869.929 -1.73179 5.24131 0
M  V30 8936 H 872.405 -2.36702 3.42215 0
M  V30 8937 H 871.281 -3.47749 4.2469 0
M  V30 8938 H 871.542 -3.63458 2.51696 0
M  V30 8939 N 870.601 -1.47988 -0.541979 0
M  V30 8940 C 871.849 -1.55086 -1.29587 0
M  V30 8941 C 872.17 -0.221304 -1.9374 0
M  V30 8942 O 871.44 0.756128 -1.80719 0
M  V30 8943 H 870.02 -0.571307 -0.481266 0
M  V30 8944 H 872.682 -1.8438 -0.631675 0
M  V30 8945 H 871.778 -2.32556 -2.08144 0
M  V30 8946 N 872.079 0.78992 -1.36375 0
M  V30 8947 C 873.307 1.57873 -1.3373 0
M  V30 8948 C 873.722 1.88624 0.0815544 0
M  V30 8949 O 873.079 1.50085 1.03831 0
M  V30 8950 C 873.13 2.90003 -2.15825 0
M  V30 8951 O 872.851 2.60578 -3.5218 0
M  V30 8952 C 874.352 3.84309 -2.20955 0
M  V30 8953 H 871.572 0.489685 -0.458748 0
M  V30 8954 H 874.116 0.980436 -1.79465 0
M  V30 8955 H 872.271 3.46303 -1.73646 0
M  V30 8956 H 872.685 3.4506 -3.95011 0
M  V30 8957 H 874.159 4.74081 -2.82756 0
M  V30 8958 H 874.636 4.22121 -1.21287 0
M  V30 8959 H 875.242 3.33942 -2.63368 0
M  V30 8960 N 873.557 1.20646 1.01402 0
M  V30 8961 C 874.806 1.01242 1.7445 0
M  V30 8962 C 875.119 -0.455732 1.90217 0
M  V30 8963 O 876.325 -0.768951 2.60383 0
M  V30 8964 C 874.781 1.76275 3.13776 0
M  V30 8965 C 874.389 3.27201 3.06013 0
M  V30 8966 C 876.133 1.65248 3.91016 0
M  V30 8967 C 874.04 3.9476 4.40362 0
M  V30 8968 H 872.97 0.375202 0.654018 0
M  V30 8969 H 875.621 1.44292 1.13367 0
M  V30 8970 H 874.003 1.26013 3.75415 0
M  V30 8971 H 875.177 3.84695 2.53665 0
M  V30 8972 H 873.492 3.38669 2.42265 0
M  V30 8973 H 876.089 2.13061 4.90417 0
M  V30 8974 H 876.432 0.609128 4.1182 0
M  V30 8975 H 876.965 2.12937 3.3601 0
M  V30 8976 H 873.704 4.99258 4.24761 0
M  V30 8977 H 873.224 3.42054 4.92706 0
M  V30 8978 H 874.903 3.99159 5.09196 0
M  V30 8979 N 875.035 -1.20752 1.01276 0
M  V30 8980 C 876.263 -1.94006 0.718976 0
M  V30 8981 C 876.678 -1.74544 -0.719711 0
M  V30 8982 O 876.035 -1.05697 -1.48776 0
M  V30 8983 C 876.086 -3.46208 1.04031 0
M  V30 8984 O 875.807 -3.65031 2.42248 0
M  V30 8985 C 877.308 -4.36614 0.767032 0
M  V30 8986 H 874.528 -0.616743 0.264327 0
M  V30 8987 H 877.072 -1.53352 1.3529 0
M  V30 8988 H 875.227 -3.84756 0.451852 0
M  V30 8989 H 875.641 -4.59054 2.53712 0
M  V30 8990 H 877.115 -5.42076 1.04198 0
M  V30 8991 H 877.592 -4.38182 -0.298851 0
M  V30 8992 H 878.198 -4.03723 1.33746 0
M  V30 8993 N 876.513 -0.788492 -1.36457 0
M  V30 8994 C 877.761 -0.359749 -1.98872 0
M  V30 8995 C 878.082 1.07197 -1.62892 0
M  V30 8996 O 877.352 1.73875 -0.902463 0
M  V30 8997 H 875.932 -0.130029 -0.735596 0
M  V30 8998 H 878.594 -1.01033 -1.66668 0
M  V30 8999 H 877.69 -0.450835 -3.08827 0
M  V30 9000 N 877.991 1.48044 -0.54043 0
M  V30 9001 C 879.268 1.95523 0.0547302 0
M  V30 9002 C 879.648 1.48284 1.5025 0
M  V30 9003 O 878.996 0.714037 2.17057 0
M  V30 9004 C 879.206 3.48923 -0.0733393 0
M  V30 9005 C 880.554 4.24523 0.0806026 0
M  V30 9006 O 881.578 3.562 -5.58687e-05 0
M  V30 9007 O 880.437 5.45922 0.251216 0
M  V30 9008 H 877.531 0.823728 0.073493 0
M  V30 9009 H 880.077 1.5852 -0.605768 0
M  V30 9010 H 878.849 3.76059 -1.08144 0
M  V30 9011 H 878.472 3.92648 0.625536 0
M  V30 9012 N 879.47 0.276058 1.55163 0
M  V30 9013 C 880.886 -0.0780579 1.59409 0
M  V30 9014 C 881.086 -1.54521 1.29327 0
M  V30 9015 O 880.142 -2.29422 1.05459 0
M  V30 9016 C 881.455 0.297422 2.99225 0
M  V30 9017 C 883.003 0.244117 3.12047 0
M  V30 9018 C 883.478 0.594051 4.54131 0
M  V30 9019 N 884.969 0.54564 4.59975 0
M  V30 9020 C 885.704 0.789192 5.67943 0
M  V30 9021 N 885.2 1.09741 6.84053 0
M  V30 9022 N 886.993 0.717926 5.57496 0
M  V30 9023 H 879.144 1.23251 1.72982 0
M  V30 9024 H 881.407 0.497988 0.806667 0
M  V30 9025 H 881.113 1.31782 3.26077 0
M  V30 9026 H 880.987 -0.361286 3.75466 0
M  V30 9027 H 883.374 -0.766992 2.84958 0
M  V30 9028 H 883.455 0.937097 2.38017 0
M  V30 9029 H 883.099 1.60285 4.81945 0
M  V30 9030 H 883.029 -0.120728 5.26462 0
M  V30 9031 H 885.52 0.317334 3.76565 0
M  V30 9032 H 885.833 1.26989 7.62295 0
M  V30 9033 H 884.178 1.13519 6.85666 0
M  V30 9034 H 887.369 0.47697 4.65664 0
M  V30 9035 H 887.542 0.911118 6.41563 0
M  V30 9036 N 880.948 -1.576 0.00335426 0
M  V30 9037 C 882.364 -1.55653 -0.352766 0
M  V30 9038 C 882.564 -1.00632 -1.74572 0
M  V30 9039 O 881.62 -0.641621 -2.44212 0
M  V30 9040 C 882.933 -2.99858 -0.224929 0
M  V30 9041 C 884.481 -3.11563 -0.299619 0
M  V30 9042 C 884.956 -4.57559 -0.200868 0
M  V30 9043 N 886.447 -4.62477 -0.258663 0
M  V30 9044 C 887.182 -5.73031 -0.205644 0
M  V30 9045 N 886.678 -6.92723 -0.103027 0
M  V30 9046 N 888.471 -5.61509 -0.257754 0
M  V30 9047 H 880.622 -1.91703 0.914539 0
M  V30 9048 H 882.885 -0.88068 0.350865 0
M  V30 9049 H 882.591 -3.43964 0.733595 0
M  V30 9050 H 882.465 -3.63547 -1.00564 0
M  V30 9051 H 884.852 -2.67384 -1.24859 0
M  V30 9052 H 884.933 -2.50644 0.511025 0
M  V30 9053 H 884.577 -5.02413 0.744572 0
M  V30 9054 H 884.507 -5.16428 -1.03004 0
M  V30 9055 H 886.998 -3.76375 -0.339168 0
M  V30 9056 H 887.311 -7.7277 -0.0685593 0
M  V30 9057 H 885.656 -6.94966 -0.0686069 0
M  V30 9058 H 888.847 -4.66892 -0.336142 0
M  V30 9059 H 889.02 -6.4765 -0.21297 0
M  V30 9060 N 882.426 0.269451 -1.5528 0
M  V30 9061 C 883.675 0.998381 -1.75258 0
M  V30 9062 C 883.988 1.87321 -0.563034 0
M  V30 9063 O 885.194 2.63719 -0.645313 0
M  V30 9064 C 883.65 1.82505 -3.10193 0
M  V30 9065 C 883.258 0.99871 -4.36726 0
M  V30 9066 C 885.002 2.54807 -3.3952 0
M  V30 9067 C 882.909 1.81997 -5.627 0
M  V30 9068 H 881.839 0.376488 -0.653278 0
M  V30 9069 H 884.49 0.253909 -1.81735 0
M  V30 9070 H 882.872 2.61061 -2.97763 0
M  V30 9071 H 884.046 0.257064 -4.60082 0
M  V30 9072 H 882.361 0.390074 -4.14569 0
M  V30 9073 H 884.958 3.16662 -4.30847 0
M  V30 9074 H 885.301 3.25273 -2.59813 0
M  V30 9075 H 885.834 1.83278 -3.53064 0
M  V30 9076 H 882.573 1.15945 -6.45164 0
M  V30 9077 H 882.093 2.53749 -5.43481 0
M  V30 9078 H 883.772 2.39274 -6.0113 0
M  V30 9079 N 883.904 1.48273 0.534124 0
M  V30 9080 C 885.15 1.56311 1.29208 0
M  V30 9081 C 885.483 0.234481 1.92779 0
M  V30 9082 O 884.758 -0.759143 1.79073 0
M  V30 9083 C 885.041 2.69831 2.3846 0
M  V30 9084 C 884.894 4.12385 1.79608 0
M  V30 9085 C 886.213 2.79133 3.40254 0
M  V30 9086 H 883.332 0.56899 0.468422 0
M  V30 9087 H 885.974 1.80429 0.595438 0
M  V30 9088 H 884.124 2.49397 2.97881 0
M  V30 9089 H 885.796 4.44246 1.24269 0
M  V30 9090 H 884.039 4.19579 1.10162 0
M  V30 9091 H 884.71 4.87629 2.58693 0
M  V30 9092 H 887.186 2.97632 2.90783 0
M  V30 9093 H 886.062 3.60298 4.14097 0
M  V30 9094 H 886.323 1.87122 4.00547 0
M  V30 9095 N 885.382 -0.782676 1.36792 0
M  V30 9096 C 886.312 -1.90973 1.34356 0
M  V30 9097 C 887.293 -1.6875 0.213917 0
M  V30 9098 O 888.478 -1.89766 0.412601 0
M  V30 9099 C 885.608 -3.28097 1.13884 0
M  V30 9100 C 884.562 -3.6486 2.23744 0
M  V30 9101 C 883.888 -5.00406 1.88408 0
M  V30 9102 C 885.188 -3.72742 3.6587 0
M  V30 9103 H 886.882 -1.93268 2.28665 0
M  V30 9104 H 884.428 -0.928447 1.10072 0
M  V30 9105 H 886.381 -4.06569 1.10813 0
M  V30 9106 H 885.105 -3.26206 0.160275 0
M  V30 9107 H 883.764 -2.88689 2.25952 0
M  V30 9108 H 883.412 -4.95044 0.891083 0
M  V30 9109 H 883.112 -5.25973 2.61966 0
M  V30 9110 H 884.636 -5.81291 1.86905 0
M  V30 9111 H 886.05 -4.4139 3.65852 0
M  V30 9112 H 884.447 -4.09798 4.38389 0
M  V30 9113 H 885.517 -2.73676 4.00287 0
M  V30 9114 N 886.86 -1.21182 -1.00761 0
M  V30 9115 C 888.106 -1.02898 -1.74756 0
M  V30 9116 C 888.439 0.436774 -1.89225 0
M  V30 9117 O 887.714 1.32415 -1.42466 0
M  V30 9118 C 887.997 -1.72372 -3.16164 0
M  V30 9119 C 887.85 -3.2645 -3.09435 0
M  V30 9120 C 889.169 -1.46415 -4.15031 0
M  V30 9121 H 886.288 -0.375214 -0.634337 0
M  V30 9122 H 888.93 -1.49321 -1.17487 0
M  V30 9123 H 887.08 -1.32906 -3.65059 0
M  V30 9124 H 888.752 -3.75269 -2.68274 0
M  V30 9125 H 886.995 -3.56889 -2.46603 0
M  V30 9126 H 887.666 -3.70226 -4.09435 0
M  V30 9127 H 890.142 -1.80671 -3.7483 0
M  V30 9128 H 889.018 -1.97544 -5.12121 0
M  V30 9129 H 889.279 -0.39361 -4.40344 0
M  V30 9130 N 888.338 1.20213 -1.01915 0
M  V30 9131 C 889.615 1.85348 -0.62495 0
M  V30 9132 C 889.995 1.91101 0.896854 0
M  V30 9133 O 889.343 1.42075 1.78961 0
M  V30 9134 C 889.553 3.24849 -1.27571 0
M  V30 9135 C 890.901 4.01107 -1.39277 0
M  V30 9136 O 891.925 3.34211 -1.23212 0
M  V30 9137 O 890.784 5.20914 -1.6526 0
M  V30 9138 H 887.878 0.798303 -0.215965 0
M  V30 9139 H 890.424 1.27782 -1.11669 0
M  V30 9140 H 889.196 3.1544 -2.31545 0
M  V30 9141 H 888.819 3.90049 -0.77122 0
M  V30 9142 N 889.816 0.795718 1.36037 0
M  V30 9143 C 891.093 0.294743 1.93367 0
M  V30 9144 C 891.473 -1.21406 1.72696 0
M  V30 9145 O 890.821 -2.00849 1.08959 0
M  V30 9146 C 891.031 0.694254 3.42025 0
M  V30 9147 C 892.379 0.677566 4.19159 0
M  V30 9148 O 893.403 0.635119 3.50492 0
M  V30 9149 O 892.262 0.726127 5.41655 0
M  V30 9150 H 889.356 0.0745459 0.823633 0
M  V30 9151 H 891.902 0.878685 1.4518 0
M  V30 9152 H 890.674 1.73458 3.50753 0
M  V30 9153 H 890.297 0.0845338 3.9751 0
M  V30 9154 N 891.294 -1.47756 0.548274 0
M  V30 9155 C 892.71 -1.58247 0.207401 0
M  V30 9156 C 892.91 -1.54804 -1.28988 0
M  V30 9157 O 891.966 -1.44673 -2.06944 0
M  V30 9158 C 893.279 -2.89129 0.826142 0
M  V30 9159 C 894.827 -3.02695 0.79655 0
M  V30 9160 C 895.302 -4.36264 1.3942 0
M  V30 9161 N 896.793 -4.42877 1.35698 0
M  V30 9162 C 897.528 -5.44773 1.78913 0
M  V30 9163 N 897.024 -6.53528 2.29942 0
M  V30 9164 N 898.817 -5.35765 1.70038 0
M  V30 9165 H 890.968 -1.48236 1.52117 0
M  V30 9166 H 893.231 -0.704957 0.633829 0
M  V30 9167 H 892.937 -2.97358 1.87806 0
M  V30 9168 H 892.811 -3.75891 0.313916 0
M  V30 9169 H 895.198 -2.94067 -0.246655 0
M  V30 9170 H 895.279 -2.17496 1.34644 0
M  V30 9171 H 894.923 -4.45646 2.43642 0
M  V30 9172 H 894.853 -5.20179 0.819827 0
M  V30 9173 H 897.344 -3.64874 0.983623 0
M  V30 9174 H 897.657 -7.27441 2.60863 0
M  V30 9175 H 896.002 -6.54442 2.33947 0
M  V30 9176 H 899.193 -4.49699 1.29955 0
M  V30 9177 H 899.366 -6.1504 2.04035 0
M  V30 9178 N 892.772 -0.284283 -1.55015 0
M  V30 9179 C 893.682 0.60906 -2.26556 0
M  V30 9180 C 894.698 1.16246 -1.29472 0
M  V30 9181 O 895.874 1.1908 -1.62425 0
M  V30 9182 C 892.939 1.77246 -2.97968 0
M  V30 9183 C 892 1.25482 -4.10552 0
M  V30 9184 C 891.233 2.36277 -4.78549 0
M  V30 9185 O 891.456 3.55829 -4.45805 0
M  V30 9186 O 890.39 2.03914 -5.66306 0
M  V30 9187 H 894.216 0.0292298 -3.03686 0
M  V30 9188 H 891.801 -0.0513466 -1.49312 0
M  V30 9189 H 893.683 2.45062 -3.42815 0
M  V30 9190 H 892.358 2.33921 -2.23747 0
M  V30 9191 H 891.265 0.542859 -3.7014 0
M  V30 9192 H 892.598 0.733708 -4.86701 0
M  V30 9193 N 894.251 1.57596 -0.0117121 0
M  V30 9194 C 895.491 1.92932 0.675031 0
M  V30 9195 C 895.855 0.887004 1.70283 0
M  V30 9196 O 897.056 1.12599 2.4408 0
M  V30 9197 C 895.327 3.3327 1.29098 0
M  V30 9198 S 896.886 3.90509 2.00121 0
M  V30 9199 H 893.704 0.675226 0.22269 0
M  V30 9200 H 896.306 1.9537 -0.071208 0
M  V30 9201 H 895.01 4.0696 0.530262 0
M  V30 9202 H 894.541 3.34233 2.0749 0
M  V30 9203 H 896.556 3.72532 3.27771 0
M  V30 9204 N 895.729 -0.261212 1.5542 0
M  V30 9205 C 897.14 -0.83138 1.67167 0
M  V30 9206 C 897.491 -1.8659 0.606525 0
M  V30 9207 O 896.616 -2.14953 -0.24985 0
M  V30 9208 C 897.211 -1.51475 3.03052 0
M  V30 9209 C 895.77 -2.0328 3.16787 0
M  V30 9210 C 894.917 -0.878903 2.63003 0
M  V30 9211 H 897.868 -0.0373102 1.58656 0
M  V30 9212 H 897.889 -2.38222 2.96699 0
M  V30 9213 H 897.401 -0.76157 3.80554 0
M  V30 9214 H 895.502 -2.81523 2.44082 0
M  V30 9215 H 895.615 -2.24001 4.2351 0
M  V30 9216 H 893.979 -1.27551 2.2046 0
M  V30 9217 H 894.762 -0.13904 3.43018 0
M  V30 9218 N 897.207 -1.48554 -0.526253 0
M  V30 9219 C 898.453 -1.56994 -1.28378 0
M  V30 9220 C 898.786 -0.244701 -1.92652 0
M  V30 9221 O 898.061 0.749636 -1.79473 0
M  V30 9222 C 898.344 -2.71092 -2.37026 0
M  V30 9223 C 898.197 -4.13331 -1.77418 0
M  V30 9224 C 899.516 -2.80934 -3.38769 0
M  V30 9225 H 896.635 -0.571466 -0.465398 0
M  V30 9226 H 899.277 -1.80742 -0.585861 0
M  V30 9227 H 897.427 -2.50973 -2.96555 0
M  V30 9228 H 899.099 -4.44899 -1.21912 0
M  V30 9229 H 897.342 -4.20158 -1.07936 0
M  V30 9230 H 898.013 -4.88994 -2.56104 0
M  V30 9231 H 900.489 -2.9917 -2.892 0
M  V30 9232 H 899.365 -3.62489 -4.12181 0
M  V30 9233 H 899.626 -1.89244 -3.99549 0
M  V30 9234 N 898.685 0.775411 -1.37205 0
M  V30 9235 C 900.101 1.07546 -1.17924 0
M  V30 9236 C 900.301 2.01496 -0.0128897 0
M  V30 9237 O 899.357 2.44039 0.64816 0
M  V30 9238 C 900.67 1.67647 -2.49629 0
M  V30 9239 C 902.218 1.79923 -2.56119 0
M  V30 9240 C 902.693 2.43438 -3.87946 0
M  V30 9241 N 904.184 2.50893 -3.89368 0
M  V30 9242 C 904.919 3.00881 -4.88117 0
M  V30 9243 N 904.415 3.5107 -5.97262 0
M  V30 9244 N 906.208 2.99722 -4.75524 0
M  V30 9245 H 898.359 0.151524 -2.11859 0
M  V30 9246 H 900.622 0.129845 -0.939066 0
M  V30 9247 H 900.328 1.06082 -3.3532 0
M  V30 9248 H 900.202 2.66988 -2.66453 0
M  V30 9249 H 902.589 2.40621 -1.70838 0
M  V30 9250 H 902.67 0.793482 -2.43182 0
M  V30 9251 H 902.314 1.8338 -4.73639 0
M  V30 9252 H 902.244 3.44611 -3.98184 0
M  V30 9253 H 904.735 2.1537 -3.10522 0
M  V30 9254 H 905.048 3.87604 -6.68568 0
M  V30 9255 H 903.393 3.49184 -6.00912 0
M  V30 9256 H 906.584 2.5981 -3.8938 0
M  V30 9257 H 906.757 3.38369 -5.52639 0
M  V30 9258 N 900.163 1.21714 1.00117 0
M  V30 9259 C 901.579 0.97532 1.26332 0
M  V30 9260 C 901.779 -0.336029 1.98678 0
M  V30 9261 O 900.835 -1.06073 2.29139 0
M  V30 9262 C 902.148 2.16848 2.0832 0
M  V30 9263 C 903.696 2.21115 2.21533 0
M  V30 9264 C 904.171 3.3996 3.06906 0
M  V30 9265 N 905.662 3.40071 3.14494 0
M  V30 9266 C 906.397 4.28678 3.80818 0
M  V30 9267 N 905.893 5.2749 4.49139 0
M  V30 9268 N 907.686 4.16476 3.77497 0
M  V30 9269 H 899.837 2.06039 0.515897 0
M  V30 9270 H 902.1 0.902423 0.290408 0
M  V30 9271 H 901.806 3.119 1.62515 0
M  V30 9272 H 901.68 2.16226 3.09073 0
M  V30 9273 H 904.067 1.26616 2.66557 0
M  V30 9274 H 904.148 2.2578 1.20238 0
M  V30 9275 H 903.792 4.34755 2.62585 0
M  V30 9276 H 903.722 3.32534 4.08324 0
M  V30 9277 H 906.213 2.68563 2.65861 0
M  V30 9278 H 906.526 5.91397 4.97463 0
M  V30 9279 H 904.871 5.31412 4.47914 0
M  V30 9280 H 908.062 3.38539 3.23278 0
M  V30 9281 H 908.235 4.85739 4.28908 0
M  V30 9282 N 901.641 -1.19671 1.02551 0
M  V30 9283 C 902.589 -2.24812 0.596867 0
M  V30 9284 C 903.583 -1.65336 -0.368839 0
M  V30 9285 O 904.789 -1.78422 -0.237786 0
M  V30 9286 H 901.164 -0.731417 0.174739 0
M  V30 9287 H 903.135 -2.58286 1.49435 0
M  V30 9288 C 901.884 -3.47677 -0.0399514 0
M  V30 9289 H 901.207 -3.93728 0.694153 0
M  V30 9290 H 902.647 -4.22917 -0.302861 0
M  V30 9291 C 901.106 -3.11411 -1.2855 0
M  V30 9292 O 901.636 -3.23757 -2.37791 0
M  V30 9293 N 899.842 -2.65875 -1.17297 0
M  V30 9294 H 899.389 -2.56029 -0.284045 0
M  V30 9295 H 899.347 -2.41981 -2.00731 0
M  V30 9296 N 903.119 -0.802921 -1.35613 0
M  V30 9297 C 904.367 -0.380822 -1.9848 0
M  V30 9298 C 904.688 1.05464 -1.6402 0
M  V30 9299 O 903.958 1.72908 -0.920854 0
M  V30 9300 H 902.538 -0.137824 -0.734176 0
M  V30 9301 H 905.2 -1.02795 -1.65587 0
M  V30 9302 H 904.296 -0.483565 -3.08331 0
M  V30 9303 N 904.597 1.47463 -0.556102 0
M  V30 9304 C 905.529 2.28046 0.22968 0
M  V30 9305 C 906.542 1.3694 0.880409 0
M  V30 9306 O 907.731 1.61773 0.754447 0
M  V30 9307 C 904.831 3.11165 1.34273 0
M  V30 9308 C 904.004 4.30225 0.789004 0
M  V30 9309 C 903.063 4.94948 1.78641 0
M  V30 9310 O 902.089 5.53372 1.33297 0
M  V30 9311 N 903.291 4.89543 3.11974 0
M  V30 9312 H 906.056 2.96125 -0.461558 0
M  V30 9313 H 903.617 1.5708 -0.392105 0
M  V30 9314 H 905.609 3.51331 2.00869 0
M  V30 9315 H 904.179 2.45337 1.93722 0
M  V30 9316 H 903.399 3.94163 -0.0536971 0
M  V30 9317 H 904.687 5.07238 0.398378 0
M  V30 9318 H 904.085 4.43275 3.51459 0
M  V30 9319 H 902.642 5.33732 3.74131 0
M  V30 9320 N 906.075 0.2925 1.54862 0
M  V30 9321 C 907.323 -0.318633 1.99572 0
M  V30 9322 C 907.644 -1.55062 1.1824 0
M  V30 9323 O 906.914 -1.93943 0.276226 0
M  V30 9324 H 905.494 -0.120722 0.737181 0
M  V30 9325 H 908.156 0.401862 1.90712 0
M  V30 9326 H 907.252 -0.596542 3.06346 0
M  V30 9327 N 907.553 -1.57587 0.0200696 0
M  V30 9328 C 908.83 -1.82696 -0.698677 0
M  V30 9329 C 909.21 -0.902082 -1.90855 0
M  V30 9330 O 908.558 0.0444834 -2.28457 0
M  V30 9331 C 908.768 -3.31691 -1.08546 0
M  V30 9332 C 910.116 -3.97938 -1.4809 0
M  V30 9333 O 911.14 -3.36133 -1.17869 0
M  V30 9334 O 909.999 -5.06851 -2.04364 0
M  V30 9335 H 907.093 -0.752997 -0.341942 0
M  V30 9336 H 909.639 -1.69635 0.04706 0
M  V30 9337 H 908.411 -3.90659 -0.223956 0
M  V30 9338 H 908.034 -3.49825 -1.88965 0
M  V30 9339 N 909.032 0.252966 -1.55557 0
M  V30 9340 C 909.995 1.29645 -1.8901 0
M  V30 9341 C 910.995 1.41378 -0.766096 0
M  V30 9342 O 912.185 1.40183 -1.03414 0
M  V30 9343 C 909.317 2.67504 -2.11316 0
M  V30 9344 H 910.51 1.01202 -2.82309 0
M  V30 9345 H 908.063 0.491977 -1.48355 0
M  V30 9346 H 908.798 3.01095 -1.20466 0
M  V30 9347 H 908.583 2.6037 -2.93172 0
M  V30 9348 H 910.073 3.42861 -2.38403 0
M  V30 9349 N 910.51 1.48831 0.518367 0
M  V30 9350 C 911.921 1.50842 1.10016 0
M  V30 9351 C 912.272 0.284744 1.94123 0
M  V30 9352 O 911.397 -0.607088 2.0771 0
M  V30 9353 C 911.992 2.73329 2.00191 0
M  V30 9354 C 910.551 2.78175 2.53566 0
M  V30 9355 C 909.698 2.4452 1.30786 0
M  V30 9356 H 912.649 1.55779 0.303073 0
M  V30 9357 H 912.67 2.52506 2.84642 0
M  V30 9358 H 912.182 3.62374 1.3895 0
M  V30 9359 H 910.283 1.93368 3.18496 0
M  V30 9360 H 910.396 3.79905 2.91906 0
M  V30 9361 H 908.76 1.95924 1.62744 0
M  V30 9362 H 909.543 3.35819 0.712797 0
M  V30 9363 N 911.988 -0.768124 1.37614 0
M  V30 9364 C 913.399 -1.34462 1.29525 0
M  V30 9365 C 913.75 -1.96121 -0.0555168 0
M  V30 9366 O 912.875 -1.94069 -0.957406 0
M  V30 9367 C 913.47 -2.44475 2.34558 0
M  V30 9368 C 912.029 -2.97883 2.30093 0
M  V30 9369 C 911.176 -1.71131 2.18196 0
M  V30 9370 H 914.127 -0.568103 1.48183 0
M  V30 9371 H 914.148 -3.24047 1.99434 0
M  V30 9372 H 913.66 -1.99568 3.32858 0
M  V30 9373 H 911.761 -3.47156 1.35328 0
M  V30 9374 H 911.874 -3.53251 3.23652 0
M  V30 9375 H 910.238 -1.94197 1.64802 0
M  V30 9376 H 911.021 -1.28323 3.18415 0
M  V30 9377 N 913.466 -1.22244 -0.994698 0
M  V30 9378 C 914.694 -1.07218 -1.76952 0
M  V30 9379 C 915.109 0.377388 -1.8499 0
M  V30 9380 O 914.466 1.26157 -1.31874 0
M  V30 9381 C 914.517 -1.67496 -3.20355 0
M  V30 9382 O 914.238 -3.06782 -3.12756 0
M  V30 9383 C 915.739 -1.57721 -4.14294 0
M  V30 9384 H 912.959 -0.375966 -0.555779 0
M  V30 9385 H 915.503 -1.61799 -1.25065 0
M  V30 9386 H 913.658 -1.16982 -3.69315 0
M  V30 9387 H 914.072 -3.35784 -4.02926 0
M  V30 9388 H 915.546 -2.04623 -5.12673 0
M  V30 9389 H 916.023 -0.533434 -4.35949 0
M  V30 9390 H 916.629 -2.07531 -3.71229 0
M  V30 9391 N 914.944 1.19125 -1.03184 0
M  V30 9392 C 916.355 1.70564 -0.759264 0
M  V30 9393 C 916.706 1.8248 0.720794 0
M  V30 9394 O 915.831 1.49804 1.56166 0
M  V30 9395 C 916.426 3.09793 -1.37163 0
M  V30 9396 C 914.985 3.5848 -1.14757 0
M  V30 9397 C 914.132 2.35265 -1.46784 0
M  V30 9398 H 917.083 1.03925 -1.19939 0
M  V30 9399 H 917.104 3.72624 -0.77015 0
M  V30 9400 H 916.616 3.01088 -2.44882 0
M  V30 9401 H 914.717 3.72494 -0.0887182 0
M  V30 9402 H 914.83 4.42426 -1.83836 0
M  V30 9403 H 913.194 2.38747 -0.887254 0
M  V30 9404 H 913.977 2.29188 -2.55593 0
M  V30 9405 N 916.422 0.810101 1.35185 0
M  V30 9406 C 917.352 0.237453 2.32289 0
M  V30 9407 C 918.333 -0.639032 1.5764 0
M  V30 9408 O 919.518 -0.568575 1.8569 0
M  V30 9409 C 916.648 -0.611964 3.41866 0
M  V30 9410 C 915.602 0.166318 4.27677 0
M  V30 9411 C 914.928 -0.805024 5.28605 0
M  V30 9412 C 916.228 1.36729 5.04086 0
M  V30 9413 H 917.922 1.04874 2.80432 0
M  V30 9414 H 915.468 0.505751 1.34826 0
M  V30 9415 H 917.421 -1.02267 4.08802 0
M  V30 9416 H 916.145 -1.45617 2.92341 0
M  V30 9417 H 914.804 0.558238 3.62325 0
M  V30 9418 H 914.452 -1.64483 4.75347 0
M  V30 9419 H 914.152 -0.288577 5.86891 0
M  V30 9420 H 915.676 -1.21386 5.98413 0
M  V30 9421 H 917.09 1.03128 5.63948 0
M  V30 9422 H 915.487 1.81848 5.71884 0
M  V30 9423 H 916.557 2.15214 4.34524 0
M  V30 9424 N 917.9 -1.47166 0.563914 0
M  V30 9425 C 919.311 -1.86231 0.132307 0
M  V30 9426 C 919.662 -1.46976 -1.29971 0
M  V30 9427 O 918.787 -0.875911 -1.97881 0
M  V30 9428 C 919.382 -3.37996 0.233335 0
M  V30 9429 C 917.941 -3.76127 -0.143278 0
M  V30 9430 C 917.088 -2.71212 0.577857 0
M  V30 9431 H 920.039 -1.38588 0.773249 0
M  V30 9432 H 920.06 -3.76558 -0.546309 0
M  V30 9433 H 919.572 -3.66535 1.27568 0
M  V30 9434 H 917.673 -3.53205 -1.18648 0
M  V30 9435 H 917.786 -4.78595 0.219952 0
M  V30 9436 H 916.15 -2.54692 0.020186 0
M  V30 9437 H 916.933 -3.02593 1.62149 0
M  V30 9438 N 919.378 -0.300708 -1.54705 0
M  V30 9439 C 920.606 0.31127 -2.04545 0
M  V30 9440 C 921.021 1.47542 -1.178 0
M  V30 9441 O 920.378 1.81361 -0.203571 0
M  V30 9442 C 920.429 0.767783 -3.53253 0
M  V30 9443 O 920.15 -0.350027 -4.36699 0
M  V30 9444 C 921.651 1.44494 -4.1909 0
M  V30 9445 H 918.871 0.067668 -0.667579 0
M  V30 9446 H 921.415 -0.440254 -1.99705 0
M  V30 9447 H 919.57 1.46933 -3.58454 0
M  V30 9448 H 919.984 0.00534038 -5.245 0
M  V30 9449 H 921.458 1.71553 -5.24665 0
M  V30 9450 H 921.935 2.3849 -3.68808 0
M  V30 9451 H 922.541 0.786581 -4.17963 0
M  V30 9452 N 920.856 1.57574 -0.0284266 0
M  V30 9453 C 922.267 1.79585 0.510502 0
M  V30 9454 C 922.618 0.938625 1.72291 0
M  V30 9455 O 921.743 0.14884 2.15888 0
M  V30 9456 C 922.338 3.25703 0.932912 0
M  V30 9457 C 920.897 3.48711 1.41696 0
M  V30 9458 C 920.044 2.74665 0.381356 0
M  V30 9459 H 922.995 1.56647 -0.254464 0
M  V30 9460 H 923.016 3.35376 1.79731 0
M  V30 9461 H 922.528 3.88067 0.0503036 0
M  V30 9462 H 920.629 2.91597 2.31952 0
M  V30 9463 H 920.742 4.57423 1.42481 0
M  V30 9464 H 919.106 2.40123 0.8493 0
M  V30 9465 H 919.889 3.39745 -0.492775 0
M  V30 9466 N 922.334 -0.244713 1.55689 0
M  V30 9467 C 923.58 -0.973886 1.77886 0
M  V30 9468 C 923.913 -1.8489 0.594071 0
M  V30 9469 O 923.188 -1.90182 -0.407564 0
M  V30 9470 C 923.471 -1.83255 3.09983 0
M  V30 9471 C 923.324 -0.985571 4.3887 0
M  V30 9472 C 924.643 -2.81464 3.38329 0
M  V30 9473 H 921.762 -0.352629 0.647165 0
M  V30 9474 H 924.404 -0.244243 1.88424 0
M  V30 9475 H 922.554 -2.45464 3.01131 0
M  V30 9476 H 924.226 -0.382005 4.59716 0
M  V30 9477 H 922.469 -0.29002 4.32829 0
M  V30 9478 H 923.14 -1.62022 5.27686 0
M  V30 9479 H 925.616 -2.2939 3.47159 0
M  V30 9480 H 924.492 -3.38663 4.31971 0
M  V30 9481 H 924.753 -3.58037 2.59349 0
M  V30 9482 N 923.813 -1.49104 -0.510467 0
M  V30 9483 C 925.09 -1.48609 -1.27179 0
M  V30 9484 C 925.47 -0.208537 -2.10067 0
M  V30 9485 O 924.818 0.809335 -2.13687 0
M  V30 9486 C 925.028 -2.75953 -2.1366 0
M  V30 9487 C 926.376 -3.25067 -2.73161 0
M  V30 9488 O 927.4 -2.77005 -2.23934 0
M  V30 9489 O 926.259 -4.08747 -3.62751 0
M  V30 9490 H 923.353 -0.594374 -0.57502 0
M  V30 9491 H 925.899 -1.61358 -0.525515 0
M  V30 9492 H 924.671 -3.60434 -1.52325 0
M  V30 9493 H 924.294 -2.66019 -2.95499 0
M  V30 9494 N 925.291 0.760815 -1.38019 0
M  V30 9495 C 926.221 1.88811 -1.37377 0
M  V30 9496 C 927.202 1.68388 -0.240737 0
M  V30 9497 O 928.387 1.89086 -0.442739 0
M  V30 9498 C 925.517 3.26244 -1.1909 0
M  V30 9499 C 924.471 3.61254 -2.29521 0
M  V30 9500 C 923.797 4.97346 -1.96345 0
M  V30 9501 C 925.097 3.66874 -3.71753 0
M  V30 9502 H 926.791 1.89606 -2.31711 0
M  V30 9503 H 924.337 0.910818 -1.11535 0
M  V30 9504 H 926.29 4.04755 -1.17267 0
M  V30 9505 H 925.014 3.2591 -0.212152 0
M  V30 9506 H 923.673 2.85057 -2.30517 0
M  V30 9507 H 923.321 4.93564 -0.969728 0
M  V30 9508 H 923.021 5.21739 -2.703 0
M  V30 9509 H 924.545 5.78244 -1.96129 0
M  V30 9510 H 925.959 4.35514 -3.72828 0
M  V30 9511 H 924.356 4.02772 -4.44853 0
M  V30 9512 H 925.426 2.67273 -4.0459 0
M  V30 9513 N 926.769 1.22769 0.988202 0
M  V30 9514 C 927.679 1.01844 2.11341 0
M  V30 9515 C 928.695 -0.0346937 1.73965 0
M  V30 9516 O 929.871 0.159061 2.00771 0
M  V30 9517 C 926.936 0.603837 3.41401 0
M  V30 9518 C 925.997 1.73113 3.92849 0
M  V30 9519 C 925.23 1.33621 5.16702 0
M  V30 9520 O 925.453 0.217041 5.69987 0
M  V30 9521 O 924.387 2.15444 5.62021 0
M  V30 9522 H 928.213 1.96127 2.31879 0
M  V30 9523 H 925.798 1.01405 1.09715 0
M  V30 9524 H 927.68 0.383196 4.19654 0
M  V30 9525 H 926.355 -0.310082 3.22211 0
M  V30 9526 H 925.262 2.00634 3.15748 0
M  V30 9527 H 926.595 2.62308 4.1648 0
M  V30 9528 N 928.247 -1.18576 1.03814 0
M  V30 9529 C 929.177 -2.24334 0.647795 0
M  V30 9530 C 930.158 -1.66508 -0.34774 0
M  V30 9531 O 931.343 -1.92852 -0.228401 0
M  V30 9532 C 928.473 -3.47299 0.00734922 0
M  V30 9533 C 927.427 -4.17859 0.926152 0
M  V30 9534 C 926.753 -5.34489 0.150317 0
M  V30 9535 C 928.053 -4.71632 2.24411 0
M  V30 9536 H 929.747 -2.57241 1.53191 0
M  V30 9537 H 927.293 -1.23649 0.738028 0
M  V30 9538 H 929.246 -4.20486 -0.277434 0
M  V30 9539 H 927.97 -3.13619 -0.911626 0
M  V30 9540 H 926.629 -3.46567 1.19528 0
M  V30 9541 H 926.277 -4.97056 -0.770985 0
M  V30 9542 H 925.977 -5.82633 0.762407 0
M  V30 9543 H 927.501 -6.10467 -0.127508 0
M  V30 9544 H 928.915 -5.36526 2.02021 0
M  V30 9545 H 927.312 -5.303 2.80894 0
M  V30 9546 H 928.382 -3.89192 2.89236 0
M  V30 9547 N 929.725 -0.817259 -1.34754 0
M  V30 9548 C 930.635 -0.236946 -2.334 0
M  V30 9549 C 931.651 0.625685 -1.62361 0
M  V30 9550 O 932.827 0.534921 -1.94166 0
M  V30 9551 C 929.892 0.596215 -3.41535 0
M  V30 9552 C 928.953 -0.288154 -4.28332 0
M  V30 9553 C 928.186 0.505337 -5.31302 0
M  V30 9554 O 928.409 1.73912 -5.43241 0
M  V30 9555 O 927.343 -0.109374 -6.01801 0
M  V30 9556 H 931.169 -1.05327 -2.84851 0
M  V30 9557 H 928.754 -0.579275 -1.37713 0
M  V30 9558 H 930.636 1.07041 -4.07578 0
M  V30 9559 H 929.311 1.38997 -2.92338 0
M  V30 9560 H 928.218 -0.809724 -3.65232 0
M  V30 9561 H 929.551 -1.04612 -4.80955 0
M  V30 9562 N 931.203 1.46865 -0.571711 0
M  V30 9563 C 932.449 2.03307 -0.0614759 0
M  V30 9564 C 932.804 1.43657 1.27986 0
M  V30 9565 O 932.097 0.588186 1.82348 0
M  V30 9566 C 932.291 3.57323 0.0742311 0
M  V30 9567 C 932.12 4.31909 -1.2524 0
M  V30 9568 C 930.89 4.71246 -1.82361 0
M  V30 9569 C 933.088 4.66137 -2.17304 0
M  V30 9570 N 931.07 5.30535 -3.08878 0
M  V30 9571 C 932.441 5.25881 -3.28404 0
M  V30 9572 C 934.496 4.48066 -2.1712 0
M  V30 9573 C 933.199 5.69461 -4.39439 0
M  V30 9574 C 935.225 4.92656 -3.27176 0
M  V30 9575 C 934.587 5.52461 -4.36997 0
M  V30 9576 H 930.686 0.779293 -0.0650098 0
M  V30 9577 H 933.27 1.79161 -0.762192 0
M  V30 9578 H 931.441 3.81206 0.744095 0
M  V30 9579 H 933.173 4.00408 0.587849 0
M  V30 9580 H 929.928 4.53658 -1.35985 0
M  V30 9581 H 930.352 5.64711 -3.73404 0
M  V30 9582 H 934.994 4.01173 -1.33492 0
M  V30 9583 H 932.712 6.15338 -5.23817 0
M  V30 9584 H 936.298 4.80433 -3.28139 0
M  V30 9585 H 935.178 5.86334 -5.20752 0
M  V30 9586 N 932.681 0.308908 1.54543 0
M  V30 9587 C 933.927 -0.298478 2.00592 0
M  V30 9588 C 934.26 -1.52929 1.19692 0
M  V30 9589 O 933.535 -1.9254 0.27542 0
M  V30 9590 C 933.818 -0.647218 3.54236 0
M  V30 9591 C 933.671 0.593284 4.4587 0
M  V30 9592 C 934.99 -1.47064 4.14801 0
M  V30 9593 H 932.109 -0.107012 0.72919 0
M  V30 9594 H 934.751 0.422578 1.85241 0
M  V30 9595 H 932.901 -1.26153 3.67447 0
M  V30 9596 H 934.573 1.2317 4.44552 0
M  V30 9597 H 932.816 1.22501 4.16144 0
M  V30 9598 H 933.487 0.305018 5.51157 0
M  V30 9599 H 935.963 -0.951511 4.05075 0
M  V30 9600 H 934.839 -1.68343 5.22448 0
M  V30 9601 H 935.1 -2.4623 3.67183 0
M  V30 9602 N 934.159 -1.57557 0.0367827 0
M  V30 9603 C 935.089 -2.13712 -0.940719 0
M  V30 9604 C 936.07 -1.05515 -1.33419 0
M  V30 9605 O 937.255 -1.33385 -1.41146 0
M  V30 9606 C 934.385 -2.67043 -2.22048 0
M  V30 9607 C 933.339 -3.80096 -1.96752 0
M  V30 9608 C 932.665 -4.19886 -3.31059 0
M  V30 9609 C 933.965 -5.05848 -1.30058 0
M  V30 9610 H 935.659 -2.9564 -0.473033 0
M  V30 9611 H 933.205 -1.42214 -0.226089 0
M  V30 9612 H 935.158 -3.04964 -2.90818 0
M  V30 9613 H 933.882 -1.82287 -2.70996 0
M  V30 9614 H 932.541 -3.42625 -1.30398 0
M  V30 9615 H 932.189 -3.32101 -3.77781 0
M  V30 9616 H 931.889 -4.96073 -3.14937 0
M  V30 9617 H 933.413 -4.60395 -4.01084 0
M  V30 9618 H 934.827 -5.41306 -1.8884 0
M  V30 9619 H 933.224 -5.87084 -1.24309 0
M  V30 9620 H 934.294 -4.84122 -0.274591 0
M  V30 9621 N 935.637 0.236453 -1.55816 0
M  V30 9622 C 936.885 0.96111 -1.77784 0
M  V30 9623 C 937.206 1.85454 -0.602648 0
M  V30 9624 O 936.476 1.92157 0.381137 0
M  V30 9625 H 935.056 0.35787 -0.655697 0
M  V30 9626 H 937.718 0.251888 -1.93265 0
M  V30 9627 H 936.814 1.5767 -2.69345 0
M  V30 9628 N 937.115 1.49373 0.502552 0
M  V30 9629 C 938.062 1.65927 1.60427 0
M  V30 9630 C 939.032 0.500768 1.58371 0
M  V30 9631 O 940.217 0.727606 1.76382 0
M  V30 9632 C 937.357 1.73043 2.9858 0
M  V30 9633 C 936.47 3.00187 3.10663 0
M  V30 9634 C 935.605 2.98292 4.3954 0
M  V30 9635 C 934.644 4.20022 4.4525 0
M  V30 9636 N 933.781 4.16046 5.65553 0
M  V30 9637 H 938.621 2.59998 1.45619 0
M  V30 9638 H 936.158 1.28912 0.708519 0
M  V30 9639 H 938.116 1.7515 3.78653 0
M  V30 9640 H 936.746 0.824397 3.12095 0
M  V30 9641 H 935.798 3.07699 2.23663 0
M  V30 9642 H 937.11 3.9018 3.10742 0
M  V30 9643 H 936.264 2.98953 5.27932 0
M  V30 9644 H 935.003 2.06075 4.42023 0
M  V30 9645 H 934.008 4.19607 3.5526 0
M  V30 9646 H 935.233 5.13431 4.44484 0
M  V30 9647 H 933.179 3.26665 5.68881 0
M  V30 9648 H 933.096 4.99773 5.67242 0
M  V30 9649 H 934.364 4.20807 6.56156 0
M  V30 9650 N 938.594 -0.753485 1.38421 0
M  V30 9651 C 939.527 -1.87525 1.30037 0
M  V30 9652 C 940.505 -1.6163 0.177379 0
M  V30 9653 O 941.689 -1.85132 0.354716 0
M  V30 9654 C 938.816 -3.23138 1.01485 0
M  V30 9655 C 937.862 -3.67921 2.15723 0
M  V30 9656 S 938.695 -3.79447 3.77863 0
M  V30 9657 C 939.851 -5.17879 3.51499 0
M  V30 9658 H 940.084 -1.94351 2.24978 0
M  V30 9659 H 937.617 -0.916475 1.24258 0
M  V30 9660 H 939.575 -4.01455 0.856959 0
M  V30 9661 H 938.236 -3.13991 0.0826199 0
M  V30 9662 H 937.429 -4.66287 1.91292 0
M  V30 9663 H 937.031 -2.96758 2.2762 0
M  V30 9664 H 939.323 -6.03636 3.0762 0
M  V30 9665 H 940.266 -5.47331 4.49259 0
M  V30 9666 H 940.674 -4.86681 2.8601 0
M  V30 9667 N 940.072 -1.23292 -0.981677 0
M  V30 9668 C 941.483 -1.05936 -1.53735 0
M  V30 9669 C 941.834 0.373695 -1.92608 0
M  V30 9670 O 940.959 1.26024 -1.75917 0
M  V30 9671 C 941.554 -1.91682 -2.79363 0
M  V30 9672 C 940.113 -1.78591 -3.31334 0
M  V30 9673 C 939.26 -1.87463 -2.04335 0
M  V30 9674 H 942.211 -1.36973 -0.801505 0
M  V30 9675 H 942.232 -1.44085 -3.52164 0
M  V30 9676 H 941.744 -2.95975 -2.51039 0
M  V30 9677 H 939.845 -0.770755 -3.64541 0
M  V30 9678 H 939.958 -2.61902 -4.01179 0
M  V30 9679 H 938.322 -1.3103 -2.18411 0
M  V30 9680 H 939.105 -2.9331 -1.78394 0
M  V30 9681 N 941.55 1.18024 -1.04442 0
M  V30 9682 C 942.966 1.40107 -0.76435 0
M  V30 9683 C 943.166 1.90914 0.644516 0
M  V30 9684 O 942.222 2.0959 1.40813 0
M  V30 9685 C 943.535 2.39851 -1.81361 0
M  V30 9686 C 945.083 2.53571 -1.83496 0
M  V30 9687 C 945.558 3.56583 -2.87424 0
M  V30 9688 N 947.049 3.64094 -2.86339 0
M  V30 9689 C 947.784 4.43537 -3.63405 0
M  V30 9690 N 947.28 5.26557 -4.50233 0
M  V30 9691 N 949.073 4.38336 -3.51877 0
M  V30 9692 H 941.224 0.833726 -1.95353 0
M  V30 9693 H 943.487 0.42881 -0.845474 0
M  V30 9694 H 943.193 2.09576 -2.82438 0
M  V30 9695 H 943.067 3.39251 -1.6489 0
M  V30 9696 H 945.454 2.83161 -0.830883 0
M  V30 9697 H 945.535 1.54272 -2.04044 0
M  V30 9698 H 945.179 3.27733 -3.88012 0
M  V30 9699 H 945.109 4.55569 -2.6413 0
M  V30 9700 H 947.6 3.04814 -2.23376 0
M  V30 9701 H 947.913 5.84336 -5.05738 0
M  V30 9702 H 946.258 5.25964 -4.54298 0
M  V30 9703 H 949.449 3.72528 -2.83444 0
M  V30 9704 H 949.622 5.00007 -4.12186 0
M  V30 9705 N 943.028 0.824394 1.34319 0
M  V30 9706 C 943.975 0.245282 2.29493 0
M  V30 9707 C 944.945 -0.630762 1.53657 0
M  V30 9708 O 946.13 -0.572094 1.82021 0
M  V30 9709 C 943.27 -0.585631 3.40095 0
M  V30 9710 C 942.383 0.312821 4.30866 0
M  V30 9711 C 941.518 -0.527801 5.28571 0
M  V30 9712 C 940.557 0.369946 6.10981 0
M  V30 9713 N 939.694 -0.43169 7.00772 0
M  V30 9714 H 944.534 1.06225 2.78425 0
M  V30 9715 H 942.071 0.53533 1.37013 0
M  V30 9716 H 944.029 -1.08271 4.02906 0
M  V30 9717 H 942.659 -1.3677 2.92393 0
M  V30 9718 H 941.711 0.928129 3.68904 0
M  V30 9719 H 943.023 1.00306 4.8861 0
M  V30 9720 H 942.177 -1.0893 5.96841 0
M  V30 9721 H 940.916 -1.25154 4.71368 0
M  V30 9722 H 939.921 0.943577 5.41643 0
M  V30 9723 H 941.146 1.09182 6.70266 0
M  V30 9724 H 939.092 -1.13908 6.46035 0
M  V30 9725 H 939.009 0.200133 7.55735 0
M  V30 9726 H 940.277 -0.975894 7.73367 0
M  V30 9727 N 944.506 -1.46559 0.579492 0
M  V30 9728 C 945.416 -2.34066 -0.15816 0
M  V30 9729 C 946.432 -1.49556 -0.88932 0
M  V30 9730 O 947.608 -1.82434 -0.853226 0
M  V30 9731 C 944.673 -3.26683 -1.161 0
M  V30 9732 C 943.734 -4.27092 -0.434855 0
M  V30 9733 C 942.967 -5.15283 -1.38992 0
M  V30 9734 O 943.19 -5.06345 -2.62623 0
M  V30 9735 O 942.124 -5.95099 -0.902253 0
M  V30 9736 H 945.95 -2.98488 0.560234 0
M  V30 9737 H 943.535 -1.45482 0.339918 0
M  V30 9738 H 945.417 -3.8383 -1.73932 0
M  V30 9739 H 944.092 -2.64862 -1.86091 0
M  V30 9740 H 942.999 -3.73641 0.185224 0
M  V30 9741 H 944.332 -4.9169 0.224031 0
M  V30 9742 N 945.984 -0.3171 -1.54377 0
M  V30 9743 C 947.231 0.28741 -2.0045 0
M  V30 9744 C 947.559 1.52648 -1.20535 0
M  V30 9745 O 946.814 1.93775 -0.273831 0
M  V30 9746 C 947.113 0.672917 -3.51008 0
M  V30 9747 C 946.779 -0.466245 -4.48483 0
M  V30 9748 C 945.441 -0.778933 -4.74854 0
M  V30 9749 C 947.793 -1.23176 -5.06436 0
M  V30 9750 C 945.121 -1.85997 -5.56437 0
M  V30 9751 C 947.473 -2.30284 -5.89196 0
M  V30 9752 C 946.137 -2.62141 -6.13872 0
M  V30 9753 H 945.407 0.105171 -0.733499 0
M  V30 9754 H 948.054 -0.439538 -1.86388 0
M  V30 9755 H 946.359 1.48019 -3.62764 0
M  V30 9756 H 948.056 1.15209 -3.84094 0
M  V30 9757 H 944.646 -0.212449 -4.28073 0
M  V30 9758 H 948.83 -1.00344 -4.8605 0
M  V30 9759 H 944.086 -2.11134 -5.73788 0
M  V30 9760 H 948.26 -2.90048 -6.33123 0
M  V30 9761 H 945.887 -3.46037 -6.76877 0
M  V30 9762 N 947.462 1.57535 -0.0451378 0
M  V30 9763 C 948.709 1.92451 0.629987 0
M  V30 9764 C 949.037 0.92298 1.71206 0
M  V30 9765 O 948.292 -0.0656626 1.9559 0
M  V30 9766 C 948.591 3.34065 1.27024 0
M  V30 9767 C 948.257 4.49785 0.316971 0
M  V30 9768 C 946.919 4.81169 0.0546406 0
M  V30 9769 C 949.271 5.20111 -0.336693 0
M  V30 9770 C 946.599 5.8023 -0.86889 0
M  V30 9771 C 948.951 6.2016 -1.24838 0
M  V30 9772 C 947.615 6.49976 -1.51944 0
M  V30 9773 H 946.885 0.704228 0.230529 0
M  V30 9774 H 949.532 1.91182 -0.110328 0
M  V30 9775 H 947.837 3.31672 2.08568 0
M  V30 9776 H 949.534 3.58359 1.79945 0
M  V30 9777 H 946.124 4.2529 0.531614 0
M  V30 9778 H 950.308 4.96082 -0.147105 0
M  V30 9779 H 945.564 6.0167 -1.08643 0
M  V30 9780 H 949.738 6.73767 -1.76098 0
M  V30 9781 H 947.365 7.26551 -2.2367 0
M  V30 9782 N 948.94 -0.228186 1.55939 0
M  V30 9783 C 949.87 -1.28607 1.94891 0
M  V30 9784 C 950.851 -1.49236 0.816245 0
M  V30 9785 O 952.036 -1.61531 1.07803 0
M  V30 9786 C 949.166 -2.63719 2.25986 0
M  V30 9787 C 948.12 -2.57757 3.4168 0
M  V30 9788 C 947.446 -3.96837 3.58364 0
M  V30 9789 C 948.746 -2.13116 4.76843 0
M  V30 9790 H 950.44 -0.962531 2.83506 0
M  V30 9791 H 947.986 -0.461577 1.36402 0
M  V30 9792 H 949.939 -3.37878 2.51826 0
M  V30 9793 H 948.663 -2.97747 1.34217 0
M  V30 9794 H 947.322 -1.86055 3.15878 0
M  V30 9795 H 946.97 -4.28162 2.63982 0
M  V30 9796 H 946.67 -3.93731 4.36176 0
M  V30 9797 H 948.194 -4.72668 3.86545 0
M  V30 9798 H 949.608 -2.77015 5.01932 0
M  V30 9799 H 948.005 -2.21083 5.57891 0
M  V30 9800 H 949.075 -1.08326 4.72645 0
M  V30 9801 N 950.418 -1.49637 -0.494624 0
M  V30 9802 C 951.35 -1.62902 -1.61231 0
M  V30 9803 C 952.363 -0.511425 -1.54558 0
M  V30 9804 O 953.552 -0.783724 -1.60375 0
M  V30 9805 C 950.652 -1.57564 -3.00045 0
M  V30 9806 C 949.825 -2.84964 -3.31835 0
M  V30 9807 C 948.884 -2.72591 -4.5009 0
M  V30 9808 O 947.91 -3.46532 -4.51558 0
M  V30 9809 N 949.112 -1.84563 -5.50379 0
M  V30 9810 H 951.877 -2.59301 -1.50276 0
M  V30 9811 H 949.438 -1.46806 -0.68262 0
M  V30 9812 H 951.43 -1.46932 -3.77085 0
M  V30 9813 H 950 -0.689974 -3.0489 0
M  V30 9814 H 949.22 -3.099 -2.4363 0
M  V30 9815 H 950.508 -3.69412 -3.49875 0
M  V30 9816 H 949.906 -1.23758 -5.51997 0
M  V30 9817 H 948.463 -1.79849 -6.26496 0
M  V30 9818 N 951.896 0.746133 -1.38819 0
M  V30 9819 C 953.312 1.0502 -1.20179 0
M  V30 9820 C 953.512 2.01423 -0.0556271 0
M  V30 9821 O 952.568 2.45359 0.59625 0
M  V30 9822 C 953.881 1.62315 -2.53129 0
M  V30 9823 C 955.429 1.74449 -2.59878 0
M  V30 9824 C 955.904 2.35155 -3.93022 0
M  V30 9825 N 957.395 2.42577 -3.94602 0
M  V30 9826 C 958.13 2.9046 -4.94389 0
M  V30 9827 N 957.626 3.38322 -6.04574 0
M  V30 9828 N 959.419 2.89568 -4.81775 0
M  V30 9829 H 951.57 0.106551 -2.12133 0
M  V30 9830 H 953.833 0.109897 -0.941609 0
M  V30 9831 H 953.539 0.98946 -3.37495 0
M  V30 9832 H 953.413 2.61276 -2.72057 0
M  V30 9833 H 955.8 2.36943 -1.75903 0
M  V30 9834 H 955.881 0.741721 -2.4481 0
M  V30 9835 H 955.525 1.73292 -4.77422 0
M  V30 9836 H 955.455 3.36088 -4.05404 0
M  V30 9837 H 957.946 2.08735 -3.15021 0
M  V30 9838 H 958.259 3.73336 -6.76639 0
M  V30 9839 H 956.604 3.3636 -6.08184 0
M  V30 9840 H 959.795 2.51492 -3.94803 0
M  V30 9841 H 959.968 3.26571 -5.59692 0
M  V30 9842 N 953.375 1.23811 0.975125 0
M  V30 9843 C 954.322 1.02394 2.06843 0
M  V30 9844 C 955.292 -0.060337 1.6599 0
M  V30 9845 O 956.477 0.0928187 1.90574 0
M  V30 9846 C 953.617 0.626882 3.39359 0
M  V30 9847 C 952.73 1.78385 3.9345 0
M  V30 9848 C 951.865 1.33307 5.14201 0
M  V30 9849 C 950.904 2.46045 5.60471 0
M  V30 9850 N 950.041 2.01888 6.72448 0
M  V30 9851 H 954.881 1.95973 2.24496 0
M  V30 9852 H 952.418 0.976206 1.10039 0
M  V30 9853 H 954.376 0.377742 4.15486 0
M  V30 9854 H 953.006 -0.271907 3.21653 0
M  V30 9855 H 952.058 2.14685 3.14029 0
M  V30 9856 H 953.37 2.63122 4.23755 0
M  V30 9857 H 952.524 1.04237 5.97678 0
M  V30 9858 H 951.263 0.456143 4.85562 0
M  V30 9859 H 950.268 2.75884 4.75571 0
M  V30 9860 H 951.493 3.34283 5.91127 0
M  V30 9861 H 949.439 1.16583 6.45558 0
M  V30 9862 H 949.356 2.80182 7.02164 0
M  V30 9863 H 950.624 1.75937 7.59386 0
M  V30 9864 N 954.853 -1.17469 1.05066 0
M  V30 9865 C 956.264 -1.69334 0.786304 0
M  V30 9866 C 956.615 -1.83604 -0.691671 0
M  V30 9867 O 955.74 -1.52269 -1.53763 0
M  V30 9868 C 956.335 -3.07572 1.42074 0
M  V30 9869 C 954.894 -3.56609 1.20446 0
M  V30 9870 C 954.041 -2.329 1.50508 0
M  V30 9871 H 956.992 -1.02003 1.21577 0
M  V30 9872 H 957.013 -3.71352 0.829334 0
M  V30 9873 H 956.525 -2.97154 2.49642 0
M  V30 9874 H 954.626 -3.72306 0.147968 0
M  V30 9875 H 954.739 -4.39446 1.90852 0
M  V30 9876 H 953.103 -2.37305 0.925124 0
M  V30 9877 H 953.886 -2.25093 2.59207 0
M  V30 9878 N 956.331 -0.831506 -1.3388 0
M  V30 9879 C 957.742 -0.481375 -1.80388 0
M  V30 9880 C 958.093 0.998993 -1.68863 0
M  V30 9881 O 957.218 1.77795 -1.2336 0
M  V30 9882 C 957.813 -0.86699 -3.27519 0
M  V30 9883 C 956.372 -0.569105 -3.72073 0
M  V30 9884 C 955.519 -1.07929 -2.55434 0
M  V30 9885 H 958.47 -1.02089 -1.21505 0
M  V30 9886 H 958.491 -0.174128 -3.80101 0
M  V30 9887 H 958.003 -1.94447 -3.35875 0
M  V30 9888 H 956.104 0.498607 -3.69249 0
M  V30 9889 H 956.217 -1.11918 -4.65845 0
M  V30 9890 H 954.581 -0.500465 -2.49735 0
M  V30 9891 H 955.364 -2.16339 -2.66556 0
M  V30 9892 N 957.809 1.4625 -0.587256 0
M  V30 9893 C 958.742 2.27392 0.191837 0
M  V30 9894 C 959.72 1.35905 0.89267 0
M  V30 9895 O 960.904 1.65319 0.905643 0
M  V30 9896 C 958.031 3.13758 1.27567 0
M  V30 9897 C 957.077 4.21041 0.680186 0
M  V30 9898 S 957.91 5.33194 -0.496419 0
M  V30 9899 C 959.066 6.23127 0.588506 0
M  V30 9900 H 959.299 2.93123 -0.496635 0
M  V30 9901 H 956.832 1.49795 -0.37426 0
M  V30 9902 H 958.79 3.6408 1.8962 0
M  V30 9903 H 957.451 2.47332 1.93612 0
M  V30 9904 H 956.644 4.81316 1.49503 0
M  V30 9905 H 956.246 3.73755 0.135227 0
M  V30 9906 H 958.538 6.61294 1.47298 0
M  V30 9907 H 959.481 7.08096 0.0224093 0
M  V30 9908 H 959.889 5.57365 0.894696 0
M  V30 9909 N 959.287 0.325282 1.54207 0
M  V30 9910 C 960.217 -0.532574 2.27345 0
M  V30 9911 C 961.198 -1.11791 1.28206 0
M  V30 9912 O 962.383 -1.14272 1.57021 0
M  V30 9913 C 959.513 -1.69274 3.03255 0
M  V30 9914 C 958.467 -1.23662 4.09746 0
M  V30 9915 C 957.793 -2.48386 4.73506 0
M  V30 9916 C 959.093 -0.350244 5.21124 0
M  V30 9917 H 960.787 0.0775108 2.993 0
M  V30 9918 H 958.333 0.0387193 1.43948 0
M  V30 9919 H 960.286 -2.29917 3.53152 0
M  V30 9920 H 959.01 -2.32944 2.28921 0
M  V30 9921 H 957.669 -0.653106 3.60735 0
M  V30 9922 H 957.317 -3.10424 3.95786 0
M  V30 9923 H 957.017 -2.18558 5.45441 0
M  V30 9924 H 958.541 -3.09789 5.26178 0
M  V30 9925 H 959.955 -0.863011 5.66767 0
M  V30 9926 H 958.352 -0.14466 5.99926 0
M  V30 9927 H 959.422 0.618457 4.8094 0
M  V30 9928 N 960.765 -1.57509 0.0534917 0
M  V30 9929 C 961.697 -2.08616 -0.949322 0
M  V30 9930 C 962.71 -1.01446 -1.27328 0
M  V30 9931 O 963.899 -1.29007 -1.23367 0
M  V30 9932 C 960.999 -2.51622 -2.27024 0
M  V30 9933 C 960.172 -3.82154 -2.12785 0
M  V30 9934 C 959.231 -4.11448 -3.2802 0
M  V30 9935 O 958.257 -4.81333 -3.03822 0
M  V30 9936 N 959.459 -3.63543 -4.52567 0
M  V30 9937 H 962.224 -2.95275 -0.5131 0
M  V30 9938 H 959.785 -1.61355 -0.132693 0
M  V30 9939 H 961.777 -2.68293 -3.02986 0
M  V30 9940 H 960.347 -1.70198 -2.62205 0
M  V30 9941 H 959.567 -3.75041 -1.21399 0
M  V30 9942 H 960.855 -4.67629 -2.00501 0
M  V30 9943 H 960.253 -3.07051 -4.75117 0
M  V30 9944 H 958.81 -3.85448 -5.25617 0
M  V30 9945 N 962.243 0.219913 -1.56058 0
M  V30 9946 C 963.654 0.786766 -1.69313 0
M  V30 9947 C 964.005 1.84916 -0.655782 0
M  V30 9948 O 963.13 2.1554 0.192772 0
M  V30 9949 C 963.725 1.43387 -3.06962 0
M  V30 9950 C 962.284 1.94809 -3.22066 0
M  V30 9951 C 961.431 0.808863 -2.65241 0
M  V30 9952 H 964.382 -0.00476777 -1.58699 0
M  V30 9953 H 964.403 2.30272 -3.02911 0
M  V30 9954 H 963.915 0.660405 -3.8244 0
M  V30 9955 H 962.016 2.74952 -2.5146 0
M  V30 9956 H 962.129 2.12694 -4.293 0
M  V30 9957 H 960.493 1.21661 -2.23765 0
M  V30 9958 H 961.276 0.0480458 -3.43266 0
M  V30 9959 N 963.721 1.49897 0.486681 0
M  V30 9960 C 964.651 1.7054 1.59494 0
M  V30 9961 C 965.632 0.554184 1.60819 0
M  V30 9962 O 966.817 0.791617 1.77333 0
M  V30 9963 C 963.947 1.78517 2.97908 0
M  V30 9964 C 962.901 2.93571 3.11449 0
M  V30 9965 C 962.227 2.86674 4.51356 0
M  V30 9966 C 963.527 4.34308 2.90127 0
M  V30 9967 H 965.221 2.63329 1.42472 0
M  V30 9968 H 962.767 1.2672 0.683969 0
M  V30 9969 H 964.72 1.91544 3.75352 0
M  V30 9970 H 963.444 0.823381 3.16051 0
M  V30 9971 H 962.103 2.80169 2.36433 0
M  V30 9972 H 961.751 1.88373 4.66395 0
M  V30 9973 H 961.451 3.63903 4.61355 0
M  V30 9974 H 962.975 3.01728 5.30841 0
M  V30 9975 H 964.389 4.48317 3.57331 0
M  V30 9976 H 962.786 5.12869 3.11585 0
M  V30 9977 H 963.856 4.47759 1.86119 0
M  V30 9978 N 965.199 -0.738761 1.39212 0
M  V30 9979 C 966.162 -1.83441 1.37412 0
M  V30 9980 C 967.162 -1.58484 0.271908 0
M  V30 9981 O 968.352 -1.65954 0.529609 0
M  V30 9982 C 965.484 -3.21167 1.143 0
M  V30 9983 H 966.677 -1.86441 2.34904 0
M  V30 9984 H 964.23 -0.942023 1.24722 0
M  V30 9985 H 964.965 -3.23829 0.174756 0
M  V30 9986 H 964.75 -3.40678 1.94116 0
M  V30 9987 H 966.24 -4.01231 1.15773 0
M  V30 9988 N 966.677 -1.24326 -0.968545 0
M  V30 9989 C 967.607 -1.05951 -2.08079 0
M  V30 9990 C 968.588 0.0272666 -1.70078 0
M  V30 9991 O 969.773 -0.139644 -1.93697 0
M  V30 9992 C 966.903 -0.662623 -3.4092 0
M  V30 9993 C 965.857 -1.69807 -3.92873 0
M  V30 9994 C 965.183 -1.15628 -5.22048 0
M  V30 9995 C 966.483 -3.09383 -4.20808 0
M  V30 9996 H 968.177 -1.98984 -2.23709 0
M  V30 9997 H 965.723 -0.958112 -1.075 0
M  V30 9998 H 967.676 -0.521071 -4.18166 0
M  V30 9999 H 966.4 0.303399 -3.25188 0
M  V30 10000 H 965.059 -1.82783 -3.17783 0
M  V30 10001 H 964.707 -0.180888 -5.02675 0
M  V30 10002 H 964.407 -1.84822 -5.57776 0
M  V30 10003 H 965.931 -1.02683 -6.01904 0
M  V30 10004 H 967.345 -2.99642 -4.88761 0
M  V30 10005 H 965.742 -3.75923 -4.67763 0
M  V30 10006 H 966.812 -3.57486 -3.27616 0
M  V30 10007 N 968.156 1.1691 -1.05688 0
M  V30 10008 C 969.567 1.68915 -0.795273 0
M  V30 10009 C 969.918 1.83968 0.681925 0
M  V30 10010 O 969.043 1.53083 1.52953 0
M  V30 10011 C 969.638 3.06814 -1.43703 0
M  V30 10012 C 968.197 3.55965 -1.22335 0
M  V30 10013 C 967.344 2.32099 -1.51741 0
M  V30 10014 H 970.295 1.01357 -1.22116 0
M  V30 10015 H 970.316 3.70907 -0.849016 0
M  V30 10016 H 969.828 2.95826 -2.51214 0
M  V30 10017 H 967.929 3.72222 -0.16771 0
M  V30 10018 H 968.042 4.38427 -1.9318 0
M  V30 10019 H 966.406 2.36811 -0.937696 0
M  V30 10020 H 967.189 2.23715 -2.60397 0
M  V30 10021 N 969.634 0.838594 1.33437 0
M  V30 10022 C 971.045 0.490934 1.8013 0
M  V30 10023 C 971.396 -0.990024 1.6939 0
M  V30 10024 O 970.521 -1.77139 1.24302 0
M  V30 10025 C 971.116 0.884347 3.27055 0
M  V30 10026 C 969.675 0.588829 3.71766 0
M  V30 10027 C 968.822 1.09282 2.54858 0
M  V30 10028 H 971.773 1.02732 1.20962 0
M  V30 10029 H 971.794 0.194283 3.80004 0
M  V30 10030 H 971.306 1.96225 3.34839 0
M  V30 10031 H 969.407 -0.479018 3.69508 0
M  V30 10032 H 969.52 1.14387 4.65245 0
M  V30 10033 H 967.884 0.513702 2.49466 0
M  V30 10034 H 968.667 2.1775 2.65405 0
M  V30 10035 N 971.112 -1.45937 0.595003 0
M  V30 10036 C 972.36 -2.01921 0.0851368 0
M  V30 10037 C 972.681 -1.46748 -1.28413 0
M  V30 10038 O 971.951 -0.656873 -1.84559 0
M  V30 10039 H 970.531 -0.746457 0.0284826 0
M  V30 10040 H 973.193 -1.78891 0.773561 0
M  V30 10041 H 972.289 -3.1209 0.0254002 0
M  V30 10042 N 972.59 -0.333456 -1.54032 0
M  V30 10043 C 973.52 0.52051 -2.27625 0
M  V30 10044 C 974.501 1.1111 -1.28797 0
M  V30 10045 O 975.686 1.13438 -1.57625 0
M  V30 10046 C 972.816 1.67663 -3.04149 0
M  V30 10047 C 971.77 1.21487 -4.10396 0
M  V30 10048 C 971.096 2.45872 -4.74817 0
M  V30 10049 C 972.396 0.322603 -5.21303 0
M  V30 10050 H 974.09 -0.0933823 -2.99254 0
M  V30 10051 H 971.636 -0.0463526 -1.43925 0
M  V30 10052 H 973.589 2.28041 -3.54366 0
M  V30 10053 H 972.313 2.31727 -2.30153 0
M  V30 10054 H 970.972 0.633966 -3.61077 0
M  V30 10055 H 970.62 3.0832 -3.97426 0
M  V30 10056 H 970.32 2.15662 -5.46593 0
M  V30 10057 H 971.844 3.06994 -5.27814 0
M  V30 10058 H 973.258 0.832942 -5.67217 0
M  V30 10059 H 971.655 0.112843 -5.99994 0
M  V30 10060 H 972.725 -0.643954 -4.80605 0
M  V30 10061 N 974.068 1.57479 -0.061844 0
M  V30 10062 C 975.293 1.97843 0.622311 0
M  V30 10063 C 975.718 0.939602 1.62951 0
M  V30 10064 O 975.076 -0.095958 1.81046 0
M  V30 10065 C 975.124 3.37262 1.2762 0
M  V30 10066 O 974.228 3.35943 2.39199 0
M  V30 10067 H 973.569 0.644212 0.160896 0
M  V30 10068 H 976.099 2.04165 -0.133409 0
M  V30 10069 H 976.109 3.74226 1.62539 0
M  V30 10070 H 974.784 4.12404 0.538112 0
M  V30 10071 H 973.361 3.10737 2.06148 0
M  V30 10072 N 975.546 -0.211634 1.56173 0
M  V30 10073 C 976.792 -0.935935 1.79911 0
M  V30 10074 C 977.125 -1.83589 0.633155 0
M  V30 10075 O 976.4 -1.91004 -0.367132 0
M  V30 10076 C 976.683 -1.76638 3.13801 0
M  V30 10077 C 976.536 -0.892259 4.40861 0
M  V30 10078 C 977.855 -2.74224 3.44223 0
M  V30 10079 H 974.974 -0.338822 0.654499 0
M  V30 10080 H 977.616 -0.20422 1.88899 0
M  V30 10081 H 975.766 -2.39021 3.0627 0
M  V30 10082 H 977.438 -0.284407 4.60422 0
M  V30 10083 H 975.681 -0.198145 4.33347 0
M  V30 10084 H 976.352 -1.50793 5.31004 0
M  V30 10085 H 978.828 -2.21975 3.51946 0
M  V30 10086 H 977.704 -3.29424 4.39057 0
M  V30 10087 H 977.965 -3.52455 2.66885 0
M  V30 10088 N 977.024 -1.50153 -0.478725 0
M  V30 10089 C 977.974 -1.64848 -1.57509 0
M  V30 10090 C 978.958 -0.503327 -1.52825 0
M  V30 10091 O 980.15 -0.75737 -1.59978 0
M  V30 10092 C 977.279 -1.73893 -2.96 0
M  V30 10093 C 976.365 -2.9406 -3.05597 0
M  V30 10094 N 976.756 -4.17844 -2.85027 0
M  V30 10095 C 975.054 -2.92459 -3.36725 0
M  V30 10096 C 975.755 -4.98739 -2.9939 0
M  V30 10097 N 974.731 -4.32542 -3.29255 0
M  V30 10098 H 978.533 -2.58254 -1.40293 0
M  V30 10099 H 976.047 -1.47232 -0.685307 0
M  V30 10100 H 978.044 -1.82523 -3.74821 0
M  V30 10101 H 976.704 -0.816402 -3.14269 0
M  V30 10102 H 977.715 -4.47465 -2.60759 0
M  V30 10103 H 974.392 -2.09675 -3.6103 0
M  V30 10104 H 975.782 -6.07146 -2.8779 0
M  V30 10105 N 978.502 0.731368 -1.39602 0
M  V30 10106 C 979.434 1.85575 -1.34516 0
M  V30 10107 C 980.447 1.60818 -0.253287 0
M  V30 10108 O 981.636 1.70984 -0.512505 0
M  V30 10109 C 978.736 3.21673 -1.06676 0
M  V30 10110 C 977.909 3.73757 -2.27211 0
M  V30 10111 C 976.968 4.88426 -1.95773 0
M  V30 10112 O 975.994 5.01898 -2.68491 0
M  V30 10113 N 977.196 5.73065 -0.926083 0
M  V30 10114 H 979.961 1.90442 -2.31413 0
M  V30 10115 H 977.522 0.912258 -1.33752 0
M  V30 10116 H 979.514 3.95959 -0.836577 0
M  V30 10117 H 978.084 3.12052 -0.185003 0
M  V30 10118 H 977.304 2.90781 -2.66158 0
M  V30 10119 H 978.592 4.05289 -3.07601 0
M  V30 10120 H 977.99 5.64774 -0.323497 0
M  V30 10121 H 976.547 6.47403 -0.755795 0
M  V30 10122 N 979.98 1.24838 0.961938 0
M  V30 10123 C 980.943 1.04674 2.03902 0
M  V30 10124 C 981.943 0.00204674 1.608 0
M  V30 10125 O 983.133 0.243555 1.72489 0
M  V30 10126 C 980.265 0.587736 3.35795 0
M  V30 10127 H 981.458 2.00278 2.23223 0
M  V30 10128 H 979.011 1.07142 1.138 0
M  V30 10129 H 979.746 -0.371244 3.22168 0
M  V30 10130 H 979.531 1.34182 3.68426 0
M  V30 10131 H 981.021 0.467867 4.14971 0
M  V30 10132 N 981.458 -1.16348 1.06306 0
M  V30 10133 C 982.388 -2.2291 0.695234 0
M  V30 10134 C 983.369 -1.67208 -0.312343 0
M  V30 10135 O 984.554 -1.93293 -0.187442 0
M  V30 10136 C 981.684 -3.47205 0.0810149 0
M  V30 10137 C 980.638 -4.15801 1.01458 0
M  V30 10138 C 979.964 -5.3405 0.263656 0
M  V30 10139 C 981.264 -4.66766 2.34365 0
M  V30 10140 H 982.958 -2.53934 1.58613 0
M  V30 10141 H 980.504 -1.22056 0.76409 0
M  V30 10142 H 982.457 -4.2098 -0.18818 0
M  V30 10143 H 981.181 -3.15482 -0.844897 0
M  V30 10144 H 979.84 -3.43954 1.26852 0
M  V30 10145 H 979.488 -4.9858 -0.665378 0
M  V30 10146 H 979.188 -5.80885 0.88582 0
M  V30 10147 H 980.712 -6.106 0.00200994 0
M  V30 10148 H 982.126 -5.3212 2.13356 0
M  V30 10149 H 980.523 -5.24223 2.9208 0
M  V30 10150 H 981.593 -3.82969 2.97426 0
M  V30 10151 N 982.937 -0.845659 -1.3299 0
M  V30 10152 C 983.847 -0.2864 -2.32845 0
M  V30 10153 C 984.863 0.591105 -1.63652 0
M  V30 10154 O 986.039 0.493615 -1.95257 0
M  V30 10155 C 983.104 0.523636 -3.42723 0
M  V30 10156 C 982.165 -0.378945 -4.27624 0
M  V30 10157 C 981.398 0.392526 -5.32255 0
M  V30 10158 O 981.621 1.6235 -5.46808 0
M  V30 10159 O 980.555 -0.237 -6.01433 0
M  V30 10160 H 984.381 -1.11346 -2.82552 0
M  V30 10161 H 981.966 -0.608356 -1.36453 0
M  V30 10162 H 983.848 0.983718 -4.09757 0
M  V30 10163 H 982.523 1.32764 -2.95221 0
M  V30 10164 H 981.43 -0.887012 -3.63432 0
M  V30 10165 H 982.763 -1.1479 -4.78627 0
M  V30 10166 N 984.415 1.45619 -0.602734 0
M  V30 10167 C 985.831 1.57368 -0.26599 0
M  V30 10168 C 986.031 1.59485 1.23154 0
M  V30 10169 O 985.087 1.52254 2.01432 0
M  V30 10170 C 986.4 2.85863 -0.932881 0
M  V30 10171 C 987.948 2.9953 -0.908344 0
M  V30 10172 C 988.423 4.30789 -1.55515 0
M  V30 10173 N 989.914 4.37536 -1.52042 0
M  V30 10174 C 990.649 5.37758 -1.99008 0
M  V30 10175 N 990.145 6.44544 -2.54038 0
M  V30 10176 N 991.938 5.29085 -1.89805 0
M  V30 10177 H 984.089 1.42489 -1.57514 0
M  V30 10178 H 986.352 0.680948 -0.659556 0
M  V30 10179 H 986.058 2.90183 -1.98713 0
M  V30 10180 H 985.932 3.74467 -0.453209 0
M  V30 10181 H 988.319 2.9478 0.137344 0
M  V30 10182 H 988.4 2.12349 -1.42623 0
M  V30 10183 H 988.044 4.36297 -2.60014 0
M  V30 10184 H 987.974 5.16778 -1.01232 0
M  V30 10185 H 990.465 3.60972 -1.11837 0
M  V30 10186 H 990.778 7.17258 -2.87682 0
M  V30 10187 H 989.123 6.45308 -2.58075 0
M  V30 10188 H 992.314 4.44566 -1.46556 0
M  V30 10189 H 992.487 6.07043 -2.26722 0
M  V30 10190 N 985.893 0.34162 1.53853 0
M  V30 10191 C 987.139 -0.255862 2.01179 0
M  V30 10192 C 987.472 -1.50356 1.22909 0
M  V30 10193 O 986.747 -1.91913 0.316198 0
M  V30 10194 C 987.03 -0.571934 3.55529 0
M  V30 10195 C 986.883 0.687727 4.44511 0
M  V30 10196 C 988.202 -1.38233 4.17827 0
M  V30 10197 H 985.321 -0.091521 0.731295 0
M  V30 10198 H 987.963 0.461775 1.84303 0
M  V30 10199 H 986.113 -1.18331 3.70041 0
M  V30 10200 H 987.785 1.32572 4.4184 0
M  V30 10201 H 986.028 1.313 4.13452 0
M  V30 10202 H 986.699 0.421858 5.50386 0
M  V30 10203 H 989.175 -0.865374 4.07002 0
M  V30 10204 H 988.051 -1.57223 5.25901 0
M  V30 10205 H 988.312 -2.38386 3.72323 0
M  V30 10206 N 987.371 -1.57444 0.0701946 0
M  V30 10207 C 988.301 -2.15659 -0.895176 0
M  V30 10208 C 989.282 -1.08321 -1.31151 0
M  V30 10209 O 990.467 -1.36349 -1.38284 0
M  V30 10210 C 987.597 -2.71693 -2.16334 0
M  V30 10211 C 986.551 -3.84183 -1.88645 0
M  V30 10212 C 985.877 -4.26814 -3.22078 0
M  V30 10213 C 987.177 -5.08493 -1.19299 0
M  V30 10214 H 988.871 -2.96576 -0.410217 0
M  V30 10215 H 986.417 -1.42662 -0.195872 0
M  V30 10216 H 988.37 -3.11064 -2.84284 0
M  V30 10217 H 987.094 -1.87994 -2.67069 0
M  V30 10218 H 985.753 -3.45314 -1.23101 0
M  V30 10219 H 985.401 -3.40039 -3.70651 0
M  V30 10220 H 985.101 -5.02642 -3.04344 0
M  V30 10221 H 986.625 -4.68799 -3.91228 0
M  V30 10222 H 988.039 -5.4519 -1.77316 0
M  V30 10223 H 986.436 -5.89588 -1.11828 0
M  V30 10224 H 987.506 -4.84595 -0.171839 0
M  V30 10225 N 988.849 0.203349 -1.56283 0
M  V30 10226 C 990.265 0.55384 -1.49682 0
M  V30 10227 C 990.465 1.86261 -0.768701 0
M  V30 10228 O 989.521 2.50517 -0.315824 0
M  V30 10229 C 990.834 0.616216 -2.94318 0
M  V30 10230 C 992.382 0.705611 -3.04943 0
M  V30 10231 C 992.857 0.79917 -4.50974 0
M  V30 10232 N 994.348 0.862916 -4.55091 0
M  V30 10233 C 995.083 0.955334 -5.65386 0
M  V30 10234 N 994.579 1.01057 -6.8539 0
M  V30 10235 N 996.372 0.991884 -5.53279 0
M  V30 10236 H 988.523 -0.655244 -2.0204 0
M  V30 10237 H 990.786 -0.232344 -0.919087 0
M  V30 10238 H 990.492 -0.27619 -3.50614 0
M  V30 10239 H 990.366 1.47371 -3.4722 0
M  V30 10240 H 992.753 1.58845 -2.48701 0
M  V30 10241 H 992.834 -0.177921 -2.5518 0
M  V30 10242 H 992.478 -0.0792841 -5.07838 0
M  V30 10243 H 992.408 1.69838 -4.9846 0
M  V30 10244 H 994.899 0.829812 -3.68677 0
M  V30 10245 H 995.212 1.08137 -7.65197 0
M  V30 10246 H 993.557 0.979384 -6.88065 0
M  V30 10247 H 996.748 0.945514 -4.58451 0
M  V30 10248 H 996.921 1.06045 -6.39264 0
M  V30 10249 N 990.327 1.50405 0.470755 0
M  V30 10250 C 991.257 1.72222 1.57676 0
M  V30 10251 C 992.238 0.57121 1.60222 0
M  V30 10252 O 993.423 0.810381 1.76484 0
M  V30 10253 C 990.553 1.81666 2.95998 0
M  V30 10254 C 989.507 2.96857 3.08318 0
M  V30 10255 C 988.833 2.91445 4.4829 0
M  V30 10256 C 990.133 4.37361 2.85504 0
M  V30 10257 H 991.827 2.64825 1.39671 0
M  V30 10258 H 989.373 1.27438 0.67049 0
M  V30 10259 H 991.326 1.95514 3.73299 0
M  V30 10260 H 990.05 0.856856 3.1516 0
M  V30 10261 H 988.709 2.82661 2.33449 0
M  V30 10262 H 988.357 1.93309 4.64371 0
M  V30 10263 H 988.057 3.68776 4.57469 0
M  V30 10264 H 989.581 3.07341 5.27611 0
M  V30 10265 H 990.995 4.52081 3.52555 0
M  V30 10266 H 989.392 5.16145 3.06127 0
M  V30 10267 H 990.462 4.49708 1.81359 0
M  V30 10268 N 991.805 -0.723954 1.39988 0
M  V30 10269 C 993.216 -1.30273 1.33738 0
M  V30 10270 C 993.567 -1.96199 0.00690581 0
M  V30 10271 O 992.692 -1.97016 -0.895179 0
M  V30 10272 C 993.287 -2.36889 2.42217 0
M  V30 10273 C 991.846 -2.90412 2.39453 0
M  V30 10274 C 990.993 -1.64103 2.2353 0
M  V30 10275 H 993.944 -0.520672 1.49916 0
M  V30 10276 H 993.965 -3.17538 2.09642 0
M  V30 10277 H 993.477 -1.88878 3.39038 0
M  V30 10278 H 991.578 -3.42674 1.46304 0
M  V30 10279 H 991.691 -3.42775 3.34727 0
M  V30 10280 H 990.055 -1.88855 1.70897 0
M  V30 10281 H 990.838 -1.18128 3.22336 0
M  V30 10282 N 993.283 -1.25346 -0.955304 0
M  V30 10283 C 994.246 -1.05754 -2.03344 0
M  V30 10284 C 995.246 -0.0105743 -1.60797 0
M  V30 10285 O 996.436 -0.252699 -1.72357 0
M  V30 10286 C 993.568 -0.605536 -3.35479 0
M  V30 10287 H 994.761 -2.01459 -2.22158 0
M  V30 10288 H 992.314 -1.07744 -1.1323 0
M  V30 10289 H 993.049 0.354154 -3.2236 0
M  V30 10290 H 992.834 -1.36134 -3.67709 0
M  V30 10291 H 994.324 -0.489867 -4.14717 0
M  V30 10292 N 994.761 1.15782 -1.06922 0
M  V30 10293 C 996.007 1.86741 -0.790922 0
M  V30 10294 C 996.34 1.81863 0.681149 0
M  V30 10295 O 995.615 1.23871 1.49954 0
M  V30 10296 C 995.898 3.36038 -1.29422 0
M  V30 10297 C 995.751 3.49573 -2.83052 0
M  V30 10298 C 997.07 4.30647 -0.907239 0
M  V30 10299 H 994.189 0.678064 -0.288787 0
M  V30 10300 H 996.831 1.36054 -1.32624 0
M  V30 10301 H 994.981 3.79336 -0.838843 0
M  V30 10302 H 996.653 3.1517 -3.36847 0
M  V30 10303 H 994.896 2.91275 -3.21467 0
M  V30 10304 H 995.567 4.5445 -3.13335 0
M  V30 10305 H 998.043 3.95286 -1.29956 0
M  V30 10306 H 996.919 5.33604 -1.28679 0
M  V30 10307 H 997.18 4.41703 0.187251 0
M  V30 10308 N 996.239 0.8527 1.3254 0
M  V30 10309 C 997.202 0.300959 2.27215 0
M  V30 10310 C 998.202 -0.538235 1.51525 0
M  V30 10311 O 999.392 -0.350027 1.70647 0
M  V30 10312 C 996.524 -0.574428 3.36025 0
M  V30 10313 H 997.717 1.13655 2.77529 0
M  V30 10314 H 995.27 0.626878 1.43178 0
M  V30 10315 H 996.005 -1.43191 2.90976 0
M  V30 10316 H 995.79 0.0262265 3.92091 0
M  V30 10317 H 997.28 -0.9533 4.06573 0
M  V30 10318 N 997.718 -1.45297 0.610449 0
M  V30 10319 C 998.943 -2.07101 0.111414 0
M  V30 10320 C 999.368 -1.45161 -1.19625 0
M  V30 10321 O 998.726 -0.545368 -1.72903 0
M  V30 10322 C 998.774 -3.60598 -0.0117372 0
M  V30 10323 O 997.878 -3.98512 -1.06122 0
M  V30 10324 H 997.219 -0.659709 0.075364 0
M  V30 10325 H 999.749 -1.86504 0.841269 0
M  V30 10326 H 999.759 -4.07464 -0.209028 0
M  V30 10327 H 998.434 -4.05067 0.943076 0
M  V30 10328 H 997.011 -3.63312 -0.840158 0
M  V30 10329 N 999.196 -0.349774 -1.5367 0
M  V30 10330 C 1000.14 0.504121 -2.25227 0
M  V30 10331 C 1001.11 1.09048 -1.2529 0
M  V30 10332 O 1002.3 1.12594 -1.54037 0
M  V30 10333 C 999.438 1.64601 -3.03316 0
M  V30 10334 C 998.551 1.08635 -4.18118 0
M  V30 10335 C 997.686 2.19605 -4.83681 0
M  V30 10336 C 996.725 1.61023 -5.90541 0
M  V30 10337 N 995.862 2.6576 -6.49858 0
M  V30 10338 H 1000.7 -0.112621 -2.97787 0
M  V30 10339 H 998.239 -0.0673503 -1.46946 0
M  V30 10340 H 1000.2 2.31836 -3.46854 0
M  V30 10341 H 998.827 2.23364 -2.33041 0
M  V30 10342 H 997.879 0.304748 -3.79177 0
M  V30 10343 H 999.191 0.617911 -4.94958 0
M  V30 10344 H 998.345 2.94693 -5.30322 0
M  V30 10345 H 997.084 2.69795 -4.06278 0
M  V30 10346 H 996.089 0.844428 -5.43277 0
M  V30 10347 H 997.314 1.11677 -6.69855 0
M  V30 10348 H 995.26 3.15193 -5.75317 0
M  V30 10349 H 995.177 2.23557 -7.2219 0
M  V30 10350 H 996.445 3.40598 -7.01151 0
M  V30 10351 N 1000.67 1.57404 -0.0785433 0
M  V30 10352 C 1002.09 1.57158 0.2781 0
M  V30 10353 C 1002.29 1.08847 1.69572 0
M  V30 10354 O 1001.35 0.757407 2.40873 0
M  V30 10355 C 1002.66 3.00589 0.0816067 0
M  V30 10356 C 1004.21 3.12637 0.150627 0
M  V30 10357 C 1004.68 4.57997 -0.0176685 0
M  V30 10358 N 1006.17 4.63185 0.0377145 0
M  V30 10359 C 1006.91 5.7336 -0.0679907 0
M  V30 10360 N 1006.4 6.92426 -0.227598 0
M  V30 10361 N 1008.2 5.62099 -0.0104424 0
M  V30 10362 H 1000.35 1.87121 -1.00496 0
M  V30 10363 H 1002.61 0.862937 -0.392484 0
M  V30 10364 H 1002.32 3.40072 -0.896869 0
M  V30 10365 H 1002.19 3.67931 0.831046 0
M  V30 10366 H 1004.58 2.73037 1.11959 0
M  V30 10367 H 1004.66 2.4792 -0.630028 0
M  V30 10368 H 1004.3 4.98288 -0.983431 0
M  V30 10369 H 1004.23 5.20754 0.782475 0
M  V30 10370 H 1006.72 3.77564 0.159208 0
M  V30 10371 H 1007.04 7.72217 -0.300217 0
M  V30 10372 H 1005.38 6.94502 -0.263049 0
M  V30 10373 H 1008.57 4.67964 0.112999 0
M  V30 10374 H 1008.75 6.47928 -0.0962747 0
M  V30 10375 N 1002.15 -0.195058 1.56388 0
M  V30 10376 C 1003.38 -0.930291 1.8447 0
M  V30 10377 C 1003.79 -1.77356 0.658901 0
M  V30 10378 O 1003.13 -1.79691 -0.381664 0
M  V30 10379 C 1003.19 -1.87626 3.06654 0
M  V30 10380 C 1002.86 -1.21494 4.40555 0
M  V30 10381 C 1003.86 -0.591847 5.1652 0
M  V30 10382 C 1001.54 -1.21878 4.8729 0
M  V30 10383 C 1003.53 0.0185743 6.37397 0
M  V30 10384 C 1001.22 -0.604524 6.08103 0
M  V30 10385 C 1002.22 0.0130731 6.82999 0
M  V30 10386 O 1001.91 0.617703 8.01523 0
M  V30 10387 H 1001.64 -0.276933 0.616672 0
M  V30 10388 H 1004.19 -0.207277 2.04351 0
M  V30 10389 H 1002.42 -2.63897 2.82658 0
M  V30 10390 H 1004.11 -2.47929 3.21382 0
M  V30 10391 H 1004.88 -0.581018 4.81507 0
M  V30 10392 H 1000.76 -1.68888 4.2895 0
M  V30 10393 H 1004.3 0.50124 6.95797 0
M  V30 10394 H 1000.2 -0.612855 6.42584 0
M  V30 10395 H 1000.97 0.514612 8.16881 0
M  V30 10396 N 1003.63 -1.50653 -0.462772 0
M  V30 10397 C 1004.56 -1.73056 -1.5676 0
M  V30 10398 C 1005.54 -0.579699 -1.59917 0
M  V30 10399 O 1006.73 -0.819729 -1.76051 0
M  V30 10400 C 1003.86 -1.83234 -2.9503 0
M  V30 10401 C 1002.81 -2.98488 -3.06739 0
M  V30 10402 C 1002.14 -2.93818 -4.46738 0
M  V30 10403 C 1003.44 -4.38869 -2.83181 0
M  V30 10404 H 1005.13 -2.65562 -1.38265 0
M  V30 10405 H 1002.68 -1.27792 -0.663722 0
M  V30 10406 H 1004.63 -1.97491 -3.72257 0
M  V30 10407 H 1003.35 -0.873558 -3.14701 0
M  V30 10408 H 1002.01 -2.83895 -2.31946 0
M  V30 10409 H 1001.66 -1.95769 -4.63339 0
M  V30 10410 H 1001.36 -3.71197 -4.55507 0
M  V30 10411 H 1002.88 -3.10135 -5.25974 0
M  V30 10412 H 1004.3 -4.53945 -3.50153 0
M  V30 10413 H 1002.69 -5.17762 -3.03386 0
M  V30 10414 H 1003.76 -4.50663 -1.78972 0
M  V30 10415 N 1005.11 0.71652 -1.4037 0
M  V30 10416 C 1006.34 1.50563 -1.4191 0
M  V30 10417 C 1006.75 1.88791 -0.0185456 0
M  V30 10418 O 1006.11 1.55378 0.957289 0
M  V30 10419 C 1006.16 2.78155 -2.30894 0
M  V30 10420 O 1005.88 2.41543 -3.65497 0
M  V30 10421 C 1007.38 3.72057 -2.41016 0
M  V30 10422 H 1004.6 0.464679 -0.48406 0
M  V30 10423 H 1007.15 0.883927 -1.8441 0
M  V30 10424 H 1005.3 3.36611 -1.91759 0
M  V30 10425 H 1005.71 3.23636 -4.12747 0
M  V30 10426 H 1007.19 4.58426 -3.07489 0
M  V30 10427 H 1007.67 4.15098 -1.43492 0
M  V30 10428 H 1008.27 3.19512 -2.80699 0
M  V30 10429 N 1006.59 1.25851 0.948643 0
M  V30 10430 C 1007.53 1.06559 2.06756 0
M  V30 10431 C 1008.53 -0.00528632 1.69399 0
M  V30 10432 O 1009.73 0.150806 1.79367 0
M  V30 10433 H 1006.11 0.327689 0.676848 0
M  V30 10434 H 1008.08 2.01401 2.20182 0
M  V30 10435 C 1006.83 0.707392 3.40428 0
M  V30 10436 H 1006.15 1.52324 3.69645 0
M  V30 10437 H 1007.59 0.612142 4.19558 0
M  V30 10438 C 1006.05 -0.58697 3.31747 0
M  V30 10439 O 1006.58 -1.62741 3.67258 0
M  V30 10440 N 1004.79 -0.574828 2.84858 0
M  V30 10441 H 1004.33 0.272236 2.56157 0
M  V30 10442 H 1004.29 -1.441 2.79432 0
M  V30 10443 N 1008.06 -1.15214 1.07534 0
M  V30 10444 C 1009.01 -2.20013 0.697337 0
M  V30 10445 C 1009.98 -1.6314 -0.312168 0
M  V30 10446 O 1011.17 -1.89768 -0.198196 0
M  V30 10447 C 1008.31 -3.44945 0.103293 0
M  V30 10448 C 1007.42 -4.16009 1.1645 0
M  V30 10449 C 1006.55 -5.28496 0.535261 0
M  V30 10450 C 1005.59 -5.9138 1.57912 0
M  V30 10451 N 1004.73 -6.95335 0.972332 0
M  V30 10452 H 1009.57 -2.51698 1.59538 0
M  V30 10453 H 1007.11 -1.2361 0.797431 0
M  V30 10454 H 1009.07 -4.16397 -0.258766 0
M  V30 10455 H 1007.7 -3.13772 -0.758096 0
M  V30 10456 H 1006.75 -3.43035 1.64411 0
M  V30 10457 H 1008.06 -4.58853 1.9559 0
M  V30 10458 H 1007.21 -6.06579 0.120942 0
M  V30 10459 H 1005.95 -4.8685 -0.287889 0
M  V30 10460 H 1004.96 -5.12008 2.0032 0
M  V30 10461 H 1006.18 -6.35103 2.40459 0
M  V30 10462 H 1004.13 -6.55779 0.170119 0
M  V30 10463 H 1004.05 -7.36616 1.70095 0
M  V30 10464 H 1005.31 -7.77312 0.583577 0
M  V30 10465 N 1009.54 -0.859717 -1.32086 0
M  V30 10466 C 1010.79 -0.466271 -1.97367 0
M  V30 10467 C 1011.12 0.976728 -1.6785 0
M  V30 10468 O 1010.4 1.68618 -0.969449 0
M  V30 10469 C 1010.68 -0.711851 -3.52994 0
M  V30 10470 C 1010.53 -2.20364 -3.92122 0
M  V30 10471 C 1011.85 -0.17156 -4.39765 0
M  V30 10472 H 1008.97 -0.170883 -0.716916 0
M  V30 10473 H 1011.61 -1.07907 -1.56384 0
M  V30 10474 H 1009.76 -0.190258 -3.88034 0
M  V30 10475 H 1011.43 -2.7917 -3.67236 0
M  V30 10476 H 1009.68 -2.68019 -3.41099 0
M  V30 10477 H 1010.35 -2.32615 -5.00594 0
M  V30 10478 H 1012.82 -0.617665 -4.1149 0
M  V30 10479 H 1011.7 -0.372921 -5.47632 0
M  V30 10480 H 1011.96 0.925959 -4.32294 0
M  V30 10481 N 1011.02 1.44971 -0.618145 0
M  V30 10482 C 1012.3 1.95539 -0.0489895 0
M  V30 10483 C 1012.68 1.5604 1.42179 0
M  V30 10484 O 1012.03 0.82809 2.12967 0
M  V30 10485 C 1012.24 3.48044 -0.258193 0
M  V30 10486 C 1013.58 4.24354 -0.144541 0
M  V30 10487 O 1014.61 3.55699 -0.18887 0
M  V30 10488 O 1013.47 5.46486 -0.038519 0
M  V30 10489 H 1010.56 0.826466 0.0297256 0
M  V30 10490 H 1013.11 1.55086 -0.688944 0
M  V30 10491 H 1011.88 3.69798 -1.27926 0
M  V30 10492 H 1011.5 3.95412 0.416522 0
M  V30 10493 N 1012.5 0.357919 1.53482 0
M  V30 10494 C 1013.91 0.00655107 1.59599 0
M  V30 10495 C 1014.11 -1.47449 1.37336 0
M  V30 10496 O 1013.17 -2.2351 1.17472 0
M  V30 10497 C 1014.48 0.455617 2.97228 0
M  V30 10498 C 1016.03 0.409183 3.10314 0
M  V30 10499 C 1016.51 0.833941 4.50344 0
M  V30 10500 N 1018 0.788695 4.56436 0
M  V30 10501 C 1018.73 1.08914 5.62961 0
M  V30 10502 N 1018.23 1.45847 6.77274 0
M  V30 10503 N 1020.02 1.01243 5.52907 0
M  V30 10504 H 1012.17 1.32248 1.66206 0
M  V30 10505 H 1014.44 0.540047 0.779136 0
M  V30 10506 H 1014.14 1.48881 3.18634 0
M  V30 10507 H 1014.02 -0.161751 3.76853 0
M  V30 10508 H 1016.4 -0.614863 2.88623 0
M  V30 10509 H 1016.48 1.06195 2.32715 0
M  V30 10510 H 1016.13 1.85607 4.72771 0
M  V30 10511 H 1016.06 0.158507 5.26361 0
M  V30 10512 H 1018.55 0.516497 3.74354 0
M  V30 10513 H 1018.86 1.67218 7.54492 0
M  V30 10514 H 1017.21 1.49705 6.78685 0
M  V30 10515 H 1020.4 0.723137 4.62481 0
M  V30 10516 H 1020.57 1.24991 6.35831 0
M  V30 10517 N 1013.98 -1.5736 0.0868897 0
M  V30 10518 C 1015.2 -1.98809 -0.590757 0
M  V30 10519 C 1015.63 -0.965407 -1.61436 0
M  V30 10520 O 1014.98 0.067143 -1.81176 0
M  V30 10521 C 1015.03 -3.39249 -1.22238 0
M  V30 10522 O 1014.14 -3.39706 -2.33824 0
M  V30 10523 H 1013.48 -0.64669 -0.150626 0
M  V30 10524 H 1016.01 -2.03927 0.165873 0
M  V30 10525 H 1016.02 -3.76765 -1.56564 0
M  V30 10526 H 1014.69 -4.13208 -0.472434 0
M  V30 10527 H 1013.27 -3.13977 -2.01178 0
M  V30 10528 N 1015.45 0.186762 -1.56489 0
M  V30 10529 C 1016.7 0.907194 -1.81378 0
M  V30 10530 C 1017.03 1.82558 -0.662283 0
M  V30 10531 O 1016.31 1.91564 0.336699 0
M  V30 10532 C 1016.59 1.71624 -3.16571 0
M  V30 10533 C 1016.44 0.822009 -4.42225 0
M  V30 10534 C 1017.76 2.68713 -3.48542 0
M  V30 10535 H 1014.88 0.328366 -0.659806 0
M  V30 10536 H 1017.52 0.174142 -1.892 0
M  V30 10537 H 1015.67 2.34119 -3.10033 0
M  V30 10538 H 1017.35 0.211122 -4.60817 0
M  V30 10539 H 1015.59 0.129178 -4.33608 0
M  V30 10540 H 1016.26 1.42326 -5.33336 0
M  V30 10541 H 1018.74 2.16348 -3.55433 0
M  V30 10542 H 1017.61 3.22397 -4.44242 0
M  V30 10543 H 1017.87 3.48165 -2.72459 0
M  V30 10544 N 1016.93 1.50896 0.454776 0
M  V30 10545 C 1018.18 1.62378 1.20324 0
M  V30 10546 C 1018.5 0.333883 1.9212 0
M  V30 10547 O 1017.77 -0.649477 1.8482 0
M  V30 10548 H 1016.35 0.598395 0.447139 0
M  V30 10549 H 1019.01 1.87749 0.523102 0
M  V30 10550 H 1018.11 2.44296 1.94232 0
M  V30 10551 N 1018.41 -0.709066 1.40748 0
M  V30 10552 C 1019.66 -1.46611 1.39103 0
M  V30 10553 C 1019.98 -1.95 -0.00365366 0
M  V30 10554 O 1019.25 -1.70791 -0.959541 0
M  V30 10555 H 1017.83 -0.543954 0.511979 0
M  V30 10556 H 1020.49 -0.840141 1.75863 0
M  V30 10557 H 1019.59 -2.33581 2.06994 0
M  V30 10558 N 1019.89 -1.26353 -0.941956 0
M  V30 10559 C 1020.82 -1.10341 -2.05784 0
M  V30 10560 C 1021.8 -0.00881565 -1.70098 0
M  V30 10561 O 1022.99 -0.180699 -1.93357 0
M  V30 10562 C 1020.12 -0.734788 -3.39438 0
M  V30 10563 C 1019.07 -1.78103 -3.89183 0
M  V30 10564 C 1018.4 -1.26675 -5.19478 0
M  V30 10565 C 1019.7 -3.1824 -4.14151 0
M  V30 10566 H 1021.39 -2.03684 -2.19438 0
M  V30 10567 H 1018.94 -0.980698 -1.05443 0
M  V30 10568 H 1020.89 -0.609653 -4.16967 0
M  V30 10569 H 1019.61 0.234354 -3.25758 0
M  V30 10570 H 1018.27 -1.89482 -3.13835 0
M  V30 10571 H 1017.92 -0.287472 -5.02178 0
M  V30 10572 H 1017.62 -1.96612 -5.53731 0
M  V30 10573 H 1019.14 -1.15427 -5.99591 0
M  V30 10574 H 1020.56 -3.09942 -4.82296 0
M  V30 10575 H 1018.95 -3.8576 -4.59684 0
M  V30 10576 H 1020.02 -3.64354 -3.19959 0
M  V30 10577 N 1021.37 1.14642 -1.08144 0
M  V30 10578 C 1022.61 1.85892 -0.810683 0
M  V30 10579 C 1022.95 1.82575 0.661821 0
M  V30 10580 O 1022.22 1.25454 1.48632 0
M  V30 10581 C 1022.5 3.34647 -1.32979 0
M  V30 10582 C 1022.36 3.46551 -2.86744 0
M  V30 10583 C 1023.68 4.29661 -0.952864 0
M  V30 10584 H 1020.8 0.674963 -0.295963 0
M  V30 10585 H 1023.44 1.3464 -1.3406 0
M  V30 10586 H 1021.59 3.78425 -0.87903 0
M  V30 10587 H 1023.26 3.11579 -3.40171 0
M  V30 10588 H 1021.5 2.87849 -3.24539 0
M  V30 10589 H 1022.17 4.51101 -3.18138 0
M  V30 10590 H 1024.65 3.93885 -1.34141 0
M  V30 10591 H 1023.53 5.32209 -1.34331 0
M  V30 10592 H 1023.79 4.41877 0.140392 0
M  V30 10593 N 1022.85 0.866709 1.31628 0
M  V30 10594 C 1023.81 0.325041 2.26883 0
M  V30 10595 C 1024.81 -0.522133 1.52087 0
M  V30 10596 O 1026 -0.331908 1.71009 0
M  V30 10597 C 1023.13 -0.538756 3.36616 0
M  V30 10598 H 1024.32 1.16592 2.76308 0
M  V30 10599 H 1021.88 0.642029 1.42505 0
M  V30 10600 H 1022.61 -1.40096 2.92478 0
M  V30 10601 H 1022.4 0.0678115 3.92041 0
M  V30 10602 H 1023.89 -0.910123 4.07562 0
M  V30 10603 N 1024.32 -1.44642 0.625825 0
M  V30 10604 C 1025.26 -2.28882 -0.120614 0
M  V30 10605 C 1026.27 -1.40985 -0.81407 0
M  V30 10606 O 1027.46 -1.65188 -0.676404 0
M  V30 10607 C 1024.56 -3.17217 -1.19274 0
M  V30 10608 C 1023.73 -4.33499 -0.582839 0
M  V30 10609 C 1022.79 -5.02908 -1.54823 0
M  V30 10610 O 1021.82 -5.59102 -1.06743 0
M  V30 10611 N 1023.02 -5.0387 -2.88262 0
M  V30 10612 H 1025.78 -2.93585 0.602318 0
M  V30 10613 H 1023.34 -1.5503 0.466604 0
M  V30 10614 H 1025.34 -3.60515 -1.83878 0
M  V30 10615 H 1023.91 -2.54301 -1.81797 0
M  V30 10616 H 1023.13 -3.93458 0.241696 0
M  V30 10617 H 1024.41 -5.08561 -0.155914 0
M  V30 10618 H 1023.81 -4.59539 -3.2991 0
M  V30 10619 H 1022.37 -5.50974 -3.4824 0
M  V30 10620 N 1025.8 -0.366053 -1.5329 0
M  V30 10621 C 1026.73 0.514916 -2.23341 0
M  V30 10622 C 1027.75 1.04579 -1.24768 0
M  V30 10623 O 1028.94 0.952084 -1.50989 0
M  V30 10624 C 1026.04 1.72374 -2.91788 0
M  V30 10625 C 1025.21 1.32429 -4.16871 0
M  V30 10626 C 1024.27 2.39524 -4.68524 0
M  V30 10627 O 1023.29 2.01895 -5.32191 0
M  V30 10628 N 1024.5 3.71116 -4.46378 0
M  V30 10629 H 1027.26 -0.0851272 -2.99579 0
M  V30 10630 H 1024.82 -0.191255 -1.60766 0
M  V30 10631 H 1026.81 2.43496 -3.23252 0
M  V30 10632 H 1025.38 2.23064 -2.19 0
M  V30 10633 H 1024.6 0.442901 -3.91704 0
M  V30 10634 H 1025.89 1.03372 -4.98188 0
M  V30 10635 H 1025.29 4.04463 -3.95508 0
M  V30 10636 H 1023.85 4.38341 -4.82391 0
M  V30 10637 N 1027.28 1.57312 -0.0952337 0
M  V30 10638 C 1028.21 2.11059 0.893678 0
M  V30 10639 C 1029.22 1.04787 1.24594 0
M  V30 10640 O 1030.41 1.32233 1.19903 0
M  V30 10641 C 1027.51 2.57552 2.20272 0
M  V30 10642 C 1026.69 3.87661 2.02578 0
M  V30 10643 C 1025.75 4.2 3.16996 0
M  V30 10644 O 1024.77 4.89219 2.90953 0
M  V30 10645 N 1025.97 3.75414 4.42769 0
M  V30 10646 H 1028.74 2.96532 0.434632 0
M  V30 10647 H 1026.3 1.6165 0.0898661 0
M  V30 10648 H 1028.29 2.76232 2.95766 0
M  V30 10649 H 1026.86 1.7709 2.576 0
M  V30 10650 H 1026.08 3.78128 1.11413 0
M  V30 10651 H 1027.37 4.7278 1.88032 0
M  V30 10652 H 1026.77 3.1954 4.66809 0
M  V30 10653 H 1025.32 3.99249 5.15212 0
M  V30 10654 N 1028.76 -0.17846 1.56586 0
M  V30 10655 C 1030 -0.90281 1.83381 0
M  V30 10656 C 1030.36 -1.79738 0.675139 0
M  V30 10657 O 1031.56 -2.55879 0.823368 0
M  V30 10658 C 1029.83 -1.68353 3.15265 0
M  V30 10659 S 1031.39 -2.45762 3.6352 0
M  V30 10660 H 1028.21 -0.302508 0.643436 0
M  V30 10661 H 1030.81 -0.164961 1.94803 0
M  V30 10662 H 1029.52 -1.01725 3.97593 0
M  V30 10663 H 1029.05 -2.46289 3.06766 0
M  V30 10664 H 1031.06 -3.70312 3.30278 0
M  V30 10665 N 1030.24 -1.51135 -0.446768 0
M  V30 10666 C 1031.48 -1.63578 -1.19875 0
M  V30 10667 C 1031.81 -0.346478 -1.91084 0
M  V30 10668 O 1031.09 0.653447 -1.83195 0
M  V30 10669 C 1031.37 -2.83275 -2.22323 0
M  V30 10670 C 1031.23 -4.22155 -1.55259 0
M  V30 10671 C 1032.54 -2.98496 -3.23401 0
M  V30 10672 H 1029.66 -0.595333 -0.434452 0
M  V30 10673 H 1032.31 -1.83593 -0.48923 0
M  V30 10674 H 1030.46 -2.6634 -2.82834 0
M  V30 10675 H 1032.13 -4.50736 -0.981571 0
M  V30 10676 H 1030.37 -4.25288 -0.855122 0
M  V30 10677 H 1031.04 -5.01882 -2.29823 0
M  V30 10678 H 1033.52 -3.14079 -2.72935 0
M  V30 10679 H 1032.39 -3.83828 -3.92386 0
M  V30 10680 H 1032.65 -2.10157 -3.88956 0
M  V30 10681 N 1031.71 0.701592 -1.41122 0
M  V30 10682 C 1032.96 1.45871 -1.39879 0
M  V30 10683 C 1033.28 1.94999 -0.00668769 0
M  V30 10684 O 1032.55 1.71298 0.95047 0
M  V30 10685 H 1031.13 0.541231 -0.514857 0
M  V30 10686 H 1033.79 0.830803 -1.76306 0
M  V30 10687 H 1032.89 2.32479 -2.0823 0
M  V30 10688 N 1033.19 1.2685 0.935242 0
M  V30 10689 C 1034.6 1.11569 1.49697 0
M  V30 10690 C 1034.95 -0.301952 1.93863 0
M  V30 10691 O 1034.08 -1.19408 1.80473 0
M  V30 10692 C 1034.67 2.01918 2.72056 0
M  V30 10693 C 1033.23 1.90765 3.24477 0
M  V30 10694 C 1032.38 1.94918 1.97237 0
M  V30 10695 H 1035.33 1.39853 0.750116 0
M  V30 10696 H 1035.35 1.57056 3.46574 0
M  V30 10697 H 1034.86 3.05088 2.39881 0
M  V30 10698 H 1032.96 0.905521 3.61429 0
M  V30 10699 H 1033.08 2.76611 3.91182 0
M  V30 10700 H 1031.44 1.39046 2.13397 0
M  V30 10701 H 1032.22 2.99729 1.67385 0
M  V30 10702 N 1034.67 -1.14067 1.0875 0
M  V30 10703 C 1035.6 -2.21385 0.74236 0
M  V30 10704 C 1036.58 -1.67833 -0.276805 0
M  V30 10705 O 1037.77 -1.93647 -0.1464 0
M  V30 10706 C 1034.9 -3.46956 0.154644 0
M  V30 10707 C 1033.85 -4.13555 1.10255 0
M  V30 10708 C 1033.18 -5.3337 0.376877 0
M  V30 10709 C 1034.48 -4.6169 2.44213 0
M  V30 10710 H 1036.17 -2.50512 1.63964 0
M  V30 10711 H 1033.72 -1.20408 0.789807 0
M  V30 10712 H 1035.67 -4.21284 -0.0988419 0
M  V30 10713 H 1034.39 -3.17203 -0.777789 0
M  V30 10714 H 1033.05 -3.41186 1.34119 0
M  V30 10715 H 1032.7 -4.99879 -0.559472 0
M  V30 10716 H 1032.4 -5.78875 1.00884 0
M  V30 10717 H 1033.92 -6.10458 0.131527 0
M  V30 10718 H 1035.34 -5.27475 2.24595 0
M  V30 10719 H 1033.74 -5.17909 3.03134 0
M  V30 10720 H 1034.81 -3.76574 3.05483 0
M  V30 10721 N 1036.15 -0.873678 -1.31166 0
M  V30 10722 C 1037.08 -0.289389 -2.27366 0
M  V30 10723 C 1038.09 0.549667 -1.5324 0
M  V30 10724 O 1039.28 0.371056 -1.74601 0
M  V30 10725 C 1036.38 0.60807 -3.334 0
M  V30 10726 C 1035.56 -0.199379 -4.36945 0
M  V30 10727 C 1034.61 0.626798 -5.22454 0
M  V30 10728 O 1033.64 0.0535121 -5.69175 0
M  V30 10729 N 1034.84 1.93809 -5.47191 0
M  V30 10730 H 1037.61 -1.1161 -2.78143 0
M  V30 10731 H 1035.17 -0.735529 -1.44228 0
M  V30 10732 H 1037.16 1.16656 -3.87522 0
M  V30 10733 H 1035.73 1.33545 -2.82638 0
M  V30 10734 H 1034.95 -0.939316 -3.82845 0
M  V30 10735 H 1036.24 -0.75329 -5.03193 0
M  V30 10736 H 1035.64 2.42693 -5.10995 0
M  V30 10737 H 1034.19 2.44428 -6.04234 0
M  V30 10738 N 1037.63 1.44308 -0.633487 0
M  V30 10739 C 1038.85 2.06384 -0.146063 0
M  V30 10740 C 1039.27 1.47357 1.18031 0
M  V30 10741 O 1038.63 0.597334 1.72448 0
M  V30 10742 C 1038.68 3.61489 -0.0276722 0
M  V30 10743 O 1038.4 4.18318 -1.3016 0
M  V30 10744 C 1039.9 4.40604 0.488168 0
M  V30 10745 H 1037.12 0.666122 -0.0807632 0
M  V30 10746 H 1039.66 1.85139 -0.868557 0
M  V30 10747 H 1037.82 3.81988 0.645273 0
M  V30 10748 H 1038.23 5.11783 -1.14797 0
M  V30 10749 H 1039.71 5.49545 0.520013 0
M  V30 10750 H 1040.18 4.12218 1.51568 0
M  V30 10751 H 1040.79 4.2503 -0.151608 0
M  V30 10752 N 1039.1 0.374177 1.53094 0
M  V30 10753 C 1040.52 -0.103172 1.86415 0
M  V30 10754 C 1040.87 -1.47439 1.29446 0
M  V30 10755 O 1039.99 -2.07333 0.619853 0
M  V30 10756 C 1040.59 -0.193988 3.38244 0
M  V30 10757 C 1039.15 -0.615605 3.71332 0
M  V30 10758 C 1038.29 0.23186 2.76329 0
M  V30 10759 H 1041.24 0.592644 1.47219 0
M  V30 10760 H 1041.26 -1.01597 3.66686 0
M  V30 10761 H 1040.78 0.80414 3.79678 0
M  V30 10762 H 1038.88 -1.62165 3.3546 0
M  V30 10763 H 1038.99 -0.38425 4.77557 0
M  V30 10764 H 1037.35 -0.300579 2.5292 0
M  V30 10765 H 1038.14 1.22769 3.20597 0
M  V30 10766 N 1040.58 -1.57259 0.103575 0
M  V30 10767 C 1041.51 -2.17509 -0.84923 0
M  V30 10768 C 1042.49 -1.11079 -1.28824 0
M  V30 10769 O 1043.68 -1.39252 -1.35361 0
M  V30 10770 C 1040.81 -2.76221 -2.10522 0
M  V30 10771 C 1039.76 -3.88098 -1.80454 0
M  V30 10772 C 1039.09 -4.33549 -3.12952 0
M  V30 10773 C 1040.39 -5.10909 -1.08486 0
M  V30 10774 H 1042.08 -2.9738 -0.347217 0
M  V30 10775 H 1039.63 -1.43045 -0.165568 0
M  V30 10776 H 1041.58 -3.17024 -2.77621 0
M  V30 10777 H 1040.31 -1.93617 -2.63021 0
M  V30 10778 H 1038.96 -3.47847 -1.15749 0
M  V30 10779 H 1038.61 -3.47825 -3.63355 0
M  V30 10780 H 1038.31 -5.08984 -2.93614 0
M  V30 10781 H 1039.84 -4.76992 -3.81196 0
M  V30 10782 H 1041.25 -5.48828 -1.65711 0
M  V30 10783 H 1039.65 -5.91828 -0.992973 0
M  V30 10784 H 1040.72 -4.84851 -0.0690108 0
M  V30 10785 N 1042.06 0.170153 -1.56679 0
M  V30 10786 C 1043.02 1.19443 -1.95617 0
M  V30 10787 C 1044.02 1.37118 -0.83996 0
M  V30 10788 O 1045.21 1.34504 -1.10699 0
M  V30 10789 C 1042.35 2.55926 -2.25199 0
M  V30 10790 H 1043.54 0.86095 -2.87276 0
M  V30 10791 H 1041.09 0.412646 -1.50755 0
M  V30 10792 H 1041.83 2.94286 -1.36257 0
M  V30 10793 H 1041.61 2.44464 -3.06562 0
M  V30 10794 H 1043.1 3.29742 -2.56242 0
M  V30 10795 N 1043.54 1.5137 0.438746 0
M  V30 10796 C 1044.82 1.54508 1.19944 0
M  V30 10797 C 1045.2 0.308525 2.08833 0
M  V30 10798 O 1044.54 -0.706461 2.17305 0
M  V30 10799 C 1044.75 2.85833 2.00251 0
M  V30 10800 C 1046.1 3.37729 2.5734 0
M  V30 10801 O 1047.13 2.87374 2.10463 0
M  V30 10802 O 1045.98 4.25589 3.42836 0
M  V30 10803 H 1043.08 0.621132 0.546007 0
M  V30 10804 H 1045.62 1.63682 0.447931 0
M  V30 10805 H 1044.4 3.67291 1.34955 0
M  V30 10806 H 1044.02 2.79815 2.8247 0
M  V30 10807 N 1045.02 -0.694098 1.41492 0
M  V30 10808 C 1046.26 -1.4563 1.41137 0
M  V30 10809 C 1046.6 -1.94189 0.0208428 0
M  V30 10810 O 1045.87 -1.69628 -0.951655 0
M  V30 10811 C 1046.15 -2.66714 2.41941 0
M  V30 10812 C 1046.01 -2.23912 3.90107 0
M  V30 10813 C 1047.33 -3.68913 2.39981 0
M  V30 10814 H 1044.44 -0.52821 0.513968 0
M  V30 10815 H 1047.09 -0.790437 1.72778 0
M  V30 10816 H 1045.24 -3.23525 2.1509 0
M  V30 10817 H 1046.91 -1.72417 4.27867 0
M  V30 10818 H 1045.15 -1.5568 4.04903 0
M  V30 10819 H 1045.82 -3.108 4.56188 0
M  V30 10820 H 1048.3 -3.21779 2.63813 0
M  V30 10821 H 1047.17 -4.51242 3.12524 0
M  V30 10822 H 1047.44 -4.18711 1.41892 0
M  V30 10823 N 1046.49 -1.27344 -0.928501 0
M  V30 10824 C 1047.46 -1.10043 -2.01055 0
M  V30 10825 C 1048.46 -0.0446793 -1.60738 0
M  V30 10826 O 1049.65 -0.289202 -1.71783 0
M  V30 10827 C 1046.78 -0.676559 -3.34119 0
M  V30 10828 H 1047.97 -2.06126 -2.17835 0
M  V30 10829 H 1045.53 -1.10121 -1.10919 0
M  V30 10830 H 1046.26 0.285697 -3.23039 0
M  V30 10831 H 1046.05 -1.43903 -3.64739 0
M  V30 10832 H 1047.54 -0.577725 -4.13584 0
M  V30 10833 N 1047.97 1.13488 -1.09353 0
M  V30 10834 C 1049.22 1.85022 -0.830354 0
M  V30 10835 C 1049.55 1.83266 0.64242 0
M  V30 10836 O 1048.83 1.27024 1.47293 0
M  V30 10837 C 1049.11 3.33218 -1.36521 0
M  V30 10838 C 1048.96 3.43491 -2.90404 0
M  V30 10839 C 1050.28 4.28626 -0.998381 0
M  V30 10840 H 1047.4 0.671786 -0.303105 0
M  V30 10841 H 1050.04 1.33211 -1.3548 0
M  V30 10842 H 1048.19 3.77471 -0.919117 0
M  V30 10843 H 1049.86 3.07954 -3.43456 0
M  V30 10844 H 1048.11 2.84391 -3.27573 0
M  V30 10845 H 1048.78 4.47702 -3.22905 0
M  V30 10846 H 1051.25 3.9244 -1.38311 0
M  V30 10847 H 1050.13 5.30754 -1.39968 0
M  V30 10848 H 1050.39 4.42001 0.093517 0
M  V30 10849 N 1049.45 0.880621 1.30701 0
M  V30 10850 C 1050.7 0.497611 1.966 0
M  V30 10851 C 1051.03 -0.949901 1.69383 0
M  V30 10852 O 1050.31 -1.67054 0.996152 0
M  V30 10853 C 1050.59 0.767919 3.51817 0
M  V30 10854 C 1050.44 2.26574 3.88567 0
M  V30 10855 C 1051.76 0.241502 4.39437 0
M  V30 10856 H 1048.88 0.182267 0.714106 0
M  V30 10857 H 1051.52 1.10382 1.54648 0
M  V30 10858 H 1049.67 0.251967 3.87682 0
M  V30 10859 H 1051.34 2.84977 3.62748 0
M  V30 10860 H 1049.59 2.73411 3.36792 0
M  V30 10861 H 1050.26 2.40549 4.9683 0
M  V30 10862 H 1052.73 0.683051 4.10455 0
M  V30 10863 H 1051.61 0.459997 5.46969 0
M  V30 10864 H 1051.87 -0.857068 4.33713 0
M  V30 10865 N 1050.93 -1.4397 0.641131 0
M  V30 10866 C 1051.89 -2.29149 -0.0482243 0
M  V30 10867 C 1052.89 -1.41572 -0.762495 0
M  V30 10868 O 1054.08 -1.63335 -0.605571 0
M  V30 10869 C 1051.21 -3.23375 -1.07896 0
M  V30 10870 H 1052.41 -2.9159 0.70109 0
M  V30 10871 H 1049.96 -1.51048 0.401754 0
M  V30 10872 H 1050.7 -2.65804 -1.85792 0
M  V30 10873 H 1050.48 -3.87926 -0.570597 0
M  V30 10874 H 1051.97 -3.87337 -1.56075 0
M  V30 10875 N 1052.41 -0.382291 -1.52893 0
M  V30 10876 C 1053.34 0.447829 -2.29165 0
M  V30 10877 C 1054.32 1.06956 -1.32267 0
M  V30 10878 O 1055.5 1.08365 -1.61154 0
M  V30 10879 C 1052.63 1.57902 -3.09329 0
M  V30 10880 C 1051.59 1.08369 -4.14053 0
M  V30 10881 C 1050.91 2.30641 -4.82399 0
M  V30 10882 C 1052.21 0.156591 -5.22065 0
M  V30 10883 H 1053.91 -0.188541 -2.98806 0
M  V30 10884 H 1051.45 -0.0921179 -1.43705 0
M  V30 10885 H 1053.41 2.16652 -3.61442 0
M  V30 10886 H 1052.13 2.24287 -2.37409 0
M  V30 10887 H 1050.79 0.518772 -3.62911 0
M  V30 10888 H 1050.44 2.9552 -4.07034 0
M  V30 10889 H 1050.14 1.98163 -5.53177 0
M  V30 10890 H 1051.66 2.90047 -5.37313 0
M  V30 10891 H 1053.08 0.652065 -5.6958 0
M  V30 10892 H 1051.47 -0.0780978 -6.00049 0
M  V30 10893 H 1052.54 -0.796529 -4.78313 0
M  V30 10894 N 1053.89 1.57202 -0.111913 0
M  V30 10895 C 1055.11 1.99723 0.559054 0
M  V30 10896 C 1055.54 0.990968 1.59879 0
M  V30 10897 O 1054.89 -0.038311 1.8126 0
M  V30 10898 C 1054.94 3.41151 1.16826 0
M  V30 10899 O 1054.05 3.43383 2.2839 0
M  V30 10900 H 1053.39 0.649004 0.140319 0
M  V30 10901 H 1055.92 2.03637 -0.198295 0
M  V30 10902 H 1055.93 3.79208 1.50551 0
M  V30 10903 H 1054.6 4.13907 0.406637 0
M  V30 10904 H 1053.18 3.17138 1.96158 0
M  V30 10905 N 1055.36 -0.161842 1.56767 0
M  V30 10906 C 1056.31 -1.20506 1.93552 0
M  V30 10907 C 1057.3 -1.39317 0.804952 0
M  V30 10908 O 1058.49 -1.41129 1.06825 0
M  V30 10909 C 1055.62 -2.54227 2.30702 0
M  V30 10910 C 1054.7 -2.3907 3.50295 0
M  V30 10911 N 1055.1 -1.93642 4.67265 0
M  V30 10912 C 1053.39 -2.69868 3.55088 0
M  V30 10913 C 1054.09 -1.91175 5.49388 0
M  V30 10914 N 1053.07 -2.33935 4.90689 0
M  V30 10915 H 1056.87 -0.845687 2.8147 0
M  V30 10916 H 1054.39 -0.370034 1.58128 0
M  V30 10917 H 1056.38 -3.29623 2.55254 0
M  V30 10918 H 1055.04 -2.90959 1.44128 0
M  V30 10919 H 1056.05 -1.63834 4.91303 0
M  V30 10920 H 1052.73 -3.10574 2.79016 0
M  V30 10921 H 1054.12 -1.57671 6.53138 0
M  V30 10922 N 1056.84 -1.516 -0.430713 0
M  V30 10923 C 1057.75 -1.76247 -1.54836 0
M  V30 10924 C 1058.77 -0.646985 -1.61524 0
M  V30 10925 O 1059.94 -0.929987 -1.78643 0
M  V30 10926 C 1057.01 -1.88833 -2.90763 0
M  V30 10927 C 1056.07 -3.12701 -2.94137 0
M  V30 10928 C 1055.3 -3.24676 -4.23581 0
M  V30 10929 O 1055.53 -2.42429 -5.16318 0
M  V30 10930 O 1054.46 -4.17697 -4.33374 0
M  V30 10931 H 1058.29 -2.71069 -1.3695 0
M  V30 10932 H 1055.87 -1.36182 -0.614396 0
M  V30 10933 H 1057.75 -1.99057 -3.71422 0
M  V30 10934 H 1056.43 -0.971987 -3.08762 0
M  V30 10935 H 1055.33 -3.0795 -2.1241 0
M  V30 10936 H 1056.67 -4.04045 -2.81084 0
M  V30 10937 N 1058.32 0.686584 -1.41858 0
M  V30 10938 C 1059.23 1.83002 -1.46791 0
M  V30 10939 C 1060.25 1.70284 -0.357675 0
M  V30 10940 O 1061.42 1.92042 -0.606781 0
M  V30 10941 C 1058.49 3.19056 -1.35661 0
M  V30 10942 C 1057.55 3.43817 -2.57077 0
M  V30 10943 C 1056.78 4.7338 -2.46469 0
M  V30 10944 O 1057 5.50483 -1.49413 0
M  V30 10945 O 1055.94 4.99124 -3.36391 0
M  V30 10946 H 1059.76 1.81797 -2.43277 0
M  V30 10947 H 1057.35 0.840812 -1.23494 0
M  V30 10948 H 1059.23 4.00267 -1.31773 0
M  V30 10949 H 1057.91 3.20925 -0.422951 0
M  V30 10950 H 1056.81 2.625 -2.66541 0
M  V30 10951 H 1058.15 3.4677 -3.49302 0
M  V30 10952 N 1059.8 1.27835 0.921735 0
M  V30 10953 C 1060.73 1.136 2.04003 0
M  V30 10954 C 1061.71 0.0358756 1.70062 0
M  V30 10955 O 1062.89 0.211438 1.93046 0
M  V30 10956 C 1060.02 0.788697 3.38226 0
M  V30 10957 C 1058.98 1.84272 3.863 0
M  V30 10958 C 1058.3 1.34923 5.17397 0
M  V30 10959 C 1059.6 3.24788 4.09035 0
M  V30 10960 H 1061.3 2.07149 2.1617 0
M  V30 10961 H 1058.84 0.997349 1.0387 0
M  V30 10962 H 1060.8 0.675911 4.15944 0
M  V30 10963 H 1059.52 -0.182499 3.2609 0
M  V30 10964 H 1058.18 1.94451 3.1078 0
M  V30 10965 H 1057.83 0.367328 5.01657 0
M  V30 10966 H 1057.53 2.05397 5.50532 0
M  V30 10967 H 1059.05 1.24951 5.97678 0
M  V30 10968 H 1060.47 3.17575 4.77304 0
M  V30 10969 H 1058.86 3.93025 4.53488 0
M  V30 10970 H 1059.93 3.69398 3.14122 0
M  V30 10971 N 1061.28 -1.12907 1.09954 0
M  V30 10972 C 1062.52 -1.83661 0.833761 0
M  V30 10973 C 1062.84 -1.84736 -0.642798 0
M  V30 10974 O 1064.04 -2.51437 -1.0243 0
M  V30 10975 C 1062.5 -3.29763 1.44168 0
M  V30 10976 C 1062.11 -3.3706 2.95118 0
M  V30 10977 C 1063.85 -4.05522 1.25509 0
M  V30 10978 C 1061.76 -4.77467 3.48969 0
M  V30 10979 H 1060.69 -0.688115 0.308242 0
M  V30 10980 H 1063.34 -1.27166 1.32291 0
M  V30 10981 H 1061.72 -3.86094 0.880215 0
M  V30 10982 H 1062.9 -2.90695 3.57537 0
M  V30 10983 H 1061.21 -2.7477 3.12874 0
M  V30 10984 H 1063.81 -5.09188 1.63191 0
M  V30 10985 H 1064.15 -4.15837 0.196208 0
M  V30 10986 H 1064.68 -3.55536 1.78435 0
M  V30 10987 H 1061.42 -4.72344 4.54501 0
M  V30 10988 H 1060.94 -5.24305 2.91315 0
M  V30 10989 H 1062.62 -5.46397 3.46495 0
M  V30 10990 N 1062.75 -0.88754 -1.30232 0
M  V30 10991 C 1064 -0.506277 -1.95656 0
M  V30 10992 C 1064.32 0.948191 -1.70395 0
M  V30 10993 O 1063.59 1.66701 -1.02895 0
M  V30 10994 H 1062.17 -0.184235 -0.723924 0
M  V30 10995 H 1064.83 -1.13118 -1.58715 0
M  V30 10996 H 1063.93 -0.678673 -3.04632 0
M  V30 10997 N 1064.23 1.43628 -0.648757 0
M  V30 10998 C 1065.2 2.29172 0.0360713 0
M  V30 10999 C 1066.2 1.41974 0.754976 0
M  V30 11000 O 1067.39 1.63654 0.5969 0
M  V30 11001 C 1064.52 3.23942 1.0618 0
M  V30 11002 H 1065.71 2.91214 -0.716544 0
M  V30 11003 H 1063.26 1.50833 -0.409759 0
M  V30 11004 H 1064 2.66786 1.8438 0
M  V30 11005 H 1063.78 3.88223 0.550016 0
M  V30 11006 H 1065.27 3.8816 1.54019 0
M  V30 11007 N 1065.71 0.390394 1.52688 0
M  V30 11008 C 1066.67 -0.432149 2.25089 0
M  V30 11009 C 1067.67 -0.989296 1.26766 0
M  V30 11010 O 1068.86 -0.871126 1.50854 0
M  V30 11011 C 1066 -1.60642 3.00678 0
M  V30 11012 H 1067.19 0.201734 2.99221 0
M  V30 11013 H 1064.74 0.142531 1.55649 0
M  V30 11014 H 1065.48 -2.2777 2.3085 0
M  V30 11015 H 1065.26 -1.21361 3.72846 0
M  V30 11016 H 1066.75 -2.18873 3.55647 0
M  V30 11017 N 1067.19 -1.57141 0.120249 0
M  V30 11018 C 1068.42 -1.99589 -0.545136 0
M  V30 11019 C 1068.83 -0.999951 -1.60145 0
M  V30 11020 O 1068.19 0.00698897 -1.82499 0
M  V30 11021 C 1068.24 -3.42038 -1.17014 0
M  V30 11022 O 1067.96 -4.37822 -0.156044 0
M  V30 11023 C 1069.46 -3.99625 -1.91872 0
M  V30 11024 H 1066.68 -0.655318 -0.144222 0
M  V30 11025 H 1069.23 -2.0345 0.206955 0
M  V30 11026 H 1067.38 -3.39113 -1.873 0
M  V30 11027 H 1067.79 -5.20937 -0.610317 0
M  V30 11028 H 1069.27 -5.01374 -2.30928 0
M  V30 11029 H 1069.75 -3.38836 -2.7944 0
M  V30 11030 H 1070.35 -4.061 -1.26345 0
M  V30 11031 N 1068.67 0.153526 -1.5685 0
M  V30 11032 C 1069.63 1.17362 -1.96873 0
M  V30 11033 C 1070.63 1.36219 -0.854456 0
M  V30 11034 O 1071.82 1.33322 -1.1212 0
M  V30 11035 C 1068.95 2.53523 -2.27901 0
M  V30 11036 H 1070.14 0.830432 -2.88173 0
M  V30 11037 H 1067.7 0.396633 -1.51184 0
M  V30 11038 H 1068.43 2.92824 -1.39371 0
M  V30 11039 H 1068.22 2.41198 -3.09137 0
M  V30 11040 H 1069.71 3.27006 -2.59725 0
M  V30 11041 N 1070.14 1.51827 0.422667 0
M  V30 11042 C 1071.07 1.77152 1.52117 0
M  V30 11043 C 1072.06 0.621895 1.58324 0
M  V30 11044 O 1073.24 0.866118 1.73816 0
M  V30 11045 C 1070.37 1.90991 2.90068 0
M  V30 11046 C 1069.32 3.06516 2.98717 0
M  V30 11047 C 1068.65 3.05559 4.38791 0
M  V30 11048 C 1069.95 4.46223 2.71445 0
M  V30 11049 H 1071.64 2.69135 1.31175 0
M  V30 11050 H 1069.19 1.29507 0.629607 0
M  V30 11051 H 1071.14 2.07291 3.6689 0
M  V30 11052 H 1069.87 0.956688 3.12274 0
M  V30 11053 H 1068.53 2.89945 2.24338 0
M  V30 11054 H 1068.17 2.07985 4.57986 0
M  V30 11055 H 1067.87 3.83144 4.45505 0
M  V30 11056 H 1069.4 3.23971 5.17566 0
M  V30 11057 H 1070.81 4.63069 3.37994 0
M  V30 11058 H 1069.21 5.25623 2.89552 0
M  V30 11059 H 1070.28 4.5525 1.6696 0
M  V30 11060 N 1071.62 -0.679052 1.4222 0
M  V30 11061 C 1072.87 -1.43627 1.42182 0
M  V30 11062 C 1073.19 -1.94964 0.0377095 0
M  V30 11063 O 1072.46 -1.72788 -0.923098 0
M  V30 11064 H 1071.04 -0.532972 0.523402 0
M  V30 11065 H 1073.7 -0.802649 1.77605 0
M  V30 11066 H 1072.8 -2.29137 2.11902 0
M  V30 11067 N 1073.1 -1.28322 -0.914942 0
M  V30 11068 C 1074.01 -1.13993 -2.05043 0
M  V30 11069 C 1075.03 -0.0667921 -1.73872 0
M  V30 11070 O 1076.2 -0.275845 -1.99502 0
M  V30 11071 C 1073.27 -0.801856 -3.373 0
M  V30 11072 C 1072.33 -1.95723 -3.82088 0
M  V30 11073 C 1071.56 -1.63519 -5.08033 0
M  V30 11074 O 1071.78 -0.54899 -5.67752 0
M  V30 11075 O 1070.72 -2.47844 -5.48504 0
M  V30 11076 H 1074.54 -2.09313 -2.2005 0
M  V30 11077 H 1072.13 -1.0763 -1.03616 0
M  V30 11078 H 1074.01 -0.627214 -4.16706 0
M  V30 11079 H 1072.69 0.121696 -3.23471 0
M  V30 11080 H 1071.59 -2.18702 -3.03514 0
M  V30 11081 H 1072.93 -2.86144 -4.00478 0
M  V30 11082 N 1074.58 1.12322 -1.10551 0
M  V30 11083 C 1075.51 2.17819 -0.713263 0
M  V30 11084 C 1076.52 1.6086 0.250604 0
M  V30 11085 O 1077.71 1.78466 0.0348909 0
M  V30 11086 C 1074.81 3.38885 -0.0320325 0
M  V30 11087 C 1073.99 4.25332 -1.02038 0
M  V30 11088 C 1073.04 5.24895 -0.370412 0
M  V30 11089 O 1072.07 5.59958 -1.02157 0
M  V30 11090 N 1073.27 5.73934 0.870633 0
M  V30 11091 H 1076.04 2.52083 -1.62094 0
M  V30 11092 H 1073.6 1.27755 -0.994492 0
M  V30 11093 H 1075.59 4.02574 0.414285 0
M  V30 11094 H 1074.16 3.02762 0.778072 0
M  V30 11095 H 1073.38 3.5824 -1.64492 0
M  V30 11096 H 1074.67 4.79936 -1.68936 0
M  V30 11097 H 1074.07 5.47614 1.419 0
M  V30 11098 H 1072.62 6.39504 1.26008 0
M  V30 11099 N 1076.06 0.894434 1.2976 0
M  V30 11100 C 1077.47 0.566892 1.77885 0
M  V30 11101 C 1077.82 -0.917289 1.73437 0
M  V30 11102 O 1076.94 -1.71707 1.31703 0
M  V30 11103 C 1077.54 1.02227 3.2301 0
M  V30 11104 C 1076.1 0.745978 3.68934 0
M  V30 11105 C 1075.24 1.19993 2.49994 0
M  V30 11106 H 1078.2 1.0777 1.16496 0
M  V30 11107 H 1078.22 0.355281 3.78838 0
M  V30 11108 H 1077.73 2.1025 3.26215 0
M  V30 11109 H 1075.83 -0.321866 3.71207 0
M  V30 11110 H 1075.94 1.34017 4.59974 0
M  V30 11111 H 1074.31 0.619047 2.47063 0
M  V30 11112 H 1075.09 2.28811 2.55931 0
M  V30 11113 N 1077.53 -1.43282 0.656365 0
M  V30 11114 C 1078.78 -2.02075 0.171293 0
M  V30 11115 C 1079.11 -1.51682 -1.21269 0
M  V30 11116 O 1078.39 -0.711243 -1.81029 0
M  V30 11117 C 1078.67 -3.59621 0.185602 0
M  V30 11118 C 1078.52 -4.20239 1.60373 0
M  V30 11119 C 1079.84 -4.37515 -0.476289 0
M  V30 11120 H 1076.96 -0.73424 0.0637185 0
M  V30 11121 H 1079.6 -1.70539 0.837648 0
M  V30 11122 H 1077.75 -3.86619 -0.381804 0
M  V30 11123 H 1079.43 -4.0426 2.22197 0
M  V30 11124 H 1077.67 -3.76769 2.15006 0
M  V30 11125 H 1078.34 -5.29333 1.56557 0
M  V30 11126 H 1080.82 -4.16099 0.00651073 0
M  V30 11127 H 1079.69 -5.47169 -0.435562 0
M  V30 11128 H 1079.95 -4.14003 -1.55093 0
M  V30 11129 N 1079.01 -0.398486 -1.52479 0
M  V30 11130 C 1079.96 0.432212 -2.26717 0
M  V30 11131 C 1080.93 1.05007 -1.28696 0
M  V30 11132 O 1082.12 1.07636 -1.57541 0
M  V30 11133 C 1079.26 1.54868 -3.08399 0
M  V30 11134 C 1078.37 0.952779 -4.21362 0
M  V30 11135 C 1077.5 2.04106 -4.90423 0
M  V30 11136 C 1076.54 1.42153 -5.95364 0
M  V30 11137 N 1075.68 2.44951 -6.57984 0
M  V30 11138 H 1080.52 -0.207303 -2.97278 0
M  V30 11139 H 1078.06 -0.114066 -1.46657 0
M  V30 11140 H 1080.01 2.20684 -3.54054 0
M  V30 11141 H 1078.64 2.15837 -2.4003 0
M  V30 11142 H 1077.7 0.183962 -3.79955 0
M  V30 11143 H 1079.01 0.460131 -4.96673 0
M  V30 11144 H 1078.16 2.77672 -5.39429 0
M  V30 11145 H 1076.9 2.56733 -4.14656 0
M  V30 11146 H 1075.91 0.671161 -5.45688 0
M  V30 11147 H 1077.13 0.903093 -6.73068 0
M  V30 11148 H 1075.08 2.9673 -5.85053 0
M  V30 11149 H 1074.99 2.00468 -7.28937 0
M  V30 11150 H 1076.26 3.18119 -7.11632 0
M  V30 11151 N 1080.49 1.57075 -0.12858 0
M  V30 11152 C 1081.72 2.00305 0.537839 0
M  V30 11153 C 1082.14 1.00787 1.58819 0
M  V30 11154 O 1081.5 -0.0190839 1.8129 0
M  V30 11155 C 1081.55 3.42371 1.13201 0
M  V30 11156 O 1080.65 3.45786 2.24735 0
M  V30 11157 H 1079.99 0.650456 0.133428 0
M  V30 11158 H 1082.52 2.03415 -0.219882 0
M  V30 11159 H 1082.53 3.80783 1.4652 0
M  V30 11160 H 1081.21 4.14315 0.362713 0
M  V30 11161 H 1079.78 3.19201 1.92783 0
M  V30 11162 N 1081.97 -0.145205 1.5693 0
M  V30 11163 C 1082.9 -1.18096 2.01434 0
M  V30 11164 C 1083.88 -1.447 0.894204 0
M  V30 11165 O 1085.07 -1.55589 1.16214 0
M  V30 11166 C 1082.2 -2.51369 2.39647 0
M  V30 11167 C 1081.15 -2.39283 3.54863 0
M  V30 11168 C 1080.48 -3.77283 3.78895 0
M  V30 11169 C 1081.78 -1.8754 4.87469 0
M  V30 11170 H 1083.47 -0.810897 2.8821 0
M  V30 11171 H 1081.02 -0.388624 1.38657 0
M  V30 11172 H 1082.97 -3.24054 2.69382 0
M  V30 11173 H 1081.69 -2.90214 1.49811 0
M  V30 11174 H 1080.35 -1.6905 3.25296 0
M  V30 11175 H 1080 -4.13567 2.86307 0
M  V30 11176 H 1079.7 -3.70057 4.56433 0
M  V30 11177 H 1081.22 -4.51514 4.11057 0
M  V30 11178 H 1082.64 -2.50019 5.1591 0
M  V30 11179 H 1081.03 -1.912 5.68826 0
M  V30 11180 H 1082.1 -0.831194 4.77723 0
M  V30 11181 N 1083.45 -1.52049 -0.414609 0
M  V30 11182 C 1084.38 -1.77956 -1.51175 0
M  V30 11183 C 1085.36 -0.630282 -1.57992 0
M  V30 11184 O 1086.54 -0.875324 -1.73354 0
M  V30 11185 C 1083.67 -1.92527 -2.89051 0
M  V30 11186 C 1082.63 -3.08096 -2.97087 0
M  V30 11187 C 1081.95 -3.07882 -4.37164 0
M  V30 11188 C 1083.25 -4.47656 -2.69075 0
M  V30 11189 H 1084.95 -2.69827 -1.29746 0
M  V30 11190 H 1082.49 -1.29839 -0.62273 0
M  V30 11191 H 1084.45 -2.09234 -3.65786 0
M  V30 11192 H 1083.17 -0.973235 -3.11762 0
M  V30 11193 H 1081.83 -2.91131 -2.22797 0
M  V30 11194 H 1081.48 -2.10411 -4.56877 0
M  V30 11195 H 1081.18 -3.85501 -4.43467 0
M  V30 11196 H 1082.7 -3.26712 -5.15841 0
M  V30 11197 H 1084.12 -4.64855 -3.35534 0
M  V30 11198 H 1082.51 -5.27151 -2.8676 0
M  V30 11199 H 1083.58 -4.56129 -1.64544 0
M  V30 11200 N 1084.93 0.6715 -1.42579 0
M  V30 11201 C 1086.2 1.42766 -1.33706 0
M  V30 11202 C 1086.58 2.11086 0.0239748 0
M  V30 11203 O 1085.93 2.03479 1.03964 0
M  V30 11204 C 1086.14 2.42739 -2.50756 0
M  V30 11205 C 1087.49 3.07284 -2.93021 0
M  V30 11206 O 1088.51 2.53066 -2.50671 0
M  V30 11207 O 1087.37 4.05541 -3.66331 0
M  V30 11208 H 1084.47 0.636955 -0.527463 0
M  V30 11209 H 1087.01 0.699946 -1.54593 0
M  V30 11210 H 1085.78 1.91076 -3.41476 0
M  V30 11211 H 1085.41 3.22986 -2.31874 0
M  V30 11212 N 1086.4 1.28806 0.908124 0
M  V30 11213 C 1087.81 1.14719 1.47297 0
M  V30 11214 C 1088.17 -0.260763 1.94459 0
M  V30 11215 O 1087.29 -1.15553 1.82966 0
M  V30 11216 C 1087.89 2.07643 2.67712 0
M  V30 11217 C 1086.44 1.97605 3.20358 0
M  V30 11218 C 1085.59 1.99058 1.93058 0
M  V30 11219 H 1088.54 1.41413 0.720283 0
M  V30 11220 H 1088.56 1.64372 3.43165 0
M  V30 11221 H 1088.08 3.10108 2.33355 0
M  V30 11222 H 1086.18 0.981982 3.59427 0
M  V30 11223 H 1086.29 2.84846 3.85226 0
M  V30 11224 H 1084.65 1.43541 2.104 0
M  V30 11225 H 1085.44 3.03212 1.60989 0
M  V30 11226 N 1087.88 -1.11734 1.11145 0
M  V30 11227 C 1088.83 -2.17683 0.766979 0
M  V30 11228 C 1089.8 -1.64051 -0.260108 0
M  V30 11229 O 1090.98 -1.90302 -0.137723 0
M  V30 11230 C 1088.12 -3.44442 0.212982 0
M  V30 11231 C 1087.24 -4.12094 1.29626 0
M  V30 11232 C 1086.37 -5.26526 0.703127 0
M  V30 11233 C 1085.41 -5.86057 1.76647 0
M  V30 11234 N 1084.55 -6.91889 1.19306 0
M  V30 11235 H 1089.39 -2.46495 1.67465 0
M  V30 11236 H 1086.92 -1.21011 0.836353 0
M  V30 11237 H 1088.88 -4.17009 -0.126162 0
M  V30 11238 H 1087.51 -3.16025 -0.657888 0
M  V30 11239 H 1086.56 -3.37631 1.75241 0
M  V30 11240 H 1087.88 -4.52398 2.10089 0
M  V30 11241 H 1087.03 -6.05888 0.313859 0
M  V30 11242 H 1085.77 -4.87519 -0.132856 0
M  V30 11243 H 1084.77 -5.05375 2.16508 0
M  V30 11244 H 1086 -6.27132 2.60543 0
M  V30 11245 H 1083.95 -6.54906 0.378664 0
M  V30 11246 H 1083.86 -7.30832 1.93443 0
M  V30 11247 H 1085.13 -7.75062 0.830578 0
M  V30 11248 N 1089.36 -0.901303 -1.29284 0
M  V30 11249 C 1090.61 -0.528826 -1.95784 0
M  V30 11250 C 1090.94 0.922833 -1.70873 0
M  V30 11251 O 1090.21 1.65448 -1.0226 0
M  V30 11252 C 1090.5 -0.823793 -3.50551 0
M  V30 11253 C 1090.35 -2.32727 -3.84913 0
M  V30 11254 C 1091.67 -0.311382 -4.38997 0
M  V30 11255 H 1088.79 -0.193604 -0.711116 0
M  V30 11256 H 1091.43 -1.12828 -1.52872 0
M  V30 11257 H 1089.58 -0.313612 -3.87232 0
M  V30 11258 H 1091.25 -2.90712 -3.58168 0
M  V30 11259 H 1089.49 -2.78735 -3.32399 0
M  V30 11260 H 1090.17 -2.48423 -4.9294 0
M  V30 11261 H 1092.64 -0.748265 -4.09317 0
M  V30 11262 H 1091.52 -0.546957 -5.46168 0
M  V30 11263 H 1091.78 0.787959 -4.35021 0
M  V30 11264 N 1090.84 1.42931 -0.663954 0
M  V30 11265 C 1091.8 2.29197 0.0117626 0
M  V30 11266 C 1092.8 1.42767 0.739875 0
M  V30 11267 O 1093.99 1.64278 0.579509 0
M  V30 11268 C 1091.12 3.2505 1.02738 0
M  V30 11269 H 1092.32 2.90438 -0.747391 0
M  V30 11270 H 1089.87 1.5039 -0.425733 0
M  V30 11271 H 1090.6 2.68726 1.8154 0
M  V30 11272 H 1090.39 3.88785 0.508809 0
M  V30 11273 H 1091.88 3.89771 1.49893 0
M  V30 11274 N 1092.32 0.406567 1.52266 0
M  V30 11275 C 1093.28 -0.408251 2.25535 0
M  V30 11276 C 1094.28 -0.975795 1.27808 0
M  V30 11277 O 1095.47 -0.855077 1.5177 0
M  V30 11278 C 1092.6 -1.57443 3.02365 0
M  V30 11279 H 1093.79 0.233459 2.9899 0
M  V30 11280 H 1091.35 0.159032 1.55489 0
M  V30 11281 H 1092.08 -2.25308 2.33252 0
M  V30 11282 H 1091.87 -1.17399 3.74112 0
M  V30 11283 H 1093.36 -2.15088 3.57948 0
M  V30 11284 N 1093.79 -1.57004 0.136909 0
M  V30 11285 C 1095.21 -1.58082 -0.21958 0
M  V30 11286 C 1095.41 -1.15065 -1.65415 0
M  V30 11287 O 1094.47 -0.846284 -2.37896 0
M  V30 11288 C 1095.78 -3.00685 0.0300112 0
M  V30 11289 C 1097.33 -3.12981 -0.0344899 0
M  V30 11290 C 1097.8 -4.57615 0.187639 0
M  V30 11291 N 1099.29 -4.63005 0.134219 0
M  V30 11292 C 1100.03 -5.72712 0.280743 0
M  V30 11293 N 1099.52 -6.91104 0.48443 0
M  V30 11294 N 1101.32 -5.61673 0.219055 0
M  V30 11295 H 1093.47 -1.83262 1.07372 0
M  V30 11296 H 1095.73 -0.847776 0.424241 0
M  V30 11297 H 1095.44 -3.36509 1.02247 0
M  V30 11298 H 1095.31 -3.70762 -0.693918 0
M  V30 11299 H 1097.7 -2.77004 -1.01749 0
M  V30 11300 H 1097.78 -2.45411 0.721608 0
M  V30 11301 H 1097.42 -4.94295 1.16769 0
M  V30 11302 H 1097.35 -5.23299 -0.588661 0
M  V30 11303 H 1099.84 -3.77895 -0.0189681 0
M  V30 11304 H 1100.16 -7.7057 0.586613 0
M  V30 11305 H 1098.5 -6.93047 0.520627 0
M  V30 11306 H 1101.69 -4.68061 0.0607606 0
M  V30 11307 H 1101.87 -6.47125 0.336683 0
M  V30 11308 N 1095.27 0.136881 -1.57004 0
M  V30 11309 C 1096.2 1.17026 -2.02057 0
M  V30 11310 C 1097.18 1.44223 -0.901866 0
M  V30 11311 O 1098.37 1.54971 -1.17037 0
M  V30 11312 C 1095.5 2.50095 -2.40977 0
M  V30 11313 C 1094.45 2.37398 -3.56127 0
M  V30 11314 C 1093.78 3.75268 -3.80891 0
M  V30 11315 C 1095.08 1.84952 -4.88457 0
M  V30 11316 H 1096.77 0.795601 -2.88636 0
M  V30 11317 H 1094.32 0.381266 -1.38861 0
M  V30 11318 H 1096.27 3.22621 -2.71097 0
M  V30 11319 H 1095 2.89416 -1.51348 0
M  V30 11320 H 1093.65 1.67322 -3.26188 0
M  V30 11321 H 1093.3 4.12043 -2.88496 0
M  V30 11322 H 1093 3.67631 -4.5839 0
M  V30 11323 H 1094.53 4.49327 -4.13446 0
M  V30 11324 H 1095.94 2.4728 -5.17229 0
M  V30 11325 H 1094.34 1.88181 -5.69832 0
M  V30 11326 H 1095.41 0.805848 -4.78157 0
M  V30 11327 N 1096.75 1.52266 0.40654 0
M  V30 11328 C 1097.71 1.75168 1.47814 0
M  V30 11329 C 1098.71 0.621575 1.48301 0
M  V30 11330 O 1099.9 0.889476 1.4978 0
M  V30 11331 C 1097.04 1.83642 2.87208 0
M  V30 11332 H 1098.23 2.70834 1.28798 0
M  V30 11333 H 1095.78 1.42722 0.637196 0
M  V30 11334 H 1096.52 0.898994 3.1159 0
M  V30 11335 H 1096.3 2.65801 2.88257 0
M  V30 11336 H 1097.79 2.03093 3.64888 0
M  V30 11337 N 1098.23 -0.663929 1.42933 0
M  V30 11338 C 1099.47 -1.42603 1.44195 0
M  V30 11339 C 1099.81 -1.94101 0.0620284 0
M  V30 11340 O 1099.08 -1.71609 -0.91546 0
M  V30 11341 C 1099.37 -2.61522 2.47544 0
M  V30 11342 C 1099.22 -2.15587 3.94769 0
M  V30 11343 C 1100.54 -3.6374 2.47753 0
M  V30 11344 H 1097.66 -0.517189 0.525056 0
M  V30 11345 H 1100.3 -0.75361 1.74415 0
M  V30 11346 H 1098.45 -3.1889 2.21904 0
M  V30 11347 H 1100.12 -1.63303 4.31428 0
M  V30 11348 H 1098.36 -1.47057 4.08114 0
M  V30 11349 H 1099.03 -3.01053 4.62678 0
M  V30 11350 H 1101.51 -3.16111 2.70579 0
M  V30 11351 H 1100.39 -4.44512 3.22025 0
M  V30 11352 H 1100.65 -4.15607 1.50742 0
M  V30 11353 N 1099.71 -1.29285 -0.901281 0
M  V30 11354 C 1100.67 -1.14283 -1.98676 0
M  V30 11355 C 1101.67 -0.0787641 -1.60607 0
M  V30 11356 O 1102.86 -0.325574 -1.71131 0
M  V30 11357 C 1099.99 -0.747279 -3.32609 0
M  V30 11358 H 1101.18 -2.10701 -2.13413 0
M  V30 11359 H 1098.74 -1.12449 -1.08558 0
M  V30 11360 H 1099.47 0.217111 -3.23572 0
M  V30 11361 H 1099.26 -1.51608 -3.61604 0
M  V30 11362 H 1100.75 -0.665322 -4.12266 0
M  V30 11363 N 1101.18 1.11143 -1.11736 0
M  V30 11364 C 1102.09 2.20851 -0.791331 0
M  V30 11365 C 1103.11 1.72644 0.216833 0
M  V30 11366 O 1104.29 2.01332 0.0522401 0
M  V30 11367 C 1101.35 3.4585 -0.242694 0
M  V30 11368 C 1100.41 4.08829 -1.30986 0
M  V30 11369 C 1099.65 5.27861 -0.787305 0
M  V30 11370 O 1099.87 5.69122 0.381549 0
M  V30 11371 O 1098.8 5.81506 -1.55352 0
M  V30 11372 H 1102.63 2.51158 -1.70744 0
M  V30 11373 H 1100.21 1.19739 -0.893478 0
M  V30 11374 H 1102.1 4.21359 0.0587472 0
M  V30 11375 H 1100.77 3.17187 0.646079 0
M  V30 11376 H 1099.68 3.35037 -1.66436 0
M  V30 11377 H 1101.01 4.41678 -2.17213 0
M  V30 11378 N 1102.66 0.908147 1.28804 0
M  V30 11379 C 1103.63 0.397058 2.25735 0
M  V30 11380 C 1104.63 -0.473483 1.53671 0
M  V30 11381 O 1105.82 -0.277335 1.71978 0
M  V30 11382 C 1102.95 -0.431392 3.38159 0
M  V30 11383 H 1104.14 1.25323 2.72459 0
M  V30 11384 H 1101.69 0.687041 1.4039 0
M  V30 11385 H 1102.43 -1.3072 2.96787 0
M  V30 11386 H 1102.21 0.192502 3.91627 0
M  V30 11387 H 1103.7 -0.78 4.10251 0
M  V30 11388 N 1104.14 -1.42577 0.671525 0
M  V30 11389 C 1105.07 -2.33499 0.00506984 0
M  V30 11390 C 1106.05 -1.50497 -0.792763 0
M  V30 11391 O 1107.24 -1.79109 -0.750574 0
M  V30 11392 C 1104.37 -3.34077 -0.949194 0
M  V30 11393 C 1103.32 -4.27208 -0.260187 0
M  V30 11394 C 1102.65 -5.17968 -1.32716 0
M  V30 11395 C 1103.95 -5.15192 0.858772 0
M  V30 11396 H 1105.64 -2.89477 0.764407 0
M  V30 11397 H 1103.19 -1.39191 0.369043 0
M  V30 11398 H 1105.14 -3.96594 -1.42448 0
M  V30 11399 H 1103.86 -2.76396 -1.73991 0
M  V30 11400 H 1102.52 -3.66082 0.194834 0
M  V30 11401 H 1102.17 -4.56615 -2.10979 0
M  V30 11402 H 1101.87 -5.81104 -0.871293 0
M  V30 11403 H 1103.39 -5.83359 -1.80345 0
M  V30 11404 H 1104.81 -5.71412 0.464844 0
M  V30 11405 H 1103.21 -5.87144 1.24023 0
M  V30 11406 H 1104.28 -4.53787 1.70895 0
M  V30 11407 N 1105.62 -0.414636 -1.52048 0
M  V30 11408 C 1106.85 0.158686 -2.06291 0
M  V30 11409 C 1107.26 1.38397 -1.2842 0
M  V30 11410 O 1106.62 1.79351 -0.337539 0
M  V30 11411 C 1106.67 0.503634 -3.57975 0
M  V30 11412 O 1106.39 -0.672996 -4.329 0
M  V30 11413 C 1107.89 1.13009 -4.28653 0
M  V30 11414 H 1105.11 0.0179622 -0.67076 0
M  V30 11415 H 1107.66 -0.587177 -1.95889 0
M  V30 11416 H 1105.81 1.19939 -3.68366 0
M  V30 11417 H 1106.22 -0.383735 -5.23094 0
M  V30 11418 H 1107.7 1.32162 -5.35945 0
M  V30 11419 H 1108.18 2.10476 -3.85482 0
M  V30 11420 H 1108.78 0.474379 -4.22646 0
M  V30 11421 N 1107.1 1.56929 -0.145233 0
M  V30 11422 C 1108.04 2.17958 0.812237 0
M  V30 11423 C 1109.04 1.13608 1.25657 0
M  V30 11424 O 1110.24 1.31861 1.22526 0
M  V30 11425 H 1106.62 0.697876 0.28013 0
M  V30 11426 H 1108.59 2.97146 0.273297 0
M  V30 11427 C 1107.34 2.81418 2.04203 0
M  V30 11428 H 1106.66 3.61427 1.70911 0
M  V30 11429 H 1108.1 3.27624 2.69144 0
M  V30 11430 C 1106.56 1.79835 2.84888 0
M  V30 11431 O 1107.09 1.26773 3.81171 0
M  V30 11432 N 1105.3 1.49179 2.49387 0
M  V30 11433 H 1104.84 1.9252 1.71154 0
M  V30 11434 H 1104.8 0.81458 3.03664 0
M  V30 11435 N 1108.58 -0.128553 1.57075 0
M  V30 11436 C 1109.51 -1.15953 2.02675 0
M  V30 11437 C 1110.49 -1.43743 0.909501 0
M  V30 11438 O 1111.67 -1.54348 1.17857 0
M  V30 11439 C 1108.8 -2.48813 2.423 0
M  V30 11440 C 1107.76 -2.35506 3.57381 0
M  V30 11441 C 1107.08 -3.73243 3.82875 0
M  V30 11442 C 1108.38 -1.82359 4.89431 0
M  V30 11443 H 1110.08 -0.780283 2.89054 0
M  V30 11444 H 1107.62 -0.373896 1.39061 0
M  V30 11445 H 1109.57 -3.21179 2.72804 0
M  V30 11446 H 1108.3 -2.88609 1.52881 0
M  V30 11447 H 1106.96 -1.6559 3.27071 0
M  V30 11448 H 1106.61 -4.10507 2.90677 0
M  V30 11449 H 1106.31 -3.65195 4.60333 0
M  V30 11450 H 1107.83 -4.47128 4.15823 0
M  V30 11451 H 1109.24 -2.44533 5.18533 0
M  V30 11452 H 1107.64 -1.85156 5.70822 0
M  V30 11453 H 1108.71 -0.780478 4.78578 0
M  V30 11454 N 1110.05 -1.5248 -0.398459 0
M  V30 11455 C 1111.3 -1.67309 -1.1461 0
M  V30 11456 C 1111.63 -0.407095 -1.89885 0
M  V30 11457 O 1110.91 0.594834 -1.85181 0
M  V30 11458 C 1111.19 -2.90204 -2.13198 0
M  V30 11459 C 1111.04 -4.26881 -1.4175 0
M  V30 11460 C 1112.36 -3.08634 -3.13741 0
M  V30 11461 H 1109.48 -0.608853 -0.415292 0
M  V30 11462 H 1112.12 -1.85057 -0.430573 0
M  V30 11463 H 1110.27 -2.75204 -2.74218 0
M  V30 11464 H 1111.95 -4.53631 -0.837676 0
M  V30 11465 H 1110.19 -4.27793 -0.719387 0
M  V30 11466 H 1110.86 -5.08939 -2.1374 0
M  V30 11467 H 1113.34 -3.22603 -2.62805 0
M  V30 11468 H 1112.21 -3.96117 -3.79977 0
M  V30 11469 H 1112.47 -2.22425 -3.82073 0
M  V30 11470 N 1111.53 0.65634 -1.43283 0
M  V30 11471 C 1112.78 1.41627 -1.44734 0
M  V30 11472 C 1113.11 1.94372 -0.0704893 0
M  V30 11473 O 1112.36 1.72511 0.924037 0
M  V30 11474 C 1112.66 2.61688 -2.43421 0
M  V30 11475 C 1112.33 2.2738 -3.8937 0
M  V30 11476 C 1110.99 2.17735 -4.29121 0
M  V30 11477 C 1113.34 1.99863 -4.81357 0
M  V30 11478 C 1110.67 1.78725 -5.58815 0
M  V30 11479 C 1113.02 1.62352 -6.11412 0
M  V30 11480 C 1111.68 1.51231 -6.50143 0
M  V30 11481 H 1110.95 0.51825 -0.529621 0
M  V30 11482 H 1113.6 0.746701 -1.76342 0
M  V30 11483 H 1111.91 3.33763 -2.05206 0
M  V30 11484 H 1113.6 3.19896 -2.41801 0
M  V30 11485 H 1110.19 2.35795 -3.57908 0
M  V30 11486 H 1114.38 2.06237 -4.5142 0
M  V30 11487 H 1109.63 1.68698 -5.87666 0
M  V30 11488 H 1113.81 1.40091 -6.82164 0
M  V30 11489 H 1111.43 1.20774 -7.50545 0
M  V30 11490 N 1113.01 1.29761 0.894412 0
M  V30 11491 C 1113.97 1.15335 1.98067 0
M  V30 11492 C 1114.97 0.0872804 1.60563 0
M  V30 11493 O 1116.16 0.334645 1.70955 0
M  V30 11494 C 1113.29 0.764907 3.32208 0
M  V30 11495 H 1114.49 2.11829 2.12293 0
M  V30 11496 H 1112.04 1.13023 1.0796 0
M  V30 11497 H 1112.78 -0.199948 3.23683 0
M  V30 11498 H 1112.56 1.53523 3.60795 0
M  V30 11499 H 1114.05 0.687176 4.11907 0
M  V30 11500 N 1114.49 -1.10549 1.12324 0
M  V30 11501 C 1115.42 -2.18911 0.812416 0
M  V30 11502 C 1116.4 -1.68628 -0.22327 0
M  V30 11503 O 1117.58 -1.94015 -0.0847184 0
M  V30 11504 C 1114.71 -3.46288 0.264947 0
M  V30 11505 C 1113.67 -4.09838 1.23356 0
M  V30 11506 C 1112.99 -5.31901 0.546374 0
M  V30 11507 C 1114.29 -4.53686 2.58778 0
M  V30 11508 H 1115.99 -2.45169 1.71851 0
M  V30 11509 H 1113.53 -1.17834 0.827715 0
M  V30 11510 H 1115.49 -4.21385 0.0352364 0
M  V30 11511 H 1114.21 -3.19517 -0.676479 0
M  V30 11512 H 1112.87 -3.36746 1.44906 0
M  V30 11513 H 1112.52 -5.01406 -0.400157 0
M  V30 11514 H 1112.22 -5.75372 1.19249 0
M  V30 11515 H 1113.74 -6.09731 0.325673 0
M  V30 11516 H 1115.16 -5.20063 2.41263 0
M  V30 11517 H 1113.55 -5.08003 3.19457 0
M  V30 11518 H 1114.62 -3.66665 3.17309 0
M  V30 11519 N 1115.97 -0.914965 -1.28321 0
M  V30 11520 C 1117.21 -0.549562 -1.95212 0
M  V30 11521 C 1117.54 0.904658 -1.71842 0
M  V30 11522 O 1116.82 1.64354 -1.04009 0
M  V30 11523 C 1117.1 -0.860927 -3.49657 0
M  V30 11524 C 1116.96 -2.36797 -3.82423 0
M  V30 11525 C 1118.27 -0.357926 -4.38642 0
M  V30 11526 H 1115.39 -0.201136 -0.709023 0
M  V30 11527 H 1118.04 -1.14443 -1.51667 0
M  V30 11528 H 1116.19 -0.354665 -3.86878 0
M  V30 11529 H 1117.86 -2.94494 -3.55065 0
M  V30 11530 H 1116.1 -2.82245 -3.29424 0
M  V30 11531 H 1116.77 -2.53637 -4.90278 0
M  V30 11532 H 1119.25 -0.791636 -4.085 0
M  V30 11533 H 1118.12 -0.604855 -5.45557 0
M  V30 11534 H 1118.38 0.741775 -4.35833 0
M  V30 11535 N 1117.44 1.42219 -0.679077 0
M  V30 11536 C 1118.67 2.05815 -0.211649 0
M  V30 11537 C 1119.09 1.51037 1.13284 0
M  V30 11538 O 1118.44 0.651894 1.7046 0
M  V30 11539 C 1118.49 3.61218 -0.142663 0
M  V30 11540 O 1118.22 4.13965 -1.43402 0
M  V30 11541 C 1119.72 4.41934 0.347746 0
M  V30 11542 H 1116.94 0.663215 -0.101914 0
M  V30 11543 H 1119.48 1.82282 -0.927017 0
M  V30 11544 H 1117.64 3.83848 0.52342 0
M  V30 11545 H 1118.05 5.07872 -1.31021 0
M  V30 11546 H 1119.52 5.50921 0.344916 0
M  V30 11547 H 1120 4.16832 1.38377 0
M  V30 11548 H 1120.61 4.24332 -0.286751 0
M  V30 11549 N 1118.92 0.422693 1.51826 0
M  V30 11550 C 1120.2 -0.20786 1.94492 0
M  V30 11551 C 1120.58 -1.61414 1.36047 0
M  V30 11552 O 1119.93 -2.21987 0.541657 0
M  V30 11553 C 1120.14 -0.200457 3.48424 0
M  V30 11554 C 1121.48 -0.413199 4.22585 0
M  V30 11555 O 1122.51 -0.27922 3.55104 0
M  V30 11556 O 1121.37 -0.678469 5.42272 0
M  V30 11557 H 1118.46 -0.137851 0.81543 0
M  V30 11558 H 1121.01 0.479617 1.62781 0
M  V30 11559 H 1119.78 0.783263 3.83381 0
M  V30 11560 H 1119.4 -0.931464 3.86535 0
M  V30 11561 N 1120.4 -1.5685 0.153553 0
M  V30 11562 C 1121.33 -2.20101 -0.779601 0
M  V30 11563 C 1122.31 -1.15121 -1.25225 0
M  V30 11564 O 1123.5 -1.43487 -1.30862 0
M  V30 11565 C 1120.63 -2.82778 -2.01628 0
M  V30 11566 C 1119.58 -3.93643 -1.68015 0
M  V30 11567 C 1118.91 -4.43286 -2.99001 0
M  V30 11568 C 1120.21 -5.14102 -0.921774 0
M  V30 11569 H 1121.9 -2.98334 -0.252432 0
M  V30 11570 H 1119.45 -1.43499 -0.119975 0
M  V30 11571 H 1121.4 -3.25696 -2.67395 0
M  V30 11572 H 1120.12 -2.01887 -2.56728 0
M  V30 11573 H 1118.78 -3.51354 -1.04624 0
M  V30 11574 H 1118.43 -3.59208 -3.52106 0
M  V30 11575 H 1118.13 -5.18068 -2.77272 0
M  V30 11576 H 1119.65 -4.88878 -3.65828 0
M  V30 11577 H 1121.07 -5.53823 -1.48167 0
M  V30 11578 H 1119.46 -5.94687 -0.804185 0
M  V30 11579 H 1120.53 -4.84825 0.0852757 0
M  V30 11580 N 1121.88 0.120221 -1.57141 0
M  V30 11581 C 1123.29 0.473718 -1.52408 0
M  V30 11582 C 1123.49 1.81925 -0.866354 0
M  V30 11583 O 1122.55 2.48491 -0.448173 0
M  V30 11584 C 1123.86 0.459338 -2.97171 0
M  V30 11585 C 1125.41 0.542975 -3.08254 0
M  V30 11586 C 1125.89 0.558996 -4.54576 0
M  V30 11587 N 1127.38 0.620469 -4.59026 0
M  V30 11588 C 1128.11 0.654292 -5.69655 0
M  V30 11589 N 1127.61 0.645835 -6.89783 0
M  V30 11590 N 1129.4 0.697208 -5.57759 0
M  V30 11591 H 1121.55 -0.76142 -1.98283 0
M  V30 11592 H 1123.81 -0.280736 -0.905479 0
M  V30 11593 H 1123.52 -0.461654 -3.48657 0
M  V30 11594 H 1123.39 1.28759 -3.54543 0
M  V30 11595 H 1125.78 1.45439 -2.56772 0
M  V30 11596 H 1125.86 -0.312936 -2.53879 0
M  V30 11597 H 1125.51 -0.348367 -5.06704 0
M  V30 11598 H 1125.44 1.43177 -5.06762 0
M  V30 11599 H 1127.93 0.633218 -3.72557 0
M  V30 11600 H 1128.24 0.674233 -7.69853 0
M  V30 11601 H 1126.59 0.613279 -6.92289 0
M  V30 11602 H 1129.78 0.70117 -4.62819 0
M  V30 11603 H 1129.95 0.7201 -6.43986 0
M  V30 11604 N 1123.36 1.52689 0.390367 0
M  V30 11605 C 1124.63 1.58246 1.14968 0
M  V30 11606 C 1125.01 0.374808 2.07746 0
M  V30 11607 O 1124.36 -0.636969 2.19442 0
M  V30 11608 C 1124.57 2.92059 1.91056 0
M  V30 11609 C 1125.92 3.45745 2.46466 0
M  V30 11610 O 1126.94 2.93924 2.01214 0
M  V30 11611 O 1125.8 4.3628 3.29122 0
M  V30 11612 H 1122.9 0.638189 0.52597 0
M  V30 11613 H 1125.44 1.65024 0.39563 0
M  V30 11614 H 1124.21 3.71399 1.23201 0
M  V30 11615 H 1123.84 2.8866 2.73425 0
M  V30 11616 N 1124.83 -0.648732 1.43629 0
M  V30 11617 C 1126.08 -1.41066 1.45699 0
M  V30 11618 C 1126.41 -1.94024 0.082612 0
M  V30 11619 O 1125.69 -1.7257 -0.897207 0
M  V30 11620 C 1125.97 -2.58882 2.50304 0
M  V30 11621 C 1125.82 -2.11387 3.97033 0
M  V30 11622 C 1127.14 -3.61092 2.51597 0
M  V30 11623 H 1124.26 -0.511591 0.530512 0
M  V30 11624 H 1126.9 -0.735069 1.75205 0
M  V30 11625 H 1125.05 -3.16518 2.25274 0
M  V30 11626 H 1126.73 -1.58718 4.33136 0
M  V30 11627 H 1124.97 -1.4272 4.0965 0
M  V30 11628 H 1125.64 -2.96129 4.65845 0
M  V30 11629 H 1128.12 -3.13223 2.73917 0
M  V30 11630 H 1126.99 -4.41071 3.26722 0
M  V30 11631 H 1127.25 -4.13985 1.55141 0
M  V30 11632 N 1126.31 -1.30234 -0.887518 0
M  V30 11633 C 1127.26 -1.164 -1.99298 0
M  V30 11634 C 1128.23 -0.0541536 -1.66012 0
M  V30 11635 O 1129.41 -0.223881 -1.89482 0
M  V30 11636 C 1126.55 -0.859169 -3.34234 0
M  V30 11637 C 1125.67 -2.05065 -3.80227 0
M  V30 11638 C 1124.8 -1.68413 -5.03796 0
M  V30 11639 C 1123.84 -2.8407 -5.4219 0
M  V30 11640 N 1122.98 -2.47732 -6.56942 0
M  V30 11641 H 1127.82 -2.10973 -2.10463 0
M  V30 11642 H 1125.36 -1.04969 -1.03053 0
M  V30 11643 H 1127.31 -0.663064 -4.11897 0
M  V30 11644 H 1125.94 0.0496808 -3.22762 0
M  V30 11645 H 1125 -2.35808 -2.98494 0
M  V30 11646 H 1126.31 -2.91688 -4.04623 0
M  V30 11647 H 1125.46 -1.45162 -5.89078 0
M  V30 11648 H 1124.2 -0.789553 -4.81266 0
M  V30 11649 H 1123.21 -3.0799 -4.55437 0
M  V30 11650 H 1124.43 -3.74211 -5.66695 0
M  V30 11651 H 1122.38 -1.60777 -6.35993 0
M  V30 11652 H 1122.29 -3.27887 -6.81195 0
M  V30 11653 H 1123.56 -2.27831 -7.45462 0
M  V30 11654 N 1127.79 1.09952 -1.12909 0
M  V30 11655 C 1129.03 1.83635 -0.897646 0
M  V30 11656 C 1129.39 1.83462 0.566179 0
M  V30 11657 O 1130.6 2.52748 0.914977 0
M  V30 11658 C 1128.87 3.26095 -1.46277 0
M  V30 11659 S 1130.43 4.16846 -1.37059 0
M  V30 11660 H 1127.24 0.633045 -0.32369 0
M  V30 11661 H 1129.85 1.32275 -1.43957 0
M  V30 11662 H 1128.55 3.23793 -2.52163 0
M  V30 11663 H 1128.08 3.82526 -0.918549 0
M  V30 11664 H 1130.1 4.94996 -0.345399 0
M  V30 11665 N 1129.27 0.921757 1.27833 0
M  V30 11666 C 1130.49 0.574599 1.99281 0
M  V30 11667 C 1130.92 -0.838905 1.68357 0
M  V30 11668 O 1130.28 -1.56196 0.920468 0
M  V30 11669 C 1130.32 0.800027 3.51613 0
M  V30 11670 O 1129.43 -0.137215 4.12172 0
M  V30 11671 H 1128.77 0.221887 0.625829 0
M  V30 11672 H 1131.3 1.23939 1.62789 0
M  V30 11673 H 1131.31 0.71326 4.01717 0
M  V30 11674 H 1129.98 1.83042 3.73455 0
M  V30 11675 H 1128.56 -0.00103872 3.729 0
M  V30 11676 N 1130.75 -1.41857 0.686609 0
M  V30 11677 C 1131.99 -2.0097 0.213378 0
M  V30 11678 C 1132.32 -1.54618 -1.1882 0
M  V30 11679 O 1131.59 -0.772916 -1.80008 0
M  V30 11680 H 1130.17 -0.743134 0.0758968 0
M  V30 11681 H 1132.83 -1.73609 0.885763 0
M  V30 11682 H 1131.92 -3.11296 0.223826 0
M  V30 11683 N 1132.22 -0.430739 -1.51599 0
M  V30 11684 C 1133.17 0.398482 -2.29161 0
M  V30 11685 C 1134.17 1.02676 -1.34737 0
M  V30 11686 O 1135.37 0.96248 -1.52106 0
M  V30 11687 H 1131.75 0.14731 -0.737431 0
M  V30 11688 H 1133.72 -0.276619 -2.97115 0
M  V30 11689 C 1132.47 1.49094 -3.14112 0
M  V30 11690 H 1131.79 1.01685 -3.86652 0
M  V30 11691 H 1133.23 2.04453 -3.7145 0
M  V30 11692 C 1131.69 2.47049 -2.29059 0
M  V30 11693 O 1132.22 3.51435 -1.94567 0
M  V30 11694 N 1130.43 2.17778 -1.92409 0
M  V30 11695 H 1129.97 1.3292 -2.20658 0
M  V30 11696 H 1129.93 2.8356 -1.35798 0
M  V30 11697 N 1133.7 1.56767 -0.161869 0
M  V30 11698 C 1134.95 1.97661 0.479751 0
M  V30 11699 C 1135.3 1.04583 1.61493 0
M  V30 11700 O 1134.6 0.0836772 1.91417 0
M  V30 11701 C 1134.79 3.42567 1.01894 0
M  V30 11702 C 1134.62 4.49657 -0.0624633 0
M  V30 11703 C 1133.39 5.0273 -0.508935 0
M  V30 11704 C 1135.59 5.07069 -0.85941 0
M  V30 11705 N 1133.57 5.93442 -1.57163 0
M  V30 11706 C 1134.94 5.94131 -1.77225 0
M  V30 11707 C 1137 4.89596 -0.905543 0
M  V30 11708 C 1135.7 6.6559 -2.72731 0
M  V30 11709 C 1137.72 5.61769 -1.8485 0
M  V30 11710 C 1137.09 6.48551 -2.74884 0
M  V30 11711 H 1133.19 0.76864 0.14393 0
M  V30 11712 H 1135.77 1.92957 -0.259906 0
M  V30 11713 H 1133.94 3.47835 1.72815 0
M  V30 11714 H 1135.67 3.70493 1.62841 0
M  V30 11715 H 1132.43 4.73476 -0.1084 0
M  V30 11716 H 1132.85 6.43502 -2.10319 0
M  V30 11717 H 1137.49 4.22209 -0.223516 0
M  V30 11718 H 1135.21 7.32197 -3.41927 0
M  V30 11719 H 1138.8 5.50239 -1.89018 0
M  V30 11720 H 1137.68 7.03417 -3.46661 0
M  V30 11721 N 1135.18 -0.111886 1.57202 0
M  V30 11722 C 1136.11 -1.16749 1.96074 0
M  V30 11723 C 1137.09 -1.39735 0.831438 0
M  V30 11724 O 1138.28 -1.53772 1.09025 0
M  V30 11725 C 1135.4 -2.51996 2.26308 0
M  V30 11726 C 1134.45 -2.45394 3.48832 0
M  V30 11727 S 1135.28 -1.8867 5.01163 0
M  V30 11728 C 1136.44 -3.25576 5.34557 0
M  V30 11729 H 1136.67 -0.836033 2.85303 0
M  V30 11730 H 1134.2 -0.318922 1.5107 0
M  V30 11731 H 1136.16 -3.29813 2.44405 0
M  V30 11732 H 1134.82 -2.82317 1.3768 0
M  V30 11733 H 1134.02 -3.45038 3.67376 0
M  V30 11734 H 1133.62 -1.75702 3.30159 0
M  V30 11735 H 1135.91 -4.21807 5.30174 0
M  V30 11736 H 1136.85 -3.11853 6.35731 0
M  V30 11737 H 1137.26 -3.24333 4.62026 0
M  V30 11738 N 1136.66 -1.52894 -0.382264 0
M  V30 11739 C 1137.9 -1.69465 -1.12486 0
M  V30 11740 C 1138.26 -0.432631 -1.87473 0
M  V30 11741 O 1137.55 0.573901 -1.82803 0
M  V30 11742 C 1137.75 -2.87309 -2.12576 0
M  V30 11743 C 1137.58 -4.24849 -1.47421 0
M  V30 11744 C 1136.35 -4.89965 -1.23542 0
M  V30 11745 C 1138.54 -5.05991 -0.920733 0
M  V30 11746 N 1136.53 -6.1147 -0.545631 0
M  V30 11747 C 1137.9 -6.18958 -0.359379 0
M  V30 11748 C 1139.95 -4.91138 -0.817797 0
M  V30 11749 C 1138.65 -7.18695 0.294853 0
M  V30 11750 C 1140.68 -5.91134 -0.177375 0
M  V30 11751 C 1140.04 -7.03411 0.373179 0
M  V30 11752 H 1136.14 -0.673527 -0.397347 0
M  V30 11753 H 1138.73 -1.90259 -0.413479 0
M  V30 11754 H 1136.9 -2.68083 -2.81044 0
M  V30 11755 H 1138.63 -2.92784 -2.79392 0
M  V30 11756 H 1135.38 -4.48808 -1.51223 0
M  V30 11757 H 1135.81 -6.76653 -0.216582 0
M  V30 11758 H 1140.45 -4.04536 -1.22924 0
M  V30 11759 H 1138.17 -8.04901 0.718285 0
M  V30 11760 H 1141.75 -5.81716 -0.0988833 0
M  V30 11761 H 1140.63 -7.7946 0.860905 0
M  V30 11762 N 1138.14 0.641106 -1.43971 0
M  V30 11763 C 1139.1 1.73539 -1.49723 0
M  V30 11764 C 1140.1 1.56235 -0.380438 0
M  V30 11765 O 1141.29 1.61912 -0.642673 0
M  V30 11766 C 1138.42 3.1253 -1.36153 0
M  V30 11767 H 1139.62 1.69816 -2.47189 0
M  V30 11768 H 1137.17 0.853867 -1.30915 0
M  V30 11769 H 1137.9 3.21856 -0.39742 0
M  V30 11770 H 1137.69 3.26496 -2.17124 0
M  V30 11771 H 1139.18 3.92303 -1.43138 0
M  V30 11772 N 1139.62 1.30703 0.880598 0
M  V30 11773 C 1140.58 1.17429 1.96832 0
M  V30 11774 C 1141.58 0.104305 1.60461 0
M  V30 11775 O 1142.77 0.352758 1.70591 0
M  V30 11776 C 1139.9 0.800099 3.31378 0
M  V30 11777 H 1141.09 2.14069 2.10034 0
M  V30 11778 H 1138.65 1.14162 1.06755 0
M  V30 11779 H 1139.38 -0.165606 3.23877 0
M  V30 11780 H 1139.17 1.57341 3.59146 0
M  V30 11781 H 1140.66 0.730826 4.11155 0
M  V30 11782 N 1141.09 -1.09351 1.1349 0
M  V30 11783 C 1142.04 -2.16008 0.812981 0
M  V30 11784 C 1143.01 -1.64566 -0.225252 0
M  V30 11785 O 1144.2 -1.90552 -0.0973261 0
M  V30 11786 C 1141.34 -3.43913 0.285996 0
M  V30 11787 C 1140.45 -4.09251 1.38338 0
M  V30 11788 C 1139.58 -5.24916 0.814652 0
M  V30 11789 C 1138.62 -5.82178 1.89038 0
M  V30 11790 N 1137.76 -6.89203 1.33955 0
M  V30 11791 H 1142.6 -2.42887 1.72655 0
M  V30 11792 H 1140.14 -1.19209 0.861833 0
M  V30 11793 H 1142.09 -4.17183 -0.0376794 0
M  V30 11794 H 1140.72 -3.17349 -0.590707 0
M  V30 11795 H 1139.78 -3.33838 1.82363 0
M  V30 11796 H 1141.09 -4.4784 2.19638 0
M  V30 11797 H 1140.24 -6.05086 0.442306 0
M  V30 11798 H 1138.98 -4.87691 -0.029416 0
M  V30 11799 H 1137.99 -5.00669 2.27179 0
M  V30 11800 H 1139.21 -6.21464 2.73787 0
M  V30 11801 H 1137.16 -6.53956 0.517494 0
M  V30 11802 H 1137.07 -7.26565 2.08902 0
M  V30 11803 H 1138.34 -7.73126 0.994793 0
M  V30 11804 N 1142.57 -0.928524 -1.27343 0
M  V30 11805 C 1143.5 -0.445627 -2.29208 0
M  V30 11806 C 1144.48 0.494508 -1.62753 0
M  V30 11807 O 1145.67 0.399082 -1.90055 0
M  V30 11808 C 1142.8 0.301684 -3.45987 0
M  V30 11809 C 1141.75 -0.550695 -4.24442 0
M  V30 11810 C 1141.08 0.325833 -5.33706 0
M  V30 11811 C 1142.38 -1.81559 -4.89728 0
M  V30 11812 H 1144.07 -1.29696 -2.69851 0
M  V30 11813 H 1141.62 -0.625085 -1.29725 0
M  V30 11814 H 1143.57 0.650455 -4.1635 0
M  V30 11815 H 1142.29 1.18705 -3.04264 0
M  V30 11816 H 1140.95 -0.882185 -3.55827 0
M  V30 11817 H 1140.6 1.21018 -4.88225 0
M  V30 11818 H 1140.3 -0.240994 -5.87106 0
M  V30 11819 H 1141.83 0.670156 -6.06911 0
M  V30 11820 H 1143.24 -1.53483 -5.52373 0
M  V30 11821 H 1141.64 -2.32598 -5.53189 0
M  V30 11822 H 1142.71 -2.53461 -4.13383 0
M  V30 11823 N 1144.05 1.41491 -0.694123 0
M  V30 11824 C 1145.46 1.84283 -0.299439 0
M  V30 11825 C 1145.81 1.58081 1.16211 0
M  V30 11826 O 1144.94 1.05051 1.89191 0
M  V30 11827 C 1145.53 3.34522 -0.536696 0
M  V30 11828 C 1144.09 3.7589 -0.195944 0
M  V30 11829 C 1143.24 2.64908 -0.819692 0
M  V30 11830 H 1146.19 1.31063 -0.894884 0
M  V30 11831 H 1146.21 3.79947 0.205062 0
M  V30 11832 H 1145.72 3.53561 -1.6005 0
M  V30 11833 H 1143.82 3.62452 0.863655 0
M  V30 11834 H 1143.94 4.74671 -0.649954 0
M  V30 11835 H 1142.3 2.53476 -0.249412 0
M  V30 11836 H 1143.08 2.86765 -1.88734 0
M  V30 11837 N 1145.53 0.438773 1.51369 0
M  V30 11838 C 1146.78 -0.126962 2.01701 0
M  V30 11839 C 1147.1 -1.43086 1.32481 0
M  V30 11840 O 1146.37 -1.90427 0.459823 0
M  V30 11841 H 1144.95 -0.0499092 0.745331 0
M  V30 11842 H 1147.61 0.581808 1.86013 0
M  V30 11843 H 1146.7 -0.301836 3.10637 0
M  V30 11844 N 1147.01 -1.56678 0.170181 0
M  V30 11845 C 1147.92 -2.21496 -0.773079 0
M  V30 11846 C 1148.93 -1.20626 -1.25401 0
M  V30 11847 O 1150.11 -1.53283 -1.30638 0
M  V30 11848 C 1147.17 -2.8421 -1.98558 0
M  V30 11849 C 1146.23 -4.00278 -1.55164 0
M  V30 11850 C 1145.47 -4.59992 -2.70634 0
M  V30 11851 O 1145.69 -4.18595 -3.87472 0
M  V30 11852 O 1144.62 -5.49881 -2.44775 0
M  V30 11853 H 1148.45 -3.02659 -0.251195 0
M  V30 11854 H 1146.03 -1.49288 -0.0579621 0
M  V30 11855 H 1147.92 -3.2398 -2.69472 0
M  V30 11856 H 1146.59 -2.06045 -2.49654 0
M  V30 11857 H 1145.5 -3.6518 -0.812038 0
M  V30 11858 H 1146.83 -4.80033 -1.0876 0
M  V30 11859 N 1148.48 0.103547 -1.57259 0
M  V30 11860 C 1149.73 0.806979 -1.8529 0
M  V30 11861 C 1150.05 1.79679 -0.757653 0
M  V30 11862 O 1149.32 1.94695 0.216913 0
M  V30 11863 H 1147.9 0.301012 -0.683667 0
M  V30 11864 H 1150.56 0.0871886 -1.94705 0
M  V30 11865 H 1149.66 1.34275 -2.81738 0
M  V30 11866 N 1149.96 1.53094 0.37415 0
M  V30 11867 C 1150.92 1.78264 1.44065 0
M  V30 11868 C 1151.92 0.652892 1.46949 0
M  V30 11869 O 1153.11 0.921046 1.47859 0
M  V30 11870 C 1150.25 1.89693 2.83248 0
M  V30 11871 H 1151.44 2.73505 1.23025 0
M  V30 11872 H 1148.99 1.44041 0.60678 0
M  V30 11873 H 1149.73 0.964884 3.09613 0
M  V30 11874 H 1149.51 2.71855 2.82554 0
M  V30 11875 H 1151 2.10787 3.60498 0
M  V30 11876 N 1151.44 -0.633461 1.44309 0
M  V30 11877 C 1152.4 -1.72743 1.50641 0
M  V30 11878 C 1153.4 -1.56031 0.388718 0
M  V30 11879 O 1154.59 -1.61568 0.651251 0
M  V30 11880 C 1151.72 -3.11804 1.37809 0
M  V30 11881 H 1152.92 -1.68503 2.48086 0
M  V30 11882 H 1150.47 -0.846912 1.31366 0
M  V30 11883 H 1151.21 -3.2164 0.414483 0
M  V30 11884 H 1150.99 -3.2534 2.18852 0
M  V30 11885 H 1152.48 -3.91538 1.45216 0
M  V30 11886 N 1152.92 -1.31168 -0.873655 0
M  V30 11887 C 1153.85 -1.21094 -1.99646 0
M  V30 11888 C 1154.83 -0.0989684 -1.69812 0
M  V30 11889 O 1156.01 -0.282939 -1.92128 0
M  V30 11890 C 1153.14 -0.913684 -3.35066 0
M  V30 11891 C 1152.1 -1.98482 -3.79195 0
M  V30 11892 C 1151.42 -1.54033 -5.12033 0
M  V30 11893 C 1152.72 -3.39745 -3.96699 0
M  V30 11894 H 1154.42 -2.1503 -2.08333 0
M  V30 11895 H 1151.96 -1.03521 -1.00097 0
M  V30 11896 H 1153.92 -0.829821 -4.13149 0
M  V30 11897 H 1152.64 0.0613471 -3.26542 0
M  V30 11898 H 1151.3 -2.05851 -3.03349 0
M  V30 11899 H 1150.95 -0.553261 -4.99948 0
M  V30 11900 H 1150.65 -2.25688 -5.4253 0
M  V30 11901 H 1152.17 -1.47047 -5.92629 0
M  V30 11902 H 1153.59 -3.35071 -4.65188 0
M  V30 11903 H 1151.98 -4.09585 -4.38589 0
M  V30 11904 H 1153.05 -3.80802 -3.00196 0
M  V30 11905 N 1154.4 1.08748 -1.14068 0
M  V30 11906 C 1155.36 2.1375 -0.827266 0
M  V30 11907 C 1156.36 1.59936 0.166496 0
M  V30 11908 O 1157.55 1.74092 -0.0614305 0
M  V30 11909 C 1154.68 3.40106 -0.232557 0
M  V30 11910 H 1155.87 2.42985 -1.7578 0
M  V30 11911 H 1153.43 1.24402 -0.946244 0
M  V30 11912 H 1154.16 3.16503 0.706859 0
M  V30 11913 H 1153.95 3.8046 -0.948293 0
M  V30 11914 H 1155.44 4.17589 -0.0303662 0
M  V30 11915 N 1155.87 0.935264 1.26849 0
M  V30 11916 C 1157.15 0.497797 1.8916 0
M  V30 11917 C 1157.53 -1.02441 1.84578 0
M  V30 11918 O 1156.88 -1.88185 1.29609 0
M  V30 11919 C 1157.09 1.05244 3.32753 0
M  V30 11920 C 1158.44 1.11751 4.0963 0
M  V30 11921 O 1159.46 1.0026 3.41799 0
M  V30 11922 O 1158.32 1.29548 5.30923 0
M  V30 11923 H 1155.41 0.161322 0.811113 0
M  V30 11924 H 1157.96 1.02744 1.35062 0
M  V30 11925 H 1156.73 2.09617 3.30419 0
M  V30 11926 H 1156.36 0.504889 3.94381 0
M  V30 11927 N 1157.35 -1.41121 0.701616 0
M  V30 11928 C 1158.32 -2.29148 0.0490091 0
M  V30 11929 C 1159.32 -1.44679 -0.701763 0
M  V30 11930 O 1160.51 -1.65757 -0.53575 0
M  V30 11931 C 1157.64 -3.2766 -0.940837 0
M  V30 11932 H 1158.83 -2.88354 0.824133 0
M  V30 11933 H 1156.38 -1.49209 0.465457 0
M  V30 11934 H 1157.12 -2.73445 -1.74351 0
M  V30 11935 H 1156.9 -3.89997 -0.405551 0
M  V30 11936 H 1158.39 -3.93609 -1.39507 0
M  V30 11937 N 1158.83 -0.446794 -1.51134 0
M  V30 11938 C 1160.07 0.115546 -2.04073 0
M  V30 11939 C 1160.43 1.39137 -1.32306 0
M  V30 11940 O 1161.64 2.03455 -1.75668 0
M  V30 11941 C 1159.91 0.319657 -3.55968 0
M  V30 11942 S 1161.47 0.844045 -4.30606 0
M  V30 11943 H 1158.28 0.0274089 -0.710471 0
M  V30 11944 H 1160.89 -0.608368 -1.85793 0
M  V30 11945 H 1159.59 -0.615082 -4.05765 0
M  V30 11946 H 1159.12 1.07038 -3.78558 0
M  V30 11947 H 1161.14 2.12051 -4.48608 0
M  V30 11948 N 1160.31 1.56586 -0.178487 0
M  V30 11949 C 1161.22 2.21903 0.761321 0
M  V30 11950 C 1162.23 1.21289 1.2476 0
M  V30 11951 O 1163.41 1.53974 1.29823 0
M  V30 11952 C 1160.48 2.85259 1.97048 0
M  V30 11953 C 1159.54 4.01095 1.53039 0
M  V30 11954 C 1158.77 4.61421 2.68191 0
M  V30 11955 O 1158.99 4.20644 3.85247 0
M  V30 11956 O 1157.93 5.51171 2.41855 0
M  V30 11957 H 1161.75 3.02788 0.235141 0
M  V30 11958 H 1159.34 1.49316 0.0500442 0
M  V30 11959 H 1161.22 3.25404 2.6775 0
M  V30 11960 H 1159.89 2.07366 2.48558 0
M  V30 11961 H 1158.8 3.65606 0.792661 0
M  V30 11962 H 1160.13 4.80603 1.06213 0
M  V30 11963 N 1161.79 -0.095206 1.57312 0
M  V30 11964 C 1162.75 -1.09974 2.01093 0
M  V30 11965 C 1163.75 -1.32954 0.904424 0
M  V30 11966 O 1164.94 -1.29069 1.16991 0
M  V30 11967 C 1162.07 -2.4489 2.37153 0
M  V30 11968 H 1163.26 -0.722906 2.91057 0
M  V30 11969 H 1160.82 -0.340249 1.52552 0
M  V30 11970 H 1161.55 -2.8745 1.50143 0
M  V30 11971 H 1161.34 -2.29559 3.17876 0
M  V30 11972 H 1162.83 -3.17141 2.71683 0
M  V30 11973 N 1163.26 -1.53291 -0.366026 0
M  V30 11974 C 1164.2 -1.7448 -1.47079 0
M  V30 11975 C 1165.18 -0.593147 -1.51395 0
M  V30 11976 O 1166.36 -0.825686 -1.69454 0
M  V30 11977 C 1163.49 -1.82319 -2.85443 0
M  V30 11978 C 1162.53 -3.04285 -2.98852 0
M  V30 11979 S 1163.37 -4.63812 -2.67653 0
M  V30 11980 C 1164.52 -4.74499 -4.08168 0
M  V30 11981 H 1164.75 -2.67911 -1.28884 0
M  V30 11982 H 1162.29 -1.43874 -0.560335 0
M  V30 11983 H 1164.25 -1.87521 -3.65166 0
M  V30 11984 H 1162.91 -0.899398 -3.00948 0
M  V30 11985 H 1162.1 -3.06379 -4.00185 0
M  V30 11986 H 1161.7 -2.97193 -2.27051 0
M  V30 11987 H 1163.99 -4.54527 -5.02406 0
M  V30 11988 H 1164.94 -5.76558 -4.1108 0
M  V30 11989 H 1165.34 -4.03136 -3.95147 0
M  V30 11990 N 1164.74 0.6258 -1.44643 0
M  V30 11991 C 1165.99 1.3873 -1.47925 0
M  V30 11992 C 1166.32 1.93868 -0.113469 0
M  V30 11993 O 1165.6 1.73976 0.869639 0
M  V30 11994 C 1165.88 2.54867 -2.54391 0
M  V30 11995 C 1165.73 2.05044 -4.00346 0
M  V30 11996 C 1167.05 3.57043 -2.57309 0
M  V30 11997 H 1164.17 0.503087 -0.538584 0
M  V30 11998 H 1166.81 0.707102 -1.76352 0
M  V30 11999 H 1164.96 3.12894 -2.30281 0
M  V30 12000 H 1166.63 1.51807 -4.35606 0
M  V30 12001 H 1164.88 1.36185 -4.11869 0
M  V30 12002 H 1165.55 2.88681 -4.70497 0
M  V30 12003 H 1168.02 3.08826 -2.78865 0
M  V30 12004 H 1166.9 4.35818 -3.33698 0
M  V30 12005 H 1167.16 4.11464 -1.61708 0
M  V30 12006 N 1166.22 1.31629 0.866686 0
M  V30 12007 C 1167.18 1.1951 1.95576 0
M  V30 12008 C 1168.18 0.121319 1.60342 0
M  V30 12009 O 1169.37 0.370832 1.70207 0
M  V30 12010 C 1166.51 0.835201 3.30511 0
M  V30 12011 H 1167.7 2.16285 2.07752 0
M  V30 12012 H 1165.25 1.15288 1.05539 0
M  V30 12013 H 1165.99 -0.131245 3.24034 0
M  V30 12014 H 1165.77 1.61142 3.57457 0
M  V30 12015 H 1167.26 0.774393 4.10357 0
M  V30 12016 N 1167.7 -1.08142 1.14644 0
M  V30 12017 C 1168.95 -1.80849 0.917685 0
M  V30 12018 C 1169.28 -1.86123 -0.554249 0
M  V30 12019 O 1168.55 -1.33907 -1.41065 0
M  V30 12020 C 1168.84 -3.26325 1.52264 0
M  V30 12021 C 1168.69 -3.29244 3.06461 0
M  V30 12022 C 1170.01 -4.23375 1.20175 0
M  V30 12023 H 1167.13 -0.656559 0.334812 0
M  V30 12024 H 1169.77 -1.26595 1.41682 0
M  V30 12025 H 1167.92 -3.72656 1.09817 0
M  V30 12026 H 1169.59 -2.91216 3.57758 0
M  V30 12027 H 1167.83 -2.68438 3.40769 0
M  V30 12028 H 1168.51 -4.31785 3.43897 0
M  V30 12029 H 1170.98 -3.85394 1.56877 0
M  V30 12030 H 1169.86 -5.23472 1.65132 0
M  V30 12031 H 1170.12 -4.41944 0.117474 0
M  V30 12032 N 1169.18 -0.941978 -1.26351 0
M  V30 12033 C 1170.11 -0.396486 -2.24729 0
M  V30 12034 C 1171.09 0.51514 -1.54224 0
M  V30 12035 O 1172.27 0.452405 -1.82991 0
M  V30 12036 C 1169.4 0.430232 -3.35956 0
M  V30 12037 C 1168.45 -0.419981 -4.24427 0
M  V30 12038 S 1169.28 -1.84442 -5.02734 0
M  V30 12039 C 1170.43 -1.02578 -6.17437 0
M  V30 12040 H 1170.67 -1.23025 -2.70651 0
M  V30 12041 H 1168.2 -0.745148 -1.35229 0
M  V30 12042 H 1170.16 0.901315 -4.00483 0
M  V30 12043 H 1168.82 1.23868 -2.88644 0
M  V30 12044 H 1168.01 0.213475 -5.03548 0
M  V30 12045 H 1167.61 -0.82578 -3.6477 0
M  V30 12046 H 1169.91 -0.268431 -6.76968 0
M  V30 12047 H 1170.85 -1.79047 -6.85089 0
M  V30 12048 H 1171.26 -0.561488 -5.61701 0
M  V30 12049 N 1170.66 1.40747 -0.709091 0
M  V30 12050 C 1171.62 2.29118 -0.0611607 0
M  V30 12051 C 1172.62 1.45049 0.694081 0
M  V30 12052 O 1173.81 1.66039 0.526952 0
M  V30 12053 C 1170.94 3.28154 0.923447 0
M  V30 12054 H 1172.13 2.87913 -0.839413 0
M  V30 12055 H 1169.69 1.4896 -0.473363 0
M  V30 12056 H 1170.42 2.74366 1.72899 0
M  V30 12057 H 1170.21 3.90207 0.384862 0
M  V30 12058 H 1171.7 3.94343 1.37417 0
M  V30 12059 N 1172.13 0.454803 1.50895 0
M  V30 12060 C 1173.1 -0.336293 2.26719 0
M  V30 12061 C 1174.1 -0.93464 1.30848 0
M  V30 12062 O 1175.29 -0.80636 1.54413 0
M  V30 12063 C 1172.42 -1.47744 3.07221 0
M  V30 12064 H 1173.61 0.328462 2.98096 0
M  V30 12065 H 1171.16 0.208419 1.54904 0
M  V30 12066 H 1171.9 -2.17773 2.40302 0
M  V30 12067 H 1171.68 -1.05438 3.77658 0
M  V30 12068 H 1173.17 -2.03592 3.6461 0
M  V30 12069 N 1173.61 -1.56489 0.186789 0
M  V30 12070 C 1174.54 -2.21705 -0.732739 0
M  V30 12071 C 1175.52 -1.17751 -1.22755 0
M  V30 12072 O 1176.71 -1.46231 -1.27789 0
M  V30 12073 C 1173.84 -2.86992 -1.95584 0
M  V30 12074 C 1172.79 -3.97118 -1.59628 0
M  V30 12075 C 1172.12 -4.49529 -2.89531 0
M  V30 12076 C 1173.42 -5.15941 -0.812518 0
M  V30 12077 H 1175.11 -2.98802 -0.189094 0
M  V30 12078 H 1172.66 -1.43722 -0.0895099 0
M  V30 12079 H 1174.61 -3.31295 -2.60426 0
M  V30 12080 H 1173.33 -2.07287 -2.52388 0
M  V30 12081 H 1171.99 -3.53494 -0.971475 0
M  V30 12082 H 1171.64 -3.66596 -3.44407 0
M  V30 12083 H 1171.34 -5.23832 -2.66221 0
M  V30 12084 H 1172.87 -4.96528 -3.55376 0
M  V30 12085 H 1174.28 -5.56841 -1.36386 0
M  V30 12086 H 1172.68 -5.96259 -0.677862 0
M  V30 12087 H 1173.75 -4.84535 0.188095 0
M  V30 12088 N 1175.09 0.086862 -1.5736 0
M  V30 12089 C 1176.34 0.787281 -1.86135 0
M  V30 12090 C 1176.66 1.78866 -0.776667 0
M  V30 12091 O 1175.93 1.94915 0.19625 0
M  V30 12092 H 1174.51 0.293744 -0.686821 0
M  V30 12093 H 1177.17 0.0665326 -1.94786 0
M  V30 12094 H 1176.27 1.3128 -2.83147 0
M  V30 12095 N 1176.57 1.53483 0.357892 0
M  V30 12096 C 1177.81 1.70289 1.10134 0
M  V30 12097 C 1178.15 0.457296 1.88739 0
M  V30 12098 O 1177.42 -0.545527 1.86693 0
M  V30 12099 C 1177.7 2.95755 2.05429 0
M  V30 12100 C 1177.56 4.30489 1.30382 0
M  V30 12101 C 1178.88 3.16844 3.05447 0
M  V30 12102 H 1176 0.61965 0.399003 0
M  V30 12103 H 1178.64 1.86133 0.381357 0
M  V30 12104 H 1176.79 2.82377 2.66825 0
M  V30 12105 H 1178.46 4.55692 0.71711 0
M  V30 12106 H 1176.7 4.2955 0.605712 0
M  V30 12107 H 1177.37 5.14427 2.00171 0
M  V30 12108 H 1179.85 3.29458 2.54159 0
M  V30 12109 H 1178.73 4.06053 3.69341 0
M  V30 12110 H 1178.99 2.32476 3.76041 0
M  V30 12111 N 1178.05 -0.61812 1.44973 0
M  V30 12112 C 1179.01 -1.71135 1.52465 0
M  V30 12113 C 1180.01 -1.5561 0.405246 0
M  V30 12114 O 1181.2 -1.60869 0.668351 0
M  V30 12115 C 1178.33 -3.10324 1.41108 0
M  V30 12116 H 1179.52 -1.65862 2.49859 0
M  V30 12117 H 1177.08 -0.832932 1.32257 0
M  V30 12118 H 1177.81 -3.21183 0.448574 0
M  V30 12119 H 1177.6 -3.23001 2.2229 0
M  V30 12120 H 1179.09 -3.89976 1.49361 0
M  V30 12121 N 1179.52 -1.32087 -0.859693 0
M  V30 12122 C 1180.77 -1.22542 -1.6159 0
M  V30 12123 C 1181.1 0.213533 -1.93022 0
M  V30 12124 O 1180.38 1.14931 -1.56911 0
M  V30 12125 C 1180.66 -2.08004 -2.93949 0
M  V30 12126 C 1180.51 -3.60252 -2.6933 0
M  V30 12127 C 1181.83 -1.93732 -3.95166 0
M  V30 12128 H 1178.95 -0.446504 -0.586347 0
M  V30 12129 H 1181.59 -1.61982 -0.993064 0
M  V30 12130 H 1179.74 -1.74498 -3.47106 0
M  V30 12131 H 1181.42 -4.03947 -2.22766 0
M  V30 12132 H 1179.66 -3.83169 -2.03382 0
M  V30 12133 H 1180.33 -4.1537 -3.63555 0
M  V30 12134 H 1182.81 -2.23075 -3.5125 0
M  V30 12135 H 1181.68 -2.55815 -4.85644 0
M  V30 12136 H 1181.94 -0.903528 -4.32769 0
M  V30 12137 N 1181 1.07532 -1.15215 0
M  V30 12138 C 1182.28 1.76813 -0.83646 0
M  V30 12139 C 1182.66 2.00242 0.6683 0
M  V30 12140 O 1182.01 1.61941 1.61206 0
M  V30 12141 C 1182.22 3.0779 -1.64519 0
M  V30 12142 C 1183.56 3.82168 -1.85022 0
M  V30 12143 O 1184.59 3.17596 -1.61279 0
M  V30 12144 O 1183.45 4.98135 -2.24775 0
M  V30 12145 H 1180.54 0.767736 -0.307426 0
M  V30 12146 H 1183.09 1.13914 -1.25784 0
M  V30 12147 H 1181.86 2.86342 -2.6669 0
M  V30 12148 H 1181.48 3.78419 -1.22002 0
M  V30 12149 N 1182.48 0.948665 1.2585 0
M  V30 12150 C 1183.73 0.59905 1.93018 0
M  V30 12151 C 1184.05 -0.865813 1.74725 0
M  V30 12152 O 1183.32 -1.61602 1.10732 0
M  V30 12153 H 1181.9 0.218565 0.71431 0
M  V30 12154 H 1184.56 1.20561 1.53137 0
M  V30 12155 H 1183.66 0.823244 3.01047 0
M  V30 12156 N 1183.96 -1.40369 0.716545 0
M  V30 12157 C 1185.21 -2.00473 0.255959 0
M  V30 12158 C 1185.53 -1.57104 -1.15514 0
M  V30 12159 O 1184.8 -0.810925 -1.78328 0
M  V30 12160 H 1183.38 -0.741357 0.0916427 0
M  V30 12161 H 1186.04 -1.71692 0.922389 0
M  V30 12162 H 1185.14 -3.10752 0.289806 0
M  V30 12163 N 1185.44 -0.462799 -1.50652 0
M  V30 12164 C 1186.38 0.335664 -2.28346 0
M  V30 12165 C 1187.35 0.994541 -1.33034 0
M  V30 12166 O 1188.54 1.00857 -1.61964 0
M  V30 12167 C 1185.68 1.41648 -3.1469 0
M  V30 12168 C 1184.79 0.773207 -4.25024 0
M  V30 12169 C 1183.93 1.83121 -4.98638 0
M  V30 12170 C 1182.97 1.16774 -6.00858 0
M  V30 12171 N 1182.1 2.16823 -6.67782 0
M  V30 12172 H 1186.94 -0.333202 -2.96131 0
M  V30 12173 H 1184.48 -0.176166 -1.46041 0
M  V30 12174 H 1186.44 2.05468 -3.63096 0
M  V30 12175 H 1185.07 2.05462 -2.48968 0
M  V30 12176 H 1184.12 0.0226444 -3.80393 0
M  V30 12177 H 1185.43 0.249061 -4.98178 0
M  V30 12178 H 1184.59 2.54543 -5.5072 0
M  V30 12179 H 1183.32 2.38915 -4.25172 0
M  V30 12180 H 1182.33 0.439112 -5.48044 0
M  V30 12181 H 1183.55 0.616809 -6.76293 0
M  V30 12182 H 1181.5 2.71649 -5.97112 0
M  V30 12183 H 1181.42 1.69371 -7.36783 0
M  V30 12184 H 1182.69 2.8765 -7.24484 0
M  V30 12185 N 1186.91 1.56388 -0.195085 0
M  V30 12186 C 1188.19 1.89329 0.491303 0
M  V30 12187 C 1188.57 1.10861 1.79647 0
M  V30 12188 O 1187.92 0.209696 2.27536 0
M  V30 12189 C 1188.13 3.417 0.710096 0
M  V30 12190 C 1189.48 4.11931 1.02947 0
M  V30 12191 O 1190.5 3.4715 0.797817 0
M  V30 12192 O 1189.36 5.26423 1.46767 0
M  V30 12193 H 1186.45 0.786335 0.256137 0
M  V30 12194 H 1189 1.68061 -0.235298 0
M  V30 12195 H 1187.77 3.90727 -0.211604 0
M  V30 12196 H 1187.4 3.6866 1.48916 0
M  V30 12197 N 1188.39 -0.0785156 1.57404 0
M  V30 12198 C 1189.62 -0.795871 1.91522 0
M  V30 12199 C 1190.04 -1.70665 0.790892 0
M  V30 12200 O 1189.4 -1.79474 -0.25666 0
M  V30 12201 C 1189.45 -1.57121 3.24569 0
M  V30 12202 O 1188.55 -2.6814 3.13328 0
M  V30 12203 H 1187.89 -0.217575 0.627341 0
M  V30 12204 H 1190.42 -0.0487724 2.04542 0
M  V30 12205 H 1190.43 -1.9519 3.5828 0
M  V30 12206 H 1189.11 -0.902909 4.05981 0
M  V30 12207 H 1187.69 -2.32978 2.91163 0
M  V30 12208 N 1189.87 -1.5367 -0.349747 0
M  V30 12209 C 1190.8 -1.84208 -1.43492 0
M  V30 12210 C 1191.78 -0.696725 -1.55177 0
M  V30 12211 O 1192.97 -0.948061 -1.69486 0
M  V30 12212 C 1190.1 -2.04613 -2.80625 0
M  V30 12213 C 1189.05 -3.20419 -2.83753 0
M  V30 12214 C 1188.38 -3.26147 -4.23713 0
M  V30 12215 C 1189.68 -4.58666 -2.49846 0
M  V30 12216 H 1191.37 -2.75087 -1.18185 0
M  V30 12217 H 1188.92 -1.32363 -0.567101 0
M  V30 12218 H 1190.87 -2.2456 -3.56582 0
M  V30 12219 H 1189.59 -1.10459 -3.07354 0
M  V30 12220 H 1188.25 -3.00318 -2.10249 0
M  V30 12221 H 1187.9 -2.29599 -4.47541 0
M  V30 12222 H 1187.6 -4.03963 -4.26717 0
M  V30 12223 H 1189.12 -3.48296 -5.0152 0
M  V30 12224 H 1190.54 -4.78668 -3.15516 0
M  V30 12225 H 1188.94 -5.3884 -2.64144 0
M  V30 12226 H 1190.01 -4.62697 -1.4505 0
M  V30 12227 N 1191.35 0.610423 -1.45298 0
M  V30 12228 C 1192.57 1.40112 -1.52917 0
M  V30 12229 C 1193 1.87404 -0.161696 0
M  V30 12230 O 1192.36 1.59973 0.853135 0
M  V30 12231 C 1192.4 2.58359 -2.51561 0
M  V30 12232 O 1191.51 3.58895 -2.03146 0
M  V30 12233 H 1190.85 0.41841 -0.515586 0
M  V30 12234 H 1193.38 0.743159 -1.90626 0
M  V30 12235 H 1193.39 3.0564 -2.70275 0
M  V30 12236 H 1192.06 2.23286 -3.50879 0
M  V30 12237 H 1190.64 3.18282 -1.94296 0
M  V30 12238 N 1192.83 1.32541 0.852676 0
M  V30 12239 C 1193.76 1.15977 1.96531 0
M  V30 12240 C 1194.74 0.0587267 1.62494 0
M  V30 12241 O 1195.92 0.218404 1.8723 0
M  V30 12242 C 1193.05 0.77587 3.29694 0
M  V30 12243 C 1192.09 1.88244 3.82709 0
M  V30 12244 S 1192.93 3.49108 4.06059 0
M  V30 12245 C 1194.08 3.12693 5.42193 0
M  V30 12246 H 1194.32 2.10165 2.1028 0
M  V30 12247 H 1191.85 1.17225 1.00487 0
M  V30 12248 H 1193.81 0.561136 4.06647 0
M  V30 12249 H 1192.47 -0.14718 3.13755 0
M  V30 12250 H 1191.66 1.56687 4.79025 0
M  V30 12251 H 1191.26 2.05313 3.12606 0
M  V30 12252 H 1193.56 2.62661 6.24512 0
M  V30 12253 H 1194.5 4.08038 5.78714 0
M  V30 12254 H 1194.91 2.4966 5.06291 0
M  V30 12255 N 1194.3 -1.0692 1.15784 0
M  V30 12256 C 1195.27 -2.12407 0.861167 0
M  V30 12257 C 1196.27 -1.6018 -0.141031 0
M  V30 12258 O 1197.46 -1.73972 0.0891192 0
M  V30 12259 C 1194.59 -3.39693 0.286636 0
M  V30 12260 H 1195.78 -2.40157 1.79623 0
M  V30 12261 H 1193.34 -1.22881 0.965916 0
M  V30 12262 H 1194.07 -3.17587 -0.656417 0
M  V30 12263 H 1193.86 -3.78903 1.0087 0
M  V30 12264 H 1195.35 -4.17488 0.0967971 0
M  V30 12265 N 1195.78 -0.955326 -1.25345 0
M  V30 12266 C 1196.75 -0.480564 -2.24105 0
M  V30 12267 C 1197.75 0.416123 -1.55322 0
M  V30 12268 O 1198.94 0.213315 -1.72889 0
M  V30 12269 C 1196.07 0.305589 -3.39528 0
M  V30 12270 H 1197.26 -1.35349 -2.6762 0
M  V30 12271 H 1194.81 -0.738673 -1.37744 0
M  V30 12272 H 1195.55 1.19615 -3.01434 0
M  V30 12273 H 1195.33 -0.337719 -3.90643 0
M  V30 12274 H 1196.82 0.627201 -4.12863 0
M  V30 12275 N 1197.26 1.39987 -0.723979 0
M  V30 12276 C 1198.68 1.54547 -0.398403 0
M  V30 12277 C 1198.88 1.69348 1.09194 0
M  V30 12278 O 1197.93 1.68778 1.87804 0
M  V30 12279 C 1199.25 2.76929 -1.1718 0
M  V30 12280 C 1200.79 2.90754 -1.15893 0
M  V30 12281 C 1201.27 4.16059 -1.91465 0
M  V30 12282 N 1202.76 4.23076 -1.88576 0
M  V30 12283 C 1203.5 5.18957 -2.43867 0
M  V30 12284 N 1202.99 6.20695 -3.0775 0
M  V30 12285 N 1204.78 5.11095 -2.33962 0
M  V30 12286 H 1196.94 1.28626 -1.69024 0
M  V30 12287 H 1199.2 0.6226 -0.714894 0
M  V30 12288 H 1198.9 2.72298 -2.22591 0
M  V30 12289 H 1198.78 3.69279 -0.768941 0
M  V30 12290 H 1201.17 2.94884 -0.112978 0
M  V30 12291 H 1201.25 1.99498 -1.60107 0
M  V30 12292 H 1200.89 4.12691 -2.96055 0
M  V30 12293 H 1200.82 5.06339 -1.44665 0
M  V30 12294 H 1203.31 3.50195 -1.42027 0
M  V30 12295 H 1203.62 6.90296 -3.47435 0
M  V30 12296 H 1201.97 6.21114 -3.11837 0
M  V30 12297 H 1205.16 4.30546 -1.83706 0
M  V30 12298 H 1205.33 5.85644 -2.77353 0
M  V30 12299 N 1198.74 0.470782 1.50404 0
M  V30 12300 C 1199.99 -0.0844409 2.02624 0
M  V30 12301 C 1200.32 -1.39398 1.3521 0
M  V30 12302 O 1199.59 -1.88542 0.477707 0
M  V30 12303 C 1199.88 -0.268563 3.59097 0
M  V30 12304 C 1199.73 1.06198 4.37084 0
M  V30 12305 C 1201.05 -1.02324 4.28039 0
M  V30 12306 H 1198.17 -0.0292141 0.736421 0
M  V30 12307 H 1200.81 0.616312 1.79726 0
M  V30 12308 H 1198.96 -0.865441 3.78738 0
M  V30 12309 H 1200.63 1.69541 4.29015 0
M  V30 12310 H 1198.87 1.65868 4.00837 0
M  V30 12311 H 1199.55 0.886795 5.4483 0
M  V30 12312 H 1202.02 -0.517325 4.12872 0
M  V30 12313 H 1200.9 -1.12087 5.37334 0
M  V30 12314 H 1201.16 -2.05974 3.91187 0
M  V30 12315 N 1200.22 -1.56282 0.203376 0
M  V30 12316 C 1201.47 -1.97421 -0.432346 0
M  V30 12317 C 1201.79 -1.0917 -1.61576 0
M  V30 12318 O 1201.06 -0.164759 -1.95206 0
M  V30 12319 H 1199.64 -0.729062 -0.162721 0
M  V30 12320 H 1202.3 -1.927 0.292039 0
M  V30 12321 H 1201.39 -3.02429 -0.770918 0
M  V30 12322 N 1201.7 0.070167 -1.57444 0
M  V30 12323 C 1202.92 0.781894 -1.91557 0
M  V30 12324 C 1203.34 1.71037 -0.799489 0
M  V30 12325 O 1202.7 1.81082 0.227062 0
M  V30 12326 C 1202.75 1.57415 -3.25427 0
M  V30 12327 O 1202.47 0.682991 -4.32743 0
M  V30 12328 C 1203.97 2.38673 -3.73564 0
M  V30 12329 H 1201.19 0.222211 -0.633138 0
M  V30 12330 H 1203.73 0.0399504 -2.04461 0
M  V30 12331 H 1201.89 2.26835 -3.14045 0
M  V30 12332 H 1202.3 1.2342 -5.09772 0
M  V30 12333 H 1203.78 2.89716 -4.6986 0
M  V30 12334 H 1204.25 3.18269 -3.02657 0
M  V30 12335 H 1204.86 1.74405 -3.87896 0
M  V30 12336 N 1203.17 1.53854 0.341593 0
M  V30 12337 C 1204.08 1.84975 1.44297 0
M  V30 12338 C 1205.1 0.740057 1.57477 0
M  V30 12339 O 1206.28 1.03256 1.72917 0
M  V30 12340 C 1203.34 2.05464 2.79259 0
M  V30 12341 C 1202.4 3.29318 2.75405 0
M  V30 12342 C 1201.63 3.4882 4.03931 0
M  V30 12343 O 1201.86 2.7212 5.01305 0
M  V30 12344 O 1200.79 4.42253 4.08284 0
M  V30 12345 H 1204.62 2.78592 1.20913 0
M  V30 12346 H 1202.2 1.39532 0.533953 0
M  V30 12347 H 1204.08 2.20374 3.59184 0
M  V30 12348 H 1202.76 1.15035 3.0257 0
M  V30 12349 H 1201.67 3.1981 1.94094 0
M  V30 12350 H 1203 4.19746 2.57049 0
M  V30 12351 N 1204.65 -0.602709 1.4562 0
M  V30 12352 C 1205.88 -1.3881 1.53426 0
M  V30 12353 C 1206.29 -1.88046 0.16851 0
M  V30 12354 O 1205.65 -1.62493 -0.830791 0
M  V30 12355 C 1205.7 -2.58927 2.52268 0
M  V30 12356 O 1205.42 -2.11735 3.83536 0
M  V30 12357 C 1206.92 -3.51728 2.69819 0
M  V30 12358 H 1204.14 -0.424744 0.519455 0
M  V30 12359 H 1206.69 -0.73459 1.90851 0
M  V30 12360 H 1204.84 -3.20309 2.17902 0
M  V30 12361 H 1205.26 -2.89814 4.37159 0
M  V30 12362 H 1206.73 -4.32542 3.42945 0
M  V30 12363 H 1207.21 -4.02383 1.76024 0
M  V30 12364 H 1207.81 -2.96196 3.05202 0
M  V30 12365 N 1206.13 -1.32992 -0.845635 0
M  V30 12366 C 1207.38 -1.24249 -1.60281 0
M  V30 12367 C 1207.71 0.193049 -1.93238 0
M  V30 12368 O 1206.98 1.1326 -1.58122 0
M  V30 12369 C 1207.27 -2.1111 -2.91727 0
M  V30 12370 C 1207.12 -3.63088 -2.65494 0
M  V30 12371 C 1208.44 -1.97913 -3.93089 0
M  V30 12372 H 1205.56 -0.452698 -0.581578 0
M  V30 12373 H 1208.2 -1.63026 -0.975828 0
M  V30 12374 H 1206.35 -1.78169 -3.45236 0
M  V30 12375 H 1208.02 -4.06287 -2.18469 0
M  V30 12376 H 1206.26 -3.85304 -1.99306 0
M  V30 12377 H 1206.94 -4.19202 -3.59129 0
M  V30 12378 H 1209.41 -2.26788 -3.48864 0
M  V30 12379 H 1208.29 -2.60952 -4.82903 0
M  V30 12380 H 1208.55 -0.949378 -4.31786 0
M  V30 12381 N 1207.61 1.06304 -1.1635 0
M  V30 12382 C 1209.02 1.31227 -0.90838 0
M  V30 12383 C 1209.22 1.96665 0.438779 0
M  V30 12384 O 1208.28 2.2332 1.17833 0
M  V30 12385 C 1209.59 2.19303 -2.05734 0
M  V30 12386 C 1211.14 2.3272 -2.09309 0
M  V30 12387 C 1211.62 3.24151 -3.23559 0
M  V30 12388 N 1213.11 3.31734 -3.23275 0
M  V30 12389 C 1213.84 4.02572 -4.08318 0
M  V30 12390 N 1213.34 4.75933 -5.03448 0
M  V30 12391 N 1215.13 3.98621 -3.96305 0
M  V30 12392 H 1207.28 0.622228 -2.03081 0
M  V30 12393 H 1209.54 0.336892 -0.886119 0
M  V30 12394 H 1209.25 1.78497 -3.03037 0
M  V30 12395 H 1209.12 3.19888 -1.99879 0
M  V30 12396 H 1211.51 2.72774 -1.12599 0
M  V30 12397 H 1211.59 1.31804 -2.19229 0
M  V30 12398 H 1211.24 2.84813 -4.20528 0
M  V30 12399 H 1211.17 4.25046 -3.10875 0
M  V30 12400 H 1213.66 2.79453 -2.5439 0
M  V30 12401 H 1213.97 5.27512 -5.64758 0
M  V30 12402 H 1212.32 4.74913 -5.07427 0
M  V30 12403 H 1215.51 3.40427 -3.21289 0
M  V30 12404 H 1215.68 4.5356 -4.62804 0
M  V30 12405 N 1209.09 0.96196 1.24836 0
M  V30 12406 C 1210.05 0.492443 2.23847 0
M  V30 12407 C 1211.05 -0.40788 1.55541 0
M  V30 12408 O 1212.24 -0.204143 1.73 0
M  V30 12409 C 1209.37 -0.287578 3.39685 0
M  V30 12410 H 1210.56 1.36767 2.66899 0
M  V30 12411 H 1208.12 0.745967 1.3735 0
M  V30 12412 H 1208.85 -1.18015 3.02064 0
M  V30 12413 H 1208.64 0.358431 3.90458 0
M  V30 12414 H 1210.13 -0.605297 4.1319 0
M  V30 12415 N 1210.56 -1.39601 0.731392 0
M  V30 12416 C 1211.97 -1.83424 0.348194 0
M  V30 12417 C 1212.33 -1.61106 -1.11979 0
M  V30 12418 O 1211.45 -1.1003 -1.86339 0
M  V30 12419 C 1212.05 -3.32982 0.6252 0
M  V30 12420 C 1210.6 -3.75238 0.295536 0
M  V30 12421 C 1209.75 -2.62642 0.88964 0
M  V30 12422 H 1212.7 -1.28644 0.929318 0
M  V30 12423 H 1212.72 -3.80357 -0.104254 0
M  V30 12424 H 1212.24 -3.49193 1.69368 0
M  V30 12425 H 1210.34 -3.64615 -0.767254 0
M  V30 12426 H 1210.45 -4.72781 0.775576 0
M  V30 12427 H 1208.81 -2.52726 0.316529 0
M  V30 12428 H 1209.6 -2.81661 1.96271 0
M  V30 12429 N 1212.04 -0.478751 -1.50152 0
M  V30 12430 C 1213.29 0.0734397 -2.01967 0
M  V30 12431 C 1213.61 1.39523 -1.36229 0
M  V30 12432 O 1212.88 1.89141 -0.510149 0
M  V30 12433 H 1211.46 0.0301305 -0.746392 0
M  V30 12434 H 1214.12 -0.630921 -1.84406 0
M  V30 12435 H 1213.22 0.21937 -3.11328 0
M  V30 12436 N 1213.52 1.56172 -0.211661 0
M  V30 12437 C 1214.75 2.02874 0.430905 0
M  V30 12438 C 1215.17 1.09064 1.53254 0
M  V30 12439 O 1214.53 0.0770408 1.81136 0
M  V30 12440 C 1214.58 3.4789 0.948933 0
M  V30 12441 O 1213.68 3.57213 2.0609 0
M  V30 12442 H 1213.02 0.656614 0.0987607 0
M  V30 12443 H 1215.55 2.01964 -0.327399 0
M  V30 12444 H 1215.56 3.88015 1.2613 0
M  V30 12445 H 1214.24 4.15656 0.142584 0
M  V30 12446 H 1212.81 3.28971 1.75592 0
M  V30 12447 N 1215 -0.0618163 1.57479 0
M  V30 12448 C 1215.93 -1.07252 2.07411 0
M  V30 12449 C 1216.91 -1.39756 0.969649 0
M  V30 12450 O 1218.09 -1.4921 1.24298 0
M  V30 12451 C 1215.22 -2.38313 2.52635 0
M  V30 12452 C 1214.18 -2.20136 3.67048 0
M  V30 12453 C 1213.5 -3.56668 3.98361 0
M  V30 12454 C 1214.8 -1.61437 4.96725 0
M  V30 12455 H 1216.5 -0.656983 2.92103 0
M  V30 12456 H 1214.04 -0.314579 1.40522 0
M  V30 12457 H 1216 -3.09319 2.86181 0
M  V30 12458 H 1214.72 -2.81865 1.64984 0
M  V30 12459 H 1213.38 -1.51569 3.338 0
M  V30 12460 H 1213.03 -3.97809 3.07826 0
M  V30 12461 H 1212.73 -3.45342 4.75408 0
M  V30 12462 H 1214.25 -4.2909 4.34413 0
M  V30 12463 H 1215.67 -2.2232 5.28438 0
M  V30 12464 H 1214.06 -1.60779 5.78161 0
M  V30 12465 H 1215.13 -0.576795 4.81457 0
M  V30 12466 N 1216.48 -1.54033 -0.333429 0
M  V30 12467 C 1217.72 -1.72019 -1.07411 0
M  V30 12468 C 1218.06 -0.487265 -1.87988 0
M  V30 12469 O 1217.33 0.515757 -1.87537 0
M  V30 12470 C 1217.61 -2.98986 -2.00698 0
M  V30 12471 C 1217.47 -4.32509 -1.23517 0
M  V30 12472 C 1218.79 -3.21663 -3.00368 0
M  V30 12473 H 1215.9 -0.625919 -0.389094 0
M  V30 12474 H 1218.55 -1.86717 -0.351697 0
M  V30 12475 H 1216.7 -2.86586 -2.62298 0
M  V30 12476 H 1218.37 -4.56775 -0.644522 0
M  V30 12477 H 1216.61 -4.3046 -0.537298 0
M  V30 12478 H 1217.28 -5.17547 -1.91962 0
M  V30 12479 H 1219.76 -3.33459 -2.48886 0
M  V30 12480 H 1218.63 -4.11877 -3.62834 0
M  V30 12481 H 1218.9 -2.3843 -3.72295 0
M  V30 12482 N 1217.95 0.594978 -1.45938 0
M  V30 12483 C 1219.2 1.34976 -1.49881 0
M  V30 12484 C 1219.52 1.95025 -0.14983 0
M  V30 12485 O 1220.72 2.71417 -0.0669868 0
M  V30 12486 C 1219.18 2.44563 -2.6404 0
M  V30 12487 C 1218.79 1.9087 -4.05306 0
M  V30 12488 C 1220.53 3.21461 -2.77242 0
M  V30 12489 C 1218.44 2.98013 -5.10825 0
M  V30 12490 H 1217.37 0.507366 -0.55776 0
M  V30 12491 H 1220.02 0.636316 -1.72114 0
M  V30 12492 H 1218.4 3.1865 -2.35114 0
M  V30 12493 H 1219.57 1.23408 -4.43968 0
M  V30 12494 H 1217.89 1.26678 -3.96663 0
M  V30 12495 H 1220.49 4.01399 -3.53246 0
M  V30 12496 H 1220.83 3.73271 -1.84321 0
M  V30 12497 H 1221.36 2.54477 -3.05756 0
M  V30 12498 H 1218.1 2.51104 -6.05497 0
M  V30 12499 H 1217.62 3.64003 -4.7672 0
M  V30 12500 H 1219.3 3.62178 -5.36131 0
M  V30 12501 N 1219.43 1.33438 0.838571 0
M  V30 12502 C 1220.66 1.28097 1.63113 0
M  V30 12503 C 1221.08 -0.145197 1.87539 0
M  V30 12504 O 1220.44 -1.10191 1.43971 0
M  V30 12505 C 1220.49 2.06201 2.95827 0
M  V30 12506 O 1219.59 1.42082 3.87152 0
M  V30 12507 H 1218.93 0.440685 0.496681 0
M  V30 12508 H 1221.46 1.76004 1.04325 0
M  V30 12509 H 1221.47 2.16977 3.45521 0
M  V30 12510 H 1220.15 3.099 2.77371 0
M  V30 12511 H 1218.73 1.39953 3.45641 0
M  V30 12512 N 1220.91 -1.05686 1.16912 0
M  V30 12513 C 1221.87 -2.11481 0.883647 0
M  V30 12514 C 1222.87 -1.60321 -0.124034 0
M  V30 12515 O 1224.06 -1.73868 0.107566 0
M  V30 12516 C 1221.2 -3.3937 0.322649 0
M  V30 12517 H 1222.39 -2.38239 1.8216 0
M  V30 12518 H 1219.94 -1.2185 0.978895 0
M  V30 12519 H 1220.68 -3.18266 -0.622695 0
M  V30 12520 H 1220.46 -3.77812 1.04883 0
M  V30 12521 H 1221.95 -4.17362 0.141072 0
M  V30 12522 N 1222.39 -0.968567 -1.24324 0
M  V30 12523 C 1223.62 -0.647628 -1.96187 0
M  V30 12524 C 1224.03 0.787267 -1.72043 0
M  V30 12525 O 1223.37 1.53996 -1.00155 0
M  V30 12526 C 1223.43 -0.843517 -3.49464 0
M  V30 12527 C 1223.1 -2.25822 -3.97308 0
M  V30 12528 C 1224.09 -3.23602 -4.06913 0
M  V30 12529 C 1221.78 -2.58614 -4.30609 0
M  V30 12530 C 1223.77 -4.5226 -4.49154 0
M  V30 12531 C 1221.46 -3.87499 -4.72534 0
M  V30 12532 C 1222.46 -4.84134 -4.81771 0
M  V30 12533 O 1222.14 -6.10719 -5.2276 0
M  V30 12534 H 1221.88 -0.240568 -0.631746 0
M  V30 12535 H 1224.43 -1.29926 -1.59086 0
M  V30 12536 H 1222.66 -0.134716 -3.86465 0
M  V30 12537 H 1224.35 -0.521533 -4.02536 0
M  V30 12538 H 1225.12 -2.99596 -3.81402 0
M  V30 12539 H 1220.99 -1.84116 -4.22637 0
M  V30 12540 H 1224.54 -5.27689 -4.56279 0
M  V30 12541 H 1220.44 -4.11305 -4.97492 0
M  V30 12542 H 1221.2 -6.14298 -5.40906 0
M  V30 12543 N 1223.87 1.39211 -0.738786 0
M  V30 12544 C 1224.83 2.28937 -0.109746 0
M  V30 12545 C 1225.83 1.46488 0.663157 0
M  V30 12546 O 1227.02 1.67119 0.491614 0
M  V30 12547 C 1224.15 3.30039 0.853633 0
M  V30 12548 H 1225.34 2.86068 -0.900295 0
M  V30 12549 H 1222.9 1.47922 -0.504853 0
M  V30 12550 H 1223.63 2.77971 1.6704 0
M  V30 12551 H 1223.42 3.90935 0.302007 0
M  V30 12552 H 1224.91 3.97169 1.29022 0
M  V30 12553 N 1225.34 0.486708 1.49896 0
M  V30 12554 C 1226.59 -0.0629451 2.02702 0
M  V30 12555 C 1226.92 -1.37956 1.36681 0
M  V30 12556 O 1226.2 -1.88025 0.497678 0
M  V30 12557 C 1226.48 -0.230461 3.59362 0
M  V30 12558 C 1226.33 1.10828 4.35933 0
M  V30 12559 C 1227.65 -0.977785 4.29101 0
M  V30 12560 H 1224.77 -0.0214017 0.736689 0
M  V30 12561 H 1227.41 0.635339 1.79063 0
M  V30 12562 H 1225.56 -0.825222 3.79634 0
M  V30 12563 H 1227.24 1.74082 4.27192 0
M  V30 12564 H 1225.48 1.7011 3.99055 0
M  V30 12565 H 1226.15 0.944532 5.43859 0
M  V30 12566 H 1228.63 -0.473505 4.13397 0
M  V30 12567 H 1227.5 -1.06382 5.38492 0
M  V30 12568 H 1227.76 -2.01813 3.9335 0
M  V30 12569 N 1226.82 -1.56058 0.219941 0
M  V30 12570 C 1228.06 -2.00162 -0.414063 0
M  V30 12571 C 1228.43 -1.10432 -1.57063 0
M  V30 12572 O 1229.63 -1.43877 -2.27053 0
M  V30 12573 C 1227.9 -3.47411 -0.839084 0
M  V30 12574 S 1229.46 -4.13536 -1.46742 0
M  V30 12575 H 1226.28 -0.698738 -0.131475 0
M  V30 12576 H 1228.88 -1.92714 0.32885 0
M  V30 12577 H 1227.58 -4.10398 0.0123666 0
M  V30 12578 H 1227.11 -3.58728 -1.61485 0
M  V30 12579 H 1229.13 -4.12592 -2.75648 0
M  V30 12580 N 1228.3 0.053464 -1.57509 0
M  V30 12581 C 1229.71 0.603099 -1.76691 0
M  V30 12582 C 1230.06 1.76934 -0.847861 0
M  V30 12583 O 1229.19 2.16369 -0.0364962 0
M  V30 12584 C 1229.78 1.10084 -3.20417 0
M  V30 12585 C 1228.34 1.59618 -3.4088 0
M  V30 12586 C 1227.49 0.523516 -2.72313 0
M  V30 12587 H 1230.44 -0.172751 -1.57757 0
M  V30 12588 H 1230.46 1.9691 -3.25587 0
M  V30 12589 H 1229.97 0.251818 -3.87282 0
M  V30 12590 H 1228.07 2.46786 -2.79155 0
M  V30 12591 H 1228.19 1.6605 -4.49404 0
M  V30 12592 H 1226.55 0.972886 -2.35387 0
M  V30 12593 H 1227.33 -0.315629 -3.41846 0
M  V30 12594 N 1229.78 1.54207 0.325255 0
M  V30 12595 C 1231.06 1.6298 1.08153 0
M  V30 12596 C 1231.44 0.462583 2.05969 0
M  V30 12597 O 1230.78 -0.543323 2.21947 0
M  V30 12598 C 1230.99 2.999 1.78497 0
M  V30 12599 C 1232.34 3.55888 2.3158 0
M  V30 12600 O 1233.37 3.02194 1.88566 0
M  V30 12601 O 1232.23 4.49847 3.10322 0
M  V30 12602 H 1229.32 0.659923 0.498429 0
M  V30 12603 H 1231.87 1.66553 0.325282 0
M  V30 12604 H 1230.64 3.7629 1.07338 0
M  V30 12605 H 1230.26 2.99997 2.60936 0
M  V30 12606 N 1231.26 -0.58723 1.46251 0
M  V30 12607 C 1232.51 -1.34179 1.50595 0
M  V30 12608 C 1232.82 -1.94943 0.160171 0
M  V30 12609 O 1234.03 -2.71378 0.0813797 0
M  V30 12610 C 1232.48 -2.43159 2.65333 0
M  V30 12611 C 1232.09 -1.88718 4.06312 0
M  V30 12612 C 1233.83 -3.19986 2.78943 0
M  V30 12613 C 1231.74 -2.953 5.12398 0
M  V30 12614 H 1230.67 -0.504401 0.560442 0
M  V30 12615 H 1233.32 -0.627179 1.72449 0
M  V30 12616 H 1231.7 -3.17398 2.368 0
M  V30 12617 H 1232.88 -1.21051 4.44616 0
M  V30 12618 H 1231.19 -1.24572 3.97329 0
M  V30 12619 H 1233.79 -3.9952 3.5537 0
M  V30 12620 H 1234.13 -3.72288 1.86298 0
M  V30 12621 H 1234.67 -2.52852 3.07101 0
M  V30 12622 H 1231.4 -2.4789 6.0682 0
M  V30 12623 H 1230.92 -3.61469 4.78644 0
M  V30 12624 H 1232.6 -3.5933 5.38044 0
M  V30 12625 N 1232.74 -1.33881 -0.831482 0
M  V30 12626 C 1233.96 -1.28812 -1.61911 0
M  V30 12627 C 1234.38 0.139519 -1.88284 0
M  V30 12628 O 1233.74 1.08397 -1.46821 0
M  V30 12629 C 1233.79 -2.06806 -2.96502 0
M  V30 12630 O 1233.51 -3.44 -2.71285 0
M  V30 12631 C 1235.01 -2.09033 -3.90922 0
M  V30 12632 H 1232.23 -0.443473 -0.50356 0
M  V30 12633 H 1234.77 -1.76365 -1.03516 0
M  V30 12634 H 1232.93 -1.62915 -3.51479 0
M  V30 12635 H 1233.34 -3.84213 -3.57044 0
M  V30 12636 H 1234.82 -2.68044 -4.82552 0
M  V30 12637 H 1235.29 -1.08249 -4.25651 0
M  V30 12638 H 1235.9 -2.52975 -3.41883 0
M  V30 12639 N 1234.21 1.05064 -1.1747 0
M  V30 12640 C 1235.18 2.1101 -0.89485 0
M  V30 12641 C 1236.18 1.60384 0.11553 0
M  V30 12642 O 1237.37 1.73808 -0.116785 0
M  V30 12643 C 1234.5 3.39194 -0.340642 0
M  V30 12644 H 1235.69 2.37269 -1.83421 0
M  V30 12645 H 1233.24 1.21329 -0.985343 0
M  V30 12646 H 1233.98 3.18591 0.605808 0
M  V30 12647 H 1233.76 3.77251 -1.06885 0
M  V30 12648 H 1235.25 4.17281 -0.163204 0
M  V30 12649 N 1235.69 0.975146 1.23809 0
M  V30 12650 C 1236.92 0.658978 1.96125 0
M  V30 12651 C 1237.33 -0.773044 1.72248 0
M  V30 12652 O 1236.69 -1.51956 1.01072 0
M  V30 12653 C 1236.74 0.933355 3.49243 0
M  V30 12654 O 1236.46 2.30909 3.72307 0
M  V30 12655 C 1237.96 0.632408 4.38766 0
M  V30 12656 H 1235.18 0.245237 0.62458 0
M  V30 12657 H 1237.73 1.3051 1.5744 0
M  V30 12658 H 1235.88 0.333323 3.85963 0
M  V30 12659 H 1236.3 2.39476 4.66638 0
M  V30 12660 H 1237.77 0.874791 5.45024 0
M  V30 12661 H 1238.25 -0.433453 4.37056 0
M  V30 12662 H 1238.85 1.21268 4.07645 0
M  V30 12663 N 1237.17 -1.38817 0.746158 0
M  V30 12664 C 1238.42 -2.00577 0.299458 0
M  V30 12665 C 1238.75 -1.59087 -1.11378 0
M  V30 12666 O 1238.02 -0.824932 -1.7614 0
M  V30 12667 C 1238.31 -3.57713 0.413932 0
M  V30 12668 C 1238.16 -4.09189 1.86774 0
M  V30 12669 C 1239.48 -4.39659 -0.197082 0
M  V30 12670 H 1236.6 -0.728702 0.110285 0
M  V30 12671 H 1239.24 -1.64866 0.944408 0
M  V30 12672 H 1237.39 -3.88265 -0.135155 0
M  V30 12673 H 1239.06 -3.89311 2.47456 0
M  V30 12674 H 1237.3 -3.62333 2.38532 0
M  V30 12675 H 1237.98 -5.18305 1.89904 0
M  V30 12676 H 1240.45 -4.15216 0.271121 0
M  V30 12677 H 1239.33 -5.48832 -0.0867011 0
M  V30 12678 H 1239.59 -4.23028 -1.2845 0
M  V30 12679 N 1238.65 -0.49465 -1.49636 0
M  V30 12680 C 1239.88 0.0491129 -2.06842 0
M  V30 12681 C 1240.29 1.31395 -1.35576 0
M  V30 12682 O 1239.65 1.7731 -0.432135 0
M  V30 12683 C 1239.7 0.313171 -3.60141 0
M  V30 12684 O 1239.42 -0.90152 -4.28724 0
M  V30 12685 C 1240.92 0.901284 -4.34041 0
M  V30 12686 H 1238.14 -0.0176186 -0.670769 0
M  V30 12687 H 1240.68 -0.690188 -1.92501 0
M  V30 12688 H 1238.84 1.00244 -3.74206 0
M  V30 12689 H 1239.25 -0.660477 -5.20325 0
M  V30 12690 H 1240.73 1.03567 -5.42197 0
M  V30 12691 H 1241.2 1.89746 -3.96097 0
M  V30 12692 H 1241.81 0.249677 -4.24566 0
M  V30 12693 N 1240.13 1.55939 -0.228214 0
M  V30 12694 C 1241.54 1.84612 0.278417 0
M  V30 12695 C 1241.89 1.14973 1.58983 0
M  V30 12696 O 1241.01 0.421673 2.12252 0
M  V30 12697 C 1241.61 3.3491 0.511935 0
M  V30 12698 C 1240.17 3.63876 0.962861 0
M  V30 12699 C 1239.31 2.77284 0.0296246 0
M  V30 12700 H 1242.26 1.52149 -0.451245 0
M  V30 12701 H 1242.29 3.55477 1.35707 0
M  V30 12702 H 1241.8 3.85567 -0.442697 0
M  V30 12703 H 1239.9 3.18682 1.93062 0
M  V30 12704 H 1240.01 4.71809 0.832659 0
M  V30 12705 H 1238.38 2.48961 0.53763 0
M  V30 12706 H 1239.16 3.30742 -0.920044 0
M  V30 12707 N 1241.6 -0.0451101 1.57535 0
M  V30 12708 C 1242.88 -0.773625 1.79651 0
M  V30 12709 C 1243.26 -1.94422 0.822391 0
M  V30 12710 O 1242.61 -2.28077 -0.138913 0
M  V30 12711 C 1242.82 -1.22168 3.26919 0
M  V30 12712 C 1244.17 -1.64419 3.91474 0
M  V30 12713 O 1245.19 -1.31668 3.30971 0
M  V30 12714 O 1244.05 -2.25148 4.97967 0
M  V30 12715 H 1241.14 -0.372786 0.738214 0
M  V30 12716 H 1243.69 -0.0231245 1.69684 0
M  V30 12717 H 1242.46 -0.385302 3.89398 0
M  V30 12718 H 1242.09 -2.03269 3.41713 0
M  V30 12719 N 1243.08 -1.54377 -0.317073 0
M  V30 12720 C 1244.01 -1.8721 -1.39552 0
M  V30 12721 C 1244.99 -0.729483 -1.53664 0
M  V30 12722 O 1246.18 -0.983799 -1.67437 0
M  V30 12723 C 1243.31 -2.1052 -2.76222 0
M  V30 12724 C 1242.26 -3.26366 -2.76892 0
M  V30 12725 C 1241.59 -3.35061 -4.16699 0
M  V30 12726 C 1242.89 -4.63862 -2.40061 0
M  V30 12727 H 1244.58 -2.77532 -1.12323 0
M  V30 12728 H 1242.13 -1.33536 -0.538897 0
M  V30 12729 H 1244.08 -2.32073 -3.51739 0
M  V30 12730 H 1242.81 -1.16953 -3.04942 0
M  V30 12731 H 1241.46 -3.0471 -2.03831 0
M  V30 12732 H 1241.11 -2.39041 -4.4257 0
M  V30 12733 H 1240.81 -4.12923 -4.18053 0
M  V30 12734 H 1242.34 -3.58856 -4.94019 0
M  V30 12735 H 1243.75 -4.85252 -3.05292 0
M  V30 12736 H 1242.15 -5.44321 -2.52655 0
M  V30 12737 H 1243.22 -4.6567 -1.35202 0
M  V30 12738 N 1244.56 0.579466 -1.4656 0
M  V30 12739 C 1245.51 1.68829 -1.5737 0
M  V30 12740 C 1246.48 1.60759 -0.417825 0
M  V30 12741 O 1247.66 1.79923 -0.635001 0
M  V30 12742 C 1244.8 3.07166 -1.573 0
M  V30 12743 C 1243.92 3.25837 -2.83645 0
M  V30 12744 C 1243.05 4.54441 -2.75057 0
M  V30 12745 C 1242.09 4.66467 -3.96327 0
M  V30 12746 N 1241.23 5.86401 -3.86107 0
M  V30 12747 H 1246.07 1.58928 -2.52083 0
M  V30 12748 H 1243.6 0.774526 -1.25058 0
M  V30 12749 H 1245.56 3.8724 -1.55245 0
M  V30 12750 H 1244.19 3.15956 -0.661166 0
M  V30 12751 H 1243.24 2.39345 -2.95666 0
M  V30 12752 H 1244.56 3.30591 -3.73512 0
M  V30 12753 H 1243.71 5.42748 -2.71126 0
M  V30 12754 H 1242.45 4.52131 -1.82836 0
M  V30 12755 H 1241.45 3.76577 -4.00587 0
M  V30 12756 H 1242.68 4.70554 -4.89649 0
M  V30 12757 H 1240.62 5.85082 -2.96673 0
M  V30 12758 H 1240.54 5.92437 -4.69632 0
M  V30 12759 H 1241.81 6.7713 -3.86155 0
M  V30 12760 N 1246.04 1.3432 0.824371 0
M  V30 12761 C 1246.99 1.22332 1.92403 0
M  V30 12762 C 1247.97 0.122709 1.60431 0
M  V30 12763 O 1249.16 0.352231 1.7346 0
M  V30 12764 C 1246.29 0.979497 3.2903 0
M  V30 12765 C 1245.38 2.12322 3.67124 0
M  V30 12766 N 1245.77 3.3743 3.76795 0
M  V30 12767 C 1244.07 2.03314 3.96963 0
M  V30 12768 C 1244.77 4.12532 4.10113 0
M  V30 12769 N 1243.75 3.41109 4.23256 0
M  V30 12770 H 1247.55 2.17143 1.98056 0
M  V30 12771 H 1245.06 1.26537 1.01795 0
M  V30 12772 H 1247.06 0.874525 4.07624 0
M  V30 12773 H 1245.72 0.0400611 3.24675 0
M  V30 12774 H 1246.73 3.72001 3.60327 0
M  V30 12775 H 1243.41 1.17118 4.00736 0
M  V30 12776 H 1244.8 5.20562 4.24811 0
M  V30 12777 N 1247.52 -1.0444 1.18026 0
M  V30 12778 C 1248.93 -1.5903 0.978076 0
M  V30 12779 C 1249.28 -1.90407 -0.473241 0
M  V30 12780 O 1248.4 -1.69133 -1.34992 0
M  V30 12781 C 1249 -2.88942 1.76912 0
M  V30 12782 C 1247.56 -3.40164 1.61139 0
M  V30 12783 C 1246.7 -2.13797 1.76596 0
M  V30 12784 H 1249.66 -0.871574 1.32625 0
M  V30 12785 H 1249.68 -3.59173 1.25598 0
M  V30 12786 H 1249.19 -2.66074 2.82535 0
M  V30 12787 H 1247.29 -3.68053 0.580353 0
M  V30 12788 H 1247.4 -4.14241 2.40709 0
M  V30 12789 H 1245.77 -2.24922 1.19507 0
M  V30 12790 H 1246.55 -1.93389 2.83647 0
M  V30 12791 N 1248.99 -0.981699 -1.2329 0
M  V30 12792 C 1249.9 -0.531296 -2.28505 0
M  V30 12793 C 1250.92 0.414531 -1.6899 0
M  V30 12794 O 1252.1 0.284129 -1.99386 0
M  V30 12795 C 1249.16 0.157864 -3.4634 0
M  V30 12796 C 1248.22 -0.829527 -4.21209 0
M  V30 12797 C 1247.46 -0.17316 -5.33419 0
M  V30 12798 O 1247.68 1.03549 -5.60922 0
M  V30 12799 O 1246.61 -0.872385 -5.95544 0
M  V30 12800 H 1250.44 -1.40633 -2.69177 0
M  V30 12801 H 1248.02 -0.749395 -1.29246 0
M  V30 12802 H 1249.91 0.544394 -4.17869 0
M  V30 12803 H 1248.58 1.00764 -3.07617 0
M  V30 12804 H 1247.49 -1.26678 -3.51999 0
M  V30 12805 H 1248.82 -1.64815 -4.63785 0
M  V30 12806 N 1250.47 1.3842 -0.753509 0
M  V30 12807 C 1251.72 1.99723 -0.309021 0
M  V30 12808 C 1252.04 1.60111 1.11308 0
M  V30 12809 O 1251.31 0.85792 1.76115 0
M  V30 12810 H 1249.89 0.738667 -0.111266 0
M  V30 12811 H 1252.55 1.69186 -0.967586 0
M  V30 12812 H 1251.65 3.09874 -0.372095 0
M  V30 12813 N 1251.95 0.502579 1.49372 0
M  V30 12814 C 1253.37 0.158641 1.5881 0
M  V30 12815 C 1253.57 -1.33688 1.50764 0
M  V30 12816 O 1252.62 -2.11295 1.38241 0
M  V30 12817 C 1253.94 0.736843 2.91532 0
M  V30 12818 C 1255.48 0.703093 3.05001 0
M  V30 12819 C 1255.96 1.25938 4.40345 0
M  V30 12820 N 1257.45 1.22015 4.46841 0
M  V30 12821 C 1258.18 1.62076 5.50017 0
M  V30 12822 N 1257.68 2.09736 6.6029 0
M  V30 12823 N 1259.47 1.53482 5.4074 0
M  V30 12824 H 1251.62 1.47487 1.52844 0
M  V30 12825 H 1253.89 0.611851 0.724115 0
M  V30 12826 H 1253.59 1.78573 3.02992 0
M  V30 12827 H 1253.47 0.198178 3.76679 0
M  V30 12828 H 1255.85 -0.336965 2.9317 0
M  V30 12829 H 1255.94 1.27892 2.21534 0
M  V30 12830 H 1255.58 2.29823 4.52928 0
M  V30 12831 H 1255.51 0.659481 5.22454 0
M  V30 12832 H 1258 0.870957 3.67726 0
M  V30 12833 H 1258.31 2.3837 7.35119 0
M  V30 12834 H 1256.66 2.13712 6.61326 0
M  V30 12835 H 1259.85 1.16065 4.53483 0
M  V30 12836 H 1260.02 1.85026 6.21023 0
M  V30 12837 N 1253.43 -1.55816 0.23648 0
M  V30 12838 C 1254.68 -1.98294 -0.390373 0
M  V30 12839 C 1255 -1.12573 -1.59224 0
M  V30 12840 O 1254.27 -0.206128 -1.94813 0
M  V30 12841 H 1252.85 -0.732349 -0.14722 0
M  V30 12842 H 1255.51 -1.92037 0.332848 0
M  V30 12843 H 1254.61 -3.03996 -0.706595 0
M  V30 12844 N 1254.91 0.036755 -1.57557 0
M  V30 12845 C 1255.86 1.04744 -2.02516 0
M  V30 12846 C 1256.84 1.3248 -0.913116 0
M  V30 12847 O 1258.03 1.32194 -1.17702 0
M  V30 12848 C 1255.16 2.3509 -2.50175 0
M  V30 12849 C 1254.25 2.10478 -3.68185 0
M  V30 12850 N 1254.64 1.55899 -4.81175 0
M  V30 12851 C 1252.94 2.40797 -3.7541 0
M  V30 12852 C 1253.64 1.46913 -5.62842 0
M  V30 12853 N 1252.61 1.94202 -5.07727 0
M  V30 12854 H 1256.42 0.619342 -2.873 0
M  V30 12855 H 1253.93 0.243208 -1.60569 0
M  V30 12856 H 1255.93 3.08297 -2.8064 0
M  V30 12857 H 1254.59 2.78586 -1.66793 0
M  V30 12858 H 1255.6 1.24275 -5.02769 0
M  V30 12859 H 1252.27 2.8742 -3.02813 0
M  V30 12860 H 1253.66 1.0527 -6.63602 0
M  V30 12861 N 1256.39 1.54543 0.308881 0
M  V30 12862 C 1257.32 1.87947 1.38557 0
M  V30 12863 C 1258.3 0.737622 1.53275 0
M  V30 12864 O 1259.48 0.992664 1.66913 0
M  V30 12865 C 1256.61 2.11982 2.75102 0
M  V30 12866 C 1255.57 3.2783 2.75158 0
M  V30 12867 C 1254.89 3.37266 4.14917 0
M  V30 12868 C 1256.19 4.65129 2.37598 0
M  V30 12869 H 1257.89 2.78123 1.1085 0
M  V30 12870 H 1255.43 1.3382 0.531808 0
M  V30 12871 H 1257.38 2.33935 3.50503 0
M  V30 12872 H 1256.11 1.18569 3.04317 0
M  V30 12873 H 1254.77 3.05787 2.02212 0
M  V30 12874 H 1254.42 2.41384 4.41296 0
M  V30 12875 H 1254.12 4.15135 4.15857 0
M  V30 12876 H 1255.64 3.61471 4.92109 0
M  V30 12877 H 1257.05 4.86865 3.02714 0
M  V30 12878 H 1255.45 5.45653 2.49765 0
M  V30 12879 H 1256.52 4.6638 1.32731 0
M  V30 12880 N 1257.86 -0.571685 1.46866 0
M  V30 12881 C 1258.79 -1.68994 1.61131 0
M  V30 12882 C 1259.77 -1.63728 0.461222 0
M  V30 12883 O 1260.96 -1.81574 0.688813 0
M  V30 12884 C 1258.09 -3.07638 1.61172 0
M  V30 12885 C 1257.04 -3.27742 2.75262 0
M  V30 12886 C 1256.37 -4.67025 2.60368 0
M  V30 12887 C 1257.67 -3.14511 4.16989 0
M  V30 12888 H 1259.36 -1.57311 2.54742 0
M  V30 12889 H 1256.91 -0.755382 1.22597 0
M  V30 12890 H 1258.86 -3.857 1.69744 0
M  V30 12891 H 1257.59 -3.20245 0.641122 0
M  V30 12892 H 1256.25 -2.52083 2.66176 0
M  V30 12893 H 1255.89 -4.76413 1.61368 0
M  V30 12894 H 1255.59 -4.81428 3.36899 0
M  V30 12895 H 1257.12 -5.47242 2.70848 0
M  V30 12896 H 1258.53 -3.82407 4.27128 0
M  V30 12897 H 1256.93 -3.40431 4.94193 0
M  V30 12898 H 1258 -2.11443 4.36371 0
M  V30 12899 N 1259.34 -1.34755 -0.817236 0
M  V30 12900 C 1260.57 -1.30333 -1.60303 0
M  V30 12901 C 1260.98 0.12357 -1.88796 0
M  V30 12902 O 1260.32 1.08279 -1.48396 0
M  V30 12903 C 1260.38 -2.03179 -2.96578 0
M  V30 12904 C 1260.05 -3.52414 -2.90952 0
M  V30 12905 C 1261.05 -4.47213 -2.65136 0
M  V30 12906 C 1258.73 -3.9491 -3.10405 0
M  V30 12907 C 1260.72 -5.82481 -2.58832 0
M  V30 12908 C 1258.41 -5.30277 -3.03726 0
M  V30 12909 C 1259.41 -6.23875 -2.77973 0
M  V30 12910 O 1259.1 -7.5676 -2.71237 0
M  V30 12911 H 1258.83 -0.449615 -0.5048 0
M  V30 12912 H 1261.38 -1.7803 -1.02443 0
M  V30 12913 H 1259.61 -1.50104 -3.56379 0
M  V30 12914 H 1261.3 -1.91972 -3.57633 0
M  V30 12915 H 1262.07 -4.157 -2.49836 0
M  V30 12916 H 1257.95 -3.22451 -3.29464 0
M  V30 12917 H 1261.49 -6.55508 -2.38652 0
M  V30 12918 H 1257.39 -5.61406 -3.1858 0
M  V30 12919 H 1258.16 -7.66562 -2.86923 0
M  V30 12920 N 1260.82 1.03812 -1.18578 0
M  V30 12921 C 1262.07 1.77319 -0.984173 0
M  V30 12922 C 1262.4 1.88052 0.484789 0
M  V30 12923 O 1261.67 1.3905 1.35998 0
M  V30 12924 C 1261.96 3.20448 -1.6427 0
M  V30 12925 C 1261.81 3.17643 -3.1847 0
M  V30 12926 C 1263.13 4.18623 -1.35805 0
M  V30 12927 H 1260.25 0.643681 -0.358949 0
M  V30 12928 H 1262.89 1.21249 -1.46283 0
M  V30 12929 H 1261.04 3.68324 -1.23572 0
M  V30 12930 H 1262.71 2.77738 -3.6832 0
M  V30 12931 H 1260.95 2.55606 -3.50497 0
M  V30 12932 H 1261.63 4.18724 -3.59686 0
M  V30 12933 H 1264.1 3.79306 -1.71073 0
M  V30 12934 H 1262.98 5.16982 -1.84446 0
M  V30 12935 H 1263.24 4.41203 -0.281418 0
M  V30 12936 N 1262.3 0.988223 1.22768 0
M  V30 12937 C 1263.26 0.539813 2.22752 0
M  V30 12938 C 1264.26 -0.374796 1.56371 0
M  V30 12939 O 1265.45 -0.167402 1.73394 0
M  V30 12940 C 1262.58 -0.215461 3.40218 0
M  V30 12941 H 1263.78 1.42397 2.63938 0
M  V30 12942 H 1261.33 0.774933 1.35737 0
M  V30 12943 H 1262.06 -1.11581 3.045 0
M  V30 12944 H 1261.85 0.441173 3.8961 0
M  V30 12945 H 1263.34 -0.517517 4.14381 0
M  V30 12946 N 1263.78 -1.38018 0.760839 0
M  V30 12947 C 1264.71 -2.32995 0.153557 0
M  V30 12948 C 1265.69 -1.55234 -0.695448 0
M  V30 12949 O 1266.87 -1.8352 -0.635148 0
M  V30 12950 C 1264 -3.39437 -0.734811 0
M  V30 12951 C 1262.96 -4.27998 0.0120287 0
M  V30 12952 C 1262.28 -5.25359 -0.995067 0
M  V30 12953 C 1263.58 -5.08687 1.18468 0
M  V30 12954 H 1265.28 -2.8403 0.946956 0
M  V30 12955 H 1262.82 -1.36562 0.456816 0
M  V30 12956 H 1264.77 -4.0485 -1.16938 0
M  V30 12957 H 1263.5 -2.86901 -1.56061 0
M  V30 12958 H 1262.16 -3.64102 0.427254 0
M  V30 12959 H 1261.81 -4.69108 -1.81512 0
M  V30 12960 H 1261.51 -5.85469 -0.499969 0
M  V30 12961 H 1263.03 -5.93648 -1.4288 0
M  V30 12962 H 1264.44 -5.67299 0.8273 0
M  V30 12963 H 1262.84 -5.78068 1.61112 0
M  V30 12964 H 1263.91 -4.42 1.99409 0
M  V30 12965 N 1265.25 -0.510493 -1.49103 0
M  V30 12966 C 1266.48 0.0293113 -2.07379 0
M  V30 12967 C 1266.9 1.29195 -1.36713 0
M  V30 12968 O 1266.26 1.76204 -0.426838 0
M  V30 12969 C 1266.31 0.25629 -3.59688 0
M  V30 12970 O 1265.41 1.32907 -3.90397 0
M  V30 12971 H 1264.75 -0.0304449 -0.663302 0
M  V30 12972 H 1267.28 -0.712832 -1.91781 0
M  V30 12973 H 1267.29 0.484915 -4.05108 0
M  V30 12974 H 1265.97 -0.666163 -4.1053 0
M  V30 12975 H 1264.55 1.08464 -3.56777 0
M  V30 12976 N 1266.73 1.55688 -0.24474 0
M  V30 12977 C 1268.14 1.84897 0.25882 0
M  V30 12978 C 1268.49 1.16653 1.57755 0
M  V30 12979 O 1267.62 0.444162 2.11793 0
M  V30 12980 C 1268.21 3.35434 0.476385 0
M  V30 12981 C 1266.77 3.64877 0.924213 0
M  V30 12982 C 1265.92 2.773 0.00021322 0
M  V30 12983 H 1268.87 1.51662 -0.467358 0
M  V30 12984 H 1268.89 3.56896 1.31929 0
M  V30 12985 H 1268.4 3.85076 -0.483567 0
M  V30 12986 H 1266.5 3.20711 1.89671 0
M  V30 12987 H 1266.62 4.72665 0.78257 0
M  V30 12988 H 1264.98 2.49517 0.511194 0
M  V30 12989 H 1265.76 3.29747 -0.955072 0
M  V30 12990 N 1268.21 -0.0283989 1.57574 0
M  V30 12991 C 1269.46 -0.717656 1.88929 0
M  V30 12992 C 1269.78 -1.7586 0.842517 0
M  V30 12993 O 1269.05 -1.95509 -0.123774 0
M  V30 12994 H 1267.63 -0.268051 0.69725 0
M  V30 12995 H 1270.29 0.00580691 1.94899 0
M  V30 12996 H 1269.39 -1.2068 2.87824 0
M  V30 12997 N 1269.69 -1.54705 -0.300681 0
M  V30 12998 C 1270.62 -1.8205 -1.39249 0
M  V30 12999 C 1271.63 -0.703476 -1.46816 0
M  V30 13000 O 1272.82 -0.980957 -1.49129 0
M  V30 13001 C 1269.92 -1.94376 -2.77617 0
M  V30 13002 C 1269.09 -3.2478 -2.92979 0
M  V30 13003 C 1268.15 -3.27518 -4.11848 0
M  V30 13004 O 1267.18 -4.01047 -4.03918 0
M  V30 13005 N 1268.38 -2.52932 -5.22499 0
M  V30 13006 H 1271.15 -2.76279 -1.16146 0
M  V30 13007 H 1268.71 -1.54283 -0.49075 0
M  V30 13008 H 1270.7 -1.93609 -3.55384 0
M  V30 13009 H 1269.27 -1.07141 -2.93666 0
M  V30 13010 H 1268.49 -3.38319 -2.02322 0
M  V30 13011 H 1269.78 -4.10835 -3.00153 0
M  V30 13012 H 1269.18 -1.92825 -5.31822 0
M  V30 13013 H 1267.73 -2.57919 -5.98599 0
M  V30 13014 N 1271.17 0.563888 -1.47167 0
M  V30 13015 C 1272.12 1.66687 -1.55562 0
M  V30 13016 C 1273.1 1.55455 -0.415024 0
M  V30 13017 O 1274.29 1.64051 -0.664557 0
M  V30 13018 C 1271.42 3.05469 -1.56665 0
M  V30 13019 C 1270.51 3.21928 -2.76085 0
M  V30 13020 N 1270.9 3.08477 -4.00844 0
M  V30 13021 C 1269.2 3.52913 -2.72706 0
M  V30 13022 C 1269.9 3.27447 -4.80784 0
M  V30 13023 N 1268.87 3.53474 -4.12986 0
M  V30 13024 H 1272.68 1.54846 -2.498 0
M  V30 13025 H 1270.19 0.76846 -1.43068 0
M  V30 13026 H 1272.19 3.84655 -1.60768 0
M  V30 13027 H 1270.85 3.18427 -0.635174 0
M  V30 13028 H 1271.86 2.85944 -4.31806 0
M  V30 13029 H 1268.53 3.7244 -1.88666 0
M  V30 13030 H 1269.92 3.22072 -5.89677 0
M  V30 13031 N 1272.64 1.35187 0.810078 0
M  V30 13032 C 1274.06 1.15149 1.10512 0
M  V30 13033 C 1274.26 -0.038394 2.01463 0
M  V30 13034 O 1273.32 -0.710056 2.42311 0
M  V30 13035 C 1274.63 2.45282 1.73946 0
M  V30 13036 C 1276.18 2.51457 1.86382 0
M  V30 13037 C 1276.65 3.81625 2.53232 0
M  V30 13038 N 1278.14 3.82856 2.6072 0
M  V30 13039 C 1278.88 4.80302 3.13206 0
M  V30 13040 N 1278.37 5.88134 3.66156 0
M  V30 13041 N 1280.17 4.67743 3.11726 0
M  V30 13042 H 1272.32 2.11405 0.205391 0
M  V30 13043 H 1274.58 0.935457 0.153702 0
M  V30 13044 H 1274.29 3.32512 1.14582 0
M  V30 13045 H 1274.16 2.59573 2.73682 0
M  V30 13046 H 1276.55 1.64659 2.44891 0
M  V30 13047 H 1276.63 2.41084 0.855113 0
M  V30 13048 H 1276.27 4.68819 1.95375 0
M  V30 13049 H 1276.2 3.89285 3.54633 0
M  V30 13050 H 1278.69 3.04941 2.23203 0
M  V30 13051 H 1279.01 6.58487 4.04494 0
M  V30 13052 H 1277.35 5.91831 3.64364 0
M  V30 13053 H 1280.54 3.82642 2.69635 0
M  V30 13054 H 1280.72 5.43849 3.52324 0
M  V30 13055 N 1274.12 -1.03182 1.19127 0
M  V30 13056 C 1275.05 -2.13301 0.94999 0
M  V30 13057 C 1276.03 -1.69707 -0.115577 0
M  V30 13058 O 1277.22 -1.94161 0.0388395 0
M  V30 13059 C 1274.35 -3.43902 0.484637 0
M  V30 13060 C 1273.3 -4.01164 1.4917 0
M  V30 13061 C 1272.63 -5.2735 0.883537 0
M  V30 13062 C 1273.93 -4.36311 2.87107 0
M  V30 13063 H 1275.62 -2.33743 1.87095 0
M  V30 13064 H 1273.17 -1.12332 0.900977 0
M  V30 13065 H 1275.12 -4.20308 0.30315 0
M  V30 13066 H 1273.85 -3.23173 -0.471909 0
M  V30 13067 H 1272.5 -3.26849 1.66028 0
M  V30 13068 H 1272.15 -5.02936 -0.0804712 0
M  V30 13069 H 1271.85 -5.66624 1.55599 0
M  V30 13070 H 1273.38 -6.06425 0.71278 0
M  V30 13071 H 1274.79 -5.03666 2.73848 0
M  V30 13072 H 1273.19 -4.86659 3.51117 0
M  V30 13073 H 1274.26 -3.45743 3.39985 0
M  V30 13074 N 1275.6 -0.99472 -1.22242 0
M  V30 13075 C 1276.85 -0.670275 -1.90661 0
M  V30 13076 C 1277.17 0.800369 -1.77818 0
M  V30 13077 O 1276.44 1.57381 -1.16653 0
M  V30 13078 H 1275.02 -0.244925 -0.705706 0
M  V30 13079 H 1277.68 -1.26162 -1.48557 0
M  V30 13080 H 1276.78 -0.934408 -2.97784 0
M  V30 13081 N 1277.08 1.37613 -0.768148 0
M  V30 13082 C 1278.33 1.99384 -0.330187 0
M  V30 13083 C 1278.65 1.61283 1.09604 0
M  V30 13084 O 1277.92 0.876551 1.75195 0
M  V30 13085 H 1276.5 0.737445 -0.119095 0
M  V30 13086 H 1279.16 1.6815 -0.985476 0
M  V30 13087 H 1278.26 3.09462 -0.40494 0
M  V30 13088 N 1278.56 0.518393 1.4883 0
M  V30 13089 C 1279.78 -0.0162 2.06894 0
M  V30 13090 C 1280.2 -1.29222 1.37649 0
M  V30 13091 O 1279.56 -1.766 0.460288 0
M  V30 13092 C 1279.61 -0.255836 3.60594 0
M  V30 13093 O 1279.33 0.969612 4.27235 0
M  V30 13094 C 1280.83 -0.832117 4.3542 0
M  V30 13095 H 1278.05 0.0282877 0.670403 0
M  V30 13096 H 1280.59 0.720726 1.91379 0
M  V30 13097 H 1278.75 -0.942782 3.75753 0
M  V30 13098 H 1279.16 0.743172 5.19208 0
M  V30 13099 H 1280.64 -0.949279 5.43776 0
M  V30 13100 H 1281.11 -1.83421 3.99066 0
M  V30 13101 H 1281.72 -0.1821 4.2491 0
M  V30 13102 N 1280.03 -1.55556 0.252993 0
M  V30 13103 C 1281 -2.20351 -0.630705 0
M  V30 13104 C 1282 -1.17461 -1.09816 0
M  V30 13105 O 1283.19 -1.42505 -1.00189 0
M  V30 13106 C 1280.32 -2.85192 -1.86757 0
M  V30 13107 H 1281.51 -2.99829 -0.0652939 0
M  V30 13108 H 1279.07 -1.563 0.00347982 0
M  V30 13109 H 1279.8 -2.09669 -2.47406 0
M  V30 13110 H 1279.59 -3.60569 -1.54053 0
M  V30 13111 H 1281.08 -3.34762 -2.49648 0
M  V30 13112 N 1281.51 0.0200419 -1.57587 0
M  V30 13113 C 1282.44 1.01715 -2.10181 0
M  V30 13114 C 1283.42 1.37136 -1.00636 0
M  V30 13115 O 1284.61 1.45862 -1.2821 0
M  V30 13116 C 1281.74 2.31531 -2.58865 0
M  V30 13117 C 1280.69 2.10327 -3.72755 0
M  V30 13118 C 1280.02 3.45981 -4.07678 0
M  V30 13119 C 1281.32 1.4821 -5.0083 0
M  V30 13120 H 1283.01 0.579307 -2.93742 0
M  V30 13121 H 1280.56 0.277211 -1.41307 0
M  V30 13122 H 1282.51 3.01623 -2.94281 0
M  V30 13123 H 1281.24 2.77392 -1.72399 0
M  V30 13124 H 1279.89 1.42665 -3.37701 0
M  V30 13125 H 1279.54 3.89508 -3.18265 0
M  V30 13126 H 1279.24 3.32616 -4.84397 0
M  V30 13127 H 1280.77 4.17421 -4.45637 0
M  V30 13128 H 1282.18 2.08232 -5.34146 0
M  V30 13129 H 1280.58 1.45393 -5.82221 0
M  V30 13130 H 1281.65 0.448942 -4.82817 0
M  V30 13131 N 1282.99 1.54862 0.292472 0
M  V30 13132 C 1283.95 1.8565 1.34413 0
M  V30 13133 C 1284.95 0.729868 1.43281 0
M  V30 13134 O 1286.14 0.998128 1.42769 0
M  V30 13135 C 1283.28 2.0444 2.72795 0
M  V30 13136 H 1284.47 2.79642 1.08354 0
M  V30 13137 H 1282.02 1.47055 0.529574 0
M  V30 13138 H 1282.76 1.12765 3.04063 0
M  V30 13139 H 1282.54 2.86451 2.67747 0
M  V30 13140 H 1284.03 2.296 3.48817 0
M  V30 13141 N 1284.47 -0.556076 1.47464 0
M  V30 13142 C 1285.4 -1.67829 1.56096 0
M  V30 13143 C 1286.41 -1.56541 0.447077 0
M  V30 13144 O 1287.6 -1.63478 0.716739 0
M  V30 13145 C 1284.7 -3.06303 1.45023 0
M  V30 13146 C 1283.88 -3.43334 2.70999 0
M  V30 13147 C 1282.93 -4.60976 2.53746 0
M  V30 13148 O 1281.96 -4.65501 3.27564 0
M  V30 13149 N 1283.16 -5.5754 1.61647 0
M  V30 13150 H 1285.93 -1.6087 2.52865 0
M  V30 13151 H 1283.49 -0.74274 1.43857 0
M  V30 13152 H 1285.48 -3.82838 1.31214 0
M  V30 13153 H 1284.05 -3.07483 0.563311 0
M  V30 13154 H 1283.27 -2.56236 2.99561 0
M  V30 13155 H 1284.56 -3.64851 3.54629 0
M  V30 13156 H 1283.96 -5.56642 1.00827 0
M  V30 13157 H 1282.51 -6.33397 1.53789 0
M  V30 13158 N 1285.95 -1.35615 -0.802897 0
M  V30 13159 C 1287.19 -1.30462 -1.5735 0
M  V30 13160 C 1287.55 0.118488 -1.91634 0
M  V30 13161 O 1288.75 0.294421 -2.67183 0
M  V30 13162 C 1287.02 -2.18916 -2.82508 0
M  V30 13163 S 1288.58 -2.31315 -3.72879 0
M  V30 13164 H 1285.4 -0.463588 -0.53908 0
M  V30 13165 H 1288 -1.71045 -0.946782 0
M  V30 13166 H 1286.71 -3.21285 -2.5535 0
M  V30 13167 H 1286.24 -1.79304 -3.50162 0
M  V30 13168 H 1288.25 -1.50069 -4.72963 0
M  V30 13169 N 1287.43 1.02549 -1.19673 0
M  V30 13170 C 1288.67 1.76004 -1.00144 0
M  V30 13171 C 1289 1.888 0.467423 0
M  V30 13172 O 1288.26 1.404 1.36331 0
M  V30 13173 C 1288.55 3.18597 -1.61959 0
M  V30 13174 C 1288.22 3.258 -3.11713 0
M  V30 13175 C 1286.88 3.27473 -3.52583 0
M  V30 13176 C 1289.23 3.24675 -4.0772 0
M  V30 13177 C 1286.56 3.25681 -4.88005 0
M  V30 13178 C 1288.91 3.24424 -5.43076 0
M  V30 13179 C 1287.58 3.24396 -5.83372 0
M  V30 13180 H 1286.85 0.644044 -0.366453 0
M  V30 13181 H 1289.5 1.20338 -1.48966 0
M  V30 13182 H 1287.8 3.77364 -1.05375 0
M  V30 13183 H 1289.5 3.74109 -1.44374 0
M  V30 13184 H 1286.09 3.25228 -2.7915 0
M  V30 13185 H 1290.27 3.2256 -3.77185 0
M  V30 13186 H 1285.53 3.23986 -5.18501 0
M  V30 13187 H 1289.7 3.22504 -6.17223 0
M  V30 13188 H 1287.33 3.22762 -6.8828 0
M  V30 13189 N 1288.9 1.00119 1.21713 0
M  V30 13190 C 1290.13 0.700172 1.95224 0
M  V30 13191 C 1290.55 -0.730138 1.73351 0
M  V30 13192 O 1289.91 -1.50026 1.01794 0
M  V30 13193 C 1289.96 1.02202 3.45814 0
M  V30 13194 O 1289.06 0.125188 4.1221 0
M  V30 13195 H 1288.4 0.261238 0.610451 0
M  V30 13196 H 1290.93 1.34041 1.54578 0
M  V30 13197 H 1290.94 0.967293 3.96368 0
M  V30 13198 H 1289.62 2.06422 3.61058 0
M  V30 13199 H 1288.2 0.236114 3.72152 0
M  V30 13200 N 1290.38 -1.37203 0.775435 0
M  V30 13201 C 1291.31 -2.28873 0.122374 0
M  V30 13202 C 1292.33 -1.48811 -0.660239 0
M  V30 13203 O 1293.52 -1.7142 -0.497724 0
M  V30 13204 C 1290.62 -3.28062 -0.850212 0
M  V30 13205 C 1289.79 -4.37234 -0.120633 0
M  V30 13206 C 1288.85 -5.16472 -1.00712 0
M  V30 13207 O 1287.87 -5.6726 -0.469528 0
M  V30 13208 N 1289.08 -5.31556 -2.33299 0
M  V30 13209 H 1291.84 -2.85559 0.909741 0
M  V30 13210 H 1289.4 -1.49219 0.628107 0
M  V30 13211 H 1291.39 -3.77956 -1.44678 0
M  V30 13212 H 1289.96 -2.72118 -1.53853 0
M  V30 13213 H 1289.18 -3.88688 0.656879 0
M  V30 13214 H 1290.47 -5.07354 0.383358 0
M  V30 13215 H 1289.87 -4.91883 -2.79406 0
M  V30 13216 H 1288.43 -5.84745 -2.87953 0
M  V30 13217 N 1291.86 -0.526279 -1.48553 0
M  V30 13218 C 1292.79 0.227364 -2.3239 0
M  V30 13219 C 1293.77 0.93862 -1.41859 0
M  V30 13220 O 1294.96 0.925119 -1.70749 0
M  V30 13221 C 1292.09 1.277 -3.22971 0
M  V30 13222 C 1291.04 0.684107 -4.22497 0
M  V30 13223 C 1290.37 1.83612 -5.02186 0
M  V30 13224 C 1291.67 -0.341723 -5.21181 0
M  V30 13225 H 1293.36 -0.472486 -2.95648 0
M  V30 13226 H 1290.91 -0.228669 -1.42173 0
M  V30 13227 H 1292.86 1.81215 -3.80446 0
M  V30 13228 H 1291.58 2.00638 -2.57705 0
M  V30 13229 H 1290.24 0.170505 -3.66203 0
M  V30 13230 H 1289.89 2.55379 -4.33348 0
M  V30 13231 H 1289.59 1.44536 -5.69547 0
M  V30 13232 H 1291.11 2.37513 -5.62512 0
M  V30 13233 H 1292.53 0.106207 -5.73202 0
M  V30 13234 H 1290.92 -0.649673 -5.96573 0
M  V30 13235 H 1291.99 -1.2488 -4.68543 0
M  V30 13236 N 1293.34 1.5542 -0.261239 0
M  V30 13237 C 1294.59 1.9889 0.358777 0
M  V30 13238 C 1294.91 1.15092 1.57413 0
M  V30 13239 O 1294.18 0.237095 1.9446 0
M  V30 13240 H 1292.76 0.734599 0.13555 0
M  V30 13241 H 1295.42 1.91483 -0.363357 0
M  V30 13242 H 1294.51 3.05082 0.658142 0
M  V30 13243 N 1294.82 -0.0116844 1.57596 0
M  V30 13244 C 1295.73 -1.02342 2.111 0
M  V30 13245 C 1296.74 -1.38478 1.05355 0
M  V30 13246 O 1297.92 -1.47447 1.37191 0
M  V30 13247 C 1294.98 -2.30016 2.5941 0
M  V30 13248 C 1294.04 -2.003 3.79708 0
M  V30 13249 C 1293.28 -3.21888 4.25704 0
M  V30 13250 O 1293.5 -4.33171 3.71106 0
M  V30 13251 O 1292.43 -3.0657 5.17975 0
M  V30 13252 H 1296.26 -0.598637 2.97742 0
M  V30 13253 H 1293.84 -0.229779 1.47622 0
M  V30 13254 H 1295.73 -3.05044 2.90733 0
M  V30 13255 H 1294.4 -2.71755 1.75871 0
M  V30 13256 H 1293.31 -1.22785 3.53376 0
M  V30 13257 H 1294.64 -1.63406 4.64284 0
M  V30 13258 N 1296.29 -1.55015 -0.284256 0
M  V30 13259 C 1297.24 -1.83508 -1.3531 0
M  V30 13260 C 1298.23 -0.693244 -1.452 0
M  V30 13261 O 1299.42 -0.954312 -1.4907 0
M  V30 13262 C 1296.55 -2.10059 -2.71533 0
M  V30 13263 C 1295.63 -3.30472 -2.65799 0
M  V30 13264 N 1296.03 -4.50644 -2.29682 0
M  V30 13265 C 1294.32 -3.32836 -2.96878 0
M  V30 13266 C 1295.02 -5.32708 -2.33661 0
M  V30 13267 N 1294 -4.70837 -2.71687 0
M  V30 13268 H 1297.8 -2.73973 -1.06377 0
M  V30 13269 H 1295.32 -1.5474 -0.492875 0
M  V30 13270 H 1297.31 -2.28624 -3.48621 0
M  V30 13271 H 1295.97 -1.20872 -3.01364 0
M  V30 13272 H 1296.98 -4.76945 -2.0185 0
M  V30 13273 H 1293.66 -2.53807 -3.31494 0
M  V30 13274 H 1295.05 -6.38766 -2.08394 0
M  V30 13275 N 1297.77 0.548248 -1.47757 0
M  V30 13276 C 1299.18 1.13033 -1.48595 0
M  V30 13277 C 1299.53 1.94657 -0.245575 0
M  V30 13278 O 1298.66 2.06445 0.648813 0
M  V30 13279 C 1299.25 2.05657 -2.69241 0
M  V30 13280 C 1297.81 2.59119 -2.73009 0
M  V30 13281 C 1296.96 1.35686 -2.41836 0
M  V30 13282 H 1299.91 0.334397 -1.55137 0
M  V30 13283 H 1299.93 2.89671 -2.4672 0
M  V30 13284 H 1299.44 1.46222 -3.595 0
M  V30 13285 H 1297.54 3.22327 -1.86912 0
M  V30 13286 H 1297.66 2.99501 -3.73946 0
M  V30 13287 H 1296.02 1.66659 -1.92606 0
M  V30 13288 H 1296.8 0.780311 -3.34314 0
M  V30 13289 N 1299.25 1.36039 0.795694 0
M  V30 13290 C 1300.66 1.2679 1.37044 0
M  V30 13291 C 1301.01 -0.0950192 1.9597 0
M  V30 13292 O 1300.14 -0.996311 1.921 0
M  V30 13293 C 1300.73 2.29585 2.49151 0
M  V30 13294 C 1299.29 2.24044 3.02458 0
M  V30 13295 C 1298.44 2.14703 1.75493 0
M  V30 13296 H 1301.39 1.47009 0.597843 0
M  V30 13297 H 1301.41 1.92864 3.27999 0
M  V30 13298 H 1300.92 3.28769 2.06234 0
M  V30 13299 H 1299.02 1.28307 3.49812 0
M  V30 13300 H 1299.14 3.1647 3.597 0
M  V30 13301 H 1297.5 1.60856 1.97478 0
M  V30 13302 H 1298.28 3.15765 1.34713 0
M  V30 13303 N 1300.73 -1.01913 1.20215 0
M  V30 13304 C 1302.01 -1.7262 0.919867 0
M  V30 13305 C 1302.39 -2.03203 -0.572001 0
M  V30 13306 O 1301.73 -1.69448 -1.53296 0
M  V30 13307 C 1301.94 -2.9959 1.79016 0
M  V30 13308 C 1303.29 -3.72905 2.03045 0
M  V30 13309 O 1304.32 -3.0954 1.76249 0
M  V30 13310 O 1303.17 -4.86844 2.48285 0
M  V30 13311 H 1300.27 -0.752194 0.343705 0
M  V30 13312 H 1302.81 -1.07783 1.31076 0
M  V30 13313 H 1301.59 -2.73292 2.80048 0
M  V30 13314 H 1301.21 -3.72168 1.39918 0
M  V30 13315 N 1302.21 -1.00763 -1.2118 0
M  V30 13316 C 1303.14 -0.590493 -2.2591 0
M  V30 13317 C 1304.12 0.390002 -1.65569 0
M  V30 13318 O 1305.3 0.277406 -1.92208 0
M  V30 13319 C 1302.43 0.0810388 -3.47205 0
M  V30 13320 C 1301.39 -0.81951 -4.20081 0
M  V30 13321 C 1300.71 -0.014244 -5.34698 0
M  V30 13322 C 1302.01 -2.12336 -4.7719 0
M  V30 13323 H 1303.71 -1.46595 -2.61056 0
M  V30 13324 H 1301.25 -0.706321 -1.25487 0
M  V30 13325 H 1303.21 0.384355 -4.19644 0
M  V30 13326 H 1301.93 0.991145 -3.11197 0
M  V30 13327 H 1300.59 -1.10669 -3.49497 0
M  V30 13328 H 1300.24 0.897233 -4.94933 0
M  V30 13329 H 1299.94 -0.613883 -5.84384 0
M  V30 13330 H 1301.46 0.282827 -6.09945 0
M  V30 13331 H 1302.87 -1.88301 -5.41494 0
M  V30 13332 H 1301.27 -2.67308 -5.37277 0
M  V30 13333 H 1302.34 -2.79238 -3.96427 0
M  V30 13334 N 1303.68 1.3679 -0.7827 0
M  V30 13335 C 1304.96 1.93639 -0.276278 0
M  V30 13336 C 1305.34 1.7153 1.23048 0
M  V30 13337 O 1304.69 1.07037 2.01879 0
M  V30 13338 C 1304.9 3.42672 -0.661586 0
M  V30 13339 C 1306.25 4.19786 -0.637538 0
M  V30 13340 O 1307.27 3.51082 -0.601645 0
M  V30 13341 O 1306.13 5.42323 -0.674408 0
M  V30 13342 H 1303.22 0.824307 -0.0666832 0
M  V30 13343 H 1305.77 1.46012 -0.864792 0
M  V30 13344 H 1304.54 3.52393 -1.70103 0
M  V30 13345 H 1304.17 3.97573 -0.0465987 0
M  V30 13346 N 1305.16 0.53415 1.48272 0
M  V30 13347 C 1306.09 -0.215037 2.32508 0
M  V30 13348 C 1307.07 -0.931083 1.42355 0
M  V30 13349 O 1308.26 -0.916051 1.71237 0
M  V30 13350 C 1305.39 -1.25985 3.23643 0
M  V30 13351 C 1304.34 -0.661692 4.22854 0
M  V30 13352 C 1303.67 -1.80946 5.03153 0
M  V30 13353 C 1304.97 0.369358 5.20992 0
M  V30 13354 H 1306.66 0.488158 2.95394 0
M  V30 13355 H 1304.21 0.236206 1.4205 0
M  V30 13356 H 1306.16 -1.79195 3.81402 0
M  V30 13357 H 1304.89 -1.99268 2.58766 0
M  V30 13358 H 1303.54 -0.151082 3.66289 0
M  V30 13359 H 1303.19 -2.53077 4.34696 0
M  V30 13360 H 1302.89 -1.41513 5.70305 0
M  V30 13361 H 1304.42 -2.34526 5.63764 0
M  V30 13362 H 1305.83 -0.0758076 5.7325 0
M  V30 13363 H 1304.23 0.681301 5.9622 0
M  V30 13364 H 1305.3 1.27363 4.67875 0
M  V30 13365 N 1306.64 -1.55279 0.269478 0
M  V30 13366 C 1308.05 -1.85286 -0.229372 0
M  V30 13367 C 1308.4 -1.19148 -1.55879 0
M  V30 13368 O 1307.53 -0.4778 -2.11059 0
M  V30 13369 C 1308.12 -3.3615 -0.42296 0
M  V30 13370 C 1306.68 -3.66301 -0.866047 0
M  V30 13371 C 1305.83 -2.77265 0.0439028 0
M  V30 13372 H 1308.78 -1.509 0.491427 0
M  V30 13373 H 1308.8 -3.5895 -1.26234 0
M  V30 13374 H 1308.31 -3.84258 0.544768 0
M  V30 13375 H 1306.41 -3.23688 -1.84545 0
M  V30 13376 H 1306.53 -4.73851 -0.707274 0
M  V30 13377 H 1304.89 -2.50299 -0.471433 0
M  V30 13378 H 1305.67 -3.28186 1.00741 0
M  V30 13379 N 1308.12 0.00332656 -1.576 0
M  V30 13380 C 1309.03 1.01221 -2.1164 0
M  V30 13381 C 1310.04 1.37918 -1.06088 0
M  V30 13382 O 1311.22 1.46717 -1.37971 0
M  V30 13383 C 1308.29 2.28638 -2.60626 0
M  V30 13384 C 1307.35 1.98284 -3.80765 0
M  V30 13385 C 1306.58 3.19626 -4.27405 0
M  V30 13386 O 1306.8 4.31196 -3.73398 0
M  V30 13387 O 1305.74 3.03819 -5.19594 0
M  V30 13388 H 1309.56 0.582839 -2.98055 0
M  V30 13389 H 1307.15 0.221947 -1.47742 0
M  V30 13390 H 1309.03 3.03498 -2.92347 0
M  V30 13391 H 1307.7 2.70819 -1.7731 0
M  V30 13392 H 1306.61 1.2091 -3.54022 0
M  V30 13393 H 1307.94 1.60942 -4.65144 0
M  V30 13394 N 1309.6 1.55164 0.276031 0
M  V30 13395 C 1310.54 1.88623 1.36104 0
M  V30 13396 C 1311.54 0.762265 1.51281 0
M  V30 13397 O 1312.74 0.946573 1.53101 0
M  V30 13398 H 1309.12 0.59863 0.455133 0
M  V30 13399 H 1311.09 2.79266 1.05134 0
M  V30 13400 C 1309.84 2.17207 2.71508 0
M  V30 13401 H 1309.16 3.03179 2.6062 0
M  V30 13402 H 1310.6 2.44541 3.46375 0
M  V30 13403 C 1309.06 0.978671 3.22372 0
M  V30 13404 O 1309.59 0.211766 4.01141 0
M  V30 13405 N 1307.8 0.777199 2.80014 0
M  V30 13406 H 1307.34 1.40252 2.16072 0
M  V30 13407 H 1307.3 -0.0196754 3.14394 0
M  V30 13408 N 1311.07 -0.540404 1.48045 0
M  V30 13409 C 1312 -1.65538 1.6468 0
M  V30 13410 C 1312.99 -1.62713 0.495847 0
M  V30 13411 O 1314.17 -1.80072 0.727172 0
M  V30 13412 C 1311.3 -3.0415 1.67661 0
M  V30 13413 C 1310.25 -3.2183 2.82152 0
M  V30 13414 C 1309.58 -4.61397 2.70216 0
M  V30 13415 C 1310.88 -3.05596 4.23567 0
M  V30 13416 H 1312.57 -1.51873 2.58021 0
M  V30 13417 H 1310.12 -0.729208 1.24171 0
M  V30 13418 H 1312.07 -3.82013 1.77887 0
M  V30 13419 H 1310.8 -3.18814 0.708907 0
M  V30 13420 H 1309.46 -2.4638 2.71463 0
M  V30 13421 H 1309.1 -4.72883 1.71437 0
M  V30 13422 H 1308.8 -4.74174 3.47035 0
M  V30 13423 H 1310.33 -5.41374 2.82395 0
M  V30 13424 H 1311.74 -3.73261 4.35143 0
M  V30 13425 H 1310.14 -3.29871 5.01303 0
M  V30 13426 H 1311.21 -2.0214 4.40758 0
M  V30 13427 N 1312.55 -1.36459 -0.788468 0
M  V30 13428 C 1313.8 -1.30935 -1.54867 0
M  V30 13429 C 1314.13 0.110916 -1.93883 0
M  V30 13430 O 1313.41 1.06452 -1.62783 0
M  V30 13431 C 1313.69 -2.23294 -2.8251 0
M  V30 13432 C 1313.54 -3.74022 -2.49856 0
M  V30 13433 C 1314.86 -2.14407 -3.84341 0
M  V30 13434 H 1311.98 -0.476958 -0.561854 0
M  V30 13435 H 1314.62 -1.67018 -0.905805 0
M  V30 13436 H 1312.77 -1.92652 -3.37369 0
M  V30 13437 H 1314.44 -4.15187 -2.01041 0
M  V30 13438 H 1312.69 -3.93411 -1.82785 0
M  V30 13439 H 1313.36 -4.34057 -3.41026 0
M  V30 13440 H 1315.83 -2.41381 -3.38932 0
M  V30 13441 H 1314.71 -2.81199 -4.71401 0
M  V30 13442 H 1314.97 -1.13166 -4.27371 0
M  V30 13443 N 1314.03 1.01274 -1.20754 0
M  V30 13444 C 1315.45 1.27256 -0.963221 0
M  V30 13445 C 1315.65 1.98349 0.354972 0
M  V30 13446 O 1314.7 2.28116 1.08255 0
M  V30 13447 C 1316.02 2.1038 -2.14851 0
M  V30 13448 C 1317.56 2.23633 -2.18991 0
M  V30 13449 C 1318.04 3.10136 -3.37016 0
M  V30 13450 N 1319.53 3.17724 -3.37054 0
M  V30 13451 C 1320.26 3.84891 -4.25025 0
M  V30 13452 N 1319.76 4.54152 -5.23181 0
M  V30 13453 N 1321.55 3.81454 -4.12855 0
M  V30 13454 H 1313.7 0.535534 -2.05538 0
M  V30 13455 H 1315.97 0.299006 -0.899611 0
M  V30 13456 H 1315.67 1.65484 -3.10335 0
M  V30 13457 H 1315.55 3.11122 -2.13267 0
M  V30 13458 H 1317.93 2.67753 -1.24067 0
M  V30 13459 H 1318.02 1.22387 -2.24622 0
M  V30 13460 H 1317.66 2.66721 -4.32229 0
M  V30 13461 H 1317.59 4.11478 -3.28623 0
M  V30 13462 H 1320.08 2.68412 -2.66014 0
M  V30 13463 H 1320.39 5.03084 -5.86623 0
M  V30 13464 H 1318.74 4.52964 -5.27113 0
M  V30 13465 H 1321.93 3.26494 -3.35439 0
M  V30 13466 H 1322.1 4.33523 -4.81624 0
M  V30 13467 N 1315.51 1.01404 1.20644 0
M  V30 13468 C 1316.47 0.586941 2.21557 0
M  V30 13469 C 1317.47 -0.341543 1.57131 0
M  V30 13470 O 1318.66 -0.130585 1.7371 0
M  V30 13471 C 1315.79 -0.143248 3.40599 0
M  V30 13472 H 1316.99 1.47964 2.60858 0
M  V30 13473 H 1314.54 0.803551 1.34063 0
M  V30 13474 H 1315.28 -1.05097 3.06798 0
M  V30 13475 H 1315.06 0.523716 3.88587 0
M  V30 13476 H 1316.55 -0.429504 4.15385 0
M  V30 13477 N 1316.99 -1.36373 0.789944 0
M  V30 13478 C 1318.23 -1.99227 0.362582 0
M  V30 13479 C 1318.56 -1.62694 -1.06587 0
M  V30 13480 O 1317.82 -0.873748 -1.75112 0
M  V30 13481 C 1318.12 -3.54243 0.474025 0
M  V30 13482 C 1317.78 -4.10597 1.86336 0
M  V30 13483 C 1316.44 -4.257 2.24349 0
M  V30 13484 C 1318.8 -4.41306 2.77306 0
M  V30 13485 C 1316.12 -4.68824 3.52734 0
M  V30 13486 C 1318.48 -4.85861 4.05119 0
M  V30 13487 C 1317.14 -4.9917 4.43154 0
M  V30 13488 H 1316.41 -0.729025 0.132678 0
M  V30 13489 H 1319.06 -1.62854 1.00751 0
M  V30 13490 H 1317.36 -3.90973 -0.254399 0
M  V30 13491 H 1319.06 -4.00807 0.124384 0
M  V30 13492 H 1315.65 -3.99281 1.55797 0
M  V30 13493 H 1319.83 -4.29205 2.49191 0
M  V30 13494 H 1315.09 -4.77315 3.82073 0
M  V30 13495 H 1319.26 -5.08587 4.75723 0
M  V30 13496 H 1316.89 -5.32344 5.42692 0
M  V30 13497 N 1318.47 -0.542005 -1.47987 0
M  V30 13498 C 1319.69 -0.0146835 -2.07395 0
M  V30 13499 C 1320.12 1.26266 -1.39422 0
M  V30 13500 O 1319.47 1.75259 -0.464118 0
M  V30 13501 C 1319.52 0.179937 -3.60151 0
M  V30 13502 O 1318.63 1.24596 -3.93128 0
M  V30 13503 H 1317.97 -0.0445076 -0.662507 0
M  V30 13504 H 1320.5 -0.753352 -1.90226 0
M  V30 13505 H 1320.51 0.398876 -4.06046 0
M  V30 13506 H 1319.18 -0.753093 -4.09025 0
M  V30 13507 H 1317.76 1.00872 -3.58997 0
M  V30 13508 N 1319.94 1.55134 -0.277709 0
M  V30 13509 C 1321.19 1.98831 0.338982 0
M  V30 13510 C 1321.51 1.16958 1.56781 0
M  V30 13511 O 1322.71 1.50811 2.25762 0
M  V30 13512 C 1321.17 3.53899 0.654465 0
M  V30 13513 C 1320.78 4.44553 -0.554703 0
M  V30 13514 C 1322.52 4.06179 1.23364 0
M  V30 13515 C 1320.43 5.91014 -0.213663 0
M  V30 13516 H 1319.36 0.742632 0.130434 0
M  V30 13517 H 1322.01 1.79463 -0.382768 0
M  V30 13518 H 1320.39 3.69078 1.43519 0
M  V30 13519 H 1321.56 4.41143 -1.33151 0
M  V30 13520 H 1319.88 4.02921 -1.0509 0
M  V30 13521 H 1322.48 5.13152 1.50265 0
M  V30 13522 H 1322.82 3.5537 2.16836 0
M  V30 13523 H 1323.35 3.9445 0.515147 0
M  V30 13524 H 1320.09 6.45924 -1.11633 0
M  V30 13525 H 1319.61 5.97486 0.526329 0
M  V30 13526 H 1321.29 6.46712 0.19319 0
M  V30 13527 N 1321.42 0.00503138 1.57599 0
M  V30 13528 C 1322.65 -0.689609 1.95069 0
M  V30 13529 C 1323.06 -1.67028 0.880183 0
M  V30 13530 O 1322.42 -1.81959 -0.140406 0
M  V30 13531 C 1322.47 -1.41709 3.32567 0
M  V30 13532 O 1322.19 -0.475746 4.35509 0
M  V30 13533 C 1323.69 -2.20578 3.84526 0
M  V30 13534 H 1320.91 -0.19175 0.643019 0
M  V30 13535 H 1323.46 0.057646 2.04419 0
M  V30 13536 H 1321.61 -2.11593 3.2451 0
M  V30 13537 H 1322.03 -0.989573 5.1508 0
M  V30 13538 H 1323.5 -2.66969 4.83148 0
M  V30 13539 H 1323.98 -3.03467 3.17497 0
M  V30 13540 H 1324.58 -1.557 3.95775 0
M  V30 13541 N 1322.9 -1.55308 -0.267798 0
M  V30 13542 C 1323.83 -1.84963 -1.35356 0
M  V30 13543 C 1324.84 -0.73446 -1.45291 0
M  V30 13544 O 1326.03 -1.01237 -1.47015 0
M  V30 13545 C 1323.13 -2.00221 -2.73432 0
M  V30 13546 C 1322.31 -3.30922 -2.86024 0
M  V30 13547 C 1321.37 -3.3618 -4.04808 0
M  V30 13548 O 1320.39 -4.09525 -3.9532 0
M  V30 13549 N 1321.59 -2.63958 -5.17017 0
M  V30 13550 H 1324.36 -2.7868 -1.1026 0
M  V30 13551 H 1321.92 -1.55289 -0.457914 0
M  V30 13552 H 1323.91 -2.01103 -3.51197 0
M  V30 13553 H 1322.48 -1.13346 -2.91327 0
M  V30 13554 H 1321.7 -3.42534 -1.951 0
M  V30 13555 H 1322.99 -4.17109 -2.91371 0
M  V30 13556 H 1322.39 -2.04062 -5.27613 0
M  V30 13557 H 1320.94 -2.70558 -5.92994 0
M  V30 13558 N 1324.38 0.532545 -1.4833 0
M  V30 13559 C 1325.63 1.28597 -1.55908 0
M  V30 13560 C 1325.95 1.93595 -0.233635 0
M  V30 13561 O 1325.22 1.81197 0.744605 0
M  V30 13562 H 1323.8 0.477619 -0.57436 0
M  V30 13563 H 1326.46 0.619922 -1.84778 0
M  V30 13564 H 1325.55 2.0666 -2.33877 0
M  V30 13565 N 1325.86 1.36875 0.78122 0
M  V30 13566 C 1326.79 1.34559 1.9083 0
M  V30 13567 C 1327.77 0.215713 1.68727 0
M  V30 13568 O 1328.95 0.41462 1.89722 0
M  V30 13569 C 1326.08 1.14233 3.27976 0
M  V30 13570 C 1325.04 2.24132 3.64621 0
M  V30 13571 C 1324.36 1.8894 5.00206 0
M  V30 13572 C 1325.66 3.66266 3.72353 0
M  V30 13573 H 1327.36 2.28871 1.93025 0
M  V30 13574 H 1324.9 1.10171 0.927275 0
M  V30 13575 H 1326.85 1.11246 4.06451 0
M  V30 13576 H 1325.58 0.163747 3.26189 0
M  V30 13577 H 1324.24 2.26259 2.88448 0
M  V30 13578 H 1323.89 0.896351 4.94949 0
M  V30 13579 H 1323.59 2.62525 5.25694 0
M  V30 13580 H 1325.11 1.87523 5.81092 0
M  V30 13581 H 1326.52 3.66321 4.41001 0
M  V30 13582 H 1324.92 4.38825 4.09332 0
M  V30 13583 H 1325.99 4.00578 2.7325 0
M  V30 13584 N 1327.33 -1.00632 1.21289 0
M  V30 13585 C 1328.26 -2.11238 0.995021 0
M  V30 13586 C 1329.24 -1.69914 -0.0795537 0
M  V30 13587 O 1330.43 -1.94035 0.0800152 0
M  V30 13588 C 1327.56 -3.42797 0.557475 0
M  V30 13589 C 1326.51 -3.97909 1.57646 0
M  V30 13590 C 1325.84 -5.25357 0.995197 0
M  V30 13591 C 1327.14 -4.30123 2.96297 0
M  V30 13592 H 1328.83 -2.29722 1.9201 0
M  V30 13593 H 1326.38 -1.10395 0.924602 0
M  V30 13594 H 1328.33 -4.19571 0.392236 0
M  V30 13595 H 1327.06 -3.24101 -0.403253 0
M  V30 13596 H 1325.72 -3.23254 1.72924 0
M  V30 13597 H 1325.36 -5.02993 0.026227 0
M  V30 13598 H 1325.06 -5.63196 1.67583 0
M  V30 13599 H 1326.59 -6.04777 0.841251 0
M  V30 13600 H 1328 -4.97744 2.8447 0
M  V30 13601 H 1326.4 -4.79101 3.61361 0
M  V30 13602 H 1327.47 -3.38454 3.47242 0
M  V30 13603 N 1328.81 -1.02043 -1.20104 0
M  V30 13604 C 1329.76 -0.593945 -2.23027 0
M  V30 13605 C 1330.73 0.387931 -1.61506 0
M  V30 13606 O 1331.91 0.286504 -1.88637 0
M  V30 13607 C 1329.05 0.0577309 -3.45052 0
M  V30 13608 C 1328.17 -0.969169 -4.20988 0
M  V30 13609 C 1327.3 -0.288143 -5.30418 0
M  V30 13610 C 1326.34 -1.30154 -5.98102 0
M  V30 13611 N 1325.48 -0.646912 -6.99113 0
M  V30 13612 H 1330.32 -1.47623 -2.58866 0
M  V30 13613 H 1327.85 -0.738901 -1.27195 0
M  V30 13614 H 1329.81 0.452726 -4.14736 0
M  V30 13615 H 1328.44 0.90364 -3.09894 0
M  V30 13616 H 1327.49 -1.48229 -3.50332 0
M  V30 13617 H 1328.81 -1.73972 -4.67477 0
M  V30 13618 H 1327.96 0.162149 -6.06483 0
M  V30 13619 H 1326.7 0.514683 -4.84977 0
M  V30 13620 H 1325.7 -1.76218 -5.20795 0
M  V30 13621 H 1326.93 -2.10571 -6.45629 0
M  V30 13622 H 1324.88 0.135976 -6.55859 0
M  V30 13623 H 1324.79 -1.35548 -7.43749 0
M  V30 13624 H 1326.06 -0.220339 -7.79189 0
M  V30 13625 N 1330.29 1.35952 -0.797165 0
M  V30 13626 C 1331.57 1.93335 -0.2968 0
M  V30 13627 C 1331.95 1.72825 1.21222 0
M  V30 13628 O 1331.3 1.09172 2.00733 0
M  V30 13629 C 1331.51 3.41951 -0.697894 0
M  V30 13630 C 1332.85 4.19087 -0.682026 0
M  V30 13631 O 1333.88 3.50424 -0.638849 0
M  V30 13632 O 1332.74 5.41577 -0.73189 0
M  V30 13633 H 1329.83 0.823554 -0.0754223 0
M  V30 13634 H 1332.38 1.45086 -0.88023 0
M  V30 13635 H 1331.15 3.50569 -1.73831 0
M  V30 13636 H 1330.77 3.97501 -0.088764 0
M  V30 13637 N 1331.77 0.549846 1.47697 0
M  V30 13638 C 1333.18 0.209085 1.58225 0
M  V30 13639 C 1333.38 -1.28823 1.54941 0
M  V30 13640 O 1332.44 -2.0679 1.44893 0
M  V30 13641 C 1333.75 0.829219 2.89041 0
M  V30 13642 C 1335.3 0.79977 3.0261 0
M  V30 13643 C 1335.78 1.39884 4.36115 0
M  V30 13644 N 1337.27 1.36169 4.42733 0
M  V30 13645 C 1338 1.79492 5.44583 0
M  V30 13646 N 1337.5 2.30637 6.53283 0
M  V30 13647 N 1339.29 1.70608 5.35583 0
M  V30 13648 H 1331.44 1.52275 1.48074 0
M  V30 13649 H 1333.71 0.634579 0.704283 0
M  V30 13650 H 1333.41 1.88122 2.97158 0
M  V30 13651 H 1333.29 0.317916 3.75858 0
M  V30 13652 H 1335.67 -0.243525 2.94093 0
M  V30 13653 H 1335.75 1.34875 2.17353 0
M  V30 13654 H 1335.4 2.44116 4.45387 0
M  V30 13655 H 1335.33 0.825362 5.20092 0
M  V30 13656 H 1337.82 0.987505 3.64769 0
M  V30 13657 H 1338.13 2.61637 7.27163 0
M  V30 13658 H 1336.48 2.34643 6.54192 0
M  V30 13659 H 1339.67 1.30434 4.4956 0
M  V30 13660 H 1339.84 2.0469 6.14822 0
M  V30 13661 N 1333.25 -1.54984 0.285932 0
M  V30 13662 C 1334.18 -2.25916 -0.590259 0
M  V30 13663 C 1335.16 -1.25319 -1.15018 0
M  V30 13664 O 1336.34 -1.54062 -1.18231 0
M  V30 13665 C 1333.47 -2.98849 -1.76936 0
M  V30 13666 C 1332.43 -4.06466 -1.3405 0
M  V30 13667 C 1331.75 -4.67032 -2.60356 0
M  V30 13668 C 1333.05 -5.20064 -0.482754 0
M  V30 13669 H 1334.75 -2.994 0.00131571 0
M  V30 13670 H 1332.29 -1.44 0.00207281 0
M  V30 13671 H 1334.25 -3.47186 -2.3883 0
M  V30 13672 H 1332.97 -2.22918 -2.38694 0
M  V30 13673 H 1331.63 -3.58957 -0.7447 0
M  V30 13674 H 1331.28 -3.87757 -3.20396 0
M  V30 13675 H 1330.98 -5.39703 -2.32368 0
M  V30 13676 H 1332.5 -5.18124 -3.23079 0
M  V30 13677 H 1333.91 -5.64387 -1.00697 0
M  V30 13678 H 1332.31 -5.99363 -0.297291 0
M  V30 13679 H 1333.38 -4.82358 0.495861 0
M  V30 13680 N 1334.72 -0.0133892 -1.57594 0
M  V30 13681 C 1335.65 0.972341 -2.12292 0
M  V30 13682 C 1336.64 1.34971 -1.03522 0
M  V30 13683 O 1337.82 1.4311 -1.31275 0
M  V30 13684 C 1334.95 2.25988 -2.63717 0
M  V30 13685 C 1333.9 2.02373 -3.77133 0
M  V30 13686 C 1333.23 3.37256 -4.14925 0
M  V30 13687 C 1334.53 1.37553 -5.03861 0
M  V30 13688 H 1336.22 0.516869 -2.94905 0
M  V30 13689 H 1333.77 0.247176 -1.41863 0
M  V30 13690 H 1335.72 2.95313 -3.00613 0
M  V30 13691 H 1334.45 2.73672 -1.78244 0
M  V30 13692 H 1333.11 1.3547 -3.40651 0
M  V30 13693 H 1332.75 3.82669 -3.26456 0
M  V30 13694 H 1332.45 3.22267 -4.91343 0
M  V30 13695 H 1333.98 4.07875 -4.5439 0
M  V30 13696 H 1335.39 1.96855 -5.38443 0
M  V30 13697 H 1333.79 1.33011 -5.85174 0
M  V30 13698 H 1334.86 0.346429 -4.83661 0
M  V30 13699 N 1336.2 1.55448 0.259558 0
M  V30 13700 C 1337.44 1.78444 0.996849 0
M  V30 13701 C 1337.81 0.580862 1.83003 0
M  V30 13702 O 1339.01 0.68934 2.59811 0
M  V30 13703 C 1337.28 3.06094 1.84502 0
M  V30 13704 S 1338.84 3.50263 2.64313 0
M  V30 13705 H 1335.66 0.626854 0.335523 0
M  V30 13706 H 1338.26 1.93683 0.265929 0
M  V30 13707 H 1336.96 3.91772 1.22241 0
M  V30 13708 H 1336.49 2.93558 2.61891 0
M  V30 13709 H 1338.51 3.10596 3.86968 0
M  V30 13710 N 1337.68 -0.524672 1.4861 0
M  V30 13711 C 1338.91 -1.30958 1.60825 0
M  V30 13712 C 1339.33 -1.86142 0.270682 0
M  V30 13713 O 1338.69 -1.64675 -0.758415 0
M  V30 13714 C 1338.74 -2.43252 2.66197 0
M  V30 13715 O 1337.84 -3.4644 2.23725 0
M  V30 13716 H 1337.18 -0.387638 0.539104 0
M  V30 13717 H 1339.71 -0.630755 1.94635 0
M  V30 13718 H 1339.72 -2.89362 2.87635 0
M  V30 13719 H 1338.4 -2.02449 3.63301 0
M  V30 13720 H 1336.97 -3.06413 2.12522 0
M  V30 13721 N 1339.16 -1.37287 -0.77395 0
M  V30 13722 C 1340.41 -1.32112 -1.5294 0
M  V30 13723 C 1340.73 0.0946137 -1.9477 0
M  V30 13724 O 1340 1.03817 -1.66129 0
M  V30 13725 H 1338.58 -0.486047 -0.567245 0
M  V30 13726 H 1341.24 -1.71752 -0.921263 0
M  V30 13727 H 1340.34 -1.95873 -2.42982 0
M  V30 13728 N 1340.64 0.999871 -1.21821 0
M  V30 13729 C 1341.59 2.0729 -0.949465 0
M  V30 13730 C 1342.57 1.60606 0.0972572 0
M  V30 13731 O 1343.76 1.76643 -0.11235 0
M  V30 13732 C 1340.89 3.39315 -0.521565 0
M  V30 13733 C 1339.98 3.92653 -1.60264 0
M  V30 13734 N 1340.37 4.19297 -2.82884 0
M  V30 13735 C 1338.67 4.20984 -1.4727 0
M  V30 13736 C 1339.37 4.62547 -3.52739 0
M  V30 13737 N 1338.34 4.65826 -2.80191 0
M  V30 13738 H 1342.15 2.25822 -1.881 0
M  V30 13739 H 1339.66 1.18102 -1.1147 0
M  V30 13740 H 1341.66 4.15743 -0.310376 0
M  V30 13741 H 1340.32 3.22187 0.403152 0
M  V30 13742 H 1341.33 4.07698 -3.19378 0
M  V30 13743 H 1338 4.12966 -0.613654 0
M  V30 13744 H 1339.39 4.91843 -4.57756 0
M  V30 13745 N 1342.11 1.02678 1.19562 0
M  V30 13746 C 1343.39 0.63674 1.84946 0
M  V30 13747 C 1343.77 -0.884667 1.91669 0
M  V30 13748 O 1343.12 -1.78053 1.43211 0
M  V30 13749 C 1343.33 1.29637 3.2403 0
M  V30 13750 C 1344.68 1.41828 4.00212 0
M  V30 13751 O 1345.7 1.25338 3.3342 0
M  V30 13752 O 1344.56 1.68573 5.19851 0
M  V30 13753 H 1341.65 0.221044 0.796912 0
M  V30 13754 H 1344.2 1.1248 1.27068 0
M  V30 13755 H 1342.97 2.33549 3.1396 0
M  V30 13756 H 1342.6 0.796041 3.8955 0
M  V30 13757 N 1343.59 -1.35528 0.804364 0
M  V30 13758 C 1344.84 -1.99126 0.384261 0
M  V30 13759 C 1345.17 -1.63668 -1.0453 0
M  V30 13760 O 1344.45 -0.898896 -1.72482 0
M  V30 13761 C 1344.73 -3.55636 0.565278 0
M  V30 13762 C 1344.58 -4.00899 2.03961 0
M  V30 13763 C 1345.9 -4.40099 -0.0104301 0
M  V30 13764 H 1343.02 -0.723369 0.141092 0
M  V30 13765 H 1345.66 -1.60712 1.01348 0
M  V30 13766 H 1343.81 -3.88489 0.0296425 0
M  V30 13767 H 1345.48 -3.78465 2.63746 0
M  V30 13768 H 1343.73 -3.5189 2.53685 0
M  V30 13769 H 1344.4 -5.09785 2.11716 0
M  V30 13770 H 1346.87 -4.13692 0.446985 0
M  V30 13771 H 1345.75 -5.48705 0.146155 0
M  V30 13772 H 1346.01 -4.28096 -1.10392 0
M  V30 13773 N 1345.07 -0.557671 -1.47404 0
M  V30 13774 C 1346.3 -0.0366797 -2.07368 0
M  V30 13775 C 1346.72 1.2478 -1.40754 0
M  V30 13776 O 1346.08 1.74757 -0.48268 0
M  V30 13777 C 1346.13 0.141728 -3.60321 0
M  V30 13778 O 1345.23 1.20419 -3.94427 0
M  V30 13779 H 1344.57 -0.0515319 -0.661997 0
M  V30 13780 H 1347.1 -0.773485 -1.89416 0
M  V30 13781 H 1347.11 0.355787 -4.06446 0
M  V30 13782 H 1345.79 -0.796433 -4.08203 0
M  V30 13783 H 1344.36 0.970589 -3.60047 0
M  V30 13784 N 1346.55 1.54831 -0.294147 0
M  V30 13785 C 1347.83 1.92071 0.369902 0
M  V30 13786 C 1348.21 1.22061 1.72233 0
M  V30 13787 O 1347.55 0.353975 2.25742 0
M  V30 13788 C 1347.76 3.45524 0.49135 0
M  V30 13789 C 1349.11 4.17644 0.765411 0
M  V30 13790 O 1350.14 3.51521 0.575428 0
M  V30 13791 O 1349 5.34692 1.12992 0
M  V30 13792 H 1346.09 0.801033 0.20561 0
M  V30 13793 H 1348.64 1.66224 -0.341702 0
M  V30 13794 H 1347.41 3.88591 -0.459663 0
M  V30 13795 H 1347.03 3.77384 1.25169 0
M  V30 13796 N 1348.03 0.0217466 1.57585 0
M  V30 13797 C 1349.28 -0.657187 1.91116 0
M  V30 13798 C 1349.6 -1.7309 0.898039 0
M  V30 13799 O 1348.87 -1.95803 -0.0615116 0
M  V30 13800 H 1347.45 -0.245732 0.705425 0
M  V30 13801 H 1350.11 0.0678096 1.94782 0
M  V30 13802 H 1349.2 -1.11462 2.91518 0
M  V30 13803 N 1349.51 -1.55583 -0.251311 0
M  V30 13804 C 1350.75 -1.76859 -0.978031 0
M  V30 13805 C 1351.07 -0.584924 -1.86021 0
M  V30 13806 O 1350.34 0.399456 -1.91784 0
M  V30 13807 H 1348.92 -0.652252 -0.364111 0
M  V30 13808 H 1351.59 -1.93016 -0.270319 0
M  V30 13809 H 1350.68 -2.67828 -1.60233 0
M  V30 13810 N 1350.98 0.516783 -1.48886 0
M  V30 13811 C 1351.91 1.62897 -1.67292 0
M  V30 13812 C 1352.89 1.61903 -0.521671 0
M  V30 13813 O 1354.08 1.78892 -0.755728 0
M  V30 13814 C 1351.21 3.01444 -1.72478 0
M  V30 13815 C 1350.16 3.173 -2.87236 0
M  V30 13816 C 1349.49 4.5704 -2.77522 0
M  V30 13817 C 1350.79 2.98818 -4.28375 0
M  V30 13818 H 1352.48 1.47748 -2.60405 0
M  V30 13819 H 1350.03 0.709361 -1.25316 0
M  V30 13820 H 1351.98 3.79135 -1.83942 0
M  V30 13821 H 1350.71 3.17645 -0.759538 0
M  V30 13822 H 1349.37 2.4203 -2.75349 0
M  V30 13823 H 1349.01 4.70096 -1.78938 0
M  V30 13824 H 1348.71 4.68593 -3.54534 0
M  V30 13825 H 1350.24 5.36813 -2.90972 0
M  V30 13826 H 1351.65 3.66291 -4.41026 0
M  V30 13827 H 1350.05 3.21854 -5.06488 0
M  V30 13828 H 1351.12 1.95102 -4.43918 0
M  V30 13829 N 1352.46 1.37696 0.766659 0
M  V30 13830 C 1353.71 1.33382 1.52765 0
M  V30 13831 C 1354.04 -0.0800569 1.94035 0
M  V30 13832 O 1353.32 -1.03848 1.64456 0
M  V30 13833 C 1353.6 2.2776 2.78922 0
M  V30 13834 C 1353.45 3.77949 2.43874 0
M  V30 13835 C 1354.77 2.20494 3.80881 0
M  V30 13836 H 1351.89 0.485836 0.554195 0
M  V30 13837 H 1354.53 1.68438 0.879119 0
M  V30 13838 H 1352.68 1.97994 3.34261 0
M  V30 13839 H 1354.35 4.18333 1.9441 0
M  V30 13840 H 1352.6 3.96269 1.76503 0
M  V30 13841 H 1353.27 4.39428 3.34077 0
M  V30 13842 H 1355.74 2.46742 3.35048 0
M  V30 13843 H 1354.62 2.88663 4.66867 0
M  V30 13844 H 1354.88 1.19951 4.25516 0
M  V30 13845 N 1353.94 -0.993397 1.22349 0
M  V30 13846 C 1355.17 -1.76838 1.07406 0
M  V30 13847 C 1355.58 -1.8503 -0.37542 0
M  V30 13848 O 1354.94 -1.32008 -1.26016 0
M  V30 13849 C 1354.99 -3.20177 1.67837 0
M  V30 13850 O 1354.71 -3.12429 3.07115 0
M  V30 13851 C 1356.21 -4.14125 1.58161 0
M  V30 13852 H 1353.43 -0.555379 0.376557 0
M  V30 13853 H 1355.98 -1.24893 1.61932 0
M  V30 13854 H 1354.13 -3.69191 1.17375 0
M  V30 13855 H 1354.55 -4.02568 3.36213 0
M  V30 13856 H 1356.02 -5.12455 2.05169 0
M  V30 13857 H 1356.5 -4.35892 0.538073 0
M  V30 13858 H 1357.1 -3.71008 2.07926 0
M  V30 13859 N 1355.42 -1.03311 -1.19015 0
M  V30 13860 C 1356.66 -0.740813 -1.90503 0
M  V30 13861 C 1357.02 0.717732 -1.7808 0
M  V30 13862 O 1358.22 1.12329 -2.44204 0
M  V30 13863 C 1356.49 -1.18473 -3.37193 0
M  V30 13864 S 1358.05 -1.01692 -4.26854 0
M  V30 13865 H 1354.87 -0.269575 -0.657913 0
M  V30 13866 H 1357.47 -1.32382 -1.43858 0
M  V30 13867 H 1356.18 -2.2418 -3.43761 0
M  V30 13868 H 1355.71 -0.59519 -3.88872 0
M  V30 13869 H 1357.72 0.070076 -4.96151 0
M  V30 13870 N 1356.9 1.35099 -0.81154 0
M  V30 13871 C 1357.83 2.32264 -0.239925 0
M  V30 13872 C 1358.81 1.57708 0.637354 0
M  V30 13873 O 1359.99 1.85751 0.566598 0
M  V30 13874 C 1357.12 3.41931 0.608325 0
M  V30 13875 C 1356.08 4.27659 -0.170869 0
M  V30 13876 C 1355.4 5.28691 0.799398 0
M  V30 13877 C 1356.7 5.0394 -1.37266 0
M  V30 13878 H 1358.4 2.8032 -1.05172 0
M  V30 13879 H 1355.94 1.34773 -0.507185 0
M  V30 13880 H 1357.89 4.08911 1.01832 0
M  V30 13881 H 1356.62 2.92496 1.45306 0
M  V30 13882 H 1355.28 3.62265 -0.562094 0
M  V30 13883 H 1354.93 4.75521 1.63977 0
M  V30 13884 H 1354.63 5.86921 0.282331 0
M  V30 13885 H 1356.15 5.98542 1.20749 0
M  V30 13886 H 1357.56 5.63838 -1.03728 0
M  V30 13887 H 1355.96 5.7169 -1.82456 0
M  V30 13888 H 1357.03 4.34295 -2.15676 0
M  V30 13889 N 1358.37 0.56548 1.47106 0
M  V30 13890 C 1359.3 -0.16567 2.32912 0
M  V30 13891 C 1360.28 -0.900678 1.44298 0
M  V30 13892 O 1361.47 -0.879523 1.73142 0
M  V30 13893 C 1358.6 -1.19092 3.26243 0
M  V30 13894 C 1357.55 -0.571849 4.24163 0
M  V30 13895 C 1356.88 -1.70233 5.06878 0
M  V30 13896 C 1358.18 0.479785 5.20092 0
M  V30 13897 H 1359.87 0.550705 2.94292 0
M  V30 13898 H 1357.42 0.266284 1.41517 0
M  V30 13899 H 1359.37 -1.71064 3.85117 0
M  V30 13900 H 1358.1 -1.93734 2.62934 0
M  V30 13901 H 1356.76 -0.073353 3.66527 0
M  V30 13902 H 1356.4 -2.438 4.39967 0
M  V30 13903 H 1356.1 -1.29384 5.73178 0
M  V30 13904 H 1357.63 -2.22515 5.68612 0
M  V30 13905 H 1359.04 0.0458042 5.73282 0
M  V30 13906 H 1357.44 0.807615 5.94641 0
M  V30 13907 H 1358.51 1.37259 4.65068 0
M  V30 13908 N 1359.85 -1.54672 0.302354 0
M  V30 13909 C 1360.76 -2.27251 -0.582578 0
M  V30 13910 C 1361.78 -1.30819 -1.14727 0
M  V30 13911 O 1362.95 -1.63803 -1.17177 0
M  V30 13912 C 1360.02 -3.00016 -1.73757 0
M  V30 13913 C 1359.08 -4.11988 -1.20682 0
M  V30 13914 C 1358.31 -4.81273 -2.30676 0
M  V30 13915 O 1358.54 -4.49927 -3.50602 0
M  V30 13916 O 1357.47 -5.68647 -1.97291 0
M  V30 13917 H 1361.3 -3.03699 0.00621365 0
M  V30 13918 H 1358.88 -1.49242 0.0687684 0
M  V30 13919 H 1360.76 -3.45652 -2.41045 0
M  V30 13920 H 1359.44 -2.26462 -2.31294 0
M  V30 13921 H 1358.35 -3.70749 -0.499625 0
M  V30 13922 H 1359.68 -4.87524 -0.676858 0
M  V30 13923 N 1361.33 -0.0301034 -1.57571 0
M  V30 13924 C 1362.26 0.986212 -2.05789 0
M  V30 13925 C 1363.24 1.31682 -0.95387 0
M  V30 13926 O 1364.43 1.43332 -1.22427 0
M  V30 13927 C 1361.55 2.30598 -2.48077 0
M  V30 13928 C 1360.6 2.12991 -3.69509 0
M  V30 13929 S 1361.43 1.42782 -5.16114 0
M  V30 13930 C 1362.59 2.76126 -5.61699 0
M  V30 13931 H 1362.82 0.575769 -2.91671 0
M  V30 13932 H 1360.35 0.181613 -1.53328 0
M  V30 13933 H 1362.31 3.06469 -2.73107 0
M  V30 13934 H 1360.97 2.68775 -1.62539 0
M  V30 13935 H 1360.17 3.1056 -3.96949 0
M  V30 13936 H 1359.77 1.45263 -3.44637 0
M  V30 13937 H 1362.06 3.72361 -5.65998 0
M  V30 13938 H 1363 2.53349 -6.61226 0
M  V30 13939 H 1363.41 2.81418 -4.89351 0
M  V30 13940 N 1362.81 1.55714 0.243056 0
M  V30 13941 C 1363.77 1.89832 1.28438 0
M  V30 13942 C 1364.77 0.775083 1.40887 0
M  V30 13943 O 1365.96 1.04304 1.39521 0
M  V30 13944 C 1363.09 2.13016 2.66153 0
M  V30 13945 H 1364.29 2.82947 0.994022 0
M  V30 13946 H 1361.84 1.48665 0.482521 0
M  V30 13947 H 1362.57 1.22381 3.00322 0
M  V30 13948 H 1362.36 2.94824 2.58498 0
M  V30 13949 H 1363.85 2.40581 3.41336 0
M  V30 13950 N 1364.29 -0.50888 1.49158 0
M  V30 13951 C 1365.53 -1.2635 1.58247 0
M  V30 13952 C 1365.86 -1.92677 0.265654 0
M  V30 13953 O 1365.12 -1.80931 -0.745818 0
M  V30 13954 C 1365.42 -2.35875 2.6851 0
M  V30 13955 C 1365.08 -1.87059 4.10268 0
M  V30 13956 C 1363.74 -1.73464 4.48847 0
M  V30 13957 C 1366.1 -1.50429 4.9902 0
M  V30 13958 C 1363.42 -1.21606 5.73959 0
M  V30 13959 C 1365.78 -1.00026 6.24642 0
M  V30 13960 C 1364.44 -0.850646 6.62058 0
M  V30 13961 H 1363.71 -0.462346 0.579066 0
M  V30 13962 H 1366.36 -0.565528 1.82959 0
M  V30 13963 H 1364.66 -3.11428 2.37739 0
M  V30 13964 H 1366.36 -2.9395 2.72753 0
M  V30 13965 H 1362.95 -1.98597 3.79812 0
M  V30 13966 H 1367.13 -1.59782 4.69876 0
M  V30 13967 H 1362.39 -1.08728 6.01655 0
M  V30 13968 H 1366.56 -0.707608 6.92796 0
M  V30 13969 H 1364.19 -0.446627 7.58887 0
M  V30 13970 N 1365.76 -1.381 -0.759346 0
M  V30 13971 C 1366.73 -1.34674 -1.8546 0
M  V30 13972 C 1367.73 -0.248351 -1.58871 0
M  V30 13973 O 1368.92 -0.504915 -1.66722 0
M  V30 13974 C 1366.05 -1.0952 -3.22828 0
M  V30 13975 H 1367.24 -2.3211 -1.89908 0
M  V30 13976 H 1364.8 -1.2331 -0.960435 0
M  V30 13977 H 1365.53 -0.126664 -3.24053 0
M  V30 13978 H 1365.32 -1.89037 -3.43522 0
M  V30 13979 H 1366.81 -1.09804 -4.02906 0
M  V30 13980 N 1367.24 0.986894 -1.22875 0
M  V30 13981 C 1368.49 1.72388 -1.05484 0
M  V30 13982 C 1368.81 1.90639 0.410074 0
M  V30 13983 O 1368.08 1.47036 1.2945 0
M  V30 13984 H 1366.66 0.638732 -0.387337 0
M  V30 13985 H 1369.32 1.18829 -1.54485 0
M  V30 13986 H 1368.42 2.71599 -1.53754 0
M  V30 13987 N 1368.72 1.0394 1.18466 0
M  V30 13988 C 1369.67 0.623063 2.241 0
M  V30 13989 C 1370.66 -0.349518 1.65755 0
M  V30 13990 O 1371.87 -0.216947 1.78688 0
M  V30 13991 H 1368.24 0.183263 0.729327 0
M  V30 13992 H 1370.21 1.52439 2.56524 0
M  V30 13993 C 1368.96 0.000626805 3.477 0
M  V30 13994 H 1368.29 0.740056 3.92891 0
M  V30 13995 H 1369.73 -0.253484 4.23242 0
M  V30 13996 C 1368.19 -1.24907 3.1289 0
M  V30 13997 O 1368.72 -2.33996 3.2651 0
M  V30 13998 N 1366.92 -1.14187 2.67226 0
M  V30 13999 H 1366.47 -0.254146 2.56343 0
M  V30 14000 H 1366.43 -1.97893 2.44307 0
M  V30 14001 N 1370.2 -1.34667 0.818693 0
M  V30 14002 C 1371.44 -2.00234 0.41056 0
M  V30 14003 C 1371.8 -1.63507 -1.00644 0
M  V30 14004 O 1373 -2.21886 -1.51723 0
M  V30 14005 C 1371.27 -3.52294 0.601968 0
M  V30 14006 S 1372.83 -4.37867 0.286055 0
M  V30 14007 H 1369.65 -0.693826 0.155325 0
M  V30 14008 H 1372.25 -1.64037 1.06359 0
M  V30 14009 H 1370.96 -3.76511 1.63302 0
M  V30 14010 H 1370.49 -3.93345 -0.0659441 0
M  V30 14011 H 1372.5 -4.87936 -0.901832 0
M  V30 14012 N 1371.68 -0.573274 -1.46804 0
M  V30 14013 C 1372.92 -0.0551522 -2.02025 0
M  V30 14014 C 1373.25 1.30577 -1.44826 0
M  V30 14015 O 1372.52 1.85514 -0.629403 0
M  V30 14016 H 1371.1 -0.0173982 -0.746797 0
M  V30 14017 H 1373.76 -0.746919 -1.8002 0
M  V30 14018 H 1372.85 0.0209326 -3.12093 0
M  V30 14019 N 1373.15 1.5451 -0.310553 0
M  V30 14020 C 1374.08 2.26827 0.554243 0
M  V30 14021 C 1375.07 1.27133 1.13009 0
M  V30 14022 O 1376.25 1.55923 1.15765 0
M  V30 14023 C 1373.38 3.01626 1.7216 0
M  V30 14024 C 1372.33 4.08547 1.27566 0
M  V30 14025 C 1371.66 4.71115 2.52893 0
M  V30 14026 C 1372.96 5.20766 0.399955 0
M  V30 14027 H 1374.65 2.9936 -0.0489475 0
M  V30 14028 H 1372.2 1.43978 -0.0249817 0
M  V30 14029 H 1374.15 3.50942 2.33276 0
M  V30 14030 H 1372.88 2.26688 2.35118 0
M  V30 14031 H 1371.54 3.60096 0.687499 0
M  V30 14032 H 1371.18 3.92805 3.14186 0
M  V30 14033 H 1370.88 5.43331 2.23752 0
M  V30 14034 H 1372.41 5.23198 3.14796 0
M  V30 14035 H 1373.82 5.65918 0.917054 0
M  V30 14036 H 1372.22 5.9976 0.2019 0
M  V30 14037 H 1373.29 4.81508 -0.572537 0
M  V30 14038 N 1374.63 0.0384594 1.57553 0
M  V30 14039 C 1375.57 -0.969185 2.077 0
M  V30 14040 C 1376.58 -1.2829 1.00227 0
M  V30 14041 O 1377.77 -1.24592 1.27824 0
M  V30 14042 C 1374.87 -2.29414 2.49444 0
M  V30 14043 C 1374.04 -2.16422 3.80106 0
M  V30 14044 C 1373.1 -3.31931 4.08299 0
M  V30 14045 O 1372.13 -3.08401 4.78412 0
M  V30 14046 N 1373.33 -4.56015 3.59208 0
M  V30 14047 H 1376.09 -0.541252 2.94772 0
M  V30 14048 H 1373.65 -0.148084 1.61221 0
M  V30 14049 H 1375.65 -3.05533 2.6539 0
M  V30 14050 H 1374.22 -2.63817 1.67688 0
M  V30 14051 H 1373.44 -1.24973 3.73866 0
M  V30 14052 H 1374.72 -2.04954 4.65694 0
M  V30 14053 H 1374.12 -4.78025 3.02503 0
M  V30 14054 H 1372.68 -5.29271 3.80415 0
M  V30 14055 N 1376.11 -1.55841 -0.234795 0
M  V30 14056 C 1377.36 -1.78502 -0.96254 0
M  V30 14057 C 1377.69 -0.605832 -1.84508 0
M  V30 14058 O 1376.97 0.395446 -1.90438 0
M  V30 14059 C 1377.25 -3.11144 -1.81277 0
M  V30 14060 C 1377.1 -4.39488 -0.957607 0
M  V30 14061 C 1378.42 -3.40114 -2.79304 0
M  V30 14062 H 1375.54 -0.649397 -0.348501 0
M  V30 14063 H 1378.18 -1.88575 -0.23224 0
M  V30 14064 H 1376.33 -3.02687 -2.43542 0
M  V30 14065 H 1378 -4.59949 -0.352726 0
M  V30 14066 H 1376.25 -4.33005 -0.262454 0
M  V30 14067 H 1376.92 -5.28707 -1.58659 0
M  V30 14068 H 1379.39 -3.48612 -2.27175 0
M  V30 14069 H 1378.27 -4.34118 -3.35906 0
M  V30 14070 H 1378.53 -2.61623 -3.56378 0
M  V30 14071 N 1377.59 0.500963 -1.49426 0
M  V30 14072 C 1378.87 1.26231 -1.49416 0
M  V30 14073 C 1379.25 2.0993 -0.221908 0
M  V30 14074 O 1378.59 2.14198 0.795712 0
M  V30 14075 C 1378.8 2.11899 -2.77308 0
M  V30 14076 C 1380.15 2.71086 -3.26799 0
M  V30 14077 O 1381.18 2.22166 -2.78425 0
M  V30 14078 O 1380.04 3.60141 -4.11049 0
M  V30 14079 H 1377.13 0.571224 -0.598024 0
M  V30 14080 H 1379.68 0.51523 -1.61689 0
M  V30 14081 H 1378.45 1.50027 -3.61397 0
M  V30 14082 H 1378.07 2.93799 -2.67896 0
M  V30 14083 N 1379.07 1.38501 0.752011 0
M  V30 14084 C 1380.31 1.34995 1.51341 0
M  V30 14085 C 1380.65 -0.0594724 1.94109 0
M  V30 14086 O 1379.92 -1.02098 1.65548 0
M  V30 14087 C 1380.2 2.30705 2.76491 0
M  V30 14088 C 1380.06 3.80515 2.39851 0
M  V30 14089 C 1381.38 2.24521 3.78521 0
M  V30 14090 H 1378.5 0.491687 0.549011 0
M  V30 14091 H 1381.14 1.69361 0.861205 0
M  V30 14092 H 1379.29 2.01529 3.32142 0
M  V30 14093 H 1380.96 4.20371 1.89962 0
M  V30 14094 H 1379.2 3.98119 1.7229 0
M  V30 14095 H 1379.87 4.42946 3.29397 0
M  V30 14096 H 1382.35 2.50282 3.32413 0
M  V30 14097 H 1381.23 2.93598 4.63779 0
M  V30 14098 H 1381.49 1.24457 4.2422 0
M  V30 14099 N 1380.55 -0.980364 1.23396 0
M  V30 14100 C 1381.96 -1.53622 1.061 0
M  V30 14101 C 1382.31 -1.92648 -0.371645 0
M  V30 14102 O 1381.43 -1.76051 -1.25837 0
M  V30 14103 C 1382.03 -2.79159 1.91979 0
M  V30 14104 C 1380.59 -3.31144 1.78943 0
M  V30 14105 C 1379.73 -2.04135 1.87681 0
M  V30 14106 H 1382.68 -0.800047 1.37058 0
M  V30 14107 H 1382.71 -3.52011 1.4446 0
M  V30 14108 H 1382.22 -2.50723 2.96242 0
M  V30 14109 H 1380.32 -3.64459 0.774634 0
M  V30 14110 H 1380.43 -4.009 2.62329 0
M  V30 14111 H 1378.8 -2.18271 1.31262 0
M  V30 14112 H 1379.58 -1.78081 2.93499 0
M  V30 14113 N 1382.02 -1.04567 -1.17913 0
M  V30 14114 C 1383.27 -0.753137 -1.88297 0
M  V30 14115 C 1383.6 0.717651 -1.80453 0
M  V30 14116 O 1382.88 1.5242 -1.20824 0
M  V30 14117 C 1383.16 -1.22626 -3.38578 0
M  V30 14118 C 1383.01 -2.75952 -3.55205 0
M  V30 14119 C 1384.33 -0.82029 -4.32388 0
M  V30 14120 H 1381.45 -0.275067 -0.683745 0
M  V30 14121 H 1384.09 -1.29856 -1.38699 0
M  V30 14122 H 1382.24 -0.762246 -3.80949 0
M  V30 14123 H 1383.92 -3.30429 -3.21892 0
M  V30 14124 H 1382.16 -3.15534 -2.97693 0
M  V30 14125 H 1382.83 -3.04116 -4.60671 0
M  V30 14126 H 1385.31 -1.21965 -3.97824 0
M  V30 14127 H 1384.18 -1.17902 -5.36088 0
M  V30 14128 H 1384.44 0.276205 -4.41236 0
M  V30 14129 N 1383.5 1.34231 -0.825823 0
M  V30 14130 C 1384.91 1.8059 -0.473724 0
M  V30 14131 C 1385.26 1.68438 1.00614 0
M  V30 14132 O 1384.39 1.22606 1.78317 0
M  V30 14133 C 1384.98 3.27884 -0.853099 0
M  V30 14134 C 1383.54 3.72311 -0.553327 0
M  V30 14135 C 1382.69 2.55889 -1.06845 0
M  V30 14136 H 1385.64 1.21937 -1.01573 0
M  V30 14137 H 1385.66 3.80172 -0.158014 0
M  V30 14138 H 1385.17 3.36696 -1.93021 0
M  V30 14139 H 1383.27 3.69034 0.514256 0
M  V30 14140 H 1383.39 4.66315 -1.09942 0
M  V30 14141 H 1381.75 2.49945 -0.489874 0
M  V30 14142 H 1382.53 2.67471 -2.15207 0
M  V30 14143 N 1384.98 0.581051 1.46498 0
M  V30 14144 C 1386.4 0.242599 1.57745 0
M  V30 14145 C 1386.6 -1.25508 1.57639 0
M  V30 14146 O 1385.65 -2.0367 1.49247 0
M  V30 14147 C 1386.96 0.890342 2.87217 0
M  V30 14148 C 1388.51 0.863778 3.00845 0
M  V30 14149 C 1388.99 1.49103 4.3305 0
M  V30 14150 N 1390.48 1.4553 4.39745 0
M  V30 14151 C 1391.21 1.91003 5.40653 0
M  V30 14152 N 1390.71 2.44442 6.48244 0
M  V30 14153 N 1392.5 1.8193 5.31844 0
M  V30 14154 H 1384.65 1.55382 1.44811 0
M  V30 14155 H 1386.92 0.649375 0.690664 0
M  V30 14156 H 1386.62 1.94383 2.93101 0
M  V30 14157 H 1386.5 0.397569 3.75099 0
M  V30 14158 H 1388.88 -0.181089 2.94544 0
M  V30 14159 H 1388.96 1.39455 2.14443 0
M  V30 14160 H 1388.61 2.53509 4.40109 0
M  V30 14161 H 1388.54 0.935496 5.18224 0
M  V30 14162 H 1391.03 1.06466 3.62593 0
M  V30 14163 H 1391.34 2.77002 7.2145 0
M  V30 14164 H 1389.69 2.48467 6.49068 0
M  V30 14165 H 1392.88 1.3994 4.46693 0
M  V30 14166 H 1393.05 2.17685 6.10342 0
M  V30 14167 N 1386.46 -1.54343 0.318742 0
M  V30 14168 C 1387.7 -2.00777 -0.285699 0
M  V30 14169 C 1388.04 -1.20664 -1.52164 0
M  V30 14170 O 1387.31 -0.287674 -1.92361 0
M  V30 14171 C 1387.59 -3.54641 -0.624649 0
M  V30 14172 C 1387.45 -4.45483 0.621663 0
M  V30 14173 C 1388.77 -4.15729 -1.4442 0
M  V30 14174 H 1385.89 -0.729856 -0.102367 0
M  V30 14175 H 1388.53 -1.84968 0.434364 0
M  V30 14176 H 1386.68 -3.68243 -1.23811 0
M  V30 14177 H 1388.35 -4.43759 1.25998 0
M  V30 14178 H 1386.59 -4.15356 1.25148 0
M  V30 14179 H 1387.26 -5.50951 0.340106 0
M  V30 14180 H 1389.74 -4.05672 -0.925699 0
M  V30 14181 H 1388.62 -5.23509 -1.65013 0
M  V30 14182 H 1388.88 -3.68743 -2.43887 0
M  V30 14183 N 1387.94 -0.0468143 -1.5753 0
M  V30 14184 C 1389.21 0.667567 -1.83856 0
M  V30 14185 C 1389.59 1.89297 -0.934346 0
M  V30 14186 O 1388.94 2.28499 0.00570067 0
M  V30 14187 C 1389.15 1.029 -3.33485 0
M  V30 14188 C 1390.5 1.41315 -4.00394 0
M  V30 14189 O 1391.52 1.12147 -3.38085 0
M  V30 14190 O 1390.38 1.95732 -5.10246 0
M  V30 14191 H 1387.48 0.329112 -0.758692 0
M  V30 14192 H 1390.02 -0.0758456 -1.6953 0
M  V30 14193 H 1388.79 0.157617 -3.90982 0
M  V30 14194 H 1388.42 1.83 -3.52982 0
M  V30 14195 N 1389.41 1.55964 0.226527 0
M  V30 14196 C 1390.66 1.7901 0.95306 0
M  V30 14197 C 1390.99 0.615608 1.84184 0
M  V30 14198 O 1390.27 -0.385341 1.90645 0
M  V30 14199 C 1390.55 3.12101 1.79624 0
M  V30 14200 C 1390.4 4.3999 0.934286 0
M  V30 14201 C 1391.72 3.4159 2.77496 0
M  V30 14202 H 1388.84 0.651236 0.345052 0
M  V30 14203 H 1391.48 1.88696 0.222236 0
M  V30 14204 H 1389.63 3.03975 2.41933 0
M  V30 14205 H 1391.31 4.6013 0.328328 0
M  V30 14206 H 1389.55 4.33138 0.239487 0
M  V30 14207 H 1390.22 5.29541 1.55853 0
M  V30 14208 H 1392.7 3.49812 2.25323 0
M  V30 14209 H 1391.57 4.35894 3.33599 0
M  V30 14210 H 1391.83 2.6351 3.54986 0
M  V30 14211 N 1390.89 -0.493031 1.4969 0
M  V30 14212 C 1391.82 -1.60215 1.69863 0
M  V30 14213 C 1392.8 -1.61053 0.547362 0
M  V30 14214 O 1393.99 -1.77667 0.784093 0
M  V30 14215 C 1391.12 -2.98662 1.77252 0
M  V30 14216 C 1390.07 -3.1269 2.92248 0
M  V30 14217 C 1389.4 -4.52567 2.84758 0
M  V30 14218 C 1390.7 -2.91965 4.33074 0
M  V30 14219 H 1392.39 -1.43587 2.62723 0
M  V30 14220 H 1389.94 -0.689334 1.26429 0
M  V30 14221 H 1391.89 -3.7616 1.89951 0
M  V30 14222 H 1390.62 -3.16397 0.809976 0
M  V30 14223 H 1389.27 -2.37619 2.79164 0
M  V30 14224 H 1388.92 -4.6719 1.86394 0
M  V30 14225 H 1388.62 -4.62893 3.61944 0
M  V30 14226 H 1390.15 -5.32116 2.99475 0
M  V30 14227 H 1391.56 -3.59228 4.46798 0
M  V30 14228 H 1389.96 -3.13756 5.11544 0
M  V30 14229 H 1391.03 -1.88015 4.46966 0
M  V30 14230 N 1392.37 -1.38898 -0.744656 0
M  V30 14231 C 1393.6 -1.3903 -1.53901 0
M  V30 14232 C 1394.02 0.0156607 -1.88093 0
M  V30 14233 O 1393.38 1.00012 -1.51219 0
M  V30 14234 C 1393.43 -2.2609 -2.80919 0
M  V30 14235 O 1392.53 -1.68414 -3.76444 0
M  V30 14236 H 1391.87 -0.473854 -0.465144 0
M  V30 14237 H 1394.4 -1.82773 -0.919525 0
M  V30 14238 H 1394.41 -2.40264 -3.29754 0
M  V30 14239 H 1393.09 -3.28271 -2.55364 0
M  V30 14240 H 1391.66 -1.63431 -3.35179 0
M  V30 14241 N 1393.85 0.973806 -1.23914 0
M  V30 14242 C 1395.09 1.71852 -1.07678 0
M  V30 14243 C 1395.43 1.90357 0.384425 0
M  V30 14244 O 1394.7 1.46063 1.28436 0
M  V30 14245 C 1394.99 3.1129 -1.81026 0
M  V30 14246 C 1394.84 3.00315 -3.3486 0
M  V30 14247 C 1396.16 4.10835 -1.57805 0
M  V30 14248 H 1393.28 0.623749 -0.392564 0
M  V30 14249 H 1395.92 1.13325 -1.52504 0
M  V30 14250 H 1394.07 3.61255 -1.42922 0
M  V30 14251 H 1395.74 2.57823 -3.82524 0
M  V30 14252 H 1393.98 2.36667 -3.63553 0
M  V30 14253 H 1394.65 3.9907 -3.81376 0
M  V30 14254 H 1397.13 3.69705 -1.90939 0
M  V30 14255 H 1396.01 5.06478 -2.11591 0
M  V30 14256 H 1396.27 4.39091 -0.514894 0
M  V30 14257 N 1395.33 1.05191 1.17357 0
M  V30 14258 C 1396.26 0.673931 2.23563 0
M  V30 14259 C 1397.24 -0.328284 1.66902 0
M  V30 14260 O 1398.42 -0.205878 1.93106 0
M  V30 14261 C 1395.55 0.0478801 3.47267 0
M  V30 14262 C 1394.51 0.974855 4.1675 0
M  V30 14263 C 1393.83 0.212684 5.34277 0
M  V30 14264 C 1395.13 2.299 4.68981 0
M  V30 14265 H 1396.83 1.56183 2.55436 0
M  V30 14266 H 1394.37 0.752408 1.2278 0
M  V30 14267 H 1396.33 -0.228343 4.20781 0
M  V30 14268 H 1395.05 -0.874963 3.14662 0
M  V30 14269 H 1393.71 1.23564 3.45148 0
M  V30 14270 H 1393.36 -0.712924 4.97922 0
M  V30 14271 H 1393.06 0.830351 5.81703 0
M  V30 14272 H 1394.58 -0.056255 6.10574 0
M  V30 14273 H 1395.99 2.08269 5.34132 0
M  V30 14274 H 1394.39 2.87064 5.26986 0
M  V30 14275 H 1395.46 2.93759 3.8579 0
M  V30 14276 N 1396.8 -1.33791 0.83293 0
M  V30 14277 C 1398.05 -1.97973 0.425781 0
M  V30 14278 C 1398.38 -1.66003 -1.01357 0
M  V30 14279 O 1397.63 -0.929016 -1.72243 0
M  V30 14280 C 1397.93 -3.52555 0.586485 0
M  V30 14281 C 1397.6 -4.04461 1.99304 0
M  V30 14282 C 1396.26 -4.18347 2.37779 0
M  V30 14283 C 1398.61 -4.3226 2.91206 0
M  V30 14284 C 1395.94 -4.57364 3.67471 0
M  V30 14285 C 1398.29 -4.72727 4.20371 0
M  V30 14286 C 1396.96 -4.84819 4.5881 0
M  V30 14287 H 1396.23 -0.724435 0.155804 0
M  V30 14288 H 1398.87 -1.59567 1.05881 0
M  V30 14289 H 1397.18 -3.91585 -0.129885 0
M  V30 14290 H 1398.88 -4.00208 0.251835 0
M  V30 14291 H 1395.47 -3.94122 1.68421 0
M  V30 14292 H 1399.65 -4.2106 2.6272 0
M  V30 14293 H 1394.91 -4.64918 3.97065 0
M  V30 14294 H 1399.08 -4.93194 4.91663 0
M  V30 14295 H 1396.71 -5.14809 5.59353 0
M  V30 14296 N 1398.28 -0.588812 -1.46187 0
M  V30 14297 C 1399.25 0.130803 -2.28826 0
M  V30 14298 C 1400.25 0.813037 -1.38731 0
M  V30 14299 O 1401.44 0.664061 -1.61046 0
M  V30 14300 C 1398.57 1.19484 -3.19275 0
M  V30 14301 H 1399.76 -0.595514 -2.93928 0
M  V30 14302 H 1397.31 -0.347038 -1.52399 0
M  V30 14303 H 1398.05 1.95254 -2.58933 0
M  V30 14304 H 1397.83 0.710077 -3.85617 0
M  V30 14305 H 1399.32 1.69938 -3.81459 0
M  V30 14306 N 1399.76 1.54172 -0.326923 0
M  V30 14307 C 1400.67 2.28149 0.546351 0
M  V30 14308 C 1401.69 1.32628 1.12631 0
M  V30 14309 O 1402.86 1.65647 1.14556 0
M  V30 14310 C 1399.93 3.02742 1.68962 0
M  V30 14311 C 1398.99 4.13856 1.14112 0
M  V30 14312 C 1398.22 4.84882 2.2299 0
M  V30 14313 O 1398.44 4.55448 3.43399 0
M  V30 14314 O 1397.38 5.71714 1.8822 0
M  V30 14315 H 1401.2 3.03651 -0.0545288 0
M  V30 14316 H 1398.79 1.49113 -0.0925027 0
M  V30 14317 H 1400.67 3.49443 2.35515 0
M  V30 14318 H 1399.35 2.30113 2.27662 0
M  V30 14319 H 1398.25 3.71497 0.440579 0
M  V30 14320 H 1399.59 4.88539 0.599211 0
M  V30 14321 N 1401.24 0.0551678 1.57503 0
M  V30 14322 C 1402.15 -0.932959 2.15251 0
M  V30 14323 C 1403.16 -1.33885 1.11134 0
M  V30 14324 O 1404.34 -1.41495 1.43321 0
M  V30 14325 C 1401.41 -2.18807 2.68932 0
M  V30 14326 C 1400.47 -1.84016 3.87862 0
M  V30 14327 C 1399.7 -3.03543 4.38973 0
M  V30 14328 O 1399.92 -4.17041 3.89144 0
M  V30 14329 O 1398.86 -2.84325 5.30512 0
M  V30 14330 H 1402.68 -0.471816 3.00013 0
M  V30 14331 H 1400.27 -0.16696 1.48464 0
M  V30 14332 H 1402.15 -2.92439 3.0341 0
M  V30 14333 H 1400.82 -2.64051 1.87239 0
M  V30 14334 H 1399.73 -1.07687 3.58266 0
M  V30 14335 H 1401.06 -1.43567 4.70796 0
M  V30 14336 N 1402.72 -1.56081 -0.218252 0
M  V30 14337 C 1404.13 -1.69397 -0.784964 0
M  V30 14338 C 1404.48 -0.65775 -1.84846 0
M  V30 14339 O 1403.6 0.190478 -2.1556 0
M  V30 14340 C 1404.2 -3.07114 -1.4306 0
M  V30 14341 C 1402.76 -3.22273 -1.94466 0
M  V30 14342 C 1401.9 -2.65327 -0.80604 0
M  V30 14343 H 1404.86 -1.58699 0.0064566 0
M  V30 14344 H 1404.88 -3.03156 -2.2995 0
M  V30 14345 H 1404.39 -3.8251 -0.656335 0
M  V30 14346 H 1402.49 -2.51752 -2.74684 0
M  V30 14347 H 1402.6 -4.29526 -2.12237 0
M  V30 14348 H 1400.97 -2.23894 -1.21423 0
M  V30 14349 H 1401.75 -3.43271 -0.0443928 0
M  V30 14350 N 1404.2 0.485086 -1.49949 0
M  V30 14351 C 1405.44 1.23571 -1.5992 0
M  V30 14352 C 1405.76 1.92754 -0.295108 0
M  V30 14353 O 1405.03 1.83474 0.686582 0
M  V30 14354 H 1403.61 0.459104 -0.589264 0
M  V30 14355 H 1406.28 0.560822 -1.86657 0
M  V30 14356 H 1405.37 1.99114 -2.40333 0
M  V30 14357 N 1405.67 1.39291 0.737279 0
M  V30 14358 C 1406.6 1.40562 1.86452 0
M  V30 14359 C 1407.58 0.269283 1.67955 0
M  V30 14360 O 1408.77 0.474769 1.88307 0
M  V30 14361 C 1405.9 1.2461 3.24175 0
M  V30 14362 C 1404.85 2.35619 3.57306 0
M  V30 14363 C 1404.18 2.04758 4.93941 0
M  V30 14364 C 1405.48 3.77927 3.60512 0
M  V30 14365 H 1407.17 2.34896 1.85646 0
M  V30 14366 H 1404.72 1.13065 0.891756 0
M  V30 14367 H 1406.67 1.2412 4.02706 0
M  V30 14368 H 1405.4 0.267438 3.25503 0
M  V30 14369 H 1404.06 2.35322 2.81104 0
M  V30 14370 H 1403.7 1.05336 4.91847 0
M  V30 14371 H 1403.4 2.79117 5.17076 0
M  V30 14372 H 1404.93 2.05915 5.74832 0
M  V30 14373 H 1406.34 3.80166 4.29123 0
M  V30 14374 H 1404.74 4.51626 3.95164 0
M  V30 14375 H 1405.81 4.09068 2.60368 0
M  V30 14376 N 1407.15 -0.967221 1.24429 0
M  V30 14377 C 1408.4 -1.71279 1.08588 0
M  V30 14378 C 1408.73 -1.90558 -0.374325 0
M  V30 14379 O 1408.01 -1.46742 -1.27659 0
M  V30 14380 C 1408.29 -3.10326 1.82674 0
M  V30 14381 C 1408.14 -2.98535 3.36447 0
M  V30 14382 C 1409.46 -4.09993 1.59981 0
M  V30 14383 H 1406.58 -0.621658 0.395867 0
M  V30 14384 H 1409.22 -1.12514 1.53103 0
M  V30 14385 H 1407.37 -3.60492 1.44836 0
M  V30 14386 H 1409.04 -2.55791 3.83886 0
M  V30 14387 H 1407.29 -2.34736 3.64803 0
M  V30 14388 H 1407.96 -3.97041 3.83487 0
M  V30 14389 H 1410.43 -3.68687 1.92897 0
M  V30 14390 H 1409.31 -5.05349 2.14274 0
M  V30 14391 H 1409.57 -4.38812 0.538173 0
M  V30 14392 N 1408.63 -1.05812 -1.16797 0
M  V30 14393 C 1409.56 -0.685778 -2.23202 0
M  V30 14394 C 1410.54 0.319428 -1.67074 0
M  V30 14395 O 1411.73 0.195635 -1.93212 0
M  V30 14396 C 1408.86 -0.0662958 -3.47237 0
M  V30 14397 C 1407.81 -0.996943 -4.16227 0
M  V30 14398 C 1407.14 -0.241015 -5.34157 0
M  V30 14399 C 1408.44 -2.32384 -4.67755 0
M  V30 14400 H 1410.13 -1.57535 -2.54604 0
M  V30 14401 H 1407.68 -0.758909 -1.22379 0
M  V30 14402 H 1409.63 0.206024 -4.20896 0
M  V30 14403 H 1408.35 0.858263 -3.15121 0
M  V30 14404 H 1407.01 -1.25393 -3.44488 0
M  V30 14405 H 1406.66 0.686508 -4.98293 0
M  V30 14406 H 1406.36 -0.861188 -5.81255 0
M  V30 14407 H 1407.88 0.0238739 -6.10595 0
M  V30 14408 H 1409.3 -2.11099 -5.3302 0
M  V30 14409 H 1407.69 -2.89855 -5.25456 0
M  V30 14410 H 1408.76 -2.958 -3.84227 0
M  V30 14411 N 1410.11 1.33347 -0.840014 0
M  V30 14412 C 1411.02 2.32965 -0.276527 0
M  V30 14413 C 1412.03 1.634 0.598037 0
M  V30 14414 O 1413.21 1.95046 0.501888 0
M  V30 14415 C 1410.27 3.42498 0.53816 0
M  V30 14416 C 1409.34 4.27781 -0.360814 0
M  V30 14417 C 1408.57 5.32083 0.415085 0
M  V30 14418 O 1408.79 5.46115 1.64666 0
M  V30 14419 O 1407.73 6.01528 -0.211503 0
M  V30 14420 H 1411.55 2.83022 -1.10147 0
M  V30 14421 H 1409.14 1.3671 -0.602566 0
M  V30 14422 H 1411.02 4.09336 1.00108 0
M  V30 14423 H 1409.69 2.94655 1.34015 0
M  V30 14424 H 1408.6 3.63805 -0.871598 0
M  V30 14425 H 1409.93 4.7911 -1.1276 0
M  V30 14426 N 1411.59 0.596556 1.45873 0
M  V30 14427 C 1412.83 0.0875879 2.02611 0
M  V30 14428 C 1413.16 -1.27438 1.46538 0
M  V30 14429 O 1412.44 -1.83815 0.635779 0
M  V30 14430 C 1412.72 0.0367394 3.60081 0
M  V30 14431 C 1412.58 1.42859 4.26511 0
M  V30 14432 C 1413.89 -0.656795 4.35171 0
M  V30 14433 H 1411.01 0.0333031 0.736247 0
M  V30 14434 H 1413.66 0.766413 1.73857 0
M  V30 14435 H 1411.81 -0.541345 3.8471 0
M  V30 14436 H 1413.48 2.0529 4.13102 0
M  V30 14437 H 1411.72 1.99243 3.85337 0
M  V30 14438 H 1412.39 1.34535 5.35354 0
M  V30 14439 H 1414.87 -0.165553 4.15771 0
M  V30 14440 H 1413.74 -0.661445 5.449 0
M  V30 14441 H 1414 -1.72079 4.07236 0
M  V30 14442 N 1413.06 -1.53996 0.335095 0
M  V30 14443 C 1414 -2.22258 -0.559809 0
M  V30 14444 C 1415.01 -1.22636 -1.07071 0
M  V30 14445 O 1416.2 -1.4904 -0.982312 0
M  V30 14446 C 1413.3 -2.88256 -1.78218 0
M  V30 14447 C 1412.47 -4.14118 -1.40801 0
M  V30 14448 C 1411.53 -4.63603 -2.48915 0
M  V30 14449 O 1410.56 -5.28015 -2.12576 0
M  V30 14450 N 1411.76 -4.3881 -3.80034 0
M  V30 14451 H 1414.52 -2.9969 0.0247521 0
M  V30 14452 H 1412.08 -1.61119 0.158826 0
M  V30 14453 H 1414.08 -3.1828 -2.4996 0
M  V30 14454 H 1412.65 -2.14461 -2.27431 0
M  V30 14455 H 1411.87 -3.90732 -0.521729 0
M  V30 14456 H 1413.15 -4.96005 -1.13388 0
M  V30 14457 H 1412.55 -3.87278 -4.12349 0
M  V30 14458 H 1411.11 -4.73461 -4.47971 0
M  V30 14459 N 1414.54 -0.0635198 -1.57472 0
M  V30 14460 C 1415.45 0.921531 -2.15743 0
M  V30 14461 C 1416.47 1.33294 -1.11842 0
M  V30 14462 O 1417.64 1.40733 -1.4407 0
M  V30 14463 C 1414.71 2.17378 -2.70088 0
M  V30 14464 C 1413.77 1.81956 -3.88832 0
M  V30 14465 C 1413 3.01211 -4.40577 0
M  V30 14466 O 1413.23 4.14971 -3.9135 0
M  V30 14467 O 1412.16 2.81507 -5.32012 0
M  V30 14468 H 1415.99 0.455899 -3.00259 0
M  V30 14469 H 1413.57 0.159085 -1.48551 0
M  V30 14470 H 1415.45 2.90826 -3.04956 0
M  V30 14471 H 1414.13 2.63055 -1.88637 0
M  V30 14472 H 1413.03 1.05786 -3.58832 0
M  V30 14473 H 1414.37 1.41069 -4.71551 0
M  V30 14474 N 1416.02 1.56195 0.209972 0
M  V30 14475 C 1417.43 1.69811 0.775969 0
M  V30 14476 C 1417.78 0.667543 1.84495 0
M  V30 14477 O 1416.91 -0.179043 2.15658 0
M  V30 14478 C 1417.5 3.07869 1.41429 0
M  V30 14479 C 1416.06 3.233 1.92755 0
M  V30 14480 C 1415.21 2.6575 0.791958 0
M  V30 14481 H 1418.16 1.58693 -0.0148727 0
M  V30 14482 H 1418.18 3.04371 2.28339 0
M  V30 14483 H 1417.69 3.82853 0.63604 0
M  V30 14484 H 1415.79 2.53206 2.73345 0
M  V30 14485 H 1415.91 4.30645 2.09956 0
M  V30 14486 H 1414.27 2.24535 1.20234 0
M  V30 14487 H 1415.05 3.4329 0.0261877 0
M  V30 14488 N 1417.5 -0.477127 1.50204 0
M  V30 14489 C 1418.77 -1.23837 1.51406 0
M  V30 14490 C 1419.15 -2.09551 0.255278 0
M  V30 14491 O 1418.5 -2.15437 -0.761535 0
M  V30 14492 C 1418.71 -2.0746 2.80644 0
M  V30 14493 C 1420.06 -2.65852 3.31071 0
M  V30 14494 O 1421.08 -2.17708 2.81925 0
M  V30 14495 O 1419.94 -3.53556 4.16726 0
M  V30 14496 H 1417.04 -0.561638 0.607036 0
M  V30 14497 H 1419.58 -0.489442 1.62489 0
M  V30 14498 H 1418.36 -1.44258 3.63738 0
M  V30 14499 H 1417.98 -2.895 2.72536 0
M  V30 14500 N 1418.98 -1.3968 -0.729882 0
M  V30 14501 C 1419.91 -1.41549 -1.85704 0
M  V30 14502 C 1420.89 -0.278186 -1.6781 0
M  V30 14503 O 1422.07 -0.484749 -1.88053 0
M  V30 14504 C 1419.2 -1.26327 -3.2351 0
M  V30 14505 C 1418.16 -2.37511 -3.56051 0
M  V30 14506 C 1417.48 -2.07375 -4.92849 0
M  V30 14507 C 1418.78 -3.79833 -3.58502 0
M  V30 14508 H 1420.48 -2.35877 -1.84398 0
M  V30 14509 H 1418.02 -1.13536 -0.885747 0
M  V30 14510 H 1419.98 -1.26254 -4.02042 0
M  V30 14511 H 1418.7 -0.284697 -3.25357 0
M  V30 14512 H 1417.36 -2.36809 -2.79852 0
M  V30 14513 H 1417.01 -1.07943 -4.91281 0
M  V30 14514 H 1416.71 -2.81855 -5.15588 0
M  V30 14515 H 1418.23 -2.08961 -5.73731 0
M  V30 14516 H 1419.64 -3.82436 -4.27101 0
M  V30 14517 H 1418.04 -4.53715 -3.92763 0
M  V30 14518 H 1419.11 -4.10443 -2.58195 0
M  V30 14519 N 1420.45 0.960609 -1.2494 0
M  V30 14520 C 1421.42 2.03791 -1.04891 0
M  V30 14521 C 1422.42 1.608 -0.00375792 0
M  V30 14522 O 1423.61 1.72463 -0.24539 0
M  V30 14523 C 1420.74 3.35733 -0.591309 0
M  V30 14524 H 1421.93 2.2301 -2.00516 0
M  V30 14525 H 1419.49 1.13686 -1.07263 0
M  V30 14526 H 1420.22 3.22207 0.367816 0
M  V30 14527 H 1420.01 3.68283 -1.34574 0
M  V30 14528 H 1421.5 4.14921 -0.472283 0
M  V30 14529 N 1421.93 1.0643 1.16234 0
M  V30 14530 C 1422.86 0.634274 2.20249 0
M  V30 14531 C 1423.88 -0.308432 1.59852 0
M  V30 14532 O 1425.07 -0.0992067 1.78224 0
M  V30 14533 C 1422.17 -0.0901593 3.3878 0
M  V30 14534 C 1421.34 0.866379 4.28734 0
M  V30 14535 C 1420.4 0.180942 5.25889 0
M  V30 14536 O 1419.42 0.819034 5.63277 0
M  V30 14537 N 1420.63 -1.07698 5.70422 0
M  V30 14538 H 1423.39 1.52901 2.57762 0
M  V30 14539 H 1420.95 0.947789 1.31258 0
M  V30 14540 H 1422.94 -0.559147 4.00819 0
M  V30 14541 H 1421.51 -0.886715 2.9976 0
M  V30 14542 H 1420.73 1.51471 3.63937 0
M  V30 14543 H 1422.02 1.51524 4.85714 0
M  V30 14544 H 1421.42 -1.6155 5.42142 0
M  V30 14545 H 1419.98 -1.48981 6.34545 0
M  V30 14546 N 1423.41 -1.329 0.847073 0
M  V30 14547 C 1424.66 -1.97803 0.447417 0
M  V30 14548 C 1424.99 -1.6691 -0.9927 0
M  V30 14549 O 1424.26 -0.953315 -1.69535 0
M  V30 14550 C 1424.55 -3.53657 0.678135 0
M  V30 14551 C 1424.4 -3.94207 2.16612 0
M  V30 14552 C 1425.72 -4.39909 0.129589 0
M  V30 14553 H 1422.84 -0.718514 0.164034 0
M  V30 14554 H 1425.48 -1.57407 1.0641 0
M  V30 14555 H 1423.63 -3.88198 0.153222 0
M  V30 14556 H 1425.3 -3.69883 2.75653 0
M  V30 14557 H 1423.55 -3.43641 2.64752 0
M  V30 14558 H 1424.22 -5.02791 2.27827 0
M  V30 14559 H 1426.69 -4.12061 0.578371 0
M  V30 14560 H 1425.57 -5.47963 0.320648 0
M  V30 14561 H 1425.83 -4.31391 -0.967167 0
M  V30 14562 N 1424.89 -0.604284 -1.45555 0
M  V30 14563 C 1425.82 0.103859 -2.33269 0
M  V30 14564 C 1426.8 0.862104 -1.46635 0
M  V30 14565 O 1427.98 0.833308 -1.75413 0
M  V30 14566 C 1425.11 1.104 -3.29286 0
M  V30 14567 C 1424.07 0.459189 -4.2553 0
M  V30 14568 C 1423.39 1.56734 -5.11213 0
M  V30 14569 C 1424.69 -0.617509 -5.18637 0
M  V30 14570 H 1426.39 -0.628538 -2.92728 0
M  V30 14571 H 1423.93 -0.303711 -1.40761 0
M  V30 14572 H 1425.89 1.60794 -3.89517 0
M  V30 14573 H 1424.61 1.86695 -2.67979 0
M  V30 14574 H 1423.27 -0.0238508 -3.66592 0
M  V30 14575 H 1422.92 2.32049 -4.46276 0
M  V30 14576 H 1422.62 1.14142 -5.76407 0
M  V30 14577 H 1424.14 2.07361 -5.74312 0
M  V30 14578 H 1425.56 -0.197784 -5.72959 0
M  V30 14579 H 1423.95 -0.96499 -5.9229 0
M  V30 14580 H 1425.02 -1.49541 -4.61265 0
M  V30 14581 N 1426.37 1.53816 -0.343257 0
M  V30 14582 C 1427.31 2.25011 0.513664 0
M  V30 14583 C 1428.28 1.24827 1.09578 0
M  V30 14584 O 1429.47 1.53558 1.13245 0
M  V30 14585 C 1426.61 3.02616 1.65885 0
M  V30 14586 C 1425.72 4.17653 1.10406 0
M  V30 14587 C 1424.86 4.82746 2.21653 0
M  V30 14588 C 1423.9 5.89853 1.63524 0
M  V30 14589 N 1423.03 6.48726 2.68512 0
M  V30 14590 H 1427.87 2.97832 -0.099997 0
M  V30 14591 H 1425.41 1.46973 -0.0611206 0
M  V30 14592 H 1427.37 3.45868 2.33304 0
M  V30 14593 H 1426 2.32092 2.2435 0
M  V30 14594 H 1425.05 3.79045 0.320819 0
M  V30 14595 H 1426.36 4.94691 0.638887 0
M  V30 14596 H 1425.52 5.29068 2.96938 0
M  V30 14597 H 1424.25 4.05131 2.71515 0
M  V30 14598 H 1423.26 5.42914 0.86745 0
M  V30 14599 H 1424.48 6.69375 1.14515 0
M  V30 14600 H 1422.43 5.73975 3.17629 0
M  V30 14601 H 1422.35 7.21236 2.26616 0
M  V30 14602 H 1423.62 6.99701 3.43567 0
M  V30 14603 N 1427.84 0.0718701 1.57436 0
M  V30 14604 C 1429.26 -0.28476 1.57039 0
M  V30 14605 C 1429.46 -1.70032 1.08127 0
M  V30 14606 O 1428.52 -2.41191 0.747189 0
M  V30 14607 C 1429.83 -0.0943482 3.00552 0
M  V30 14608 C 1431.38 -0.163879 3.12571 0
M  V30 14609 C 1431.85 -0.00174658 4.58 0
M  V30 14610 N 1433.34 -0.0573489 4.63164 0
M  V30 14611 C 1434.08 0.0436849 5.73383 0
M  V30 14612 N 1433.57 0.198243 6.92516 0
M  V30 14613 N 1435.37 -0.0133856 5.62098 0
M  V30 14614 H 1427.52 0.99702 1.87545 0
M  V30 14615 H 1429.78 0.388822 0.864593 0
M  V30 14616 H 1429.49 0.882445 3.40449 0
M  V30 14617 H 1429.36 -0.846636 3.67576 0
M  V30 14618 H 1431.75 -1.13116 2.7256 0
M  V30 14619 H 1431.83 0.619513 2.48185 0
M  V30 14620 H 1431.47 0.9623 4.98701 0
M  V30 14621 H 1431.4 -0.804543 5.20418 0
M  V30 14622 H 1433.89 -0.175212 3.77494 0
M  V30 14623 H 1434.21 0.267479 7.72337 0
M  V30 14624 H 1432.55 0.233606 6.94607 0
M  V30 14625 H 1435.74 -0.132835 4.67911 0
M  V30 14626 H 1435.92 0.0688076 6.47963 0
M  V30 14627 N 1429.32 -1.56304 -0.201686 0
M  V30 14628 C 1430.55 -1.84074 -0.938103 0
M  V30 14629 C 1430.96 -0.651377 -1.77634 0
M  V30 14630 O 1430.3 0.389278 -1.79528 0
M  V30 14631 C 1430.37 -3.05856 -1.88924 0
M  V30 14632 C 1430.03 -4.40036 -1.2336 0
M  V30 14633 C 1431.03 -5.16265 -0.613737 0
M  V30 14634 C 1428.71 -4.86768 -1.23942 0
M  V30 14635 C 1430.71 -6.37399 -0.00844569 0
M  V30 14636 C 1428.39 -6.07841 -0.630296 0
M  V30 14637 C 1429.39 -6.82998 -0.0158799 0
M  V30 14638 O 1429.08 -8.01778 0.58372 0
M  V30 14639 H 1428.81 -0.615492 -0.279545 0
M  V30 14640 H 1431.36 -2.04262 -0.215938 0
M  V30 14641 H 1429.59 -2.81536 -2.65093 0
M  V30 14642 H 1431.28 -3.20328 -2.49289 0
M  V30 14643 H 1432.05 -4.81257 -0.601424 0
M  V30 14644 H 1427.93 -4.2823 -1.70705 0
M  V30 14645 H 1431.47 -6.96003 0.47174 0
M  V30 14646 H 1427.37 -6.42319 -0.640089 0
M  V30 14647 H 1428.14 -8.17091 0.479979 0
M  V30 14648 N 1430.8 0.469154 -1.50455 0
M  V30 14649 C 1432.22 0.803067 -1.37924 0
M  V30 14650 C 1432.42 1.96708 -0.436837 0
M  V30 14651 O 1431.47 2.52216 0.119823 0
M  V30 14652 C 1432.79 1.11332 -2.79331 0
M  V30 14653 C 1434.33 1.21965 -2.88259 0
M  V30 14654 C 1434.81 1.56302 -4.30504 0
M  V30 14655 N 1436.3 1.6329 -4.33464 0
M  V30 14656 C 1437.03 1.91367 -5.40524 0
M  V30 14657 N 1436.53 2.17451 -6.57789 0
M  V30 14658 N 1438.32 1.92885 -5.2797 0
M  V30 14659 H 1430.47 -0.297928 -2.103 0
M  V30 14660 H 1432.74 -0.0707794 -0.945354 0
M  V30 14661 H 1432.44 0.331052 -3.50138 0
M  V30 14662 H 1432.32 2.04903 -3.16693 0
M  V30 14663 H 1434.7 1.99259 -2.17669 0
M  V30 14664 H 1434.79 0.263692 -2.54437 0
M  V30 14665 H 1434.43 0.795479 -5.01632 0
M  V30 14666 H 1434.36 2.53052 -4.61814 0
M  V30 14667 H 1436.85 1.45164 -3.48907 0
M  V30 14668 H 1437.16 2.38154 -7.35189 0
M  V30 14669 H 1435.51 2.14839 -6.60961 0
M  V30 14670 H 1438.7 1.72005 -4.35353 0
M  V30 14671 H 1438.87 2.1443 -6.11493 0
M  V30 14672 N 1432.28 1.40065 0.722464 0
M  V30 14673 C 1433.56 1.28473 1.47493 0
M  V30 14674 C 1433.94 -0.100058 2.10863 0
M  V30 14675 O 1433.28 -1.11232 1.99599 0
M  V30 14676 C 1433.49 2.41842 2.51621 0
M  V30 14677 C 1434.84 2.81753 3.17648 0
M  V30 14678 O 1435.87 2.41385 2.61939 0
M  V30 14679 O 1434.72 3.51473 4.18484 0
M  V30 14680 H 1431.82 0.504158 0.655556 0
M  V30 14681 H 1434.36 1.51969 0.755223 0
M  V30 14682 H 1433.14 3.34365 2.03263 0
M  V30 14683 H 1432.76 2.20079 3.31136 0
M  V30 14684 N 1433.76 -0.95397 1.25448 0
M  V30 14685 C 1434.72 -2.03231 1.0597 0
M  V30 14686 C 1435.72 -1.60795 0.0122855 0
M  V30 14687 O 1436.91 -1.7233 0.254533 0
M  V30 14688 C 1434.04 -3.35414 0.609105 0
M  V30 14689 H 1435.24 -2.21943 2.01696 0
M  V30 14690 H 1432.79 -1.13115 1.07864 0
M  V30 14691 H 1433.52 -3.22398 -0.350723 0
M  V30 14692 H 1433.31 -3.67564 1.36526 0
M  V30 14693 H 1434.8 -4.14664 0.49428 0
M  V30 14694 N 1435.24 -1.07045 -1.15668 0
M  V30 14695 C 1436.48 -0.790172 -1.86013 0
M  V30 14696 C 1436.8 0.685663 -1.82548 0
M  V30 14697 O 1436.07 1.49644 -1.26426 0
M  V30 14698 H 1434.65 -0.28931 -0.688701 0
M  V30 14699 H 1437.32 -1.35354 -1.40233 0
M  V30 14700 H 1436.41 -1.1219 -2.91239 0
M  V30 14701 N 1436.71 1.32449 -0.85411 0
M  V30 14702 C 1437.64 2.31383 -0.313697 0
M  V30 14703 C 1438.62 1.59656 0.586858 0
M  V30 14704 O 1439.81 1.87459 0.507216 0
M  V30 14705 C 1436.94 3.43693 0.499235 0
M  V30 14706 C 1435.89 4.26899 -0.306839 0
M  V30 14707 C 1435.22 5.30966 0.630795 0
M  V30 14708 C 1436.52 4.99318 -1.53229 0
M  V30 14709 H 1438.21 2.76832 -1.14037 0
M  V30 14710 H 1435.76 1.33091 -0.549805 0
M  V30 14711 H 1437.71 4.11944 0.887709 0
M  V30 14712 H 1436.44 2.96971 1.35926 0
M  V30 14713 H 1435.1 3.60294 -0.677061 0
M  V30 14714 H 1434.74 4.80498 1.48765 0
M  V30 14715 H 1434.44 5.87522 0.0954635 0
M  V30 14716 H 1435.97 6.0208 1.01646 0
M  V30 14717 H 1437.38 5.60253 -1.21614 0
M  V30 14718 H 1435.78 5.65596 -2.00552 0
M  V30 14719 H 1436.85 4.27213 -2.29383 0
M  V30 14720 N 1438.19 0.611994 1.45232 0
M  V30 14721 C 1439.14 -0.125771 2.27653 0
M  V30 14722 C 1440.13 -0.834397 1.37574 0
M  V30 14723 O 1441.32 -0.72366 1.61531 0
M  V30 14724 C 1438.45 -1.11955 3.24532 0
M  V30 14725 C 1437.53 -0.411537 4.22099 0
M  V30 14726 N 1437.92 0.549272 5.02809 0
M  V30 14727 C 1436.22 -0.658514 4.41112 0
M  V30 14728 C 1436.92 0.965836 5.73626 0
M  V30 14729 N 1435.9 0.308649 5.42723 0
M  V30 14730 H 1439.7 0.612115 2.87455 0
M  V30 14731 H 1437.21 0.436003 1.56438 0
M  V30 14732 H 1439.21 -1.66253 3.82316 0
M  V30 14733 H 1437.87 -1.85795 2.6629 0
M  V30 14734 H 1438.88 0.926222 5.0955 0
M  V30 14735 H 1435.56 -1.38125 3.9399 0
M  V30 14736 H 1436.95 1.75853 6.48479 0
M  V30 14737 N 1439.67 -1.53632 0.351409 0
M  V30 14738 C 1440.91 -2.02951 -0.242935 0
M  V30 14739 C 1441.27 -1.23346 -1.47138 0
M  V30 14740 O 1442.47 -1.62602 -2.14042 0
M  V30 14741 C 1440.75 -3.53272 -0.541633 0
M  V30 14742 S 1442.3 -4.24485 -1.11167 0
M  V30 14743 H 1439.12 -0.707367 -0.071784 0
M  V30 14744 H 1441.72 -1.89234 0.490993 0
M  V30 14745 H 1440.43 -4.08817 0.360137 0
M  V30 14746 H 1439.96 -3.71124 -1.30502 0
M  V30 14747 H 1441.97 -4.34469 -2.39689 0
M  V30 14748 N 1441.15 -0.0802183 -1.57396 0
M  V30 14749 C 1442.08 0.881426 -2.16225 0
M  V30 14750 C 1443.06 1.30459 -1.09154 0
M  V30 14751 O 1444.24 1.37413 -1.37227 0
M  V30 14752 C 1441.37 2.14599 -2.73065 0
M  V30 14753 C 1440.33 1.86195 -3.85377 0
M  V30 14754 C 1439.65 3.19354 -4.28856 0
M  V30 14755 C 1440.95 1.16059 -5.09242 0
M  V30 14756 H 1442.65 0.391325 -2.96832 0
M  V30 14757 H 1440.19 0.186785 -1.42783 0
M  V30 14758 H 1442.15 2.82297 -3.12868 0
M  V30 14759 H 1440.87 2.65866 -1.89691 0
M  V30 14760 H 1439.53 1.209 -3.46091 0
M  V30 14761 H 1439.18 3.68479 -3.42392 0
M  V30 14762 H 1438.88 3.01137 -5.04569 0
M  V30 14763 H 1440.4 3.88235 -4.71281 0
M  V30 14764 H 1441.82 1.7384 -5.46308 0
M  V30 14765 H 1440.21 1.08072 -5.90288 0
M  V30 14766 H 1441.28 0.14098 -4.84695 0
M  V30 14767 N 1442.63 1.56409 0.193394 0
M  V30 14768 C 1443.54 1.97886 1.26009 0
M  V30 14769 C 1444.55 0.886786 1.49707 0
M  V30 14770 O 1445.73 1.19267 1.62288 0
M  V30 14771 C 1442.79 2.31145 2.58404 0
M  V30 14772 C 1441.85 3.54069 2.42763 0
M  V30 14773 C 1441.09 3.85732 3.68845 0
M  V30 14774 O 1441.31 3.18662 4.73086 0
M  V30 14775 O 1440.24 4.79155 3.64272 0
M  V30 14776 H 1444.07 2.88849 0.938087 0
M  V30 14777 H 1441.65 1.43987 0.398528 0
M  V30 14778 H 1443.54 2.53606 3.36544 0
M  V30 14779 H 1442.21 1.4335 2.90228 0
M  V30 14780 H 1441.12 3.36854 1.62728 0
M  V30 14781 H 1442.45 4.42335 2.15871 0
M  V30 14782 N 1444.1 -0.461169 1.50702 0
M  V30 14783 C 1445.03 -1.56576 1.73223 0
M  V30 14784 C 1446.01 -1.59855 0.581401 0
M  V30 14785 O 1447.2 -1.75964 0.821602 0
M  V30 14786 C 1444.33 -2.94835 1.83548 0
M  V30 14787 C 1443.28 -3.06421 2.98815 0
M  V30 14788 C 1442.61 -4.46425 2.94293 0
M  V30 14789 C 1443.91 -2.82714 4.3917 0
M  V30 14790 H 1445.6 -1.37982 2.65709 0
M  V30 14791 H 1443.15 -0.662362 1.27862 0
M  V30 14792 H 1445.1 -3.72047 1.97887 0
M  V30 14793 H 1443.83 -3.14608 0.876906 0
M  V30 14794 H 1442.49 -2.31644 2.84142 0
M  V30 14795 H 1442.13 -4.63131 1.96262 0
M  V30 14796 H 1441.83 -4.55111 3.71682 0
M  V30 14797 H 1443.36 -5.25644 3.10695 0
M  V30 14798 H 1444.77 -3.4967 4.54317 0
M  V30 14799 H 1443.17 -3.02835 5.18084 0
M  V30 14800 H 1444.24 -1.78492 4.50853 0
M  V30 14801 N 1445.58 -1.40446 -0.715026 0
M  V30 14802 C 1446.83 -1.3848 -1.47199 0
M  V30 14803 C 1447.15 0.0119198 -1.94996 0
M  V30 14804 O 1446.42 0.966772 -1.70383 0
M  V30 14805 H 1445 -0.509669 -0.54612 0
M  V30 14806 H 1447.66 -1.75505 -0.847588 0
M  V30 14807 H 1446.76 -2.06002 -2.34456 0
M  V30 14808 N 1447.06 0.947303 -1.25952 0
M  V30 14809 C 1448.01 2.03076 -1.03653 0
M  V30 14810 C 1448.99 1.60874 0.0290512 0
M  V30 14811 O 1450.19 1.76008 -0.187169 0
M  V30 14812 C 1447.31 3.36797 -0.66501 0
M  V30 14813 C 1446.4 3.85502 -1.76773 0
M  V30 14814 N 1446.79 4.06922 -3.00413 0
M  V30 14815 C 1445.09 4.14359 -1.64993 0
M  V30 14816 C 1445.79 4.4717 -3.7204 0
M  V30 14817 N 1444.77 4.53523 -2.99697 0
M  V30 14818 H 1448.57 2.17641 -1.97509 0
M  V30 14819 H 1446.08 1.13268 -1.16379 0
M  V30 14820 H 1448.08 4.14053 -0.486427 0
M  V30 14821 H 1446.74 3.23607 0.266138 0
M  V30 14822 H 1447.75 3.93786 -3.36383 0
M  V30 14823 H 1444.43 4.09991 -0.788254 0
M  V30 14824 H 1445.82 4.71985 -4.78205 0
M  V30 14825 N 1448.54 1.07657 1.15099 0
M  V30 14826 C 1449.77 0.822825 1.89835 0
M  V30 14827 C 1450.18 -0.624281 1.7818 0
M  V30 14828 O 1449.54 -1.42844 1.13587 0
M  V30 14829 C 1449.59 1.22598 3.40076 0
M  V30 14830 O 1449.31 2.61631 3.51398 0
M  V30 14831 C 1450.81 1.00199 4.31828 0
M  V30 14832 H 1448.03 0.297288 0.601549 0
M  V30 14833 H 1450.58 1.43384 1.45813 0
M  V30 14834 H 1448.73 0.65923 3.8175 0
M  V30 14835 H 1449.14 2.78163 4.44664 0
M  V30 14836 H 1450.62 1.33355 5.35649 0
M  V30 14837 H 1451.1 -0.0614865 4.39157 0
M  V30 14838 H 1451.7 1.5538 3.959 0
M  V30 14839 N 1450.02 -1.31994 0.861122 0
M  V30 14840 C 1451.26 -1.96636 0.466754 0
M  V30 14841 C 1451.59 -1.6845 -0.982328 0
M  V30 14842 O 1450.86 -0.995157 -1.68741 0
M  V30 14843 H 1449.44 -0.727489 0.169613 0
M  V30 14844 H 1452.1 -1.60962 1.09897 0
M  V30 14845 H 1451.19 -3.05937 0.61716 0
M  V30 14846 N 1451.49 -0.619688 -1.44906 0
M  V30 14847 C 1452.4 0.0935512 -2.34413 0
M  V30 14848 C 1453.42 0.847738 -1.51952 0
M  V30 14849 O 1454.6 0.802591 -1.84717 0
M  V30 14850 C 1451.66 1.07047 -3.2976 0
M  V30 14851 C 1450.72 0.31691 -4.28129 0
M  V30 14852 C 1449.96 1.24729 -5.1892 0
M  V30 14853 O 1450.18 2.4856 -5.13395 0
M  V30 14854 O 1449.11 0.737799 -5.97361 0
M  V30 14855 H 1452.94 -0.642335 -2.96829 0
M  V30 14856 H 1450.52 -0.379908 -1.44489 0
M  V30 14857 H 1452.41 1.63281 -3.88481 0
M  V30 14858 H 1451.08 1.78717 -2.69893 0
M  V30 14859 H 1449.99 -0.288192 -3.72988 0
M  V30 14860 H 1451.32 -0.359539 -4.90885 0
M  V30 14861 N 1452.97 1.53444 -0.359552 0
M  V30 14862 C 1453.94 2.24173 0.477412 0
M  V30 14863 C 1454.94 1.24747 1.01464 0
M  V30 14864 O 1456.13 1.49069 0.901343 0
M  V30 14865 C 1453.26 2.9738 1.66667 0
M  V30 14866 H 1454.45 2.99566 -0.141407 0
M  V30 14867 H 1452 1.55904 -0.111143 0
M  V30 14868 H 1452.74 2.26214 2.32374 0
M  V30 14869 H 1452.52 3.70325 1.28848 0
M  V30 14870 H 1454.01 3.51165 2.25994 0
M  V30 14871 N 1454.45 0.0885642 1.57351 0
M  V30 14872 C 1455.7 -0.575536 1.93732 0
M  V30 14873 C 1456.02 -1.69126 0.970644 0
M  V30 14874 O 1455.29 -1.95888 0.0215907 0
M  V30 14875 H 1453.87 -0.215592 0.715213 0
M  V30 14876 H 1456.53 0.150362 1.94319 0
M  V30 14877 H 1455.63 -0.989979 2.95983 0
M  V30 14878 N 1455.93 -1.56509 -0.185096 0
M  V30 14879 C 1457.34 -1.71024 -0.748856 0
M  V30 14880 C 1457.69 -0.69681 -1.83409 0
M  V30 14881 O 1456.82 0.144711 -2.15916 0
M  V30 14882 C 1457.41 -3.1008 -1.36513 0
M  V30 14883 C 1455.97 -3.26325 -1.87587 0
M  V30 14884 C 1455.12 -2.66977 -0.749579 0
M  V30 14885 H 1458.07 -1.58649 0.0401175 0
M  V30 14886 H 1458.09 -3.07965 -2.23468 0
M  V30 14887 H 1457.6 -3.83816 -0.575051 0
M  V30 14888 H 1455.7 -2.57522 -2.69283 0
M  V30 14889 H 1455.81 -4.33931 -2.03078 0
M  V30 14890 H 1454.18 -2.26419 -1.16647 0
M  V30 14891 H 1454.96 -3.43288 0.0284301 0
M  V30 14892 N 1457.41 0.45317 -1.50944 0
M  V30 14893 C 1458.36 1.54689 -1.67498 0
M  V30 14894 C 1459.34 1.51949 -0.529193 0
M  V30 14895 O 1460.53 1.58669 -0.784415 0
M  V30 14896 C 1457.66 2.93006 -1.78892 0
M  V30 14897 C 1456.75 3.00562 -2.99204 0
M  V30 14898 N 1457.14 2.77893 -4.22621 0
M  V30 14899 C 1455.44 3.31712 -2.98132 0
M  V30 14900 C 1456.14 2.90882 -5.03749 0
M  V30 14901 N 1455.11 3.21866 -4.38068 0
M  V30 14902 H 1458.92 1.35889 -2.60598 0
M  V30 14903 H 1456.43 0.660219 -1.48374 0
M  V30 14904 H 1458.43 3.71669 -1.88858 0
M  V30 14905 H 1457.09 3.12838 -0.869626 0
M  V30 14906 H 1458.1 2.53126 -4.51827 0
M  V30 14907 H 1454.77 3.57419 -2.15773 0
M  V30 14908 H 1456.16 2.77444 -6.11943 0
M  V30 14909 N 1458.88 1.40823 0.707568 0
M  V30 14910 C 1459.85 1.41464 1.80334 0
M  V30 14911 C 1460.85 0.307143 1.57839 0
M  V30 14912 O 1462.04 0.566444 1.64733 0
M  V30 14913 C 1459.17 1.21426 3.18541 0
M  V30 14914 H 1460.36 2.38998 1.81162 0
M  V30 14915 H 1457.92 1.2679 0.914007 0
M  V30 14916 H 1458.65 0.246847 3.23359 0
M  V30 14917 H 1458.44 2.01657 3.36269 0
M  V30 14918 H 1459.93 1.24681 3.98553 0
M  V30 14919 N 1460.36 -0.94061 1.26453 0
M  V30 14920 C 1461.3 -2.03945 1.0238 0
M  V30 14921 C 1462.27 -1.62518 -0.051622 0
M  V30 14922 O 1463.46 -1.88281 0.09091 0
M  V30 14923 C 1460.58 -3.34197 0.550464 0
M  V30 14924 C 1459.63 -3.94596 1.61853 0
M  V30 14925 S 1460.46 -4.28803 3.20762 0
M  V30 14926 C 1461.62 -5.62154 2.75198 0
M  V30 14927 H 1461.85 -2.24051 1.95419 0
M  V30 14928 H 1459.39 -1.08207 1.10139 0
M  V30 14929 H 1461.34 -4.09516 0.284031 0
M  V30 14930 H 1460 -3.12034 -0.359649 0
M  V30 14931 H 1459.2 -4.8855 1.23835 0
M  V30 14932 H 1458.8 -3.25812 1.83637 0
M  V30 14933 H 1461.09 -6.40889 2.19697 0
M  V30 14934 H 1462.03 -6.05057 3.67847 0
M  V30 14935 H 1462.44 -5.22058 2.14745 0
M  V30 14936 N 1461.84 -1.08266 -1.14527 0
M  V30 14937 C 1463.09 -0.812661 -1.85805 0
M  V30 14938 C 1463.42 0.659878 -1.82645 0
M  V30 14939 O 1462.69 1.48498 -1.25612 0
M  V30 14940 C 1462.98 -1.33335 -3.34505 0
M  V30 14941 C 1462.83 -2.87113 -3.46246 0
M  V30 14942 C 1464.15 -0.957435 -4.29559 0
M  V30 14943 H 1461.27 -0.296681 -0.674648 0
M  V30 14944 H 1463.91 -1.34203 -1.34497 0
M  V30 14945 H 1462.06 -0.883056 -3.78331 0
M  V30 14946 H 1463.73 -3.40502 -3.11217 0
M  V30 14947 H 1461.98 -3.24845 -2.87504 0
M  V30 14948 H 1462.65 -3.18618 -4.50762 0
M  V30 14949 H 1465.12 -1.3456 -3.93742 0
M  V30 14950 H 1464 -1.34897 -5.32066 0
M  V30 14951 H 1464.26 0.135689 -4.41892 0
M  V30 14952 N 1463.32 1.31536 -0.86811 0
M  V30 14953 C 1464.74 1.49461 -0.559778 0
M  V30 14954 C 1464.94 1.79957 0.906525 0
M  V30 14955 O 1463.99 1.87711 1.68881 0
M  V30 14956 C 1465.3 2.62967 -1.45839 0
M  V30 14957 C 1466.85 2.76851 -1.46023 0
M  V30 14958 C 1467.33 3.93451 -2.34436 0
M  V30 14959 N 1468.82 4.00735 -2.32306 0
M  V30 14960 C 1469.55 4.90223 -2.97437 0
M  V30 14961 N 1469.05 5.84626 -3.71731 0
M  V30 14962 N 1470.84 4.83454 -2.86755 0
M  V30 14963 H 1462.99 1.1001 -1.81691 0
M  V30 14964 H 1465.26 0.543418 -0.776789 0
M  V30 14965 H 1464.96 2.47203 -2.50168 0
M  V30 14966 H 1464.84 3.59063 -1.15556 0
M  V30 14967 H 1467.22 2.9203 -0.424527 0
M  V30 14968 H 1467.3 1.81427 -1.80327 0
M  V30 14969 H 1466.95 3.79029 -3.38082 0
M  V30 14970 H 1466.88 4.88179 -1.97457 0
M  V30 14971 H 1469.37 3.33191 -1.78303 0
M  V30 14972 H 1469.68 6.49635 -4.18562 0
M  V30 14973 H 1468.03 5.84611 -3.75839 0
M  V30 14974 H 1471.22 4.08678 -2.28254 0
M  V30 14975 H 1471.39 5.52991 -3.37795 0
M  V30 14976 N 1464.8 0.627364 1.44575 0
M  V30 14977 C 1466.04 0.130545 2.02379 0
M  V30 14978 C 1466.38 -1.24301 1.49208 0
M  V30 14979 O 1465.65 -1.82425 0.674626 0
M  V30 14980 C 1465.93 0.11311 3.59922 0
M  V30 14981 C 1465.79 1.51874 4.23385 0
M  V30 14982 C 1467.11 -0.564341 4.36467 0
M  V30 14983 H 1464.23 0.0489125 0.735375 0
M  V30 14984 H 1466.87 0.803118 1.72192 0
M  V30 14985 H 1465.02 -0.459621 3.85772 0
M  V30 14986 H 1466.69 2.14007 4.08655 0
M  V30 14987 H 1464.93 2.07371 3.81024 0
M  V30 14988 H 1465.6 1.4586 5.3238 0
M  V30 14989 H 1468.08 -0.0773244 4.16028 0
M  V30 14990 H 1466.96 -0.545715 5.46181 0
M  V30 14991 H 1467.22 -1.63403 4.10794 0
M  V30 14992 N 1466.28 -1.53251 0.367684 0
M  V30 14993 C 1467.5 -2.0618 -0.224645 0
M  V30 14994 C 1467.93 -1.23927 -1.41505 0
M  V30 14995 O 1467.28 -0.258858 -1.79443 0
M  V30 14996 C 1467.33 -3.55671 -0.594171 0
M  V30 14997 O 1466.44 -3.76132 -1.69112 0
M  V30 14998 H 1465.78 -0.663218 -0.0322099 0
M  V30 14999 H 1468.31 -1.97646 0.528897 0
M  V30 15000 H 1468.32 -3.98734 -0.864589 0
M  V30 15001 H 1466.99 -4.14982 0.276254 0
M  V30 15002 H 1465.57 -3.44965 -1.41609 0
M  V30 15003 N 1467.75 -0.0969077 -1.57302 0
M  V30 15004 C 1469 0.567212 -1.94706 0
M  V30 15005 C 1469.33 1.67721 -0.978937 0
M  V30 15006 O 1468.61 1.94496 -0.0123016 0
M  V30 15007 C 1468.89 1.12069 -3.42217 0
M  V30 15008 C 1468.74 0.015615 -4.49797 0
M  V30 15009 C 1470.06 2.0185 -3.91081 0
M  V30 15010 H 1467.18 0.204716 -0.707997 0
M  V30 15011 H 1469.82 -0.167984 -1.89256 0
M  V30 15012 H 1467.97 1.74723 -3.46993 0
M  V30 15013 H 1469.65 -0.61871 -4.57132 0
M  V30 15014 H 1467.89 -0.650529 -4.28895 0
M  V30 15015 H 1468.56 0.443724 -5.50214 0
M  V30 15016 H 1471.04 1.49098 -3.8847 0
M  V30 15017 H 1469.91 2.37502 -4.94858 0
M  V30 15018 H 1470.17 2.93659 -3.3048 0
M  V30 15019 N 1469.23 1.56605 0.176793 0
M  V30 15020 C 1470.18 1.96896 1.23833 0
M  V30 15021 C 1471.17 0.85693 1.46127 0
M  V30 15022 O 1472.38 1.04202 1.46772 0
M  V30 15023 H 1468.75 0.626363 0.416141 0
M  V30 15024 H 1470.73 2.85387 0.871607 0
M  V30 15025 C 1469.47 2.34034 2.57145 0
M  V30 15026 H 1468.8 3.1914 2.40811 0
M  V30 15027 H 1470.24 2.66074 3.30122 0
M  V30 15028 C 1468.7 1.18171 3.15495 0
M  V30 15029 O 1469.23 0.466448 3.98983 0
M  V30 15030 N 1467.43 0.953705 2.74505 0
M  V30 15031 H 1466.98 1.5371 2.06715 0
M  V30 15032 H 1466.94 0.180307 3.13883 0
M  V30 15033 N 1470.71 -0.445159 1.51182 0
M  V30 15034 C 1471.96 -1.19288 1.6314 0
M  V30 15035 C 1472.28 -1.91904 0.346109 0
M  V30 15036 O 1471.55 -1.8523 -0.637695 0
M  V30 15037 H 1470.13 -0.443319 0.601229 0
M  V30 15038 H 1472.79 -0.511136 1.88078 0
M  V30 15039 H 1471.89 -1.92672 2.45528 0
M  V30 15040 N 1472.19 -1.41197 -0.700089 0
M  V30 15041 C 1473.15 -1.42419 -1.79582 0
M  V30 15042 C 1474.15 -0.31551 -1.57674 0
M  V30 15043 O 1475.34 -0.575173 -1.64431 0
M  V30 15044 C 1472.47 -1.23114 -3.17893 0
M  V30 15045 H 1473.67 -2.39956 -1.79892 0
M  V30 15046 H 1471.22 -1.27273 -0.907271 0
M  V30 15047 H 1471.95 -0.263992 -3.23224 0
M  V30 15048 H 1471.74 -2.03437 -3.35195 0
M  V30 15049 H 1473.23 -1.26793 -3.97886 0
M  V30 15050 N 1473.67 0.933891 -1.2695 0
M  V30 15051 C 1474.91 1.6834 -1.13091 0
M  V30 15052 C 1475.24 1.91484 0.32367 0
M  V30 15053 O 1474.52 1.50075 1.23724 0
M  V30 15054 C 1474.8 3.05374 -1.90838 0
M  V30 15055 C 1474.66 2.8951 -3.44244 0
M  V30 15056 C 1475.97 4.05607 -1.70795 0
M  V30 15057 H 1473.09 0.610944 -0.41221 0
M  V30 15058 H 1475.74 1.08416 -1.56032 0
M  V30 15059 H 1473.89 3.56526 -1.54343 0
M  V30 15060 H 1475.56 2.45523 -3.90533 0
M  V30 15061 H 1473.8 2.24981 -3.70899 0
M  V30 15062 H 1474.47 3.86734 -3.93879 0
M  V30 15063 H 1476.95 3.63443 -2.02604 0
M  V30 15064 H 1475.82 4.9949 -2.27597 0
M  V30 15065 H 1476.08 4.37231 -0.654327 0
M  V30 15066 N 1475.14 1.08871 1.13951 0
M  V30 15067 C 1476.39 0.822504 1.85372 0
M  V30 15068 C 1476.72 -0.650183 1.82993 0
M  V30 15069 O 1476 -1.4783 1.26398 0
M  V30 15070 C 1476.28 1.35107 3.33793 0
M  V30 15071 C 1476.13 2.88945 3.44719 0
M  V30 15072 C 1477.45 0.980203 4.29045 0
M  V30 15073 H 1474.57 0.300255 0.673065 0
M  V30 15074 H 1477.21 1.34914 1.33784 0
M  V30 15075 H 1475.36 0.903108 3.77857 0
M  V30 15076 H 1477.04 3.42148 3.09407 0
M  V30 15077 H 1475.28 3.26365 2.85777 0
M  V30 15078 H 1475.95 3.21004 4.49066 0
M  V30 15079 H 1478.43 1.36646 3.93023 0
M  V30 15080 H 1477.3 1.37717 5.31343 0
M  V30 15081 H 1477.56 -0.112253 4.41957 0
M  V30 15082 N 1476.62 -1.31073 0.875073 0
M  V30 15083 C 1477.55 -2.30855 0.350468 0
M  V30 15084 C 1478.53 -1.60569 -0.561384 0
M  V30 15085 O 1479.72 -1.88242 -0.477329 0
M  V30 15086 C 1476.85 -3.44444 -0.444493 0
M  V30 15087 C 1475.8 -4.26357 0.374716 0
M  V30 15088 C 1475.13 -5.31903 -0.546243 0
M  V30 15089 C 1476.43 -4.96817 1.61153 0
M  V30 15090 H 1478.12 -2.74983 1.18427 0
M  V30 15091 H 1475.67 -1.32199 0.570909 0
M  V30 15092 H 1477.62 -4.13304 -0.82206 0
M  V30 15093 H 1476.34 -2.99096 -1.31185 0
M  V30 15094 H 1475 -3.59171 0.734295 0
M  V30 15095 H 1474.65 -4.82803 -1.41102 0
M  V30 15096 H 1474.35 -5.876 -0.00198173 0
M  V30 15097 H 1475.88 -6.03621 -0.920542 0
M  V30 15098 H 1477.29 -5.58247 1.30511 0
M  V30 15099 H 1475.69 -5.62334 2.09524 0
M  V30 15100 H 1476.76 -4.2351 2.36151 0
M  V30 15101 N 1478.1 -0.635022 -1.4424 0
M  V30 15102 C 1479.01 0.0686832 -2.34499 0
M  V30 15103 C 1480.03 0.831574 -1.52843 0
M  V30 15104 O 1481.2 0.782954 -1.85558 0
M  V30 15105 C 1478.27 1.03543 -3.30877 0
M  V30 15106 C 1477.33 0.271484 -4.28441 0
M  V30 15107 C 1476.56 1.19218 -5.20214 0
M  V30 15108 O 1476.78 2.43101 -5.16002 0
M  V30 15109 O 1475.72 0.6744 -5.9811 0
M  V30 15110 H 1479.54 -0.673781 -2.96132 0
M  V30 15111 H 1477.13 -0.395211 -1.44078 0
M  V30 15112 H 1479.01 1.59151 -3.90191 0
M  V30 15113 H 1477.69 1.75844 -2.71773 0
M  V30 15114 H 1476.59 -0.327736 -3.72662 0
M  V30 15115 H 1477.93 -0.411584 -4.90476 0
M  V30 15116 N 1479.58 1.53054 -0.375806 0
M  V30 15117 C 1480.49 2.29772 0.47349 0
M  V30 15118 C 1481.5 1.36144 1.08355 0
M  V30 15119 O 1482.68 1.69208 1.09228 0
M  V30 15120 C 1479.75 3.07964 1.59245 0
M  V30 15121 C 1478.81 4.17277 1.00888 0
M  V30 15122 C 1478.04 4.91731 2.07451 0
M  V30 15123 O 1478.26 4.66143 3.28736 0
M  V30 15124 O 1477.2 5.77413 1.69936 0
M  V30 15125 H 1481.02 3.03324 -0.151105 0
M  V30 15126 H 1478.61 1.48744 -0.139895 0
M  V30 15127 H 1480.49 3.56759 2.24279 0
M  V30 15128 H 1479.16 2.37239 2.20226 0
M  V30 15129 H 1478.07 3.7271 0.322167 0
M  V30 15130 H 1479.4 4.90198 0.443483 0
M  V30 15131 N 1481.06 0.105248 1.57248 0
M  V30 15132 C 1482.47 -0.422304 1.81861 0
M  V30 15133 C 1482.82 -1.67508 1.02154 0
M  V30 15134 O 1481.94 -2.14905 0.253961 0
M  V30 15135 C 1482.54 -0.772943 3.29865 0
M  V30 15136 C 1481.1 -1.24519 3.55207 0
M  V30 15137 C 1480.24 -0.246936 2.76198 0
M  V30 15138 H 1483.2 0.330565 1.55219 0
M  V30 15139 H 1483.22 -1.6316 3.43743 0
M  V30 15140 H 1482.73 0.139033 3.87851 0
M  V30 15141 H 1480.83 -2.17453 3.02564 0
M  V30 15142 H 1480.94 -1.20001 4.63828 0
M  V30 15143 H 1479.31 -0.731171 2.43979 0
M  V30 15144 H 1480.09 0.657896 3.36937 0
M  V30 15145 N 1482.53 -1.56697 -0.168486 0
M  V30 15146 C 1483.78 -1.82424 -0.885965 0
M  V30 15147 C 1484.11 -0.683543 -1.81773 0
M  V30 15148 O 1483.39 0.314319 -1.91943 0
M  V30 15149 C 1483.67 -3.18553 -1.67917 0
M  V30 15150 C 1483.52 -4.43154 -0.770343 0
M  V30 15151 C 1484.84 -3.51654 -2.64627 0
M  V30 15152 H 1481.96 -0.663594 -0.320644 0
M  V30 15153 H 1484.6 -1.89391 -0.15205 0
M  V30 15154 H 1482.75 -3.12745 -2.30484 0
M  V30 15155 H 1484.43 -4.61032 -0.157328 0
M  V30 15156 H 1482.67 -4.33729 -0.0785653 0
M  V30 15157 H 1483.34 -5.34961 -1.36092 0
M  V30 15158 H 1485.82 -3.57934 -2.12185 0
M  V30 15159 H 1484.69 -4.47975 -3.17191 0
M  V30 15160 H 1484.95 -2.76503 -3.44961 0
M  V30 15161 N 1484.01 0.437135 -1.51416 0
M  V30 15162 C 1485.26 1.18421 -1.63771 0
M  V30 15163 C 1485.58 1.91718 -0.356282 0
M  V30 15164 O 1484.85 1.85566 0.627863 0
M  V30 15165 H 1483.43 0.440125 -0.603572 0
M  V30 15166 H 1486.09 0.501155 -1.88347 0
M  V30 15167 H 1485.19 1.91367 -2.46546 0
M  V30 15168 N 1485.49 1.41566 0.692592 0
M  V30 15169 C 1486.4 1.46014 1.83622 0
M  V30 15170 C 1487.42 0.350453 1.70434 0
M  V30 15171 O 1488.59 0.598634 1.92298 0
M  V30 15172 C 1485.66 1.34308 3.19628 0
M  V30 15173 C 1484.72 2.55617 3.44904 0
M  V30 15174 C 1483.95 2.4446 4.74421 0
M  V30 15175 O 1484.17 1.47078 5.51112 0
M  V30 15176 O 1483.11 3.34272 5.00546 0
M  V30 15177 H 1486.93 2.42504 1.82826 0
M  V30 15178 H 1484.52 1.23136 0.846039 0
M  V30 15179 H 1486.4 1.30075 4.00822 0
M  V30 15180 H 1485.08 0.409343 3.21101 0
M  V30 15181 H 1483.98 2.65426 2.63628 0
M  V30 15182 H 1485.32 3.47829 3.48247 0
M  V30 15183 N 1486.97 -0.927146 1.27443 0
M  V30 15184 C 1487.9 -2.04483 1.12735 0
M  V30 15185 C 1488.88 -1.70076 0.0286662 0
M  V30 15186 O 1490.06 -1.93133 0.203252 0
M  V30 15187 C 1487.19 -3.38557 0.774352 0
M  V30 15188 C 1486.15 -3.87078 1.82632 0
M  V30 15189 C 1485.47 -5.17964 1.32729 0
M  V30 15190 C 1486.77 -4.10409 3.23051 0
M  V30 15191 H 1488.47 -2.17046 2.06231 0
M  V30 15192 H 1486.01 -1.04292 0.992937 0
M  V30 15193 H 1487.97 -4.16227 0.658273 0
M  V30 15194 H 1486.69 -3.26009 -0.196321 0
M  V30 15195 H 1485.35 -3.11602 1.93132 0
M  V30 15196 H 1485 -5.01808 0.346059 0
M  V30 15197 H 1484.7 -5.51398 2.03061 0
M  V30 15198 H 1486.22 -5.98203 1.22416 0
M  V30 15199 H 1487.64 -4.78646 3.15549 0
M  V30 15200 H 1486.03 -4.5515 3.91099 0
M  V30 15201 H 1487.1 -3.15685 3.68064 0
M  V30 15202 N 1488.45 -1.09474 -1.13372 0
M  V30 15203 C 1489.86 -0.824541 -1.36651 0
M  V30 15204 C 1490.06 0.560903 -1.93536 0
M  V30 15205 O 1489.12 1.31567 -2.15514 0
M  V30 15206 C 1490.43 -1.91618 -2.31739 0
M  V30 15207 C 1491.98 -1.94346 -2.45354 0
M  V30 15208 C 1492.45 -3.02655 -3.4375 0
M  V30 15209 N 1493.95 -3.01898 -3.513 0
M  V30 15210 C 1494.68 -3.82344 -4.27318 0
M  V30 15211 N 1494.18 -4.727 -5.06484 0
M  V30 15212 N 1495.97 -3.70602 -4.22623 0
M  V30 15213 H 1488.12 -1.98793 -0.748005 0
M  V30 15214 H 1490.38 -0.863318 -0.391646 0
M  V30 15215 H 1490.09 -2.91282 -1.97098 0
M  V30 15216 H 1489.96 -1.79484 -3.31761 0
M  V30 15217 H 1492.35 -0.953206 -2.79281 0
M  V30 15218 H 1492.43 -2.10558 -1.45255 0
M  V30 15219 H 1492.08 -4.01894 -3.10553 0
M  V30 15220 H 1492.01 -2.83687 -4.43655 0
M  V30 15221 H 1494.5 -2.36417 -2.94814 0
M  V30 15222 H 1494.81 -5.30665 -5.61796 0
M  V30 15223 H 1493.15 -4.76736 -5.05715 0
M  V30 15224 H 1496.35 -2.99372 -3.59853 0
M  V30 15225 H 1496.52 -4.33535 -4.81614 0
M  V30 15226 N 1489.92 1.30607 -0.882012 0
M  V30 15227 C 1490.89 2.26489 -0.351498 0
M  V30 15228 C 1491.89 1.52686 0.504348 0
M  V30 15229 O 1493.08 1.71385 0.311928 0
M  V30 15230 C 1490.21 3.37222 0.499435 0
M  V30 15231 H 1491.4 2.74929 -1.19809 0
M  V30 15232 H 1488.96 1.41746 -0.658616 0
M  V30 15233 H 1489.69 2.94093 1.36673 0
M  V30 15234 H 1489.48 3.91936 -0.11356 0
M  V30 15235 H 1490.97 4.08596 0.862497 0
M  V30 15236 N 1491.4 0.642663 1.43901 0
M  V30 15237 C 1492.33 -0.0419756 2.33462 0
M  V30 15238 C 1493.31 -0.822923 1.48869 0
M  V30 15239 O 1494.5 -0.786508 1.7756 0
M  V30 15240 C 1491.63 -1.01631 3.32097 0
M  V30 15241 C 1490.58 -0.346206 4.26597 0
M  V30 15242 C 1489.91 -1.43125 5.15189 0
M  V30 15243 C 1491.21 0.754799 5.16817 0
M  V30 15244 H 1492.9 0.705929 2.90959 0
M  V30 15245 H 1490.45 0.340924 1.39906 0
M  V30 15246 H 1492.4 -1.5041 3.93643 0
M  V30 15247 H 1491.13 -1.79525 2.72834 0
M  V30 15248 H 1489.78 0.121038 3.664 0
M  V30 15249 H 1489.43 -2.20135 4.52271 0
M  V30 15250 H 1489.13 -0.988194 5.79231 0
M  V30 15251 H 1490.66 -1.92061 5.79607 0
M  V30 15252 H 1492.07 0.349624 5.72233 0
M  V30 15253 H 1490.47 1.12169 5.89524 0
M  V30 15254 H 1491.54 1.61718 4.57138 0
M  V30 15255 N 1492.88 -1.52852 0.383918 0
M  V30 15256 C 1494.13 -2.02484 -0.19278 0
M  V30 15257 C 1494.48 -1.26558 -1.44917 0
M  V30 15258 O 1493.78 -0.355972 -1.88264 0
M  V30 15259 C 1493.97 -3.53602 -0.519674 0
M  V30 15260 C 1493.8 -4.44164 0.703481 0
M  V30 15261 C 1492.57 -4.90323 1.22112 0
M  V30 15262 C 1494.77 -4.89616 1.5742 0
M  V30 15263 N 1492.75 -5.64941 2.40239 0
M  V30 15264 C 1494.12 -5.6276 2.60194 0
M  V30 15265 C 1496.17 -4.71664 1.59493 0
M  V30 15266 C 1494.88 -6.1986 3.64919 0
M  V30 15267 C 1496.9 -5.29642 2.63122 0
M  V30 15268 C 1496.27 -6.02688 3.64619 0
M  V30 15269 H 1492.36 -0.781313 -0.0327729 0
M  V30 15270 H 1494.95 -1.87274 0.532596 0
M  V30 15271 H 1493.12 -3.68936 -1.21411 0
M  V30 15272 H 1494.85 -3.89938 -1.08306 0
M  V30 15273 H 1491.61 -4.67084 0.782938 0
M  V30 15274 H 1492.03 -6.06904 2.99994 0
M  V30 15275 H 1496.67 -4.14698 0.823719 0
M  V30 15276 H 1494.39 -6.75911 4.42911 0
M  V30 15277 H 1497.98 -5.17635 2.65603 0
M  V30 15278 H 1496.86 -6.4675 4.43491 0
M  V30 15279 N 1494.36 -0.113586 -1.5719 0
M  V30 15280 C 1495.27 0.852428 -2.18565 0
M  V30 15281 C 1496.29 1.29668 -1.16026 0
M  V30 15282 O 1497.46 1.36079 -1.48474 0
M  V30 15283 C 1494.53 2.08675 -2.76867 0
M  V30 15284 C 1493.59 1.69493 -3.94424 0
M  V30 15285 C 1492.82 2.87042 -4.49936 0
M  V30 15286 O 1493.04 4.02311 -4.04354 0
M  V30 15287 O 1491.98 2.64439 -5.40699 0
M  V30 15288 H 1495.8 0.360144 -3.01557 0
M  V30 15289 H 1493.39 0.111744 -1.48982 0
M  V30 15290 H 1495.27 2.80976 -3.14054 0
M  V30 15291 H 1493.95 2.5692 -1.9691 0
M  V30 15292 H 1492.85 0.943161 -3.62016 0
M  V30 15293 H 1494.19 1.25995 -4.758 0
M  V30 15294 N 1495.84 1.56784 0.160173 0
M  V30 15295 C 1496.75 2.00514 1.21783 0
M  V30 15296 C 1497.76 0.918341 1.47792 0
M  V30 15297 O 1498.94 1.22683 1.59721 0
M  V30 15298 C 1496 2.36575 2.53443 0
M  V30 15299 C 1495.07 3.59138 2.35198 0
M  V30 15300 C 1494.3 3.93469 3.6058 0
M  V30 15301 O 1494.52 3.28625 4.6622 0
M  V30 15302 O 1493.46 4.86774 3.54027 0
M  V30 15303 H 1497.28 2.90774 0.876607 0
M  V30 15304 H 1494.87 1.44799 0.367897 0
M  V30 15305 H 1496.75 2.60687 3.31089 0
M  V30 15306 H 1495.42 1.49474 2.87122 0
M  V30 15307 H 1494.33 3.4023 1.55546 0
M  V30 15308 H 1495.66 4.46815 2.0644 0
M  V30 15309 N 1497.32 -0.429099 1.51646 0
M  V30 15310 C 1498.54 -1.20006 1.68541 0
M  V30 15311 C 1498.96 -1.84806 0.386264 0
M  V30 15312 O 1498.32 -1.7106 -0.635988 0
M  V30 15313 C 1498.37 -2.27801 2.80694 0
M  V30 15314 O 1498.09 -1.65649 4.05576 0
M  V30 15315 C 1499.59 -3.17927 3.08929 0
M  V30 15316 H 1496.81 -0.361388 0.565367 0
M  V30 15317 H 1499.35 -0.507432 1.98104 0
M  V30 15318 H 1497.51 -2.92766 2.53706 0
M  V30 15319 H 1497.92 -2.36955 4.67924 0
M  V30 15320 H 1499.4 -3.8968 3.90965 0
M  V30 15321 H 1499.87 -3.79157 2.21668 0
M  V30 15322 H 1500.48 -2.58654 3.37606 0
M  V30 15323 N 1498.79 -1.41931 -0.685074 0
M  V30 15324 C 1500.02 -1.45432 -1.47866 0
M  V30 15325 C 1500.44 -0.0641302 -1.87991 0
M  V30 15326 O 1499.8 0.935081 -1.55325 0
M  V30 15327 C 1499.85 -2.37801 -2.71077 0
M  V30 15328 O 1498.95 -1.84229 -3.68963 0
M  V30 15329 H 1498.29 -0.493156 -0.444627 0
M  V30 15330 H 1500.82 -1.86508 -0.841177 0
M  V30 15331 H 1500.83 -2.54033 -3.19266 0
M  V30 15332 H 1499.51 -3.38807 -2.41211 0
M  V30 15333 H 1498.09 -1.775 -3.27945 0
M  V30 15334 N 1500.27 0.920374 -1.27933 0
M  V30 15335 C 1501.52 1.66883 -1.147 0
M  V30 15336 C 1501.85 1.92082 0.305732 0
M  V30 15337 O 1501.1 1.51449 1.23942 0
M  V30 15338 C 1501.4 3.03725 -1.88377 0
M  V30 15339 C 1501.07 2.9821 -3.38203 0
M  V30 15340 C 1499.73 2.96413 -3.79068 0
M  V30 15341 C 1502.08 2.88952 -4.3377 0
M  V30 15342 C 1499.41 2.83151 -5.13851 0
M  V30 15343 C 1501.76 2.77231 -5.68618 0
M  V30 15344 C 1500.42 2.73788 -6.08766 0
M  V30 15345 H 1499.69 0.61067 -0.419718 0
M  V30 15346 H 1502.34 1.0728 -1.58629 0
M  V30 15347 H 1500.65 3.67075 -1.36978 0
M  V30 15348 H 1502.34 3.60527 -1.7556 0
M  V30 15349 H 1498.93 3.004 -3.05709 0
M  V30 15350 H 1503.12 2.89433 -4.03165 0
M  V30 15351 H 1498.37 2.78877 -5.44093 0
M  V30 15352 H 1502.55 2.69034 -6.42335 0
M  V30 15353 H 1500.17 2.63268 -7.13158 0
M  V30 15354 N 1501.75 1.10074 1.1279 0
M  V30 15355 C 1502.68 0.704023 2.1812 0
M  V30 15356 C 1503.69 -0.25742 1.60752 0
M  V30 15357 O 1504.88 -0.0424559 1.7845 0
M  V30 15358 C 1501.98 0.0176666 3.38895 0
M  V30 15359 C 1501.16 1.00234 4.2576 0
M  V30 15360 C 1500.22 0.348158 5.25047 0
M  V30 15361 O 1499.24 0.997821 5.60386 0
M  V30 15362 N 1500.44 -0.894955 5.7356 0
M  V30 15363 H 1503.21 1.61024 2.52767 0
M  V30 15364 H 1500.77 0.989068 1.28176 0
M  V30 15365 H 1502.76 -0.431346 4.02395 0
M  V30 15366 H 1501.33 -0.7909 3.02429 0
M  V30 15367 H 1500.55 1.62972 3.58934 0
M  V30 15368 H 1501.84 1.669 4.80647 0
M  V30 15369 H 1501.24 -1.4422 5.47007 0
M  V30 15370 H 1499.79 -1.28718 6.38964 0
M  V30 15371 N 1503.23 -1.30138 0.888926 0
M  V30 15372 C 1504.16 -2.3047 0.374934 0
M  V30 15373 C 1505.14 -1.61156 -0.544322 0
M  V30 15374 O 1506.32 -1.88738 -0.457337 0
M  V30 15375 C 1503.45 -3.44896 -0.407935 0
M  V30 15376 C 1502.41 -4.25935 0.419916 0
M  V30 15377 C 1501.73 -5.32452 -0.489797 0
M  V30 15378 C 1503.03 -4.9508 1.66413 0
M  V30 15379 H 1504.73 -2.73711 1.21337 0
M  V30 15380 H 1502.27 -1.31586 0.584899 0
M  V30 15381 H 1504.23 -4.14153 -0.778177 0
M  V30 15382 H 1502.95 -3.0047 -1.28005 0
M  V30 15383 H 1501.61 -3.58372 0.772348 0
M  V30 15384 H 1501.26 -4.84273 -1.35974 0
M  V30 15385 H 1500.96 -5.87569 0.0603412 0
M  V30 15386 H 1502.48 -6.04563 -0.856468 0
M  V30 15387 H 1503.9 -5.56831 1.36425 0
M  V30 15388 H 1502.29 -5.6008 2.15477 0
M  V30 15389 H 1503.36 -4.20981 2.4063 0
M  V30 15390 N 1504.71 -0.650285 -1.43559 0
M  V30 15391 C 1505.98 -0.0925343 -1.95381 0
M  V30 15392 C 1506.36 1.38668 -1.59168 0
M  V30 15393 O 1505.71 2.11069 -0.875324 0
M  V30 15394 C 1505.92 -0.335657 -3.47382 0
M  V30 15395 C 1507.27 -0.239032 -4.23927 0
M  V30 15396 O 1508.29 -0.268056 -3.5519 0
M  V30 15397 O 1507.15 -0.160241 -5.46265 0
M  V30 15398 H 1504.25 0.0113084 -0.826923 0
M  V30 15399 H 1506.79 -0.723319 -1.53513 0
M  V30 15400 H 1505.56 -1.36132 -3.66857 0
M  V30 15401 H 1505.19 0.328339 -3.96242 0
M  V30 15402 N 1506.18 1.52647 -0.392018 0
M  V30 15403 C 1507.6 1.59544 -0.0421007 0
M  V30 15404 C 1507.8 1.40586 1.44353 0
M  V30 15405 O 1506.86 1.22422 2.20837 0
M  V30 15406 C 1508.17 2.9614 -0.521713 0
M  V30 15407 C 1509.72 3.09325 -0.478205 0
M  V30 15408 C 1510.19 4.48374 -0.93405 0
M  V30 15409 N 1511.68 4.54566 -0.890173 0
M  V30 15410 C 1512.42 5.60395 -1.21427 0
M  V30 15411 N 1511.91 6.73858 -1.60897 0
M  V30 15412 N 1513.71 5.50515 -1.13534 0
M  V30 15413 H 1505.86 1.63219 -1.35917 0
M  V30 15414 H 1508.12 0.766913 -0.557269 0
M  V30 15415 H 1507.83 3.15238 -1.55942 0
M  V30 15416 H 1507.7 3.7712 0.0777658 0
M  V30 15417 H 1510.09 2.89921 0.550418 0
M  V30 15418 H 1510.17 2.30292 -1.11352 0
M  V30 15419 H 1509.81 4.68519 -1.96092 0
M  V30 15420 H 1509.74 5.25878 -0.275717 0
M  V30 15421 H 1512.23 3.7311 -0.599758 0
M  V30 15422 H 1512.55 7.5058 -1.83983 0
M  V30 15423 H 1510.89 6.75182 -1.64786 0
M  V30 15424 H 1514.08 4.60755 -0.825977 0
M  V30 15425 H 1514.26 6.32889 -1.39124 0
M  V30 15426 N 1507.66 0.121921 1.57128 0
M  V30 15427 C 1508.59 -0.823788 2.18486 0
M  V30 15428 C 1509.57 -1.27519 1.12574 0
M  V30 15429 O 1510.76 -1.33727 1.40822 0
M  V30 15430 C 1507.89 -2.07284 2.78659 0
M  V30 15431 C 1506.84 -1.75912 3.90178 0
M  V30 15432 C 1506.17 -3.07871 4.37172 0
M  V30 15433 C 1507.47 -1.02517 5.1214 0
M  V30 15434 H 1509.16 -0.312488 2.97765 0
M  V30 15435 H 1506.71 -0.148862 1.43228 0
M  V30 15436 H 1508.66 -2.73903 3.20242 0
M  V30 15437 H 1507.39 -2.60743 1.96673 0
M  V30 15438 H 1506.04 -1.11681 3.49174 0
M  V30 15439 H 1505.69 -3.59271 3.52041 0
M  V30 15440 H 1505.39 -2.87653 5.12376 0
M  V30 15441 H 1506.92 -3.75604 4.81409 0
M  V30 15442 H 1508.33 -1.59295 5.50725 0
M  V30 15443 H 1506.73 -0.923836 5.92946 0
M  V30 15444 H 1507.8 -0.0124219 4.84898 0
M  V30 15445 N 1509.14 -1.56867 -0.151857 0
M  V30 15446 C 1510.07 -1.94494 -1.21263 0
M  V30 15447 C 1511.09 -0.84021 -1.39443 0
M  V30 15448 O 1512.27 -1.11863 -1.391 0
M  V30 15449 C 1509.37 -2.19952 -2.57826 0
M  V30 15450 C 1508.55 -3.51227 -2.60689 0
M  V30 15451 C 1507.61 -3.65282 -3.78756 0
M  V30 15452 O 1506.63 -4.3772 -3.63854 0
M  V30 15453 N 1507.83 -3.01582 -4.96012 0
M  V30 15454 H 1510.6 -2.86092 -0.892845 0
M  V30 15455 H 1508.16 -1.58258 -0.341463 0
M  V30 15456 H 1510.15 -2.266 -3.35312 0
M  V30 15457 H 1508.72 -1.34643 -2.82117 0
M  V30 15458 H 1507.94 -3.56062 -1.69155 0
M  V30 15459 H 1509.23 -4.37574 -2.59628 0
M  V30 15460 H 1508.63 -2.42637 -5.11022 0
M  V30 15461 H 1507.19 -3.13799 -5.71291 0
M  V30 15462 N 1510.62 0.421051 -1.51871 0
M  V30 15463 C 1511.58 1.49478 -1.73749 0
M  V30 15464 C 1512.58 1.48887 -0.607395 0
M  V30 15465 O 1513.77 1.50622 -0.875143 0
M  V30 15466 C 1510.9 2.88947 -1.80893 0
M  V30 15467 H 1512.1 1.31377 -2.69593 0
M  V30 15468 H 1509.65 0.650786 -1.42107 0
M  V30 15469 H 1510.38 3.12434 -0.86922 0
M  V30 15470 H 1510.17 2.90781 -2.63038 0
M  V30 15471 H 1511.66 3.66809 -1.99602 0
M  V30 15472 N 1512.1 1.42293 0.677538 0
M  V30 15473 C 1513.01 1.47953 1.82063 0
M  V30 15474 C 1514.02 0.36851 1.70053 0
M  V30 15475 O 1515.2 0.618996 1.91652 0
M  V30 15476 C 1512.26 1.3769 3.18186 0
M  V30 15477 C 1511.32 2.59261 3.42173 0
M  V30 15478 C 1510.56 2.49478 4.71801 0
M  V30 15479 O 1510.78 1.52915 5.49521 0
M  V30 15480 O 1509.71 3.39562 4.96972 0
M  V30 15481 H 1513.54 2.4443 1.80244 0
M  V30 15482 H 1511.13 1.24027 0.832932 0
M  V30 15483 H 1513.01 1.34319 3.9942 0
M  V30 15484 H 1511.68 0.443377 3.20649 0
M  V30 15485 H 1510.59 2.68207 2.60798 0
M  V30 15486 H 1511.92 3.51503 3.44538 0
M  V30 15487 N 1513.57 -0.913576 1.28419 0
M  V30 15488 C 1514.99 -1.47782 1.14094 0
M  V30 15489 C 1515.34 -1.94347 -0.269004 0
M  V30 15490 O 1514.46 -1.82474 -1.16328 0
M  V30 15491 C 1515.06 -2.6859 2.06507 0
M  V30 15492 C 1513.62 -3.21193 1.96245 0
M  V30 15493 C 1512.76 -1.939 1.98238 0
M  V30 15494 H 1515.71 -0.726271 1.41106 0
M  V30 15495 H 1515.73 -3.43858 1.62916 0
M  V30 15496 H 1515.25 -2.34668 3.09116 0
M  V30 15497 H 1513.35 -3.5984 0.966737 0
M  V30 15498 H 1513.46 -3.8643 2.83211 0
M  V30 15499 H 1511.82 -2.11006 1.42648 0
M  V30 15500 H 1512.61 -1.62273 3.02527 0
M  V30 15501 N 1515.05 -1.1067 -1.12204 0
M  V30 15502 C 1516.47 -0.838988 -1.35769 0
M  V30 15503 C 1516.67 0.540345 -1.9412 0
M  V30 15504 O 1515.72 1.29274 -2.16897 0
M  V30 15505 C 1517.04 -1.94065 -2.29694 0
M  V30 15506 C 1518.59 -1.96938 -2.43279 0
M  V30 15507 C 1519.06 -3.06284 -3.4052 0
M  V30 15508 N 1520.55 -3.05607 -3.48079 0
M  V30 15509 C 1521.29 -3.86855 -4.23238 0
M  V30 15510 N 1520.78 -4.78046 -5.01442 0
M  V30 15511 N 1522.58 -3.75064 -4.18669 0
M  V30 15512 H 1514.73 -1.99575 -0.726878 0
M  V30 15513 H 1516.99 -0.867423 -0.382467 0
M  V30 15514 H 1516.7 -2.93356 -1.93997 0
M  V30 15515 H 1516.57 -1.82992 -3.29839 0
M  V30 15516 H 1518.96 -0.982774 -2.78254 0
M  V30 15517 H 1519.04 -2.12087 -1.43014 0
M  V30 15518 H 1518.68 -4.05165 -3.06273 0
M  V30 15519 H 1518.61 -2.88376 -4.40621 0
M  V30 15520 H 1521.1 -2.39531 -2.9229 0
M  V30 15521 H 1521.42 -5.36594 -5.56136 0
M  V30 15522 H 1519.76 -4.82073 -5.0063 0
M  V30 15523 H 1522.95 -3.03172 -3.56657 0
M  V30 15524 H 1523.12 -4.38618 -4.76988 0
M  V30 15525 N 1516.53 1.29665 -0.895815 0
M  V30 15526 C 1517.77 1.975 -0.526604 0
M  V30 15527 C 1518.13 1.69097 0.909403 0
M  V30 15528 O 1519.34 2.30355 1.38529 0
M  V30 15529 C 1517.61 3.48185 -0.806342 0
M  V30 15530 S 1519.17 4.35454 -0.540857 0
M  V30 15531 H 1515.98 0.68359 -0.195513 0
M  V30 15532 H 1518.59 1.57557 -1.15741 0
M  V30 15533 H 1517.29 3.6635 -1.84976 0
M  V30 15534 H 1516.82 3.9306 -0.163499 0
M  V30 15535 H 1518.84 4.92364 0.615817 0
M  V30 15536 N 1518.01 0.657889 1.43212 0
M  V30 15537 C 1519.25 0.173443 2.02057 0
M  V30 15538 C 1519.59 -1.21108 1.51811 0
M  V30 15539 O 1518.86 -1.80953 0.71317 0
M  V30 15540 C 1519.15 0.189429 3.59601 0
M  V30 15541 C 1519 1.6082 4.20068 0
M  V30 15542 C 1520.32 -0.471633 4.37566 0
M  V30 15543 H 1517.44 0.0644999 0.734172 0
M  V30 15544 H 1520.08 0.839462 1.7045 0
M  V30 15545 H 1518.23 -0.377689 3.8666 0
M  V30 15546 H 1519.9 2.22627 4.04024 0
M  V30 15547 H 1518.14 2.15407 3.7654 0
M  V30 15548 H 1518.81 1.5712 5.29167 0
M  V30 15549 H 1521.29 0.0109387 4.16099 0
M  V30 15550 H 1520.17 -0.429739 5.47215 0
M  V30 15551 H 1520.43 -1.54652 4.14168 0
M  V30 15552 N 1519.49 -1.52437 0.400108 0
M  V30 15553 C 1520.45 -2.2536 -0.417808 0
M  V30 15554 C 1521.45 -1.27393 -0.981204 0
M  V30 15555 O 1522.64 -1.51406 -0.861503 0
M  V30 15556 C 1519.77 -3.01695 -1.58724 0
M  V30 15557 H 1520.96 -2.99086 0.220782 0
M  V30 15558 H 1518.52 -1.55555 0.152439 0
M  V30 15559 H 1519.25 -2.32295 -2.26295 0
M  V30 15560 H 1519.04 -3.73611 -1.18984 0
M  V30 15561 H 1520.53 -3.57033 -2.16604 0
M  V30 15562 N 1520.96 -0.130252 -1.57061 0
M  V30 15563 C 1521.87 0.829198 -2.19457 0
M  V30 15564 C 1522.89 1.2843 -1.17395 0
M  V30 15565 O 1524.07 1.34496 -1.49909 0
M  V30 15566 C 1521.13 2.05727 -2.79065 0
M  V30 15567 C 1520.19 1.65301 -3.962 0
M  V30 15568 C 1519.43 2.82253 -4.52956 0
M  V30 15569 O 1519.65 3.97999 -4.08598 0
M  V30 15570 O 1518.58 2.5869 -5.43473 0
M  V30 15571 H 1522.41 0.328139 -3.01922 0
M  V30 15572 H 1519.99 0.0959361 -1.49092 0
M  V30 15573 H 1521.88 2.7763 -3.17017 0
M  V30 15574 H 1520.55 2.54817 -1.99624 0
M  V30 15575 H 1519.46 0.904712 -3.62996 0
M  V30 15576 H 1520.79 1.20942 -4.7711 0
M  V30 15577 N 1522.44 1.56945 0.143535 0
M  V30 15578 C 1523.35 2.01795 1.1965 0
M  V30 15579 C 1524.37 0.933965 1.4681 0
M  V30 15580 O 1525.55 1.2437 1.58411 0
M  V30 15581 C 1522.61 2.39249 2.5092 0
M  V30 15582 C 1521.67 3.61613 2.31376 0
M  V30 15583 C 1520.9 3.97271 3.56386 0
M  V30 15584 O 1521.13 3.33552 4.62709 0
M  V30 15585 O 1520.06 4.90501 3.48844 0
M  V30 15586 H 1523.89 2.91687 0.845718 0
M  V30 15587 H 1521.47 1.45182 0.352518 0
M  V30 15588 H 1523.35 2.64184 3.28306 0
M  V30 15589 H 1522.03 1.52511 2.85521 0
M  V30 15590 H 1520.94 3.4186 1.51929 0
M  V30 15591 H 1522.27 4.48979 2.01689 0
M  V30 15592 N 1523.92 -0.412991 1.52093 0
M  V30 15593 C 1524.83 -1.52768 1.78042 0
M  V30 15594 C 1525.85 -1.60758 0.665791 0
M  V30 15595 O 1527.02 -1.77545 0.950772 0
M  V30 15596 C 1524.09 -2.8854 1.92213 0
M  V30 15597 C 1523.15 -2.90468 3.16112 0
M  V30 15598 C 1522.38 -4.19763 3.29598 0
M  V30 15599 O 1522.61 -5.13454 2.48438 0
M  V30 15600 O 1521.54 -4.2847 4.22726 0
M  V30 15601 H 1525.37 -1.33777 2.72649 0
M  V30 15602 H 1522.95 -0.598461 1.3689 0
M  V30 15603 H 1524.83 -3.69073 2.03379 0
M  V30 15604 H 1523.51 -3.07607 1.00795 0
M  V30 15605 H 1522.41 -2.08801 3.10408 0
M  V30 15606 H 1523.75 -2.76349 4.07298 0
M  V30 15607 N 1525.4 -1.4265 -0.669982 0
M  V30 15608 C 1526.82 -1.25682 -0.983682 0
M  V30 15609 C 1527.02 -0.164456 -2.00828 0
M  V30 15610 O 1526.07 0.462711 -2.48224 0
M  V30 15611 C 1527.38 -2.61536 -1.4839 0
M  V30 15612 C 1528.93 -2.6893 -1.60143 0
M  V30 15613 C 1529.41 -4.05162 -2.1356 0
M  V30 15614 N 1530.9 -4.07141 -2.20886 0
M  V30 15615 C 1531.63 -5.09371 -2.63303 0
M  V30 15616 N 1531.13 -6.21983 -3.05137 0
M  V30 15617 N 1532.92 -4.96727 -2.63094 0
M  V30 15618 H 1525.07 -2.12398 0.0083059 0
M  V30 15619 H 1527.34 -0.946173 -0.058823 0
M  V30 15620 H 1527.04 -3.42351 -0.805527 0
M  V30 15621 H 1526.92 -2.85786 -2.46183 0
M  V30 15622 H 1529.3 -1.88457 -2.27085 0
M  V30 15623 H 1529.38 -2.48463 -0.608266 0
M  V30 15624 H 1529.03 -4.86094 -1.47224 0
M  V30 15625 H 1528.96 -4.22984 -3.13676 0
M  V30 15626 H 1531.45 -3.25846 -1.91396 0
M  V30 15627 H 1531.76 -6.95835 -3.36204 0
M  V30 15628 H 1530.11 -6.25481 -3.02983 0
M  V30 15629 H 1533.3 -4.07824 -2.29777 0
M  V30 15630 H 1533.47 -5.76531 -2.95831 0
M  V30 15631 N 1526.88 0.906753 -1.28902 0
M  V30 15632 C 1528.13 1.6533 -1.16234 0
M  V30 15633 C 1528.45 1.92861 0.288004 0
M  V30 15634 O 1527.72 1.54971 1.19837 0
M  V30 15635 H 1526.3 0.612806 -0.427174 0
M  V30 15636 H 1528.96 1.08764 -1.6173 0
M  V30 15637 H 1528.05 2.61271 -1.70715 0
M  V30 15638 N 1528.36 1.11264 1.11616 0
M  V30 15639 C 1529.29 0.79149 2.19676 0
M  V30 15640 C 1530.27 -0.239351 1.68408 0
M  V30 15641 O 1531.45 -0.103228 1.93925 0
M  V30 15642 C 1528.58 0.231891 3.46525 0
M  V30 15643 C 1527.54 1.19439 4.10997 0
M  V30 15644 C 1526.86 0.495593 5.32398 0
M  V30 15645 C 1528.16 2.54437 4.56135 0
M  V30 15646 H 1529.86 1.69503 2.46797 0
M  V30 15647 H 1527.4 0.816433 1.18619 0
M  V30 15648 H 1529.35 -0.00497468 4.214 0
M  V30 15649 H 1528.08 -0.706938 3.18857 0
M  V30 15650 H 1526.74 1.41686 3.38113 0
M  V30 15651 H 1526.39 -0.447984 5.01001 0
M  V30 15652 H 1526.09 1.13753 5.76484 0
M  V30 15653 H 1527.61 0.267476 6.10014 0
M  V30 15654 H 1529.02 2.36289 5.22341 0
M  V30 15655 H 1527.42 3.14595 5.11028 0
M  V30 15656 H 1528.49 3.13795 3.69676 0
M  V30 15657 N 1529.83 -1.29188 0.902679 0
M  V30 15658 C 1531.25 -1.47924 0.599209 0
M  V30 15659 C 1531.45 -1.82297 -0.858494 0
M  V30 15660 O 1530.51 -1.92123 -1.63845 0
M  V30 15661 C 1531.82 -2.59008 1.52759 0
M  V30 15662 C 1533.37 -2.72882 1.53312 0
M  V30 15663 C 1533.84 -3.87097 2.44785 0
M  V30 15664 N 1535.33 -3.94435 2.42849 0
M  V30 15665 C 1536.07 -4.82165 3.1033 0
M  V30 15666 N 1535.56 -5.74565 3.87101 0
M  V30 15667 N 1537.36 -4.75681 2.99473 0
M  V30 15668 H 1529.51 -1.05154 1.84544 0
M  V30 15669 H 1531.77 -0.522632 0.790924 0
M  V30 15670 H 1531.48 -2.40483 2.56634 0
M  V30 15671 H 1531.35 -3.55873 1.25036 0
M  V30 15672 H 1533.74 -2.90802 0.501804 0
M  V30 15673 H 1533.82 -1.76582 1.85074 0
M  V30 15674 H 1533.46 -3.69932 3.48012 0
M  V30 15675 H 1533.39 -4.82772 2.10331 0
M  V30 15676 H 1535.88 -3.28347 1.87074 0
M  V30 15677 H 1536.2 -6.3831 4.35638 0
M  V30 15678 H 1534.54 -5.74441 3.91207 0
M  V30 15679 H 1537.73 -4.02483 2.39009 0
M  V30 15680 H 1537.91 -5.4384 3.52337 0
M  V30 15681 N 1531.31 -0.665475 -1.42861 0
M  V30 15682 C 1532.22 0.018927 -2.34592 0
M  V30 15683 C 1533.24 0.798967 -1.54572 0
M  V30 15684 O 1534.41 0.743419 -1.87177 0
M  V30 15685 C 1531.48 0.965013 -3.32999 0
M  V30 15686 C 1530.54 0.180544 -4.2892 0
M  V30 15687 C 1529.77 1.08157 -5.22626 0
M  V30 15688 O 1530 2.32101 -5.21043 0
M  V30 15689 O 1528.93 0.54738 -5.99406 0
M  V30 15690 H 1532.76 -0.736444 -2.94636 0
M  V30 15691 H 1530.34 -0.425684 -1.43207 0
M  V30 15692 H 1532.22 1.50839 -3.93479 0
M  V30 15693 H 1530.9 1.7004 -2.75442 0
M  V30 15694 H 1529.8 -0.40671 -3.71883 0
M  V30 15695 H 1531.14 -0.515529 -4.89493 0
M  V30 15696 N 1532.79 1.52222 -0.408187 0
M  V30 15697 C 1534.21 1.59491 -0.0590201 0
M  V30 15698 C 1534.41 1.42109 1.42854 0
M  V30 15699 O 1533.46 1.24757 2.19527 0
M  V30 15700 C 1534.77 2.9557 -0.553093 0
M  V30 15701 C 1536.32 3.08801 -0.510986 0
M  V30 15702 C 1536.8 4.47358 -0.981554 0
M  V30 15703 N 1538.29 4.53596 -0.938335 0
M  V30 15704 C 1539.02 5.59076 -1.27364 0
M  V30 15705 N 1538.52 6.72113 -1.68035 0
M  V30 15706 N 1540.31 5.49279 -1.19367 0
M  V30 15707 H 1532.46 1.61768 -1.37641 0
M  V30 15708 H 1534.73 0.760959 -0.565372 0
M  V30 15709 H 1534.43 3.13566 -1.59276 0
M  V30 15710 H 1534.31 3.77181 0.0377629 0
M  V30 15711 H 1536.69 2.90489 0.519637 0
M  V30 15712 H 1536.77 2.29098 -1.13788 0
M  V30 15713 H 1536.42 4.66413 -2.0105 0
M  V30 15714 H 1536.35 5.25556 -0.331478 0
M  V30 15715 H 1538.84 3.72453 -0.639297 0
M  V30 15716 H 1539.15 7.48586 -1.91934 0
M  V30 15717 H 1537.5 6.73396 -1.71938 0
M  V30 15718 H 1540.69 4.59853 -0.8748 0
M  V30 15719 H 1540.86 6.31378 -1.45829 0
M  V30 15720 N 1534.27 0.138579 1.5699 0
M  V30 15721 C 1535.2 -0.842105 2.12094 0
M  V30 15722 C 1536.18 -1.24798 1.04232 0
M  V30 15723 O 1537.36 -1.34557 1.3201 0
M  V30 15724 C 1534.49 -2.1296 2.63373 0
M  V30 15725 C 1533.54 -1.8703 3.83304 0
M  V30 15726 S 1534.37 -1.06889 5.24724 0
M  V30 15727 C 1535.52 -2.36776 5.79386 0
M  V30 15728 H 1535.76 -0.373475 2.94945 0
M  V30 15729 H 1533.29 -0.0755566 1.54215 0
M  V30 15730 H 1535.25 -2.86927 2.9357 0
M  V30 15731 H 1533.91 -2.56939 1.80668 0
M  V30 15732 H 1533.1 -2.82478 4.17399 0
M  V30 15733 H 1532.7 -1.21176 3.53825 0
M  V30 15734 H 1535 -3.32486 5.90304 0
M  V30 15735 H 1535.94 -2.07197 6.77108 0
M  V30 15736 H 1536.35 -2.47039 5.07575 0
M  V30 15737 N 1535.75 -1.57019 -0.13521 0
M  V30 15738 C 1536.99 -1.83626 -0.844147 0
M  V30 15739 C 1537.31 -0.721298 -1.81169 0
M  V30 15740 O 1536.58 0.256095 -1.94219 0
M  V30 15741 H 1535.16 -0.677464 -0.314725 0
M  V30 15742 H 1537.83 -1.9449 -0.126399 0
M  V30 15743 H 1536.92 -2.78976 -1.39925 0
M  V30 15744 N 1537.22 0.404919 -1.52309 0
M  V30 15745 C 1538.64 0.983553 -1.58692 0
M  V30 15746 C 1538.99 1.9143 -0.429993 0
M  V30 15747 O 1538.11 2.11689 0.449088 0
M  V30 15748 C 1538.71 1.79059 -2.87617 0
M  V30 15749 C 1537.27 2.31918 -2.96464 0
M  V30 15750 C 1536.41 1.12018 -2.53667 0
M  V30 15751 H 1539.36 0.185007 -1.57618 0
M  V30 15752 H 1539.38 2.64836 -2.73207 0
M  V30 15753 H 1538.9 1.11291 -3.71801 0
M  V30 15754 H 1537 3.03044 -2.16783 0
M  V30 15755 H 1537.11 2.62495 -4.00791 0
M  V30 15756 H 1535.47 1.47542 -2.07614 0
M  V30 15757 H 1536.26 0.458111 -3.4023 0
M  V30 15758 N 1538.7 1.43003 0.662408 0
M  V30 15759 C 1539.93 1.47766 1.45533 0
M  V30 15760 C 1540.35 0.0940298 1.87865 0
M  V30 15761 O 1539.71 -0.910252 1.56793 0
M  V30 15762 C 1539.76 2.42084 2.6726 0
M  V30 15763 O 1538.86 1.90076 3.65985 0
M  V30 15764 H 1538.2 0.500167 0.436725 0
M  V30 15765 H 1540.73 1.87823 0.811399 0
M  V30 15766 H 1540.74 2.5908 3.15185 0
M  V30 15767 H 1539.42 3.42601 2.3579 0
M  V30 15768 H 1538 1.82695 3.2508 0
M  V30 15769 N 1540.18 -0.899904 1.29381 0
M  V30 15770 C 1541.41 -1.68139 1.20053 0
M  V30 15771 C 1541.82 -1.87654 -0.241391 0
M  V30 15772 O 1541.16 -1.41334 -1.17347 0
M  V30 15773 C 1541.22 -3.08703 1.84235 0
M  V30 15774 C 1540.89 -3.12421 3.3353 0
M  V30 15775 C 1541.88 -2.92583 4.29757 0
M  V30 15776 C 1539.57 -3.34493 3.74726 0
M  V30 15777 C 1541.56 -2.94751 5.65156 0
M  V30 15778 C 1539.25 -3.36292 5.10246 0
M  V30 15779 C 1540.25 -3.16443 6.05271 0
M  V30 15780 O 1539.94 -3.18029 7.38317 0
M  V30 15781 H 1539.67 -0.531928 0.417167 0
M  V30 15782 H 1542.22 -1.13375 1.71275 0
M  V30 15783 H 1540.45 -3.65068 1.27524 0
M  V30 15784 H 1542.14 -3.68938 1.69232 0
M  V30 15785 H 1542.91 -2.75343 3.99264 0
M  V30 15786 H 1538.79 -3.48983 3.01217 0
M  V30 15787 H 1542.33 -2.79176 6.39301 0
M  V30 15788 H 1538.23 -3.53063 5.40386 0
M  V30 15789 H 1539 -3.34297 7.47119 0
M  V30 15790 N 1541.66 -1.11854 -1.11024 0
M  V30 15791 C 1542.9 -0.880082 -1.84483 0
M  V30 15792 C 1543.26 0.583659 -1.82914 0
M  V30 15793 O 1544.46 0.939053 -2.51864 0
M  V30 15794 C 1542.73 -1.43158 -3.27476 0
M  V30 15795 S 1544.29 -1.33075 -4.18135 0
M  V30 15796 H 1541.11 -0.317635 -0.636105 0
M  V30 15797 H 1543.71 -1.42688 -1.33642 0
M  V30 15798 H 1542.42 -2.49061 -3.26185 0
M  V30 15799 H 1541.95 -0.882005 -3.83385 0
M  V30 15800 H 1543.96 -0.298149 -4.95303 0
M  V30 15801 N 1543.14 1.28707 -0.909517 0
M  V30 15802 C 1544.07 2.29845 -0.411552 0
M  V30 15803 C 1545.05 1.62001 0.518615 0
M  V30 15804 O 1546.23 1.89442 0.427252 0
M  V30 15805 C 1543.36 3.45501 0.353013 0
M  V30 15806 C 1542.32 4.25213 -0.487625 0
M  V30 15807 C 1541.64 5.33164 0.405026 0
M  V30 15808 C 1542.94 4.9237 -1.74268 0
M  V30 15809 H 1544.64 2.71746 -1.25676 0
M  V30 15810 H 1542.18 1.30639 -0.605759 0
M  V30 15811 H 1544.14 4.15338 0.712191 0
M  V30 15812 H 1542.86 3.02469 1.23209 0
M  V30 15813 H 1541.52 3.57098 -0.829265 0
M  V30 15814 H 1541.17 4.86375 1.28252 0
M  V30 15815 H 1540.87 5.87399 -0.153811 0
M  V30 15816 H 1542.39 6.0585 0.760179 0
M  V30 15817 H 1543.8 5.5459 -1.45266 0
M  V30 15818 H 1542.2 5.56581 -2.2436 0
M  V30 15819 H 1543.27 4.171 -2.47297 0
M  V30 15820 N 1544.61 0.673042 1.42506 0
M  V30 15821 C 1546.03 0.272049 1.84707 0
M  V30 15822 C 1546.38 -1.18545 1.56338 0
M  V30 15823 O 1545.5 -1.9073 1.02231 0
M  V30 15824 C 1546.1 0.486977 3.35282 0
M  V30 15825 C 1544.66 0.140122 3.76139 0
M  V30 15826 C 1543.8 0.780276 2.66096 0
M  V30 15827 H 1546.75 0.875329 1.32377 0
M  V30 15828 H 1546.77 -0.261443 3.79601 0
M  V30 15829 H 1546.29 1.54784 3.55898 0
M  V30 15830 H 1544.39 -0.917366 3.6113 0
M  V30 15831 H 1544.5 0.579417 4.75583 0
M  V30 15832 H 1542.86 0.211756 2.53818 0
M  V30 15833 H 1543.65 1.84456 2.89536 0
M  V30 15834 N 1546.09 -1.52004 0.416254 0
M  V30 15835 C 1547.5 -1.86628 -0.0517247 0
M  V30 15836 C 1547.85 -1.33463 -1.43813 0
M  V30 15837 O 1546.98 -0.676793 -2.05544 0
M  V30 15838 C 1547.57 -3.38651 -0.100637 0
M  V30 15839 C 1546.13 -3.72888 -0.512969 0
M  V30 15840 C 1545.28 -2.75584 0.307975 0
M  V30 15841 H 1548.23 -1.45529 0.633018 0
M  V30 15842 H 1548.25 -3.69348 -0.914465 0
M  V30 15843 H 1547.76 -3.77316 0.908538 0
M  V30 15844 H 1545.87 -3.39804 -1.52852 0
M  V30 15845 H 1545.98 -4.78435 -0.252408 0
M  V30 15846 H 1544.34 -2.53653 -0.230717 0
M  V30 15847 H 1545.13 -3.1709 1.31563 0
M  V30 15848 N 1547.57 -0.146903 -1.56914 0
M  V30 15849 C 1548.8 0.511181 -2.00486 0
M  V30 15850 C 1549.21 1.58425 -1.02699 0
M  V30 15851 O 1548.57 1.82484 -0.0239878 0
M  V30 15852 C 1548.62 1.11191 -3.43975 0
M  V30 15853 O 1548.34 0.0817094 -4.38024 0
M  V30 15854 C 1549.84 1.85061 -4.02824 0
M  V30 15855 H 1547.06 0.133078 -0.657671 0
M  V30 15856 H 1549.61 -0.241457 -2.0307 0
M  V30 15857 H 1547.76 1.81517 -3.42243 0
M  V30 15858 H 1548.18 0.52181 -5.21898 0
M  V30 15859 H 1549.65 2.22385 -5.05222 0
M  V30 15860 H 1550.13 2.73649 -3.4353 0
M  V30 15861 H 1550.73 1.19434 -4.08186 0
M  V30 15862 N 1549.05 1.57088 0.126881 0
M  V30 15863 C 1550.3 1.84436 0.836048 0
M  V30 15864 C 1550.62 0.730824 1.80248 0
M  V30 15865 O 1549.88 -0.278509 1.93708 0
M  V30 15866 C 1550.18 3.18225 1.62688 0
M  V30 15867 C 1549.84 4.43648 0.80545 0
M  V30 15868 C 1548.51 4.77705 0.578901 0
M  V30 15869 C 1550.86 5.20682 0.232355 0
M  V30 15870 C 1548.19 5.86245 -0.231126 0
M  V30 15871 C 1550.54 6.30073 -0.564819 0
M  V30 15872 C 1549.2 6.62667 -0.801759 0
M  V30 15873 H 1548.47 0.674898 0.305932 0
M  V30 15874 H 1551.12 1.91245 0.0987618 0
M  V30 15875 H 1549.42 3.06956 2.43485 0
M  V30 15876 H 1551.12 3.36604 2.17942 0
M  V30 15877 H 1547.71 4.16959 0.99211 0
M  V30 15878 H 1551.89 4.94729 0.394616 0
M  V30 15879 H 1547.15 6.09928 -0.423998 0
M  V30 15880 H 1551.32 6.8895 -1.01592 0
M  V30 15881 H 1548.95 7.46605 -1.43126 0
M  V30 15882 N 1550.53 -0.396836 1.52522 0
M  V30 15883 C 1551.94 -0.975124 1.59211 0
M  V30 15884 C 1552.29 -1.91199 0.440138 0
M  V30 15885 O 1551.41 -2.11924 -0.437856 0
M  V30 15886 C 1552.01 -1.77531 2.88562 0
M  V30 15887 C 1550.57 -2.30343 2.9769 0
M  V30 15888 C 1549.71 -1.10671 2.54258 0
M  V30 15889 H 1552.67 -0.176646 1.57714 0
M  V30 15890 H 1552.69 -2.63384 2.74607 0
M  V30 15891 H 1552.2 -1.09318 3.72386 0
M  V30 15892 H 1550.3 -3.01891 2.18387 0
M  V30 15893 H 1550.41 -2.60366 4.02177 0
M  V30 15894 H 1548.78 -1.46439 2.08393 0
M  V30 15895 H 1549.56 -0.440061 3.40468 0
M  V30 15896 N 1552.01 -1.43353 -0.654814 0
M  V30 15897 C 1552.95 -1.48387 -1.76776 0
M  V30 15898 C 1553.92 -0.333755 -1.62712 0
M  V30 15899 O 1555.11 -0.540683 -1.82979 0
M  V30 15900 C 1552.25 -1.41132 -3.14922 0
M  V30 15901 C 1551.36 -2.66336 -3.40131 0
M  V30 15902 C 1550.5 -2.5108 -4.68116 0
M  V30 15903 C 1549.53 -3.71561 -4.86425 0
M  V30 15904 N 1548.67 -3.55125 -6.05666 0
M  V30 15905 H 1553.51 -2.43487 -1.71808 0
M  V30 15906 H 1551.05 -1.20866 -0.838442 0
M  V30 15907 H 1553.01 -1.3492 -3.94782 0
M  V30 15908 H 1551.64 -0.496149 -3.18964 0
M  V30 15909 H 1550.69 -2.82834 -2.5438 0
M  V30 15910 H 1552 -3.55835 -3.49546 0
M  V30 15911 H 1551.15 -2.42567 -5.56099 0
M  V30 15912 H 1549.89 -1.59103 -4.61018 0
M  V30 15913 H 1548.9 -3.80484 -3.96877 0
M  V30 15914 H 1550.12 -4.64545 -4.95353 0
M  V30 15915 H 1548.07 -2.65881 -5.99703 0
M  V30 15916 H 1547.99 -4.38224 -6.16032 0
M  V30 15917 H 1549.25 -3.5046 -6.96274 0
M  V30 15918 N 1553.48 0.89303 -1.29857 0
M  V30 15919 C 1554.45 1.97944 -1.15546 0
M  V30 15920 C 1555.45 1.60554 -0.088989 0
M  V30 15921 O 1556.64 1.7092 -0.336464 0
M  V30 15922 C 1553.77 3.32126 -0.768442 0
M  V30 15923 H 1554.96 2.12067 -2.12055 0
M  V30 15924 H 1552.51 1.0784 -1.13138 0
M  V30 15925 H 1553.25 3.23704 0.196504 0
M  V30 15926 H 1553.03 3.60631 -1.53907 0
M  V30 15927 H 1554.52 4.11834 -0.691559 0
M  V30 15928 N 1554.96 1.12442 1.10429 0
M  V30 15929 C 1556.19 0.902914 1.86714 0
M  V30 15930 C 1556.61 -0.542514 1.80107 0
M  V30 15931 O 1555.97 -1.38406 1.17105 0
M  V30 15932 C 1556.02 1.38238 3.33051 0
M  V30 15933 O 1555.12 0.560877 4.08568 0
M  V30 15934 H 1554.46 0.324397 0.579364 0
M  V30 15935 H 1556.99 1.49652 1.39519 0
M  V30 15936 H 1557 1.38148 3.839 0
M  V30 15937 H 1555.68 2.43486 3.37176 0
M  V30 15938 H 1554.25 0.628771 3.67561 0
M  V30 15939 N 1556.44 -1.28223 0.91633 0
M  V30 15940 C 1557.69 -1.95153 0.551639 0
M  V30 15941 C 1558.02 -1.71938 -0.902829 0
M  V30 15942 O 1557.29 -1.04184 -1.64243 0
M  V30 15943 C 1557.58 -3.49565 0.864647 0
M  V30 15944 C 1557.43 -3.82171 2.37203 0
M  V30 15945 C 1558.75 -4.38604 0.362593 0
M  V30 15946 H 1555.87 -0.708808 0.20189 0
M  V30 15947 H 1558.51 -1.51545 1.14604 0
M  V30 15948 H 1556.66 -3.8684 0.358782 0
M  V30 15949 H 1558.33 -3.54751 2.94872 0
M  V30 15950 H 1556.57 -3.29124 2.82595 0
M  V30 15951 H 1557.25 -4.90007 2.54159 0
M  V30 15952 H 1559.72 -4.08416 0.795983 0
M  V30 15953 H 1558.6 -5.45493 0.61066 0
M  V30 15954 H 1558.86 -4.35911 -0.737137 0
M  V30 15955 N 1557.92 -0.68059 -1.42147 0
M  V30 15956 C 1559.33 -0.281841 -1.8456 0
M  V30 15957 C 1559.68 1.17714 -1.56965 0
M  V30 15958 O 1558.8 1.90185 -1.03241 0
M  V30 15959 C 1559.4 -0.504751 -3.35019 0
M  V30 15960 C 1557.96 -0.160067 -3.76059 0
M  V30 15961 C 1557.11 -0.794377 -2.65678 0
M  V30 15962 H 1560.06 -0.882337 -1.31911 0
M  V30 15963 H 1560.08 0.241308 -3.79734 0
M  V30 15964 H 1559.59 -1.56669 -3.55072 0
M  V30 15965 H 1557.69 0.898202 -3.61612 0
M  V30 15966 H 1557.8 -0.60463 -4.75269 0
M  V30 15967 H 1556.17 -0.225213 -2.53702 0
M  V30 15968 H 1556.95 -1.85989 -2.88553 0
M  V30 15969 N 1559.4 1.51781 -0.424309 0
M  V30 15970 C 1560.81 1.59419 -0.0759329 0
M  V30 15971 C 1561.01 1.43616 1.41339 0
M  V30 15972 O 1560.07 1.27078 2.18191 0
M  V30 15973 C 1561.38 2.94966 -0.584411 0
M  V30 15974 C 1562.93 3.08241 -0.54371 0
M  V30 15975 C 1563.4 4.46292 -1.02895 0
M  V30 15976 N 1564.89 4.52575 -0.986392 0
M  V30 15977 C 1565.63 5.57694 -1.33286 0
M  V30 15978 N 1565.13 6.70293 -1.75154 0
M  V30 15979 N 1566.92 5.47983 -1.25186 0
M  V30 15980 H 1559.07 1.60299 -1.39349 0
M  V30 15981 H 1561.33 0.75492 -0.573411 0
M  V30 15982 H 1561.04 3.11859 -1.62593 0
M  V30 15983 H 1560.91 3.772 -0.00224435 0
M  V30 15984 H 1563.3 2.91024 0.488798 0
M  V30 15985 H 1563.38 2.27878 -1.16212 0
M  V30 15986 H 1563.02 4.64255 -2.05986 0
M  V30 15987 H 1562.95 5.25175 -0.387202 0
M  V30 15988 H 1565.45 3.71754 -0.678765 0
M  V30 15989 H 1565.76 7.46508 -1.99863 0
M  V30 15990 H 1564.1 6.71535 -1.79071 0
M  V30 15991 H 1567.29 4.58899 -0.923525 0
M  V30 15992 H 1567.47 6.29796 -1.52517 0
M  V30 15993 N 1560.87 0.155222 1.56834 0
M  V30 15994 C 1561.78 -0.794179 2.20749 0
M  V30 15995 C 1562.8 -1.26546 1.19424 0
M  V30 15996 O 1563.98 -1.32094 1.5203 0
M  V30 15997 C 1561.04 -2.01261 2.82303 0
M  V30 15998 C 1560.1 -1.58976 3.98779 0
M  V30 15999 C 1559.33 -2.75011 4.57389 0
M  V30 16000 O 1559.56 -3.91449 4.14879 0
M  V30 16001 O 1558.49 -2.50011 5.4752 0
M  V30 16002 H 1562.32 -0.280064 3.02406 0
M  V30 16003 H 1559.9 -0.0722048 1.49225 0
M  V30 16004 H 1561.78 -2.72551 3.21394 0
M  V30 16005 H 1560.46 -2.51609 2.03653 0
M  V30 16006 H 1559.37 -0.846848 3.64389 0
M  V30 16007 H 1560.7 -1.13336 4.78974 0
M  V30 16008 N 1562.35 -1.57153 -0.118549 0
M  V30 16009 C 1563.76 -1.74046 -0.675645 0
M  V30 16010 C 1564.11 -0.773974 -1.80289 0
M  V30 16011 O 1563.24 0.0530041 -2.16335 0
M  V30 16012 C 1563.83 -3.15591 -1.23239 0
M  V30 16013 C 1562.39 -3.33988 -1.73577 0
M  V30 16014 C 1561.54 -2.69916 -0.63567 0
M  V30 16015 H 1564.49 -1.58336 0.10737 0
M  V30 16016 H 1564.51 -3.17166 -2.10205 0
M  V30 16017 H 1564.02 -3.8591 -0.411744 0
M  V30 16018 H 1562.12 -2.68712 -2.58118 0
M  V30 16019 H 1562.24 -4.42154 -1.84491 0
M  V30 16020 H 1560.6 -2.31163 -1.06939 0
M  V30 16021 H 1561.38 -3.42859 0.174005 0
M  V30 16022 N 1563.83 0.388742 -1.5273 0
M  V30 16023 C 1565.08 1.13151 -1.67455 0
M  V30 16024 C 1565.4 1.90487 -0.417095 0
M  V30 16025 O 1564.67 1.87469 0.568509 0
M  V30 16026 H 1563.25 0.4207 -0.617269 0
M  V30 16027 H 1565.91 0.44098 -1.89846 0
M  V30 16028 H 1565.01 1.83427 -2.52509 0
M  V30 16029 N 1565.31 1.43698 0.647203 0
M  V30 16030 C 1566.56 1.45346 1.40425 0
M  V30 16031 C 1566.88 0.081129 1.94831 0
M  V30 16032 O 1566.15 -0.884379 1.74801 0
M  V30 16033 H 1564.73 0.535145 0.521181 0
M  V30 16034 H 1567.39 1.79349 0.762887 0
M  V30 16035 H 1566.48 2.16954 2.2436 0
M  V30 16036 N 1566.79 -0.886131 1.30328 0
M  V30 16037 C 1568.2 -1.45328 1.17203 0
M  V30 16038 C 1568.55 -1.94874 -0.227719 0
M  V30 16039 O 1567.67 -1.84901 -1.12431 0
M  V30 16040 C 1568.27 -2.64149 2.12157 0
M  V30 16041 C 1566.83 -3.16958 2.03014 0
M  V30 16042 C 1565.97 -1.89651 2.02306 0
M  V30 16043 H 1568.93 -0.696177 1.42615 0
M  V30 16044 H 1568.95 -3.40325 1.70173 0
M  V30 16045 H 1568.46 -2.28058 3.14024 0
M  V30 16046 H 1566.56 -3.57709 1.04285 0
M  V30 16047 H 1566.67 -3.80336 2.91344 0
M  V30 16048 H 1565.04 -2.07933 1.47091 0
M  V30 16049 H 1565.82 -1.5582 3.05901 0
M  V30 16050 N 1568.26 -1.13026 -1.09832 0
M  V30 16051 C 1569.49 -0.912803 -1.86233 0
M  V30 16052 C 1569.91 0.532955 -1.80392 0
M  V30 16053 O 1569.27 1.37783 -1.17837 0
M  V30 16054 C 1569.32 -1.40002 -3.32313 0
M  V30 16055 O 1568.42 -0.582537 -4.08265 0
M  V30 16056 H 1567.77 -0.327464 -0.577636 0
M  V30 16057 H 1570.3 -1.5039 -1.38723 0
M  V30 16058 H 1570.31 -1.40182 -3.83162 0
M  V30 16059 H 1568.98 -2.4527 -3.3588 0
M  V30 16060 H 1567.56 -0.648255 -3.67222 0
M  V30 16061 N 1569.74 1.27735 -0.923117 0
M  V30 16062 C 1571.15 1.76579 -0.606376 0
M  V30 16063 C 1571.5 1.75437 0.878428 0
M  V30 16064 O 1570.63 1.35495 1.68731 0
M  V30 16065 C 1571.22 3.20652 -1.09396 0
M  V30 16066 C 1569.78 3.67181 -0.827974 0
M  V30 16067 C 1568.93 2.47259 -1.25532 0
M  V30 16068 H 1571.88 1.14067 -1.10338 0
M  V30 16069 H 1571.9 3.77952 -0.439581 0
M  V30 16070 H 1571.41 3.21451 -2.17465 0
M  V30 16071 H 1569.52 3.71832 0.239098 0
M  V30 16072 H 1569.63 4.56875 -1.44229 0
M  V30 16073 H 1567.99 2.45622 -0.673928 0
M  V30 16074 H 1568.78 2.50771 -2.34455 0
M  V30 16075 N 1571.22 0.688118 1.41784 0
M  V30 16076 C 1572.64 0.358943 1.55511 0
M  V30 16077 C 1572.84 -1.13469 1.66514 0
M  V30 16078 O 1571.89 -1.92039 1.63943 0
M  V30 16079 C 1573.21 1.10094 2.79821 0
M  V30 16080 C 1574.75 1.08456 2.93609 0
M  V30 16081 C 1575.23 1.80815 4.20797 0
M  V30 16082 N 1576.72 1.77748 4.27738 0
M  V30 16083 C 1577.45 2.30581 5.24995 0
M  V30 16084 N 1576.95 2.91854 6.28326 0
M  V30 16085 N 1578.74 2.2088 5.16884 0
M  V30 16086 H 1570.89 1.65695 1.32886 0
M  V30 16087 H 1573.16 0.698818 0.640592 0
M  V30 16088 H 1572.86 2.15589 2.77874 0
M  V30 16089 H 1572.74 0.674713 3.71117 0
M  V30 16090 H 1575.12 0.0378955 2.95076 0
M  V30 16091 H 1575.21 1.54978 2.03508 0
M  V30 16092 H 1574.85 2.85457 4.20092 0
M  V30 16093 H 1574.78 1.31732 5.09857 0
M  V30 16094 H 1577.27 1.33069 3.53696 0
M  V30 16095 H 1577.58 3.29755 6.98915 0
M  V30 16096 H 1575.93 2.95929 6.28849 0
M  V30 16097 H 1579.12 1.72689 4.35082 0
M  V30 16098 H 1579.29 2.62359 5.92513 0
M  V30 16099 N 1572.7 -1.51554 0.432352 0
M  V30 16100 C 1573.94 -2.02344 -0.13598 0
M  V30 16101 C 1574.28 -1.31619 -1.42794 0
M  V30 16102 O 1573.55 -0.42957 -1.89697 0
M  V30 16103 C 1573.84 -3.58297 -0.359865 0
M  V30 16104 C 1573.69 -4.39645 0.950399 0
M  V30 16105 C 1575.01 -4.25297 -1.13184 0
M  V30 16106 H 1572.13 -0.735439 -0.0479461 0
M  V30 16107 H 1574.77 -1.81237 0.570373 0
M  V30 16108 H 1572.92 -3.76413 -0.961547 0
M  V30 16109 H 1574.59 -4.3319 1.58568 0
M  V30 16110 H 1572.83 -4.04928 1.55614 0
M  V30 16111 H 1573.5 -5.46911 0.747852 0
M  V30 16112 H 1575.98 -4.11421 -0.622231 0
M  V30 16113 H 1574.86 -5.34307 -1.25726 0
M  V30 16114 H 1575.12 -3.85818 -2.15862 0
M  V30 16115 N 1574.18 -0.163538 -1.56749 0
M  V30 16116 C 1575.14 0.755801 -2.1638 0
M  V30 16117 C 1576.14 1.16359 -1.10982 0
M  V30 16118 O 1577.33 1.08182 -1.36537 0
M  V30 16119 C 1574.46 2.02775 -2.74035 0
M  V30 16120 H 1575.65 0.23681 -2.98964 0
M  V30 16121 H 1573.21 0.0859925 -1.56063 0
M  V30 16122 H 1573.94 2.59002 -1.95163 0
M  V30 16123 H 1573.73 1.74439 -3.5116 0
M  V30 16124 H 1575.22 2.684 -3.19923 0
M  V30 16125 N 1575.65 1.57214 0.110213 0
M  V30 16126 C 1576.9 1.84498 0.815059 0
M  V30 16127 C 1577.22 0.750531 1.80628 0
M  V30 16128 O 1578.42 0.910042 2.55794 0
M  V30 16129 C 1576.88 3.27138 1.50028 0
M  V30 16130 C 1576.49 4.44616 0.549603 0
M  V30 16131 C 1578.23 3.63662 2.18975 0
M  V30 16132 C 1576.14 5.78285 1.23855 0
M  V30 16133 H 1575.07 0.688165 0.308132 0
M  V30 16134 H 1577.72 1.83374 0.0678595 0
M  V30 16135 H 1576.1 3.22758 2.29441 0
M  V30 16136 H 1577.27 4.60312 -0.211944 0
M  V30 16137 H 1575.59 4.16387 -0.0333571 0
M  V30 16138 H 1578.19 4.60804 2.71226 0
M  V30 16139 H 1578.53 2.91532 2.97178 0
M  V30 16140 H 1579.06 3.69865 1.46439 0
M  V30 16141 H 1575.8 6.53608 0.497629 0
M  V30 16142 H 1575.32 5.66459 1.9719 0
M  V30 16143 H 1577 6.22338 1.76929 0
M  V30 16144 N 1577.13 -0.380637 1.52934 0
M  V30 16145 C 1578.06 -1.47174 1.81279 0
M  V30 16146 C 1579.04 -1.56549 0.665319 0
M  V30 16147 O 1580.23 -1.71362 0.913722 0
M  V30 16148 C 1577.36 -2.84691 1.98918 0
M  V30 16149 C 1576.31 -2.90151 3.14637 0
M  V30 16150 C 1575.64 -4.30198 3.17544 0
M  V30 16151 C 1576.94 -2.59037 4.53539 0
M  V30 16152 H 1578.63 -1.23703 2.7265 0
M  V30 16153 H 1576.18 -0.593654 1.31194 0
M  V30 16154 H 1578.13 -3.61034 2.1733 0
M  V30 16155 H 1576.86 -3.09517 1.04244 0
M  V30 16156 H 1575.51 -2.16257 2.96021 0
M  V30 16157 H 1575.16 -4.52076 2.20536 0
M  V30 16158 H 1574.86 -4.3477 3.95284 0
M  V30 16159 H 1576.39 -5.08435 3.38121 0
M  V30 16160 H 1577.8 -3.25096 4.72214 0
M  V30 16161 H 1576.2 -2.74946 5.33408 0
M  V30 16162 H 1577.27 -1.54342 4.59681 0
M  V30 16163 N 1578.61 -1.44039 -0.639573 0
M  V30 16164 C 1580.03 -1.2774 -0.956802 0
M  V30 16165 C 1580.23 -0.207018 -2.00434 0
M  V30 16166 O 1579.28 0.409954 -2.4915 0
M  V30 16167 C 1580.6 -2.64624 -1.42809 0
M  V30 16168 C 1582.14 -2.72266 -1.54402 0
M  V30 16169 C 1582.62 -4.09601 -2.04918 0
M  V30 16170 N 1584.11 -4.11735 -2.122 0
M  V30 16171 C 1584.84 -5.14842 -2.52439 0
M  V30 16172 N 1584.34 -6.28316 -2.91875 0
M  V30 16173 N 1586.13 -5.02196 -2.52499 0
M  V30 16174 H 1578.28 -2.12333 0.0533569 0
M  V30 16175 H 1580.55 -0.947208 -0.0387401 0
M  V30 16176 H 1580.25 -3.43983 -0.732728 0
M  V30 16177 H 1580.13 -2.90944 -2.40066 0
M  V30 16178 H 1582.51 -1.93232 -2.23037 0
M  V30 16179 H 1582.6 -2.49697 -0.555426 0
M  V30 16180 H 1582.24 -4.89108 -1.3688 0
M  V30 16181 H 1582.17 -4.29542 -3.04633 0
M  V30 16182 H 1584.66 -3.29833 -1.84441 0
M  V30 16183 H 1584.97 -7.0281 -3.21368 0
M  V30 16184 H 1583.32 -6.31767 -2.89647 0
M  V30 16185 H 1586.51 -4.12606 -2.21075 0
M  V30 16186 H 1586.68 -5.82677 -2.83535 0
M  V30 16187 N 1580.09 0.879207 -1.30796 0
M  V30 16188 C 1581 2.01822 -1.19604 0
M  V30 16189 C 1582.01 1.73621 -0.114715 0
M  V30 16190 O 1583.19 1.98665 -0.330757 0
M  V30 16191 C 1580.26 3.3496 -0.894569 0
M  V30 16192 C 1579.32 3.76545 -2.06185 0
M  V30 16193 C 1578.55 5.0333 -1.77467 0
M  V30 16194 O 1578.77 5.66022 -0.70535 0
M  V30 16195 O 1577.71 5.41461 -2.62876 0
M  V30 16196 H 1581.53 2.14194 -2.15301 0
M  V30 16197 H 1579.12 1.00608 -1.10446 0
M  V30 16198 H 1581 4.14818 -0.741891 0
M  V30 16199 H 1579.67 3.23684 0.0324464 0
M  V30 16200 H 1578.58 2.97367 -2.26988 0
M  V30 16201 H 1579.91 3.92434 -2.97079 0
M  V30 16202 N 1581.57 1.13606 1.09231 0
M  V30 16203 C 1582.48 0.828702 2.19476 0
M  V30 16204 C 1583.49 -0.187499 1.72987 0
M  V30 16205 O 1584.67 -0.0180602 2.01392 0
M  V30 16206 C 1581.73 0.301361 3.45388 0
M  V30 16207 C 1580.8 1.37906 4.06547 0
M  V30 16208 C 1580.03 0.876786 5.26449 0
M  V30 16209 O 1580.25 -0.284896 5.69688 0
M  V30 16210 O 1579.19 1.652 5.78785 0
M  V30 16211 H 1583.01 1.74982 2.48223 0
M  V30 16212 H 1580.6 0.913673 1.18205 0
M  V30 16213 H 1582.48 0.0127792 4.21398 0
M  V30 16214 H 1581.15 -0.592149 3.18238 0
M  V30 16215 H 1580.06 1.72098 3.32164 0
M  V30 16216 H 1581.39 2.24678 4.37927 0
M  V30 16217 N 1583.05 -1.27244 0.929878 0
M  V30 16218 C 1584.29 -1.93886 0.570331 0
M  V30 16219 C 1584.61 -1.7342 -0.891656 0
M  V30 16220 O 1583.88 -1.0832 -1.63228 0
M  V30 16221 H 1582.46 -0.717476 0.207937 0
M  V30 16222 H 1585.13 -1.5491 1.18275 0
M  V30 16223 H 1584.22 -3.02236 0.778463 0
M  V30 16224 N 1584.52 -0.695628 -1.41417 0
M  V30 16225 C 1585.75 -0.234163 -2.06074 0
M  V30 16226 C 1586.17 1.10796 -1.52006 0
M  V30 16227 O 1585.53 1.6936 -0.64705 0
M  V30 16228 C 1585.58 -0.202353 -3.60032 0
M  V30 16229 O 1584.68 0.822767 -4.04109 0
M  V30 16230 H 1584.02 -0.114395 -0.654072 0
M  V30 16231 H 1586.55 -0.950503 -1.81181 0
M  V30 16232 H 1586.56 -0.0332321 -4.07986 0
M  V30 16233 H 1585.24 -1.18188 -3.98754 0
M  V30 16234 H 1583.82 0.622995 -3.67659 0
M  V30 16235 N 1586 1.51322 -0.440383 0
M  V30 16236 C 1586.95 2.2941 0.383883 0
M  V30 16237 C 1587.94 1.35388 1.01816 0
M  V30 16238 O 1589.15 1.52716 0.952775 0
M  V30 16239 H 1585.52 0.738354 0.142611 0
M  V30 16240 H 1587.5 2.96933 -0.295532 0
M  V30 16241 C 1586.24 3.15055 1.47091 0
M  V30 16242 H 1585.57 3.87292 0.992214 0
M  V30 16243 H 1587.01 3.72744 2.02084 0
M  V30 16244 C 1585.47 2.30628 2.45586 0
M  V30 16245 O 1586 1.96801 3.50189 0
M  V30 16246 N 1584.2 1.93792 2.16548 0
M  V30 16247 H 1583.75 2.215 1.31512 0
M  V30 16248 H 1583.71 1.37601 2.82689 0
M  V30 16249 N 1587.48 0.171848 1.5666 0
M  V30 16250 C 1588.73 -0.472034 1.9651 0
M  V30 16251 C 1589.05 -1.63743 1.05893 0
M  V30 16252 O 1588.32 -1.95498 0.125396 0
M  V30 16253 H 1586.9 -0.177377 0.725635 0
M  V30 16254 H 1589.56 0.253155 1.93249 0
M  V30 16255 H 1588.66 -0.831693 3.00814 0
M  V30 16256 N 1588.96 -1.5727 -0.101874 0
M  V30 16257 C 1590.23 -1.76745 -0.837888 0
M  V30 16258 C 1590.61 -0.751766 -1.9726 0
M  V30 16259 O 1589.96 0.221046 -2.27428 0
M  V30 16260 C 1590.17 -3.22302 -1.33875 0
M  V30 16261 C 1591.52 -3.85292 -1.78425 0
M  V30 16262 O 1592.54 -3.2601 -1.43514 0
M  V30 16263 O 1591.4 -4.89526 -2.42953 0
M  V30 16264 H 1588.5 -0.724294 -0.399157 0
M  V30 16265 H 1591.04 -1.69491 -0.0842821 0
M  V30 16266 H 1589.82 -3.87756 -0.525434 0
M  V30 16267 H 1589.44 -3.34162 -2.15456 0
M  V30 16268 N 1590.44 0.372521 -1.53134 0
M  V30 16269 C 1591.85 0.713727 -1.42752 0
M  V30 16270 C 1592.05 1.93532 -0.561051 0
M  V30 16271 O 1591.11 2.52467 -0.0408195 0
M  V30 16272 C 1592.42 0.933418 -2.85846 0
M  V30 16273 C 1593.97 1.03386 -2.95432 0
M  V30 16274 C 1594.44 1.28607 -4.39573 0
M  V30 16275 N 1595.93 1.35393 -4.42971 0
M  V30 16276 C 1596.67 1.56604 -5.516 0
M  V30 16277 N 1596.17 1.75178 -6.70287 0
M  V30 16278 N 1597.96 1.58917 -5.39168 0
M  V30 16279 H 1590.11 -0.431068 -2.0798 0
M  V30 16280 H 1592.37 -0.130757 -0.938939 0
M  V30 16281 H 1592.08 0.107707 -3.51535 0
M  V30 16282 H 1591.95 1.84348 -3.29083 0
M  V30 16283 H 1594.34 1.85012 -2.29901 0
M  V30 16284 H 1594.42 0.101346 -2.55599 0
M  V30 16285 H 1594.06 0.47485 -5.05675 0
M  V30 16286 H 1593.99 2.2317 -4.76973 0
M  V30 16287 H 1596.49 1.22681 -3.57432 0
M  V30 16288 H 1596.8 1.90916 -7.48846 0
M  V30 16289 H 1595.14 1.7237 -6.73286 0
M  V30 16290 H 1598.33 1.4397 -4.4541 0
M  V30 16291 H 1598.51 1.75108 -6.23892 0
M  V30 16292 N 1591.91 1.44376 0.631925 0
M  V30 16293 C 1592.82 1.5367 1.77264 0
M  V30 16294 C 1593.84 0.422425 1.68794 0
M  V30 16295 O 1595.02 0.679656 1.89585 0
M  V30 16296 C 1592.08 1.47743 3.13644 0
M  V30 16297 C 1591.14 2.70015 3.33752 0
M  V30 16298 C 1590.37 2.64362 4.63626 0
M  V30 16299 O 1590.6 1.7032 5.44378 0
M  V30 16300 O 1589.53 3.55201 4.85918 0
M  V30 16301 H 1593.36 2.5004 1.72376 0
M  V30 16302 H 1590.94 1.26614 0.793052 0
M  V30 16303 H 1592.82 1.46958 3.94945 0
M  V30 16304 H 1591.5 0.545165 3.19076 0
M  V30 16305 H 1590.41 2.76369 2.52133 0
M  V30 16306 H 1591.74 3.62286 3.33181 0
M  V30 16307 N 1593.39 -0.872258 1.31261 0
M  V30 16308 C 1594.32 -1.98231 1.13047 0
M  V30 16309 C 1595.3 -1.62563 0.0345979 0
M  V30 16310 O 1596.49 -1.87534 0.190586 0
M  V30 16311 C 1593.61 -3.30809 0.726841 0
M  V30 16312 C 1592.66 -3.85461 1.82542 0
M  V30 16313 S 1593.49 -4.11197 3.43041 0
M  V30 16314 C 1594.65 -5.46776 3.0461 0
M  V30 16315 H 1594.88 -2.13377 2.07021 0
M  V30 16316 H 1592.41 -1.02217 1.1572 0
M  V30 16317 H 1594.37 -4.07435 0.500707 0
M  V30 16318 H 1593.03 -3.13502 -0.193741 0
M  V30 16319 H 1592.23 -4.81299 1.49558 0
M  V30 16320 H 1591.83 -3.1562 2.0065 0
M  V30 16321 H 1594.12 -6.28343 2.53361 0
M  V30 16322 H 1595.06 -5.84708 3.99402 0
M  V30 16323 H 1595.47 -5.09941 2.42116 0
M  V30 16324 N 1594.87 -1.14184 -1.08627 0
M  V30 16325 C 1595.83 -0.82954 -2.13662 0
M  V30 16326 C 1596.83 0.164794 -1.59953 0
M  V30 16327 O 1598.02 -0.0632831 -1.74085 0
M  V30 16328 C 1595.15 -0.236176 -3.40081 0
M  V30 16329 H 1596.35 -1.76038 -2.42797 0
M  V30 16330 H 1593.9 -0.947568 -1.24301 0
M  V30 16331 H 1594.64 0.70349 -3.16578 0
M  V30 16332 H 1594.42 -0.952341 -3.80359 0
M  V30 16333 H 1595.91 -0.03481 -4.17585 0
M  V30 16334 N 1596.35 1.26749 -0.936613 0
M  V30 16335 C 1597.63 1.89106 -0.49981 0
M  V30 16336 C 1598.01 1.84687 1.02244 0
M  V30 16337 O 1597.35 1.2981 1.88047 0
M  V30 16338 C 1597.56 3.32641 -1.05598 0
M  V30 16339 C 1598.91 4.09511 -1.12187 0
M  V30 16340 O 1599.94 3.41692 -1.00624 0
M  V30 16341 O 1598.79 5.30785 -1.30113 0
M  V30 16342 H 1595.89 0.810941 -0.162185 0
M  V30 16343 H 1598.43 1.34952 -1.02888 0
M  V30 16344 H 1597.21 3.30196 -2.09968 0
M  V30 16345 H 1596.83 3.94327 -0.509086 0
M  V30 16346 N 1597.83 0.703118 1.41046 0
M  V30 16347 C 1598.79 0.0514476 2.29142 0
M  V30 16348 C 1599.79 -0.700223 1.44753 0
M  V30 16349 O 1600.98 -0.533985 1.65814 0
M  V30 16350 C 1598.11 -0.93735 3.2776 0
M  V30 16351 H 1599.3 0.827201 2.88266 0
M  V30 16352 H 1596.86 0.467045 1.49159 0
M  V30 16353 H 1597.59 -1.7406 2.7363 0
M  V30 16354 H 1597.38 -0.4014 3.9004 0
M  V30 16355 H 1598.87 -1.39088 3.93757 0
M  V30 16356 N 1599.3 -1.51086 0.448402 0
M  V30 16357 C 1600.55 -2.02177 -0.114342 0
M  V30 16358 C 1600.88 -1.3319 -1.41742 0
M  V30 16359 O 1600.13 -0.439101 -1.9071 0
M  V30 16360 C 1600.43 -3.55488 -0.369232 0
M  V30 16361 C 1600.1 -4.42828 0.849372 0
M  V30 16362 C 1598.76 -4.66418 1.18354 0
M  V30 16363 C 1601.11 -4.93998 1.66179 0
M  V30 16364 C 1598.44 -5.38424 2.33059 0
M  V30 16365 C 1600.79 -5.67262 2.79994 0
M  V30 16366 C 1599.46 -5.89113 3.13851 0
M  V30 16367 H 1598.73 -0.739818 -0.0418407 0
M  V30 16368 H 1601.37 -1.81928 0.597857 0
M  V30 16369 H 1599.68 -3.74127 -1.16344 0
M  V30 16370 H 1601.38 -3.92563 -0.818248 0
M  V30 16371 H 1597.97 -4.24671 0.578998 0
M  V30 16372 H 1602.15 -4.75647 1.41683 0
M  V30 16373 H 1597.41 -5.53554 2.59592 0
M  V30 16374 H 1601.58 -6.05899 3.43307 0
M  V30 16375 H 1599.21 -6.44686 4.02844 0
M  V30 16376 N 1600.78 -0.180154 -1.56567 0
M  V30 16377 C 1601.73 0.759144 -2.14991 0
M  V30 16378 C 1602.72 1.18672 -1.08654 0
M  V30 16379 O 1603.91 1.14761 -1.34755 0
M  V30 16380 C 1601.04 1.98473 -2.80113 0
M  V30 16381 C 1600.12 1.57874 -3.9362 0
M  V30 16382 N 1600.51 0.882825 -4.98036 0
M  V30 16383 C 1598.81 1.86913 -4.04944 0
M  V30 16384 C 1599.51 0.681573 -5.77693 0
M  V30 16385 N 1598.49 1.22573 -5.29601 0
M  V30 16386 H 1602.29 0.218574 -2.93086 0
M  V30 16387 H 1599.81 0.0202002 -1.62387 0
M  V30 16388 H 1601.8 2.66797 -3.20351 0
M  V30 16389 H 1600.46 2.53017 -2.03501 0
M  V30 16390 H 1601.47 0.539906 -5.15078 0
M  V30 16391 H 1598.15 2.43071 -3.39445 0
M  V30 16392 H 1599.54 0.130602 -6.71773 0
M  V30 16393 N 1602.26 1.57322 0.0935319 0
M  V30 16394 C 1603.19 2.05208 1.11409 0
M  V30 16395 C 1604.17 0.941295 1.41681 0
M  V30 16396 O 1605.36 1.21266 1.51684 0
M  V30 16397 C 1602.49 2.47782 2.43354 0
M  V30 16398 C 1601.44 3.62538 2.27486 0
M  V30 16399 C 1600.77 3.91095 3.64622 0
M  V30 16400 C 1602.07 4.93371 1.71412 0
M  V30 16401 H 1603.76 2.9072 0.715702 0
M  V30 16402 H 1601.31 1.3986 0.342827 0
M  V30 16403 H 1603.26 2.79891 3.15022 0
M  V30 16404 H 1601.98 1.59272 2.85132 0
M  V30 16405 H 1600.64 3.30679 1.58263 0
M  V30 16406 H 1600.29 2.99749 4.0393 0
M  V30 16407 H 1599.99 4.68353 3.5485 0
M  V30 16408 H 1601.51 4.25679 4.37755 0
M  V30 16409 H 1602.93 5.23851 2.32922 0
M  V30 16410 H 1601.33 5.74804 1.72395 0
M  V30 16411 H 1602.4 4.80197 0.67368 0
M  V30 16412 N 1603.74 -0.364395 1.53329 0
M  V30 16413 C 1604.7 -1.42927 1.79178 0
M  V30 16414 C 1605.7 -1.4653 0.662235 0
M  V30 16415 O 1606.89 -1.4727 0.930442 0
M  V30 16416 C 1604.02 -2.82035 1.91492 0
M  V30 16417 H 1605.22 -1.21281 2.74283 0
M  V30 16418 H 1602.77 -0.597596 1.44425 0
M  V30 16419 H 1603.5 -3.08993 0.984579 0
M  V30 16420 H 1603.29 -2.80818 2.73649 0
M  V30 16421 H 1604.78 -3.59148 2.13078 0
M  V30 16422 N 1605.22 -1.44709 -0.62426 0
M  V30 16423 C 1606.46 -1.47561 -1.38094 0
M  V30 16424 C 1606.79 -0.112115 -1.94677 0
M  V30 16425 O 1606.06 0.856458 -1.76186 0
M  V30 16426 H 1604.64 -0.543368 -0.512601 0
M  V30 16427 H 1607.3 -1.8054 -0.734258 0
M  V30 16428 H 1606.39 -2.20496 -2.2088 0
M  V30 16429 N 1606.69 0.865285 -1.31722 0
M  V30 16430 C 1607.94 1.61868 -1.21675 0
M  V30 16431 C 1608.27 1.93206 0.223988 0
M  V30 16432 O 1607.52 1.5657 1.17407 0
M  V30 16433 C 1607.82 2.95462 -2.0109 0
M  V30 16434 C 1607.49 2.83598 -3.50547 0
M  V30 16435 C 1606.15 2.80069 -3.91299 0
M  V30 16436 C 1608.5 2.70295 -4.45635 0
M  V30 16437 C 1605.83 2.61102 -5.25398 0
M  V30 16438 C 1608.18 2.52864 -5.79864 0
M  V30 16439 C 1606.85 2.47722 -6.19831 0
M  V30 16440 H 1606.12 0.592319 -0.445241 0
M  V30 16441 H 1608.76 1.00456 -1.63036 0
M  V30 16442 H 1607.07 3.60935 -1.52424 0
M  V30 16443 H 1608.77 3.52756 -1.90693 0
M  V30 16444 H 1605.36 2.87164 -3.18175 0
M  V30 16445 H 1609.54 2.72073 -4.15078 0
M  V30 16446 H 1604.8 2.55549 -5.55432 0
M  V30 16447 H 1608.97 2.41548 -6.53167 0
M  V30 16448 H 1606.6 2.32784 -7.23682 0
M  V30 16449 N 1608.17 1.14759 1.0802 0
M  V30 16450 C 1609.08 0.851934 2.18585 0
M  V30 16451 C 1610.1 -0.16914 1.73176 0
M  V30 16452 O 1611.27 0.00330114 2.014 0
M  V30 16453 C 1608.34 0.337977 3.45049 0
M  V30 16454 C 1607.4 1.4221 4.05061 0
M  V30 16455 C 1606.63 0.932574 5.25489 0
M  V30 16456 O 1606.86 -0.224457 5.69958 0
M  V30 16457 O 1605.79 1.7133 5.77001 0
M  V30 16458 H 1609.62 1.77605 2.46354 0
M  V30 16459 H 1607.2 0.926159 1.17229 0
M  V30 16460 H 1609.08 0.0574734 4.21361 0
M  V30 16461 H 1607.76 -0.558363 3.18848 0
M  V30 16462 H 1606.67 1.75612 3.3032 0
M  V30 16463 H 1608 2.29311 4.3552 0
M  V30 16464 N 1609.65 -1.26251 0.943322 0
M  V30 16465 C 1610.9 -1.93939 0.592909 0
M  V30 16466 C 1611.23 -1.73814 -0.866155 0
M  V30 16467 O 1610.5 -1.07645 -1.61997 0
M  V30 16468 C 1610.79 -3.47653 0.938601 0
M  V30 16469 C 1610.64 -3.77053 2.45257 0
M  V30 16470 C 1611.96 -4.37736 0.455546 0
M  V30 16471 H 1609.08 -0.704367 0.21688 0
M  V30 16472 H 1611.72 -1.4908 1.17793 0
M  V30 16473 H 1609.87 -3.85992 0.440756 0
M  V30 16474 H 1611.54 -3.48417 3.0233 0
M  V30 16475 H 1609.79 -3.23055 2.89513 0
M  V30 16476 H 1610.46 -4.84506 2.64495 0
M  V30 16477 H 1612.93 -4.06635 0.882435 0
M  V30 16478 H 1611.81 -5.44075 0.72623 0
M  V30 16479 H 1612.07 -4.37377 -0.644508 0
M  V30 16480 N 1611.13 -0.710588 -1.40671 0
M  V30 16481 C 1612.38 -0.257123 -2.01768 0
M  V30 16482 C 1612.73 1.13545 -1.55323 0
M  V30 16483 O 1612.02 1.75831 -0.761183 0
M  V30 16484 C 1612.22 -0.270478 -3.56375 0
M  V30 16485 C 1612.05 -1.66282 -4.17828 0
M  V30 16486 C 1610.82 -2.26928 -4.51478 0
M  V30 16487 C 1613.01 -2.61216 -4.43025 0
M  V30 16488 N 1611 -3.58569 -4.98298 0
M  V30 16489 C 1612.37 -3.77557 -4.91783 0
M  V30 16490 C 1614.42 -2.59291 -4.25056 0
M  V30 16491 C 1613.13 -4.92274 -5.24461 0
M  V30 16492 C 1615.15 -3.73132 -4.58831 0
M  V30 16493 C 1614.51 -4.88205 -5.07775 0
M  V30 16494 H 1610.61 -0.13981 -0.7694 0
M  V30 16495 H 1613.2 -0.931308 -1.70982 0
M  V30 16496 H 1611.37 0.373251 -3.86602 0
M  V30 16497 H 1613.1 0.199227 -4.04209 0
M  V30 16498 H 1609.85 -1.79072 -4.38441 0
M  V30 16499 H 1610.28 -4.26088 -5.26097 0
M  V30 16500 H 1614.92 -1.71533 -3.86441 0
M  V30 16501 H 1612.64 -5.80681 -5.61992 0
M  V30 16502 H 1616.22 -3.72912 -4.46573 0
M  V30 16503 H 1615.1 -5.74835 -5.33418 0
M  V30 16504 N 1612.61 1.50847 -0.456408 0
M  V30 16505 C 1613.88 1.94907 0.164485 0
M  V30 16506 C 1614.26 1.39609 1.58343 0
M  V30 16507 O 1613.61 0.590971 2.20726 0
M  V30 16508 C 1613.82 3.48784 0.122794 0
M  V30 16509 C 1615.17 4.234 0.318964 0
M  V30 16510 O 1616.19 3.55638 0.20005 0
M  V30 16511 O 1615.05 5.43649 0.557507 0
M  V30 16512 H 1612.15 0.818298 0.119652 0
M  V30 16513 H 1614.69 1.61673 -0.515758 0
M  V30 16514 H 1613.47 3.81541 -0.868468 0
M  V30 16515 H 1613.09 3.88514 0.84513 0
M  V30 16516 N 1614.09 0.188454 1.56469 0
M  V30 16517 C 1615.33 -0.452728 1.97682 0
M  V30 16518 C 1615.66 -1.61729 1.07506 0
M  V30 16519 O 1614.94 -1.94094 0.125677 0
M  V30 16520 C 1615.22 -0.919257 3.48169 0
M  V30 16521 C 1615.08 0.246656 4.49123 0
M  V30 16522 C 1616.39 -1.78706 4.02184 0
M  V30 16523 H 1613.51 -0.16309 0.718729 0
M  V30 16524 H 1616.16 0.27804 1.87955 0
M  V30 16525 H 1614.31 -1.54195 3.5659 0
M  V30 16526 H 1615.98 0.884178 4.52747 0
M  V30 16527 H 1614.22 0.89948 4.24372 0
M  V30 16528 H 1614.89 -0.122179 5.51865 0
M  V30 16529 H 1617.37 -1.26196 3.96502 0
M  V30 16530 H 1616.24 -2.08247 5.07863 0
M  V30 16531 H 1616.5 -2.73891 3.47039 0
M  V30 16532 N 1615.56 -1.5737 -0.0851874 0
M  V30 16533 C 1616.79 -1.90802 -0.800137 0
M  V30 16534 C 1617.21 -0.783132 -1.71792 0
M  V30 16535 O 1616.56 0.244331 -1.80857 0
M  V30 16536 C 1616.61 -3.2391 -1.60513 0
M  V30 16537 O 1616.34 -4.32072 -0.724253 0
M  V30 16538 C 1617.84 -3.7127 -2.42226 0
M  V30 16539 H 1615.06 -0.630988 -0.228242 0
M  V30 16540 H 1617.6 -2.04414 -0.0594587 0
M  V30 16541 H 1615.76 -3.11867 -2.29822 0
M  V30 16542 H 1616.17 -5.08571 -1.28279 0
M  V30 16543 H 1617.64 -4.67074 -2.94187 0
M  V30 16544 H 1618.12 -2.99606 -3.21143 0
M  V30 16545 H 1618.73 -3.86214 -1.78099 0
M  V30 16546 N 1617.04 0.356258 -1.53521 0
M  V30 16547 C 1617.97 1.45965 -1.75413 0
M  V30 16548 C 1618.95 1.51015 -0.602774 0
M  V30 16549 O 1620.14 1.68925 -0.836459 0
M  V30 16550 C 1617.26 2.84276 -1.84132 0
M  V30 16551 C 1616.31 2.96909 -3.06182 0
M  V30 16552 S 1617.14 2.64695 -4.65507 0
M  V30 16553 C 1618.3 4.05138 -4.77089 0
M  V30 16554 H 1618.53 1.27176 -2.68726 0
M  V30 16555 H 1616.06 0.551163 -1.44227 0
M  V30 16556 H 1618.02 3.63965 -1.89842 0
M  V30 16557 H 1616.68 3.00369 -0.918542 0
M  V30 16558 H 1615.88 3.98226 -3.08921 0
M  V30 16559 H 1615.48 2.25154 -2.98633 0
M  V30 16560 H 1617.77 4.99502 -4.57717 0
M  V30 16561 H 1618.71 4.074 -5.79164 0
M  V30 16562 H 1619.12 3.92572 -4.05644 0
M  V30 16563 N 1618.52 1.45038 0.616577 0
M  V30 16564 C 1619.45 1.49023 1.7414 0
M  V30 16565 C 1620.46 0.381965 1.58256 0
M  V30 16566 O 1621.65 0.648527 1.66302 0
M  V30 16567 C 1618.75 1.32233 3.12038 0
M  V30 16568 C 1617.93 2.5657 3.54246 0
M  V30 16569 C 1616.99 2.34468 4.71075 0
M  V30 16570 O 1616.01 3.08035 4.78647 0
M  V30 16571 N 1617.21 1.38454 5.63747 0
M  V30 16572 H 1619.98 2.45997 1.71189 0
M  V30 16573 H 1617.54 1.40663 0.80159 0
M  V30 16574 H 1619.53 1.15271 3.87936 0
M  V30 16575 H 1618.1 0.435685 3.09549 0
M  V30 16576 H 1617.32 2.88709 2.68404 0
M  V30 16577 H 1618.61 3.39239 3.79203 0
M  V30 16578 H 1618.01 0.777236 5.60335 0
M  V30 16579 H 1616.56 1.27467 6.39215 0
M  V30 16580 N 1620 -0.858287 1.32179 0
M  V30 16581 C 1621.27 -1.59548 1.13154 0
M  V30 16582 C 1621.65 -2.0882 -0.309439 0
M  V30 16583 O 1621 -1.87536 -1.30547 0
M  V30 16584 C 1621.21 -2.74443 2.15597 0
M  V30 16585 C 1622.56 -3.44115 2.48737 0
M  V30 16586 O 1623.58 -2.84664 2.14114 0
M  V30 16587 O 1622.44 -4.51389 3.08074 0
M  V30 16588 H 1619.54 -0.702481 0.436405 0
M  V30 16589 H 1622.08 -0.902731 1.43697 0
M  V30 16590 H 1620.86 -2.35533 3.12473 0
M  V30 16591 H 1620.48 -3.51397 1.86028 0
M  V30 16592 N 1621.48 -1.1533 -1.07409 0
M  V30 16593 C 1622.41 -0.872476 -2.16587 0
M  V30 16594 C 1623.39 0.176683 -1.6918 0
M  V30 16595 O 1624.57 0.0311826 -1.94175 0
M  V30 16596 C 1621.7 -0.360342 -3.45426 0
M  V30 16597 C 1620.66 -1.34611 -4.06281 0
M  V30 16598 C 1619.98 -0.692848 -5.30192 0
M  V30 16599 C 1621.28 -2.71191 -4.46378 0
M  V30 16600 H 1622.98 -1.78546 -2.40336 0
M  V30 16601 H 1620.52 -0.859895 -1.15507 0
M  V30 16602 H 1622.47 -0.151429 -4.21128 0
M  V30 16603 H 1621.2 0.588109 -3.21261 0
M  V30 16604 H 1619.86 -1.54137 -3.32622 0
M  V30 16605 H 1619.51 0.261732 -5.02319 0
M  V30 16606 H 1619.21 -1.35071 -5.71865 0
M  V30 16607 H 1620.73 -0.493695 -6.08601 0
M  V30 16608 H 1622.14 -2.55513 -5.13212 0
M  V30 16609 H 1620.54 -3.33345 -4.99 0
M  V30 16610 H 1621.61 -3.273 -3.57775 0
M  V30 16611 N 1622.95 1.25748 -0.950004 0
M  V30 16612 C 1624.19 1.95089 -0.609896 0
M  V30 16613 C 1624.56 1.72802 0.836865 0
M  V30 16614 O 1625.76 2.36023 1.28634 0
M  V30 16615 C 1624.03 3.44452 -0.953294 0
M  V30 16616 S 1625.59 4.32768 -0.725062 0
M  V30 16617 H 1622.41 0.674683 -0.224331 0
M  V30 16618 H 1625.01 1.52506 -1.2232 0
M  V30 16619 H 1623.71 3.58175 -2.00347 0
M  V30 16620 H 1623.24 3.92013 -0.330062 0
M  V30 16621 H 1625.26 4.94533 0.406435 0
M  V30 16622 N 1624.43 0.718038 1.40292 0
M  V30 16623 C 1625.66 0.266918 2.05675 0
M  V30 16624 C 1626.08 -1.08364 1.53749 0
M  V30 16625 O 1625.44 -1.6831 0.673912 0
M  V30 16626 C 1625.49 0.259606 3.59664 0
M  V30 16627 O 1624.59 -0.758372 4.05367 0
M  V30 16628 H 1623.93 0.124786 0.652169 0
M  V30 16629 H 1626.46 0.979207 1.79646 0
M  V30 16630 H 1626.47 0.098135 4.07882 0
M  V30 16631 H 1625.15 1.24517 3.96823 0
M  V30 16632 H 1623.72 -0.564425 3.68604 0
M  V30 16633 N 1625.91 -1.50602 0.464402 0
M  V30 16634 C 1627.16 -2.01887 -0.0927084 0
M  V30 16635 C 1627.48 -1.34891 -1.40817 0
M  V30 16636 O 1626.75 -0.492078 -1.89619 0
M  V30 16637 H 1625.33 -0.746071 -0.0372514 0
M  V30 16638 H 1627.99 -1.84999 0.613296 0
M  V30 16639 H 1627.09 -3.11105 -0.249067 0
M  V30 16640 N 1627.39 -0.19675 -1.56367 0
M  V30 16641 C 1628.35 0.709734 -2.17934 0
M  V30 16642 C 1629.35 1.13979 -1.13426 0
M  V30 16643 O 1630.54 1.05261 -1.38801 0
M  V30 16644 C 1627.67 1.96917 -2.78274 0
M  V30 16645 H 1628.87 0.173342 -2.99399 0
M  V30 16646 H 1626.42 0.0528698 -1.56211 0
M  V30 16647 H 1627.15 2.54804 -2.00613 0
M  V30 16648 H 1626.94 1.66951 -3.54781 0
M  V30 16649 H 1628.43 2.61554 -3.25545 0
M  V30 16650 N 1628.87 1.57413 0.0768405 0
M  V30 16651 C 1630.12 1.86186 0.775741 0
M  V30 16652 C 1630.43 0.788676 1.78995 0
M  V30 16653 O 1631.63 0.964095 2.53806 0
M  V30 16654 C 1630.09 3.30247 1.43055 0
M  V30 16655 C 1629.7 4.45682 0.45517 0
M  V30 16656 C 1631.44 3.68225 2.11211 0
M  V30 16657 C 1629.35 5.80782 1.11561 0
M  V30 16658 H 1628.28 0.694546 0.293466 0
M  V30 16659 H 1630.93 1.83477 0.0289478 0
M  V30 16660 H 1629.31 3.27552 2.22544 0
M  V30 16661 H 1630.49 4.59759 -0.309535 0
M  V30 16662 H 1628.8 4.16222 -0.121671 0
M  V30 16663 H 1631.4 4.66454 2.6139 0
M  V30 16664 H 1631.74 2.9777 2.90928 0
M  V30 16665 H 1632.27 3.72888 1.38561 0
M  V30 16666 H 1629.01 6.54517 0.358877 0
M  V30 16667 H 1628.53 5.70515 1.8513 0
M  V30 16668 H 1630.21 6.25951 1.63689 0
M  V30 16669 N 1630.34 -0.348112 1.53707 0
M  V30 16670 C 1631.59 -1.08671 1.70396 0
M  V30 16671 C 1631.91 -1.89314 0.467453 0
M  V30 16672 O 1631.18 -1.88911 -0.518605 0
M  V30 16673 H 1629.76 -0.404186 0.628206 0
M  V30 16674 H 1632.43 -0.390491 1.90948 0
M  V30 16675 H 1631.52 -1.76668 2.57284 0
M  V30 16676 N 1631.82 -1.45363 -0.608876 0
M  V30 16677 C 1632.75 -1.56778 -1.7304 0
M  V30 16678 C 1633.73 -0.419405 -1.64848 0
M  V30 16679 O 1634.92 -0.64238 -1.83268 0
M  V30 16680 C 1632.05 -1.5329 -3.1164 0
M  V30 16681 C 1631 -2.66832 -3.34641 0
M  V30 16682 C 1630.33 -2.48398 -4.735 0
M  V30 16683 C 1631.63 -4.0885 -3.25021 0
M  V30 16684 H 1633.32 -2.50656 -1.63743 0
M  V30 16685 H 1630.87 -1.20635 -0.786338 0
M  V30 16686 H 1632.82 -1.59873 -3.89895 0
M  V30 16687 H 1631.55 -0.559414 -3.21773 0
M  V30 16688 H 1630.2 -2.59675 -2.58775 0
M  V30 16689 H 1629.85 -1.49191 -4.80366 0
M  V30 16690 H 1629.55 -3.24537 -4.89846 0
M  V30 16691 H 1631.08 -2.56833 -5.53958 0
M  V30 16692 H 1632.49 -4.17257 -3.93153 0
M  V30 16693 H 1630.89 -4.85369 -3.52897 0
M  V30 16694 H 1631.96 -4.30849 -2.2248 0
M  V30 16695 N 1633.3 0.851265 -1.32632 0
M  V30 16696 C 1634.58 1.58945 -1.13999 0
M  V30 16697 C 1634.96 2.08981 0.29836 0
M  V30 16698 O 1634.31 1.88226 1.2955 0
M  V30 16699 C 1634.52 2.73296 -2.17049 0
M  V30 16700 C 1635.86 3.42791 -2.50559 0
M  V30 16701 O 1636.89 2.83524 -2.15621 0
M  V30 16702 O 1635.75 4.49749 -3.10464 0
M  V30 16703 H 1632.84 0.700157 -0.440124 0
M  V30 16704 H 1635.39 0.895098 -1.44174 0
M  V30 16705 H 1634.16 2.33873 -3.13718 0
M  V30 16706 H 1633.78 3.50405 -1.87888 0
M  V30 16707 N 1634.78 1.15898 1.06796 0
M  V30 16708 C 1636.01 0.961372 1.83208 0
M  V30 16709 C 1636.42 -0.490392 1.8232 0
M  V30 16710 O 1635.78 -1.34025 1.2387 0
M  V30 16711 C 1635.83 1.47486 3.30045 0
M  V30 16712 O 1635.55 2.86976 3.31023 0
M  V30 16713 C 1637.05 1.31955 4.23205 0
M  V30 16714 H 1634.27 0.34109 0.57784 0
M  V30 16715 H 1636.82 1.53805 1.34775 0
M  V30 16716 H 1634.97 0.940586 3.75808 0
M  V30 16717 H 1635.38 3.1038 4.22805 0
M  V30 16718 H 1636.86 1.72721 5.24282 0
M  V30 16719 H 1637.34 0.264439 4.38403 0
M  V30 16720 H 1637.94 1.84319 3.83284 0
M  V30 16721 N 1636.26 -1.25243 0.956659 0
M  V30 16722 C 1637.5 -1.93014 0.612538 0
M  V30 16723 C 1637.83 -1.74908 -0.85073 0
M  V30 16724 O 1637.09 -1.08896 -1.62604 0
M  V30 16725 C 1637.39 -3.4536 0.919849 0
M  V30 16726 C 1637.05 -3.83623 2.36948 0
M  V30 16727 C 1635.71 -3.93779 2.76571 0
M  V30 16728 C 1638.07 -4.02536 3.3108 0
M  V30 16729 C 1635.39 -4.20257 4.09391 0
M  V30 16730 C 1637.75 -4.30507 4.63515 0
M  V30 16731 C 1636.41 -4.3888 5.02932 0
M  V30 16732 H 1635.68 -0.706286 0.224144 0
M  V30 16733 H 1638.33 -1.48748 1.20608 0
M  V30 16734 H 1636.63 -3.9104 0.243941 0
M  V30 16735 H 1638.33 -3.95986 0.632143 0
M  V30 16736 H 1634.92 -3.76275 2.05219 0
M  V30 16737 H 1639.1 -3.94102 3.01657 0
M  V30 16738 H 1634.36 -4.24956 4.39571 0
M  V30 16739 H 1638.53 -4.44087 5.36433 0
M  V30 16740 H 1636.16 -4.59151 6.05875 0
M  V30 16741 N 1637.73 -0.725468 -1.3991 0
M  V30 16742 C 1639.15 -0.400048 -1.54505 0
M  V30 16743 C 1639.35 1.09014 -1.69464 0
M  V30 16744 O 1638.41 1.87624 -1.68977 0
M  V30 16745 C 1639.72 -1.17474 -2.76804 0
M  V30 16746 C 1641.27 -1.16202 -2.9063 0
M  V30 16747 C 1641.74 -1.91908 -4.15855 0
M  V30 16748 N 1643.23 -1.89026 -4.22875 0
M  V30 16749 C 1643.97 -2.4442 -5.18697 0
M  V30 16750 N 1643.46 -3.0841 -6.20367 0
M  V30 16751 N 1645.26 -2.34506 -5.10846 0
M  V30 16752 H 1637.41 -1.6916 -1.28447 0
M  V30 16753 H 1639.67 -0.715556 -0.621839 0
M  V30 16754 H 1639.38 -2.22881 -2.72061 0
M  V30 16755 H 1639.25 -0.772871 -3.69197 0
M  V30 16756 H 1641.64 -0.116116 -2.94871 0
M  V30 16757 H 1641.72 -1.60319 -1.99327 0
M  V30 16758 H 1641.36 -2.96494 -4.12375 0
M  V30 16759 H 1641.29 -1.45204 -5.06185 0
M  V30 16760 H 1643.78 -1.42399 -3.50044 0
M  V30 16761 H 1644.1 -3.48169 -6.89926 0
M  V30 16762 H 1642.44 -3.12497 -6.20782 0
M  V30 16763 H 1645.63 -1.84164 -4.3035 0
M  V30 16764 H 1645.81 -2.77976 -5.85349 0
M  V30 16765 N 1639.21 1.50354 -0.472382 0
M  V30 16766 C 1640.46 2.01934 0.0820006 0
M  V30 16767 C 1640.78 1.35636 1.401 0
M  V30 16768 O 1640.05 0.502127 1.89355 0
M  V30 16769 H 1638.63 0.746258 0.0332943 0
M  V30 16770 H 1641.29 1.84671 -0.623099 0
M  V30 16771 H 1640.39 3.11232 0.232565 0
M  V30 16772 N 1640.69 0.205039 1.56261 0
M  V30 16773 C 1641.94 -0.431735 1.98151 0
M  V30 16774 C 1642.27 -1.60579 1.09215 0
M  V30 16775 O 1641.55 -1.93949 0.146257 0
M  V30 16776 C 1641.83 -0.882278 3.49124 0
M  V30 16777 C 1641.68 0.294278 4.48836 0
M  V30 16778 C 1643 -1.7443 4.04057 0
M  V30 16779 H 1640.12 -0.155457 0.720418 0
M  V30 16780 H 1642.76 0.29796 1.87649 0
M  V30 16781 H 1640.91 -1.50404 3.58205 0
M  V30 16782 H 1642.58 0.932148 4.51784 0
M  V30 16783 H 1640.83 0.94444 4.23394 0
M  V30 16784 H 1641.5 -0.063639 5.51963 0
M  V30 16785 H 1643.97 -1.21983 3.97818 0
M  V30 16786 H 1642.85 -2.02848 5.10043 0
M  V30 16787 H 1643.11 -2.70195 3.49924 0
M  V30 16788 N 1642.17 -1.57451 -0.0684915 0
M  V30 16789 C 1643.13 -2.0293 -1.06545 0
M  V30 16790 C 1644.13 -0.926861 -1.314 0
M  V30 16791 O 1645.32 -1.19164 -1.27065 0
M  V30 16792 C 1642.45 -2.41276 -2.4083 0
M  V30 16793 H 1643.65 -2.92242 -0.673401 0
M  V30 16794 H 1641.2 -1.53107 -0.314307 0
M  V30 16795 H 1641.94 -1.55 -2.8486 0
M  V30 16796 H 1641.72 -3.21727 -2.2413 0
M  V30 16797 H 1643.21 -2.77026 -3.12484 0
M  V30 16798 N 1643.65 0.339955 -1.5389 0
M  V30 16799 C 1644.89 1.07979 -1.71309 0
M  V30 16800 C 1645.22 1.88531 -0.478147 0
M  V30 16801 O 1644.48 1.88099 0.540113 0
M  V30 16802 C 1644.78 2.04572 -2.93062 0
M  V30 16803 C 1644.44 1.40303 -4.28516 0
M  V30 16804 C 1643.1 1.22505 -4.65345 0
M  V30 16805 C 1645.46 0.940364 -5.12647 0
M  V30 16806 C 1642.78 0.570639 -5.83918 0
M  V30 16807 C 1645.14 0.299844 -6.31889 0
M  V30 16808 C 1643.8 0.109575 -6.6741 0
M  V30 16809 H 1643.07 0.395125 -0.626863 0
M  V30 16810 H 1645.72 0.358686 -1.88111 0
M  V30 16811 H 1644.02 2.83077 -2.70878 0
M  V30 16812 H 1645.72 2.61816 -3.03733 0
M  V30 16813 H 1642.31 1.55155 -3.99531 0
M  V30 16814 H 1646.49 1.06571 -4.84723 0
M  V30 16815 H 1641.75 0.411872 -6.10011 0
M  V30 16816 H 1645.92 -0.0667391 -6.96368 0
M  V30 16817 H 1643.55 -0.399556 -7.59149 0
M  V30 16818 N 1645.13 1.45684 0.601159 0
M  V30 16819 C 1646.37 1.50258 1.362 0
M  V30 16820 C 1646.7 0.146358 1.93648 0
M  V30 16821 O 1645.98 -0.839985 1.75427 0
M  V30 16822 C 1646.26 2.5868 2.50513 0
M  V30 16823 C 1646.12 4.03769 1.98219 0
M  V30 16824 C 1647.43 2.63332 3.52624 0
M  V30 16825 H 1644.55 0.547045 0.493873 0
M  V30 16826 H 1647.2 1.77527 0.677068 0
M  V30 16827 H 1645.35 2.35559 3.08941 0
M  V30 16828 H 1647.02 4.3812 1.44391 0
M  V30 16829 H 1645.26 4.14121 1.29174 0
M  V30 16830 H 1645.93 4.75329 2.80653 0
M  V30 16831 H 1648.41 2.84067 3.04048 0
M  V30 16832 H 1647.28 3.41047 4.30091 0
M  V30 16833 H 1647.54 1.68668 4.0866 0
M  V30 16834 N 1646.6 -0.84422 1.33082 0
M  V30 16835 C 1647.85 -1.59596 1.2399 0
M  V30 16836 C 1648.17 -1.94016 -0.19566 0
M  V30 16837 O 1647.44 -1.60512 -1.12306 0
M  V30 16838 H 1646.02 -0.591727 0.455926 0
M  V30 16839 H 1648.68 -1.00924 1.66735 0
M  V30 16840 H 1647.78 -2.52829 1.82986 0
M  V30 16841 N 1648.08 -1.16463 -1.0618 0
M  V30 16842 C 1649.33 -0.944975 -1.78647 0
M  V30 16843 C 1649.65 0.528486 -1.87702 0
M  V30 16844 O 1648.92 1.38391 -1.38653 0
M  V30 16845 H 1647.5 -0.346637 -0.661704 0
M  V30 16846 H 1650.16 -1.46752 -1.28257 0
M  V30 16847 H 1649.26 -1.36469 -2.80683 0
M  V30 16848 N 1649.56 1.24734 -0.963288 0
M  V30 16849 C 1650.81 1.92686 -0.622766 0
M  V30 16850 C 1651.13 1.75357 0.841442 0
M  V30 16851 O 1650.39 1.09757 1.62025 0
M  V30 16852 C 1650.69 3.44867 -0.938151 0
M  V30 16853 C 1650.35 3.82361 -2.38979 0
M  V30 16854 C 1649.02 3.92307 -2.78655 0
M  V30 16855 C 1651.37 4.00775 -3.3321 0
M  V30 16856 C 1648.7 4.1808 -4.11614 0
M  V30 16857 C 1651.05 4.28043 -4.65792 0
M  V30 16858 C 1649.71 4.36207 -5.05252 0
M  V30 16859 H 1648.98 0.705088 -0.227886 0
M  V30 16860 H 1651.63 1.48107 -1.21395 0
M  V30 16861 H 1649.93 3.90905 -0.264676 0
M  V30 16862 H 1651.63 3.95645 -0.653134 0
M  V30 16863 H 1648.22 3.75182 -2.07212 0
M  V30 16864 H 1652.41 3.92497 -3.03743 0
M  V30 16865 H 1647.66 4.22619 -4.41818 0
M  V30 16866 H 1651.84 4.41236 -5.3878 0
M  V30 16867 H 1649.46 4.55931 -6.08301 0
M  V30 16868 N 1651.04 0.732878 1.39523 0
M  V30 16869 C 1652.26 0.288717 2.05381 0
M  V30 16870 C 1652.69 -1.06727 1.5489 0
M  V30 16871 O 1652.05 -1.67585 0.691726 0
M  V30 16872 C 1652.09 0.297738 3.59369 0
M  V30 16873 O 1651.2 -0.715335 4.06149 0
M  V30 16874 H 1650.54 0.131696 0.650809 0
M  V30 16875 H 1653.07 0.998206 1.78597 0
M  V30 16876 H 1653.08 0.141391 4.07755 0
M  V30 16877 H 1651.75 1.28719 3.9548 0
M  V30 16878 H 1650.33 -0.525298 3.69182 0
M  V30 16879 N 1652.52 -1.50101 0.480349 0
M  V30 16880 C 1653.75 -2.06486 -0.0687482 0
M  V30 16881 C 1654.15 -1.34334 -1.33233 0
M  V30 16882 O 1653.5 -0.408976 -1.7909 0
M  V30 16883 C 1653.56 -3.57114 -0.413522 0
M  V30 16884 C 1653.22 -4.50814 0.749361 0
M  V30 16885 C 1654.22 -4.93554 1.63404 0
M  V30 16886 C 1651.9 -4.93382 0.942313 0
M  V30 16887 C 1653.9 -5.77577 2.696 0
M  V30 16888 C 1651.59 -5.77186 2.00748 0
M  V30 16889 C 1652.58 -6.19185 2.88268 0
M  V30 16890 O 1652.27 -7.01317 3.92949 0
M  V30 16891 H 1652 -0.675954 0.00792111 0
M  V30 16892 H 1654.56 -1.94135 0.670863 0
M  V30 16893 H 1652.79 -3.67399 -1.20645 0
M  V30 16894 H 1654.48 -3.95824 -0.89879 0
M  V30 16895 H 1655.24 -4.61329 1.4967 0
M  V30 16896 H 1651.12 -4.60206 0.270534 0
M  V30 16897 H 1654.67 -6.10279 3.37942 0
M  V30 16898 H 1650.56 -6.08824 2.14486 0
M  V30 16899 H 1651.33 -7.19585 3.9005 0
M  V30 16900 N 1653.99 -0.213323 -1.5615 0
M  V30 16901 C 1654.96 0.686579 -2.18675 0
M  V30 16902 C 1655.96 1.1277 -1.14628 0
M  V30 16903 O 1657.15 1.03783 -1.39909 0
M  V30 16904 C 1654.28 1.93954 -2.80347 0
M  V30 16905 H 1655.47 0.141578 -2.99566 0
M  V30 16906 H 1653.02 0.0362987 -1.56258 0
M  V30 16907 H 1653.76 2.52661 -2.03304 0
M  V30 16908 H 1653.54 1.63179 -3.56532 0
M  V30 16909 H 1655.03 2.58087 -3.283 0
M  V30 16910 N 1655.47 1.57485 0.0601405 0
M  V30 16911 C 1656.75 1.78904 0.790732 0
M  V30 16912 C 1657.13 0.803802 1.95198 0
M  V30 16913 O 1656.48 -0.16067 2.27934 0
M  V30 16914 C 1656.69 3.25738 1.25282 0
M  V30 16915 C 1658.04 3.89887 1.68147 0
M  V30 16916 O 1659.06 3.297 1.3482 0
M  V30 16917 O 1657.92 4.95796 2.29889 0
M  V30 16918 H 1655.01 0.734623 0.379814 0
M  V30 16919 H 1657.56 1.69654 0.0393151 0
M  V30 16920 H 1656.33 3.89013 0.422442 0
M  V30 16921 H 1655.95 3.39757 2.06521 0
M  V30 16922 N 1656.95 -0.331789 1.54068 0
M  V30 16923 C 1658.2 -1.07228 1.72134 0
M  V30 16924 C 1658.53 -1.87936 0.489265 0
M  V30 16925 O 1657.8 -1.87592 -0.513761 0
M  V30 16926 C 1658.09 -2.00379 2.99199 0
M  V30 16927 C 1657.94 -1.23056 4.3264 0
M  V30 16928 C 1659.26 -3.00026 3.21982 0
M  V30 16929 H 1656.38 -0.388428 0.626333 0
M  V30 16930 H 1659.02 -0.34971 1.86754 0
M  V30 16931 H 1657.17 -2.61993 2.86865 0
M  V30 16932 H 1658.84 -0.639661 4.56844 0
M  V30 16933 H 1657.09 -0.532717 4.30517 0
M  V30 16934 H 1657.76 -1.91411 5.17751 0
M  V30 16935 H 1660.23 -2.48531 3.33724 0
M  V30 16936 H 1659.11 -3.62395 4.12263 0
M  V30 16937 H 1659.37 -3.72041 2.38826 0
M  V30 16938 N 1658.43 -1.46001 -0.593424 0
M  V30 16939 C 1659.36 -1.58605 -1.71367 0
M  V30 16940 C 1660.34 -0.436866 -1.64394 0
M  V30 16941 O 1661.52 -0.661782 -1.82576 0
M  V30 16942 C 1658.65 -1.56587 -3.09996 0
M  V30 16943 C 1657.61 -2.70366 -3.31792 0
M  V30 16944 C 1656.93 -2.53406 -4.70839 0
M  V30 16945 C 1658.23 -4.12274 -3.20667 0
M  V30 16946 H 1659.93 -2.52379 -1.61076 0
M  V30 16947 H 1657.47 -1.21462 -0.773499 0
M  V30 16948 H 1659.43 -1.64 -3.88178 0
M  V30 16949 H 1658.15 -0.593511 -3.21162 0
M  V30 16950 H 1656.81 -2.62405 -2.56006 0
M  V30 16951 H 1656.46 -1.54278 -4.78756 0
M  V30 16952 H 1656.16 -3.29715 -4.86376 0
M  V30 16953 H 1657.68 -2.62694 -5.51203 0
M  V30 16954 H 1659.1 -4.21404 -3.88705 0
M  V30 16955 H 1657.49 -4.89085 -3.47729 0
M  V30 16956 H 1658.56 -4.33184 -2.17898 0
M  V30 16957 N 1659.91 0.83715 -1.33527 0
M  V30 16958 C 1661.15 1.58937 -1.24834 0
M  V30 16959 C 1661.48 1.94117 0.185368 0
M  V30 16960 O 1660.75 1.61105 1.11453 0
M  V30 16961 H 1659.33 0.589301 -0.459057 0
M  V30 16962 H 1661.99 1.00038 -1.67267 0
M  V30 16963 H 1661.08 2.51855 -1.84325 0
M  V30 16964 N 1661.38 1.17024 1.05561 0
M  V30 16965 C 1662.61 0.981293 1.82717 0
M  V30 16966 C 1663.03 -0.465636 1.82246 0
M  V30 16967 O 1662.39 -1.33315 1.22869 0
M  V30 16968 C 1662.44 1.52239 3.26888 0
M  V30 16969 O 1661.54 0.73366 4.05822 0
M  V30 16970 H 1660.89 0.348677 0.565084 0
M  V30 16971 H 1663.42 1.55435 1.33046 0
M  V30 16972 H 1663.43 1.54306 3.77695 0
M  V30 16973 H 1662.1 2.57567 3.26545 0
M  V30 16974 H 1660.68 0.784101 3.64563 0
M  V30 16975 N 1662.86 -1.24221 0.969889 0
M  V30 16976 C 1663.83 -2.23529 0.506686 0
M  V30 16977 C 1664.83 -1.55797 -0.397968 0
M  V30 16978 O 1666.02 -1.73126 -0.193124 0
M  V30 16979 C 1663.15 -3.39861 -0.265943 0
M  V30 16980 H 1664.34 -2.66022 1.38463 0
M  V30 16981 H 1661.89 -1.36872 0.754698 0
M  V30 16982 H 1662.63 -3.0281 -1.16089 0
M  V30 16983 H 1662.41 -3.90222 0.383286 0
M  V30 16984 H 1663.9 -4.13567 -0.578975 0
M  V30 16985 N 1664.34 -0.740267 -1.39132 0
M  V30 16986 C 1665.29 -0.103744 -2.30567 0
M  V30 16987 C 1666.26 0.724026 -1.49489 0
M  V30 16988 O 1667.44 0.682904 -1.7816 0
M  V30 16989 C 1664.58 0.793587 -3.35851 0
M  V30 16990 C 1663.7 -0.0473671 -4.31974 0
M  V30 16991 C 1662.83 0.851726 -5.24327 0
M  V30 16992 C 1661.87 0.00633633 -6.121 0
M  V30 16993 N 1661.01 0.861652 -6.96793 0
M  V30 16994 H 1665.85 -0.889087 -2.84428 0
M  V30 16995 H 1663.38 -0.450093 -1.40045 0
M  V30 16996 H 1665.34 1.32834 -3.95488 0
M  V30 16997 H 1663.97 1.54485 -2.83433 0
M  V30 16998 H 1663.02 -0.699601 -3.73911 0
M  V30 16999 H 1664.34 -0.700806 -4.93852 0
M  V30 17000 H 1663.49 1.45413 -5.89016 0
M  V30 17001 H 1662.23 1.53893 -4.62783 0
M  V30 17002 H 1661.23 -0.608833 -5.46419 0
M  V30 17003 H 1662.46 -0.677731 -6.7571 0
M  V30 17004 H 1660.4 1.53405 -6.37811 0
M  V30 17005 H 1660.32 0.264812 -7.55536 0
M  V30 17006 H 1661.59 1.44945 -7.65905 0
M  V30 17007 N 1665.82 1.49844 -0.488302 0
M  V30 17008 C 1667.07 2.02009 0.0605782 0
M  V30 17009 C 1667.39 1.37114 1.38653 0
M  V30 17010 O 1666.66 0.522182 1.88812 0
M  V30 17011 H 1665.24 0.746569 0.0253773 0
M  V30 17012 H 1667.9 1.84 -0.64265 0
M  V30 17013 H 1667 3.11461 0.199542 0
M  V30 17014 N 1667.3 0.221601 1.56034 0
M  V30 17015 C 1668.54 -0.403939 1.99349 0
M  V30 17016 C 1668.9 -1.57383 1.10672 0
M  V30 17017 O 1668.19 -1.90958 0.156695 0
M  V30 17018 C 1668.38 -0.887416 3.46208 0
M  V30 17019 C 1668.21 0.234087 4.4909 0
M  V30 17020 C 1666.98 0.700495 5.00421 0
M  V30 17021 C 1669.18 1.05237 5.03418 0
M  V30 17022 N 1667.16 1.79705 5.87009 0
M  V30 17023 C 1668.53 1.99779 5.86931 0
M  V30 17024 C 1670.59 1.0918 4.85782 0
M  V30 17025 C 1669.29 2.97943 6.54693 0
M  V30 17026 C 1671.32 2.06162 5.54302 0
M  V30 17027 C 1670.68 2.99444 6.37584 0
M  V30 17028 H 1666.78 -0.114481 0.773575 0
M  V30 17029 H 1669.36 0.333384 1.91825 0
M  V30 17030 H 1667.53 -1.5941 3.54179 0
M  V30 17031 H 1669.27 -1.48578 3.7644 0
M  V30 17032 H 1666.02 0.289083 4.72717 0
M  V30 17033 H 1666.45 2.34733 6.35003 0
M  V30 17034 H 1671.09 0.384543 4.21048 0
M  V30 17035 H 1668.81 3.69631 7.18609 0
M  V30 17036 H 1672.39 2.09887 5.42622 0
M  V30 17037 H 1671.27 3.73263 6.8967 0
M  V30 17038 N 1668.77 -1.57515 -0.0517878 0
M  V30 17039 C 1669.74 -2.04049 -1.04387 0
M  V30 17040 C 1670.74 -0.940745 -1.30409 0
M  V30 17041 O 1671.93 -1.20505 -1.25794 0
M  V30 17042 C 1669.06 -2.43816 -2.38257 0
M  V30 17043 H 1670.25 -2.9294 -0.642367 0
M  V30 17044 H 1667.81 -1.53432 -0.29805 0
M  V30 17045 H 1668.54 -1.58013 -2.832 0
M  V30 17046 H 1668.33 -3.24086 -2.20705 0
M  V30 17047 H 1669.82 -2.80325 -3.09528 0
M  V30 17048 N 1670.25 0.323614 -1.54242 0
M  V30 17049 C 1671.22 1.38126 -1.82904 0
M  V30 17050 C 1672.22 1.44723 -0.700853 0
M  V30 17051 O 1673.41 1.44751 -0.969161 0
M  V30 17052 C 1670.54 2.76858 -1.98903 0
M  V30 17053 H 1671.73 1.13966 -2.77402 0
M  V30 17054 H 1669.28 0.559094 -1.45958 0
M  V30 17055 H 1670.02 3.06274 -1.06616 0
M  V30 17056 H 1669.8 2.73464 -2.80998 0
M  V30 17057 H 1671.29 3.53372 -2.22526 0
M  V30 17058 N 1671.73 1.46313 0.585673 0
M  V30 17059 C 1672.69 1.56239 1.67696 0
M  V30 17060 C 1673.69 0.439808 1.54668 0
M  V30 17061 O 1674.88 0.704019 1.5934 0
M  V30 17062 C 1672.02 1.47986 3.07104 0
M  V30 17063 H 1673.21 2.53492 1.60255 0
M  V30 17064 H 1670.76 1.3408 0.803264 0
M  V30 17065 H 1671.5 0.520007 3.20104 0
M  V30 17066 H 1671.28 2.2943 3.17969 0
M  V30 17067 H 1672.77 1.5801 3.86552 0
M  V30 17068 N 1673.21 -0.830057 1.33969 0
M  V30 17069 C 1674.46 -1.58821 1.26111 0
M  V30 17070 C 1674.79 -1.9345 -0.170484 0
M  V30 17071 O 1674.06 -1.59433 -1.11407 0
M  V30 17072 C 1674.35 -2.89243 2.14501 0
M  V30 17073 C 1674.2 -2.61239 3.66162 0
M  V30 17074 C 1675.52 -3.90752 2.02487 0
M  V30 17075 H 1672.64 -0.576255 0.459455 0
M  V30 17076 H 1675.28 -0.956736 1.64154 0
M  V30 17077 H 1673.43 -3.43133 1.82186 0
M  V30 17078 H 1675.1 -2.13713 4.08809 0
M  V30 17079 H 1673.34 -1.94796 3.87604 0
M  V30 17080 H 1674.02 -3.54212 4.23365 0
M  V30 17081 H 1676.49 -3.46194 2.30844 0
M  V30 17082 H 1675.37 -4.79825 2.6657 0
M  V30 17083 H 1675.63 -4.30649 0.999704 0
M  V30 17084 N 1674.69 -1.17582 -1.04939 0
M  V30 17085 C 1675.92 -0.990398 -1.81656 0
M  V30 17086 C 1676.33 0.461324 -1.83077 0
M  V30 17087 O 1675.69 1.32037 -1.25986 0
M  V30 17088 C 1675.74 -1.52719 -3.27657 0
M  V30 17089 O 1675.46 -2.92206 -3.26415 0
M  V30 17090 C 1676.96 -1.38671 -4.21053 0
M  V30 17091 H 1674.18 -0.35024 -0.57234 0
M  V30 17092 H 1676.72 -1.5593 -1.32311 0
M  V30 17093 H 1674.88 -1.00026 -3.74264 0
M  V30 17094 H 1675.29 -3.17068 -4.17814 0
M  V30 17095 H 1676.77 -1.8104 -5.21468 0
M  V30 17096 H 1677.24 -0.334151 -4.37927 0
M  V30 17097 H 1677.85 -1.90393 -3.80303 0
M  V30 17098 N 1676.17 1.23705 -0.976463 0
M  V30 17099 C 1677.41 1.92015 -0.643168 0
M  V30 17100 C 1677.74 1.76239 0.822796 0
M  V30 17101 O 1677 1.11469 1.60851 0
M  V30 17102 C 1677.29 3.43853 -0.974676 0
M  V30 17103 C 1676.96 3.79805 -2.43021 0
M  V30 17104 C 1675.62 3.89329 -2.82801 0
M  V30 17105 C 1677.97 3.97218 -3.37442 0
M  V30 17106 C 1675.3 4.13691 -4.16025 0
M  V30 17107 C 1677.65 4.23079 -4.70305 0
M  V30 17108 C 1676.32 4.30824 -5.0985 0
M  V30 17109 H 1675.59 0.702631 -0.235352 0
M  V30 17110 H 1678.24 1.46811 -1.22959 0
M  V30 17111 H 1676.54 3.90602 -0.306121 0
M  V30 17112 H 1678.24 3.9493 -0.695061 0
M  V30 17113 H 1674.83 3.72963 -2.11179 0
M  V30 17114 H 1679.01 3.89254 -3.07889 0
M  V30 17115 H 1674.27 4.17909 -4.46276 0
M  V30 17116 H 1678.44 4.35496 -5.4343 0
M  V30 17117 H 1676.07 4.49454 -6.13103 0
M  V30 17118 N 1677.64 0.747635 1.38738 0
M  V30 17119 C 1678.59 0.0917864 2.27815 0
M  V30 17120 C 1679.58 -0.699471 1.44901 0
M  V30 17121 O 1680.77 -0.566404 1.67693 0
M  V30 17122 C 1677.9 -0.805131 3.33725 0
M  V30 17123 C 1676.98 -0.00734503 4.24099 0
M  V30 17124 N 1677.38 1.02602 4.95284 0
M  V30 17125 C 1675.67 -0.235075 4.4538 0
M  V30 17126 C 1676.37 1.50818 5.61808 0
M  V30 17127 N 1675.35 0.824534 5.3731 0
M  V30 17128 H 1679.15 0.883313 2.80312 0
M  V30 17129 H 1676.67 0.583125 1.5157 0
M  V30 17130 H 1678.66 -1.29056 3.96422 0
M  V30 17131 H 1677.32 -1.59568 2.82787 0
M  V30 17132 H 1678.33 1.40768 4.98402 0
M  V30 17133 H 1675.01 -0.99943 4.05361 0
M  V30 17134 H 1676.4 2.36862 6.28766 0
M  V30 17135 N 1679.12 -1.49583 0.496242 0
M  V30 17136 C 1680.53 -1.8664 0.0472756 0
M  V30 17137 C 1680.88 -1.40898 -1.36536 0
M  V30 17138 O 1680.01 -0.784796 -2.01668 0
M  V30 17139 C 1680.6 -3.38708 0.079016 0
M  V30 17140 C 1679.16 -3.75083 -0.314587 0
M  V30 17141 C 1678.31 -2.73565 0.453624 0
M  V30 17142 H 1681.26 -1.41969 0.709269 0
M  V30 17143 H 1681.28 -3.73676 -0.717396 0
M  V30 17144 H 1680.79 -3.71969 1.10727 0
M  V30 17145 H 1678.89 -3.47429 -1.34625 0
M  V30 17146 H 1679.01 -4.791 0.00155427 0
M  V30 17147 H 1677.37 -2.54519 -0.095937 0
M  V30 17148 H 1678.15 -3.0967 1.48186 0
M  V30 17149 N 1680.6 -0.229873 -1.55915 0
M  V30 17150 C 1682.02 0.125347 -1.59107 0
M  V30 17151 C 1682.22 1.58293 -1.24682 0
M  V30 17152 O 1681.27 2.32452 -0.986018 0
M  V30 17153 C 1682.58 -0.208461 -2.99977 0
M  V30 17154 C 1684.13 -0.151373 -3.12634 0
M  V30 17155 C 1684.61 -0.458972 -4.55694 0
M  V30 17156 N 1686.1 -0.408847 -4.61392 0
M  V30 17157 C 1686.83 -0.620239 -5.70036 0
M  V30 17158 N 1686.33 -0.893851 -6.8701 0
M  V30 17159 N 1688.12 -0.552107 -5.59382 0
M  V30 17160 H 1680.27 -1.18062 -1.76565 0
M  V30 17161 H 1682.54 -0.473821 -0.821095 0
M  V30 17162 H 1682.24 -1.22043 -3.29846 0
M  V30 17163 H 1682.12 0.472591 -3.74228 0
M  V30 17164 H 1684.5 0.851249 -2.82556 0
M  V30 17165 H 1684.58 -0.866024 -2.40694 0
M  V30 17166 H 1684.23 -1.45907 -4.86491 0
M  V30 17167 H 1684.16 0.276965 -5.25871 0
M  V30 17168 H 1686.65 -0.205404 -3.77341 0
M  V30 17169 H 1686.96 -1.04303 -7.65729 0
M  V30 17170 H 1685.31 -0.931138 -6.88734 0
M  V30 17171 H 1688.5 -0.338518 -4.66874 0
M  V30 17172 H 1688.67 -0.720256 -6.43985 0
M  V30 17173 N 1682.08 1.5754 0.0434337 0
M  V30 17174 C 1683.04 2.046 1.03303 0
M  V30 17175 C 1684.04 0.947648 1.29909 0
M  V30 17176 O 1685.23 1.21171 1.25153 0
M  V30 17177 C 1682.36 2.45077 2.36961 0
M  V30 17178 H 1683.56 2.93276 0.626822 0
M  V30 17179 H 1681.11 1.53588 0.289909 0
M  V30 17180 H 1681.84 1.59513 2.82358 0
M  V30 17181 H 1681.63 3.25252 2.18983 0
M  V30 17182 H 1683.12 2.81963 3.08037 0
M  V30 17183 N 1683.56 -0.31543 1.54411 0
M  V30 17184 C 1684.8 -1.05033 1.72663 0
M  V30 17185 C 1685.12 -1.8828 0.507504 0
M  V30 17186 O 1684.39 -1.89968 -0.478418 0
M  V30 17187 H 1682.97 -0.39077 0.636638 0
M  V30 17188 H 1685.64 -0.3499 1.91733 0
M  V30 17189 H 1684.73 -1.71171 2.60973 0
M  V30 17190 N 1685.03 -1.46622 -0.577906 0
M  V30 17191 C 1686 -1.57126 -1.66865 0
M  V30 17192 C 1687 -0.448004 -1.54433 0
M  V30 17193 O 1688.19 -0.712459 -1.58964 0
M  V30 17194 C 1685.32 -1.49612 -3.06315 0
M  V30 17195 H 1686.51 -2.54338 -1.58909 0
M  V30 17196 H 1684.07 -1.34504 -0.796142 0
M  V30 17197 H 1684.8 -0.536976 -3.19823 0
M  V30 17198 H 1684.59 -2.31113 -3.16748 0
M  V30 17199 H 1686.08 -1.60058 -3.85709 0
M  V30 17200 N 1686.51 0.822941 -1.34408 0
M  V30 17201 C 1687.42 1.96567 -1.28056 0
M  V30 17202 C 1688.44 1.72979 -0.188251 0
M  V30 17203 O 1689.61 1.97084 -0.41472 0
M  V30 17204 C 1686.68 3.30865 -1.03583 0
M  V30 17205 C 1685.74 3.67461 -2.2197 0
M  V30 17206 C 1684.97 4.9535 -1.98655 0
M  V30 17207 O 1685.2 5.62521 -0.944785 0
M  V30 17208 O 1684.13 5.29824 -2.85605 0
M  V30 17209 H 1687.96 2.0487 -2.24192 0
M  V30 17210 H 1685.54 0.958334 -1.14614 0
M  V30 17211 H 1687.42 4.11298 -0.917162 0
M  V30 17212 H 1686.1 3.2353 -0.104868 0
M  V30 17213 H 1685.01 2.87472 -2.39396 0
M  V30 17214 H 1686.34 3.79481 -3.13456 0
M  V30 17215 N 1687.99 1.18137 1.04314 0
M  V30 17216 C 1688.92 0.929593 2.14198 0
M  V30 17217 C 1689.9 -0.131766 1.69589 0
M  V30 17218 O 1691.09 0.0203104 1.94189 0
M  V30 17219 C 1688.22 0.451799 3.44349 0
M  V30 17220 C 1687.17 1.45336 4.02569 0
M  V30 17221 C 1686.5 0.833176 5.28169 0
M  V30 17222 C 1687.8 2.8293 4.39031 0
M  V30 17223 H 1689.49 1.84856 2.35518 0
M  V30 17224 H 1687.04 0.890217 1.13186 0
M  V30 17225 H 1688.99 0.26303 4.20578 0
M  V30 17226 H 1687.71 -0.502725 3.22708 0
M  V30 17227 H 1686.37 1.62902 3.28418 0
M  V30 17228 H 1686.02 -0.128459 5.02836 0
M  V30 17229 H 1685.72 1.50185 5.68083 0
M  V30 17230 H 1687.24 0.654881 6.07078 0
M  V30 17231 H 1688.66 2.6903 5.06257 0
M  V30 17232 H 1687.06 3.46458 4.89987 0
M  V30 17233 H 1688.13 3.3667 3.48972 0
M  V30 17234 N 1689.47 -1.23186 0.98301 0
M  V30 17235 C 1690.88 -1.43814 0.69207 0
M  V30 17236 C 1691.08 -1.87387 -0.740823 0
M  V30 17237 O 1690.14 -2.02154 -1.51295 0
M  V30 17238 C 1691.45 -2.48769 1.68922 0
M  V30 17239 C 1693 -2.62579 1.70356 0
M  V30 17240 C 1693.48 -3.70746 2.68908 0
M  V30 17241 N 1694.97 -3.78192 2.67442 0
M  V30 17242 C 1695.7 -4.61453 3.40366 0
M  V30 17243 N 1695.2 -5.48784 4.22857 0
M  V30 17244 N 1696.99 -4.55673 3.29118 0
M  V30 17245 H 1689.14 -0.932046 1.90858 0
M  V30 17246 H 1691.41 -0.471274 0.82256 0
M  V30 17247 H 1691.11 -2.23675 2.71408 0
M  V30 17248 H 1690.99 -3.47201 1.47415 0
M  V30 17249 H 1693.37 -2.87022 0.685728 0
M  V30 17250 H 1693.45 -1.64454 1.9593 0
M  V30 17251 H 1693.1 -3.47051 3.70834 0
M  V30 17252 H 1693.03 -4.68418 2.40607 0
M  V30 17253 H 1695.52 -3.15785 2.07577 0
M  V30 17254 H 1695.83 -6.09312 4.75351 0
M  V30 17255 H 1694.18 -5.48398 4.26948 0
M  V30 17256 H 1697.37 -3.86468 2.64122 0
M  V30 17257 H 1697.54 -5.20332 3.8621 0
M  V30 17258 N 1690.95 -0.754982 -1.38339 0
M  V30 17259 C 1692.36 -0.43273 -1.53622 0
M  V30 17260 C 1692.56 1.05395 -1.71739 0
M  V30 17261 O 1691.62 1.83998 -1.72919 0
M  V30 17262 C 1692.93 -1.23319 -2.7425 0
M  V30 17263 C 1694.48 -1.22341 -2.881 0
M  V30 17264 C 1694.95 -2.00686 -4.11691 0
M  V30 17265 N 1696.45 -1.97953 -4.1877 0
M  V30 17266 C 1697.18 -2.55367 -5.13396 0
M  V30 17267 N 1696.68 -3.215 -6.13685 0
M  V30 17268 N 1698.47 -2.45289 -5.05757 0
M  V30 17269 H 1690.62 -1.71847 -1.2483 0
M  V30 17270 H 1692.88 -0.728585 -0.606521 0
M  V30 17271 H 1692.59 -2.28602 -2.67272 0
M  V30 17272 H 1692.46 -0.851009 -3.67475 0
M  V30 17273 H 1694.85 -0.178637 -2.94559 0
M  V30 17274 H 1694.93 -1.64511 -1.95882 0
M  V30 17275 H 1694.58 -3.05175 -4.05994 0
M  V30 17276 H 1694.51 -1.55908 -5.02991 0
M  V30 17277 H 1697 -1.49792 -3.46945 0
M  V30 17278 H 1697.31 -3.62725 -6.82386 0
M  V30 17279 H 1695.65 -3.25595 -6.14014 0
M  V30 17280 H 1698.85 -1.93251 -4.26347 0
M  V30 17281 H 1699.02 -2.9033 -5.79321 0
M  V30 17282 N 1692.42 1.49318 -0.504168 0
M  V30 17283 C 1693.67 2.02462 0.0392265 0
M  V30 17284 C 1694 1.38359 1.36701 0
M  V30 17285 O 1693.25 0.509579 1.88949 0
M  V30 17286 C 1693.55 3.56613 0.237041 0
M  V30 17287 C 1693.22 4.3937 -1.01314 0
M  V30 17288 C 1691.88 4.61704 -1.35583 0
M  V30 17289 C 1694.23 4.8749 -1.84399 0
M  V30 17290 C 1691.56 5.29403 -2.52882 0
M  V30 17291 C 1693.91 5.56479 -3.00854 0
M  V30 17292 C 1692.58 5.77058 -3.35499 0
M  V30 17293 H 1691.85 0.740861 0.014354 0
M  V30 17294 H 1694.49 1.79584 -0.664967 0
M  V30 17295 H 1692.8 3.78188 1.02379 0
M  V30 17296 H 1694.5 3.95329 0.671987 0
M  V30 17297 H 1691.09 4.2223 -0.736213 0
M  V30 17298 H 1695.27 4.7006 -1.59238 0
M  V30 17299 H 1690.53 5.43538 -2.79958 0
M  V30 17300 H 1694.7 5.9274 -3.65558 0
M  V30 17301 H 1692.33 6.29291 -4.26494 0
M  V30 17302 N 1693.9 0.238138 1.5579 0
M  V30 17303 C 1695.32 -0.116908 1.59171 0
M  V30 17304 C 1695.52 -1.57629 1.2552 0
M  V30 17305 O 1694.57 -2.31926 0.998332 0
M  V30 17306 C 1695.89 0.224366 2.99862 0
M  V30 17307 C 1697.44 0.16795 3.12549 0
M  V30 17308 C 1697.91 0.483132 4.55445 0
M  V30 17309 N 1699.4 0.43331 4.61169 0
M  V30 17310 C 1700.14 0.650461 5.69699 0
M  V30 17311 N 1699.63 0.930272 6.86526 0
M  V30 17312 N 1701.43 0.581764 5.59081 0
M  V30 17313 H 1693.58 1.18996 1.75936 0
M  V30 17314 H 1695.84 0.478169 0.818571 0
M  V30 17315 H 1695.55 1.23791 3.29194 0
M  V30 17316 H 1695.42 -0.452738 3.74473 0
M  V30 17317 H 1697.81 -0.836252 2.83003 0
M  V30 17318 H 1697.89 0.878776 2.40231 0
M  V30 17319 H 1697.53 1.48485 4.8571 0
M  V30 17320 H 1697.46 -0.249073 5.26011 0
M  V30 17321 H 1699.95 0.225412 3.77227 0
M  V30 17322 H 1700.27 1.08362 7.65165 0
M  V30 17323 H 1698.61 0.96765 6.88231 0
M  V30 17324 H 1701.8 0.363273 4.66688 0
M  V30 17325 H 1701.97 0.754398 6.43594 0
M  V30 17326 N 1695.38 -1.57561 -0.0350783 0
M  V30 17327 C 1696.33 -2.06163 -1.03756 0
M  V30 17328 C 1697.3 -0.94954 -1.36283 0
M  V30 17329 O 1698.48 -1.21971 -1.46723 0
M  V30 17330 C 1695.62 -2.54086 -2.33526 0
M  V30 17331 C 1694.74 -3.79062 -2.0721 0
M  V30 17332 C 1693.87 -4.1562 -3.30808 0
M  V30 17333 C 1692.91 -5.3353 -3.0002 0
M  V30 17334 N 1692.05 -5.65549 -4.16051 0
M  V30 17335 H 1696.89 -2.91561 -0.616137 0
M  V30 17336 H 1694.42 -1.4416 -0.292617 0
M  V30 17337 H 1696.38 -2.79935 -3.09342 0
M  V30 17338 H 1695.01 -1.71614 -2.73402 0
M  V30 17339 H 1694.06 -3.60333 -1.21919 0
M  V30 17340 H 1695.38 -4.64998 -1.80495 0
M  V30 17341 H 1694.53 -4.42565 -4.14995 0
M  V30 17342 H 1693.27 -3.28323 -3.60632 0
M  V30 17343 H 1692.27 -5.06344 -2.14234 0
M  V30 17344 H 1693.5 -6.22475 -2.7148 0
M  V30 17345 H 1691.44 -4.81211 -4.45838 0
M  V30 17346 H 1691.36 -6.45982 -3.92738 0
M  V30 17347 H 1692.63 -5.97068 -5.01129 0
M  V30 17348 N 1696.86 0.307236 -1.54576 0
M  V30 17349 C 1698.27 0.652539 -1.45651 0
M  V30 17350 C 1698.47 1.90978 -0.64263 0
M  V30 17351 O 1697.53 2.52067 -0.147863 0
M  V30 17352 C 1698.84 0.811341 -2.89547 0
M  V30 17353 C 1700.39 0.90763 -2.99551 0
M  V30 17354 C 1700.87 1.09848 -4.44632 0
M  V30 17355 N 1702.36 1.16483 -4.48315 0
M  V30 17356 C 1703.09 1.33068 -5.57746 0
M  V30 17357 N 1702.59 1.46591 -6.77114 0
M  V30 17358 N 1704.38 1.35906 -5.45423 0
M  V30 17359 H 1696.53 -0.518891 -2.05964 0
M  V30 17360 H 1698.8 -0.170463 -0.932548 0
M  V30 17361 H 1698.5 -0.0414879 -3.51676 0
M  V30 17362 H 1698.38 1.70224 -3.36606 0
M  V30 17363 H 1700.76 1.75095 -2.37541 0
M  V30 17364 H 1700.84 -0.00715386 -2.55799 0
M  V30 17365 H 1700.49 0.259948 -5.07234 0
M  V30 17366 H 1700.42 2.02739 -4.86009 0
M  V30 17367 H 1702.91 1.07411 -3.62314 0
M  V30 17368 H 1703.22 1.58983 -7.5627 0
M  V30 17369 H 1701.57 1.43658 -6.79991 0
M  V30 17370 H 1704.76 1.24949 -4.51116 0
M  V30 17371 H 1704.93 1.48489 -6.30758 0
M  V30 17372 N 1698.34 1.46926 0.570122 0
M  V30 17373 C 1699.75 1.469 1.15227 0
M  V30 17374 C 1700.1 0.216651 1.95 0
M  V30 17375 O 1699.22 -0.679388 2.05459 0
M  V30 17376 C 1699.82 2.66158 2.09632 0
M  V30 17377 C 1698.38 2.69133 2.63144 0
M  V30 17378 C 1697.52 2.39795 1.39262 0
M  V30 17379 H 1700.48 1.54623 0.35739 0
M  V30 17380 H 1700.5 2.42393 2.93302 0
M  V30 17381 H 1700.01 3.5729 1.51543 0
M  V30 17382 H 1698.11 1.82106 3.25066 0
M  V30 17383 H 1698.22 3.69459 3.05019 0
M  V30 17384 H 1696.59 1.9011 1.695 0
M  V30 17385 H 1697.37 3.33119 0.829855 0
M  V30 17386 N 1699.82 -0.815801 1.34842 0
M  V30 17387 C 1701.09 -1.55867 1.18173 0
M  V30 17388 C 1701.47 -2.09698 -0.242848 0
M  V30 17389 O 1700.82 -1.91594 -1.24514 0
M  V30 17390 C 1701.03 -2.67445 2.24219 0
M  V30 17391 C 1702.38 -3.36027 2.59559 0
M  V30 17392 O 1703.4 -2.77708 2.23062 0
M  V30 17393 O 1702.26 -4.4136 3.22279 0
M  V30 17394 H 1699.36 -0.688242 0.458533 0
M  V30 17395 H 1701.9 -0.856558 1.46496 0
M  V30 17396 H 1700.67 -2.25473 3.19809 0
M  V30 17397 H 1700.3 -3.453 1.97113 0
M  V30 17398 N 1701.29 -1.18689 -1.03686 0
M  V30 17399 C 1702.52 -1.00961 -1.80595 0
M  V30 17400 C 1702.94 0.44188 -1.83556 0
M  V30 17401 O 1702.29 1.30693 -1.27379 0
M  V30 17402 C 1702.34 -1.56185 -3.26019 0
M  V30 17403 O 1702.07 -2.95652 -3.23298 0
M  V30 17404 C 1703.57 -1.43129 -4.19558 0
M  V30 17405 H 1700.79 -0.356291 -0.568593 0
M  V30 17406 H 1703.33 -1.57324 -1.3065 0
M  V30 17407 H 1701.49 -1.03989 -3.73182 0
M  V30 17408 H 1701.9 -3.21481 -4.14427 0
M  V30 17409 H 1703.37 -1.86561 -5.19518 0
M  V30 17410 H 1703.85 -0.380581 -4.37548 0
M  V30 17411 H 1704.46 -1.94416 -3.78262 0
M  V30 17412 N 1702.77 1.22662 -0.989529 0
M  V30 17413 C 1704.02 1.91322 -0.663497 0
M  V30 17414 C 1704.35 1.77102 0.804057 0
M  V30 17415 O 1703.6 1.13169 1.5966 0
M  V30 17416 C 1703.9 3.428 -1.01109 0
M  V30 17417 C 1703.57 3.77206 -2.47035 0
M  V30 17418 C 1702.23 3.86308 -2.86914 0
M  V30 17419 C 1704.58 3.93617 -3.41636 0
M  V30 17420 C 1701.91 4.09255 -4.20389 0
M  V30 17421 C 1704.26 4.18067 -4.74766 0
M  V30 17422 C 1702.92 4.25392 -5.14391 0
M  V30 17423 H 1702.19 0.700095 -0.242791 0
M  V30 17424 H 1704.84 1.45498 -1.24509 0
M  V30 17425 H 1703.15 3.90256 -0.347533 0
M  V30 17426 H 1704.84 3.94171 -0.736909 0
M  V30 17427 H 1701.43 3.70702 -2.15123 0
M  V30 17428 H 1705.62 3.85966 -3.12 0
M  V30 17429 H 1700.87 4.13152 -4.50683 0
M  V30 17430 H 1705.05 4.29708 -5.48018 0
M  V30 17431 H 1702.67 4.42926 -6.17835 0
M  V30 17432 N 1704.25 0.762308 1.37937 0
M  V30 17433 C 1705.47 0.332217 2.04722 0
M  V30 17434 C 1705.9 -1.03417 1.57119 0
M  V30 17435 O 1705.26 -1.6608 0.727117 0
M  V30 17436 C 1705.31 0.373899 3.58656 0
M  V30 17437 O 1704.41 -0.629024 4.07575 0
M  V30 17438 H 1703.75 0.145471 0.647869 0
M  V30 17439 H 1706.28 1.03586 1.7644 0
M  V30 17440 H 1706.29 0.22785 4.07363 0
M  V30 17441 H 1704.97 1.37079 3.92661 0
M  V30 17442 H 1703.54 -0.446871 3.70213 0
M  V30 17443 N 1705.73 -1.49049 0.51208 0
M  V30 17444 C 1706.66 -2.32163 -0.249529 0
M  V30 17445 C 1707.64 -1.40957 -0.952114 0
M  V30 17446 O 1708.82 -1.69858 -0.94137 0
M  V30 17447 C 1705.95 -3.21737 -1.30776 0
M  V30 17448 C 1704.91 -4.21825 -0.724392 0
M  V30 17449 C 1704.23 -5.00411 -1.88396 0
M  V30 17450 C 1705.53 -5.21483 0.291975 0
M  V30 17451 H 1707.23 -2.96086 0.444253 0
M  V30 17452 H 1704.77 -1.42385 0.215093 0
M  V30 17453 H 1706.73 -3.78699 -1.84837 0
M  V30 17454 H 1705.45 -2.55779 -2.03088 0
M  V30 17455 H 1704.11 -3.66024 -0.205441 0
M  V30 17456 H 1703.76 -4.30891 -2.59502 0
M  V30 17457 H 1703.46 -5.68141 -1.49964 0
M  V30 17458 H 1704.98 -5.6022 -2.42869 0
M  V30 17459 H 1706.4 -5.73074 -0.160899 0
M  V30 17460 H 1704.79 -5.97166 0.592717 0
M  V30 17461 H 1705.86 -4.69714 1.20404 0
M  V30 17462 N 1707.21 -0.246397 -1.55662 0
M  V30 17463 C 1708.45 0.377739 -1.98539 0
M  V30 17464 C 1708.77 1.58504 -1.13585 0
M  V30 17465 O 1708.04 1.94677 -0.218528 0
M  V30 17466 H 1706.62 0.142554 -0.733272 0
M  V30 17467 H 1709.29 -0.345069 -1.91821 0
M  V30 17468 H 1708.38 0.687224 -3.0444 0
M  V30 17469 N 1708.68 1.57577 0.026722 0
M  V30 17470 C 1709.93 1.8966 0.718124 0
M  V30 17471 C 1710.26 0.844423 1.7488 0
M  V30 17472 O 1709.54 -0.14023 1.93994 0
M  V30 17473 C 1709.82 3.32377 1.38555 0
M  V30 17474 C 1709.67 4.4829 0.368227 0
M  V30 17475 C 1710.99 3.74051 2.31891 0
M  V30 17476 H 1708.11 0.689767 0.259596 0
M  V30 17477 H 1710.75 1.8999 -0.0190825 0
M  V30 17478 H 1708.9 3.32226 2.01391 0
M  V30 17479 H 1710.58 4.60576 -0.258394 0
M  V30 17480 H 1708.82 4.32675 -0.312255 0
M  V30 17481 H 1709.49 5.45041 0.873749 0
M  V30 17482 H 1711.97 3.75584 1.79097 0
M  V30 17483 H 1710.84 4.74713 2.7557 0
M  V30 17484 H 1711.1 3.06438 3.18666 0
M  V30 17485 N 1710.16 -0.299034 1.54737 0
M  V30 17486 C 1711.4 -1.04194 1.75849 0
M  V30 17487 C 1711.77 -1.84422 0.534101 0
M  V30 17488 O 1712.97 -2.61481 0.622996 0
M  V30 17489 C 1711.24 -1.92232 3.013 0
M  V30 17490 S 1712.8 -2.73142 3.43423 0
M  V30 17491 H 1709.61 -0.351367 0.618112 0
M  V30 17492 H 1712.22 -0.315134 1.92943 0
M  V30 17493 H 1710.92 -1.32172 3.88534 0
M  V30 17494 H 1710.45 -2.69277 2.86798 0
M  V30 17495 H 1712.47 -3.94747 3.00647 0
M  V30 17496 N 1711.64 -1.47227 -0.562322 0
M  V30 17497 C 1712.59 -1.59729 -1.69084 0
M  V30 17498 C 1713.58 -0.464812 -1.62898 0
M  V30 17499 O 1714.79 -0.642429 -1.68145 0
M  V30 17500 H 1711.16 -0.502579 -0.559391 0
M  V30 17501 H 1713.13 -2.54573 -1.55676 0
M  V30 17502 C 1711.88 -1.62394 -3.07447 0
M  V30 17503 H 1711.21 -2.48882 -3.12887 0
M  V30 17504 H 1712.65 -1.75192 -3.86114 0
M  V30 17505 C 1711.1 -0.356287 -3.35011 0
M  V30 17506 O 1711.63 0.544818 -3.97988 0
M  V30 17507 N 1709.84 -0.237888 -2.89625 0
M  V30 17508 H 1709.39 -0.9721 -2.38554 0
M  V30 17509 H 1709.35 0.609348 -3.08438 0
M  V30 17510 N 1713.12 0.808639 -1.35273 0
M  V30 17511 C 1714.37 1.56253 -1.28177 0
M  V30 17512 C 1714.69 1.94466 0.144151 0
M  V30 17513 O 1713.96 1.63433 1.08011 0
M  V30 17514 H 1712.54 0.579431 -0.471454 0
M  V30 17515 H 1715.2 0.964675 -1.69352 0
M  V30 17516 H 1714.29 2.47888 -1.89625 0
M  V30 17517 N 1714.6 1.19237 1.03055 0
M  V30 17518 C 1715.84 1.00508 1.77982 0
M  V30 17519 C 1716.2 -0.456267 1.865 0
M  V30 17520 O 1717.4 -0.763318 2.57734 0
M  V30 17521 C 1715.67 1.65377 3.16836 0
M  V30 17522 S 1717.23 1.61563 4.07974 0
M  V30 17523 H 1714.05 0.3607 0.612712 0
M  V30 17524 H 1716.65 1.51556 1.23495 0
M  V30 17525 H 1715.36 2.7094 3.08253 0
M  V30 17526 H 1714.89 1.14402 3.76399 0
M  V30 17527 H 1716.9 0.638645 4.92073 0
M  V30 17528 N 1716.07 -1.22136 0.99602 0
M  V30 17529 C 1717.01 -2.23518 0.507162 0
M  V30 17530 C 1718.02 -1.57824 -0.399426 0
M  V30 17531 O 1719.21 -1.77364 -0.20106 0
M  V30 17532 C 1716.31 -3.37709 -0.283931 0
M  V30 17533 C 1715.48 -4.3299 0.619549 0
M  V30 17534 C 1714.54 -5.26062 -0.120376 0
M  V30 17535 O 1713.57 -5.67041 0.495269 0
M  V30 17536 N 1714.77 -5.63322 -1.40172 0
M  V30 17537 H 1717.53 -2.66092 1.37896 0
M  V30 17538 H 1715.09 -1.36468 0.871102 0
M  V30 17539 H 1717.09 -3.96961 -0.787661 0
M  V30 17540 H 1715.66 -2.94193 -1.05685 0
M  V30 17541 H 1714.88 -3.72011 1.3039 0
M  V30 17542 H 1716.16 -4.93591 1.23473 0
M  V30 17543 H 1715.56 -5.32006 -1.92318 0
M  V30 17544 H 1714.12 -6.24977 -1.85058 0
M  V30 17545 N 1717.55 -0.769612 -1.37531 0
M  V30 17546 C 1718.48 -0.168389 -2.32892 0
M  V30 17547 C 1719.46 0.685549 -1.55673 0
M  V30 17548 O 1720.65 0.62345 -1.8392 0
M  V30 17549 C 1717.78 0.713183 -3.39898 0
M  V30 17550 C 1716.73 -0.0392808 -4.27982 0
M  V30 17551 C 1716.06 0.961596 -5.25982 0
M  V30 17552 C 1717.36 -1.21704 -5.07923 0
M  V30 17553 H 1719.05 -0.965022 -2.83421 0
M  V30 17554 H 1716.6 -0.465502 -1.36268 0
M  V30 17555 H 1718.55 1.14358 -4.05586 0
M  V30 17556 H 1717.28 1.54231 -2.87889 0
M  V30 17557 H 1715.93 -0.450429 -3.63822 0
M  V30 17558 H 1715.58 1.78522 -4.70254 0
M  V30 17559 H 1715.28 0.462679 -5.85776 0
M  V30 17560 H 1716.81 1.39097 -5.94545 0
M  V30 17561 H 1718.22 -0.863405 -5.66761 0
M  V30 17562 H 1716.62 -1.6479 -5.77031 0
M  V30 17563 H 1717.69 -2.02219 -4.40722 0
M  V30 17564 N 1719.03 1.48775 -0.519977 0
M  V30 17565 C 1719.96 2.32292 0.237213 0
M  V30 17566 C 1720.94 1.4146 0.944625 0
M  V30 17567 O 1722.13 1.70355 0.932349 0
M  V30 17568 C 1719.26 3.22426 1.29068 0
M  V30 17569 C 1718.21 4.22204 0.702011 0
M  V30 17570 C 1717.54 5.01403 1.85739 0
M  V30 17571 C 1718.84 5.21321 -0.319626 0
M  V30 17572 H 1720.53 2.95846 -0.459949 0
M  V30 17573 H 1718.08 1.42268 -0.222641 0
M  V30 17574 H 1720.03 3.79674 1.82826 0
M  V30 17575 H 1718.75 2.56853 2.01728 0
M  V30 17576 H 1717.41 3.66128 0.186027 0
M  V30 17577 H 1717.06 4.32262 2.57214 0
M  V30 17578 H 1716.76 5.68929 1.46949 0
M  V30 17579 H 1718.28 5.615 2.39895 0
M  V30 17580 H 1719.7 5.73151 0.130505 0
M  V30 17581 H 1718.1 5.96843 -0.624377 0
M  V30 17582 H 1719.17 4.69069 -1.22893 0
M  V30 17583 N 1720.51 0.254649 1.55529 0
M  V30 17584 C 1721.47 -0.62836 2.20418 0
M  V30 17585 C 1722.47 -1.09691 1.17578 0
M  V30 17586 O 1723.66 -1.00037 1.42612 0
M  V30 17587 C 1720.79 -1.86453 2.85391 0
M  V30 17588 H 1721.99 -0.0621032 2.99836 0
M  V30 17589 H 1719.54 0.00514311 1.56299 0
M  V30 17590 H 1720.27 -2.47182 2.09932 0
M  V30 17591 H 1720.06 -1.53669 3.60733 0
M  V30 17592 H 1721.55 -2.49291 3.35028 0
M  V30 17593 N 1721.99 -1.57589 -0.0183649 0
M  V30 17594 C 1722.92 -2.1029 -1.01492 0
M  V30 17595 C 1723.9 -1.00782 -1.37029 0
M  V30 17596 O 1725.08 -1.28365 -1.45726 0
M  V30 17597 C 1722.21 -2.59111 -2.31255 0
M  V30 17598 C 1721.17 -3.72979 -2.0993 0
M  V30 17599 C 1720.49 -4.08046 -3.45547 0
M  V30 17600 C 1721.79 -5.00988 -1.47677 0
M  V30 17601 H 1723.49 -2.93804 -0.57618 0
M  V30 17602 H 1721.03 -1.41336 -0.275708 0
M  V30 17603 H 1722.99 -2.94602 -3.0131 0
M  V30 17604 H 1721.71 -1.72694 -2.77208 0
M  V30 17605 H 1720.37 -3.37853 -1.42306 0
M  V30 17606 H 1720.02 -3.1868 -3.89169 0
M  V30 17607 H 1719.72 -4.8475 -3.32101 0
M  V30 17608 H 1721.24 -4.46081 -4.16947 0
M  V30 17609 H 1722.65 -5.34368 -2.07663 0
M  V30 17610 H 1721.05 -5.82375 -1.44774 0
M  V30 17611 H 1722.12 -4.82865 -0.443804 0
M  V30 17612 N 1723.46 0.290824 -1.54893 0
M  V30 17613 C 1724.39 1.36354 -1.89551 0
M  V30 17614 C 1725.38 1.52403 -0.75546 0
M  V30 17615 O 1726.56 1.65743 -1.01208 0
M  V30 17616 C 1723.69 2.72609 -2.15178 0
M  V30 17617 C 1722.64 2.71313 -3.31019 0
M  V30 17618 C 1721.97 4.10952 -3.42085 0
M  V30 17619 C 1723.27 2.32153 -4.6787 0
M  V30 17620 H 1724.96 1.07597 -2.79398 0
M  V30 17621 H 1722.51 0.516154 -1.34432 0
M  V30 17622 H 1724.46 3.47749 -2.3801 0
M  V30 17623 H 1723.19 3.02913 -1.22112 0
M  V30 17624 H 1721.85 1.9863 -3.08126 0
M  V30 17625 H 1721.49 4.38449 -2.46518 0
M  V30 17626 H 1721.19 4.10984 -4.1996 0
M  V30 17627 H 1722.72 4.87857 -3.67189 0
M  V30 17628 H 1724.13 2.97011 -4.90364 0
M  V30 17629 H 1722.53 2.4338 -5.48531 0
M  V30 17630 H 1723.6 1.27279 -4.67897 0
M  V30 17631 N 1724.94 1.47523 0.554506 0
M  V30 17632 C 1726.19 1.53982 1.30897 0
M  V30 17633 C 1726.51 0.20487 1.93921 0
M  V30 17634 O 1725.78 -0.771422 1.80072 0
M  V30 17635 H 1724.36 0.567206 0.486092 0
M  V30 17636 H 1727.02 1.83838 0.647284 0
M  V30 17637 H 1726.12 2.30783 2.10109 0
M  V30 17638 N 1726.42 -0.801453 1.357 0
M  V30 17639 C 1727.67 -1.56051 1.30459 0
M  V30 17640 C 1728.02 -1.92034 -0.118612 0
M  V30 17641 O 1727.31 -1.58921 -1.07026 0
M  V30 17642 C 1727.51 -2.85531 2.14957 0
M  V30 17643 C 1727.34 -2.622 3.65351 0
M  V30 17644 C 1726.11 -2.57833 4.34569 0
M  V30 17645 C 1728.31 -2.32224 4.58886 0
M  V30 17646 N 1726.29 -2.26273 5.70678 0
M  V30 17647 C 1727.66 -2.10548 5.83155 0
M  V30 17648 C 1729.71 -2.1813 4.47575 0
M  V30 17649 C 1728.42 -1.76204 6.97384 0
M  V30 17650 C 1730.44 -1.85183 5.61659 0
M  V30 17651 C 1729.8 -1.64346 6.8496 0
M  V30 17652 H 1725.9 -0.572547 0.532648 0
M  V30 17653 H 1728.49 -0.937683 1.70633 0
M  V30 17654 H 1726.66 -3.45701 1.77047 0
M  V30 17655 H 1728.39 -3.51144 2.01197 0
M  V30 17656 H 1725.15 -2.72661 3.87238 0
M  V30 17657 H 1725.57 -2.13273 6.42529 0
M  V30 17658 H 1730.21 -2.32935 3.52847 0
M  V30 17659 H 1727.93 -1.60136 7.92075 0
M  V30 17660 H 1731.52 -1.74979 5.54864 0
M  V30 17661 H 1730.4 -1.39225 7.71742 0
M  V30 17662 N 1727.9 -1.19782 -1.02421 0
M  V30 17663 C 1729.14 -1.0048 -1.76158 0
M  V30 17664 C 1729.48 0.46281 -1.88605 0
M  V30 17665 O 1728.75 1.34366 -1.40628 0
M  V30 17666 C 1729.04 -1.67999 -3.1851 0
M  V30 17667 C 1728.89 -3.22155 -3.13905 0
M  V30 17668 C 1730.21 -1.40681 -4.17009 0
M  V30 17669 H 1727.33 -0.366436 -0.639448 0
M  V30 17670 H 1729.97 -1.47688 -1.19534 0
M  V30 17671 H 1728.12 -1.27862 -3.66856 0
M  V30 17672 H 1729.79 -3.71536 -2.7342 0
M  V30 17673 H 1728.03 -3.53456 -2.51498 0
M  V30 17674 H 1728.7 -3.64548 -4.14498 0
M  V30 17675 H 1731.18 -1.75488 -3.77284 0
M  V30 17676 H 1730.06 -1.90467 -5.14795 0
M  V30 17677 H 1730.32 -0.332889 -4.40845 0
M  V30 17678 N 1729.38 1.21606 -1.00248 0
M  V30 17679 C 1730.63 1.90231 -0.682401 0
M  V30 17680 C 1730.95 1.78324 0.78903 0
M  V30 17681 O 1730.22 1.17653 1.56635 0
M  V30 17682 H 1728.8 0.704132 -0.249414 0
M  V30 17683 H 1731.46 1.47751 -1.27105 0
M  V30 17684 H 1730.55 2.97183 -0.953351 0
M  V30 17685 N 1730.86 0.776895 1.37121 0
M  V30 17686 C 1732.1 0.342876 1.9917 0
M  V30 17687 C 1732.42 -1.08574 1.61977 0
M  V30 17688 O 1731.69 -1.74634 0.887689 0
M  V30 17689 H 1730.27 0.123788 0.736672 0
M  V30 17690 H 1732.94 0.996163 1.67519 0
M  V30 17691 H 1732.03 0.424637 3.09198 0
M  V30 17692 N 1732.33 -1.48497 0.527859 0
M  V30 17693 C 1733.61 -1.9547 -0.0713049 0
M  V30 17694 C 1733.99 -1.47005 -1.51502 0
M  V30 17695 O 1733.34 -0.695609 -2.17655 0
M  V30 17696 C 1733.55 -3.48973 0.0437547 0
M  V30 17697 C 1734.9 -4.2444 -0.116591 0
M  V30 17698 O 1735.92 -3.56187 -0.0301431 0
M  V30 17699 O 1734.78 -5.4569 -0.297491 0
M  V30 17700 H 1731.87 -0.823075 -0.080474 0
M  V30 17701 H 1734.42 -1.59028 0.592307 0
M  V30 17702 H 1733.19 -3.76963 1.04952 0
M  V30 17703 H 1732.81 -3.92104 -0.658803 0
M  V30 17704 N 1733.81 -0.262893 -1.55392 0
M  V30 17705 C 1735.22 0.237224 -1.85187 0
M  V30 17706 C 1735.57 1.56383 -1.18486 0
M  V30 17707 O 1734.7 2.1126 -0.468849 0
M  V30 17708 C 1735.29 0.437206 -3.35967 0
M  V30 17709 C 1733.85 0.881568 -3.65931 0
M  V30 17710 C 1733 -0.0321489 -2.77281 0
M  V30 17711 H 1735.95 -0.485025 -1.51107 0
M  V30 17712 H 1735.97 1.27755 -3.58412 0
M  V30 17713 H 1735.48 -0.528474 -3.84485 0
M  V30 17714 H 1733.58 1.85915 -3.22903 0
M  V30 17715 H 1733.7 0.727355 -4.73547 0
M  V30 17716 H 1732.06 0.48204 -2.50097 0
M  V30 17717 H 1732.84 -0.99349 -3.2861 0
M  V30 17718 N 1735.29 1.57597 0.0100073 0
M  V30 17719 C 1736.24 2.089 1.02292 0
M  V30 17720 C 1737.23 1.00681 1.36234 0
M  V30 17721 O 1738.44 1.19155 1.34915 0
M  V30 17722 H 1734.81 0.666899 0.347491 0
M  V30 17723 H 1736.78 2.9301 0.56458 0
M  V30 17724 C 1735.53 2.59942 2.30923 0
M  V30 17725 H 1734.86 3.4284 2.05672 0
M  V30 17726 H 1736.3 2.99528 3.00098 0
M  V30 17727 C 1734.75 1.50907 3.01212 0
M  V30 17728 O 1735.28 0.886216 3.91802 0
M  V30 17729 N 1733.49 1.23895 2.62866 0
M  V30 17730 H 1733.04 1.7473 1.89281 0
M  V30 17731 H 1733 0.511591 3.1021 0
M  V30 17732 N 1736.77 -0.282606 1.55045 0
M  V30 17733 C 1737.68 -1.37129 1.90349 0
M  V30 17734 C 1738.69 -1.54537 0.799639 0
M  V30 17735 O 1739.87 -1.68849 1.09782 0
M  V30 17736 C 1736.93 -2.71211 2.15975 0
M  V30 17737 C 1736 -2.62632 3.39592 0
M  V30 17738 C 1735.23 -3.90319 3.63987 0
M  V30 17739 O 1735.45 -4.90551 2.9106 0
M  V30 17740 O 1734.39 -3.91102 4.57518 0
M  V30 17741 H 1738.21 -1.10189 2.83006 0
M  V30 17742 H 1735.8 -0.480293 1.41469 0
M  V30 17743 H 1737.68 -3.50509 2.33926 0
M  V30 17744 H 1736.35 -2.97958 1.26503 0
M  V30 17745 H 1735.26 -1.81743 3.26987 0
M  V30 17746 H 1736.59 -2.40836 4.29254 0
M  V30 17747 N 1738.25 -1.47815 -0.546675 0
M  V30 17748 C 1739.52 -1.45464 -1.30765 0
M  V30 17749 C 1739.9 -0.157249 -2.10514 0
M  V30 17750 O 1739.25 0.861203 -2.1165 0
M  V30 17751 C 1739.46 -2.70661 -2.20326 0
M  V30 17752 C 1740.81 -3.18309 -2.81007 0
M  V30 17753 O 1741.83 -2.71462 -2.30623 0
M  V30 17754 O 1740.69 -3.9978 -3.7261 0
M  V30 17755 H 1737.79 -0.580175 -0.589343 0
M  V30 17756 H 1740.33 -1.60029 -0.564707 0
M  V30 17757 H 1739.1 -3.56612 -1.61069 0
M  V30 17758 H 1738.73 -2.58734 -3.01898 0
M  V30 17759 N 1739.72 0.794246 -1.36123 0
M  V30 17760 C 1740.69 1.88828 -1.2991 0
M  V30 17761 C 1741.69 1.59451 -0.207839 0
M  V30 17762 O 1742.88 1.67953 -0.462321 0
M  V30 17763 C 1740.01 3.25511 -1.01269 0
M  V30 17764 H 1741.2 1.95753 -2.27202 0
M  V30 17765 H 1738.75 0.991505 -1.20826 0
M  V30 17766 H 1739.49 3.2427 -0.0441535 0
M  V30 17767 H 1739.27 3.48221 -1.80234 0
M  V30 17768 H 1740.76 4.0557 -0.995142 0
M  V30 17769 N 1741.2 1.20323 1.01785 0
M  V30 17770 C 1742.16 0.9527 2.08462 0
M  V30 17771 C 1743.16 -0.0712564 1.60642 0
M  V30 17772 O 1744.35 0.164672 1.7342 0
M  V30 17773 C 1741.49 0.434052 3.38125 0
M  V30 17774 H 1742.68 1.89895 2.32121 0
M  V30 17775 H 1740.23 1.01843 1.18565 0
M  V30 17776 H 1740.97 -0.51772 3.20141 0
M  V30 17777 H 1740.75 1.17248 3.74159 0
M  V30 17778 H 1742.24 0.278215 4.16672 0
M  V30 17779 N 1742.68 -1.21073 1.00892 0
M  V30 17780 C 1743.59 -2.27265 0.582065 0
M  V30 17781 C 1744.61 -1.69872 -0.376785 0
M  V30 17782 O 1745.78 -1.99969 -0.239644 0
M  V30 17783 C 1742.85 -3.46606 -0.0806764 0
M  V30 17784 C 1741.91 -4.19257 0.923147 0
M  V30 17785 C 1741.14 -5.32901 0.291938 0
M  V30 17786 O 1741.36 -5.6309 -0.910282 0
M  V30 17787 O 1740.3 -5.93453 1.00483 0
M  V30 17788 H 1744.12 -2.65977 1.46594 0
M  V30 17789 H 1741.71 -1.27544 0.777999 0
M  V30 17790 H 1743.59 -4.18978 -0.451177 0
M  V30 17791 H 1742.27 -3.09785 -0.93887 0
M  V30 17792 H 1741.17 -3.4909 1.34488 0
M  V30 17793 H 1742.51 -4.59999 1.75106 0
M  V30 17794 N 1744.16 -0.784156 -1.36707 0
M  V30 17795 C 1745.09 -0.124956 -2.27858 0
M  V30 17796 C 1746.07 0.695835 -1.46959 0
M  V30 17797 O 1747.25 0.667944 -1.76269 0
M  V30 17798 C 1744.38 0.828816 -3.28403 0
M  V30 17799 C 1743.43 0.0904776 -4.26404 0
M  V30 17800 S 1744.26 -1.23012 -5.2118 0
M  V30 17801 C 1745.42 -0.280212 -6.25272 0
M  V30 17802 H 1745.65 -0.89783 -2.83419 0
M  V30 17803 H 1743.18 -0.578123 -1.43168 0
M  V30 17804 H 1745.14 1.37367 -3.86834 0
M  V30 17805 H 1743.8 1.5749 -2.71764 0
M  V30 17806 H 1742.99 0.813986 -4.97383 0
M  V30 17807 H 1742.6 -0.383737 -3.72026 0
M  V30 17808 H 1744.89 0.542878 -6.75321 0
M  V30 17809 H 1745.83 -0.958538 -7.01582 0
M  V30 17810 H 1746.24 0.114109 -5.64385 0
M  V30 17811 N 1745.64 1.48215 -0.535727 0
M  V30 17812 C 1746.88 2.021 -0.00372016 0
M  V30 17813 C 1747.21 1.41456 1.34221 0
M  V30 17814 O 1746.48 0.581987 1.87055 0
M  V30 17815 H 1745.06 0.746998 0.00161295 0
M  V30 17816 H 1747.72 1.81862 -0.700863 0
M  V30 17817 H 1746.81 3.11939 0.100352 0
M  V30 17818 N 1747.11 0.27113 1.5525 0
M  V30 17819 C 1748.53 -0.2274 1.8531 0
M  V30 17820 C 1748.88 -1.55752 1.19314 0
M  V30 17821 O 1748 -2.11008 0.480046 0
M  V30 17822 C 1748.6 -0.419382 3.36194 0
M  V30 17823 C 1747.16 -0.862149 3.66393 0
M  V30 17824 C 1746.3 0.0468534 2.7726 0
M  V30 17825 H 1749.25 0.493032 1.50847 0
M  V30 17826 H 1749.27 -1.25852 3.59084 0
M  V30 17827 H 1748.79 0.548856 3.84199 0
M  V30 17828 H 1746.89 -1.842 3.23884 0
M  V30 17829 H 1747 -0.702231 4.73926 0
M  V30 17830 H 1745.36 -0.468769 2.50349 0
M  V30 17831 H 1746.15 1.0109 3.28079 0
M  V30 17832 N 1748.59 -1.576 -0.00164943 0
M  V30 17833 C 1749.87 -1.81716 -0.723788 0
M  V30 17834 C 1750.25 -0.875694 -1.9208 0
M  V30 17835 O 1749.6 0.0759629 -2.28374 0
M  V30 17836 C 1749.81 -3.30164 -1.13106 0
M  V30 17837 C 1751.16 -3.95859 -1.5356 0
M  V30 17838 O 1752.18 -3.34477 -1.2249 0
M  V30 17839 O 1751.04 -5.03986 -2.1133 0
M  V30 17840 H 1748.13 -0.748213 -0.352287 0
M  V30 17841 H 1750.68 -1.69683 0.0236782 0
M  V30 17842 H 1749.45 -3.90313 -0.277771 0
M  V30 17843 H 1749.07 -3.47188 -1.93768 0
M  V30 17844 N 1750.07 0.274379 -1.55193 0
M  V30 17845 C 1751.3 1.02871 -1.8009 0
M  V30 17846 C 1751.72 1.79202 -0.571676 0
M  V30 17847 O 1751.08 1.74867 0.478679 0
M  V30 17848 C 1751.13 1.96406 -3.02418 0
M  V30 17849 O 1750.23 3.05154 -2.77408 0
M  V30 17850 H 1749.57 0.294181 -0.595276 0
M  V30 17851 H 1752.1 0.303708 -2.02333 0
M  V30 17852 H 1752.11 2.38385 -3.31114 0
M  V30 17853 H 1750.79 1.40261 -3.91535 0
M  V30 17854 H 1749.36 2.675 -2.59805 0
M  V30 17855 N 1751.55 1.48103 0.538828 0
M  V30 17856 C 1752.48 1.58044 1.65996 0
M  V30 17857 C 1753.49 0.465316 1.56009 0
M  V30 17858 O 1754.68 0.735769 1.62631 0
M  V30 17859 C 1751.78 1.48587 3.0459 0
M  V30 17860 C 1750.96 2.74987 3.40148 0
M  V30 17861 C 1750.01 2.59109 4.57984 0
M  V30 17862 O 1749.04 3.32974 4.61646 0
M  V30 17863 N 1750.24 1.68143 5.55615 0
M  V30 17864 H 1753.01 2.54726 1.57908 0
M  V30 17865 H 1750.57 1.44715 0.725901 0
M  V30 17866 H 1752.56 1.35673 3.81281 0
M  V30 17867 H 1751.13 0.599157 3.06804 0
M  V30 17868 H 1750.35 3.02531 2.52723 0
M  V30 17869 H 1751.64 3.58862 3.60687 0
M  V30 17870 H 1751.04 1.07317 5.55427 0
M  V30 17871 H 1749.59 1.61171 6.31559 0
M  V30 17872 N 1753.03 -0.787016 1.36542 0
M  V30 17873 C 1754.44 -1.36234 1.2766 0
M  V30 17874 C 1754.79 -1.96026 -0.0825391 0
M  V30 17875 O 1753.91 -1.92731 -0.984059 0
M  V30 17876 C 1754.51 -2.47684 2.31167 0
M  V30 17877 C 1753.07 -3.01026 2.25966 0
M  V30 17878 C 1752.21 -1.74122 2.15816 0
M  V30 17879 H 1755.17 -0.58847 1.47386 0
M  V30 17880 H 1755.19 -3.26765 1.94949 0
M  V30 17881 H 1754.7 -2.04136 3.30076 0
M  V30 17882 H 1752.8 -3.48988 1.30531 0
M  V30 17883 H 1752.91 -3.57677 3.18754 0
M  V30 17884 H 1751.28 -1.9645 1.6211 0
M  V30 17885 H 1752.06 -1.32699 3.16616 0
M  V30 17886 N 1754.5 -1.20861 -1.01145 0
M  V30 17887 C 1755.47 -0.963742 -2.07954 0
M  V30 17888 C 1756.47 0.0627362 -1.60678 0
M  V30 17889 O 1757.66 -0.173867 -1.7333 0
M  V30 17890 C 1754.79 -0.451977 -3.3789 0
M  V30 17891 H 1755.98 -1.91123 -2.3111 0
M  V30 17892 H 1753.54 -1.0247 -1.18024 0
M  V30 17893 H 1754.27 0.500735 -3.20411 0
M  V30 17894 H 1754.06 -1.19231 -3.73532 0
M  V30 17895 H 1755.55 -0.300308 -4.16519 0
M  V30 17896 N 1755.98 1.20536 -1.01532 0
M  V30 17897 C 1757.4 1.41929 -0.729957 0
M  V30 17898 C 1757.6 1.89286 0.69088 0
M  V30 17899 O 1756.65 2.06094 1.45882 0
M  V30 17900 C 1757.97 2.44202 -1.75458 0
M  V30 17901 C 1759.52 2.57971 -1.77257 0
M  V30 17902 C 1759.99 3.63486 -2.78643 0
M  V30 17903 N 1761.48 3.70968 -2.77375 0
M  V30 17904 C 1762.22 4.52266 -3.52481 0
M  V30 17905 N 1761.71 5.37379 -4.37259 0
M  V30 17906 N 1763.51 4.46787 -3.41084 0
M  V30 17907 H 1755.66 0.881116 -1.93262 0
M  V30 17908 H 1757.92 0.449299 -0.834766 0
M  V30 17909 H 1757.63 2.16401 -2.77243 0
M  V30 17910 H 1757.5 3.43171 -1.56568 0
M  V30 17911 H 1759.89 2.85103 -0.761586 0
M  V30 17912 H 1759.97 1.59202 -2.00221 0
M  V30 17913 H 1759.61 3.37097 -3.79905 0
M  V30 17914 H 1759.54 4.61874 -2.52942 0
M  V30 17915 H 1762.03 3.10171 -2.15876 0
M  V30 17916 H 1762.35 5.96495 -4.91338 0
M  V30 17917 H 1760.69 5.36886 -4.41337 0
M  V30 17918 H 1763.88 3.79329 -2.74275 0
M  V30 17919 H 1764.05 5.0991 -3.9987 0
M  V30 17920 N 1757.46 0.791395 1.36289 0
M  V30 17921 C 1758.87 0.427611 1.81737 0
M  V30 17922 C 1759.22 -1.04868 1.65822 0
M  V30 17923 O 1758.35 -1.81379 1.18028 0
M  V30 17924 C 1758.94 0.769378 3.29949 0
M  V30 17925 C 1757.5 0.458397 3.73598 0
M  V30 17926 C 1756.65 1.00299 2.58526 0
M  V30 17927 H 1759.6 0.98437 1.24482 0
M  V30 17928 H 1759.62 0.061211 3.80451 0
M  V30 17929 H 1759.13 1.8439 3.415 0
M  V30 17930 H 1757.23 -0.608006 3.67606 0
M  V30 17931 H 1757.35 0.980392 4.68962 0
M  V30 17932 H 1755.71 0.426106 2.5111 0
M  V30 17933 H 1756.49 2.08331 2.72861 0
M  V30 17934 N 1758.94 -1.47929 0.54358 0
M  V30 17935 C 1760.19 -2.02095 0.0144379 0
M  V30 17936 C 1760.51 -1.42166 -1.33469 0
M  V30 17937 O 1759.78 -0.591899 -1.86744 0
M  V30 17938 H 1758.36 -0.746996 0.00234858 0
M  V30 17939 H 1761.02 -1.81488 0.710498 0
M  V30 17940 H 1760.12 -3.11987 -0.0838074 0
M  V30 17941 N 1760.42 -0.27936 -1.55104 0
M  V30 17942 C 1761.35 0.599831 -2.25664 0
M  V30 17943 C 1762.33 1.15548 -1.24831 0
M  V30 17944 O 1763.51 1.18883 -1.53559 0
M  V30 17945 C 1760.64 1.78202 -2.98096 0
M  V30 17946 C 1759.6 1.35771 -4.05894 0
M  V30 17947 C 1758.92 2.62334 -4.65924 0
M  V30 17948 C 1760.22 0.504795 -5.19855 0
M  V30 17949 H 1761.92 0.0113761 -2.99398 0
M  V30 17950 H 1759.46 0.00403149 -1.43999 0
M  V30 17951 H 1761.42 2.403 -3.4617 0
M  V30 17952 H 1760.14 2.39637 -2.21905 0
M  V30 17953 H 1758.8 0.75991 -3.58638 0
M  V30 17954 H 1758.45 3.22036 -3.86396 0
M  V30 17955 H 1758.15 2.34654 -5.38713 0
M  V30 17956 H 1759.67 3.25273 -5.16749 0
M  V30 17957 H 1761.09 1.03089 -5.63955 0
M  V30 17958 H 1759.48 0.322696 -5.99232 0
M  V30 17959 H 1760.55 -0.475409 -4.82564 0
M  V30 17960 N 1761.9 1.57599 -0.0067085 0
M  V30 17961 C 1762.83 2.11878 0.981331 0
M  V30 17962 C 1763.81 1.02949 1.35408 0
M  V30 17963 O 1764.99 1.30667 1.43665 0
M  V30 17964 C 1762.12 2.62757 2.27104 0
M  V30 17965 C 1761.08 3.76272 2.0397 0
M  V30 17966 C 1760.4 4.13491 3.39012 0
M  V30 17967 C 1761.7 5.03274 1.39688 0
M  V30 17968 H 1763.4 2.94683 0.529366 0
M  V30 17969 H 1760.94 1.41757 0.253187 0
M  V30 17970 H 1762.89 2.99359 2.96585 0
M  V30 17971 H 1761.62 1.77082 2.74426 0
M  V30 17972 H 1760.28 3.40074 1.36913 0
M  V30 17973 H 1759.93 3.24831 3.8405 0
M  V30 17974 H 1759.63 4.89972 3.24347 0
M  V30 17975 H 1761.15 4.52657 4.09797 0
M  V30 17976 H 1762.56 5.37604 1.99136 0
M  V30 17977 H 1760.96 5.84604 1.3549 0
M  V30 17978 H 1762.03 4.8351 0.366928 0
M  V30 17979 N 1763.37 -0.266145 1.55336 0
M  V30 17980 C 1764.3 -1.33322 1.91697 0
M  V30 17981 C 1765.28 -1.51182 0.77961 0
M  V30 17982 O 1766.47 -1.64112 1.03832 0
M  V30 17983 C 1763.6 -2.69151 2.19488 0
M  V30 17984 C 1762.55 -2.66012 3.35293 0
M  V30 17985 C 1761.88 -4.05458 3.4858 0
M  V30 17986 C 1763.18 -2.24681 4.71504 0
M  V30 17987 H 1764.87 -1.03138 2.81075 0
M  V30 17988 H 1762.42 -0.494702 1.35236 0
M  V30 17989 H 1764.37 -3.43918 2.43512 0
M  V30 17990 H 1763.1 -3.00932 1.26916 0
M  V30 17991 H 1761.76 -1.93703 3.11247 0
M  V30 17992 H 1761.4 -4.34472 2.53462 0
M  V30 17993 H 1761.1 -4.04251 4.26445 0
M  V30 17994 H 1762.63 -4.81954 3.74904 0
M  V30 17995 H 1764.04 -2.89173 4.95027 0
M  V30 17996 H 1762.44 -2.34622 5.52334 0
M  V30 17997 H 1763.51 -1.19819 4.69863 0
M  V30 17998 N 1764.85 -1.48386 -0.530967 0
M  V30 17999 C 1766.27 -1.34485 -0.859412 0
M  V30 18000 C 1766.47 -0.355124 -1.98346 0
M  V30 18001 O 1765.52 0.224012 -2.51504 0
M  V30 18002 C 1766.84 -2.74488 -1.22787 0
M  V30 18003 C 1768.38 -2.82969 -1.33781 0
M  V30 18004 C 1768.86 -4.23673 -1.7397 0
M  V30 18005 N 1770.35 -4.26341 -1.81074 0
M  V30 18006 C 1771.09 -5.32149 -2.13554 0
M  V30 18007 N 1770.58 -6.48235 -2.44464 0
M  V30 18008 N 1772.37 -5.19542 -2.14551 0
M  V30 18009 H 1764.53 -2.11352 0.210713 0
M  V30 18010 H 1766.79 -0.947472 0.0316283 0
M  V30 18011 H 1766.49 -3.4847 -0.475552 0
M  V30 18012 H 1766.37 -3.0795 -2.17823 0
M  V30 18013 H 1768.76 -2.09244 -2.08089 0
M  V30 18014 H 1768.84 -2.53129 -0.368677 0
M  V30 18015 H 1768.48 -4.97914 -1.00222 0
M  V30 18016 H 1768.41 -4.50956 -2.71931 0
M  V30 18017 H 1770.9 -3.42606 -1.59467 0
M  V30 18018 H 1771.21 -7.24712 -2.6835 0
M  V30 18019 H 1769.56 -6.51512 -2.41986 0
M  V30 18020 H 1772.75 -4.27868 -1.89859 0
M  V30 18021 H 1772.92 -6.02103 -2.39532 0
M  V30 18022 N 1766.33 0.779763 -1.36958 0
M  V30 18023 C 1767.28 1.88277 -1.28592 0
M  V30 18024 C 1768.26 1.59941 -0.175389 0
M  V30 18025 O 1769.46 1.72208 -0.409071 0
M  V30 18026 C 1766.58 3.25632 -1.08715 0
M  V30 18027 C 1765.67 3.59945 -2.24277 0
M  V30 18028 N 1766.06 3.65497 -3.49636 0
M  V30 18029 C 1764.36 3.90064 -2.16255 0
M  V30 18030 C 1765.06 3.96328 -4.25792 0
M  V30 18031 N 1764.04 4.11812 -3.5484 0
M  V30 18032 H 1767.84 1.90809 -2.23538 0
M  V30 18033 H 1765.35 0.975794 -1.29815 0
M  V30 18034 H 1767.35 4.04529 -1.00807 0
M  V30 18035 H 1766.01 3.24368 -0.146786 0
M  V30 18036 H 1767.02 3.47902 -3.83647 0
M  V30 18037 H 1763.7 3.96669 -1.3023 0
M  V30 18038 H 1765.09 4.07466 -5.34248 0
M  V30 18039 N 1767.81 1.21396 1.00503 0
M  V30 18040 C 1768.76 0.97023 2.11398 0
M  V30 18041 C 1769.75 -0.0825019 1.69199 0
M  V30 18042 O 1770.96 0.0688841 1.79868 0
M  V30 18043 H 1767.33 0.296494 0.691083 0
M  V30 18044 H 1769.3 1.91155 2.29134 0
M  V30 18045 C 1768.05 0.551472 3.43299 0
M  V30 18046 H 1767.37 1.35316 3.76204 0
M  V30 18047 H 1768.81 0.420249 4.21912 0
M  V30 18048 C 1767.27 -0.737588 3.28727 0
M  V30 18049 O 1767.8 -1.79313 3.59458 0
M  V30 18050 N 1766.01 -0.704084 2.81942 0
M  V30 18051 H 1765.56 0.155183 2.57132 0
M  V30 18052 H 1765.51 -1.56689 2.72573 0
M  V30 18053 N 1769.29 -1.19996 1.0217 0
M  V30 18054 C 1770.22 -2.25206 0.616818 0
M  V30 18055 C 1771.2 -1.66013 -0.370653 0
M  V30 18056 O 1772.38 -1.92519 -0.254956 0
M  V30 18057 C 1769.51 -3.47276 -0.0405129 0
M  V30 18058 C 1768.47 -4.19096 0.868479 0
M  V30 18059 C 1767.79 -5.34645 0.0766447 0
M  V30 18060 C 1769.09 -4.7468 2.1789 0
M  V30 18061 H 1770.79 -2.59328 1.49632 0
M  V30 18062 H 1768.33 -1.24655 0.720917 0
M  V30 18063 H 1770.28 -4.20063 -0.335355 0
M  V30 18064 H 1769.01 -3.12333 -0.954759 0
M  V30 18065 H 1767.67 -3.48181 1.1474 0
M  V30 18066 H 1767.32 -4.95946 -0.839411 0
M  V30 18067 H 1767.02 -5.83628 0.682041 0
M  V30 18068 H 1768.54 -6.10233 -0.211624 0
M  V30 18069 H 1769.95 -5.39259 1.94608 0
M  V30 18070 H 1768.35 -5.34121 2.7356 0
M  V30 18071 H 1769.42 -3.93141 2.83845 0
M  V30 18072 N 1770.76 -0.798611 -1.35867 0
M  V30 18073 C 1771.99 -0.386378 -2.03769 0
M  V30 18074 C 1772.41 0.992154 -1.59806 0
M  V30 18075 O 1771.77 1.64094 -0.770895 0
M  V30 18076 C 1771.82 -0.468859 -3.57539 0
M  V30 18077 O 1770.92 0.520742 -4.09099 0
M  V30 18078 H 1770.26 -0.162597 -0.643784 0
M  V30 18079 H 1772.79 -1.08228 -1.73631 0
M  V30 18080 H 1772.8 -0.335775 -4.06616 0
M  V30 18081 H 1771.48 -1.47441 -3.88888 0
M  V30 18082 H 1770.06 0.348559 -3.71267 0
M  V30 18083 N 1772.24 1.47639 -0.551417 0
M  V30 18084 C 1773.49 2.02084 -0.0251553 0
M  V30 18085 C 1773.81 1.42872 1.32713 0
M  V30 18086 O 1773.08 0.601794 1.86428 0
M  V30 18087 H 1771.66 0.746973 -0.00631005 0
M  V30 18088 H 1774.32 1.81109 -0.720113 0
M  V30 18089 H 1773.42 3.12028 0.0672608 0
M  V30 18090 N 1773.72 0.287581 1.54954 0
M  V30 18091 C 1775.14 -0.0662092 1.59463 0
M  V30 18092 C 1775.34 -1.53556 1.30471 0
M  V30 18093 O 1774.39 -2.28632 1.07161 0
M  V30 18094 C 1775.71 0.319651 2.98996 0
M  V30 18095 C 1777.25 0.2673 3.11857 0
M  V30 18096 C 1777.73 0.627784 4.53677 0
M  V30 18097 N 1779.22 0.579808 4.59557 0
M  V30 18098 C 1779.95 0.831377 5.67341 0
M  V30 18099 N 1779.45 1.14821 6.83219 0
M  V30 18100 N 1781.24 0.759337 5.56947 0
M  V30 18101 H 1773.39 1.24534 1.72062 0
M  V30 18102 H 1775.66 0.503969 0.802944 0
M  V30 18103 H 1775.36 1.34201 3.25089 0
M  V30 18104 H 1775.24 -0.333373 3.75724 0
M  V30 18105 H 1777.62 -0.745794 2.8552 0
M  V30 18106 H 1777.71 0.954759 2.37314 0
M  V30 18107 H 1777.35 1.63862 4.80741 0
M  V30 18108 H 1777.28 -0.0816007 5.26537 0
M  V30 18109 H 1779.77 0.34531 3.76319 0
M  V30 18110 H 1780.08 1.32651 7.6133 0
M  V30 18111 H 1778.43 1.18612 6.84804 0
M  V30 18112 H 1781.62 0.511563 4.65296 0
M  V30 18113 H 1781.79 0.95877 6.40868 0
M  V30 18114 N 1775.2 -1.57593 0.0150662 0
M  V30 18115 C 1776.43 -1.95221 -0.676193 0
M  V30 18116 C 1776.84 -0.889349 -1.66995 0
M  V30 18117 O 1776.18 0.138825 -1.83175 0
M  V30 18118 C 1776.24 -3.28921 -1.45092 0
M  V30 18119 C 1775.91 -4.52815 -0.61707 0
M  V30 18120 C 1776.9 -5.19801 0.101686 0
M  V30 18121 C 1774.59 -4.99184 -0.558606 0
M  V30 18122 C 1776.58 -6.31466 0.86773 0
M  V30 18123 C 1774.27 -6.10735 0.211154 0
M  V30 18124 C 1775.27 -6.76734 0.923041 0
M  V30 18125 O 1774.95 -7.86145 1.68021 0
M  V30 18126 H 1774.69 -0.648074 -0.192293 0
M  V30 18127 H 1777.24 -2.05291 0.0668663 0
M  V30 18128 H 1775.47 -3.15301 -2.2388 0
M  V30 18129 H 1777.16 -3.51552 -2.02894 0
M  V30 18130 H 1777.93 -4.84955 0.0657637 0
M  V30 18131 H 1773.8 -4.47629 -1.10226 0
M  V30 18132 H 1777.35 -6.82913 1.42391 0
M  V30 18133 H 1773.25 -6.4502 0.248843 0
M  V30 18134 H 1774.01 -8.02739 1.5985 0
M  V30 18135 N 1776.68 0.257904 -1.55475 0
M  V30 18136 C 1777.59 1.34084 -1.92506 0
M  V30 18137 C 1778.6 1.53246 -0.824123 0
M  V30 18138 O 1779.78 1.67081 -1.12455 0
M  V30 18139 C 1776.84 2.67741 -2.20263 0
M  V30 18140 C 1775.9 2.57196 -3.43728 0
M  V30 18141 C 1775.14 3.84479 -3.7015 0
M  V30 18142 O 1775.36 4.85858 -2.98827 0
M  V30 18143 O 1774.29 3.83774 -4.63682 0
M  V30 18144 H 1778.12 1.05672 -2.84723 0
M  V30 18145 H 1775.71 0.457726 -1.42215 0
M  V30 18146 H 1777.59 3.46743 -2.39473 0
M  V30 18147 H 1776.26 2.95907 -1.31227 0
M  V30 18148 H 1775.17 1.76518 -3.29837 0
M  V30 18149 H 1776.5 2.33977 -4.33031 0
M  V30 18150 N 1778.15 1.48666 0.52309 0
M  V30 18151 C 1779.38 1.60965 1.30787 0
M  V30 18152 C 1779.8 0.272663 1.86113 0
M  V30 18153 O 1779.16 -0.756662 1.64755 0
M  V30 18154 C 1779.21 2.66455 2.42969 0
M  V30 18155 O 1778.31 2.24094 3.46202 0
M  V30 18156 H 1777.66 0.539516 0.387064 0
M  V30 18157 H 1780.19 1.94702 0.628683 0
M  V30 18158 H 1780.2 2.87942 2.89056 0
M  V30 18159 H 1778.87 3.63516 2.02062 0
M  V30 18160 H 1777.45 2.12848 3.06186 0
M  V30 18161 N 1779.63 -0.772489 1.37369 0
M  V30 18162 C 1781.05 -1.07294 1.18153 0
M  V30 18163 C 1781.25 -2.01493 0.0171782 0
M  V30 18164 O 1780.3 -2.44177 -0.642964 0
M  V30 18165 C 1781.62 -1.67116 2.49986 0
M  V30 18166 C 1783.17 -1.79377 2.56501 0
M  V30 18167 C 1783.64 -2.42612 3.88463 0
M  V30 18168 N 1785.13 -2.50063 3.89901 0
M  V30 18169 C 1785.87 -2.99841 4.88756 0
M  V30 18170 N 1785.36 -3.49798 5.98008 0
M  V30 18171 N 1787.16 -2.98709 4.76161 0
M  V30 18172 H 1779.31 -0.147014 2.11891 0
M  V30 18173 H 1781.57 -0.127846 0.93934 0
M  V30 18174 H 1781.28 -1.05369 3.35545 0
M  V30 18175 H 1781.15 -2.6642 2.67021 0
M  V30 18176 H 1783.54 -2.40257 1.71349 0
M  V30 18177 H 1783.62 -0.788304 2.4335 0
M  V30 18178 H 1783.26 -1.82372 4.74029 0
M  V30 18179 H 1783.19 -3.43763 3.98917 0
M  V30 18180 H 1785.68 -2.14709 3.1098 0
M  V30 18181 H 1786 -3.86181 6.69391 0
M  V30 18182 H 1784.34 -3.47905 6.01654 0
M  V30 18183 H 1787.53 -2.5898 3.89932 0
M  V30 18184 H 1787.7 -3.37193 5.53358 0
M  V30 18185 N 1781.11 -1.21927 -0.998575 0
M  V30 18186 C 1782.36 -1.05199 -1.74082 0
M  V30 18187 C 1782.71 0.409387 -1.87994 0
M  V30 18188 O 1782 1.29958 -1.40788 0
M  V30 18189 C 1782.2 -1.69015 -3.1491 0
M  V30 18190 C 1782.03 -3.21208 -3.14731 0
M  V30 18191 C 1780.8 -3.90284 -3.20946 0
M  V30 18192 C 1783 -4.18214 -2.99335 0
M  V30 18193 N 1780.98 -5.29611 -3.10461 0
M  V30 18194 C 1782.35 -5.44334 -2.96816 0
M  V30 18195 C 1784.4 -4.09179 -2.83684 0
M  V30 18196 C 1783.11 -6.62459 -2.80251 0
M  V30 18197 C 1785.13 -5.26948 -2.68477 0
M  V30 18198 C 1784.49 -6.51983 -2.66641 0
M  V30 18199 H 1780.59 -0.439342 -0.646918 0
M  V30 18200 H 1783.18 -1.54381 -1.18636 0
M  V30 18201 H 1781.35 -1.22392 -3.68612 0
M  V30 18202 H 1783.08 -1.45433 -3.77666 0
M  V30 18203 H 1779.84 -3.41248 -3.284 0
M  V30 18204 H 1780.26 -6.02603 -3.08543 0
M  V30 18205 H 1784.9 -3.13301 -2.83905 0
M  V30 18206 H 1782.62 -7.58492 -2.78776 0
M  V30 18207 H 1786.21 -5.21784 -2.57358 0
M  V30 18208 H 1785.09 -7.41577 -2.55016 0
M  V30 18209 N 1782.59 1.19452 -1.02805 0
M  V30 18210 C 1783.55 2.20857 -0.612757 0
M  V30 18211 C 1784.55 1.57519 0.323182 0
M  V30 18212 O 1785.74 1.7385 0.110303 0
M  V30 18213 C 1782.87 3.40743 0.103488 0
M  V30 18214 H 1784.07 2.59113 -1.50998 0
M  V30 18215 H 1781.62 1.33116 -0.819142 0
M  V30 18216 H 1782.35 3.08004 1.0151 0
M  V30 18217 H 1782.14 3.87949 -0.56903 0
M  V30 18218 H 1783.63 4.15858 0.380998 0
M  V30 18219 N 1784.07 0.805805 1.35442 0
M  V30 18220 C 1785.29 0.397179 2.03561 0
M  V30 18221 C 1785.72 -0.983665 1.6033 0
M  V30 18222 O 1785.07 -1.63683 0.779586 0
M  V30 18223 C 1785.12 0.487813 3.57285 0
M  V30 18224 O 1784.23 -0.499039 4.09369 0
M  V30 18225 H 1783.57 0.166009 0.642913 0
M  V30 18226 H 1786.1 1.09147 1.73055 0
M  V30 18227 H 1786.11 0.357334 4.06432 0
M  V30 18228 H 1784.78 1.49501 3.88101 0
M  V30 18229 H 1783.36 -0.328864 3.71447 0
M  V30 18230 N 1785.54 -1.47344 0.559239 0
M  V30 18231 C 1786.79 -2.02768 0.0359962 0
M  V30 18232 C 1787.12 -1.43247 -1.31126 0
M  V30 18233 O 1786.4 -0.588793 -1.85374 0
M  V30 18234 C 1786.68 -3.60058 -0.0549111 0
M  V30 18235 C 1786.53 -4.30008 1.31958 0
M  V30 18236 C 1787.85 -4.33359 -0.767331 0
M  V30 18237 H 1784.97 -0.736856 0.0145552 0
M  V30 18238 H 1787.61 -1.75751 0.72192 0
M  V30 18239 H 1785.76 -3.83208 -0.639076 0
M  V30 18240 H 1787.44 -4.18193 1.94711 0
M  V30 18241 H 1785.68 -3.90283 1.89372 0
M  V30 18242 H 1786.35 -5.38605 1.20867 0
M  V30 18243 H 1788.83 -4.15215 -0.27131 0
M  V30 18244 H 1787.7 -5.4304 -0.799905 0
M  V30 18245 H 1787.96 -4.02725 -1.82387 0
M  V30 18246 N 1787.02 -0.295795 -1.54799 0
M  V30 18247 C 1788.44 0.0577516 -1.59495 0
M  V30 18248 C 1788.64 1.52862 -1.31284 0
M  V30 18249 O 1787.69 2.28061 -1.08372 0
M  V30 18250 C 1789.01 -0.335503 -2.98822 0
M  V30 18251 C 1790.56 -0.283835 -3.1171 0
M  V30 18252 C 1791.03 -0.651835 -4.53338 0
M  V30 18253 N 1792.52 -0.604171 -4.59243 0
M  V30 18254 C 1793.26 -0.861453 -5.66892 0
M  V30 18255 N 1792.75 -1.18443 -6.826 0
M  V30 18256 N 1794.55 -0.788863 -5.56537 0
M  V30 18257 H 1786.7 -1.25444 -1.71399 0
M  V30 18258 H 1788.96 -0.50822 -0.80026 0
M  V30 18259 H 1788.67 -1.35923 -3.24373 0
M  V30 18260 H 1788.54 0.313443 -3.75895 0
M  V30 18261 H 1790.93 0.730641 -2.85912 0
M  V30 18262 H 1791.01 -0.967331 -2.36804 0
M  V30 18263 H 1790.65 -1.66409 -4.79865 0
M  V30 18264 H 1790.58 0.053676 -5.26573 0
M  V30 18265 H 1793.07 -0.365262 -3.76131 0
M  V30 18266 H 1793.39 -1.36686 -7.60616 0
M  V30 18267 H 1791.73 -1.22242 -6.84165 0
M  V30 18268 H 1794.92 -0.536231 -4.65018 0
M  V30 18269 H 1795.09 -0.992744 -6.4035 0
M  V30 18270 N 1788.5 1.57583 -0.0234236 0
M  V30 18271 C 1789.75 1.91848 0.657422 0
M  V30 18272 C 1790.08 0.899633 1.72105 0
M  V30 18273 O 1789.36 -0.0784409 1.94342 0
M  V30 18274 C 1789.64 3.36617 1.2791 0
M  V30 18275 C 1789.49 4.49235 0.225421 0
M  V30 18276 C 1790.81 3.81239 2.19874 0
M  V30 18277 H 1787.93 0.697677 0.23752 0
M  V30 18278 H 1790.57 1.89834 -0.0795169 0
M  V30 18279 H 1788.72 3.38465 1.90719 0
M  V30 18280 H 1790.39 4.59521 -0.404792 0
M  V30 18281 H 1788.64 4.31462 -0.449749 0
M  V30 18282 H 1789.31 5.47545 0.699906 0
M  V30 18283 H 1791.78 3.81092 1.67058 0
M  V30 18284 H 1790.66 4.8324 2.60328 0
M  V30 18285 H 1790.92 3.16421 3.08755 0
M  V30 18286 N 1789.98 -0.249655 1.5561 0
M  V30 18287 C 1791.23 -0.976148 1.76963 0
M  V30 18288 C 1791.55 -1.85958 0.586903 0
M  V30 18289 O 1790.82 -1.91827 -0.397415 0
M  V30 18290 H 1789.4 -0.363416 0.652639 0
M  V30 18291 H 1792.06 -0.268264 1.93045 0
M  V30 18292 H 1791.16 -1.59948 2.67998 0
M  V30 18293 N 1791.46 -1.48941 -0.515198 0
M  V30 18294 C 1792.87 -1.51076 -1.09695 0
M  V30 18295 C 1793.22 -0.288875 -1.94062 0
M  V30 18296 O 1792.34 0.602665 -2.07839 0
M  V30 18297 C 1792.94 -2.73755 -1.99609 0
M  V30 18298 C 1791.5 -2.78714 -2.52974 0
M  V30 18299 C 1790.65 -2.44798 -1.30266 0
M  V30 18300 H 1793.6 -1.55843 -0.299757 0
M  V30 18301 H 1793.62 -2.53112 -2.84103 0
M  V30 18302 H 1793.13 -3.62668 -1.38178 0
M  V30 18303 H 1791.23 -1.94045 -3.18084 0
M  V30 18304 H 1791.34 -3.80525 -2.91097 0
M  V30 18305 H 1789.71 -1.9627 -1.62327 0
M  V30 18306 H 1790.49 -3.35969 -0.705648 0
M  V30 18307 N 1792.94 0.765193 -1.37777 0
M  V30 18308 C 1794.18 1.52096 -1.33084 0
M  V30 18309 C 1794.5 1.94827 0.08221 0
M  V30 18310 O 1793.77 1.66787 1.02757 0
M  V30 18311 H 1792.35 0.564139 -0.489649 0
M  V30 18312 H 1795.02 0.910308 -1.72335 0
M  V30 18313 H 1794.11 2.4173 -1.97416 0
M  V30 18314 N 1794.41 1.22455 0.992094 0
M  V30 18315 C 1795.82 1.04629 1.54627 0
M  V30 18316 C 1796.18 -0.390011 1.92285 0
M  V30 18317 O 1795.3 -1.27511 1.74842 0
M  V30 18318 C 1795.9 1.89306 2.80978 0
M  V30 18319 C 1794.45 1.75775 3.32836 0
M  V30 18320 C 1793.6 1.85724 2.05917 0
M  V30 18321 H 1796.55 1.36288 0.813089 0
M  V30 18322 H 1796.57 1.41095 3.53373 0
M  V30 18323 H 1796.09 2.93836 2.53539 0
M  V30 18324 H 1794.19 0.739821 3.65181 0
M  V30 18325 H 1794.3 2.58491 4.03385 0
M  V30 18326 H 1792.66 1.29173 2.19514 0
M  V30 18327 H 1793.45 2.91787 1.80874 0
M  V30 18328 N 1795.89 -1.18905 1.03437 0
M  V30 18329 C 1796.85 -2.20529 0.624461 0
M  V30 18330 C 1797.85 -1.57688 -0.314824 0
M  V30 18331 O 1799.04 -1.73906 -0.101082 0
M  V30 18332 C 1796.18 -3.40793 -0.0854166 0
M  V30 18333 H 1797.37 -2.58309 1.5237 0
M  V30 18334 H 1794.92 -1.32679 0.826189 0
M  V30 18335 H 1795.66 -3.08538 -0.998747 0
M  V30 18336 H 1795.44 -3.87642 0.589596 0
M  V30 18337 H 1796.93 -4.16055 -0.358938 0
M  V30 18338 N 1797.37 -0.812977 -1.35013 0
M  V30 18339 C 1798.3 -0.242397 -2.32238 0
M  V30 18340 C 1799.28 0.635676 -1.57776 0
M  V30 18341 O 1800.47 0.564621 -1.85811 0
M  V30 18342 C 1797.6 0.604686 -3.41995 0
M  V30 18343 C 1796.55 -0.17542 -4.2764 0
M  V30 18344 C 1795.88 0.793772 -5.28775 0
M  V30 18345 C 1797.18 -1.37802 -5.03794 0
M  V30 18346 H 1798.87 -1.0547 -2.80208 0
M  V30 18347 H 1796.42 -0.508619 -1.34718 0
M  V30 18348 H 1798.37 1.01396 -4.09019 0
M  V30 18349 H 1797.09 1.44994 -2.9265 0
M  V30 18350 H 1795.75 -0.565948 -3.62205 0
M  V30 18351 H 1795.4 1.63471 -4.75696 0
M  V30 18352 H 1795.1 0.276085 -5.86951 0
M  V30 18353 H 1796.62 1.20112 -5.9867 0
M  V30 18354 H 1798.04 -1.04328 -5.63727 0
M  V30 18355 H 1796.43 -1.83064 -5.71496 0
M  V30 18356 H 1797.5 -2.16138 -4.34065 0
M  V30 18357 N 1798.85 1.47045 -0.567045 0
M  V30 18358 C 1799.78 2.27106 0.223156 0
M  V30 18359 C 1800.76 1.34662 0.911315 0
M  V30 18360 O 1801.94 1.64055 0.92834 0
M  V30 18361 C 1799.07 3.1197 1.31879 0
M  V30 18362 C 1798.12 4.20064 0.738145 0
M  V30 18363 S 1798.95 5.33828 -0.422892 0
M  V30 18364 C 1800.1 6.22257 0.674324 0
M  V30 18365 H 1800.34 2.93779 -0.456193 0
M  V30 18366 H 1797.87 1.50297 -0.353581 0
M  V30 18367 H 1799.83 3.61432 1.9462 0
M  V30 18368 H 1798.49 2.44641 1.97002 0
M  V30 18369 H 1797.68 4.7921 1.56122 0
M  V30 18370 H 1797.28 3.73534 0.186721 0
M  V30 18371 H 1799.58 6.59201 1.56398 0
M  V30 18372 H 1800.52 7.07998 0.11999 0
M  V30 18373 H 1800.93 5.56079 0.971422 0
M  V30 18374 N 1800.33 0.304 1.5464 0
M  V30 18375 C 1801.26 -0.563854 2.2659 0
M  V30 18376 C 1802.24 -1.13547 1.26653 0
M  V30 18377 O 1803.42 -1.16425 1.55431 0
M  V30 18378 C 1800.55 -1.73437 3.00894 0
M  V30 18379 C 1799.51 -1.29297 4.08003 0
M  V30 18380 C 1798.83 -2.54888 4.70038 0
M  V30 18381 C 1800.13 -0.422027 5.20592 0
M  V30 18382 H 1801.83 0.0362569 2.99378 0
M  V30 18383 H 1799.37 0.0188781 1.43988 0
M  V30 18384 H 1801.32 -2.34762 3.4995 0
M  V30 18385 H 1800.05 -2.36076 2.25689 0
M  V30 18386 H 1798.71 -0.702757 3.59801 0
M  V30 18387 H 1798.36 -3.15848 3.9147 0
M  V30 18388 H 1798.06 -2.26054 5.42378 0
M  V30 18389 H 1799.58 -3.17011 5.21859 0
M  V30 18390 H 1800.99 -0.941036 5.65524 0
M  V30 18391 H 1799.39 -0.227323 5.99669 0
M  V30 18392 H 1800.46 0.55212 4.81746 0
M  V30 18393 N 1801.8 -1.57568 0.0317802 0
M  V30 18394 C 1803.22 -1.56264 -0.324633 0
M  V30 18395 C 1803.42 -1.03765 -1.72728 0
M  V30 18396 O 1802.48 -0.685566 -2.43015 0
M  V30 18397 C 1803.79 -3.00214 -0.170806 0
M  V30 18398 C 1805.34 -3.12052 -0.243373 0
M  V30 18399 C 1805.81 -4.57847 -0.118304 0
M  V30 18400 N 1807.3 -4.62869 -0.175203 0
M  V30 18401 C 1808.04 -5.73309 -0.102252 0
M  V30 18402 N 1807.53 -6.92797 0.0219373 0
M  V30 18403 N 1809.33 -5.61882 -0.156432 0
M  V30 18404 H 1801.48 -1.90022 0.948968 0
M  V30 18405 H 1803.74 -0.874208 0.366693 0
M  V30 18406 H 1803.45 -3.42585 0.795517 0
M  V30 18407 H 1803.32 -3.65302 -0.939907 0
M  V30 18408 H 1805.71 -2.69593 -1.20016 0
M  V30 18409 H 1805.79 -2.49681 0.55615 0
M  V30 18410 H 1805.43 -5.00988 0.835072 0
M  V30 18411 H 1805.36 -5.18202 -0.936726 0
M  V30 18412 H 1807.85 -3.76925 -0.271225 0
M  V30 18413 H 1808.17 -7.72768 0.0708376 0
M  V30 18414 H 1806.51 -6.94977 0.0567564 0
M  V30 18415 H 1809.7 -4.67422 -0.251873 0
M  V30 18416 H 1809.88 -6.47929 -0.0961177 0
M  V30 18417 N 1803.28 0.241399 -1.5574 0
M  V30 18418 C 1804.53 0.96675 -1.77478 0
M  V30 18419 C 1804.85 1.85644 -0.596757 0
M  V30 18420 O 1804.12 1.92035 0.387236 0
M  V30 18421 H 1802.7 0.35995 -0.654557 0
M  V30 18422 H 1805.36 0.258023 -1.93185 0
M  V30 18423 H 1804.46 1.58524 -2.68843 0
M  V30 18424 N 1804.76 1.49212 0.507292 0
M  V30 18425 C 1805.69 1.60013 1.62699 0
M  V30 18426 C 1806.67 0.449472 1.56264 0
M  V30 18427 O 1807.86 0.66417 1.76412 0
M  V30 18428 C 1804.98 1.54923 3.01192 0
M  V30 18429 C 1804.03 2.7511 3.2591 0
M  V30 18430 S 1804.86 4.3685 3.09714 0
M  V30 18431 C 1806.02 4.34395 4.50613 0
M  V30 18432 H 1806.25 2.54733 1.53291 0
M  V30 18433 H 1803.78 1.38025 0.69198 0
M  V30 18434 H 1805.74 1.52673 3.81053 0
M  V30 18435 H 1804.4 0.615015 3.0802 0
M  V30 18436 H 1803.6 2.6775 4.26996 0
M  V30 18437 H 1803.2 2.7474 2.5376 0
M  V30 18438 H 1805.49 4.05727 5.42579 0
M  V30 18439 H 1806.43 5.35738 4.63023 0
M  V30 18440 H 1806.84 3.64556 4.30998 0
M  V30 18441 N 1806.24 -0.757876 1.38181 0
M  V30 18442 C 1807.15 -1.90234 1.37289 0
M  V30 18443 C 1808.16 -1.71883 0.270567 0
M  V30 18444 O 1809.34 -1.94881 0.508279 0
M  V30 18445 C 1806.41 -3.25546 1.19251 0
M  V30 18446 C 1805.47 -3.56452 2.39249 0
M  V30 18447 C 1804.7 -4.85308 2.22063 0
M  V30 18448 O 1804.92 -5.57373 1.2121 0
M  V30 18449 O 1803.86 -5.15594 3.10558 0
M  V30 18450 H 1807.68 -1.9394 2.33711 0
M  V30 18451 H 1805.27 -0.902559 1.19056 0
M  V30 18452 H 1807.15 -4.06454 1.11235 0
M  V30 18453 H 1805.82 -3.22661 0.259109 0
M  V30 18454 H 1804.73 -2.75723 2.52839 0
M  V30 18455 H 1806.06 -3.64094 3.31205 0
M  V30 18456 N 1807.72 -1.22979 -0.985586 0
M  V30 18457 C 1808.96 -1.05667 -1.72275 0
M  V30 18458 C 1809.29 0.408045 -1.90683 0
M  V30 18459 O 1808.56 1.29293 -1.47174 0
M  V30 18460 H 1807.14 -0.388017 -0.63832 0
M  V30 18461 H 1809.8 -1.54612 -1.18665 0
M  V30 18462 H 1808.89 -1.54043 -2.71436 0
M  V30 18463 N 1809.19 1.18355 -1.04066 0
M  V30 18464 C 1810.16 2.20195 -0.636148 0
M  V30 18465 C 1811.16 1.57853 0.306457 0
M  V30 18466 O 1812.35 1.73958 0.0918576 0
M  V30 18467 C 1809.48 3.40833 0.0673423 0
M  V30 18468 H 1810.67 2.57497 -1.53738 0
M  V30 18469 H 1808.23 1.32239 -0.833214 0
M  V30 18470 H 1808.96 3.09063 0.982371 0
M  V30 18471 H 1808.75 3.87324 -0.610145 0
M  V30 18472 H 1810.24 4.16239 0.336869 0
M  V30 18473 N 1810.67 0.820125 1.3458 0
M  V30 18474 C 1811.92 0.407473 1.98664 0
M  V30 18475 C 1812.25 -1.02613 1.64877 0
M  V30 18476 O 1811.53 -1.71421 0.918964 0
M  V30 18477 C 1811.81 0.606744 3.54952 0
M  V30 18478 C 1811.66 2.08626 3.98491 0
M  V30 18479 C 1812.98 0.0409321 4.40081 0
M  V30 18480 H 1810.1 0.149524 0.721673 0
M  V30 18481 H 1812.74 1.03217 1.59519 0
M  V30 18482 H 1810.89 0.0749788 3.88428 0
M  V30 18483 H 1812.56 2.68144 3.75361 0
M  V30 18484 H 1810.81 2.57774 3.48905 0
M  V30 18485 H 1811.48 2.17651 5.07279 0
M  V30 18486 H 1813.95 0.495234 4.13142 0
M  V30 18487 H 1812.83 0.210182 5.48497 0
M  V30 18488 H 1813.09 -1.05389 4.29355 0
M  V30 18489 N 1812.15 -1.46743 0.574835 0
M  V30 18490 C 1813.08 -2.33012 -0.150836 0
M  V30 18491 C 1814.06 -1.44868 -0.891472 0
M  V30 18492 O 1815.25 -1.73698 -0.868481 0
M  V30 18493 C 1812.38 -3.26995 -1.17012 0
M  V30 18494 C 1811.33 -4.24518 -0.544829 0
M  V30 18495 C 1810.66 -5.07951 -1.67002 0
M  V30 18496 C 1811.96 -5.19776 0.512891 0
M  V30 18497 H 1813.65 -2.93935 0.569433 0
M  V30 18498 H 1811.2 -1.41344 0.275289 0
M  V30 18499 H 1813.15 -3.86198 -1.68609 0
M  V30 18500 H 1811.87 -2.64163 -1.92056 0
M  V30 18501 H 1810.53 -3.66566 -0.0500133 0
M  V30 18502 H 1810.18 -4.4151 -2.40993 0
M  V30 18503 H 1809.88 -5.73991 -1.25732 0
M  V30 18504 H 1811.4 -5.70017 -2.1889 0
M  V30 18505 H 1812.82 -5.73241 0.0823064 0
M  V30 18506 H 1811.22 -5.94114 0.845462 0
M  V30 18507 H 1812.29 -4.64184 1.40217 0
M  V30 18508 N 1813.63 -0.312197 -1.54477 0
M  V30 18509 C 1815.04 0.178189 -1.85848 0
M  V30 18510 C 1815.39 1.52534 -1.23401 0
M  V30 18511 O 1814.52 2.09661 -0.535822 0
M  V30 18512 C 1815.11 0.330099 -3.37188 0
M  V30 18513 C 1813.67 0.764703 -3.6855 0
M  V30 18514 C 1812.82 -0.120348 -2.77039 0
M  V30 18515 H 1815.77 -0.532853 -1.49487 0
M  V30 18516 H 1815.79 1.16287 -3.62295 0
M  V30 18517 H 1815.3 -0.650527 -3.82609 0
M  V30 18518 H 1813.4 1.75548 -3.28654 0
M  V30 18519 H 1813.51 0.576331 -4.75621 0
M  V30 18520 H 1811.88 0.402229 -2.51504 0
M  V30 18521 H 1812.66 -1.09753 -3.25283 0
M  V30 18522 N 1815.11 1.57549 -0.040136 0
M  V30 18523 C 1816.35 1.92535 0.637037 0
M  V30 18524 C 1816.69 0.917836 1.71141 0
M  V30 18525 O 1815.96 -0.057824 1.94414 0
M  V30 18526 C 1816.24 3.37955 1.24333 0
M  V30 18527 C 1816.1 4.49449 0.177761 0
M  V30 18528 C 1817.42 3.8355 2.15818 0
M  V30 18529 H 1814.53 0.700157 0.230107 0
M  V30 18530 H 1817.18 1.89739 -0.0996468 0
M  V30 18531 H 1815.33 3.40468 1.87119 0
M  V30 18532 H 1817 4.59065 -0.453507 0
M  V30 18533 H 1815.24 4.30961 -0.495486 0
M  V30 18534 H 1815.91 5.48256 0.641792 0
M  V30 18535 H 1818.39 3.82842 1.63006 0
M  V30 18536 H 1817.26 4.85974 2.55188 0
M  V30 18537 H 1817.53 3.19678 3.05382 0
M  V30 18538 N 1816.58 -0.233136 1.55866 0
M  V30 18539 C 1817.83 -0.956309 1.79517 0
M  V30 18540 C 1818.19 -1.82431 0.611291 0
M  V30 18541 O 1817.48 -1.87483 -0.395056 0
M  V30 18542 C 1817.67 -1.83897 3.06458 0
M  V30 18543 C 1817.5 -1.05791 4.37079 0
M  V30 18544 C 1816.27 -0.757479 4.9959 0
M  V30 18545 C 1818.47 -0.428808 5.12509 0
M  V30 18546 N 1816.45 0.0462021 6.13883 0
M  V30 18547 C 1817.82 0.238803 6.1954 0
M  V30 18548 C 1819.88 -0.340665 4.96733 0
M  V30 18549 C 1818.58 0.98611 7.12509 0
M  V30 18550 C 1820.61 0.393145 5.90092 0
M  V30 18551 C 1819.97 1.04934 6.9654 0
M  V30 18552 H 1816.07 -0.330588 0.708686 0
M  V30 18553 H 1818.65 -0.228196 1.93358 0
M  V30 18554 H 1816.82 -2.539 2.93921 0
M  V30 18555 H 1818.55 -2.49875 3.18347 0
M  V30 18556 H 1815.31 -1.07266 4.61293 0
M  V30 18557 H 1815.73 0.436538 6.75591 0
M  V30 18558 H 1820.38 -0.833649 4.145 0
M  V30 18559 H 1818.09 1.49065 7.94232 0
M  V30 18560 H 1821.68 0.462195 5.79961 0
M  V30 18561 H 1820.56 1.60809 7.67535 0
M  V30 18562 N 1818.06 -1.49479 -0.499372 0
M  V30 18563 C 1819.29 -1.63025 -1.28209 0
M  V30 18564 C 1819.71 -0.302238 -1.85656 0
M  V30 18565 O 1819.07 0.730355 -1.65938 0
M  V30 18566 C 1819.12 -2.70287 -2.38699 0
M  V30 18567 O 1818.22 -2.29573 -3.42593 0
M  V30 18568 H 1817.56 -0.545605 -0.378432 0
M  V30 18569 H 1820.09 -1.95677 -0.597628 0
M  V30 18570 H 1820.1 -2.92505 -2.84438 0
M  V30 18571 H 1818.78 -3.66684 -1.96253 0
M  V30 18572 H 1817.36 -2.17692 -3.02761 0
M  V30 18573 N 1819.54 0.750537 -1.38581 0
M  V30 18574 C 1820.5 1.84599 -1.35852 0
M  V30 18575 C 1821.5 1.58709 -0.258462 0
M  V30 18576 O 1822.69 1.66397 -0.51552 0
M  V30 18577 C 1819.83 3.22124 -1.11573 0
M  V30 18578 H 1821.02 1.88426 -2.33314 0
M  V30 18579 H 1818.57 0.952564 -1.23919 0
M  V30 18580 H 1819.31 3.23965 -0.147295 0
M  V30 18581 H 1819.09 3.42311 -1.91221 0
M  V30 18582 H 1820.58 4.02198 -1.12367 0
M  V30 18583 N 1821.02 1.235 0.979051 0
M  V30 18584 C 1821.97 0.984512 2.05649 0
M  V30 18585 C 1822.95 -0.0699833 1.60748 0
M  V30 18586 O 1824.15 0.142316 1.76427 0
M  V30 18587 C 1821.27 0.579082 3.38381 0
M  V30 18588 C 1820.36 1.66905 3.89876 0
M  V30 18589 N 1820.75 2.8996 4.14436 0
M  V30 18590 C 1819.05 1.54394 4.18424 0
M  V30 18591 C 1819.75 3.60539 4.56493 0
M  V30 18592 N 1818.73 2.88058 4.61003 0
M  V30 18593 H 1822.53 1.91906 2.22597 0
M  V30 18594 H 1820.04 1.13459 1.16193 0
M  V30 18595 H 1822.04 0.380896 4.15156 0
M  V30 18596 H 1820.7 -0.348408 3.22825 0
M  V30 18597 H 1821.71 3.26252 4.02219 0
M  V30 18598 H 1818.39 0.683659 4.11864 0
M  V30 18599 H 1819.78 4.66038 4.84002 0
M  V30 18600 N 1822.5 -1.17802 1.04693 0
M  V30 18601 C 1823.75 -1.87567 0.752534 0
M  V30 18602 C 1824.07 -1.81129 -0.722303 0
M  V30 18603 O 1823.34 -1.23385 -1.52161 0
M  V30 18604 H 1821.92 -0.69439 0.275376 0
M  V30 18605 H 1824.58 -1.42932 1.32501 0
M  V30 18606 H 1823.67 -2.9344 1.06299 0
M  V30 18607 N 1823.98 -0.827251 -1.34143 0
M  V30 18608 C 1824.89 -0.254285 -2.33218 0
M  V30 18609 C 1825.9 0.613602 -1.62822 0
M  V30 18610 O 1827.08 0.520477 -1.94558 0
M  V30 18611 C 1824.14 0.570817 -3.41969 0
M  V30 18612 C 1823.2 -0.319978 -4.28106 0
M  V30 18613 C 1822.44 0.465839 -5.31663 0
M  V30 18614 O 1822.66 1.6987 -5.44518 0
M  V30 18615 O 1821.59 -0.154094 -6.01703 0
M  V30 18616 H 1825.42 -1.07441 -2.8406 0
M  V30 18617 H 1823 -0.589493 -1.37278 0
M  V30 18618 H 1824.89 1.04009 -4.08363 0
M  V30 18619 H 1823.56 1.3682 -2.93363 0
M  V30 18620 H 1822.47 -0.836843 -3.6462 0
M  V30 18621 H 1823.8 -1.08183 -4.80164 0
M  V30 18622 N 1825.45 1.46436 -0.582609 0
M  V30 18623 C 1826.7 2.01986 -0.0680147 0
M  V30 18624 C 1827.02 1.45654 1.29653 0
M  V30 18625 O 1826.29 0.641203 1.85109 0
M  V30 18626 H 1824.87 0.746671 -0.022153 0
M  V30 18627 H 1827.53 1.79541 -0.758367 0
M  V30 18628 H 1826.63 3.121 0.00106001 0
M  V30 18629 N 1826.93 0.320385 1.54309 0
M  V30 18630 C 1828.16 -0.284784 2.04628 0
M  V30 18631 C 1828.57 -1.46578 1.1963 0
M  V30 18632 O 1827.91 -1.8239 0.219023 0
M  V30 18633 C 1827.97 -0.785529 3.50813 0
M  V30 18634 C 1827.64 0.272743 4.56185 0
M  V30 18635 C 1828.64 1.10775 5.07961 0
M  V30 18636 C 1826.32 0.420018 5.00541 0
M  V30 18637 C 1828.31 2.0758 6.02652 0
M  V30 18638 C 1826 1.39148 5.95047 0
M  V30 18639 C 1827 2.21784 6.45988 0
M  V30 18640 O 1826.69 3.17281 7.38639 0
M  V30 18641 H 1826.42 -0.0629681 0.673061 0
M  V30 18642 H 1828.97 0.463698 2.00097 0
M  V30 18643 H 1827.2 -1.58487 3.52731 0
M  V30 18644 H 1828.89 -1.3087 3.84224 0
M  V30 18645 H 1829.66 1.00494 4.74474 0
M  V30 18646 H 1825.54 -0.21329 4.60506 0
M  V30 18647 H 1829.08 2.72119 6.42337 0
M  V30 18648 H 1824.98 1.49494 6.2795 0
M  V30 18649 H 1825.75 3.12483 7.56503 0
M  V30 18650 N 1828.41 -1.57525 0.0484906 0
M  V30 18651 C 1829.66 -1.9287 -0.626817 0
M  V30 18652 C 1829.99 -0.926899 -1.70652 0
M  V30 18653 O 1829.26 0.0475129 -1.94442 0
M  V30 18654 C 1829.55 -3.38609 -1.22539 0
M  V30 18655 C 1829.4 -4.49537 -0.153923 0
M  V30 18656 C 1830.72 -3.84689 -2.13781 0
M  V30 18657 H 1827.84 -0.701367 -0.226391 0
M  V30 18658 H 1830.48 -1.89683 0.109708 0
M  V30 18659 H 1828.63 -3.41456 -1.85311 0
M  V30 18660 H 1830.3 -4.58818 0.477846 0
M  V30 18661 H 1828.54 -4.30692 0.518334 0
M  V30 18662 H 1829.22 -5.48589 -0.612708 0
M  V30 18663 H 1831.69 -3.83701 -1.60974 0
M  V30 18664 H 1830.57 -4.8732 -2.52607 0
M  V30 18665 H 1830.83 -3.21293 -3.03682 0
M  V30 18666 N 1829.89 0.224867 -1.55988 0
M  V30 18667 C 1830.85 1.26214 -1.91318 0
M  V30 18668 C 1831.85 1.39973 -0.791472 0
M  V30 18669 O 1833.04 1.38295 -1.05926 0
M  V30 18670 C 1830.17 2.63648 -2.16107 0
M  V30 18671 H 1831.37 0.960933 -2.84088 0
M  V30 18672 H 1828.92 0.465138 -1.49218 0
M  V30 18673 H 1829.65 2.98873 -1.25878 0
M  V30 18674 H 1829.44 2.5504 -2.97821 0
M  V30 18675 H 1830.93 3.38505 -2.44548 0
M  V30 18676 N 1831.37 1.49742 0.491438 0
M  V30 18677 C 1832.61 1.59711 1.24494 0
M  V30 18678 C 1832.94 0.288122 1.92354 0
M  V30 18679 O 1832.2 -0.724652 1.81789 0
M  V30 18680 C 1832.49 2.71245 2.32725 0
M  V30 18681 C 1832.16 4.12423 1.82258 0
M  V30 18682 C 1830.82 4.50841 1.68214 0
M  V30 18683 C 1833.17 5.00741 1.44595 0
M  V30 18684 C 1830.5 5.75339 1.149 0
M  V30 18685 C 1832.85 6.25767 0.927292 0
M  V30 18686 C 1831.52 6.63005 0.773323 0
M  V30 18687 H 1830.79 0.584422 0.455556 0
M  V30 18688 H 1833.44 1.83607 0.544137 0
M  V30 18689 H 1831.74 2.41357 3.08632 0
M  V30 18690 H 1833.44 2.76165 2.90747 0
M  V30 18691 H 1830.03 3.82104 1.94151 0
M  V30 18692 H 1834.21 4.71709 1.54288 0
M  V30 18693 H 1829.47 6.02883 1.01699 0
M  V30 18694 H 1833.64 6.93574 0.626707 0
M  V30 18695 H 1831.27 7.59356 0.358031 0
M  V30 18696 N 1832.84 -0.743177 1.38977 0
M  V30 18697 C 1834.07 -1.53753 1.39193 0
M  V30 18698 C 1834.49 -1.88095 -0.0136591 0
M  V30 18699 O 1833.85 -1.51326 -0.998508 0
M  V30 18700 C 1833.9 -2.80679 2.26389 0
M  V30 18701 O 1833 -3.76265 1.68815 0
M  V30 18702 H 1832.35 -0.464639 0.474349 0
M  V30 18703 H 1834.88 -0.917579 1.82871 0
M  V30 18704 H 1834.89 -3.29498 2.40614 0
M  V30 18705 H 1833.56 -2.55014 3.28543 0
M  V30 18706 H 1832.14 -3.35004 1.63788 0
M  V30 18707 N 1834.32 -1.24018 -0.972487 0
M  V30 18708 C 1835.55 -1.10483 -1.75523 0
M  V30 18709 C 1835.97 0.338985 -1.8502 0
M  V30 18710 O 1835.33 1.24534 -1.31761 0
M  V30 18711 C 1835.38 -1.74396 -3.15624 0
M  V30 18712 O 1834.48 -1.01148 -3.99804 0
M  V30 18713 H 1833.82 -0.386777 -0.539722 0
M  V30 18714 H 1836.35 -1.64231 -1.22022 0
M  V30 18715 H 1836.36 -1.79958 -3.66168 0
M  V30 18716 H 1835.04 -2.7945 -3.08026 0
M  V30 18717 H 1833.62 -1.03338 -3.58296 0
M  V30 18718 N 1835.8 1.17245 -1.05316 0
M  V30 18719 C 1837.21 1.69167 -0.789906 0
M  V30 18720 C 1837.56 1.83751 0.687762 0
M  V30 18721 O 1836.69 1.52596 1.53438 0
M  V30 18722 C 1837.28 3.07269 -1.42728 0
M  V30 18723 C 1835.84 3.56352 -1.21204 0
M  V30 18724 C 1834.99 2.3258 -1.51003 0
M  V30 18725 H 1837.94 1.01744 -1.21794 0
M  V30 18726 H 1837.96 3.71175 -0.837236 0
M  V30 18727 H 1837.47 2.96622 -2.50273 0
M  V30 18728 H 1835.57 3.72274 -0.155891 0
M  V30 18729 H 1835.69 4.39038 -1.91787 0
M  V30 18730 H 1834.05 2.37107 -0.930172 0
M  V30 18731 H 1834.83 2.2454 -2.59685 0
M  V30 18732 N 1837.28 0.834353 1.33702 0
M  V30 18733 C 1838.19 0.266649 2.3308 0
M  V30 18734 C 1839.2 -0.604958 1.63145 0
M  V30 18735 O 1840.38 -0.510151 1.94832 0
M  V30 18736 C 1837.45 -0.552673 3.42267 0
M  V30 18737 C 1836.51 0.342677 4.2793 0
M  V30 18738 C 1835.74 -0.437637 5.31903 0
M  V30 18739 O 1835.96 -1.6698 5.45412 0
M  V30 18740 O 1834.9 0.186001 6.01613 0
M  V30 18741 H 1838.72 1.08946 2.83486 0
M  V30 18742 H 1836.31 0.596765 1.36964 0
M  V30 18743 H 1838.19 -1.01842 4.08908 0
M  V30 18744 H 1836.86 -1.35263 2.94085 0
M  V30 18745 H 1835.77 0.856168 3.64171 0
M  V30 18746 H 1837.1 1.10728 4.79583 0
M  V30 18747 N 1838.76 -1.46125 0.590367 0
M  V30 18748 C 1839.69 -2.33159 -0.126114 0
M  V30 18749 C 1840.67 -1.45806 -0.876057 0
M  V30 18750 O 1841.85 -1.7461 -0.850009 0
M  V30 18751 C 1838.98 -3.28217 -1.13537 0
M  V30 18752 C 1837.94 -4.25072 -0.499773 0
M  V30 18753 C 1837.26 -5.09694 -1.61605 0
M  V30 18754 C 1838.56 -5.19202 0.567992 0
M  V30 18755 H 1840.26 -2.93315 0.600577 0
M  V30 18756 H 1837.8 -1.41044 0.290265 0
M  V30 18757 H 1839.76 -3.87965 -1.64503 0
M  V30 18758 H 1838.48 -2.66185 -1.89244 0
M  V30 18759 H 1837.14 -3.66598 -0.0111313 0
M  V30 18760 H 1836.79 -4.44041 -2.36297 0
M  V30 18761 H 1836.49 -5.75292 -1.19637 0
M  V30 18762 H 1838.01 -5.72307 -2.12832 0
M  V30 18763 H 1839.42 -5.73121 0.143102 0
M  V30 18764 H 1837.82 -5.93184 0.908428 0
M  V30 18765 H 1838.89 -4.62671 1.45133 0
M  V30 18766 N 1840.23 -0.328564 -1.54137 0
M  V30 18767 C 1841.17 0.569226 -2.22019 0
M  V30 18768 C 1842.18 1.0759 -1.22181 0
M  V30 18769 O 1843.37 0.988621 -1.48622 0
M  V30 18770 C 1840.47 1.79439 -2.87498 0
M  V30 18771 C 1839.64 1.42555 -4.13517 0
M  V30 18772 C 1838.7 2.50878 -4.62544 0
M  V30 18773 O 1837.73 2.14812 -5.27109 0
M  V30 18774 N 1838.93 3.8189 -4.37196 0
M  V30 18775 H 1841.69 -0.0120478 -2.99698 0
M  V30 18776 H 1839.25 -0.151994 -1.61185 0
M  V30 18777 H 1841.25 2.51307 -3.17218 0
M  V30 18778 H 1839.82 2.28339 -2.13495 0
M  V30 18779 H 1839.04 0.538288 -3.90507 0
M  V30 18780 H 1840.32 1.1549 -4.9552 0
M  V30 18781 H 1839.72 4.13987 -3.85527 0
M  V30 18782 H 1838.28 4.49974 -4.71558 0
M  V30 18783 N 1841.71 1.57497 -0.0568439 0
M  V30 18784 C 1842.68 2.10755 0.900823 0
M  V30 18785 C 1843.68 1.02835 1.23619 0
M  V30 18786 O 1844.87 1.28885 1.17194 0
M  V30 18787 C 1842 2.5965 2.20895 0
M  V30 18788 H 1843.19 2.96669 0.439041 0
M  V30 18789 H 1840.74 1.55121 0.191646 0
M  V30 18790 H 1841.48 1.77147 2.71642 0
M  V30 18791 H 1841.26 3.3852 1.97855 0
M  V30 18792 H 1842.75 3.00982 2.89482 0
M  V30 18793 N 1843.19 -0.216591 1.56105 0
M  V30 18794 C 1844.12 -1.29202 1.89313 0
M  V30 18795 C 1845.14 -1.42798 0.781832 0
M  V30 18796 O 1846.32 -1.43607 1.06016 0
M  V30 18797 C 1843.42 -2.66701 2.09102 0
M  V30 18798 C 1842.6 -2.74989 3.40147 0
M  V30 18799 C 1841.66 -3.93536 3.49308 0
M  V30 18800 O 1840.68 -3.81642 4.22301 0
M  V30 18801 N 1841.88 -5.08059 2.80814 0
M  V30 18802 H 1844.65 -1.01038 2.82155 0
M  V30 18803 H 1842.21 -0.406611 1.56711 0
M  V30 18804 H 1844.2 -3.44396 2.12541 0
M  V30 18805 H 1842.77 -2.87443 1.22862 0
M  V30 18806 H 1841.99 -1.83733 3.48763 0
M  V30 18807 H 1843.28 -2.775 4.26464 0
M  V30 18808 H 1842.68 -5.20618 2.21299 0
M  V30 18809 H 1841.24 -5.83778 2.89908 0
M  V30 18810 N 1844.67 -1.5 -0.48349 0
M  V30 18811 C 1845.92 -1.59612 -1.23317 0
M  V30 18812 C 1846.23 -0.29614 -1.93345 0
M  V30 18813 O 1847.44 -0.271008 -2.70144 0
M  V30 18814 C 1845.89 -2.81692 -2.24003 0
M  V30 18815 C 1845.5 -4.18518 -1.59834 0
M  V30 18816 C 1847.24 -3.00643 -2.9969 0
M  V30 18817 C 1845.15 -5.31799 -2.58735 0
M  V30 18818 H 1844.08 -0.594352 -0.463963 0
M  V30 18819 H 1846.73 -1.76414 -0.505016 0
M  V30 18820 H 1845.11 -2.58422 -3.00057 0
M  V30 18821 H 1846.29 -4.51994 -0.896542 0
M  V30 18822 H 1844.6 -4.0507 -0.964743 0
M  V30 18823 H 1847.2 -3.82445 -3.73684 0
M  V30 18824 H 1847.54 -2.11883 -3.58345 0
M  V30 18825 H 1848.08 -3.24035 -2.30751 0
M  V30 18826 H 1844.82 -6.22674 -2.04836 0
M  V30 18827 H 1844.34 -5.02756 -3.27103 0
M  V30 18828 H 1846.01 -5.61861 -3.20814 0
M  V30 18829 N 1846.15 0.735796 -1.39369 0
M  V30 18830 C 1847.06 1.88026 -1.40298 0
M  V30 18831 C 1848.07 1.71431 -0.297878 0
M  V30 18832 O 1849.25 1.94047 -0.539219 0
M  V30 18833 C 1846.31 3.23607 -1.24415 0
M  V30 18834 C 1845.37 3.52601 -2.4489 0
M  V30 18835 C 1844.61 4.81714 -2.29755 0
M  V30 18836 O 1844.83 5.55374 -1.30061 0
M  V30 18837 O 1843.76 5.10588 -3.18722 0
M  V30 18838 H 1847.59 1.90197 -2.36767 0
M  V30 18839 H 1845.18 0.883504 -1.20476 0
M  V30 18840 H 1847.06 4.04633 -1.17688 0
M  V30 18841 H 1845.73 3.22208 -0.310409 0
M  V30 18842 H 1844.64 2.71665 -2.57194 0
M  V30 18843 H 1845.97 3.58778 -3.36955 0
M  V30 18844 N 1847.63 1.24532 0.965897 0
M  V30 18845 C 1848.59 1.04026 2.04233 0
M  V30 18846 C 1849.59 -0.00305855 1.608 0
M  V30 18847 O 1850.78 0.238077 1.72565 0
M  V30 18848 C 1847.91 0.577072 3.3598 0
M  V30 18849 H 1849.1 1.99569 2.23858 0
M  V30 18850 H 1846.66 1.0678 1.14139 0
M  V30 18851 H 1847.39 -0.381471 3.22049 0
M  V30 18852 H 1847.18 1.33012 3.6885 0
M  V30 18853 H 1848.67 0.45469 4.15117 0
M  V30 18854 N 1849.1 -1.16685 1.05936 0
M  V30 18855 C 1850.52 -1.39122 0.78213 0
M  V30 18856 C 1850.72 -1.9172 -0.620152 0
M  V30 18857 O 1849.78 -2.11366 -1.38132 0
M  V30 18858 C 1851.09 -2.37522 1.84401 0
M  V30 18859 C 1852.64 -2.51214 1.8671 0
M  V30 18860 C 1853.11 -3.52894 2.91942 0
M  V30 18861 N 1854.6 -3.60418 2.90952 0
M  V30 18862 C 1855.34 -4.38873 3.69023 0
M  V30 18863 N 1854.83 -5.20781 4.56902 0
M  V30 18864 N 1856.63 -4.3382 3.57431 0
M  V30 18865 H 1848.78 -0.808781 1.96399 0
M  V30 18866 H 1851.04 -0.418008 0.850866 0
M  V30 18867 H 1850.75 -2.05962 2.85084 0
M  V30 18868 H 1850.62 -3.37123 1.69197 0
M  V30 18869 H 1853.01 -2.8208 0.866875 0
M  V30 18870 H 1853.09 -1.51661 2.05992 0
M  V30 18871 H 1852.73 -3.22765 3.92155 0
M  V30 18872 H 1852.66 -4.52168 2.6991 0
M  V30 18873 H 1855.15 -3.01945 2.27239 0
M  V30 18874 H 1855.47 -5.77848 5.13138 0
M  V30 18875 H 1853.81 -5.20136 4.60959 0
M  V30 18876 H 1857 -3.68888 2.88165 0
M  V30 18877 H 1857.18 -4.94717 4.1852 0
M  V30 18878 N 1850.58 -0.841432 -1.33258 0
M  V30 18879 C 1851.83 -0.437512 -1.97307 0
M  V30 18880 C 1852.15 1.00723 -1.66973 0
M  V30 18881 O 1851.42 1.70199 -0.969998 0
M  V30 18882 H 1850 -0.158794 -0.729927 0
M  V30 18883 H 1852.66 -1.07495 -1.62575 0
M  V30 18884 H 1851.76 -0.571675 -3.0682 0
M  V30 18885 N 1852.06 1.4581 -0.598108 0
M  V30 18886 C 1852.99 2.33223 0.113747 0
M  V30 18887 C 1853.97 1.46268 0.868312 0
M  V30 18888 O 1855.16 1.75058 0.840737 0
M  V30 18889 C 1852.29 3.28815 1.11795 0
M  V30 18890 C 1851.24 4.25331 0.477223 0
M  V30 18891 C 1850.57 5.10544 1.589 0
M  V30 18892 C 1851.87 5.18894 -0.595518 0
M  V30 18893 H 1853.56 2.92992 -0.616123 0
M  V30 18894 H 1851.11 1.40888 -0.297741 0
M  V30 18895 H 1853.06 3.88832 1.62443 0
M  V30 18896 H 1851.78 2.67185 1.87829 0
M  V30 18897 H 1850.44 3.66599 -0.00831044 0
M  V30 18898 H 1850.09 4.45288 2.33939 0
M  V30 18899 H 1849.79 5.75918 1.16584 0
M  V30 18900 H 1851.31 5.73427 2.09794 0
M  V30 18901 H 1852.73 5.73037 -0.173494 0
M  V30 18902 H 1851.12 5.92694 -0.939873 0
M  V30 18903 H 1852.19 4.61895 -1.47584 0
M  V30 18904 N 1853.54 0.336733 1.53961 0
M  V30 18905 C 1854.5 -0.510638 2.23439 0
M  V30 18906 C 1855.5 -1.03304 1.23227 0
M  V30 18907 O 1856.69 -0.923373 1.47714 0
M  V30 18908 C 1853.82 -1.71063 2.94873 0
M  V30 18909 H 1855.02 0.0969205 2.99743 0
M  V30 18910 H 1852.57 0.0879867 1.56052 0
M  V30 18911 H 1853.3 -2.35707 2.22739 0
M  V30 18912 H 1853.09 -1.34331 3.68371 0
M  V30 18913 H 1854.58 -2.31182 3.47771 0
M  V30 18914 N 1855.02 -1.57465 0.0651956 0
M  V30 18915 C 1856.43 -1.80728 -0.468449 0
M  V30 18916 C 1856.78 -0.978581 -1.70054 0
M  V30 18917 O 1855.9 -0.199186 -2.15481 0
M  V30 18918 C 1856.5 -3.27791 -0.856641 0
M  V30 18919 C 1855.06 -3.51923 -1.33519 0
M  V30 18920 C 1854.2 -2.7548 -0.317147 0
M  V30 18921 H 1857.15 -1.5601 0.290955 0
M  V30 18922 H 1857.18 -3.39479 -1.71855 0
M  V30 18923 H 1856.69 -3.88079 0.0402823 0
M  V30 18924 H 1854.79 -2.96932 -2.25083 0
M  V30 18925 H 1854.9 -4.60624 -1.31767 0
M  V30 18926 H 1853.27 -2.4204 -0.793026 0
M  V30 18927 H 1854.05 -3.38502 0.571935 0
M  V30 18928 N 1856.49 0.20831 -1.56217 0
M  V30 18929 C 1857.42 1.26115 -1.96513 0
M  V30 18930 C 1858.4 1.48185 -0.835183 0
M  V30 18931 O 1859.59 1.60145 -1.09851 0
M  V30 18932 C 1856.72 2.6082 -2.29326 0
M  V30 18933 C 1855.67 2.53385 -3.44935 0
M  V30 18934 C 1855 3.92241 -3.63388 0
M  V30 18935 C 1856.3 2.07026 -4.79518 0
M  V30 18936 H 1857.99 0.92635 -2.84709 0
M  V30 18937 H 1855.54 0.444169 -1.36979 0
M  V30 18938 H 1857.49 3.34644 -2.56109 0
M  V30 18939 H 1856.22 2.96014 -1.37997 0
M  V30 18940 H 1854.88 1.82018 -3.18222 0
M  V30 18941 H 1854.52 4.24766 -2.69413 0
M  V30 18942 H 1854.22 3.88145 -4.41154 0
M  V30 18943 H 1855.75 4.67707 -3.92533 0
M  V30 18944 H 1857.16 2.70601 -5.05419 0
M  V30 18945 H 1855.56 2.13961 -5.60661 0
M  V30 18946 H 1856.63 1.02298 -4.73986 0
M  V30 18947 N 1857.97 1.50255 0.475528 0
M  V30 18948 C 1858.92 1.65183 1.57158 0
M  V30 18949 C 1859.91 0.506578 1.52717 0
M  V30 18950 O 1861.1 0.760774 1.59816 0
M  V30 18951 C 1858.23 1.74523 2.95629 0
M  V30 18952 C 1857.31 2.94709 3.04971 0
M  V30 18953 N 1857.7 4.1845 2.84137 0
M  V30 18954 C 1856 2.93175 3.36102 0
M  V30 18955 C 1856.7 4.99375 2.98328 0
M  V30 18956 N 1855.68 4.33242 3.28333 0
M  V30 18957 H 1859.48 2.58552 1.39743 0
M  V30 18958 H 1856.99 1.47378 0.682172 0
M  V30 18959 H 1858.99 1.8332 3.74432 0
M  V30 18960 H 1857.65 0.823089 3.14094 0
M  V30 18961 H 1858.66 4.48019 2.59806 0
M  V30 18962 H 1855.34 2.10443 3.60583 0
M  V30 18963 H 1856.73 6.07757 2.86497 0
M  V30 18964 N 1859.45 -0.728395 1.39758 0
M  V30 18965 C 1860.7 -1.48916 1.38548 0
M  V30 18966 C 1861.05 -1.92393 -0.0166523 0
M  V30 18967 O 1860.34 -1.64371 -0.984518 0
M  V30 18968 C 1860.54 -2.73735 2.29791 0
M  V30 18969 C 1860.37 -2.42465 3.78736 0
M  V30 18970 C 1859.14 -2.34435 4.47625 0
M  V30 18971 C 1861.33 -2.07573 4.70551 0
M  V30 18972 N 1859.32 -1.95705 5.8187 0
M  V30 18973 C 1860.69 -1.7934 5.93496 0
M  V30 18974 C 1862.74 -1.94098 4.58509 0
M  V30 18975 C 1861.45 -1.38989 7.05744 0
M  V30 18976 C 1863.47 -1.55151 5.70686 0
M  V30 18977 C 1862.83 -1.27807 6.92708 0
M  V30 18978 H 1858.93 -0.543508 0.562248 0
M  V30 18979 H 1861.52 -0.845916 1.75363 0
M  V30 18980 H 1859.69 -3.3583 1.95123 0
M  V30 18981 H 1861.42 -3.39985 2.19528 0
M  V30 18982 H 1858.17 -2.51751 4.01146 0
M  V30 18983 H 1858.6 -1.78914 6.52931 0
M  V30 18984 H 1863.24 -2.13904 3.64698 0
M  V30 18985 H 1860.96 -1.17925 7.99449 0
M  V30 18986 H 1864.54 -1.45321 5.63359 0
M  V30 18987 H 1863.42 -0.981212 7.78037 0
M  V30 18988 N 1860.93 -1.25042 -0.959279 0
M  V30 18989 C 1861.89 -1.05107 -2.03679 0
M  V30 18990 C 1862.89 -0.0054691 -1.60799 0
M  V30 18991 O 1864.08 -0.247225 -1.72437 0
M  V30 18992 C 1861.21 -0.594881 -3.35669 0
M  V30 18993 H 1862.41 -2.00753 -2.22796 0
M  V30 18994 H 1859.96 -1.07384 -1.13571 0
M  V30 18995 H 1860.69 0.364387 -3.22246 0
M  V30 18996 H 1860.48 -1.34966 -3.68139 0
M  V30 18997 H 1861.97 -0.476698 -4.1487 0
M  V30 18998 N 1862.41 1.16121 -1.06553 0
M  V30 18999 C 1863.68 1.82752 -0.697202 0
M  V30 19000 C 1864.06 1.94474 0.821172 0
M  V30 19001 O 1863.41 1.48988 1.73248 0
M  V30 19002 C 1863.62 3.19592 -1.4022 0
M  V30 19003 C 1864.97 3.95333 -1.5491 0
M  V30 19004 O 1865.99 3.29119 -1.36232 0
M  V30 19005 O 1864.85 5.14028 -1.85574 0
M  V30 19006 H 1861.95 0.789214 -0.247125 0
M  V30 19007 H 1864.49 1.23302 -1.16597 0
M  V30 19008 H 1863.26 3.06111 -2.43745 0
M  V30 19009 H 1862.89 3.86722 -0.923686 0
M  V30 19010 N 1863.88 0.848487 1.3281 0
M  V30 19011 C 1865.16 0.370395 1.92061 0
M  V30 19012 C 1865.54 -1.14535 1.77327 0
M  V30 19013 O 1864.89 -1.96419 1.16756 0
M  V30 19014 C 1865.1 0.827934 3.39037 0
M  V30 19015 C 1866.45 0.841527 4.16177 0
M  V30 19016 O 1867.47 0.772167 3.4773 0
M  V30 19017 O 1866.33 0.938119 5.38388 0
M  V30 19018 H 1863.42 0.106809 0.820074 0
M  V30 19019 H 1865.97 0.934979 1.4162 0
M  V30 19020 H 1864.74 1.87089 3.43676 0
M  V30 19021 H 1864.37 0.240456 3.96872 0
M  V30 19022 N 1865.36 -1.4549 0.605832 0
M  V30 19023 C 1866.64 -1.95573 0.0324098 0
M  V30 19024 C 1867.02 -1.54829 -1.43496 0
M  V30 19025 O 1866.37 -0.810005 -2.13661 0
M  V30 19026 C 1866.58 -3.4825 0.228676 0
M  V30 19027 C 1867.93 -4.24461 0.108559 0
M  V30 19028 O 1868.95 -3.55846 0.158706 0
M  V30 19029 O 1867.81 -5.46499 -0.00781404 0
M  V30 19030 H 1864.9 -0.826184 -0.0367314 0
M  V30 19031 H 1867.45 -1.55664 0.675771 0
M  V30 19032 H 1866.22 -3.70869 1.24786 0
M  V30 19033 H 1865.84 -3.95045 -0.450031 0
M  V30 19034 N 1866.84 -0.344893 -1.5378 0
M  V30 19035 C 1868.09 0.250711 -2.00539 0
M  V30 19036 C 1868.41 1.5096 -1.23435 0
M  V30 19037 O 1867.68 1.92893 -0.341893 0
M  V30 19038 H 1866.26 0.0956318 -0.740853 0
M  V30 19039 H 1868.92 -0.466361 -1.89238 0
M  V30 19040 H 1868.02 0.49222 -3.08194 0
M  V30 19041 N 1868.32 1.57428 -0.0735454 0
M  V30 19042 C 1869.27 2.14028 0.910749 0
M  V30 19043 C 1870.26 1.07761 1.30705 0
M  V30 19044 O 1871.47 1.26139 1.28409 0
M  V30 19045 H 1867.84 0.684381 0.311652 0
M  V30 19046 H 1869.81 2.95591 0.408468 0
M  V30 19047 C 1868.56 2.71817 2.1682 0
M  V30 19048 H 1867.88 3.5326 1.87209 0
M  V30 19049 H 1869.32 3.15014 2.83799 0
M  V30 19050 C 1867.78 1.66661 2.92789 0
M  V30 19051 O 1868.31 1.09266 3.86554 0
M  V30 19052 N 1866.52 1.37655 2.55929 0
M  V30 19053 H 1866.07 1.84518 1.79752 0
M  V30 19054 H 1866.02 0.675307 3.07062 0
M  V30 19055 N 1869.8 -0.200022 1.56326 0
M  V30 19056 C 1871.21 -0.765141 1.70301 0
M  V30 19057 C 1871.56 -1.84066 0.679277 0
M  V30 19058 O 1870.68 -2.15768 -0.165308 0
M  V30 19059 C 1871.28 -1.39466 3.08763 0
M  V30 19060 C 1869.84 -1.90692 3.2452 0
M  V30 19061 C 1868.98 -0.77502 2.66249 0
M  V30 19062 H 1871.94 0.024977 1.5868 0
M  V30 19063 H 1871.96 -2.26396 3.05819 0
M  V30 19064 H 1871.47 -0.61165 3.8325 0
M  V30 19065 H 1869.57 -2.71728 2.54941 0
M  V30 19066 H 1869.68 -2.0721 4.31973 0
M  V30 19067 H 1868.05 -1.18802 2.25296 0
M  V30 19068 H 1868.83 -0.00432851 3.433 0
M  V30 19069 N 1871.27 -1.50505 -0.467553 0
M  V30 19070 C 1872.5 -1.65433 -1.24256 0
M  V30 19071 C 1872.92 -0.339107 -1.8573 0
M  V30 19072 O 1872.27 0.679316 -1.69386 0
M  V30 19073 C 1872.33 -2.74805 -2.34871 0
M  V30 19074 O 1872.05 -4.01229 -1.75917 0
M  V30 19075 C 1873.55 -3.00738 -3.25687 0
M  V30 19076 H 1870.77 -0.555987 -0.375659 0
M  V30 19077 H 1873.31 -1.96749 -0.557684 0
M  V30 19078 H 1871.47 -2.46174 -2.99128 0
M  V30 19079 H 1871.88 -4.61742 -2.48787 0
M  V30 19080 H 1873.35 -3.80921 -3.99504 0
M  V30 19081 H 1873.83 -2.11947 -3.84675 0
M  V30 19082 H 1874.44 -3.30914 -2.67163 0
M  V30 19083 N 1872.75 0.720973 -1.40142 0
M  V30 19084 C 1873.66 1.86527 -1.42284 0
M  V30 19085 C 1874.68 1.71106 -0.316044 0
M  V30 19086 O 1875.85 1.93465 -0.55977 0
M  V30 19087 C 1872.92 3.2227 -1.27841 0
M  V30 19088 C 1871.98 3.49984 -2.48616 0
M  V30 19089 C 1871.21 4.7925 -2.34852 0
M  V30 19090 O 1871.44 5.53963 -1.35945 0
M  V30 19091 O 1870.37 5.07179 -3.24119 0
M  V30 19092 H 1874.2 1.87675 -2.38771 0
M  V30 19093 H 1871.78 0.870677 -1.21407 0
M  V30 19094 H 1873.66 4.03362 -1.21973 0
M  V30 19095 H 1872.34 3.21861 -0.344566 0
M  V30 19096 H 1871.25 2.68922 -2.60061 0
M  V30 19097 H 1872.58 3.55184 -3.40742 0
M  V30 19098 N 1874.23 1.25549 0.952634 0
M  V30 19099 C 1875.16 1.01898 2.05304 0
M  V30 19100 C 1876.18 -0.0167609 1.62791 0
M  V30 19101 O 1877.36 0.222021 1.77114 0
M  V30 19102 C 1874.46 0.518856 3.34905 0
M  V30 19103 C 1873.64 1.62121 4.06246 0
M  V30 19104 C 1872.7 1.12111 5.14118 0
M  V30 19105 O 1871.72 1.81591 5.39456 0
M  V30 19106 N 1872.92 -0.0365454 5.80488 0
M  V30 19107 H 1875.69 1.96648 2.26163 0
M  V30 19108 H 1873.25 1.16782 1.12132 0
M  V30 19109 H 1875.24 0.168729 4.04348 0
M  V30 19110 H 1873.81 -0.334763 3.10802 0
M  V30 19111 H 1873.03 2.14282 3.30873 0
M  V30 19112 H 1874.32 2.36173 4.50666 0
M  V30 19113 H 1873.72 -0.617055 5.62325 0
M  V30 19114 H 1872.28 -0.327688 6.50976 0
M  V30 19115 N 1875.71 -1.15554 1.07168 0
M  V30 19116 C 1876.94 -1.89906 0.813588 0
M  V30 19117 C 1877.35 -1.78164 -0.636732 0
M  V30 19118 O 1876.69 -1.13 -1.44833 0
M  V30 19119 C 1876.75 -3.40937 1.14028 0
M  V30 19120 C 1876.42 -3.76465 2.59082 0
M  V30 19121 C 1877.41 -3.77643 3.57326 0
M  V30 19122 C 1875.1 -4.06829 2.94611 0
M  V30 19123 C 1877.09 -4.08688 4.89134 0
M  V30 19124 C 1874.78 -4.37539 4.26618 0
M  V30 19125 C 1875.78 -4.3845 5.23689 0
M  V30 19126 O 1875.46 -4.68425 6.53325 0
M  V30 19127 H 1875.2 -0.608773 0.293891 0
M  V30 19128 H 1877.75 -1.4735 1.43098 0
M  V30 19129 H 1875.98 -3.83884 0.465848 0
M  V30 19130 H 1877.67 -3.96575 0.865029 0
M  V30 19131 H 1878.44 -3.54286 3.31219 0
M  V30 19132 H 1874.31 -4.05279 2.19704 0
M  V30 19133 H 1877.86 -4.09315 5.64896 0
M  V30 19134 H 1873.76 -4.60363 4.52478 0
M  V30 19135 H 1874.52 -4.86198 6.58448 0
M  V30 19136 N 1877.19 -0.855519 -1.32358 0
M  V30 19137 C 1878.6 -0.513833 -1.7949 0
M  V30 19138 C 1878.95 0.968373 -1.70637 0
M  V30 19139 O 1878.07 1.75541 -1.26547 0
M  V30 19140 C 1878.67 -0.925925 -3.25902 0
M  V30 19141 C 1877.23 -0.636124 -3.70986 0
M  V30 19142 C 1876.38 -1.12519 -2.53446 0
M  V30 19143 H 1879.33 -1.04264 -1.19644 0
M  V30 19144 H 1879.35 -0.242659 -3.79725 0
M  V30 19145 H 1878.86 -2.00473 -3.32313 0
M  V30 19146 H 1876.96 0.431924 -3.70088 0
M  V30 19147 H 1877.07 -1.20302 -4.6375 0
M  V30 19148 H 1875.44 -0.545429 -2.48791 0
M  V30 19149 H 1876.22 -2.21112 -2.62611 0
M  V30 19150 N 1878.67 1.45167 -0.61354 0
M  V30 19151 C 1879.6 2.3333 0.089004 0
M  V30 19152 C 1880.58 1.47181 0.85275 0
M  V30 19153 O 1881.76 1.7594 0.822122 0
M  V30 19154 C 1878.89 3.29982 1.08301 0
M  V30 19155 C 1877.85 4.25813 0.432084 0
M  V30 19156 C 1877.17 5.122 1.53476 0
M  V30 19157 C 1878.47 5.18233 -0.65052 0
M  V30 19158 H 1880.17 2.92322 -0.647165 0
M  V30 19159 H 1877.71 1.40565 -0.312667 0
M  V30 19160 H 1879.66 3.90533 1.5831 0
M  V30 19161 H 1878.39 2.69162 1.84985 0
M  V30 19162 H 1877.05 3.6657 -0.0471927 0
M  V30 19163 H 1876.7 4.47744 2.29203 0
M  V30 19164 H 1876.4 5.77122 1.10469 0
M  V30 19165 H 1877.92 5.7562 2.037 0
M  V30 19166 H 1879.33 5.72821 -0.234262 0
M  V30 19167 H 1877.73 5.91664 -1.00268 0
M  V30 19168 H 1878.8 4.60304 -1.52475 0
M  V30 19169 N 1880.14 0.353044 1.53595 0
M  V30 19170 C 1881.09 -0.514569 2.26837 0
M  V30 19171 C 1882.09 -1.09398 1.29338 0
M  V30 19172 O 1883.29 -1.03863 1.47012 0
M  V30 19173 H 1879.67 -0.184641 0.72898 0
M  V30 19174 H 1881.64 0.125082 2.98138 0
M  V30 19175 C 1880.39 -1.64884 3.06119 0
M  V30 19176 H 1879.71 -1.21227 3.80978 0
M  V30 19177 H 1881.15 -2.23089 3.60565 0
M  V30 19178 C 1879.61 -2.58385 2.16192 0
M  V30 19179 O 1880.14 -3.6088 1.76433 0
M  V30 19180 N 1878.34 -2.27286 1.81079 0
M  V30 19181 H 1877.89 -1.43975 2.13609 0
M  V30 19182 H 1877.85 -2.90102 1.21194 0
M  V30 19183 N 1881.62 -1.57387 0.0818932 0
M  V30 19184 C 1883.03 -1.81214 -0.449254 0
M  V30 19185 C 1883.38 -0.996563 -1.69006 0
M  V30 19186 O 1882.51 -0.22203 -2.15258 0
M  V30 19187 C 1883.1 -3.28681 -0.821827 0
M  V30 19188 C 1881.66 -3.53319 -1.29779 0
M  V30 19189 C 1880.81 -2.75801 -0.287911 0
M  V30 19190 H 1883.76 -1.55693 0.307486 0
M  V30 19191 H 1883.78 -3.41283 -1.68245 0
M  V30 19192 H 1883.29 -3.88015 0.081441 0
M  V30 19193 H 1881.39 -2.99302 -2.21921 0
M  V30 19194 H 1881.51 -4.61996 -1.26874 0
M  V30 19195 H 1879.87 -2.42867 -0.76731 0
M  V30 19196 H 1880.65 -3.37877 0.607805 0
M  V30 19197 N 1883.1 0.191729 -1.56429 0
M  V30 19198 C 1884.05 1.25706 -1.95706 0
M  V30 19199 C 1885.04 1.46938 -0.842948 0
M  V30 19200 O 1886.25 1.47759 -1.02797 0
M  V30 19201 H 1882.62 0.422099 -0.622364 0
M  V30 19202 H 1884.59 0.8988 -2.84542 0
M  V30 19203 C 1883.34 2.59366 -2.3157 0
M  V30 19204 H 1882.67 2.43845 -3.16827 0
M  V30 19205 H 1884.11 3.32646 -2.62912 0
M  V30 19206 C 1882.56 3.16609 -1.15155 0
M  V30 19207 O 1883.09 3.9941 -0.428355 0
M  V30 19208 N 1881.3 2.75402 -0.927467 0
M  V30 19209 H 1880.85 2.08172 -1.5173 0
M  V30 19210 H 1880.81 3.1404 -0.150348 0
M  V30 19211 N 1884.58 1.50751 0.459565 0
M  V30 19212 C 1885.83 1.61995 1.20839 0
M  V30 19213 C 1886.15 0.327782 1.92225 0
M  V30 19214 O 1885.42 -0.655341 1.84613 0
M  V30 19215 H 1884 0.596972 0.449036 0
M  V30 19216 H 1886.66 1.87582 0.52906 0
M  V30 19217 H 1885.75 2.43678 1.95006 0
M  V30 19218 N 1886.06 -0.713531 1.40522 0
M  V30 19219 C 1887.28 -1.50766 1.42423 0
M  V30 19220 C 1887.71 -1.88082 0.0262417 0
M  V30 19221 O 1887.06 -1.5341 -0.966185 0
M  V30 19222 C 1887.11 -2.75813 2.32291 0
M  V30 19223 O 1886.22 -3.726 1.76758 0
M  V30 19224 H 1885.56 -0.454473 0.484098 0
M  V30 19225 H 1888.09 -0.878583 1.84776 0
M  V30 19226 H 1888.1 -3.2432 2.47549 0
M  V30 19227 H 1886.77 -2.47988 3.33878 0
M  V30 19228 H 1885.35 -3.31455 1.70857 0
M  V30 19229 N 1887.53 -1.26053 -0.945962 0
M  V30 19230 C 1888.94 -1.10296 -1.50638 0
M  V30 19231 C 1889.3 0.318377 -1.936 0
M  V30 19232 O 1888.42 1.20934 -1.79454 0
M  V30 19233 C 1889.02 -1.99604 -2.73758 0
M  V30 19234 C 1887.57 -1.88007 -3.26083 0
M  V30 19235 C 1886.72 -1.93239 -1.98882 0
M  V30 19236 H 1889.67 -1.39212 -0.761946 0
M  V30 19237 H 1889.69 -1.54113 -3.47893 0
M  V30 19238 H 1889.21 -3.03044 -2.42459 0
M  V30 19239 H 1887.31 -0.874846 -3.62184 0
M  V30 19240 H 1887.42 -2.73285 -3.93513 0
M  V30 19241 H 1885.78 -1.37231 -2.14568 0
M  V30 19242 H 1886.57 -2.98299 -1.6992 0
M  V30 19243 N 1889.01 1.14984 -1.07779 0
M  V30 19244 C 1890.26 1.85506 -0.802 0
M  V30 19245 C 1890.58 1.82981 0.674026 0
M  V30 19246 O 1889.85 1.27376 1.48836 0
M  V30 19247 H 1888.43 0.686845 -0.293689 0
M  V30 19248 H 1891.09 1.39368 -1.36244 0
M  V30 19249 H 1890.19 2.90518 -1.14042 0
M  V30 19250 N 1890.49 0.862526 1.31902 0
M  V30 19251 C 1891.74 0.468847 1.96586 0
M  V30 19252 C 1892.06 -0.980535 1.68554 0
M  V30 19253 O 1891.33 -1.68635 0.996952 0
M  V30 19254 H 1889.91 0.170387 0.727308 0
M  V30 19255 H 1892.57 1.10068 1.60845 0
M  V30 19256 H 1891.67 0.620415 3.05871 0
M  V30 19257 N 1891.97 -1.4484 0.62123 0
M  V30 19258 C 1893.21 -2.02433 0.121965 0
M  V30 19259 C 1893.55 -1.48679 -1.24932 0
M  V30 19260 O 1892.82 -0.666887 -1.8271 0
M  V30 19261 C 1893.11 -3.59967 0.0978513 0
M  V30 19262 C 1892.96 -4.24025 1.50077 0
M  V30 19263 C 1894.28 -4.36224 -0.582838 0
M  V30 19264 H 1891.4 -0.735576 0.0457947 0
M  V30 19265 H 1894.04 -1.72531 0.795812 0
M  V30 19266 H 1892.19 -3.85573 -0.47597 0
M  V30 19267 H 1893.86 -4.09558 2.12272 0
M  V30 19268 H 1892.1 -3.819 2.05754 0
M  V30 19269 H 1892.77 -5.32994 1.43602 0
M  V30 19270 H 1895.25 -4.15992 -0.0949595 0
M  V30 19271 H 1894.13 -5.45944 -0.568863 0
M  V30 19272 H 1894.39 -4.10098 -1.65142 0
M  V30 19273 N 1893.45 -0.361184 -1.53405 0
M  V30 19274 C 1894.41 0.475026 -2.24223 0
M  V30 19275 C 1895.41 1.01331 -1.24855 0
M  V30 19276 O 1896.6 0.899756 -1.49164 0
M  V30 19277 C 1893.73 1.6635 -2.97557 0
M  V30 19278 H 1894.92 -0.144595 -2.99551 0
M  V30 19279 H 1892.48 -0.112802 -1.55892 0
M  V30 19280 H 1893.21 2.32133 -2.26461 0
M  V30 19281 H 1893 1.28454 -3.70462 0
M  V30 19282 H 1894.49 2.2562 -3.51405 0
M  V30 19283 N 1894.92 1.57341 -0.0902386 0
M  V30 19284 C 1896.17 1.93793 0.573474 0
M  V30 19285 C 1896.49 0.972444 1.69022 0
M  V30 19286 O 1895.76 0.0236753 1.95886 0
M  V30 19287 H 1894.34 0.715442 0.21483 0
M  V30 19288 H 1897.01 1.94303 -0.15243 0
M  V30 19289 H 1896.1 2.96088 0.986829 0
M  V30 19290 N 1896.4 -0.183431 1.56529 0
M  V30 19291 C 1897.65 -0.900237 1.80495 0
M  V30 19292 C 1897.96 -1.83932 0.665454 0
M  V30 19293 O 1899.17 -2.59761 0.789728 0
M  V30 19294 C 1897.63 -1.65125 3.19784 0
M  V30 19295 C 1897.23 -0.756411 4.41568 0
M  V30 19296 C 1898.98 -2.357 3.53052 0
M  V30 19297 C 1896.89 -1.50696 5.71878 0
M  V30 19298 H 1895.82 -0.339898 0.673042 0
M  V30 19299 H 1898.47 -0.153327 1.82858 0
M  V30 19300 H 1896.85 -2.44248 3.11703 0
M  V30 19301 H 1898.02 -0.00301509 4.608 0
M  V30 19302 H 1896.34 -0.160916 4.16089 0
M  V30 19303 H 1898.93 -2.92426 4.4765 0
M  V30 19304 H 1899.28 -3.10454 2.77352 0
M  V30 19305 H 1899.81 -1.63533 3.62632 0
M  V30 19306 H 1896.55 -0.801985 6.50575 0
M  V30 19307 H 1896.07 -2.23399 5.56644 0
M  V30 19308 H 1897.75 -2.05768 6.13407 0
M  V30 19309 N 1897.88 -1.50992 -0.451564 0
M  V30 19310 C 1899.12 -1.64605 -1.21179 0
M  V30 19311 C 1899.48 -0.347889 -1.88822 0
M  V30 19312 O 1900.69 -0.359643 -2.66383 0
M  V30 19313 C 1898.96 -2.8067 -2.21267 0
M  V30 19314 S 1900.52 -3.14531 -3.05967 0
M  V30 19315 H 1897.33 -0.58007 -0.411145 0
M  V30 19316 H 1899.94 -1.88849 -0.505611 0
M  V30 19317 H 1898.64 -3.73449 -1.70187 0
M  V30 19318 H 1898.17 -2.58572 -2.96486 0
M  V30 19319 H 1900.19 -2.59864 -4.22712 0
M  V30 19320 N 1899.36 0.706069 -1.40899 0
M  V30 19321 C 1900.58 1.50008 -1.43221 0
M  V30 19322 C 1901.01 1.88065 -0.0362158 0
M  V30 19323 O 1900.37 1.5392 0.958036 0
M  V30 19324 C 1900.41 2.74578 -2.33751 0
M  V30 19325 O 1899.52 3.71657 -1.78731 0
M  V30 19326 H 1898.86 0.451899 -0.486501 0
M  V30 19327 H 1901.39 0.868772 -1.85239 0
M  V30 19328 H 1901.4 3.23002 -2.49266 0
M  V30 19329 H 1900.07 2.46214 -3.35189 0
M  V30 19330 H 1898.65 3.30544 -1.72612 0
M  V30 19331 N 1900.84 1.26553 0.939264 0
M  V30 19332 C 1902.08 1.13433 1.70036 0
M  V30 19333 C 1902.44 -0.316669 1.89371 0
M  V30 19334 O 1903.64 -0.570035 2.62686 0
M  V30 19335 C 1901.91 1.88424 3.03696 0
M  V30 19336 S 1903.47 1.91381 3.94866 0
M  V30 19337 H 1900.29 0.405156 0.584268 0
M  V30 19338 H 1902.89 1.60299 1.11913 0
M  V30 19339 H 1901.6 2.93059 2.87306 0
M  V30 19340 H 1901.13 1.42007 3.66876 0
M  V30 19341 H 1903.14 1.00189 4.8598 0
M  V30 19342 N 1902.31 -1.14411 1.08387 0
M  V30 19343 C 1903.59 -1.8162 0.726188 0
M  V30 19344 C 1903.97 -1.95755 -0.790129 0
M  V30 19345 O 1903.32 -1.51725 -1.70856 0
M  V30 19346 C 1903.53 -3.17321 1.45287 0
M  V30 19347 C 1904.88 -3.92818 1.6118 0
M  V30 19348 O 1905.9 -3.2691 1.41451 0
M  V30 19349 O 1904.76 -5.1101 1.93728 0
M  V30 19350 H 1901.85 -0.785182 0.25965 0
M  V30 19351 H 1904.4 -1.21431 1.18544 0
M  V30 19352 H 1903.17 -3.02195 2.48584 0
M  V30 19353 H 1902.8 -3.85203 0.985093 0
M  V30 19354 N 1903.79 -0.869509 -1.31443 0
M  V30 19355 C 1905.04 -0.479265 -1.96335 0
M  V30 19356 C 1905.36 0.971583 -1.69072 0
M  V30 19357 O 1904.63 1.68104 -1.00588 0
M  V30 19358 H 1903.21 -0.174241 -0.726394 0
M  V30 19359 H 1905.87 -1.1092 -1.60259 0
M  V30 19360 H 1904.97 -0.636628 -3.05538 0
M  V30 19361 N 1905.27 1.44508 -0.628902 0
M  V30 19362 C 1906.69 1.56863 -0.294332 0
M  V30 19363 C 1906.89 1.6168 1.20257 0
M  V30 19364 O 1905.94 1.55862 1.98653 0
M  V30 19365 C 1907.26 2.84134 -0.984291 0
M  V30 19366 C 1908.8 2.97843 -0.962223 0
M  V30 19367 C 1909.28 4.27914 -1.6326 0
M  V30 19368 N 1910.77 4.34722 -1.59909 0
M  V30 19369 C 1911.5 5.34081 -2.08675 0
M  V30 19370 N 1911 6.39857 -2.65623 0
M  V30 19371 N 1912.79 5.25575 -1.99317 0
M  V30 19372 H 1904.94 1.39624 -1.60059 0
M  V30 19373 H 1907.21 0.66894 -0.671731 0
M  V30 19374 H 1906.91 2.86551 -2.03915 0
M  V30 19375 H 1906.79 3.73589 -0.520679 0
M  V30 19376 H 1909.17 2.9498 0.0841512 0
M  V30 19377 H 1909.26 2.09742 -1.4643 0
M  V30 19378 H 1908.9 4.31536 -2.67842 0
M  V30 19379 H 1908.83 5.14868 -1.10537 0
M  V30 19380 H 1911.32 3.58896 -1.18329 0
M  V30 19381 H 1911.63 7.11952 -3.00572 0
M  V30 19382 H 1909.98 6.40548 -2.69672 0
M  V30 19383 H 1913.17 4.4185 -1.54551 0
M  V30 19384 H 1913.34 6.02855 -2.37634 0
M  V30 19385 N 1906.75 0.369315 1.53212 0
M  V30 19386 C 1907.7 -0.491919 2.2263 0
M  V30 19387 C 1908.68 -1.0457 1.22286 0
M  V30 19388 O 1909.88 -0.975125 1.47717 0
M  V30 19389 C 1907 -1.62916 3.02181 0
M  V30 19390 C 1906.09 -1.08808 4.09904 0
M  V30 19391 N 1906.48 -0.270291 5.05077 0
M  V30 19392 C 1904.78 -1.36253 4.24678 0
M  V30 19393 C 1905.48 0.0263875 5.81694 0
M  V30 19394 N 1904.46 -0.572239 5.4058 0
M  V30 19395 H 1908.26 0.139657 2.93568 0
M  V30 19396 H 1905.77 0.177531 1.61427 0
M  V30 19397 H 1907.77 -2.25837 3.50433 0
M  V30 19398 H 1906.43 -2.26376 2.32774 0
M  V30 19399 H 1907.44 0.0908158 5.1782 0
M  V30 19400 H 1904.12 -1.99964 3.66498 0
M  V30 19401 H 1905.51 0.687735 6.68371 0
M  V30 19402 N 1908.23 -1.57291 0.0985816 0
M  V30 19403 C 1909.16 -2.17239 -0.856131 0
M  V30 19404 C 1910.14 -1.10669 -1.29176 0
M  V30 19405 O 1911.32 -1.38821 -1.35803 0
M  V30 19406 C 1908.45 -2.75551 -2.11398 0
M  V30 19407 C 1907.41 -3.87524 -1.81685 0
M  V30 19408 C 1906.73 -4.32553 -3.14327 0
M  V30 19409 C 1908.03 -5.10562 -1.10108 0
M  V30 19410 H 1909.73 -2.97268 -0.356657 0
M  V30 19411 H 1907.27 -1.42992 -0.170108 0
M  V30 19412 H 1909.23 -3.16141 -2.78627 0
M  V30 19413 H 1907.95 -1.92781 -2.63634 0
M  V30 19414 H 1906.61 -3.47478 -1.16853 0
M  V30 19415 H 1906.26 -3.46669 -3.64458 0
M  V30 19416 H 1905.96 -5.08049 -2.95228 0
M  V30 19417 H 1907.48 -4.7578 -3.82709 0
M  V30 19418 H 1908.9 -5.483 -1.67453 0
M  V30 19419 H 1907.29 -5.91509 -1.01176 0
M  V30 19420 H 1908.36 -4.84827 -0.0844041 0
M  V30 19421 N 1909.71 0.175127 -1.56624 0
M  V30 19422 C 1910.67 1.20064 -1.95237 0
M  V30 19423 C 1911.67 1.37384 -0.835603 0
M  V30 19424 O 1912.86 1.34855 -1.10272 0
M  V30 19425 C 1909.99 2.5664 -2.24386 0
M  V30 19426 H 1911.18 0.870066 -2.87001 0
M  V30 19427 H 1908.74 0.41743 -1.50623 0
M  V30 19428 H 1909.47 2.94717 -1.35322 0
M  V30 19429 H 1909.26 2.45436 -3.05784 0
M  V30 19430 H 1910.75 3.30554 -2.55194 0
M  V30 19431 N 1911.18 1.5123 0.44355 0
M  V30 19432 C 1912.43 1.63833 1.19527 0
M  V30 19433 C 1912.76 0.350544 1.9101 0
M  V30 19434 O 1912.04 -0.649546 1.83333 0
M  V30 19435 C 1912.32 2.83747 2.21719 0
M  V30 19436 C 1912.17 4.22484 1.5436 0
M  V30 19437 C 1913.49 2.99184 3.22765 0
M  V30 19438 H 1910.61 0.596256 0.433184 0
M  V30 19439 H 1913.25 1.83697 0.485321 0
M  V30 19440 H 1911.4 2.66942 2.82267 0
M  V30 19441 H 1913.08 4.50944 0.971976 0
M  V30 19442 H 1911.32 4.25469 0.846069 0
M  V30 19443 H 1911.99 5.0237 2.28754 0
M  V30 19444 H 1914.47 3.14659 2.72266 0
M  V30 19445 H 1913.34 3.84663 3.91569 0
M  V30 19446 H 1913.6 2.10984 3.88508 0
M  V30 19447 N 1912.66 -0.698586 1.41271 0
M  V30 19448 C 1913.59 -1.82278 1.37295 0
M  V30 19449 C 1914.57 -1.60809 0.240668 0
M  V30 19450 O 1915.76 -1.83598 0.42709 0
M  V30 19451 C 1912.88 -3.18907 1.14087 0
M  V30 19452 C 1911.93 -3.59172 2.29994 0
M  V30 19453 S 1912.76 -3.64327 3.92462 0
M  V30 19454 C 1913.92 -5.03687 3.71551 0
M  V30 19455 H 1914.15 -1.85373 2.32431 0
M  V30 19456 H 1911.68 -0.867008 1.27759 0
M  V30 19457 H 1913.64 -3.97783 1.01383 0
M  V30 19458 H 1912.3 -3.13425 0.20577 0
M  V30 19459 H 1911.5 -4.58421 2.09442 0
M  V30 19460 H 1911.1 -2.87597 2.3909 0
M  V30 19461 H 1913.39 -5.911 3.3107 0
M  V30 19462 H 1914.33 -5.2928 4.70391 0
M  V30 19463 H 1914.74 -4.75083 3.04887 0
M  V30 19464 N 1914.14 -1.27049 -0.93254 0
M  V30 19465 C 1915.55 -1.11887 -1.49459 0
M  V30 19466 C 1915.9 0.297825 -1.93926 0
M  V30 19467 O 1915.03 1.19024 -1.80727 0
M  V30 19468 C 1915.62 -2.02497 -2.71626 0
M  V30 19469 C 1914.18 -1.91455 -3.24071 0
M  V30 19470 C 1913.33 -1.95337 -1.96821 0
M  V30 19471 H 1916.28 -1.40013 -0.747138 0
M  V30 19472 H 1916.3 -1.57794 -3.46239 0
M  V30 19473 H 1915.81 -3.05598 -2.39231 0
M  V30 19474 H 1913.91 -0.913212 -3.61236 0
M  V30 19475 H 1914.03 -2.77443 -3.90592 0
M  V30 19476 H 1912.39 -1.395 -2.13101 0
M  V30 19477 H 1913.17 -3.00084 -1.66746 0
M  V30 19478 N 1915.62 1.13835 -1.08993 0
M  V30 19479 C 1916.57 2.17155 -0.694818 0
M  V30 19480 C 1917.55 1.58291 0.28858 0
M  V30 19481 O 1918.74 1.76719 0.0996503 0
M  V30 19482 C 1915.87 3.43117 -0.112138 0
M  V30 19483 C 1914.96 4.08998 -1.12168 0
M  V30 19484 N 1915.35 4.50111 -2.30724 0
M  V30 19485 C 1913.65 4.35572 -0.958807 0
M  V30 19486 C 1914.35 5.01403 -2.94907 0
M  V30 19487 N 1913.32 4.95984 -2.22487 0
M  V30 19488 H 1917.13 2.46691 -1.59752 0
M  V30 19489 H 1914.64 1.30583 -0.965503 0
M  V30 19490 H 1916.64 4.16472 0.188914 0
M  V30 19491 H 1915.3 3.15056 0.785468 0
M  V30 19492 H 1916.31 4.42959 -2.68343 0
M  V30 19493 H 1912.99 4.1734 -0.11551 0
M  V30 19494 H 1914.38 5.43044 -3.95667 0
M  V30 19495 N 1917.1 0.876467 1.3098 0
M  V30 19496 C 1918.51 0.542323 1.7865 0
M  V30 19497 C 1918.86 -0.941103 1.72156 0
M  V30 19498 O 1917.98 -1.73506 1.29324 0
M  V30 19499 C 1918.58 0.977656 3.24388 0
M  V30 19500 C 1917.14 0.695064 3.69927 0
M  V30 19501 C 1916.28 1.16537 2.51624 0
M  V30 19502 H 1919.23 1.06154 1.1797 0
M  V30 19503 H 1919.26 0.30304 3.79291 0
M  V30 19504 H 1918.77 2.05735 3.29082 0
M  V30 19505 H 1916.87 -0.372992 3.70728 0
M  V30 19506 H 1916.98 1.27665 4.61778 0
M  V30 19507 H 1915.35 0.584941 2.47892 0
M  V30 19508 H 1916.13 2.25262 2.5906 0
M  V30 19509 N 1918.57 -1.44173 0.636557 0
M  V30 19510 C 1919.48 -2.34507 -0.0661877 0
M  V30 19511 C 1920.5 -1.52931 -0.829947 0
M  V30 19512 O 1921.68 -1.85641 -0.780979 0
M  V30 19513 C 1918.74 -3.30987 -1.03191 0
M  V30 19514 C 1917.8 -4.28469 -0.266924 0
M  V30 19515 C 1917.03 -5.20341 -1.18664 0
M  V30 19516 O 1917.26 -5.1626 -2.42552 0
M  V30 19517 O 1916.19 -5.98181 -0.668035 0
M  V30 19518 H 1920.02 -2.9606 0.676932 0
M  V30 19519 H 1917.6 -1.44036 0.396744 0
M  V30 19520 H 1919.48 -3.9036 -1.58736 0
M  V30 19521 H 1918.16 -2.7196 -1.75555 0
M  V30 19522 H 1917.07 -3.72627 0.331702 0
M  V30 19523 H 1918.4 -4.90432 0.416803 0
M  V30 19524 N 1920.05 -0.377435 -1.53014 0
M  V30 19525 C 1921.47 -0.0268747 -1.59577 0
M  V30 19526 C 1921.67 1.45688 -1.39202 0
M  V30 19527 O 1920.72 2.21996 -1.20309 0
M  V30 19528 C 1922.04 -0.493431 -2.96624 0
M  V30 19529 C 1923.58 -0.448667 -3.09768 0
M  V30 19530 C 1924.06 -0.891223 -4.49245 0
M  V30 19531 N 1925.55 -0.846756 -4.55395 0
M  V30 19532 C 1926.29 -1.16074 -5.61529 0
M  V30 19533 N 1925.78 -1.5446 -6.75362 0
M  V30 19534 N 1927.57 -1.08276 -5.51573 0
M  V30 19535 H 1919.73 -1.34353 -1.64508 0
M  V30 19536 H 1921.99 -0.549926 -0.772195 0
M  V30 19537 H 1921.69 -1.52927 -3.16712 0
M  V30 19538 H 1921.57 0.113748 -3.77028 0
M  V30 19539 H 1923.96 0.578058 -2.89383 0
M  V30 19540 H 1924.04 -1.0915 -2.31344 0
M  V30 19541 H 1923.68 -1.91612 -4.70369 0
M  V30 19542 H 1923.61 -0.225524 -5.26117 0
M  V30 19543 H 1926.1 -0.564127 -3.73666 0
M  V30 19544 H 1926.41 -1.76813 -7.52301 0
M  V30 19545 H 1924.76 -1.58336 -6.76724 0
M  V30 19546 H 1927.95 -0.781974 -4.61522 0
M  V30 19547 H 1928.12 -1.33078 -6.34188 0
M  V30 19548 N 1921.53 1.57237 -0.106922 0
M  V30 19549 C 1922.49 2.13515 0.833317 0
M  V30 19550 C 1923.49 1.06715 1.20285 0
M  V30 19551 O 1924.68 1.32548 1.13034 0
M  V30 19552 C 1921.82 2.66546 2.12523 0
M  V30 19553 H 1923.01 2.97916 0.344435 0
M  V30 19554 H 1920.56 1.55652 0.142199 0
M  V30 19555 H 1921.3 1.85699 2.65869 0
M  V30 19556 H 1921.08 3.44643 1.86985 0
M  V30 19557 H 1922.57 3.10039 2.7976 0
M  V30 19558 N 1923.01 -0.166818 1.56715 0
M  V30 19559 C 1924.25 -0.884023 1.82518 0
M  V30 19560 C 1924.59 -1.817 0.685477 0
M  V30 19561 O 1923.86 -1.91977 -0.312277 0
M  V30 19562 C 1924.15 -1.67578 3.18731 0
M  V30 19563 C 1924 -0.765627 4.43236 0
M  V30 19564 C 1925.32 -2.64252 3.51936 0
M  V30 19565 H 1922.44 -0.319938 0.663934 0
M  V30 19566 H 1925.08 -0.150034 1.89407 0
M  V30 19567 H 1923.23 -2.30152 3.1299 0
M  V30 19568 H 1924.9 -0.152422 4.61048 0
M  V30 19569 H 1923.14 -0.0739497 4.33737 0
M  V30 19570 H 1923.81 -1.35523 5.35105 0
M  V30 19571 H 1926.29 -2.11804 3.5816 0
M  V30 19572 H 1925.17 -3.16714 4.48312 0
M  V30 19573 H 1925.43 -3.44667 2.7687 0
M  V30 19574 N 1924.49 -1.51463 -0.435524 0
M  V30 19575 C 1925.9 -1.39679 -0.772145 0
M  V30 19576 C 1926.1 -0.480546 -1.95686 0
M  V30 19577 O 1925.16 0.063611 -2.5242 0
M  V30 19578 C 1926.47 -2.81742 -1.05082 0
M  V30 19579 C 1928.02 -2.90905 -1.15514 0
M  V30 19580 C 1928.49 -4.33879 -1.46674 0
M  V30 19581 N 1929.99 -4.36993 -1.53594 0
M  V30 19582 C 1930.72 -5.44653 -1.79279 0
M  V30 19583 N 1930.22 -6.6247 -2.02744 0
M  V30 19584 N 1932.01 -5.32135 -1.81076 0
M  V30 19585 H 1924.16 -2.09584 0.344699 0
M  V30 19586 H 1926.42 -0.943543 0.0918199 0
M  V30 19587 H 1926.13 -3.50789 -0.252975 0
M  V30 19588 H 1926 -3.21179 -1.97798 0
M  V30 19589 H 1928.39 -2.22054 -1.94361 0
M  V30 19590 H 1928.47 -2.54961 -0.20695 0
M  V30 19591 H 1928.12 -5.03279 -0.683541 0
M  V30 19592 H 1928.05 -4.67337 -2.42702 0
M  V30 19593 H 1930.54 -3.52054 -1.37356 0
M  V30 19594 H 1930.85 -7.40311 -2.21718 0
M  V30 19595 H 1929.19 -6.65582 -2.00063 0
M  V30 19596 H 1932.39 -4.39076 -1.62264 0
M  V30 19597 H 1932.56 -6.16118 -2.00756 0
M  V30 19598 N 1925.96 0.691085 -1.4164 0
M  V30 19599 C 1927.38 1.27116 -1.36742 0
M  V30 19600 C 1927.73 1.96129 -0.0526953 0
M  V30 19601 O 1926.85 1.99052 0.848953 0
M  V30 19602 C 1927.45 2.31171 -2.4768 0
M  V30 19603 C 1926.01 2.84744 -2.46166 0
M  V30 19604 C 1925.15 1.58841 -2.27299 0
M  V30 19605 H 1928.1 0.485541 -1.5109 0
M  V30 19606 H 1928.12 3.12559 -2.16996 0
M  V30 19607 H 1927.64 1.80913 -3.43354 0
M  V30 19608 H 1925.74 3.39167 -1.54262 0
M  V30 19609 H 1925.85 3.34869 -3.42636 0
M  V30 19610 H 1924.21 1.84815 -1.75258 0
M  V30 19611 H 1925 1.10573 -3.25005 0
M  V30 19612 N 1927.44 1.27542 0.925789 0
M  V30 19613 C 1928.69 1.1517 1.67653 0
M  V30 19614 C 1929.04 -0.299085 1.90061 0
M  V30 19615 O 1928.34 -1.21529 1.48126 0
M  V30 19616 C 1928.53 1.87088 3.04521 0
M  V30 19617 C 1928.36 3.39011 2.95469 0
M  V30 19618 C 1927.13 4.08332 2.97645 0
M  V30 19619 C 1929.33 4.34955 2.74442 0
M  V30 19620 N 1927.31 5.4681 2.79055 0
M  V30 19621 C 1928.68 5.60714 2.64575 0
M  V30 19622 C 1930.74 4.25023 2.59345 0
M  V30 19623 C 1929.44 6.77672 2.41151 0
M  V30 19624 C 1931.46 5.41704 2.37298 0
M  V30 19625 C 1930.83 6.6642 2.28175 0
M  V30 19626 H 1926.93 0.476311 0.620203 0
M  V30 19627 H 1929.51 1.61035 1.09434 0
M  V30 19628 H 1927.68 1.43675 3.60849 0
M  V30 19629 H 1929.41 1.67204 3.68544 0
M  V30 19630 H 1926.17 3.59814 3.07946 0
M  V30 19631 H 1926.59 6.19567 2.72884 0
M  V30 19632 H 1931.23 3.29321 2.65156 0
M  V30 19633 H 1928.95 7.73455 2.3408 0
M  V30 19634 H 1932.54 5.35901 2.26499 0
M  V30 19635 H 1931.42 7.55184 2.11346 0
M  V30 19636 N 1928.92 -1.13255 1.09595 0
M  V30 19637 C 1929.85 -2.18416 0.69477 0
M  V30 19638 C 1930.87 -1.60641 -0.264232 0
M  V30 19639 O 1932.05 -1.7843 -0.0500201 0
M  V30 19640 C 1929.15 -3.389 0.00330039 0
M  V30 19641 C 1928.33 -4.26181 0.984281 0
M  V30 19642 C 1927.39 -5.2519 0.325898 0
M  V30 19643 O 1926.41 -5.60804 0.974057 0
M  V30 19644 N 1927.61 -5.73175 -0.919261 0
M  V30 19645 H 1930.38 -2.53448 1.59951 0
M  V30 19646 H 1927.94 -1.28594 0.983625 0
M  V30 19647 H 1929.93 -4.02208 -0.4484 0
M  V30 19648 H 1928.5 -3.02091 -0.803713 0
M  V30 19649 H 1927.72 -3.59622 1.61449 0
M  V30 19650 H 1929.01 -4.81351 1.64861 0
M  V30 19651 H 1928.41 -5.46391 -1.46538 0
M  V30 19652 H 1926.97 -6.38413 -1.31425 0
M  V30 19653 N 1930.4 -0.883401 -1.30514 0
M  V30 19654 C 1931.64 -0.511158 -1.96872 0
M  V30 19655 C 1932 0.92911 -1.68479 0
M  V30 19656 O 1931.29 1.64747 -0.978217 0
M  V30 19657 C 1931.49 -0.720655 -3.50059 0
M  V30 19658 C 1931.32 -2.17974 -3.93342 0
M  V30 19659 C 1930.09 -2.824 -4.19021 0
M  V30 19660 C 1932.28 -3.15338 -4.06283 0
M  V30 19661 N 1930.27 -4.18921 -4.48752 0
M  V30 19662 C 1931.64 -4.36927 -4.3988 0
M  V30 19663 C 1933.69 -3.11148 -3.88705 0
M  V30 19664 C 1932.39 -5.54864 -4.57731 0
M  V30 19665 C 1934.42 -4.28356 -4.07756 0
M  V30 19666 C 1933.78 -5.4871 -4.41697 0
M  V30 19667 H 1929.88 -0.236343 -0.74543 0
M  V30 19668 H 1932.47 -1.14081 -1.57777 0
M  V30 19669 H 1930.64 -0.120502 -3.88213 0
M  V30 19670 H 1932.37 -0.315468 -4.03469 0
M  V30 19671 H 1929.12 -2.33277 -4.12164 0
M  V30 19672 H 1929.55 -4.89422 -4.67755 0
M  V30 19673 H 1934.19 -2.19198 -3.61541 0
M  V30 19674 H 1931.91 -6.4732 -4.83738 0
M  V30 19675 H 1935.49 -4.26581 -3.95625 0
M  V30 19676 H 1934.37 -6.37894 -4.56137 0
M  V30 19677 N 1931.88 1.43833 -0.644194 0
M  V30 19678 C 1932.84 2.29159 0.0433471 0
M  V30 19679 C 1933.84 1.41734 0.75948 0
M  V30 19680 O 1935.03 1.63464 0.602093 0
M  V30 19681 C 1932.16 3.23604 1.07208 0
M  V30 19682 H 1933.35 2.9144 -0.707295 0
M  V30 19683 H 1930.91 1.50963 -0.404968 0
M  V30 19684 H 1931.64 2.66199 1.85226 0
M  V30 19685 H 1931.43 3.88047 0.562339 0
M  V30 19686 H 1932.92 3.87669 1.55251 0
M  V30 19687 N 1933.35 0.385544 1.52811 0
M  V30 19688 C 1934.6 -0.190625 2.02505 0
M  V30 19689 C 1934.96 -1.44782 1.26712 0
M  V30 19690 O 1934.25 -1.88226 0.357975 0
M  V30 19691 C 1934.44 -0.515911 3.53657 0
M  V30 19692 C 1934.27 0.708208 4.44088 0
M  V30 19693 C 1933.04 1.22634 4.90193 0
M  V30 19694 C 1935.24 1.57941 4.89448 0
M  V30 19695 N 1933.22 2.4084 5.64685 0
M  V30 19696 C 1934.59 2.60792 5.62483 0
M  V30 19697 C 1936.65 1.59995 4.71494 0
M  V30 19698 C 1935.35 3.65579 6.19471 0
M  V30 19699 C 1937.38 2.63686 5.29362 0
M  V30 19700 C 1936.74 3.6526 6.02299 0
M  V30 19701 H 1932.84 -0.0319414 0.781347 0
M  V30 19702 H 1935.42 0.534588 1.87217 0
M  V30 19703 H 1933.59 -1.21018 3.69065 0
M  V30 19704 H 1935.32 -1.07891 3.90053 0
M  V30 19705 H 1932.08 0.787908 4.67 0
M  V30 19706 H 1932.5 3.0064 6.06585 0
M  V30 19707 H 1937.15 0.828131 4.1461 0
M  V30 19708 H 1934.86 4.4363 6.75439 0
M  V30 19709 H 1938.45 2.66153 5.17352 0
M  V30 19710 H 1937.33 4.44179 6.46278 0
M  V30 19711 N 1934.83 -1.57178 0.115259 0
M  V30 19712 C 1936.25 -1.57765 -0.241345 0
M  V30 19713 C 1936.45 -1.12775 -1.66985 0
M  V30 19714 O 1935.5 -0.813419 -2.39039 0
M  V30 19715 C 1936.82 -3.00698 -0.0114291 0
M  V30 19716 C 1938.37 -3.12904 -0.0776187 0
M  V30 19717 C 1938.84 -4.57831 0.124557 0
M  V30 19718 N 1940.33 -4.63146 0.0703998 0
M  V30 19719 C 1941.07 -5.73045 0.20179 0
M  V30 19720 N 1940.56 -6.91706 0.389143 0
M  V30 19721 N 1942.36 -5.61922 0.141629 0
M  V30 19722 H 1934.51 -1.84725 1.04836 0
M  V30 19723 H 1936.77 -0.853542 0.412517 0
M  V30 19724 H 1936.48 -3.37886 0.975995 0
M  V30 19725 H 1936.35 -3.69771 -0.744947 0
M  V30 19726 H 1938.74 -2.75575 -1.05556 0
M  V30 19727 H 1938.82 -2.46382 0.687719 0
M  V30 19728 H 1938.46 -4.95857 1.09946 0
M  V30 19729 H 1938.39 -5.22439 -0.660721 0
M  V30 19730 H 1940.88 -3.77833 -0.0710442 0
M  V30 19731 H 1941.2 -7.71306 0.480365 0
M  V30 19732 H 1939.54 -6.93699 0.425069 0
M  V30 19733 H 1942.73 -4.681 -0.00374873 0
M  V30 19734 H 1942.9 -6.47527 0.24747 0
M  V30 19735 N 1936.31 0.158505 -1.56801 0
M  V30 19736 C 1937.72 0.71972 -1.7227 0
M  V30 19737 C 1938.07 1.822 -0.72784 0
M  V30 19738 O 1937.2 2.1613 0.108043 0
M  V30 19739 C 1937.79 1.31231 -3.12352 0
M  V30 19740 C 1936.35 1.82021 -3.29462 0
M  V30 19741 C 1935.5 0.704157 -2.68211 0
M  V30 19742 H 1938.45 -0.0670395 -1.58558 0
M  V30 19743 H 1938.47 2.18208 -3.11714 0
M  V30 19744 H 1937.98 0.509823 -3.84737 0
M  V30 19745 H 1936.08 2.64873 -2.62056 0
M  V30 19746 H 1936.2 1.95684 -4.37315 0
M  V30 19747 H 1934.56 1.12787 -2.28366 0
M  V30 19748 H 1935.34 -0.0866929 -3.43191 0
M  V30 19749 N 1937.79 1.51692 0.427485 0
M  V30 19750 C 1939.2 1.57214 1.007 0
M  V30 19751 C 1939.55 0.401527 1.92047 0
M  V30 19752 O 1938.68 -0.480464 2.10999 0
M  V30 19753 C 1939.27 2.84927 1.83309 0
M  V30 19754 C 1937.83 2.92989 2.36294 0
M  V30 19755 C 1936.98 2.51977 1.15772 0
M  V30 19756 H 1939.93 1.57326 0.208386 0
M  V30 19757 H 1939.95 2.69245 2.68863 0
M  V30 19758 H 1939.46 3.70108 1.16799 0
M  V30 19759 H 1937.56 2.1226 3.06229 0
M  V30 19760 H 1937.68 3.9685 2.68416 0
M  V30 19761 H 1936.04 2.054 1.50608 0
M  V30 19762 H 1936.82 3.39512 0.508568 0
M  V30 19763 N 1939.27 -0.683564 1.42004 0
M  V30 19764 C 1940.68 -1.26389 1.37414 0
M  V30 19765 C 1941.03 -1.96099 0.0630958 0
M  V30 19766 O 1940.15 -1.995 -0.838385 0
M  V30 19767 C 1940.75 -2.29854 2.48903 0
M  V30 19768 C 1939.31 -2.83435 2.47673 0
M  V30 19769 C 1938.46 -1.57634 2.28138 0
M  V30 19770 H 1941.41 -0.477522 1.51345 0
M  V30 19771 H 1941.43 -3.11404 2.18651 0
M  V30 19772 H 1940.94 -1.7909 3.44309 0
M  V30 19773 H 1939.04 -3.38344 1.56059 0
M  V30 19774 H 1939.15 -3.33048 3.44407 0
M  V30 19775 H 1937.52 -1.83883 1.76236 0
M  V30 19776 H 1938.3 -1.08848 3.25587 0
M  V30 19777 N 1940.75 -1.28031 -0.919012 0
M  V30 19778 C 1941.99 -1.14878 -1.66761 0
M  V30 19779 C 1942.32 0.303688 -1.92115 0
M  V30 19780 O 1941.58 1.23781 -1.51581 0
M  V30 19781 C 1941.87 -1.887 -3.03524 0
M  V30 19782 C 1941.54 -3.3852 -2.9785 0
M  V30 19783 C 1940.2 -3.79383 -2.9601 0
M  V30 19784 C 1942.55 -4.34077 -2.88491 0
M  V30 19785 C 1939.88 -5.14152 -2.82604 0
M  V30 19786 C 1942.23 -5.68912 -2.76625 0
M  V30 19787 C 1940.9 -6.09057 -2.7314 0
M  V30 19788 H 1940.17 -0.420368 -0.610223 0
M  V30 19789 H 1942.82 -1.58743 -1.07111 0
M  V30 19790 H 1941.12 -1.37368 -3.66929 0
M  V30 19791 H 1942.82 -1.75944 -3.6034 0
M  V30 19792 H 1939.41 -3.06028 -3.00074 0
M  V30 19793 H 1943.59 -4.03473 -2.89004 0
M  V30 19794 H 1938.85 -5.4439 -2.78298 0
M  V30 19795 H 1943.02 -6.4262 -2.6835 0
M  V30 19796 H 1940.65 -7.13437 -2.62509 0
M  V30 19797 N 1942.22 1.12672 -1.10194 0
M  V30 19798 C 1943.5 1.80442 -0.75499 0
M  V30 19799 C 1943.88 1.96988 0.758887 0
M  V30 19800 O 1943.23 1.54424 1.6842 0
M  V30 19801 C 1943.44 3.14969 -1.50317 0
M  V30 19802 C 1944.79 3.90205 -1.67409 0
M  V30 19803 O 1945.81 3.24618 -1.46634 0
M  V30 19804 O 1944.67 5.07864 -2.01833 0
M  V30 19805 H 1941.76 0.780952 -0.272109 0
M  V30 19806 H 1944.31 1.1953 -1.20461 0
M  V30 19807 H 1943.08 2.98202 -2.5336 0
M  V30 19808 H 1942.7 3.83587 -1.04625 0
M  V30 19809 N 1943.7 0.89031 1.30043 0
M  V30 19810 C 1944.93 0.526566 2.00087 0
M  V30 19811 C 1945.34 -0.88632 1.66703 0
M  V30 19812 O 1944.7 -1.58365 0.907012 0
M  V30 19813 C 1944.75 0.698102 3.54695 0
M  V30 19814 O 1944.47 2.05537 3.86893 0
M  V30 19815 C 1945.97 0.338058 4.42009 0
M  V30 19816 H 1943.19 0.20299 0.639559 0
M  V30 19817 H 1945.74 1.19708 1.65802 0
M  V30 19818 H 1943.89 0.0748931 3.87328 0
M  V30 19819 H 1944.31 2.07787 4.81586 0
M  V30 19820 H 1945.78 0.508957 5.49649 0
M  V30 19821 H 1946.26 -0.724284 4.33187 0
M  V30 19822 H 1946.86 0.937813 4.14831 0
M  V30 19823 N 1945.18 -1.43489 0.651812 0
M  V30 19824 C 1946.11 -2.33484 -0.0271093 0
M  V30 19825 C 1947.09 -1.4939 -0.813427 0
M  V30 19826 O 1948.28 -1.78058 -0.775186 0
M  V30 19827 C 1945.41 -3.32737 -0.995143 0
M  V30 19828 C 1944.36 -4.26809 -0.319036 0
M  V30 19829 C 1943.69 -5.1609 -1.39842 0
M  V30 19830 C 1944.99 -5.16326 0.787692 0
M  V30 19831 H 1946.68 -2.90503 0.724441 0
M  V30 19832 H 1944.23 -1.39686 0.349826 0
M  V30 19833 H 1946.18 -3.94593 -1.479 0
M  V30 19834 H 1944.9 -2.73972 -1.77784 0
M  V30 19835 H 1943.56 -3.66316 0.144366 0
M  V30 19836 H 1943.21 -4.53664 -2.17251 0
M  V30 19837 H 1942.91 -5.79848 -0.951292 0
M  V30 19838 H 1944.43 -5.80819 -1.88367 0
M  V30 19839 H 1945.85 -5.71999 0.386053 0
M  V30 19840 H 1944.24 -5.88798 1.1592 0
M  V30 19841 H 1945.31 -4.56099 1.64626 0
M  V30 19842 N 1946.66 -0.393643 -1.52605 0
M  V30 19843 C 1947.89 0.1871 -2.06052 0
M  V30 19844 C 1948.3 1.40154 -1.26501 0
M  V30 19845 O 1947.66 1.798 -0.31279 0
M  V30 19846 C 1947.71 0.552918 -3.57246 0
M  V30 19847 O 1947.43 -0.613274 -4.33786 0
M  V30 19848 C 1948.93 1.18906 -4.27055 0
M  V30 19849 H 1946.15 0.0272042 -0.670448 0
M  V30 19850 H 1948.69 -0.560126 -1.9668 0
M  V30 19851 H 1946.85 1.25004 -3.66678 0
M  V30 19852 H 1947.26 -0.311611 -5.23574 0
M  V30 19853 H 1948.74 1.39535 -5.34073 0
M  V30 19854 H 1949.21 2.15768 -3.82545 0
M  V30 19855 H 1949.82 0.532579 -4.21952 0
M  V30 19856 N 1948.14 1.57115 -0.123593 0
M  V30 19857 C 1949.36 1.99705 0.540887 0
M  V30 19858 C 1949.78 1.00336 1.59932 0
M  V30 19859 O 1949.14 -0.00310477 1.825 0
M  V30 19860 C 1949.19 3.42286 1.16285 0
M  V30 19861 O 1948.91 4.37854 0.146725 0
M  V30 19862 C 1950.41 4.00032 1.91021 0
M  V30 19863 H 1947.63 0.655623 0.142827 0
M  V30 19864 H 1950.17 2.03406 -0.211285 0
M  V30 19865 H 1948.33 3.39511 1.86578 0
M  V30 19866 H 1948.74 5.21066 0.599228 0
M  V30 19867 H 1950.22 5.01865 2.29861 0
M  V30 19868 H 1950.69 3.3943 2.78719 0
M  V30 19869 H 1951.3 4.06368 1.25481 0
M  V30 19870 N 1949.61 -0.150187 1.56883 0
M  V30 19871 C 1950.84 -0.88235 1.87695 0
M  V30 19872 C 1951.26 -1.74093 0.712272 0
M  V30 19873 O 1950.62 -1.78118 -0.338207 0
M  V30 19874 C 1950.67 -1.71754 3.1707 0
M  V30 19875 O 1949.77 -2.82145 3.00779 0
M  V30 19876 H 1949.11 -0.245947 0.616771 0
M  V30 19877 H 1951.64 -0.141963 2.04107 0
M  V30 19878 H 1951.65 -2.1132 3.4901 0
M  V30 19879 H 1950.33 -1.08704 4.01443 0
M  V30 19880 H 1948.91 -2.46008 2.8024 0
M  V30 19881 N 1951.09 -1.51916 -0.419434 0
M  V30 19882 C 1952.5 -1.57746 -0.998651 0
M  V30 19883 C 1952.85 -0.411706 -1.91832 0
M  V30 19884 O 1951.98 0.469268 -2.11251 0
M  V30 19885 C 1952.57 -2.85895 -1.81795 0
M  V30 19886 C 1951.13 -2.94238 -2.34736 0
M  V30 19887 C 1950.28 -2.52587 -1.14434 0
M  V30 19888 H 1953.23 -1.57434 -0.200039 0
M  V30 19889 H 1953.25 -2.70667 -2.67431 0
M  V30 19890 H 1952.76 -3.70722 -1.14834 0
M  V30 19891 H 1950.87 -2.13881 -3.05099 0
M  V30 19892 H 1950.98 -3.98268 -2.66308 0
M  V30 19893 H 1949.34 -2.06196 -1.49516 0
M  V30 19894 H 1950.13 -3.39777 -0.490555 0
M  V30 19895 N 1952.57 0.676023 -1.42365 0
M  V30 19896 C 1953.82 1.43672 -1.43979 0
M  V30 19897 C 1954.17 1.92322 -0.0547645 0
M  V30 19898 O 1953.46 1.67912 0.922834 0
M  V30 19899 C 1953.66 2.65018 -2.39792 0
M  V30 19900 C 1953.49 2.28241 -3.87474 0
M  V30 19901 C 1952.26 2.1766 -4.56018 0
M  V30 19902 C 1954.46 1.89966 -4.7793 0
M  V30 19903 N 1952.44 1.73974 -5.88733 0
M  V30 19904 C 1953.81 1.57189 -5.99743 0
M  V30 19905 C 1955.86 1.76947 -4.65397 0
M  V30 19906 C 1954.57 1.127 -7.10416 0
M  V30 19907 C 1956.59 1.33863 -5.76051 0
M  V30 19908 C 1955.95 1.02009 -6.96974 0
M  V30 19909 H 1952.05 0.522266 -0.582033 0
M  V30 19910 H 1954.64 0.780248 -1.78382 0
M  V30 19911 H 1952.81 3.28356 -2.07453 0
M  V30 19912 H 1954.54 3.31603 -2.31995 0
M  V30 19913 H 1951.3 2.36689 -4.10214 0
M  V30 19914 H 1951.72 1.54557 -6.59121 0
M  V30 19915 H 1956.36 2.00221 -3.72386 0
M  V30 19916 H 1954.08 0.881725 -8.03275 0
M  V30 19917 H 1957.67 1.24312 -5.68364 0
M  V30 19918 H 1956.55 0.691772 -7.81143 0
M  V30 19919 N 1954.05 1.28517 0.912209 0
M  V30 19920 C 1954.98 1.15113 2.03153 0
M  V30 19921 C 1955.96 0.0485128 1.70031 0
M  V30 19922 O 1957.14 0.225778 1.92883 0
M  V30 19923 C 1954.27 0.81381 3.37631 0
M  V30 19924 C 1953.23 1.87137 3.8492 0
M  V30 19925 C 1952.55 1.38765 5.1638 0
M  V30 19926 C 1953.85 3.27819 4.06611 0
M  V30 19927 H 1955.55 2.0875 2.14625 0
M  V30 19928 H 1953.09 1.00504 1.03126 0
M  V30 19929 H 1955.05 0.706804 4.1543 0
M  V30 19930 H 1953.77 -0.15826 3.26216 0
M  V30 19931 H 1952.43 1.96755 3.09327 0
M  V30 19932 H 1952.08 0.404598 5.0137 0
M  V30 19933 H 1951.78 2.09482 5.48991 0
M  V30 19934 H 1953.3 1.29389 5.96733 0
M  V30 19935 H 1954.72 3.21114 4.7493 0
M  V30 19936 H 1953.11 3.96384 4.50555 0
M  V30 19937 H 1954.18 3.71723 3.11368 0
M  V30 19938 N 1955.53 -1.12086 1.1079 0
M  V30 19939 C 1956.46 -2.17667 0.717897 0
M  V30 19940 C 1957.47 -1.60913 -0.247179 0
M  V30 19941 O 1958.66 -1.78473 -0.0310924 0
M  V30 19942 C 1955.76 -3.38877 0.0392451 0
M  V30 19943 C 1954.93 -4.25114 1.02943 0
M  V30 19944 C 1953.99 -5.24815 0.381583 0
M  V30 19945 O 1953.02 -5.59739 1.03348 0
M  V30 19946 N 1954.22 -5.74118 -0.858416 0
M  V30 19947 H 1956.99 -2.51737 1.6263 0
M  V30 19948 H 1954.55 -1.27544 0.997209 0
M  V30 19949 H 1956.54 -4.02661 -0.405715 0
M  V30 19950 H 1955.11 -3.02927 -0.771627 0
M  V30 19951 H 1954.33 -3.57889 1.65255 0
M  V30 19952 H 1955.62 -4.79575 1.69957 0
M  V30 19953 H 1955.01 -5.47915 -1.40734 0
M  V30 19954 H 1953.57 -6.39771 -1.24647 0
M  V30 19955 N 1957 -0.897194 -1.29569 0
M  V30 19956 C 1957.93 -0.389601 -2.30227 0
M  V30 19957 C 1958.92 0.53405 -1.61499 0
M  V30 19958 O 1960.1 0.44531 -1.89025 0
M  V30 19959 C 1957.23 0.385966 -3.45149 0
M  V30 19960 C 1956.18 -0.447028 -4.25659 0
M  V30 19961 C 1955.51 0.455883 -5.32753 0
M  V30 19962 C 1956.81 -1.69562 -4.9401 0
M  V30 19963 H 1958.5 -1.23077 -2.72933 0
M  V30 19964 H 1956.05 -0.593265 -1.31211 0
M  V30 19965 H 1958 0.751791 -4.1464 0
M  V30 19966 H 1956.73 1.26089 -3.01279 0
M  V30 19967 H 1955.39 -0.795152 -3.57873 0
M  V30 19968 H 1955.03 1.32887 -4.85129 0
M  V30 19969 H 1954.73 -0.0977528 -5.87519 0
M  V30 19970 H 1956.26 0.817956 -6.05097 0
M  V30 19971 H 1957.67 -1.39968 -5.55951 0
M  V30 19972 H 1956.07 -2.19039 -5.58697 0
M  V30 19973 H 1957.14 -2.43305 -4.19441 0
M  V30 19974 N 1958.48 1.43142 -0.659413 0
M  V30 19975 C 1959.73 2.0174 -0.175334 0
M  V30 19976 C 1960.06 1.52053 1.21285 0
M  V30 19977 O 1959.31 0.70675 1.82493 0
M  V30 19978 C 1959.61 3.57118 -0.141826 0
M  V30 19979 C 1959.28 4.26175 -1.47259 0
M  V30 19980 C 1957.94 4.44756 -1.837 0
M  V30 19981 C 1960.29 4.65229 -2.34972 0
M  V30 19982 C 1957.62 4.99656 -3.07507 0
M  V30 19983 C 1959.97 5.21502 -3.58076 0
M  V30 19984 C 1958.64 5.38297 -3.94705 0
M  V30 19985 H 1957.91 0.738217 -0.0641591 0
M  V30 19986 H 1960.55 1.71535 -0.85135 0
M  V30 19987 H 1958.86 3.86901 0.617659 0
M  V30 19988 H 1960.55 4.00222 0.249689 0
M  V30 19989 H 1957.14 4.12063 -1.17908 0
M  V30 19990 H 1961.33 4.50561 -2.08107 0
M  V30 19991 H 1956.58 5.10845 -3.35927 0
M  V30 19992 H 1960.76 5.50708 -4.26255 0
M  V30 19993 H 1958.39 5.80603 -4.90718 0
M  V30 19994 N 1959.96 0.40173 1.52394 0
M  V30 19995 C 1961.21 -0.177771 2.00915 0
M  V30 19996 C 1961.52 -1.46854 1.29203 0
M  V30 19997 O 1962.73 -2.12884 1.68501 0
M  V30 19998 C 1961.18 -0.367359 3.5802 0
M  V30 19999 C 1960.79 0.910882 4.38642 0
M  V30 20000 C 1962.54 -0.902552 4.14794 0
M  V30 20001 C 1960.44 0.688888 5.87374 0
M  V30 20002 H 1959.37 -0.0702091 0.750724 0
M  V30 20003 H 1962.02 0.52604 1.75798 0
M  V30 20004 H 1960.41 -1.13332 3.79436 0
M  V30 20005 H 1961.58 1.68242 4.28989 0
M  V30 20006 H 1959.9 1.37194 3.9315 0
M  V30 20007 H 1962.49 -1.08455 5.23585 0
M  V30 20008 H 1962.84 -1.87515 3.71677 0
M  V30 20009 H 1963.37 -0.19584 3.97318 0
M  V30 20010 H 1960.11 1.63284 6.34837 0
M  V30 20011 H 1959.63 -0.0434889 5.99784 0
M  V30 20012 H 1961.31 0.328207 6.46167 0
M  V30 20013 N 1961.44 -1.57047 0.131923 0
M  V30 20014 C 1962.39 -2.17261 -0.830686 0
M  V30 20015 C 1963.38 -1.12538 -1.26616 0
M  V30 20016 O 1964.59 -1.30818 -1.23639 0
M  V30 20017 H 1960.96 -0.695476 -0.286037 0
M  V30 20018 H 1962.93 -2.96903 -0.29848 0
M  V30 20019 C 1961.68 -2.79677 -2.06582 0
M  V30 20020 H 1961 -3.59965 -1.73969 0
M  V30 20021 H 1962.44 -3.2533 -2.71912 0
M  V30 20022 C 1960.9 -1.77413 -2.86402 0
M  V30 20023 O 1961.43 -1.23537 -3.82232 0
M  V30 20024 N 1959.64 -1.47059 -2.50643 0
M  V30 20025 H 1959.19 -1.91062 -1.7278 0
M  V30 20026 H 1959.14 -0.788806 -3.04344 0
M  V30 20027 N 1962.92 0.141865 -1.5696 0
M  V30 20028 C 1963.88 1.15896 -1.97739 0
M  V30 20029 C 1964.88 1.3558 -0.864556 0
M  V30 20030 O 1966.07 1.32485 -1.13107 0
M  V30 20031 C 1963.2 2.51822 -2.29779 0
M  V30 20032 H 1964.39 0.808993 -2.88782 0
M  V30 20033 H 1961.95 0.385387 -1.51474 0
M  V30 20034 H 1962.68 2.91781 -1.41543 0
M  V30 20035 H 1962.47 2.38894 -3.10921 0
M  V30 20036 H 1963.96 3.25066 -2.62148 0
M  V30 20037 N 1964.39 1.52136 0.411372 0
M  V30 20038 C 1965.81 1.40889 0.749825 0
M  V30 20039 C 1966.01 0.511617 1.94897 0
M  V30 20040 O 1965.07 -0.0234451 2.52489 0
M  V30 20041 C 1966.38 2.83378 1.00586 0
M  V30 20042 C 1967.93 2.92706 1.10871 0
M  V30 20043 C 1968.4 4.36157 1.39752 0
M  V30 20044 N 1969.89 4.39382 1.46622 0
M  V30 20045 C 1970.63 5.47436 1.70591 0
M  V30 20046 N 1970.12 6.65612 1.92179 0
M  V30 20047 N 1971.92 5.34949 1.72587 0
M  V30 20048 H 1964.07 2.09009 -0.377998 0
M  V30 20049 H 1966.33 0.941963 -0.106819 0
M  V30 20050 H 1966.04 3.51147 0.197136 0
M  V30 20051 H 1965.91 3.24285 1.92663 0
M  V30 20052 H 1968.3 2.25118 1.90803 0
M  V30 20053 H 1968.38 2.55258 0.166361 0
M  V30 20054 H 1968.02 5.04303 0.603387 0
M  V30 20055 H 1967.95 4.71139 2.35236 0
M  V30 20056 H 1970.44 3.54194 1.31738 0
M  V30 20057 H 1970.76 7.43745 2.09912 0
M  V30 20058 H 1969.1 6.68681 1.89449 0
M  V30 20059 H 1972.29 4.41602 1.55258 0
M  V30 20060 H 1972.47 6.19234 1.90929 0
M  V30 20061 N 1965.87 -0.668464 1.42721 0
M  V30 20062 C 1966.82 -1.80311 1.46938 0
M  V30 20063 C 1967.82 -1.65861 0.344463 0
M  V30 20064 O 1969.02 -1.72392 0.517768 0
M  V30 20065 H 1965.4 -0.59464 0.460333 0
M  V30 20066 H 1967.37 -1.73872 2.4251 0
M  V30 20067 C 1966.12 -3.18498 1.3948 0
M  V30 20068 H 1965.44 -3.30246 2.25338 0
M  V30 20069 H 1966.88 -3.9789 1.46492 0
M  V30 20070 C 1965.34 -3.36719 0.110386 0
M  V30 20071 O 1965.87 -3.92939 -0.834354 0
M  V30 20072 N 1964.07 -2.90589 0.0254882 0
M  V30 20073 H 1963.62 -2.45023 0.795077 0
M  V30 20074 H 1963.58 -3.03158 -0.833236 0
M  V30 20075 N 1967.35 -1.28999 -0.905381 0
M  V30 20076 C 1968.6 -1.17823 -1.65799 0
M  V30 20077 C 1968.95 0.26881 -1.90513 0
M  V30 20078 O 1968.25 1.19157 -1.50041 0
M  V30 20079 C 1968.44 -1.91909 -3.01506 0
M  V30 20080 C 1968.27 -3.43669 -2.90038 0
M  V30 20081 C 1967.04 -4.13016 -2.91111 0
M  V30 20082 C 1969.24 -4.39266 -2.67488 0
M  V30 20083 N 1967.22 -5.51181 -2.7032 0
M  V30 20084 C 1968.59 -5.64852 -2.55621 0
M  V30 20085 C 1970.64 -4.29095 -2.5255 0
M  V30 20086 C 1969.35 -6.81422 -2.30339 0
M  V30 20087 C 1971.37 -5.45411 -2.2865 0
M  V30 20088 C 1970.74 -6.69966 -2.17544 0
M  V30 20089 H 1966.83 -0.486118 -0.612547 0
M  V30 20090 H 1969.42 -1.62756 -1.06858 0
M  V30 20091 H 1967.59 -1.49398 -3.58518 0
M  V30 20092 H 1969.32 -1.73046 -3.65837 0
M  V30 20093 H 1966.08 -3.64668 -3.02183 0
M  V30 20094 H 1966.5 -6.2383 -2.62993 0
M  V30 20095 H 1971.14 -3.33498 -2.59883 0
M  V30 20096 H 1968.86 -7.77081 -2.21745 0
M  V30 20097 H 1972.45 -5.39436 -2.17944 0
M  V30 20098 H 1971.33 -7.58451 -1.99305 0
M  V30 20099 N 1968.83 1.11497 -1.11383 0
M  V30 20100 C 1970.06 1.87027 -0.884793 0
M  V30 20101 C 1970.47 1.80136 0.565362 0
M  V30 20102 O 1969.83 1.18222 1.39032 0
M  V30 20103 C 1969.88 3.35862 -1.33713 0
M  V30 20104 O 1969.6 3.42606 -2.73043 0
M  V30 20105 C 1971.1 4.283 -1.14342 0
M  V30 20106 H 1968.32 0.591449 -0.316905 0
M  V30 20107 H 1970.87 1.4102 -1.481 0
M  V30 20108 H 1969.02 3.79376 -0.784385 0
M  V30 20109 H 1969.44 4.35278 -2.92632 0
M  V30 20110 H 1970.91 5.30975 -1.50894 0
M  V30 20111 H 1971.39 4.39122 -0.0829321 0
M  V30 20112 H 1971.99 3.90578 -1.68312 0
M  V30 20113 N 1970.31 0.904053 1.29092 0
M  V30 20114 C 1971.24 0.401805 2.30017 0
M  V30 20115 C 1972.22 -0.525477 1.6178 0
M  V30 20116 O 1973.4 -0.435279 1.89259 0
M  V30 20117 C 1970.53 -0.367656 3.45348 0
M  V30 20118 C 1969.49 0.469596 4.25416 0
M  V30 20119 C 1968.81 -0.427624 5.32987 0
M  V30 20120 C 1970.11 1.7218 4.93104 0
M  V30 20121 H 1971.81 1.24523 2.72276 0
M  V30 20122 H 1969.35 0.600215 1.30895 0
M  V30 20123 H 1971.31 -0.729791 4.15033 0
M  V30 20124 H 1970.03 -1.2449 3.01944 0
M  V30 20125 H 1968.69 0.814119 3.57446 0
M  V30 20126 H 1968.34 -1.30313 4.85827 0
M  V30 20127 H 1968.04 0.128909 5.87459 0
M  V30 20128 H 1969.56 -0.785855 6.05522 0
M  V30 20129 H 1970.98 1.42914 5.55201 0
M  V30 20130 H 1969.37 2.21999 5.57527 0
M  V30 20131 H 1970.44 2.45526 4.18145 0
M  V30 20132 N 1971.79 -1.4279 0.666995 0
M  V30 20133 C 1972.7 -2.34594 -0.0164305 0
M  V30 20134 C 1973.71 -1.54657 -0.797322 0
M  V30 20135 O 1974.89 -1.87256 -0.741426 0
M  V30 20136 C 1971.95 -3.33102 -0.961469 0
M  V30 20137 C 1971.01 -4.28939 -0.17598 0
M  V30 20138 C 1970.25 -5.22741 -1.076 0
M  V30 20139 O 1970.47 -5.21289 -2.31546 0
M  V30 20140 O 1969.4 -5.99464 -0.541001 0
M  V30 20141 H 1973.23 -2.94557 0.739579 0
M  V30 20142 H 1970.81 -1.43162 0.427207 0
M  V30 20143 H 1972.7 -3.93639 -1.5042 0
M  V30 20144 H 1971.37 -2.75623 -1.69746 0
M  V30 20145 H 1970.28 -3.71839 0.410667 0
M  V30 20146 H 1971.61 -4.89438 0.520737 0
M  V30 20147 N 1973.26 -0.409806 -1.52179 0
M  V30 20148 C 1974.51 0.16543 -2.01422 0
M  V30 20149 C 1974.83 1.45588 -1.29727 0
M  V30 20150 O 1974.1 1.9127 -0.423399 0
M  V30 20151 H 1972.68 0.0641237 -0.744243 0
M  V30 20152 H 1975.34 -0.546204 -1.8709 0
M  V30 20153 H 1974.44 0.361061 -3.10004 0
M  V30 20154 N 1974.74 1.56975 -0.14025 0
M  V30 20155 C 1975.97 2.00699 0.522938 0
M  V30 20156 C 1976.39 1.01964 1.58066 0
M  V30 20157 O 1975.75 -0.0056107 1.81299 0
M  V30 20158 C 1975.8 3.43203 1.10653 0
M  V30 20159 O 1974.9 3.47447 2.22159 0
M  V30 20160 H 1974.24 0.65143 0.12859 0
M  V30 20161 H 1976.77 2.03246 -0.234993 0
M  V30 20162 H 1976.78 3.81862 1.43686 0
M  V30 20163 H 1975.46 4.14573 0.331913 0
M  V30 20164 H 1974.03 3.20625 1.90405 0
M  V30 20165 N 1976.22 -0.133539 1.57033 0
M  V30 20166 C 1977.46 -0.849918 1.85892 0
M  V30 20167 C 1977.82 -1.77731 0.72634 0
M  V30 20168 O 1979.02 -2.53416 0.896316 0
M  V30 20169 C 1977.3 -1.59254 3.19958 0
M  V30 20170 S 1978.85 -2.3525 3.70409 0
M  V30 20171 H 1975.67 -0.283955 0.651836 0
M  V30 20172 H 1978.27 -0.1091 1.95195 0
M  V30 20173 H 1976.98 -0.902961 4.00343 0
M  V30 20174 H 1976.51 -2.37402 3.13694 0
M  V30 20175 H 1978.52 -3.60701 3.40748 0
M  V30 20176 O 1977.74 -1.59088 -0.278064 0
M  V30 20177 H 1978.43 -1.70262 -0.923609 0
M  V30 END ATOM
M  V30 BEGIN BOND
M  V30 END BOND
M  V30 END CTAB
M  END
$$$$
