drugbank_target|O15144 Actin-related protein 2/3 complex subunit 2 (DB08235; DB08236)
 OpenBabel12092120503D

  0  0  0     0  0            999 V3000
M  V30 BEGIN CTAB
M  V30 COUNTS 4818 4868 0 0 0
M  V30 BEGIN ATOM
M  V30 1 H -0.908 1.98254 -0.117106 0
M  V30 2 N 0 1.576 0 0
M  V30 3 C 0.933 2.03868 1.02534 0
M  V30 4 C 1.911 0.928543 1.3348 0
M  V30 5 O 3.095 1.19667 1.45644 0
M  V30 6 C 0.222 2.43627 2.35294 0
M  V30 7 C -0.732 3.65373 2.2001 0
M  V30 8 S 0.101 5.13292 1.52614 0
M  V30 9 C 1.257 5.56322 2.86805 0
M  V30 10 H 1.49 2.90518 0.631377 0
M  V30 11 H -0.977 1.52953 0.210867 0
M  V30 12 H 0.981 2.67203 3.11629 0
M  V30 13 H -0.358 1.57376 2.7183 0
M  V30 14 H -1.165 3.90944 3.18086 0
M  V30 15 H -1.563 3.418 1.51819 0
M  V30 16 H 0.729 5.58782 3.83104 0
M  V30 17 H 1.672 6.56266 2.65933 0
M  V30 18 H 2.08 4.83886 2.90714 0
M  V30 19 N 1.4781 -0.272755 1.55222 0
M  V30 20 C 2.7271 -1.00211 1.75045 0
M  V30 21 C 3.0401 -1.87441 0.559046 0
M  V30 22 O 4.2461 -2.63856 0.639698 0
M  V30 23 C 2.7021 -1.83165 3.09804 0
M  V30 24 C 2.3101 -1.008 4.36513 0
M  V30 25 C 4.0541 -2.55529 3.38977 0
M  V30 26 C 1.9611 -1.83194 5.62311 0
M  V30 27 H 0.8911 -0.377878 0.652476 0
M  V30 28 H 3.5421 -0.257776 1.8168 0
M  V30 29 H 1.9241 -2.61694 2.97207 0
M  V30 30 H 3.0981 -0.266855 4.60027 0
M  V30 31 H 1.4131 -0.398897 4.14485 0
M  V30 32 H 4.0101 -3.17578 4.30172 0
M  V30 33 H 4.3531 -3.25825 2.59121 0
M  V30 34 H 4.8861 -1.84029 3.52673 0
M  V30 35 H 1.6251 -1.17318 6.44916 0
M  V30 36 H 1.1451 -2.54905 5.4294 0
M  V30 37 H 2.8241 -2.40552 6.00619 0
M  V30 38 N 2.9562 -1.48159 -0.537278 0
M  V30 39 C 3.8862 -1.65029 -1.6519 0
M  V30 40 C 4.8672 -0.499281 -1.62607 0
M  V30 41 O 6.0522 -0.730972 -1.79918 0
M  V30 42 C 3.1822 -1.68303 -3.03795 0
M  V30 43 C 2.1362 -2.8283 -3.21234 0
M  V30 44 C 1.4622 -2.71189 -4.60826 0
M  V30 45 C 2.7622 -4.24211 -3.04701 0
M  V30 46 H 4.4562 -2.58341 -1.51328 0
M  V30 47 H 2.0022 -1.24325 -0.726585 0
M  V30 48 H 3.9552 -1.78693 -3.81637 0
M  V30 49 H 2.6792 -0.715635 -3.18663 0
M  V30 50 H 1.3382 -2.71983 -2.45807 0
M  V30 51 H 0.9862 -1.72435 -4.7252 0
M  V30 52 H 0.6862 -3.48035 -4.7344 0
M  V30 53 H 2.2102 -2.83537 -5.40777 0
M  V30 54 H 3.6242 -4.3593 -3.72341 0
M  V30 55 H 2.0212 -5.01998 -3.28813 0
M  V30 56 H 3.0912 -4.41184 -2.01209 0
M  V30 57 N 4.4343 0.785586 -1.36625 0
M  V30 58 C 5.3643 1.91259 -1.33949 0
M  V30 59 C 6.3453 1.68795 -0.210325 0
M  V30 60 O 7.5303 1.89854 -0.408561 0
M  V30 61 C 4.6603 3.28339 -1.13186 0
M  V30 62 C 3.6143 3.65335 -2.22967 0
M  V30 63 C 2.9403 5.00806 -1.87342 0
M  V30 64 C 4.2403 3.7352 -3.65075 0
M  V30 65 H 5.9343 1.93755 -2.28253 0
M  V30 66 H 3.4803 0.930788 -1.09874 0
M  V30 67 H 5.4333 4.06804 -1.09948 0
M  V30 68 H 4.1573 3.2624 -0.153332 0
M  V30 69 H 2.8163 2.89169 -2.25337 0
M  V30 70 H 2.4643 4.95233 -0.880545 0
M  V30 71 H 2.1643 5.26529 -2.60846 0
M  V30 72 H 3.6883 5.81687 -1.85667 0
M  V30 73 H 5.1023 4.42168 -3.64911 0
M  V30 74 H 3.4993 4.10731 -4.37516 0
M  V30 75 H 4.5693 2.74527 -3.99703 0
M  V30 76 N 5.9124 1.20967 1.01018 0
M  V30 77 C 6.8224 0.980157 2.13143 0
M  V30 78 C 7.8384 -0.0660665 1.73875 0
M  V30 79 O 9.0144 0.122821 2.01025 0
M  V30 80 C 6.0794 0.54216 3.42435 0
M  V30 81 C 5.1404 1.65999 3.95908 0
M  V30 82 C 4.3734 1.2428 5.19028 0
M  V30 83 O 4.5964 0.114196 5.70286 0
M  V30 84 O 3.5304 2.05271 5.65816 0
M  V30 85 H 7.3564 1.91913 2.35379 0
M  V30 86 H 4.9414 0.994099 1.11526 0
M  V30 87 H 6.8234 0.30744 4.20277 0
M  V30 88 H 5.4984 -0.36815 3.216 0
M  V30 89 H 4.4054 1.94906 3.19316 0
M  V30 90 H 5.7384 2.54753 4.21143 0
M  V30 91 N 7.3905 -1.2043 1.01659 0
M  V30 92 C 8.6365 -1.90079 0.706963 0
M  V30 93 C 8.9695 -1.78648 -0.761474 0
M  V30 94 O 8.2445 -1.17069 -1.55323 0
M  V30 95 C 8.5275 -3.41469 1.14327 0
M  V30 96 C 8.3805 -3.61833 2.67201 0
M  V30 97 C 9.6995 -4.34261 0.714529 0
M  V30 98 H 6.8185 -0.690254 0.2583 0
M  V30 99 H 9.4605 -1.41826 1.26433 0
M  V30 100 H 7.6105 -3.82696 0.669056 0
M  V30 101 H 9.2825 -3.2986 3.22475 0
M  V30 102 H 7.5255 -3.05304 3.08175 0
M  V30 103 H 8.1965 -4.67955 2.92783 0
M  V30 104 H 10.6725 -4.00682 1.12221 0
M  V30 105 H 9.5485 -5.38806 1.04784 0
M  V30 106 H 9.8095 -4.40431 -0.383799 0
M  V30 107 N 8.8686 -0.792821 -1.36206 0
M  V30 108 C 9.8166 -0.181555 -2.3189 0
M  V30 109 C 10.8106 0.661025 -1.55971 0
M  V30 110 O 12.0166 0.555728 -1.71206 0
M  V30 111 H 8.3916 -0.0399382 -0.750939 0
M  V30 112 H 10.3626 -1.00394 -2.81005 0
M  V30 113 C 9.1116 0.666444 -3.41253 0
M  V30 114 H 8.4346 0.0274489 -3.99791 0
M  V30 115 H 9.8746 1.06076 -4.10517 0
M  V30 116 C 8.3336 1.82614 -2.83114 0
M  V30 117 O 8.8636 2.9229 -2.75553 0
M  V30 118 N 7.0696 1.63333 -2.40356 0
M  V30 119 H 6.6166 0.741217 -2.46706 0
M  V30 120 H 6.5746 2.41087 -2.01803 0
M  V30 121 N 10.3467 1.47872 -0.545128 0
M  V30 122 C 11.2947 2.31533 0.222512 0
M  V30 123 C 12.2887 1.42177 0.920985 0
M  V30 124 O 13.4947 1.59005 0.843645 0
M  V30 125 H 9.8697 0.746519 0.0906278 0
M  V30 126 H 11.8407 2.94139 -0.50246 0
M  V30 127 C 10.5897 3.2457 1.24699 0
M  V30 128 H 9.9127 3.93283 0.718944 0
M  V30 129 H 11.3527 3.85963 1.75523 0
M  V30 130 C 9.8117 2.47237 2.28856 0
M  V30 131 O 10.3417 2.20808 3.35569 0
M  V30 132 N 8.5477 2.08461 2.02466 0
M  V30 133 H 8.0947 2.30155 1.157 0
M  V30 134 H 8.0527 1.57033 2.72375 0
M  V30 135 N 11.8248 0.280983 1.55075 0
M  V30 136 C 13.2408 -0.0729964 1.59433 0
M  V30 137 C 13.4408 -1.5411 1.29817 0
M  V30 138 O 12.4968 -2.29086 1.06187 0
M  V30 139 C 13.8098 0.306921 2.9913 0
M  V30 140 C 15.3578 0.254023 3.11968 0
M  V30 141 C 15.8328 0.608467 4.5394 0
M  V30 142 N 17.3238 0.560241 4.59799 0
M  V30 143 C 18.0588 0.80722 5.6769 0
M  V30 144 N 17.5548 1.11912 6.83701 0
M  V30 145 N 19.3478 0.735623 5.57266 0
M  V30 146 H 11.4988 1.238 1.7259 0
M  V30 147 H 13.7618 0.500547 0.805082 0
M  V30 148 H 13.4678 1.32816 3.25657 0
M  V30 149 H 13.3418 -0.349363 3.75579 0
M  V30 150 H 15.7288 -0.75794 2.852 0
M  V30 151 H 15.8098 0.944649 2.37718 0
M  V30 152 H 15.4538 1.61814 4.81434 0
M  V30 153 H 15.3838 -0.104013 5.26497 0
M  V30 154 H 17.8748 0.329288 3.76463 0
M  V30 155 H 18.1878 1.29409 7.61888 0
M  V30 156 H 16.5328 1.15695 6.85303 0
M  V30 157 H 19.7238 0.491752 4.6551 0
M  V30 158 H 19.8968 0.931482 6.4127 0
M  V30 159 N 13.3029 -1.57598 0.00835791 0
M  V30 160 C 14.5519 -1.90107 -0.673968 0
M  V30 161 C 14.8649 -0.884275 -1.7447 0
M  V30 162 O 16.0709 -1.09987 -2.48224 0
M  V30 163 C 14.5269 -3.37497 -1.24995 0
M  V30 164 C 14.1349 -4.47491 -0.2136 0
M  V30 165 C 15.8789 -3.79104 -1.90999 0
M  V30 166 C 13.7859 -5.85963 -0.80005 0
M  V30 167 H 12.7159 -0.709393 -0.255495 0
M  V30 168 H 15.3669 -1.83365 0.0702693 0
M  V30 169 H 13.7489 -3.39102 -2.04513 0
M  V30 170 H 14.9229 -4.57414 0.557596 0
M  V30 171 H 13.2379 -4.14956 0.346474 0
M  V30 172 H 15.8349 -4.79901 -2.35795 0
M  V30 173 H 16.1779 -3.1306 -2.74407 0
M  V30 174 H 16.7109 -3.79833 -1.18203 0
M  V30 175 H 13.4499 -6.555 -0.00456708 0
M  V30 176 H 12.9699 -5.79687 -1.54021 0
M  V30 177 H 14.6489 -6.33884 -1.29615 0
M  V30 178 N 14.781 0.264519 -1.55364 0
M  V30 179 C 16.03 0.992812 -1.75574 0
M  V30 180 C 16.343 1.87142 -0.568979 0
M  V30 181 O 17.549 2.63513 -0.653682 0
M  V30 182 C 16.005 1.81519 -3.10771 0
M  V30 183 C 15.613 0.984839 -4.37041 0
M  V30 184 C 17.357 2.53727 -3.40327 0
M  V30 185 C 15.264 1.80209 -5.63275 0
M  V30 186 H 14.194 0.374412 -0.65447 0
M  V30 187 H 16.845 0.248138 -1.81815 0
M  V30 188 H 15.227 2.60115 -2.98591 0
M  V30 189 H 16.401 0.242455 -4.60162 0
M  V30 190 H 14.716 0.37691 -4.14691 0
M  V30 191 H 17.313 3.15292 -4.3185 0
M  V30 192 H 17.656 3.24447 -2.60845 0
M  V30 193 H 18.189 1.82156 -3.53644 0
M  V30 194 H 14.928 1.13896 -6.45529 0
M  V30 195 H 14.448 2.52022 -5.44284 0
M  V30 196 H 16.127 2.37364 -6.01887 0
M  V30 197 N 16.2591 1.48442 0.529413 0
M  V30 198 C 17.1691 1.6569 1.66084 0
M  V30 199 C 18.1851 0.539432 1.65427 0
M  V30 200 O 19.3611 0.810572 1.84368 0
M  V30 201 C 16.4261 1.69315 3.02545 0
M  V30 202 C 15.4871 2.92694 3.14052 0
M  V30 203 C 14.7201 2.96137 4.44003 0
M  V30 204 O 14.9431 2.07973 5.31134 0
M  V30 205 O 13.8771 3.88312 4.59888 0
M  V30 206 H 17.7031 2.61483 1.54469 0
M  V30 207 H 15.2881 1.3185 0.702567 0
M  V30 208 H 17.1701 1.74217 3.83701 0
M  V30 209 H 15.8451 0.766966 3.14483 0
M  V30 210 H 14.7521 2.93324 2.32189 0
M  V30 211 H 16.0851 3.84699 3.0703 0
M  V30 212 N 17.7372 -0.778329 1.37039 0
M  V30 213 C 18.6472 -1.92253 1.34446 0
M  V30 214 C 19.6632 -1.72267 0.244991 0
M  V30 215 O 20.8392 -1.95615 0.479258 0
M  V30 216 C 17.9042 -3.27282 1.144 0
M  V30 217 C 16.9652 -3.59969 2.33925 0
M  V30 218 C 16.1982 -4.88555 2.14825 0
M  V30 219 O 16.4212 -5.59113 1.12912 0
M  V30 220 O 15.3552 -5.20153 3.02861 0
M  V30 221 H 19.1812 -1.97392 2.30803 0
M  V30 222 H 16.7662 -0.920154 1.17701 0
M  V30 223 H 18.6482 -4.08062 1.05182 0
M  V30 224 H 17.3232 -3.23011 0.211124 0
M  V30 225 H 16.2302 -2.7945 2.48714 0
M  V30 226 H 17.5632 -3.68976 3.25757 0
M  V30 227 N 19.2153 -1.21501 -1.00376 0
M  V30 228 C 20.4433 -1.059 -1.77744 0
M  V30 229 C 20.8583 0.391125 -1.84704 0
M  V30 230 O 20.2153 1.27133 -1.30933 0
M  V30 231 C 20.2663 -1.65111 -3.21591 0
M  V30 232 O 19.9873 -3.0445 -3.15027 0
M  V30 233 C 21.4883 -1.54637 -4.15454 0
M  V30 234 H 18.7083 -0.371825 -0.558558 0
M  V30 235 H 21.2523 -1.60865 -1.26264 0
M  V30 236 H 19.4073 -1.14235 -3.70175 0
M  V30 237 H 19.8213 -3.3278 -4.0541 0
M  V30 238 H 21.2953 -2.00808 -5.14179 0
M  V30 239 H 21.7723 -0.501022 -4.36333 0
M  V30 240 H 22.3783 -2.04767 -3.72761 0
M  V30 241 N 20.6934 1.19889 -1.02296 0
M  V30 242 C 21.6234 2.25141 -0.619174 0
M  V30 243 C 22.6044 1.66051 0.368915 0
M  V30 244 O 23.7894 1.92546 0.252941 0
M  V30 245 C 20.9194 3.4728 0.0368783 0
M  V30 246 C 19.8734 4.19005 -0.872865 0
M  V30 247 C 19.1994 5.34637 -0.0822402 0
M  V30 248 C 20.4994 4.74452 -2.18387 0
M  V30 249 H 22.1934 2.59171 -1.49903 0
M  V30 250 H 19.7394 1.24579 -0.722222 0
M  V30 251 H 21.6924 4.20098 0.330958 0
M  V30 252 H 20.4164 3.12433 0.95149 0
M  V30 253 H 19.0754 3.48061 -1.15105 0
M  V30 254 H 18.7234 4.96034 0.83422 0
M  V30 255 H 18.4234 5.83557 -0.688149 0
M  V30 256 H 19.9474 6.10255 0.205238 0
M  V30 257 H 21.3614 5.39055 -1.95172 0
M  V30 258 H 19.7584 5.33834 -2.74119 0
M  V30 259 H 20.8284 3.92844 -2.84257 0
M  V30 260 N 22.1715 0.800033 1.35784 0
M  V30 261 C 23.1345 0.211565 2.28221 0
M  V30 262 C 24.1345 -0.59728 1.49296 0
M  V30 263 O 25.3245 -0.416721 1.69142 0
M  V30 264 C 22.4565 -0.705846 3.33513 0
M  V30 265 H 23.6495 1.02677 2.81776 0
M  V30 266 H 21.2025 0.570211 1.45528 0
M  V30 267 H 21.9375 -1.54498 2.85133 0
M  V30 268 H 21.7225 -0.127655 3.91892 0
M  V30 269 H 23.2125 -1.11211 4.02519 0
M  V30 270 N 23.6496 -1.47581 0.552962 0
M  V30 271 C 24.5796 -2.32762 -0.185451 0
M  V30 272 C 25.5606 -1.43527 -0.912905 0
M  V30 273 O 26.7456 -1.72388 -0.894201 0
M  V30 274 C 23.8756 -3.25219 -1.21859 0
M  V30 275 C 22.8296 -4.23661 -0.607864 0
M  V30 276 C 22.1556 -5.05413 -1.74533 0
M  V30 277 C 23.4556 -5.20481 0.435582 0
M  V30 278 H 25.1496 -2.94749 0.525684 0
M  V30 279 H 22.6956 -1.41738 0.254251 0
M  V30 280 H 24.6486 -3.8365 -1.7433 0
M  V30 281 H 23.3726 -2.61279 -1.95961 0
M  V30 282 H 22.0316 -3.66451 -0.104489 0
M  V30 283 H 21.6796 -4.3788 -2.47529 0
M  V30 284 H 21.3796 -5.72059 -1.34249 0
M  V30 285 H 22.9036 -5.66701 -2.27338 0
M  V30 286 H 24.3176 -5.733 -0.00290157 0
M  V30 287 H 22.7146 -5.95305 0.757067 0
M  V30 288 H 23.7846 -4.66217 1.33303 0
M  V30 289 N 25.1277 -0.289203 -1.54924 0
M  V30 290 C 26.0747 0.592115 -2.23075 0
M  V30 291 C 27.0447 1.13881 -1.20915 0
M  V30 292 O 28.2297 1.18551 -1.495 0
M  V30 293 C 25.3697 1.76376 -2.96623 0
M  V30 294 C 24.4827 1.24959 -4.13533 0
M  V30 295 C 23.6177 2.38416 -4.74691 0
M  V30 296 C 22.6567 1.84072 -5.83767 0
M  V30 297 N 21.7937 2.91057 -6.38929 0
M  V30 298 H 26.6337 0.00432038 -2.98 0
M  V30 299 H 24.1707 -0.00963529 -1.47097 0
M  V30 300 H 26.1287 2.45268 -3.3749 0
M  V30 301 H 24.7587 2.32337 -2.24097 0
M  V30 302 H 23.8107 0.453307 -3.77689 0
M  V30 303 H 25.1227 0.811662 -4.92152 0
M  V30 304 H 24.2767 3.15276 -5.18349 0
M  V30 305 H 23.0157 2.8553 -3.95378 0
M  V30 306 H 22.0207 1.05697 -5.39545 0
M  V30 307 H 23.2457 1.37877 -6.64956 0
M  V30 308 H 21.1917 3.37526 -5.62505 0
M  V30 309 H 21.1087 2.51724 -7.12861 0
M  V30 310 H 22.3767 3.6785 -6.87246 0
M  V30 311 N 26.6058 1.57591 -0.0167156 0
M  V30 312 C 27.8528 1.91283 0.664597 0
M  V30 313 C 28.1808 0.891949 1.72842 0
M  V30 314 O 27.4358 -0.100931 1.9544 0
M  V30 315 C 27.7348 3.3172 1.33029 0
M  V30 316 C 27.4008 4.4914 0.398047 0
M  V30 317 C 26.0628 4.80992 0.141421 0
M  V30 318 C 28.4148 5.20634 -0.242825 0
M  V30 319 C 25.7428 5.81703 -0.764092 0
M  V30 320 C 28.0948 6.22311 -1.13632 0
M  V30 321 C 26.7588 6.52611 -1.40196 0
M  V30 322 H 26.0288 0.699956 0.243193 0
M  V30 323 H 28.6758 1.9135 -0.0758267 0
M  V30 324 H 26.9808 3.27856 2.14517 0
M  V30 325 H 28.6778 3.55055 1.86379 0
M  V30 326 H 25.2678 4.24262 0.608238 0
M  V30 327 H 29.4518 4.96267 -0.0576019 0
M  V30 328 H 24.7078 6.03532 -0.977732 0
M  V30 329 H 28.8818 6.76834 -1.63917 0
M  V30 330 H 26.5088 7.30467 -2.10529 0
M  V30 331 N 28.0839 -0.256276 1.55502 0
M  V30 332 C 28.9939 -1.33882 1.92647 0
M  V30 333 C 30.0099 -1.53159 0.825727 0
M  V30 334 O 31.1859 -1.66963 1.12629 0
M  V30 335 C 28.2509 -2.6751 2.20543 0
M  V30 336 C 27.3119 -2.56836 3.43997 0
M  V30 337 C 26.5449 -3.84092 3.70553 0
M  V30 338 O 26.7679 -4.85545 2.99336 0
M  V30 339 O 25.7019 -3.83288 4.64084 0
M  V30 340 H 29.5279 -1.05374 2.84833 0
M  V30 341 H 27.1129 -0.456237 1.42263 0
M  V30 342 H 28.9949 -3.46492 2.39835 0
M  V30 343 H 27.6699 -2.9577 1.31536 0
M  V30 344 H 26.5769 -1.76172 3.30021 0
M  V30 345 H 27.9099 -2.33523 4.33275 0
M  V30 346 N 29.562 -1.4872 -0.521534 0
M  V30 347 C 30.51 -1.64328 -1.64618 0
M  V30 348 C 31.504 -0.50953 -1.61555 0
M  V30 349 O 32.71 -0.688525 -1.66311 0
M  V30 350 H 29.085 -0.517805 -0.545328 0
M  V30 351 H 31.056 -2.58767 -1.48601 0
M  V30 352 C 29.805 -1.70805 -3.02855 0
M  V30 353 H 29.128 -2.5741 -3.05909 0
M  V30 354 H 30.568 -1.85766 -3.81139 0
M  V30 355 C 29.027 -0.448479 -3.33902 0
M  V30 356 O 29.557 0.434928 -3.99339 0
M  V30 357 N 27.763 -0.317616 -2.88859 0
M  V30 358 H 27.31 -1.03748 -2.35784 0
M  V30 359 H 27.268 0.524113 -3.10001 0
M  V30 360 N 31.0401 0.771051 -1.3745 0
M  V30 361 C 32.0031 1.86598 -1.33093 0
M  V30 362 C 33.0031 1.59076 -0.234845 0
M  V30 363 O 34.1931 1.67145 -0.490732 0
M  V30 364 C 31.3251 3.23747 -1.06773 0
M  V30 365 H 32.5181 1.91873 -2.30488 0
M  V30 366 H 30.0711 0.970876 -1.2249 0
M  V30 367 H 30.8061 3.24148 -0.099129 0
M  V30 368 H 30.5911 3.45115 -1.86112 0
M  V30 369 H 32.0811 4.03824 -1.06377 0
M  V30 370 N 32.5182 1.22032 0.997298 0
M  V30 371 C 33.4812 0.987909 2.06816 0
M  V30 372 C 34.4812 -0.0440084 1.6074 0
M  V30 373 O 35.6712 0.194053 1.73116 0
M  V30 374 C 32.8032 0.49132 3.37341 0
M  V30 375 H 33.9962 1.93803 2.28868 0
M  V30 376 H 31.5492 1.03838 1.16822 0
M  V30 377 H 32.2842 -0.463364 3.20973 0
M  V30 378 H 32.0692 1.23575 3.72118 0
M  V30 379 H 33.5592 0.348824 4.16141 0
M  V30 380 N 33.9963 -1.19345 1.0293 0
M  V30 381 C 34.9593 -2.20793 0.615069 0
M  V30 382 C 35.9593 -1.57553 -0.321533 0
M  V30 383 O 37.1493 -1.73862 -0.108483 0
M  V30 384 C 34.2813 -3.40754 -0.0999222 0
M  V30 385 H 35.4743 -2.58955 1.51269 0
M  V30 386 H 33.0273 -1.3303 0.820534 0
M  V30 387 H 33.7623 -3.0811 -1.01187 0
M  V30 388 H 33.5473 -3.87889 0.57309 0
M  V30 389 H 35.0373 -4.15898 -0.376645 0
M  V30 390 N 35.4744 -0.807222 -1.35358 0
M  V30 391 C 36.7224 -0.387122 -1.98358 0
M  V30 392 C 37.0434 1.04942 -1.64354 0
M  V30 393 O 36.3134 1.72615 -0.926339 0
M  V30 394 H 34.8934 -0.140154 -0.733734 0
M  V30 395 H 37.5554 -1.0332 -1.6526 0
M  V30 396 H 36.6514 -0.493352 -3.08176 0
M  V30 397 N 36.9525 1.47285 -0.560781 0
M  V30 398 C 37.9005 2.31756 0.197942 0
M  V30 399 C 38.8945 1.43146 0.905854 0
M  V30 400 O 40.1005 1.59891 0.826733 0
M  V30 401 H 36.4755 0.747438 0.0827049 0
M  V30 402 H 38.4465 2.9359 -0.533629 0
M  V30 403 C 37.1955 3.25874 1.21249 0
M  V30 404 H 36.5185 3.94023 0.67719 0
M  V30 405 H 37.9585 3.87803 1.71419 0
M  V30 406 C 36.4175 2.49651 2.26221 0
M  V30 407 O 36.9475 2.24355 3.33208 0
M  V30 408 N 35.1535 2.10597 2.00243 0
M  V30 409 H 34.7005 2.31369 1.13252 0
M  V30 410 H 34.6585 1.59913 2.70694 0
M  V30 411 N 38.4306 0.297415 1.54768 0
M  V30 412 C 39.3776 -0.580276 2.23386 0
M  V30 413 C 40.3476 -1.13238 1.21517 0
M  V30 414 O 41.5326 -1.17757 1.50126 0
M  V30 415 C 38.6726 -1.74801 2.97555 0
M  V30 416 C 37.7856 -1.22764 4.1419 0
M  V30 417 C 36.9206 -2.35895 4.75949 0
M  V30 418 C 35.9596 -1.80974 5.84735 0
M  V30 419 N 35.0966 -2.87664 6.40464 0
M  V30 420 H 39.9366 0.0114833 2.97998 0
M  V30 421 H 37.4736 0.0174361 1.4709 0
M  V30 422 H 39.4316 -2.43475 3.38786 0
M  V30 423 H 38.0616 -2.31145 2.25326 0
M  V30 424 H 37.1136 -0.433271 3.77924 0
M  V30 425 H 38.4256 -0.785551 4.92575 0
M  V30 426 H 37.5796 -3.12523 5.20014 0
M  V30 427 H 36.3186 -2.83429 3.96887 0
M  V30 428 H 35.3236 -1.02834 5.40097 0
M  V30 429 H 36.5486 -1.34348 6.65678 0
M  V30 430 H 34.4946 -3.34538 5.64287 0
M  V30 431 H 34.4116 -2.4794 7.14186 0
M  V30 432 H 35.6796 -3.642 6.89187 0
M  V30 433 N 39.9087 -1.5758 0.0250728 0
M  V30 434 C 41.3197 -1.79476 -0.514323 0
M  V30 435 C 41.6707 -0.934956 -1.72491 0
M  V30 436 O 40.7957 -0.144245 -2.15919 0
M  V30 437 C 41.3907 -3.25503 -0.939842 0
M  V30 438 C 39.9497 -3.48408 -1.42438 0
M  V30 439 C 39.0967 -2.74583 -0.387201 0
M  V30 440 H 42.0477 -1.567 0.25113 0
M  V30 441 H 42.0687 -3.34992 -1.80445 0
M  V30 442 H 41.5807 -3.88056 -0.0585628 0
M  V30 443 H 39.6817 -2.91103 -2.32572 0
M  V30 444 H 39.7947 -4.57119 -1.43455 0
M  V30 445 H 38.1587 -2.39942 -0.854409 0
M  V30 446 H 38.9417 -3.39849 0.485543 0
M  V30 447 N 41.3868 0.248026 -1.55636 0
M  V30 448 C 42.2968 1.32859 -1.93354 0
M  V30 449 C 43.3128 1.52719 -0.833838 0
M  V30 450 O 44.4888 1.66363 -1.13513 0
M  V30 451 C 41.5538 2.66337 -2.21958 0
M  V30 452 C 40.6148 2.55008 -3.45354 0
M  V30 453 C 39.8478 3.82121 -3.72584 0
M  V30 454 O 40.0708 4.83951 -3.01907 0
M  V30 455 O 39.0048 3.80822 -4.6611 0
M  V30 456 H 42.8308 1.03862 -2.85388 0
M  V30 457 H 40.4158 0.448686 -1.42503 0
M  V30 458 H 42.2978 3.45216 -2.4167 0
M  V30 459 H 40.9728 2.95068 -1.33103 0
M  V30 460 H 39.8798 1.7442 -3.30951 0
M  V30 461 H 41.2128 2.31222 -4.34508 0
M  V30 462 N 42.8649 1.48995 0.513639 0
M  V30 463 C 43.8279 1.64229 1.59879 0
M  V30 464 C 44.8279 0.514696 1.5234 0
M  V30 465 O 46.0179 0.78087 1.55718 0
M  V30 466 C 43.1499 1.62783 2.99524 0
M  V30 467 H 44.3429 2.61004 1.47705 0
M  V30 468 H 41.8959 1.37837 0.736936 0
M  V30 469 H 42.6309 0.675461 3.17188 0
M  V30 470 H 42.4159 2.4466 3.06404 0
M  V30 471 H 43.9059 1.76669 3.78388 0
M  V30 472 N 44.343 -0.763751 1.37857 0
M  V30 473 C 45.589 -1.52483 1.33704 0
M  V30 474 C 45.922 -1.94051 -0.0759612 0
M  V30 475 O 45.197 -1.64675 -1.03501 0
M  V30 476 C 45.48 -2.78441 2.28348 0
M  V30 477 C 45.333 -2.43075 3.78463 0
M  V30 478 C 46.652 -3.80415 2.21298 0
M  V30 479 H 43.771 -0.553169 0.487005 0
M  V30 480 H 46.413 -0.875562 1.68624 0
M  V30 481 H 44.563 -3.33842 1.987 0
M  V30 482 H 46.235 -1.93527 4.18742 0
M  V30 483 H 44.478 -1.75666 3.96641 0
M  V30 484 H 45.149 -3.33149 4.40132 0
M  V30 485 H 47.625 -3.34527 2.47449 0
M  V30 486 H 46.501 -4.66257 2.89647 0
M  V30 487 H 46.762 -4.25262 1.20849 0
M  V30 488 N 45.8211 -1.22559 -0.990812 0
M  V30 489 C 46.7311 -1.01394 -2.11557 0
M  V30 490 C 47.7471 0.0383962 -1.73958 0
M  V30 491 O 48.9231 -0.154787 -2.00804 0
M  V30 492 C 45.9881 -0.596569 -3.41529 0
M  V30 493 C 45.0491 -1.72276 -3.93217 0
M  V30 494 C 44.2821 -1.32521 -5.16985 0
M  V30 495 O 44.5051 -0.204909 -5.70032 0
M  V30 496 O 43.4391 -2.14247 -5.62478 0
M  V30 497 H 47.2651 -1.95633 -2.32296 0
M  V30 498 H 44.8501 -1.01172 -1.0993 0
M  V30 499 H 46.7321 -0.374263 -4.19735 0
M  V30 500 H 45.4071 0.316939 -3.22145 0
M  V30 501 H 44.3141 -1.99961 -3.16174 0
M  V30 502 H 45.6471 -2.61421 -4.17037 0
M  V30 503 N 47.2992 1.18797 -1.03562 0
M  V30 504 C 48.5452 1.8893 -0.737113 0
M  V30 505 C 48.8782 1.79837 0.732956 0
M  V30 506 O 48.1532 1.19525 1.5344 0
M  V30 507 C 48.4362 3.39607 -1.19745 0
M  V30 508 C 48.2892 3.57537 -2.72924 0
M  V30 509 C 49.6082 4.33069 -0.783526 0
M  V30 510 H 46.7272 0.686057 -0.269249 0
M  V30 511 H 49.3692 1.39797 -1.28673 0
M  V30 512 H 47.5192 3.81583 -0.729855 0
M  V30 513 H 49.1912 3.24688 -3.27682 0
M  V30 514 H 47.4342 3.00363 -3.12993 0
M  V30 515 H 48.1052 4.63238 -3.00191 0
M  V30 516 H 50.5812 3.98846 -1.18581 0
M  V30 517 H 49.4572 5.3707 -1.13343 0
M  V30 518 H 49.7182 4.40986 0.313681 0
M  V30 519 N 48.7773 0.814389 1.34928 0
M  V30 520 C 50.0053 0.411136 2.02774 0
M  V30 521 C 50.4203 -0.980316 1.61354 0
M  V30 522 O 49.7773 -1.63299 0.814847 0
M  V30 523 C 49.8283 0.493865 3.58111 0
M  V30 524 O 49.5493 1.83047 3.98027 0
M  V30 525 C 51.0503 0.0844174 4.4322 0
M  V30 526 H 48.2703 0.166037 0.650133 0
M  V30 527 H 50.8143 1.10018 1.72384 0
M  V30 528 H 48.9693 -0.147006 3.87121 0
M  V30 529 H 49.3833 1.79872 4.92693 0
M  V30 530 H 50.8573 0.193404 5.51661 0
M  V30 531 H 51.3343 -0.97113 4.28329 0
M  V30 532 H 51.9403 0.69875 4.19521 0
M  V30 533 N 50.2554 -1.46986 0.568584 0
M  V30 534 C 51.5024 -2.02441 0.0487986 0
M  V30 535 C 51.8304 -1.44169 -1.30559 0
M  V30 536 O 51.0854 -0.591213 -1.86556 0
M  V30 537 C 51.3844 -3.57306 -0.081836 0
M  V30 538 C 51.0504 -4.34552 1.20313 0
M  V30 539 C 49.7124 -4.55376 1.5552 0
M  V30 540 C 52.0644 -4.79016 2.05411 0
M  V30 541 C 49.3924 -5.17913 2.7565 0
M  V30 542 C 51.7444 -5.42879 3.24754 0
M  V30 543 C 50.4084 -5.61933 3.60261 0
M  V30 544 H 49.6784 -0.740785 0.0178567 0
M  V30 545 H 52.3254 -1.76525 0.742384 0
M  V30 546 H 50.6304 -3.8228 -0.858463 0
M  V30 547 H 52.3274 -3.97876 -0.499546 0
M  V30 548 H 48.9174 -4.18631 0.919014 0
M  V30 549 H 53.1014 -4.62696 1.79516 0
M  V30 550 H 48.3574 -5.30858 3.03315 0
M  V30 551 H 52.5314 -5.76293 3.90973 0
M  V30 552 H 50.1584 -6.10161 4.53439 0
M  V30 553 N 51.7335 -0.305618 -1.54608 0
M  V30 554 C 52.6965 0.555591 -2.22364 0
M  V30 555 C 53.6965 1.05768 -1.21119 0
M  V30 556 O 54.8865 0.952972 -1.45822 0
M  V30 557 C 52.0185 1.76974 -2.91364 0
M  V30 558 H 53.2115 -0.0364572 -2.99878 0
M  V30 559 H 50.7645 -0.0565007 -1.56198 0
M  V30 560 H 51.4995 2.40151 -2.17941 0
M  V30 561 H 51.2845 1.41732 -3.65588 0
M  V30 562 H 52.7745 2.38148 -3.43038 0
M  V30 563 N 53.2116 1.57565 -0.0334293 0
M  V30 564 C 54.4886 1.83282 0.683163 0
M  V30 565 C 54.8686 0.91823 1.90084 0
M  V30 566 O 54.2166 -0.025113 2.28486 0
M  V30 567 C 54.4266 3.32599 1.0573 0
M  V30 568 C 55.7746 3.99179 1.44711 0
M  V30 569 O 56.7986 3.3712 1.15015 0
M  V30 570 O 55.6576 5.08565 2.0006 0
M  V30 571 H 52.7516 0.755869 0.335546 0
M  V30 572 H 55.2976 1.69589 -0.0614402 0
M  V30 573 H 54.0696 3.90834 0.190828 0
M  V30 574 H 53.6926 3.51415 1.85993 0
M  V30 575 N 54.6897 -0.239769 1.55765 0
M  V30 576 C 55.9367 -0.966801 1.7793 0
M  V30 577 C 56.2647 -1.85046 0.599015 0
M  V30 578 O 55.5197 -1.91197 -0.417395 0
M  V30 579 C 55.8187 -1.852 3.05672 0
M  V30 580 C 55.4847 -1.1231 4.36689 0
M  V30 581 C 54.1467 -0.921689 4.72291 0
M  V30 582 C 56.4987 -0.607019 5.17653 0
M  V30 583 C 53.8267 -0.191996 5.86386 0
M  V30 584 C 56.1787 0.109241 6.32506 0
M  V30 585 C 54.8427 0.322073 6.66723 0
M  V30 586 H 54.1127 -0.353778 0.651093 0
M  V30 587 H 56.7597 -0.23634 1.90036 0
M  V30 588 H 55.0647 -2.64975 2.8861 0
M  V30 589 H 56.7617 -2.41635 3.20021 0
M  V30 590 H 53.3517 -1.29004 4.08725 0
M  V30 591 H 57.5357 -0.750153 4.90598 0
M  V30 592 H 52.7917 -0.0166949 6.11398 0
M  V30 593 H 56.9657 0.516737 6.9448 0
M  V30 594 H 54.5927 0.88944 7.54979 0
M  V30 595 N 56.1678 -1.49265 -0.50573 0
M  V30 596 C 57.4448 -1.49012 -1.26707 0
M  V30 597 C 57.8248 -0.215205 -2.1 0
M  V30 598 O 57.1728 0.802547 -2.13943 0
M  V30 599 C 57.3828 -2.7663 -2.12783 0
M  V30 600 C 58.7308 -3.25932 -2.72127 0
M  V30 601 O 59.7548 -2.77715 -2.23054 0
M  V30 602 O 58.6138 -4.09897 -3.61451 0
M  V30 603 H 55.7078 -0.596197 -0.57313 0
M  V30 604 H 58.2538 -1.61524 -0.52039 0
M  V30 605 H 57.0258 -3.60916 -1.5118 0
M  V30 606 H 56.6488 -2.66956 -2.94653 0
M  V30 607 N 57.6459 0.756429 -1.3826 0
M  V30 608 C 58.8939 1.51248 -1.34047 0
M  V30 609 C 59.2149 1.94875 0.0698372 0
M  V30 610 O 58.4849 1.67436 1.01696 0
M  V30 611 H 57.0649 0.561018 -0.493222 0
M  V30 612 H 59.7269 0.899347 -1.7291 0
M  V30 613 H 58.8229 2.40472 -1.98947 0
M  V30 614 N 59.124 1.23083 0.984299 0
M  V30 615 C 60.37 1.06214 1.72761 0
M  V30 616 C 60.703 -0.400584 1.90024 0
M  V30 617 O 59.978 -1.29672 1.44967 0
M  V30 618 C 60.261 1.78375 3.12817 0
M  V30 619 C 60.114 3.32296 3.03149 0
M  V30 620 C 61.433 1.54309 4.12161 0
M  V30 621 H 58.552 0.387251 0.627061 0
M  V30 622 H 61.194 1.51536 1.14616 0
M  V30 623 H 59.344 1.39848 3.62457 0
M  V30 624 H 61.016 3.8032 2.61064 0
M  V30 625 H 59.259 3.6153 2.39747 0
M  V30 626 H 59.93 3.77972 4.02295 0
M  V30 627 H 62.406 1.87791 3.71314 0
M  V30 628 H 61.282 2.07281 5.08258 0
M  V30 629 H 61.543 0.477572 4.39513 0
M  V30 630 N 60.6021 -1.18246 1.0419 0
M  V30 631 C 61.5321 -2.24127 0.654914 0
M  V30 632 C 62.5131 -1.66617 -0.342451 0
M  V30 633 O 63.6981 -1.92924 -0.222277 0
M  V30 634 C 60.8281 -3.47295 0.0183757 0
M  V30 635 C 59.7821 -4.17563 0.939414 0
M  V30 636 C 59.1081 -5.34438 0.167286 0
M  V30 637 C 60.4081 -4.70917 2.25908 0
M  V30 638 H 62.1021 -2.56753 1.54007 0
M  V30 639 H 59.6481 -1.23414 0.74195 0
M  V30 640 H 61.6011 -4.20572 -0.264082 0
M  V30 641 H 60.3251 -3.13907 -0.901664 0
M  V30 642 H 58.9841 -3.46186 1.20628 0
M  V30 643 H 58.6321 -4.97298 -0.7552 0
M  V30 644 H 58.3321 -5.82388 0.780901 0
M  V30 645 H 59.8561 -6.10504 -0.108125 0
M  V30 646 H 61.2701 -5.35882 2.03724 0
M  V30 647 H 59.6671 -5.29406 2.82577 0
M  V30 648 H 60.7371 -3.88272 2.9047 0
M  V30 649 N 62.0802 -0.821533 -1.34494 0
M  V30 650 C 63.3102 -0.421272 -2.02259 0
M  V30 651 C 63.7182 0.977047 -1.6202 0
M  V30 652 O 63.0612 1.64348 -0.820703 0
M  V30 653 C 63.1232 -0.44231 -3.56769 0
M  V30 654 C 62.7872 -1.79372 -4.20327 0
M  V30 655 C 63.7842 -2.75435 -4.40944 0
M  V30 656 C 61.4692 -2.08182 -4.57127 0
M  V30 657 C 63.4632 -3.98482 -4.97484 0
M  V30 658 C 61.1502 -3.31489 -5.13379 0
M  V30 659 C 62.1482 -4.26457 -5.33501 0
M  V30 660 O 61.8362 -5.47585 -5.88562 0
M  V30 661 H 61.5682 -0.167473 -0.654927 0
M  V30 662 H 64.1222 -1.11073 -1.72777 0
M  V30 663 H 62.3522 0.303836 -3.85505 0
M  V30 664 H 64.0412 -0.0622925 -4.05852 0
M  V30 665 H 64.8072 -2.54473 -4.12878 0
M  V30 666 H 60.6862 -1.35066 -4.4077 0
M  V30 667 H 64.2302 -4.72618 -5.13106 0
M  V30 668 H 60.1272 -3.52316 -5.40873 0
M  V30 669 H 60.8952 -5.49086 -6.06998 0
M  V30 670 N 63.5583 1.46682 -0.576371 0
M  V30 671 C 64.5083 2.27278 0.181288 0
M  V30 672 C 65.4923 1.35497 0.867721 0
M  V30 673 O 66.6843 1.59717 0.762863 0
M  V30 674 C 63.8133 3.21703 1.19841 0
M  V30 675 C 62.8993 4.20969 0.51442 0
M  V30 676 N 63.2903 5.03999 -0.426407 0
M  V30 677 C 61.5883 4.39373 0.765963 0
M  V30 678 C 62.2893 5.75812 -0.825565 0
M  V30 679 N 61.2653 5.43315 -0.176116 0
M  V30 680 H 65.0673 2.88863 -0.541785 0
M  V30 681 H 62.5813 1.57455 -0.397697 0
M  V30 682 H 64.5783 3.78145 1.75533 0
M  V30 683 H 63.2383 2.61677 1.92238 0
M  V30 684 H 64.2493 5.11659 -0.8016 0
M  V30 685 H 60.9263 3.90502 1.47698 0
M  V30 686 H 62.3163 6.52577 -1.59976 0
M  V30 687 N 65.0364 0.313813 1.54444 0
M  V30 688 C 66.2854 -0.292519 1.99568 0
M  V30 689 C 66.5984 -1.54011 1.20582 0
M  V30 690 O 67.8044 -2.22183 1.56035 0
M  V30 691 C 66.2604 -0.571752 3.55329 0
M  V30 692 C 65.8684 0.658229 4.43138 0
M  V30 693 C 67.6124 -1.13857 4.08946 0
M  V30 694 C 65.5194 0.351439 5.90355 0
M  V30 695 H 64.4494 -0.113079 0.745472 0
M  V30 696 H 67.1004 0.424518 1.78522 0
M  V30 697 H 65.4824 -1.34872 3.72325 0
M  V30 698 H 66.6564 1.43403 4.37918 0
M  V30 699 H 64.9714 1.14458 4.0036 0
M  V30 700 H 67.5684 -1.38257 5.16516 0
M  V30 701 H 67.9114 -2.08489 3.6033 0
M  V30 702 H 68.4444 -0.423015 3.95544 0
M  V30 703 H 65.1834 1.26667 6.43145 0
M  V30 704 H 64.7034 -0.386842 5.98551 0
M  V30 705 H 66.3824 -0.0423134 6.46986 0
M  V30 706 N 66.5145 -1.57545 0.0417849 0
M  V30 707 C 67.7395 -1.97035 -0.647455 0
M  V30 708 C 68.1645 -0.918775 -1.64135 0
M  V30 709 O 67.5225 0.119006 -1.80909 0
M  V30 710 C 67.5705 -3.35609 -1.31905 0
M  V30 711 O 66.6745 -3.3287 -2.43457 0
M  V30 712 H 66.0155 -0.64211 -0.169086 0
M  V30 713 H 68.5455 -2.04318 0.107399 0
M  V30 714 H 68.5555 -3.72126 -1.67291 0
M  V30 715 H 67.2305 -4.11685 -0.590586 0
M  V30 716 H 65.8075 -3.08087 -2.10088 0
M  V30 717 N 67.9926 0.231505 -1.5589 0
M  V30 718 C 68.9406 1.30649 -1.92441 0
M  V30 719 C 69.9346 1.49037 -0.805254 0
M  V30 720 O 71.1406 1.50329 -0.990007 0
M  V30 721 H 67.5156 0.437812 -0.611412 0
M  V30 722 H 69.4866 0.970973 -2.82161 0
M  V30 723 C 68.2356 2.65179 -2.24889 0
M  V30 724 H 67.5586 2.51835 -3.10514 0
M  V30 725 H 68.9986 3.39234 -2.54355 0
M  V30 726 C 67.4576 3.19439 -1.07054 0
M  V30 727 O 67.9876 4.00371 -0.326499 0
M  V30 728 N 66.1936 2.77675 -0.85703 0
M  V30 729 H 65.7406 2.11969 -1.46379 0
M  V30 730 H 65.6986 3.14321 -0.0703223 0
M  V30 731 N 69.4707 1.49531 0.497807 0
M  V30 732 C 70.8817 1.52344 1.07927 0
M  V30 733 C 71.2327 0.311469 1.93712 0
M  V30 734 O 70.3577 -0.578405 2.08527 0
M  V30 735 C 70.9527 2.76062 1.96405 0
M  V30 736 C 69.5117 2.81643 2.49709 0
M  V30 737 C 68.6587 2.46299 1.27404 0
M  V30 738 H 71.6097 1.56182 0.281576 0
M  V30 739 H 71.6307 2.56405 2.81135 0
M  V30 740 H 71.1427 3.64254 1.33943 0
M  V30 741 H 69.2437 1.97739 3.15801 0
M  V30 742 H 69.3567 3.83891 2.86643 0
M  V30 743 H 67.7207 1.98148 1.60029 0
M  V30 744 H 68.5037 3.36769 0.66645 0
M  V30 745 N 70.9488 -0.749086 1.3866 0
M  V30 746 C 71.8968 -1.88428 1.36373 0
M  V30 747 C 72.8908 -1.67561 0.248929 0
M  V30 748 O 74.0968 -1.75074 0.41821 0
M  V30 749 H 70.4718 -0.620023 0.42553 0
M  V30 750 H 72.4428 -1.87473 2.32156 0
M  V30 751 C 71.1918 -3.25961 1.21014 0
M  V30 752 H 70.5148 -3.42607 2.06059 0
M  V30 753 H 71.9548 -4.05625 1.23469 0
M  V30 754 C 70.4138 -3.36799 -0.0825941 0
M  V30 755 O 70.9438 -3.87517 -1.05797 0
M  V30 756 N 69.1498 -2.90258 -0.140939 0
M  V30 757 H 68.6968 -2.49174 0.653477 0
M  V30 758 H 68.6548 -2.97889 -1.00545 0
M  V30 759 N 72.4269 -1.23603 -0.977757 0
M  V30 760 C 73.6749 -1.06759 -1.71601 0
M  V30 761 C 73.9959 0.395929 -1.90938 0
M  V30 762 O 73.2659 1.28356 -1.47992 0
M  V30 763 H 71.8459 -0.392062 -0.635843 0
M  V30 764 H 74.5079 -1.55362 -1.1768 0
M  V30 765 H 73.6039 -1.55763 -2.70452 0
M  V30 766 N 73.905 1.17692 -1.04816 0
M  V30 767 C 75.182 1.83768 -0.669963 0
M  V30 768 C 75.562 1.93232 0.849986 0
M  V30 769 O 74.91 1.46397 1.75443 0
M  V30 770 C 75.12 3.21641 -1.35455 0
M  V30 771 C 76.468 3.97592 -1.49017 0
M  V30 772 O 77.492 3.31107 -1.31326 0
M  V30 773 O 76.351 5.16729 -1.77914 0
M  V30 774 H 73.445 0.792799 -0.235368 0
M  V30 775 H 75.991 1.25021 -1.14751 0
M  V30 776 H 74.763 3.097 -2.39168 0
M  V30 777 H 74.386 3.88052 -0.866107 0
M  V30 778 N 75.3831 0.828654 1.34056 0
M  V30 779 C 76.3301 0.252567 2.29414 0
M  V30 780 C 77.3001 -0.62588 1.53857 0
M  V30 781 O 78.4851 -0.566312 1.82202 0
M  V30 782 C 75.6251 -0.574831 3.40279 0
M  V30 783 C 74.7381 0.326499 4.30764 0
M  V30 784 C 73.8731 -0.511016 5.28736 0
M  V30 785 C 72.9121 0.389342 6.1086 0
M  V30 786 N 72.0491 -0.409439 7.00905 0
M  V30 787 H 76.8891 1.07108 2.78086 0
M  V30 788 H 74.4261 0.539677 1.36843 0
M  V30 789 H 76.3841 -1.06992 4.03248 0
M  V30 790 H 75.0141 -1.35841 2.92826 0
M  V30 791 H 74.0661 0.939837 3.68607 0
M  V30 792 H 75.3781 1.01857 4.88289 0
M  V30 793 H 74.5321 -1.07035 5.97184 0
M  V30 794 H 73.2711 -1.23657 4.71763 0
M  V30 795 H 72.2761 0.960769 5.4134 0
M  V30 796 H 73.5011 1.1131 6.69916 0
M  V30 797 H 71.4471 -1.11856 6.46393 0
M  V30 798 H 71.3641 0.224126 7.55668 0
M  V30 799 H 72.6321 -0.951336 7.73673 0
M  V30 800 N 76.8612 -1.46375 0.584142 0
M  V30 801 C 78.0892 -2.06761 0.0759296 0
M  V30 802 C 78.5042 -1.43266 -1.22965 0
M  V30 803 O 77.8612 -0.538458 -1.74376 0
M  V30 804 C 77.9122 -3.61375 -0.0950384 0
M  V30 805 O 77.6332 -4.22495 1.15887 0
M  V30 806 C 79.1342 -4.38693 -0.637434 0
M  V30 807 H 76.3542 -0.668479 0.0581075 0
M  V30 808 H 78.8982 -1.8798 0.805218 0
M  V30 809 H 77.0532 -3.79578 -0.774554 0
M  V30 810 H 77.4672 -5.15385 0.973598 0
M  V30 811 H 78.9412 -5.47464 -0.706237 0
M  V30 812 H 79.4182 -4.06836 -1.65472 0
M  V30 813 H 80.0242 -4.25299 0.00725967 0
M  V30 814 N 78.3393 -0.321999 -1.54275 0
M  V30 815 C 79.2863 0.544664 -2.24281 0
M  V30 816 C 80.2563 1.1129 -1.23303 0
M  V30 817 O 81.4413 1.15354 -1.51981 0
M  V30 818 C 78.5813 1.70045 -3.00298 0
M  V30 819 C 77.6943 1.16159 -4.1609 0
M  V30 820 C 76.8293 2.28293 -4.79641 0
M  V30 821 C 75.8683 1.71648 -5.8754 0
M  V30 822 N 75.0053 2.77438 -6.44959 0
M  V30 823 H 79.8453 -0.0588907 -2.97942 0
M  V30 824 H 77.3823 -0.0408345 -1.47043 0
M  V30 825 H 79.3403 2.38054 -3.42616 0
M  V30 826 H 77.9703 2.27531 -2.28975 0
M  V30 827 H 77.0223 0.373092 -3.78566 0
M  V30 828 H 78.3343 0.707087 -4.93763 0
M  V30 829 H 77.4883 3.0421 -5.2492 0
M  V30 830 H 76.2273 2.77079 -4.01346 0
M  V30 831 H 75.2323 0.942282 -5.41665 0
M  V30 832 H 76.4573 1.23741 -6.67731 0
M  V30 833 H 74.4033 3.25519 -5.69538 0
M  V30 834 H 74.3203 2.36547 -7.1804 0
M  V30 835 H 75.5883 3.53189 -6.94894 0
M  V30 836 N 79.8174 1.5752 -0.0501392 0
M  V30 837 C 81.0634 1.92936 0.624798 0
M  V30 838 C 81.3964 0.928685 1.70555 0
M  V30 839 O 80.6714 -0.0454779 1.94447 0
M  V30 840 C 80.9544 3.38737 1.22185 0
M  V30 841 C 80.8074 4.49552 0.149218 0
M  V30 842 C 82.1264 3.84913 2.13378 0
M  V30 843 H 79.2454 0.701604 0.225657 0
M  V30 844 H 81.8874 1.89671 -0.111693 0
M  V30 845 H 80.0374 3.4165 1.84953 0
M  V30 846 H 81.7094 4.58768 -0.482648 0
M  V30 847 H 79.9524 4.30638 -0.522841 0
M  V30 848 H 80.6234 5.48653 0.606966 0
M  V30 849 H 83.0994 3.8387 1.60572 0
M  V30 850 H 81.9754 4.87584 2.52097 0
M  V30 851 H 82.2364 3.21611 3.03346 0
M  V30 852 N 81.2955 -0.223234 1.56011 0
M  V30 853 C 82.2285 -1.30377 1.87289 0
M  V30 854 C 83.2065 -1.45286 0.730112 0
M  V30 855 O 84.3905 -1.61126 0.978302 0
M  V30 856 C 81.5175 -2.67431 2.07843 0
M  V30 857 C 80.5635 -2.69546 3.30526 0
M  V30 858 S 81.3965 -2.23781 4.865 0
M  V30 859 C 82.5525 -3.62714 5.10088 0
M  V30 860 H 82.7855 -1.03652 2.78646 0
M  V30 861 H 80.3185 -0.425393 1.48424 0
M  V30 862 H 82.2765 -3.46336 2.20368 0
M  V30 863 H 80.9375 -2.91381 1.17285 0
M  V30 864 H 80.1305 -3.70255 3.41947 0
M  V30 865 H 79.7325 -1.98703 3.16849 0
M  V30 866 H 82.0245 -4.58391 4.98883 0
M  V30 867 H 82.9675 -3.5621 6.11981 0
M  V30 868 H 83.3755 -3.56323 4.37829 0
M  V30 869 N 82.7736 -1.49793 -0.48987 0
M  V30 870 C 84.0196 -1.60078 -1.24511 0
M  V30 871 C 84.3526 -0.291608 -1.91998 0
M  V30 872 O 83.6276 0.705647 -1.81248 0
M  V30 873 C 83.9106 -2.76791 -2.30345 0
M  V30 874 C 83.7636 -4.17535 -1.67286 0
M  V30 875 C 85.0826 -2.89111 -3.31817 0
M  V30 876 H 82.2016 -0.582645 -0.451324 0
M  V30 877 H 84.8436 -1.82117 -0.541612 0
M  V30 878 H 82.9936 -2.5813 -2.90346 0
M  V30 879 H 84.6656 -4.4774 -1.11026 0
M  V30 880 H 82.9086 -4.22665 -0.976577 0
M  V30 881 H 83.5796 -4.95094 -2.44103 0
M  V30 882 H 86.0556 -3.06133 -2.81819 0
M  V30 883 H 84.9316 -3.72433 -4.03219 0
M  V30 884 H 85.1926 -1.9893 -3.94815 0
M  V30 885 N 84.2517 0.741722 -1.39055 0
M  V30 886 C 85.4767 1.53607 -1.39354 0
M  V30 887 C 85.9017 1.88096 0.0116905 0
M  V30 888 O 85.2597 1.5143 0.996924 0
M  V30 889 C 85.3077 2.80441 -2.26682 0
M  V30 890 O 84.4117 3.76088 -1.69208 0
M  V30 891 H 83.7527 0.464142 -0.474835 0
M  V30 892 H 86.2827 0.915665 -1.82967 0
M  V30 893 H 86.2927 3.29246 -2.40959 0
M  V30 894 H 84.9677 2.5467 -3.2881 0
M  V30 895 H 83.5447 3.34833 -1.64138 0
M  V30 896 N 85.7298 1.2412 0.971189 0
M  V30 897 C 86.9788 1.07284 1.70801 0
M  V30 898 C 87.2918 -0.388902 1.91695 0
M  V30 899 O 88.4978 -0.677379 2.62914 0
M  V30 900 C 86.9538 1.87145 3.07416 0
M  V30 901 C 86.5618 3.37707 2.94377 0
M  V30 902 C 88.3058 1.78828 3.84995 0
M  V30 903 C 86.2128 4.09925 4.26281 0
M  V30 904 H 85.1428 0.397854 0.64049 0
M  V30 905 H 87.7938 1.4817 1.0825 0
M  V30 906 H 86.1758 1.39071 3.70777 0
M  V30 907 H 87.3498 3.93335 2.4005 0
M  V30 908 H 85.6648 3.46938 2.30267 0
M  V30 909 H 88.2618 2.30089 4.82662 0
M  V30 910 H 88.6048 0.75284 4.09436 0
M  V30 911 H 89.1378 2.24563 3.28354 0
M  V30 912 H 85.8768 5.13813 4.07033 0
M  V30 913 H 85.3968 3.59083 4.80437 0
M  V30 914 H 87.0758 4.1673 4.94919 0
M  V30 915 N 87.2079 -1.17134 1.05439 0
M  V30 916 C 88.4329 -1.91913 0.786396 0
M  V30 917 C 88.8579 -1.7643 -0.652234 0
M  V30 918 O 88.2159 -1.08372 -1.45345 0
M  V30 919 C 88.2639 -3.40921 1.17497 0
M  V30 920 O 87.3679 -4.11244 0.308589 0
M  V30 921 H 86.7089 -0.598215 0.288158 0
M  V30 922 H 89.2389 -1.48457 1.4079 0
M  V30 923 H 89.2489 -3.91668 1.14281 0
M  V30 924 H 87.9239 -3.5151 2.22292 0
M  V30 925 H 86.5009 -3.70731 0.40157 0
M  V30 926 N 88.686 -0.835752 -1.33615 0
M  V30 927 C 89.616 -0.281739 -2.31794 0
M  V30 928 C 90.597 0.608833 -1.58831 0
M  V30 929 O 91.782 0.533035 -1.86741 0
M  V30 930 C 88.912 0.546612 -3.42971 0
M  V30 931 C 87.866 -0.247904 -4.27281 0
M  V30 932 C 87.192 0.704001 -5.30045 0
M  V30 933 C 88.492 -1.46324 -5.01385 0
M  V30 934 H 90.186 -1.10206 -2.78379 0
M  V30 935 H 87.732 -0.531388 -1.33837 0
M  V30 936 H 89.685 0.944467 -4.1068 0
M  V30 937 H 88.409 1.40011 -2.95067 0
M  V30 938 H 87.068 -0.627281 -3.61194 0
M  V30 939 H 86.716 1.55381 -4.78399 0
M  V30 940 H 86.416 0.176524 -5.87335 0
M  V30 941 H 87.94 1.09944 -6.0062 0
M  V30 942 H 89.354 -1.13871 -5.61877 0
M  V30 943 H 87.751 -1.92728 -5.6831 0
M  V30 944 H 88.821 -2.23467 -4.30338 0
M  V30 945 N 90.1641 1.46063 -0.591896 0
M  V30 946 C 91.1111 2.30399 0.136069 0
M  V30 947 C 92.0811 1.41169 0.875238 0
M  V30 948 O 93.2661 1.70112 0.86409 0
M  V30 949 C 90.4061 3.25804 1.13781 0
M  V30 950 C 89.5191 4.30134 0.401137 0
M  V30 951 C 88.6541 5.12659 1.39121 0
M  V30 952 C 87.6931 6.0873 0.641462 0
M  V30 953 N 86.8301 6.8409 1.58004 0
M  V30 954 H 91.6701 2.92118 -0.589144 0
M  V30 955 H 89.2071 1.43959 -0.302342 0
M  V30 956 H 91.1651 3.79569 1.73156 0
M  V30 957 H 89.7951 2.65872 1.83062 0
M  V30 958 H 88.8471 3.79152 -0.307826 0
M  V30 959 H 90.1591 4.98458 -0.184565 0
M  V30 960 H 89.3131 5.70747 2.05749 0
M  V30 961 H 88.0521 4.44316 2.01084 0
M  V30 962 H 87.0571 5.49786 -0.0385419 0
M  V30 963 H 88.2821 6.79095 0.0270945 0
M  V30 964 H 86.2281 6.18449 2.18761 0
M  V30 965 H 86.1451 7.48709 1.04738 0
M  V30 966 H 87.4131 7.4673 2.23639 0
M  V30 967 N 91.6422 0.330177 1.54103 0
M  V30 968 C 92.8892 -0.270405 2.00686 0
M  V30 969 C 93.2172 -1.51621 1.21825 0
M  V30 970 O 92.4722 -1.93536 0.29025 0
M  V30 971 C 92.7712 -0.643134 3.51566 0
M  V30 972 C 92.4372 0.504251 4.48072 0
M  V30 973 C 91.0992 0.819163 4.74176 0
M  V30 974 C 93.4512 1.27465 5.05373 0
M  V30 975 C 90.7792 1.90708 5.5484 0
M  V30 976 C 93.1312 2.35271 5.87223 0
M  V30 977 C 91.7952 2.67336 6.11627 0
M  V30 978 H 91.0652 -0.0989482 0.734364 0
M  V30 979 H 93.7122 0.455324 1.86008 0
M  V30 980 H 92.0172 -1.44938 3.64006 0
M  V30 981 H 93.7142 -1.11949 3.85056 0
M  V30 982 H 90.3042 0.248733 4.27878 0
M  V30 983 H 94.4882 1.04462 4.85182 0
M  V30 984 H 89.7442 2.15991 5.71977 0
M  V30 985 H 93.9182 2.95405 6.30641 0
M  V30 986 H 91.5452 3.51763 6.73919 0
M  V30 987 N 93.1203 -1.57491 0.0584922 0
M  V30 988 C 94.3503 -1.9701 -0.622134 0
M  V30 989 C 94.7583 -0.935034 -1.6448 0
M  V30 990 O 94.1013 0.0882904 -1.83488 0
M  V30 991 C 94.1633 -3.32794 -1.35972 0
M  V30 992 C 93.8273 -4.54343 -0.492043 0
M  V30 993 C 94.8243 -5.19323 0.244901 0
M  V30 994 C 92.5093 -5.00534 -0.420821 0
M  V30 995 C 94.5033 -6.28835 1.04143 0
M  V30 996 C 92.1903 -6.09921 0.379389 0
M  V30 997 C 93.1883 -6.73933 1.10919 0
M  V30 998 O 92.8763 -7.81216 1.89623 0
M  V30 999 H 92.6083 -0.653127 -0.174359 0
M  V30 1000 H 95.1623 -2.05029 0.123418 0
M  V30 1001 H 93.3923 -3.21351 -2.15105 0
M  V30 1002 H 95.0813 -3.5701 -1.93129 0
M  V30 1003 H 95.8473 -4.8459 0.19939 0
M  V30 1004 H 91.7263 -4.50496 -0.978474 0
M  V30 1005 H 95.2703 -6.7873 1.61157 0
M  V30 1006 H 91.1673 -6.44089 0.426512 0
M  V30 1007 H 91.9353 -7.98029 1.81913 0
M  V30 1008 N 94.5984 0.214957 -1.56127 0
M  V30 1009 C 95.5454 1.26642 -1.92952 0
M  V30 1010 C 96.5154 1.46244 -0.78753 0
M  V30 1011 O 97.7004 1.59704 -1.04399 0
M  V30 1012 C 94.8404 2.6104 -2.25726 0
M  V30 1013 C 93.9534 2.49183 -3.52891 0
M  V30 1014 C 93.0884 3.76149 -3.7508 0
M  V30 1015 C 92.1274 3.59041 -4.95738 0
M  V30 1016 N 91.2644 4.77972 -5.14283 0
M  V30 1017 H 96.1044 0.945384 -2.82607 0
M  V30 1018 H 93.6414 0.455489 -1.3987 0
M  V30 1019 H 95.5994 3.39313 -2.42739 0
M  V30 1020 H 94.2294 2.91227 -1.39236 0
M  V30 1021 H 93.2814 1.6231 -3.44034 0
M  V30 1022 H 94.5934 2.32466 -4.41318 0
M  V30 1023 H 93.7474 4.62865 -3.92226 0
M  V30 1024 H 92.4864 3.95799 -2.84947 0
M  V30 1025 H 91.4914 2.7071 -4.78535 0
M  V30 1026 H 92.7164 3.40856 -5.87362 0
M  V30 1027 H 90.6624 4.97923 -4.27093 0
M  V30 1028 H 90.5794 4.64006 -5.96853 0
M  V30 1029 H 91.8474 5.66096 -5.35869 0
M  V30 1030 N 96.0765 1.50051 0.48192 0
M  V30 1031 C 96.9865 1.7089 1.60728 0
M  V30 1032 C 98.0025 0.591788 1.63627 0
M  V30 1033 O 99.1785 0.868817 1.81696 0
M  V30 1034 C 96.2435 1.78855 2.97005 0
M  V30 1035 C 95.3045 3.02537 3.04581 0
M  V30 1036 C 94.5375 3.10112 4.34357 0
M  V30 1037 O 94.7605 2.24765 5.24249 0
M  V30 1038 O 93.6945 4.02747 4.47301 0
M  V30 1039 H 97.5205 2.66264 1.46072 0
M  V30 1040 H 95.1055 1.34018 0.660264 0
M  V30 1041 H 96.9875 1.86336 3.77964 0
M  V30 1042 H 95.6625 0.866628 3.11883 0
M  V30 1043 H 94.5695 3.00563 2.22739 0
M  V30 1044 H 95.9025 3.94272 2.94636 0
M  V30 1045 N 97.5546 -0.734337 1.39446 0
M  V30 1046 C 98.4846 -1.86155 1.40955 0
M  V30 1047 C 99.4656 -1.67898 0.272827 0
M  V30 1048 O 100.651 -1.88207 0.478743 0
M  V30 1049 C 97.7806 -3.23912 1.25294 0
M  V30 1050 C 96.7346 -3.56808 2.36373 0
M  V30 1051 C 96.0606 -4.93508 2.058 0
M  V30 1052 C 97.3606 -3.59713 3.78687 0
M  V30 1053 H 99.0546 -1.8515 2.35287 0
M  V30 1054 H 96.6006 -0.889367 1.13253 0
M  V30 1055 H 98.5536 -4.02443 1.2497 0
M  V30 1056 H 97.2776 -3.25446 0.274308 0
M  V30 1057 H 95.9366 -2.80606 2.35914 0
M  V30 1058 H 95.5846 -4.91623 1.06374 0
M  V30 1059 H 95.2846 -5.16486 2.80208 0
M  V30 1060 H 96.8086 -5.74396 2.07128 0
M  V30 1061 H 98.2226 -4.2832 3.81071 0
M  V30 1062 H 96.6196 -3.94209 4.52459 0
M  V30 1063 H 97.6896 -2.59504 4.09617 0
M  V30 1064 N 99.0327 -1.24633 -0.964593 0
M  V30 1065 C 99.9647 -0.999302 -2.06268 0
M  V30 1066 C 100.978 0.0323226 -1.62768 0
M  V30 1067 O 102.167 -0.205079 -1.77318 0
M  V30 1068 C 99.2667 -0.486816 -3.35385 0
M  V30 1069 C 98.4397 -1.5823 -4.07777 0
M  V30 1070 C 97.4987 -1.07191 -5.15166 0
M  V30 1071 O 96.5247 -1.76426 -5.41168 0
M  V30 1072 N 97.7267 0.0920373 -5.80427 0
M  V30 1073 H 100.492 -1.94477 -2.28033 0
M  V30 1074 H 98.0527 -1.15704 -1.13244 0
M  V30 1075 H 100.045 -0.130066 -4.04491 0
M  V30 1076 H 98.6147 0.364459 -3.10468 0
M  V30 1077 H 97.8347 -2.11109 -3.32906 0
M  V30 1078 H 99.1227 -2.31854 -4.52903 0
M  V30 1079 H 98.5207 0.670784 -5.61709 0
M  V30 1080 H 97.0777 0.389905 -6.50633 0
M  V30 1081 N 100.511 1.16574 -1.06058 0
M  V30 1082 C 101.474 2.19085 -0.673392 0
M  V30 1083 C 102.474 1.5835 0.279648 0
M  V30 1084 O 103.664 1.74088 0.0623488 0
M  V30 1085 C 100.796 3.40899 0.00954234 0
M  V30 1086 H 101.989 2.54853 -1.58081 0
M  V30 1087 H 99.5418 1.30808 -0.855516 0
M  V30 1088 H 100.277 3.10684 0.929826 0
M  V30 1089 H 100.062 3.86233 -0.67573 0
M  V30 1090 H 101.552 4.1675 0.266245 0
M  V30 1091 N 101.989 0.842826 1.3317 0
M  V30 1092 C 102.939 0.250877 2.26616 0
M  V30 1093 C 103.923 -0.596427 1.49437 0
M  V30 1094 O 105.115 -0.447747 1.71243 0
M  V30 1095 C 102.244 -0.569779 3.38539 0
M  V30 1096 C 101.33 0.289254 4.23112 0
M  V30 1097 N 101.721 1.36987 4.86897 0
M  V30 1098 C 100.019 0.0769631 4.45934 0
M  V30 1099 C 100.72 1.89737 5.49886 0
M  V30 1100 N 99.6959 1.19827 5.30229 0
M  V30 1101 H 103.498 1.07718 2.73448 0
M  V30 1102 H 101.012 0.687693 1.47121 0
M  V30 1103 H 103.009 -1.01018 4.04476 0
M  V30 1104 H 101.669 -1.39401 2.93253 0
M  V30 1105 H 102.68 1.75277 4.87338 0
M  V30 1106 H 99.3569 -0.713507 4.11358 0
M  V30 1107 H 100.747 2.80253 6.10662 0
M  V30 1108 N 103.467 -1.45747 0.599634 0
M  V30 1109 C 104.715 -2.01893 0.0915472 0
M  V30 1110 C 105.036 -1.47155 -1.27946 0
M  V30 1111 O 104.306 -0.66273 -1.84349 0
M  V30 1112 H 102.886 -0.746363 0.0308524 0
M  V30 1113 H 105.548 -1.78645 0.779237 0
M  V30 1114 H 104.644 -3.1208 0.0353086 0
M  V30 1115 N 104.945 -0.338344 -1.53925 0
M  V30 1116 C 105.908 0.508299 -2.23493 0
M  V30 1117 C 106.908 1.03175 -1.23335 0
M  V30 1118 O 108.098 0.921826 -1.47811 0
M  V30 1119 C 105.23 1.70754 -2.95052 0
M  V30 1120 H 106.423 -0.100058 -2.99733 0
M  V30 1121 H 103.976 -0.0896198 -1.56043 0
M  V30 1122 H 104.711 2.35474 -2.22986 0
M  V30 1123 H 104.496 1.33946 -3.68512 0
M  V30 1124 H 105.986 2.30818 -3.48013 0
M  V30 1125 N 106.423 1.57458 -0.0668435 0
M  V30 1126 C 107.7 1.8469 0.644132 0
M  V30 1127 C 108.08 0.958343 1.88093 0
M  V30 1128 O 107.428 0.0233579 2.28488 0
M  V30 1129 C 107.638 3.34767 0.986509 0
M  V30 1130 C 108.986 4.02159 1.36212 0
M  V30 1131 O 110.01 3.39484 1.07839 0
M  V30 1132 O 108.869 5.12694 1.89227 0
M  V30 1133 H 105.963 0.762816 0.319437 0
M  V30 1134 H 108.509 1.6942 -0.0973986 0
M  V30 1135 H 107.281 3.91151 0.107883 0
M  V30 1136 H 106.904 3.55281 1.78497 0
M  V30 1137 N 107.901 -0.206675 1.56239 0
M  V30 1138 C 108.811 -1.27686 1.96808 0
M  V30 1139 C 109.827 -1.50455 0.874035 0
M  V30 1140 O 111.003 -1.63295 1.17884 0
M  V30 1141 C 108.068 -2.60358 2.28942 0
M  V30 1142 C 107.129 -2.45762 3.51994 0
M  V30 1143 C 106.362 -3.72108 3.82585 0
M  V30 1144 O 106.585 -4.75776 3.14631 0
M  V30 1145 O 105.519 -3.6833 4.76043 0
M  V30 1146 H 109.345 -0.962593 2.88041 0
M  V30 1147 H 106.93 -0.410746 1.43643 0
M  V30 1148 H 108.812 -3.38687 2.50737 0
M  V30 1149 H 107.487 -2.91435 1.4088 0
M  V30 1150 H 106.394 -1.65584 3.35459 0
M  V30 1151 H 107.727 -2.19621 4.40486 0
M  V30 1152 N 109.379 -1.50304 -0.473955 0
M  V30 1153 C 110.309 -1.71886 -1.58042 0
M  V30 1154 C 111.29 -0.567799 -1.60344 0
M  V30 1155 O 112.475 -0.806623 -1.76656 0
M  V30 1156 C 109.605 -1.81036 -2.96384 0
M  V30 1157 C 108.559 -2.962 -3.08949 0
M  V30 1158 C 107.885 -2.9049 -4.48909 0
M  V30 1159 C 109.185 -4.36752 -2.86434 0
M  V30 1160 H 110.879 -2.64527 -1.40234 0
M  V30 1161 H 108.425 -1.27295 -0.673201 0
M  V30 1162 H 110.378 -1.94719 -3.73714 0
M  V30 1163 H 109.102 -0.850147 -3.15341 0
M  V30 1164 H 107.761 -2.82164 -2.3405 0
M  V30 1165 H 107.409 -1.92321 -4.64781 0
M  V30 1166 H 107.109 -3.67802 -4.58253 0
M  V30 1167 H 108.633 -3.06218 -5.28264 0
M  V30 1168 H 110.047 -4.5133 -3.53517 0
M  V30 1169 H 108.444 -5.15493 -3.07225 0
M  V30 1170 H 109.514 -4.49321 -1.82316 0
M  V30 1171 N 110.857 0.726932 -1.39834 0
M  V30 1172 C 111.787 1.85405 -1.41941 0
M  V30 1173 C 112.768 1.67751 -0.281728 0
M  V30 1174 O 113.953 1.8795 -0.488717 0
M  V30 1175 C 111.083 3.23243 -1.2701 0
M  V30 1176 C 110.037 3.55549 -2.38262 0
M  V30 1177 C 109.363 4.9241 -2.08415 0
M  V30 1178 C 110.663 3.577 -3.80589 0
M  V30 1179 H 112.357 1.83899 -2.36266 0
M  V30 1180 H 109.903 0.883349 -1.13723 0
M  V30 1181 H 111.856 4.01775 -1.27103 0
M  V30 1182 H 110.58 3.25296 -0.291564 0
M  V30 1183 H 109.239 2.79351 -2.37399 0
M  V30 1184 H 108.887 4.91052 -1.0898 0
M  V30 1185 H 108.587 5.14992 -2.82943 0
M  V30 1186 H 110.111 5.73289 -2.10171 0
M  V30 1187 H 111.525 4.26293 -3.83337 0
M  V30 1188 H 109.922 3.91804 -4.54543 0
M  V30 1189 H 110.992 2.57328 -4.10987 0
M  V30 1190 N 112.336 1.25143 0.95797 0
M  V30 1191 C 113.283 1.05235 2.05412 0
M  V30 1192 C 114.253 -0.0374561 1.66058 0
M  V30 1193 O 115.438 0.119073 1.90428 0
M  V30 1194 C 112.578 0.673589 3.38462 0
M  V30 1195 C 111.691 1.8379 3.90954 0
M  V30 1196 C 110.826 1.40381 5.12315 0
M  V30 1197 C 109.865 2.53746 5.57027 0
M  V30 1198 N 109.002 2.11136 6.69601 0
M  V30 1199 H 113.842 1.99048 2.21774 0
M  V30 1200 H 111.379 0.991277 1.08683 0
M  V30 1201 H 113.337 0.434964 4.14926 0
M  V30 1202 H 111.967 -0.227554 3.21997 0
M  V30 1203 H 111.019 2.18992 3.11041 0
M  V30 1204 H 112.331 2.68937 4.20089 0
M  V30 1205 H 111.485 1.12464 5.96185 0
M  V30 1206 H 110.224 0.523015 4.84887 0
M  V30 1207 H 109.229 2.82412 4.71724 0
M  V30 1208 H 110.454 3.42398 5.86464 0
M  V30 1209 H 108.4 1.25468 6.4389 0
M  V30 1210 H 108.317 2.89832 6.98236 0
M  V30 1211 H 109.585 1.86385 7.56889 0
M  V30 1212 N 113.814 -1.1601 1.06675 0
M  V30 1213 C 115.23 -1.38622 0.790948 0
M  V30 1214 C 115.43 -1.92109 -0.607965 0
M  V30 1215 O 114.486 -2.12239 -1.36787 0
M  V30 1216 C 115.799 -2.36347 1.85905 0
M  V30 1217 C 117.347 -2.50023 1.88301 0
M  V30 1218 C 117.822 -3.51033 2.94176 0
M  V30 1219 N 119.313 -3.58563 2.93235 0
M  V30 1220 C 120.048 -4.36521 3.71803 0
M  V30 1221 N 119.544 -5.17869 4.602 0
M  V30 1222 N 121.337 -4.31541 3.60178 0
M  V30 1223 H 113.488 -0.796294 1.96908 0
M  V30 1224 H 115.751 -0.412597 0.853503 0
M  V30 1225 H 115.457 -2.04147 2.86386 0
M  V30 1226 H 115.331 -3.36042 1.71334 0
M  V30 1227 H 117.718 -2.81524 0.884769 0
M  V30 1228 H 117.799 -1.5035 2.06951 0
M  V30 1229 H 117.443 -3.20268 3.94196 0
M  V30 1230 H 117.373 -4.50445 2.72776 0
M  V30 1231 H 119.864 -3.00496 2.29152 0
M  V30 1232 H 120.177 -5.74578 5.16797 0
M  V30 1233 H 118.522 -5.17199 4.64253 0
M  V30 1234 H 121.713 -3.67051 2.90502 0
M  V30 1235 H 121.886 -4.9205 4.21653 0
M  V30 1236 N 115.292 -0.849877 -1.32721 0
M  V30 1237 C 116.538 -0.451591 -1.97708 0
M  V30 1238 C 116.871 0.989175 -1.6712 0
M  V30 1239 O 116.146 1.69334 -0.956891 0
M  V30 1240 C 116.429 -0.685598 -3.53513 0
M  V30 1241 C 116.282 -2.17444 -3.93749 0
M  V30 1242 C 117.601 -0.138874 -4.39881 0
M  V30 1243 H 114.72 -0.16555 -0.718166 0
M  V30 1244 H 117.362 -1.06742 -1.57182 0
M  V30 1245 H 115.512 -0.161416 -3.88165 0
M  V30 1246 H 117.184 -2.76433 -3.693 0
M  V30 1247 H 115.427 -2.65476 -3.43081 0
M  V30 1248 H 116.098 -2.28888 -5.02309 0
M  V30 1249 H 118.574 -0.587068 -4.11938 0
M  V30 1250 H 117.45 -0.332213 -5.47894 0
M  V30 1251 H 117.711 0.95806 -4.31594 0
M  V30 1252 N 116.77 1.45427 -0.607355 0
M  V30 1253 C 118 2.06314 -0.108656 0
M  V30 1254 C 118.408 1.45269 1.21217 0
M  V30 1255 O 117.751 0.561115 1.74921 0
M  V30 1256 C 117.813 3.59345 0.105618 0
M  V30 1257 C 117.477 4.42723 -1.13337 0
M  V30 1258 C 118.474 4.77715 -2.05145 0
M  V30 1259 C 116.159 4.83478 -1.36213 0
M  V30 1260 C 118.153 5.52317 -3.18158 0
M  V30 1261 C 115.84 5.57835 -2.49527 0
M  V30 1262 C 116.838 5.92171 -3.40327 0
M  V30 1263 O 116.526 6.65019 -4.51669 0
M  V30 1264 H 116.258 0.672782 -0.0658842 0
M  V30 1265 H 118.812 1.87664 -0.834945 0
M  V30 1266 H 117.042 3.76394 0.886796 0
M  V30 1267 H 118.731 4.02076 0.555886 0
M  V30 1268 H 119.497 4.46787 -1.88697 0
M  V30 1269 H 115.376 4.56188 -0.664362 0
M  V30 1270 H 118.92 5.79036 -3.89054 0
M  V30 1271 H 114.817 5.88177 -2.65928 0
M  V30 1272 H 115.585 6.83469 -4.50348 0
M  V30 1273 N 118.248 0.346503 1.53744 0
M  V30 1274 C 119.496 -0.248612 2.00565 0
M  V30 1275 C 119.817 -1.5083 1.23593 0
M  V30 1276 O 119.087 -1.92858 0.343912 0
M  V30 1277 H 117.667 -0.0948564 0.740953 0
M  V30 1278 H 120.329 0.468341 1.89189 0
M  V30 1279 H 119.425 -0.488994 3.08245 0
M  V30 1280 N 119.726 -1.57421 0.075193 0
M  V30 1281 C 120.951 -1.98364 -0.605515 0
M  V30 1282 C 121.376 -0.953383 -1.62149 0
M  V30 1283 O 120.734 0.0806053 -1.81121 0
M  V30 1284 C 120.782 -3.38332 -1.24756 0
M  V30 1285 O 119.886 -3.37959 -2.36342 0
M  V30 1286 H 119.227 -0.645553 -0.155428 0
M  V30 1287 H 121.757 -2.04044 0.150714 0
M  V30 1288 H 121.767 -3.75591 -1.5936 0
M  V30 1289 H 120.442 -4.12846 -0.503129 0
M  V30 1290 H 119.019 -3.12474 -2.03506 0
M  V30 1291 N 121.204 0.198386 -1.56346 0
M  V30 1292 C 122.451 0.919286 -1.80431 0
M  V30 1293 C 122.779 1.83393 -0.647866 0
M  V30 1294 O 122.034 1.92236 0.366556 0
M  V30 1295 C 122.333 1.77031 -3.10475 0
M  V30 1296 C 121.999 1.00693 -4.39513 0
M  V30 1297 C 120.661 0.796145 -4.74568 0
M  V30 1298 C 123.013 0.469559 -5.19081 0
M  V30 1299 C 120.341 0.0364588 -5.86689 0
M  V30 1300 C 122.693 -0.2769 -6.31994 0
M  V30 1301 C 121.357 -0.49873 -6.65634 0
M  V30 1302 H 120.627 0.336391 -0.660244 0
M  V30 1303 H 123.274 0.185872 -1.90596 0
M  V30 1304 H 121.579 2.5723 -2.95533 0
M  V30 1305 H 123.276 2.33065 -3.26315 0
M  V30 1306 H 119.866 1.18122 -4.12001 0
M  V30 1307 H 124.05 0.619816 -4.92414 0
M  V30 1308 H 119.306 -0.145412 -6.11227 0
M  V30 1309 H 123.48 -0.700684 -6.92866 0
M  V30 1310 H 121.107 -1.0893 -7.52355 0
M  V30 1311 N 122.682 1.50554 0.465978 0
M  V30 1312 C 123.612 1.72722 1.57128 0
M  V30 1313 C 124.593 0.576294 1.6004 0
M  V30 1314 O 125.778 0.81598 1.76225 0
M  V30 1315 C 122.908 1.82605 2.95419 0
M  V30 1316 C 121.862 2.97835 3.07373 0
M  V30 1317 C 121.188 2.92867 4.47363 0
M  V30 1318 C 122.488 4.38265 2.84114 0
M  V30 1319 H 124.182 2.65267 1.38829 0
M  V30 1320 H 121.728 1.2765 0.666441 0
M  V30 1321 H 123.681 1.96698 3.72677 0
M  V30 1322 H 122.405 0.866858 3.14886 0
M  V30 1323 H 121.064 2.83401 2.3255 0
M  V30 1324 H 120.712 1.94783 4.63755 0
M  V30 1325 H 120.412 3.70227 4.56296 0
M  V30 1326 H 121.936 3.09015 5.26633 0
M  V30 1327 H 123.35 4.53198 3.51118 0
M  V30 1328 H 121.747 5.17115 3.04487 0
M  V30 1329 H 122.817 4.50281 1.7993 0
M  V30 1330 N 124.16 -0.719506 1.40217 0
M  V30 1331 C 125.406 -1.48152 1.38488 0
M  V30 1332 C 125.739 -1.94195 -0.0141867 0
M  V30 1333 O 125.014 -1.67884 -0.982096 0
M  V30 1334 C 125.297 -2.71035 2.37091 0
M  V30 1335 C 125.15 -2.30912 3.86005 0
M  V30 1336 C 126.469 -3.73182 2.33288 0
M  V30 1337 H 123.588 -0.537395 0.504357 0
M  V30 1338 H 126.23 -0.821472 1.71324 0
M  V30 1339 H 124.38 -3.27352 2.0922 0
M  V30 1340 H 126.052 -1.80107 4.24687 0
M  V30 1341 H 124.295 -1.62958 4.02029 0
M  V30 1342 H 124.966 -3.18978 4.50508 0
M  V30 1343 H 127.442 -3.26485 2.57966 0
M  V30 1344 H 126.318 -4.56806 3.04334 0
M  V30 1345 H 126.579 -4.21202 1.34317 0
M  V30 1346 N 125.638 -1.25649 -0.95132 0
M  V30 1347 C 126.586 -1.06118 -2.06982 0
M  V30 1348 C 127.58 0.00889169 -1.69398 0
M  V30 1349 O 128.786 -0.146988 -1.79399 0
M  V30 1350 H 125.161 -0.326248 -0.677544 0
M  V30 1351 H 127.132 -2.00932 -2.2061 0
M  V30 1352 C 125.881 -0.700145 -3.40578 0
M  V30 1353 H 125.204 -1.51537 -3.69968 0
M  V30 1354 H 126.644 -0.603211 -4.19687 0
M  V30 1355 C 125.103 0.59403 -3.31622 0
M  V30 1356 O 125.633 1.63522 -3.66911 0
M  V30 1357 N 123.839 0.58089 -2.84735 0
M  V30 1358 H 123.386 -0.266783 -2.56215 0
M  V30 1359 H 123.344 1.44695 -2.79125 0
M  V30 1360 N 127.117 1.15442 -1.07289 0
M  V30 1361 C 128.528 1.67803 -0.818475 0
M  V30 1362 C 128.879 1.8489 0.656507 0
M  V30 1363 O 128.004 1.55176 1.50829 0
M  V30 1364 C 128.599 3.04805 -1.47917 0
M  V30 1365 C 127.158 3.54245 -1.27229 0
M  V30 1366 C 126.305 2.29986 -1.54925 0
M  V30 1367 H 129.256 0.996646 -1.23502 0
M  V30 1368 H 129.277 3.69702 -0.90005 0
M  V30 1369 H 128.789 2.92336 -2.55267 0
M  V30 1370 H 126.89 3.71956 -0.21899 0
M  V30 1371 H 127.003 4.35723 -1.99203 0
M  V30 1372 H 125.367 2.35496 -0.970242 0
M  V30 1373 H 126.15 2.20105 -2.63455 0
M  V30 1374 N 128.595 0.856903 1.32268 0
M  V30 1375 C 129.505 0.306131 2.32594 0
M  V30 1376 C 130.521 -0.577209 1.64147 0
M  V30 1377 O 131.697 -0.477043 1.95669 0
M  V30 1378 C 128.762 -0.494561 3.43154 0
M  V30 1379 C 127.823 0.415186 4.27288 0
M  V30 1380 C 127.056 -0.347387 5.32568 0
M  V30 1381 O 127.279 -1.57708 5.48165 0
M  V30 1382 O 126.213 0.287982 6.01211 0
M  V30 1383 H 130.039 1.13737 2.81598 0
M  V30 1384 H 127.624 0.619902 1.35932 0
M  V30 1385 H 129.506 -0.948944 4.10576 0
M  V30 1386 H 128.181 -1.30257 2.96336 0
M  V30 1387 H 127.088 0.917793 3.62667 0
M  V30 1388 H 128.421 1.18844 4.77637 0
M  V30 1389 N 130.073 -1.45103 0.615059 0
M  V30 1390 C 131.298 -2.07064 0.117988 0
M  V30 1391 C 131.723 -1.4554 -1.19163 0
M  V30 1392 O 131.081 -0.550855 -1.72729 0
M  V30 1393 C 131.129 -3.606 -0.000288387 0
M  V30 1394 O 130.233 -3.98847 -1.04856 0
M  V30 1395 H 129.574 -0.659467 0.0774581 0
M  V30 1396 H 132.104 -1.86236 0.847186 0
M  V30 1397 H 132.114 -4.07529 -0.196091 0
M  V30 1398 H 130.789 -4.04765 0.955932 0
M  V30 1399 H 129.366 -3.63577 -0.828619 0
M  V30 1400 N 131.551 -0.354651 -1.53558 0
M  V30 1401 C 132.799 0.237972 -2.00694 0
M  V30 1402 C 133.12 1.50173 -1.24391 0
M  V30 1403 O 132.39 1.92673 -0.354135 0
M  V30 1404 H 130.97 0.0909256 -0.741446 0
M  V30 1405 H 133.632 -0.478368 -1.88938 0
M  V30 1406 H 132.728 0.47264 -3.085 0
M  V30 1407 N 133.029 1.57378 -0.0835403 0
M  V30 1408 C 134.259 1.97975 0.590713 0
M  V30 1409 C 134.667 0.961083 1.62972 0
M  V30 1410 O 134.01 -0.0590879 1.83605 0
M  V30 1411 C 134.072 3.34915 1.3066 0
M  V30 1412 C 133.736 4.55069 0.419698 0
M  V30 1413 C 134.733 5.18868 -0.32749 0
M  V30 1414 C 132.418 5.0114 0.341137 0
M  V30 1415 C 134.412 6.27098 -1.14134 0
M  V30 1416 C 132.099 6.0924 -0.476374 0
M  V30 1417 C 133.097 6.72083 -1.21627 0
M  V30 1418 O 132.785 7.781 -2.02028 0
M  V30 1419 H 132.517 0.655818 0.163947 0
M  V30 1420 H 135.071 2.04807 -0.156021 0
M  V30 1421 H 133.301 3.24733 2.09966 0
M  V30 1422 H 134.99 3.60037 1.87424 0
M  V30 1423 H 135.756 4.84211 -0.276459 0
M  V30 1424 H 131.635 4.51996 0.90668 0
M  V30 1425 H 135.179 6.7608 -1.71935 0
M  V30 1426 H 131.076 6.43329 -0.528927 0
M  V30 1427 H 131.844 7.95034 -1.94586 0
M  V30 1428 N 134.507 -0.190092 1.56449 0
M  V30 1429 C 135.455 -1.25501 1.95837 0
M  V30 1430 C 136.449 -1.4685 0.844485 0
M  V30 1431 O 137.655 -1.47651 1.02952 0
M  V30 1432 H 134.03 -0.421447 0.622805 0
M  V30 1433 H 136.001 -0.895821 2.84636 0
M  V30 1434 C 134.75 -2.59124 2.31841 0
M  V30 1435 H 134.073 -2.43514 3.17082 0
M  V30 1436 H 135.513 -3.32371 2.6326 0
M  V30 1437 C 133.972 -3.16488 1.15486 0
M  V30 1438 O 134.502 -3.99365 0.432535 0
M  V30 1439 N 132.708 -2.75305 0.930349 0
M  V30 1440 H 132.255 -2.08013 1.51948 0
M  V30 1441 H 132.213 -3.14024 0.153634 0
M  V30 1442 N 135.985 -1.50799 -0.457987 0
M  V30 1443 C 137.231 -1.62683 -1.21088 0
M  V30 1444 C 137.564 -0.332268 -1.91336 0
M  V30 1445 O 136.839 0.667043 -1.82704 0
M  V30 1446 C 137.122 -2.81615 -2.24422 0
M  V30 1447 C 136.975 -4.20989 -1.58392 0
M  V30 1448 C 138.294 -2.96085 -3.2561 0
M  V30 1449 H 135.413 -0.592087 -0.438864 0
M  V30 1450 H 138.055 -1.83225 -0.50286 0
M  V30 1451 H 136.205 -2.64231 -2.84806 0
M  V30 1452 H 137.877 -4.49994 -1.01504 0
M  V30 1453 H 136.12 -4.24641 -0.886704 0
M  V30 1454 H 136.791 -5.0016 -2.33547 0
M  V30 1455 H 139.267 -3.12042 -2.75262 0
M  V30 1456 H 138.143 -3.80902 -3.95228 0
M  V30 1457 H 138.404 -2.0726 -3.90507 0
M  V30 1458 N 137.463 0.71206 -1.40597 0
M  V30 1459 C 138.688 1.50617 -1.42581 0
M  V30 1460 C 139.113 1.88079 -0.0282102 0
M  V30 1461 O 138.471 1.53511 0.964579 0
M  V30 1462 C 138.519 2.7557 -2.3258 0
M  V30 1463 O 137.623 3.72414 -1.77148 0
M  V30 1464 H 136.964 0.453966 -0.484573 0
M  V30 1465 H 139.494 0.876649 -1.84868 0
M  V30 1466 H 139.504 3.2406 -2.47889 0
M  V30 1467 H 138.179 2.47639 -3.34138 0
M  V30 1468 H 136.756 3.31276 -1.71204 0
M  V30 1469 N 138.941 1.26152 0.944643 0
M  V30 1470 C 139.871 1.09902 2.06019 0
M  V30 1471 C 140.852 0.00519538 1.70099 0
M  V30 1472 O 142.037 0.176583 1.93396 0
M  V30 1473 C 139.167 0.727562 3.39594 0
M  V30 1474 C 138.121 1.77274 3.89561 0
M  V30 1475 C 137.447 1.25569 5.19747 0
M  V30 1476 C 138.747 3.17357 4.14827 0
M  V30 1477 H 140.441 2.03217 2.19871 0
M  V30 1478 H 137.987 0.978452 1.05652 0
M  V30 1479 H 139.94 0.600777 4.17095 0
M  V30 1480 H 138.664 -0.241287 3.25707 0
M  V30 1481 H 137.323 1.88814 3.14237 0
M  V30 1482 H 136.971 0.276783 5.02238 0
M  V30 1483 H 136.671 1.95433 5.54148 0
M  V30 1484 H 138.195 1.1415 5.99835 0
M  V30 1485 H 139.609 3.08914 4.82954 0
M  V30 1486 H 138.006 3.84781 4.60504 0
M  V30 1487 H 139.076 3.63673 3.20734 0
M  V30 1488 N 140.419 -1.14872 1.07899 0
M  V30 1489 C 141.349 -2.2193 0.725887 0
M  V30 1490 C 142.33 -1.67622 -0.28927 0
M  V30 1491 O 143.515 -1.93533 -0.160787 0
M  V30 1492 C 140.645 -3.47061 0.128856 0
M  V30 1493 C 139.599 -4.14363 1.07178 0
M  V30 1494 C 138.925 -5.33636 0.337229 0
M  V30 1495 C 140.225 -4.63492 2.40775 0
M  V30 1496 H 141.919 -2.51724 1.62097 0
M  V30 1497 H 139.465 -1.20991 0.780838 0
M  V30 1498 H 141.418 -4.21199 -0.130147 0
M  V30 1499 H 140.142 -3.16617 -0.80134 0
M  V30 1500 H 138.801 -3.42173 1.3158 0
M  V30 1501 H 138.449 -4.99449 -0.596606 0
M  V30 1502 H 138.149 -5.79609 0.965788 0
M  V30 1503 H 139.673 -6.10539 0.0861567 0
M  V30 1504 H 141.087 -5.2913 2.20669 0
M  V30 1505 H 139.484 -5.20148 2.99276 0
M  V30 1506 H 140.554 -3.78834 3.02676 0
M  V30 1507 N 141.898 -0.863906 -1.31812 0
M  V30 1508 C 143.128 -0.485406 -2.00817 0
M  V30 1509 C 143.536 0.925007 -1.65046 0
M  V30 1510 O 142.879 1.61653 -0.872574 0
M  V30 1511 C 142.941 -0.555589 -3.55181 0
M  V30 1512 C 142.605 -1.92654 -4.14407 0
M  V30 1513 C 143.602 -2.89324 -4.31958 0
M  V30 1514 C 141.287 -2.2262 -4.50273 0
M  V30 1515 C 143.281 -4.14108 -4.84555 0
M  V30 1516 C 140.968 -3.47654 -5.02573 0
M  V30 1517 C 141.966 -4.43214 -5.19664 0
M  V30 1518 O 141.654 -5.66033 -5.70843 0
M  V30 1519 H 141.386 -0.188224 -0.649267 0
M  V30 1520 H 143.94 -1.16514 -1.69156 0
M  V30 1521 H 142.17 0.181037 -3.86276 0
M  V30 1522 H 143.859 -0.19138 -4.05449 0
M  V30 1523 H 144.625 -2.6748 -4.04573 0
M  V30 1524 H 140.504 -1.4902 -4.3625 0
M  V30 1525 H 144.048 -4.88703 -4.9781 0
M  V30 1526 H 139.945 -3.69345 -5.29391 0
M  V30 1527 H 140.713 -5.6812 -5.89222 0
M  V30 1528 N 143.376 1.44774 -0.622745 0
M  V30 1529 C 144.653 1.95522 -0.0551974 0
M  V30 1530 C 145.033 1.5649 1.41683 0
M  V30 1531 O 144.381 0.834848 2.12703 0
M  V30 1532 C 144.591 3.4796 -0.269242 0
M  V30 1533 C 145.939 4.24306 -0.158014 0
M  V30 1534 O 146.963 3.55637 -0.200162 0
M  V30 1535 O 145.822 5.46471 -0.0558693 0
M  V30 1536 H 142.916 0.826556 0.0271015 0
M  V30 1537 H 145.462 1.54866 -0.693864 0
M  V30 1538 H 144.234 3.6939 -1.29099 0
M  V30 1539 H 143.857 3.95543 0.403966 0
M  V30 1540 N 144.854 0.36279 1.53368 0
M  V30 1541 C 145.784 -0.476976 2.28576 0
M  V30 1542 C 146.765 -1.08631 1.30894 0
M  V30 1543 O 147.95 -1.10409 1.59761 0
M  V30 1544 C 145.08 -1.61828 3.07293 0
M  V30 1545 C 144.034 -1.13633 4.1264 0
M  V30 1546 C 143.36 -2.36766 4.79423 0
M  V30 1547 C 144.66 -0.223061 5.21823 0
M  V30 1548 H 146.354 0.150474 2.99022 0
M  V30 1549 H 143.9 0.0738103 1.43811 0
M  V30 1550 H 145.853 -2.21237 3.58653 0
M  V30 1551 H 144.577 -2.27292 2.34533 0
M  V30 1552 H 143.236 -0.564945 3.62221 0
M  V30 1553 H 142.884 -3.0068 4.03238 0
M  V30 1554 H 142.584 -2.05192 5.50609 0
M  V30 1555 H 144.108 -2.96865 5.33576 0
M  V30 1556 H 145.522 -0.724545 5.68703 0
M  V30 1557 H 143.919 0.001678 6.001 0
M  V30 1558 H 144.989 0.735553 4.79289 0
M  V30 1559 N 146.332 -1.57332 0.0918853 0
M  V30 1560 C 147.242 -2.17368 -0.882505 0
M  V30 1561 C 148.258 -1.14226 -1.31257 0
M  V30 1562 O 149.434 -1.46582 -1.38115 0
M  V30 1563 C 146.499 -2.73962 -2.12476 0
M  V30 1564 C 145.56 -3.92048 -1.7492 0
M  V30 1565 C 144.793 -4.45933 -2.93223 0
M  V30 1566 O 145.016 -3.98764 -4.07852 0
M  V30 1567 O 143.95 -5.36999 -2.71875 0
M  V30 1568 H 147.776 -3.01031 -0.40172 0
M  V30 1569 H 145.361 -1.48813 -0.132291 0
M  V30 1570 H 147.243 -3.10147 -2.85283 0
M  V30 1571 H 145.918 -1.93347 -2.59613 0
M  V30 1572 H 144.825 -3.6068 -0.993025 0
M  V30 1573 H 146.158 -4.74017 -1.32548 0
M  V30 1574 N 147.81 0.181792 -1.56548 0
M  V30 1575 C 148.758 1.24461 -1.965 0
M  V30 1576 C 149.752 1.464 -0.852261 0
M  V30 1577 O 150.958 1.47103 -1.03733 0
M  V30 1578 H 147.333 0.418138 -0.625031 0
M  V30 1579 H 149.304 0.880714 -2.85107 0
M  V30 1580 C 148.053 2.57891 -2.33212 0
M  V30 1581 H 147.376 2.41829 -3.18369 0
M  V30 1582 H 148.816 3.3097 -2.65019 0
M  V30 1583 C 147.275 3.15871 -1.17163 0
M  V30 1584 O 147.805 3.9913 -0.453708 0
M  V30 1585 N 146.011 2.74808 -0.944936 0
M  V30 1586 H 145.558 2.07205 -1.53049 0
M  V30 1587 H 145.516 3.13939 -0.170286 0
M  V30 1588 N 149.288 1.51039 0.449983 0
M  V30 1589 C 150.218 1.74379 1.55288 0
M  V30 1590 C 151.199 0.593236 1.5942 0
M  V30 1591 O 152.384 0.834625 1.7535 0
M  V30 1592 C 149.514 1.85728 2.93466 0
M  V30 1593 C 148.468 3.01078 3.04197 0
M  V30 1594 C 147.794 2.97595 4.44231 0
M  V30 1595 C 149.094 4.41254 2.7945 0
M  V30 1596 H 150.788 2.66725 1.36008 0
M  V30 1597 H 148.334 1.2835 0.652864 0
M  V30 1598 H 150.287 2.0064 3.70569 0
M  V30 1599 H 149.011 0.900207 3.13949 0
M  V30 1600 H 147.67 2.85851 2.29531 0
M  V30 1601 H 147.318 1.99691 4.61663 0
M  V30 1602 H 147.018 3.75046 4.52343 0
M  V30 1603 H 148.542 3.14583 5.23326 0
M  V30 1604 H 149.956 4.56897 3.46292 0
M  V30 1605 H 148.353 5.20315 2.98985 0
M  V30 1606 H 149.423 4.52164 1.75144 0
M  V30 1607 N 150.766 -0.704594 1.40972 0
M  V30 1608 C 152.177 -1.28418 1.3552 0
M  V30 1609 C 152.528 -1.96171 0.0339434 0
M  V30 1610 O 151.653 -1.98231 -0.867944 0
M  V30 1611 C 152.248 -2.33528 2.45459 0
M  V30 1612 C 150.807 -2.87085 2.43433 0
M  V30 1613 C 149.954 -1.61007 2.2577 0
M  V30 1614 H 152.905 -0.499963 1.50619 0
M  V30 1615 H 152.926 -3.14619 2.13998 0
M  V30 1616 H 152.438 -1.84187 3.41609 0
M  V30 1617 H 150.539 -3.40626 1.51013 0
M  V30 1618 H 150.652 -3.3813 3.39419 0
M  V30 1619 H 149.016 -1.86482 1.73483 0
M  V30 1620 H 149.799 -1.13675 3.23933 0
M  V30 1621 N 152.244 -1.26651 -0.937939 0
M  V30 1622 C 153.207 -1.08546 -2.01867 0
M  V30 1623 C 154.207 -0.0327327 -1.60767 0
M  V30 1624 O 155.397 -0.276427 -1.71993 0
M  V30 1625 C 152.529 -0.651711 -3.34613 0
M  V30 1626 H 153.722 -2.04502 -2.1936 0
M  V30 1627 H 151.275 -1.09294 -1.11734 0
M  V30 1628 H 152.01 0.309696 -3.22818 0
M  V30 1629 H 151.795 -1.41189 -3.65798 0
M  V30 1630 H 153.285 -0.546973 -4.14002 0
M  V30 1631 N 153.722 1.14298 -1.08507 0
M  V30 1632 C 154.947 1.8976 -0.837001 0
M  V30 1633 C 155.372 1.78097 0.605228 0
M  V30 1634 O 154.73 1.12188 1.4242 0
M  V30 1635 C 154.778 3.37685 -1.26495 0
M  V30 1636 O 153.882 4.10281 -0.417514 0
M  V30 1637 H 153.223 0.590365 -0.303917 0
M  V30 1638 H 155.753 1.44672 -1.44676 0
M  V30 1639 H 155.763 3.88501 -1.24625 0
M  V30 1640 H 154.438 3.45492 -2.31534 0
M  V30 1641 H 153.015 3.69536 -0.499722 0
M  V30 1642 N 155.201 0.870884 1.31352 0
M  V30 1643 C 156.148 0.325425 2.28494 0
M  V30 1644 C 157.118 -0.576615 1.5577 0
M  V30 1645 O 158.303 -0.508059 1.83911 0
M  V30 1646 C 155.443 -0.466283 3.41935 0
M  V30 1647 C 154.556 0.463378 4.29508 0
M  V30 1648 C 153.691 -0.342544 5.30094 0
M  V30 1649 C 152.73 0.583486 6.09313 0
M  V30 1650 N 151.867 -0.186244 7.01853 0
M  V30 1651 H 156.707 1.15901 2.74538 0
M  V30 1652 H 154.244 0.58294 1.35056 0
M  V30 1653 H 156.202 -0.941085 4.06447 0
M  V30 1654 H 154.832 -1.26456 2.97 0
M  V30 1655 H 153.884 1.05663 3.65431 0
M  V30 1656 H 155.196 1.1734 4.84802 0
M  V30 1657 H 154.35 -0.879816 6.00287 0
M  V30 1658 H 153.089 -1.08585 4.75458 0
M  V30 1659 H 152.094 1.13251 5.3801 0
M  V30 1660 H 153.319 1.32566 6.66035 0
M  V30 1661 H 151.265 -0.912348 6.49625 0
M  V30 1662 H 151.182 0.464422 7.54572 0
M  V30 1663 H 152.45 -0.704716 7.76308 0
M  V30 1664 N 156.679 -1.44442 0.630414 0
M  V30 1665 C 157.956 -1.9549 0.0655657 0
M  V30 1666 C 158.336 -1.5724 -1.40851 0
M  V30 1667 O 157.684 -0.846116 -2.12257 0
M  V30 1668 C 157.894 -3.47812 0.287691 0
M  V30 1669 C 159.242 -4.24216 0.180513 0
M  V30 1670 O 160.266 -3.55526 0.219019 0
M  V30 1671 O 159.125 -5.46434 0.0848493 0
M  V30 1672 H 156.219 -0.826688 -0.0227177 0
M  V30 1673 H 158.765 -1.54496 0.702068 0
M  V30 1674 H 157.537 -3.687 1.31056 0
M  V30 1675 H 157.16 -3.95751 -0.382984 0
M  V30 1676 N 158.157 -0.370918 -1.53173 0
M  V30 1677 C 159.382 0.220293 -2.06227 0
M  V30 1678 C 159.807 1.41243 -1.24225 0
M  V30 1679 O 159.165 1.79387 -0.262645 0
M  V30 1680 C 159.213 0.586663 -3.55796 0
M  V30 1681 O 158.317 1.68317 -3.76488 0
M  V30 1682 H 157.658 0.0308099 -0.663285 0
M  V30 1683 H 160.188 -0.533068 -1.97534 0
M  V30 1684 H 160.198 0.85617 -3.98916 0
M  V30 1685 H 158.873 -0.285013 -4.14922 0
M  V30 1686 H 157.45 1.40881 -3.45264 0
M  V30 1687 N 159.635 1.57281 -0.100228 0
M  V30 1688 C 160.884 1.93713 0.561984 0
M  V30 1689 C 161.197 0.984492 1.69018 0
M  V30 1690 O 162.403 1.24273 2.41389 0
M  V30 1691 C 160.859 3.4421 1.05106 0
M  V30 1692 C 160.467 4.47975 -0.0476628 0
M  V30 1693 C 162.211 3.89595 1.68571 0
M  V30 1694 C 160.118 5.89631 0.457055 0
M  V30 1695 H 159.048 0.723082 0.2137 0
M  V30 1696 H 161.699 1.82644 -0.177057 0
M  V30 1697 H 160.081 3.50449 1.84395 0
M  V30 1698 H 161.255 4.53385 -0.823333 0
M  V30 1699 H 159.57 4.1223 -0.587816 0
M  V30 1700 H 162.167 4.92832 2.07414 0
M  V30 1701 H 162.51 3.28526 2.55688 0
M  V30 1702 H 163.043 3.86078 0.958562 0
M  V30 1703 H 159.782 6.54411 -0.377616 0
M  V30 1704 H 159.302 5.87681 1.19962 0
M  V30 1705 H 160.981 6.40363 0.92437 0
M  V30 1706 N 161.113 -0.173488 1.56642 0
M  V30 1707 C 162.359 -0.891784 1.8214 0
M  V30 1708 C 162.692 -1.8199 0.677736 0
M  V30 1709 O 161.967 -1.91842 -0.320446 0
M  V30 1710 C 162.25 -1.68933 3.18015 0
M  V30 1711 C 162.103 -0.784487 4.42906 0
M  V30 1712 C 163.422 -2.65748 3.50808 0
M  V30 1713 H 160.541 -0.322761 0.662567 0
M  V30 1714 H 163.183 -0.158095 1.89341 0
M  V30 1715 H 161.333 -2.31482 3.12007 0
M  V30 1716 H 163.005 -0.172046 4.60979 0
M  V30 1717 H 161.248 -0.0924117 4.33702 0
M  V30 1718 H 161.919 -1.37799 5.34524 0
M  V30 1719 H 164.395 -2.13327 3.57255 0
M  V30 1720 H 163.271 -3.18619 4.4696 0
M  V30 1721 H 163.532 -3.45842 2.75401 0
M  V30 1722 N 162.591 -1.51276 -0.441967 0
M  V30 1723 C 163.541 -1.6864 -1.53442 0
M  V30 1724 C 164.525 -0.540444 -1.51552 0
M  V30 1725 O 165.717 -0.796157 -1.58083 0
M  V30 1726 C 162.846 -1.8106 -2.91672 0
M  V30 1727 C 161.932 -3.01424 -2.98336 0
M  V30 1728 N 162.323 -4.2467 -2.74752 0
M  V30 1729 C 160.621 -3.00584 -3.29493 0
M  V30 1730 C 161.322 -5.05891 -2.87139 0
M  V30 1731 N 160.298 -4.40442 -3.18609 0
M  V30 1732 H 164.1 -2.61598 -1.33954 0
M  V30 1733 H 161.614 -1.4886 -0.6492 0
M  V30 1734 H 163.611 -1.91609 -3.70259 0
M  V30 1735 H 162.271 -0.892795 -3.12185 0
M  V30 1736 H 163.282 -4.53691 -2.49769 0
M  V30 1737 H 159.959 -2.18417 -3.55809 0
M  V30 1738 H 161.349 -6.13983 -2.72899 0
M  V30 1739 N 164.069 0.697108 -1.41344 0
M  V30 1740 C 165.001 1.8224 -1.39001 0
M  V30 1741 C 166.014 1.60152 -0.292428 0
M  V30 1742 O 167.203 1.69684 -0.554048 0
M  V30 1743 C 164.303 3.18976 -1.14489 0
M  V30 1744 C 163.476 3.68105 -2.36258 0
M  V30 1745 C 162.535 4.83506 -2.07625 0
M  V30 1746 O 161.561 4.95201 -2.8065 0
M  V30 1747 N 162.763 5.70637 -1.06555 0
M  V30 1748 H 165.528 1.84742 -2.35988 0
M  V30 1749 H 163.089 0.87937 -1.35936 0
M  V30 1750 H 165.081 3.93801 -0.932885 0
M  V30 1751 H 163.651 3.11508 -0.261043 0
M  V30 1752 H 162.871 2.84204 -2.7317 0
M  V30 1753 H 164.159 3.97667 -3.17393 0
M  V30 1754 H 163.557 5.63817 -0.461125 0
M  V30 1755 H 162.114 6.45368 -0.913444 0
M  V30 1756 N 165.547 1.27147 0.931209 0
M  V30 1757 C 166.51 1.09615 2.01289 0
M  V30 1758 C 167.51 0.0412581 1.60747 0
M  V30 1759 O 168.7 0.285545 1.71844 0
M  V30 1760 C 165.832 0.669447 3.34262 0
M  V30 1761 H 167.025 2.05662 2.18273 0
M  V30 1762 H 164.578 1.09885 1.11153 0
M  V30 1763 H 165.313 -0.292572 3.22978 0
M  V30 1764 H 165.098 1.43127 3.65044 0
M  V30 1765 H 166.588 0.568921 4.13706 0
M  V30 1766 N 167.025 -1.13721 1.09112 0
M  V30 1767 C 168.273 -1.84559 0.823562 0
M  V30 1768 C 168.594 -1.83754 -0.652658 0
M  V30 1769 O 167.864 -1.29102 -1.47342 0
M  V30 1770 H 166.444 -0.683376 0.301673 0
M  V30 1771 H 169.106 -1.37771 1.37859 0
M  V30 1772 H 168.202 -2.8917 1.17419 0
M  V30 1773 N 168.503 -0.877838 -1.30888 0
M  V30 1774 C 169.436 -0.283995 -2.26426 0
M  V30 1775 C 170.414 0.591361 -1.51465 0
M  V30 1776 O 171.598 0.54304 -1.80509 0
M  V30 1777 C 168.725 0.597129 -3.33395 0
M  V30 1778 C 167.771 -0.207937 -4.25993 0
M  V30 1779 S 168.604 -1.59158 -5.11301 0
M  V30 1780 C 169.76 -0.716791 -6.21782 0
M  V30 1781 H 169.993 -1.09383 -2.76446 0
M  V30 1782 H 167.526 -0.676828 -1.38775 0
M  V30 1783 H 169.484 1.09978 -3.95493 0
M  V30 1784 H 168.145 1.38099 -2.82113 0
M  V30 1785 H 167.338 0.464163 -5.01858 0
M  V30 1786 H 166.94 -0.642963 -3.68432 0
M  V30 1787 H 169.232 0.0692833 -6.77465 0
M  V30 1788 H 170.175 -1.44682 -6.93161 0
M  V30 1789 H 170.583 -0.280855 -5.63801 0
M  V30 1790 N 169.982 1.44106 -0.638065 0
M  V30 1791 C 170.912 2.33448 0.0494287 0
M  V30 1792 C 171.893 1.48606 0.827672 0
M  V30 1793 O 173.078 1.77308 0.792173 0
M  V30 1794 C 170.208 3.31771 1.02691 0
M  V30 1795 C 169.162 4.26485 0.359823 0
M  V30 1796 C 168.488 5.14729 1.44769 0
M  V30 1797 C 169.788 5.17056 -0.738296 0
M  V30 1798 H 171.482 2.91183 -0.696636 0
M  V30 1799 H 169.028 1.40014 -0.336456 0
M  V30 1800 H 170.981 3.93161 1.51666 0
M  V30 1801 H 169.705 2.7226 1.80395 0
M  V30 1802 H 168.364 3.66437 -0.10934 0
M  V30 1803 H 168.012 4.51566 2.21578 0
M  V30 1804 H 167.712 5.78913 1.00668 0
M  V30 1805 H 169.236 5.78991 1.93911 0
M  V30 1806 H 170.65 5.72342 -0.331354 0
M  V30 1807 H 169.047 5.89879 -1.10286 0
M  V30 1808 H 170.117 4.57652 -1.60258 0
M  V30 1809 N 171.46 0.379036 1.52974 0
M  V30 1810 C 172.407 -0.461048 2.26148 0
M  V30 1811 C 173.377 -1.06637 1.27349 0
M  V30 1812 O 174.562 -1.09633 1.56157 0
M  V30 1813 C 171.702 -1.58782 3.06402 0
M  V30 1814 C 170.815 -1.00636 4.20115 0
M  V30 1815 C 169.95 -2.10334 4.87784 0
M  V30 1816 C 168.989 -1.49724 5.93506 0
M  V30 1817 N 168.126 -2.5331 6.54812 0
M  V30 1818 H 172.966 0.169429 2.97518 0
M  V30 1819 H 170.503 0.0953806 1.4679 0
M  V30 1820 H 172.461 -2.25174 3.51215 0
M  V30 1821 H 171.091 -2.18876 2.37261 0
M  V30 1822 H 170.143 -0.232332 3.7969 0
M  V30 1823 H 171.455 -0.523343 4.96047 0
M  V30 1824 H 170.609 -2.84519 5.35849 0
M  V30 1825 H 169.348 -2.61992 4.11353 0
M  V30 1826 H 168.353 -0.740598 5.44789 0
M  V30 1827 H 169.578 -0.988732 6.71864 0
M  V30 1828 H 167.524 -3.04156 5.81227 0
M  V30 1829 H 167.441 -2.09734 7.26325 0
M  V30 1830 H 168.709 -3.27155 7.07524 0
M  V30 1831 N 172.938 -1.57226 0.108567 0
M  V30 1832 C 174.354 -1.5766 -0.248058 0
M  V30 1833 C 174.554 -1.12063 -1.67464 0
M  V30 1834 O 173.61 -0.803236 -2.39383 0
M  V30 1835 C 174.923 -3.0069 -0.0242287 0
M  V30 1836 C 176.471 -3.12868 -0.0909372 0
M  V30 1837 C 176.946 -4.57879 0.105067 0
M  V30 1838 N 178.437 -4.63172 0.0506846 0
M  V30 1839 C 179.172 -5.73126 0.177396 0
M  V30 1840 N 178.668 -6.91866 0.359696 0
M  V30 1841 N 180.461 -5.61977 0.117709 0
M  V30 1842 H 172.612 -1.85169 1.04049 0
M  V30 1843 H 174.875 -0.85529 0.40888 0
M  V30 1844 H 174.581 -3.38299 0.961604 0
M  V30 1845 H 174.455 -3.6945 -0.76068 0
M  V30 1846 H 176.842 -2.75124 -1.06729 0
M  V30 1847 H 176.923 -2.46672 0.677225 0
M  V30 1848 H 176.567 -4.96321 1.07834 0
M  V30 1849 H 176.497 -5.22153 -0.682954 0
M  V30 1850 H 178.988 -3.778 -0.0871266 0
M  V30 1851 H 179.301 -7.71503 0.447529 0
M  V30 1852 H 177.646 -6.93874 0.395536 0
M  V30 1853 H 180.837 -4.68094 -0.0236741 0
M  V30 1854 H 181.01 -6.47627 0.219905 0
M  V30 1855 N 174.416 0.165178 -1.56732 0
M  V30 1856 C 175.364 1.22369 -1.97809 0
M  V30 1857 C 176.358 1.45488 -0.867741 0
M  V30 1858 O 177.564 1.45995 -1.05288 0
M  V30 1859 H 173.939 0.411486 -0.629431 0
M  V30 1860 H 175.91 0.850425 -2.86025 0
M  V30 1861 C 174.659 2.55403 -2.35934 0
M  V30 1862 H 173.982 2.38438 -3.20916 0
M  V30 1863 H 175.422 3.2814 -2.68514 0
M  V30 1864 C 173.881 3.14611 -1.20506 0
M  V30 1865 O 174.411 3.98626 -0.496016 0
M  V30 1866 N 172.617 2.7379 -0.97403 0
M  V30 1867 H 172.164 2.0557 -1.55238 0
M  V30 1868 H 172.122 3.1374 -0.203573 0
M  V30 1869 N 175.894 1.51508 0.433938 0
M  V30 1870 C 177.134 1.66006 1.19253 0
M  V30 1871 C 177.498 0.369868 1.88404 0
M  V30 1872 O 178.699 0.39066 2.65946 0
M  V30 1873 C 176.97 2.83229 2.17981 0
M  V30 1874 S 178.529 3.18075 3.02281 0
M  V30 1875 H 175.347 0.584821 0.404358 0
M  V30 1876 H 177.949 1.89425 0.48357 0
M  V30 1877 H 176.653 3.75407 1.65824 0
M  V30 1878 H 176.184 2.6201 2.93453 0
M  V30 1879 H 178.199 2.64772 4.19655 0
M  V30 1880 N 177.372 -0.689602 1.41712 0
M  V30 1881 C 178.619 -1.44966 1.4139 0
M  V30 1882 C 178.947 -1.94484 0.025105 0
M  V30 1883 O 178.202 -1.70307 -0.964048 0
M  V30 1884 C 178.501 -2.67298 2.37247 0
M  V30 1885 C 178.167 -2.36405 3.83958 0
M  V30 1886 C 176.829 -2.27691 4.23923 0
M  V30 1887 C 179.181 -2.11043 4.76561 0
M  V30 1888 C 176.509 -1.91719 5.54492 0
M  V30 1889 C 178.861 -1.76578 6.07456 0
M  V30 1890 C 177.525 -1.66363 6.46436 0
M  V30 1891 H 176.795 -0.53047 0.517381 0
M  V30 1892 H 179.442 -0.787655 1.74552 0
M  V30 1893 H 177.747 -3.38461 1.9736 0
M  V30 1894 H 179.444 -3.25452 2.34269 0
M  V30 1895 H 176.034 -2.44085 3.52308 0
M  V30 1896 H 180.218 -2.16717 4.46483 0
M  V30 1897 H 175.474 -1.82367 5.83568 0
M  V30 1898 H 179.648 -1.55974 6.78708 0
M  V30 1899 H 177.275 -1.38258 7.47522 0
M  V30 1900 N 178.85 -1.27639 -0.924453 0
M  V30 1901 C 179.813 -1.10681 -2.00705 0
M  V30 1902 C 180.813 -0.0497823 -1.60723 0
M  V30 1903 O 182.003 -0.294654 -1.7169 0
M  V30 1904 C 179.135 -0.687164 -3.33902 0
M  V30 1905 H 180.328 -2.06817 -2.17179 0
M  V30 1906 H 177.881 -1.10473 -1.10569 0
M  V30 1907 H 178.616 0.275439 -3.23128 0
M  V30 1908 H 178.401 -1.45061 -3.6428 0
M  V30 1909 H 179.891 -0.590853 -4.13399 0
M  V30 1910 N 180.328 1.1314 -1.09713 0
M  V30 1911 C 181.553 1.88862 -0.857081 0
M  V30 1912 C 181.978 1.78729 0.586304 0
M  V30 1913 O 181.336 1.13692 1.41222 0
M  V30 1914 C 181.384 3.36325 -1.30069 0
M  V30 1915 O 180.488 4.09815 -0.461007 0
M  V30 1916 H 179.829 0.587108 -0.310162 0
M  V30 1917 H 182.359 1.43129 -1.46203 0
M  V30 1918 H 182.369 3.87157 -1.28738 0
M  V30 1919 H 181.044 3.43017 -2.35185 0
M  V30 1920 H 179.621 3.68986 -0.538888 0
M  V30 1921 N 181.806 0.884767 1.30421 0
M  V30 1922 C 183.052 0.503851 1.96441 0
M  V30 1923 C 183.385 -0.944518 1.69684 0
M  V30 1924 O 182.66 -1.66737 1.00145 0
M  V30 1925 C 182.943 0.779085 3.51571 0
M  V30 1926 C 182.796 2.27807 3.87846 0
M  V30 1927 C 184.115 0.255452 4.39358 0
M  V30 1928 H 181.234 0.184533 0.713524 0
M  V30 1929 H 183.876 1.10872 1.54297 0
M  V30 1930 H 182.026 0.264274 3.876 0
M  V30 1931 H 183.698 2.86127 3.61841 0
M  V30 1932 H 181.941 2.74479 3.35922 0
M  V30 1933 H 182.612 2.42125 4.96064 0
M  V30 1934 H 185.088 0.696079 4.10236 0
M  V30 1935 H 183.964 0.477361 5.4682 0
M  V30 1936 H 184.225 -0.843293 4.33983 0
M  V30 1937 N 183.284 -1.43765 0.645699 0
M  V30 1938 C 184.531 -2.01898 0.15604 0
M  V30 1939 C 184.859 -1.50887 -1.22733 0
M  V30 1940 O 184.114 -0.689271 -1.8316 0
M  V30 1941 C 184.413 -3.57238 0.107679 0
M  V30 1942 C 184.079 -4.27564 1.43178 0
M  V30 1943 C 182.741 -4.46492 1.7944 0
M  V30 1944 C 185.093 -4.67454 2.30513 0
M  V30 1945 C 182.421 -5.02573 3.02716 0
M  V30 1946 C 184.773 -5.24901 3.53074 0
M  V30 1947 C 183.437 -5.42046 3.89541 0
M  V30 1948 H 182.707 -0.738797 0.057099 0
M  V30 1949 H 185.354 -1.72341 0.834912 0
M  V30 1950 H 183.659 -3.86293 -0.654618 0
M  V30 1951 H 185.356 -3.99965 -0.287938 0
M  V30 1952 H 181.946 -4.13171 1.13963 0
M  V30 1953 H 186.13 -4.5253 2.0379 0
M  V30 1954 H 181.386 -5.14033 3.31028 0
M  V30 1955 H 185.56 -5.54758 4.20971 0
M  V30 1956 H 183.187 -5.85268 4.85145 0
M  V30 1957 N 184.763 -0.387143 -1.52771 0
M  V30 1958 C 185.673 0.456442 -2.30117 0
M  V30 1959 C 186.689 1.07342 -1.36944 0
M  V30 1960 O 187.865 1.07971 -1.70013 0
M  V30 1961 C 184.93 1.56957 -3.09136 0
M  V30 1962 C 183.991 0.977916 -4.18014 0
M  V30 1963 C 183.224 2.038 -4.93256 0
M  V30 1964 O 183.447 3.25271 -4.68567 0
M  V30 1965 O 182.381 1.6565 -5.78657 0
M  V30 1966 H 186.207 -0.17359 -3.03203 0
M  V30 1967 H 183.792 -0.150919 -1.48636 0
M  V30 1968 H 185.674 2.21628 -3.58412 0
M  V30 1969 H 184.349 2.18461 -2.38865 0
M  V30 1970 H 183.256 0.294525 -3.72939 0
M  V30 1971 H 184.589 0.407128 -4.90513 0
M  V30 1972 N 186.241 1.57166 -0.116904 0
M  V30 1973 C 187.188 2.15202 0.83408 0
M  V30 1974 C 188.158 1.07644 1.26499 0
M  V30 1975 O 189.343 1.35541 1.34288 0
M  V30 1976 C 186.483 2.75405 2.07957 0
M  V30 1977 C 185.596 3.97264 1.69721 0
M  V30 1978 C 184.731 4.45561 2.89221 0
M  V30 1979 C 183.77 5.59956 2.47215 0
M  V30 1980 N 182.907 6.03006 3.59622 0
M  V30 1981 H 187.747 2.96141 0.332335 0
M  V30 1982 H 185.284 1.46309 0.152349 0
M  V30 1983 H 187.242 3.08439 2.80929 0
M  V30 1984 H 185.872 1.97159 2.55594 0
M  V30 1985 H 184.924 3.70404 0.866316 0
M  V30 1986 H 186.236 4.80226 1.34849 0
M  V30 1987 H 185.39 4.80493 3.7042 0
M  V30 1988 H 184.129 3.61544 3.27318 0
M  V30 1989 H 183.134 5.2463 1.64448 0
M  V30 1990 H 184.359 6.45738 2.10238 0
M  V30 1991 H 182.305 5.21931 3.97396 0
M  V30 1992 H 182.222 6.80819 3.28667 0
M  V30 1993 H 183.49 6.42576 4.41267 0
M  V30 1994 N 187.719 -0.156864 1.56817 0
M  V30 1995 C 188.949 -0.885031 1.86684 0
M  V30 1996 C 189.357 -1.75696 0.701954 0
M  V30 1997 O 188.7 -1.80569 -0.337732 0
M  V30 1998 C 188.762 -1.80092 3.11138 0
M  V30 1999 C 188.426 -1.10714 4.43386 0
M  V30 2000 C 189.423 -0.465714 5.1781 0
M  V30 2001 C 187.108 -1.09959 4.90117 0
M  V30 2002 C 189.102 0.174002 6.37162 0
M  V30 2003 C 186.789 -0.456055 6.09396 0
M  V30 2004 C 187.787 0.179622 6.82764 0
M  V30 2005 O 187.475 0.812975 7.99779 0
M  V30 2006 H 187.207 -0.261813 0.623242 0
M  V30 2007 H 189.761 -0.157383 2.04796 0
M  V30 2008 H 187.991 -2.56926 2.89009 0
M  V30 2009 H 189.68 -2.40018 3.27332 0
M  V30 2010 H 190.446 -0.463427 4.82781 0
M  V30 2011 H 186.325 -1.58378 4.3294 0
M  V30 2012 H 189.869 0.670765 6.94368 0
M  V30 2013 H 185.766 -0.455975 6.43888 0
M  V30 2014 H 186.534 0.71366 8.15383 0
M  V30 2015 N 189.197 -1.51736 -0.425897 0
M  V30 2016 C 190.444 -1.6497 -1.17436 0
M  V30 2017 C 190.772 -0.371445 -1.9092 0
M  V30 2018 O 190.027 0.644963 -1.84767 0
M  V30 2019 C 190.326 -2.81103 -2.20717 0
M  V30 2020 C 189.992 -4.19954 -1.64162 0
M  V30 2021 C 188.654 -4.57725 -1.48462 0
M  V30 2022 C 191.006 -5.06552 -1.22696 0
M  V30 2023 C 188.334 -5.79789 -0.897873 0
M  V30 2024 C 190.686 -6.29205 -0.654464 0
M  V30 2025 C 189.35 -6.6574 -0.484456 0
M  V30 2026 H 188.62 -0.603668 -0.429727 0
M  V30 2027 H 191.267 -1.85798 -0.463829 0
M  V30 2028 H 189.572 -2.54542 -2.97852 0
M  V30 2029 H 191.269 -2.8854 -2.78471 0
M  V30 2030 H 187.859 -3.90181 -1.77361 0
M  V30 2031 H 192.043 -4.77968 -1.33642 0
M  V30 2032 H 187.299 -6.06733 -0.75402 0
M  V30 2033 H 191.473 -6.95643 -0.324694 0
M  V30 2034 H 189.1 -7.60195 -0.0276833 0
M  V30 2035 N 190.675 0.682077 -1.42076 0
M  V30 2036 C 191.607 1.80755 -1.40926 0
M  V30 2037 C 192.62 1.59833 -0.309398 0
M  V30 2038 O 193.809 1.69087 -0.572014 0
M  V30 2039 C 190.909 3.17744 -1.17865 0
M  V30 2040 C 190.082 3.65578 -2.40149 0
M  V30 2041 C 189.141 4.81277 -2.12742 0
M  V30 2042 O 188.167 4.92197 -2.85887 0
M  V30 2043 N 189.369 5.69474 -1.12602 0
M  V30 2044 H 192.134 1.82229 -2.37935 0
M  V30 2045 H 189.695 0.864903 -1.36861 0
M  V30 2046 H 191.687 3.9279 -0.9746 0
M  V30 2047 H 190.257 3.11214 -0.294068 0
M  V30 2048 H 189.477 2.81291 -2.76169 0
M  V30 2049 H 190.765 3.94278 -3.21593 0
M  V30 2050 H 190.163 5.63297 -0.520899 0
M  V30 2051 H 188.72 6.44363 -0.981842 0
M  V30 2052 N 192.153 1.28127 0.917671 0
M  V30 2053 C 193.4 1.15052 1.66641 0
M  V30 2054 C 193.728 -0.301677 1.92146 0
M  V30 2055 O 192.983 -1.23622 1.51711 0
M  V30 2056 C 193.282 1.89018 3.03327 0
M  V30 2057 C 192.948 3.38832 2.97496 0
M  V30 2058 C 191.61 3.79693 2.95613 0
M  V30 2059 C 193.962 4.34378 2.88036 0
M  V30 2060 C 191.29 5.14447 2.82066 0
M  V30 2061 C 193.642 5.69201 2.7603 0
M  V30 2062 C 192.306 6.09343 2.72502 0
M  V30 2063 H 191.576 0.421006 0.609783 0
M  V30 2064 H 194.223 1.58855 1.06945 0
M  V30 2065 H 192.528 1.37752 3.66785 0
M  V30 2066 H 194.225 1.76321 3.60156 0
M  V30 2067 H 190.815 3.06342 2.99754 0
M  V30 2068 H 194.999 4.03775 2.88581 0
M  V30 2069 H 190.255 5.44681 2.77728 0
M  V30 2070 H 194.429 6.42901 2.67678 0
M  V30 2071 H 192.056 7.13712 2.61762 0
M  V30 2072 N 193.631 -1.12557 1.10312 0
M  V30 2073 C 194.563 -2.17971 0.708625 0
M  V30 2074 C 195.576 -1.60806 -0.254027 0
M  V30 2075 O 196.765 -1.78458 -0.0386891 0
M  V30 2076 C 193.865 -3.38891 0.0248198 0
M  V30 2077 C 193.038 -4.25548 1.01132 0
M  V30 2078 C 192.097 -5.24972 0.35924 0
M  V30 2079 O 191.123 -5.60174 1.00965 0
M  V30 2080 N 192.325 -5.73747 -0.882847 0
M  V30 2081 H 195.09 -2.52427 1.61557 0
M  V30 2082 H 192.651 -1.27967 0.991771 0
M  V30 2083 H 194.643 -4.02485 -0.422852 0
M  V30 2084 H 193.213 -3.02596 -0.784514 0
M  V30 2085 H 192.433 -3.58589 1.6373 0
M  V30 2086 H 193.721 -4.80294 1.67914 0
M  V30 2087 H 193.119 -5.4731 -1.43065 0
M  V30 2088 H 191.676 -6.39234 -1.27369 0
M  V30 2089 N 195.109 -0.891671 -1.2995 0
M  V30 2090 C 196.019 -0.367691 -2.31701 0
M  V30 2091 C 197.035 0.533486 -1.6562 0
M  V30 2092 O 198.211 0.424997 -1.96865 0
M  V30 2093 C 195.276 0.403406 -3.44345 0
M  V30 2094 C 194.337 -0.528328 -4.26037 0
M  V30 2095 C 193.57 0.206063 -5.33302 0
M  V30 2096 O 193.793 1.43119 -5.52153 0
M  V30 2097 O 192.727 -0.447281 -6.00236 0
M  V30 2098 H 196.553 -1.21163 -2.78484 0
M  V30 2099 H 194.138 -0.655725 -1.34241 0
M  V30 2100 H 196.02 0.839753 -4.12948 0
M  V30 2101 H 194.695 1.22354 -2.99685 0
M  V30 2102 H 193.602 -1.01362 -3.60106 0
M  V30 2103 H 194.935 -1.31465 -4.74318 0
M  V30 2104 N 196.587 1.43421 -0.653314 0
M  V30 2105 C 197.497 2.34568 0.0388565 0
M  V30 2106 C 198.513 1.53888 0.81207 0
M  V30 2107 O 199.689 1.86539 0.759294 0
M  V30 2108 C 196.754 3.32167 0.993269 0
M  V30 2109 C 195.815 4.28751 0.216977 0
M  V30 2110 C 195.048 5.21688 1.12593 0
M  V30 2111 O 195.271 5.19052 2.36519 0
M  V30 2112 O 194.205 5.98919 0.598284 0
M  V30 2113 H 198.031 2.95251 -0.711386 0
M  V30 2114 H 195.616 1.43564 -0.413502 0
M  V30 2115 H 197.498 3.92183 1.54176 0
M  V30 2116 H 196.173 2.73987 1.72374 0
M  V30 2117 H 195.08 3.72215 -0.375101 0
M  V30 2118 H 196.413 4.89913 -0.473924 0
M  V30 2119 N 198.065 0.39524 1.52563 0
M  V30 2120 C 199.313 -0.184678 2.01254 0
M  V30 2121 C 199.634 -1.46822 1.28329 0
M  V30 2122 O 198.904 -1.91666 0.405094 0
M  V30 2123 H 197.484 -0.0712355 0.743596 0
M  V30 2124 H 200.146 0.528293 1.87603 0
M  V30 2125 H 199.242 -0.390681 3.09645 0
M  V30 2126 N 199.544 -1.57102 0.125237 0
M  V30 2127 C 200.491 -2.15641 -0.822655 0
M  V30 2128 C 201.461 -1.08313 -1.25927 0
M  V30 2129 O 202.646 -1.36251 -1.33567 0
M  V30 2130 C 199.786 -2.76504 -2.06494 0
M  V30 2131 C 198.899 -3.98158 -1.67612 0
M  V30 2132 C 198.034 -4.47088 -2.86854 0
M  V30 2133 C 197.073 -5.6126 -2.44242 0
M  V30 2134 N 196.21 -6.04905 -3.56419 0
M  V30 2135 H 201.05 -2.96313 -0.316625 0
M  V30 2136 H 198.587 -1.46388 -0.144588 0
M  V30 2137 H 200.545 -3.09925 -2.79289 0
M  V30 2138 H 199.175 -1.98512 -2.54545 0
M  V30 2139 H 198.227 -3.70858 -0.846661 0
M  V30 2140 H 199.539 -4.80934 -1.32301 0
M  V30 2141 H 198.693 -4.82451 -3.67867 0
M  V30 2142 H 197.432 -3.63275 -3.25396 0
M  V30 2143 H 196.437 -5.25495 -1.61663 0
M  V30 2144 H 197.662 -6.46843 -2.0681 0
M  V30 2145 H 195.608 -5.24032 -3.94623 0
M  V30 2146 H 195.525 -6.82552 -3.25051 0
M  V30 2147 H 196.793 -6.44907 -4.37853 0
M  V30 2148 N 201.022 0.148545 -1.56898 0
M  V30 2149 C 201.932 1.20293 -2.01412 0
M  V30 2150 C 202.948 1.47107 -0.929273 0
M  V30 2151 O 204.124 1.58807 -1.23863 0
M  V30 2152 C 201.189 2.51682 -2.38447 0
M  V30 2153 C 200.25 2.32529 -3.60872 0
M  V30 2154 C 199.483 3.57653 -3.96132 0
M  V30 2155 O 199.706 4.63771 -3.32073 0
M  V30 2156 O 198.64 3.50408 -4.89385 0
M  V30 2157 H 202.466 0.855025 -2.91416 0
M  V30 2158 H 200.051 0.357151 -1.45068 0
M  V30 2159 H 201.933 3.29147 -2.63135 0
M  V30 2160 H 200.608 2.86006 -1.51599 0
M  V30 2161 H 199.515 1.53019 -3.41373 0
M  V30 2162 H 200.848 2.03121 -4.48333 0
M  V30 2163 N 202.5 1.5196 0.417844 0
M  V30 2164 C 203.748 1.65263 1.16329 0
M  V30 2165 C 204.069 0.380634 1.91249 0
M  V30 2166 O 203.339 -0.604214 1.86349 0
M  V30 2167 H 201.919 0.60912 0.432414 0
M  V30 2168 H 204.581 1.88969 0.477162 0
M  V30 2169 H 203.677 2.4896 1.88217 0
M  V30 2170 N 203.978 -0.674533 1.42435 0
M  V30 2171 C 204.888 -1.81751 1.48337 0
M  V30 2172 C 205.904 -1.69975 0.372099 0
M  V30 2173 O 207.08 -1.91521 0.62304 0
M  V30 2174 C 204.145 -3.17895 1.38361 0
M  V30 2175 C 203.206 -3.41625 2.59982 0
M  V30 2176 C 202.439 -4.71274 2.50473 0
M  V30 2177 O 202.662 -5.49197 1.54075 0
M  V30 2178 O 201.596 -4.96254 3.4061 0
M  V30 2179 H 205.422 -1.79728 2.44809 0
M  V30 2180 H 203.007 -0.830312 1.24202 0
M  V30 2181 H 204.889 -3.99136 1.35161 0
M  V30 2182 H 203.564 -3.20555 0.450144 0
M  V30 2183 H 202.471 -2.60231 2.68757 0
M  V30 2184 H 203.804 -3.43796 3.52229 0
M  V30 2185 N 205.456 -1.28612 -0.910864 0
M  V30 2186 C 206.404 -1.1265 -2.03501 0
M  V30 2187 C 207.398 -0.0450054 -1.6934 0
M  V30 2188 O 208.604 -0.203988 -1.7884 0
M  V30 2189 H 204.979 -0.347639 -0.666822 0
M  V30 2190 H 206.95 -2.07849 -2.14106 0
M  V30 2191 C 205.699 -0.808143 -3.38178 0
M  V30 2192 H 205.022 -1.63231 -3.6496 0
M  V30 2193 H 206.462 -0.736426 -4.17556 0
M  V30 2194 C 204.921 0.488226 -3.33344 0
M  V30 2195 O 205.451 1.51766 -3.71927 0
M  V30 2196 N 203.657 0.490009 -2.86439 0
M  V30 2197 H 203.204 -0.348161 -2.55236 0
M  V30 2198 H 203.162 1.35741 -2.83587 0
M  V30 2199 N 206.934 1.1197 -1.10907 0
M  V30 2200 C 208.35 1.35591 -0.841852 0
M  V30 2201 C 208.55 1.94233 0.536246 0
M  V30 2202 O 207.606 2.1717 1.28816 0
M  V30 2203 C 208.919 2.29284 -1.94549 0
M  V30 2204 C 210.467 2.42862 -1.97451 0
M  V30 2205 C 210.942 3.39873 -3.07002 0
M  V30 2206 N 212.433 3.47433 -3.06341 0
M  V30 2207 C 213.168 4.22421 -3.87748 0
M  V30 2208 N 212.664 5.00432 -4.79103 0
M  V30 2209 N 214.457 4.17876 -3.75946 0
M  V30 2210 H 206.608 0.722664 -1.99728 0
M  V30 2211 H 208.871 0.380635 -0.868229 0
M  V30 2212 H 208.577 1.93378 -2.93765 0
M  V30 2213 H 208.451 3.29452 -1.83688 0
M  V30 2214 H 210.838 2.78046 -0.988645 0
M  V30 2215 H 210.919 1.42566 -2.12388 0
M  V30 2216 H 210.563 3.05417 -4.05811 0
M  V30 2217 H 210.493 4.40011 -2.89306 0
M  V30 2218 H 212.984 2.91784 -2.40147 0
M  V30 2219 H 213.297 5.55002 -5.37766 0
M  V30 2220 H 211.642 4.99612 -4.83128 0
M  V30 2221 H 214.833 3.56016 -3.03924 0
M  V30 2222 H 215.006 4.76061 -4.39624 0
M  V30 2223 N 208.412 0.89855 1.29475 0
M  V30 2224 C 209.375 0.380272 2.26023 0
M  V30 2225 C 210.375 -0.484891 1.53315 0
M  V30 2226 O 211.565 -0.290108 1.71767 0
M  V30 2227 C 208.697 -0.45651 3.3783 0
M  V30 2228 H 209.89 1.23295 2.73383 0
M  V30 2229 H 207.443 0.676589 1.40897 0
M  V30 2230 H 208.178 -1.32922 2.95808 0
M  V30 2231 H 207.963 0.163393 3.91759 0
M  V30 2232 H 209.453 -0.810466 4.0966 0
M  V30 2233 N 209.89 -1.43072 0.660911 0
M  V30 2234 C 211.136 -2.0202 0.177708 0
M  V30 2235 C 211.469 -1.52066 -1.20787 0
M  V30 2236 O 210.744 -0.716987 -1.80802 0
M  V30 2237 C 211.027 -3.59561 0.197019 0
M  V30 2238 C 210.88 -4.19727 1.61706 0
M  V30 2239 C 212.199 -4.37664 -0.462396 0
M  V30 2240 H 209.318 -0.734034 0.0660494 0
M  V30 2241 H 211.96 -1.70272 0.843058 0
M  V30 2242 H 210.11 -3.86739 -0.369527 0
M  V30 2243 H 211.782 -4.03553 2.23479 0
M  V30 2244 H 210.025 -3.76084 2.16201 0
M  V30 2245 H 210.696 -5.28834 1.58237 0
M  V30 2246 H 213.172 -4.16095 0.0197215 0
M  V30 2247 H 212.048 -5.47305 -0.418188 0
M  V30 2248 H 212.309 -4.14493 -1.53778 0
M  V30 2249 N 211.368 -0.403325 -1.52352 0
M  V30 2250 C 212.617 0.175668 -2.00934 0
M  V30 2251 C 212.93 1.46718 -1.29356 0
M  V30 2252 O 214.136 2.12708 -1.68724 0
M  V30 2253 C 212.592 0.363612 -3.58058 0
M  V30 2254 C 212.2 -0.915472 -4.38547 0
M  V30 2255 C 213.944 0.89821 -4.14888 0
M  V30 2256 C 211.851 -0.695035 -5.87302 0
M  V30 2257 H 210.781 0.0694234 -0.750797 0
M  V30 2258 H 213.432 -0.527879 -1.75743 0
M  V30 2259 H 211.814 1.12935 -3.79555 0
M  V30 2260 H 212.988 -1.68691 -4.28812 0
M  V30 2261 H 211.303 -1.37606 -3.93006 0
M  V30 2262 H 213.9 1.07907 -5.23699 0
M  V30 2263 H 214.243 1.87126 -3.71873 0
M  V30 2264 H 214.776 0.191681 -3.97338 0
M  V30 2265 H 211.515 -1.63948 -6.34666 0
M  V30 2266 H 211.035 0.0372116 -5.99788 0
M  V30 2267 H 212.714 -0.33497 -6.46132 0
M  V30 2268 N 212.846 1.57033 -0.133567 0
M  V30 2269 C 213.796 2.12641 0.822671 0
M  V30 2270 C 214.78 1.05081 1.21847 0
M  V30 2271 O 215.972 1.31287 1.18713 0
M  V30 2272 C 213.101 2.74094 2.06706 0
M  V30 2273 C 212.187 3.88757 1.69497 0
M  V30 2274 N 212.578 4.95194 1.03037 0
M  V30 2275 C 210.876 3.99213 1.98859 0
M  V30 2276 C 211.577 5.75414 0.852873 0
M  V30 2277 N 210.553 5.25726 1.3825 0
M  V30 2278 H 214.355 2.92308 0.305537 0
M  V30 2279 H 211.869 1.62256 0.0684276 0
M  V30 2280 H 213.866 3.12285 2.76195 0
M  V30 2281 H 212.526 1.95896 2.5895 0
M  V30 2282 H 213.537 5.13247 0.692669 0
M  V30 2283 H 210.214 3.32075 2.53047 0
M  V30 2284 H 211.604 6.71089 0.330091 0
M  V30 2285 N 214.325 -0.140222 1.56975 0
M  V30 2286 C 215.555 -0.865181 1.87612 0
M  V30 2287 C 215.963 -1.74942 0.72055 0
M  V30 2288 O 215.306 -1.80917 -0.318561 0
M  V30 2289 C 215.368 -1.76782 3.13031 0
M  V30 2290 C 215.032 -1.06005 4.44536 0
M  V30 2291 C 216.029 -0.410768 5.18275 0
M  V30 2292 C 213.714 -1.04754 4.91255 0
M  V30 2293 C 215.708 0.241572 6.36942 0
M  V30 2294 C 213.395 -0.391394 6.09845 0
M  V30 2295 C 214.393 0.252029 6.82535 0
M  V30 2296 O 214.081 0.897757 7.98871 0
M  V30 2297 H 213.813 -0.255188 0.625983 0
M  V30 2298 H 216.367 -0.135653 2.04952 0
M  V30 2299 H 214.597 -2.53846 2.91718 0
M  V30 2300 H 216.286 -2.36533 3.29859 0
M  V30 2301 H 217.052 -0.412195 4.83245 0
M  V30 2302 H 212.931 -1.53777 4.34596 0
M  V30 2303 H 216.475 0.744375 6.93617 0
M  V30 2304 H 212.372 -0.387656 6.44335 0
M  V30 2305 H 213.14 0.800102 8.1458 0
M  V30 2306 N 215.803 -1.52179 -0.40978 0
M  V30 2307 C 217.219 -1.40968 -0.74835 0
M  V30 2308 C 217.419 -0.513657 -1.94843 0
M  V30 2309 O 216.475 0.0208026 -2.52491 0
M  V30 2310 C 217.788 -2.83483 -1.0029 0
M  V30 2311 C 219.336 -2.92821 -1.10565 0
M  V30 2312 C 219.811 -4.36303 -1.39296 0
M  V30 2313 N 221.302 -4.39535 -1.46162 0
M  V30 2314 C 222.037 -5.47614 -1.70018 0
M  V30 2315 N 221.533 -6.65812 -1.91483 0
M  V30 2316 N 223.326 -5.35129 -1.72027 0
M  V30 2317 H 215.477 -2.0897 0.380186 0
M  V30 2318 H 217.74 -0.94185 0.107805 0
M  V30 2319 H 217.446 -3.51168 -0.193461 0
M  V30 2320 H 217.32 -3.24487 -1.92323 0
M  V30 2321 H 219.707 -2.25318 -1.90568 0
M  V30 2322 H 219.788 -2.55276 -0.16369 0
M  V30 2323 H 219.432 -5.04366 -0.598109 0
M  V30 2324 H 219.362 -4.71385 -2.34743 0
M  V30 2325 H 221.853 -3.54332 -1.31367 0
M  V30 2326 H 222.166 -7.43964 -2.09134 0
M  V30 2327 H 220.511 -6.68879 -1.88749 0
M  V30 2328 H 223.702 -4.41764 -1.54796 0
M  V30 2329 H 223.875 -6.19433 -1.9028 0
M  V30 2330 N 217.281 0.66697 -1.42791 0
M  V30 2331 C 218.558 1.4234 -1.34159 0
M  V30 2332 C 218.938 2.11093 0.0172729 0
M  V30 2333 O 218.286 2.03808 1.03318 0
M  V30 2334 C 218.496 2.41942 -2.51526 0
M  V30 2335 C 219.844 3.06353 -2.93995 0
M  V30 2336 O 220.868 2.52269 -2.51473 0
M  V30 2337 O 219.727 4.04376 -3.67617 0
M  V30 2338 H 216.821 0.635277 -0.529483 0
M  V30 2339 H 219.367 0.695034 -1.54814 0
M  V30 2340 H 218.139 1.89991 -3.42081 0
M  V30 2341 H 217.762 3.22249 -2.32898 0
M  V30 2342 N 218.759 1.29093 0.90403 0
M  V30 2343 C 220.036 1.075 1.63411 0
M  V30 2344 C 220.416 -0.382346 2.07609 0
M  V30 2345 O 219.764 -1.37031 1.82851 0
M  V30 2346 C 219.974 2.05858 2.81822 0
M  V30 2347 C 221.322 2.36539 3.52611 0
M  V30 2348 O 222.346 2.04019 2.91984 0
M  V30 2349 O 221.205 2.92085 4.61897 0
M  V30 2350 H 218.299 0.411547 0.717327 0
M  V30 2351 H 220.845 1.40449 0.952479 0
M  V30 2352 H 219.617 3.04037 2.46327 0
M  V30 2353 H 219.24 1.73613 3.57693 0
M  V30 2354 N 220.237 -1.11381 1.11499 0
M  V30 2355 C 221.147 -2.21019 0.786628 0
M  V30 2356 C 222.163 -1.72597 -0.220507 0
M  V30 2357 O 223.339 -2.01321 -0.0565251 0
M  V30 2358 C 220.404 -3.459 0.235333 0
M  V30 2359 C 219.465 -4.09107 1.30115 0
M  V30 2360 C 218.698 -5.28027 0.776068 0
M  V30 2361 O 218.921 -5.6904 -0.393661 0
M  V30 2362 O 217.855 -5.81835 1.54114 0
M  V30 2363 H 221.681 -2.51521 1.70209 0
M  V30 2364 H 219.266 -1.19928 0.890928 0
M  V30 2365 H 221.148 -4.21346 -0.067715 0
M  V30 2366 H 219.823 -3.17049 -0.652828 0
M  V30 2367 H 218.73 -3.35391 1.65722 0
M  V30 2368 H 220.063 -4.42139 2.16273 0
M  V30 2369 N 221.715 -0.905404 -1.28997 0
M  V30 2370 C 222.943 -0.549846 -1.9946 0
M  V30 2371 C 223.358 0.866834 -1.67724 0
M  V30 2372 O 222.715 1.57298 -0.925404 0
M  V30 2373 C 222.766 -0.739387 -3.53858 0
M  V30 2374 O 222.487 -2.10031 -3.84472 0
M  V30 2375 C 223.988 -0.389541 -4.41585 0
M  V30 2376 H 221.208 -0.210429 -0.637151 0
M  V30 2377 H 223.752 -1.21632 -1.64396 0
M  V30 2378 H 221.907 -0.120023 -3.87214 0
M  V30 2379 H 222.321 -2.13385 -4.79132 0
M  V30 2380 H 223.795 -0.572972 -5.49018 0
M  V30 2381 H 224.272 0.673756 -4.34001 0
M  V30 2382 H 224.878 -0.986089 -4.1371 0
M  V30 2383 N 223.193 1.4272 -0.668489 0
M  V30 2384 C 224.126 2.28111 0.0637898 0
M  V30 2385 C 225.104 1.40705 0.814912 0
M  V30 2386 O 226.288 1.70146 0.81134 0
M  V30 2387 C 223.415 3.20429 1.0974 0
M  V30 2388 C 222.461 4.24197 0.442579 0
M  V30 2389 S 223.294 5.29563 -0.795173 0
M  V30 2390 C 224.45 6.25449 0.237516 0
M  V30 2391 H 224.683 2.8987 -0.660521 0
M  V30 2392 H 222.216 1.47456 -0.457821 0
M  V30 2393 H 224.174 3.74158 1.68868 0
M  V30 2394 H 222.835 2.57818 1.79411 0
M  V30 2395 H 222.028 4.88954 1.22227 0
M  V30 2396 H 221.63 3.73925 -0.0749554 0
M  V30 2397 H 223.922 6.68524 1.09915 0
M  V30 2398 H 224.865 7.07104 -0.375421 0
M  V30 2399 H 225.273 5.61511 0.580167 0
M  V30 2400 N 224.671 0.411399 1.52136 0
M  V30 2401 C 225.901 -0.16284 2.05957 0
M  V30 2402 C 226.309 -1.3922 1.28119 0
M  V30 2403 O 225.652 -1.80768 0.326881 0
M  V30 2404 C 225.714 -0.575946 3.54856 0
M  V30 2405 C 225.378 0.542998 4.53763 0
M  V30 2406 C 226.375 1.40726 5.00492 0
M  V30 2407 C 224.06 0.716337 4.97166 0
M  V30 2408 C 226.054 2.4298 5.8927 0
M  V30 2409 C 223.741 1.74218 5.8574 0
M  V30 2410 C 224.739 2.59731 6.31687 0
M  V30 2411 O 224.427 3.60558 7.18507 0
M  V30 2412 H 224.159 -0.0229125 0.675612 0
M  V30 2413 H 226.713 0.581634 1.96993 0
M  V30 2414 H 224.943 -1.37274 3.61515 0
M  V30 2415 H 226.632 -1.07836 3.91313 0
M  V30 2416 H 227.398 1.28476 4.67674 0
M  V30 2417 H 223.277 0.0603857 4.6096 0
M  V30 2418 H 226.821 3.0976 6.25055 0
M  V30 2419 H 222.718 1.86498 6.17971 0
M  V30 2420 H 223.486 3.56829 7.36624 0
M  V30 2421 N 226.149 -1.5696 0.141893 0
M  V30 2422 C 227.395 -1.9625 -0.511248 0
M  V30 2423 C 227.728 -1.02654 -1.64851 0
M  V30 2424 O 227.003 -0.0679676 -1.94381 0
M  V30 2425 C 227.286 -3.45285 -1.02227 0
M  V30 2426 C 227.139 -4.49658 0.113138 0
M  V30 2427 C 228.458 -3.96698 -1.90574 0
M  V30 2428 H 225.577 -0.713567 -0.184367 0
M  V30 2429 H 228.219 -1.88698 0.222087 0
M  V30 2430 H 226.369 -3.51852 -1.64719 0
M  V30 2431 H 228.041 -4.55174 0.749302 0
M  V30 2432 H 226.284 -4.26857 0.773026 0
M  V30 2433 H 226.955 -5.51258 -0.286053 0
M  V30 2434 H 229.431 -3.92578 -1.37918 0
M  V30 2435 H 228.307 -5.01453 -2.2324 0
M  V30 2436 H 228.568 -3.3875 -2.84079 0
M  V30 2437 N 227.627 0.131896 -1.57047 0
M  V30 2438 C 228.537 1.1815 -2.02676 0
M  V30 2439 C 229.553 1.46113 -0.944824 0
M  V30 2440 O 230.729 1.57485 -1.25541 0
M  V30 2441 C 227.794 2.49139 -2.41103 0
M  V30 2442 C 226.855 2.28688 -3.63318 0
M  V30 2443 C 226.088 3.53431 -3.99903 0
M  V30 2444 O 226.311 4.60223 -3.36973 0
M  V30 2445 O 225.245 3.45198 -4.93074 0
M  V30 2446 H 229.071 0.824069 -2.92306 0
M  V30 2447 H 226.656 0.341745 -1.45439 0
M  V30 2448 H 228.538 3.26338 -2.66611 0
M  V30 2449 H 227.213 2.84382 -1.54624 0
M  V30 2450 H 226.12 1.4939 -3.42977 0
M  V30 2451 H 227.453 1.98355 -4.50462 0
M  V30 2452 N 229.106 1.52395 0.401703 0
M  V30 2453 C 230.331 1.70972 1.17403 0
M  V30 2454 C 230.756 0.421615 1.83314 0
M  V30 2455 O 230.114 -0.621564 1.70312 0
M  V30 2456 C 230.162 2.85151 2.20728 0
M  V30 2457 O 229.266 2.51238 3.27037 0
M  V30 2458 H 228.607 0.568927 0.342372 0
M  V30 2459 H 231.137 1.99131 0.469891 0
M  V30 2460 H 231.147 3.10279 2.64936 0
M  V30 2461 H 229.822 3.78603 1.7214 0
M  V30 2462 H 228.399 2.36808 2.88057 0
M  V30 2463 N 230.584 -0.659388 1.43143 0
M  V30 2464 C 231.531 -1.77249 1.47822 0
M  V30 2465 C 232.501 -1.62818 0.328558 0
M  V30 2466 O 233.686 -1.83151 0.534838 0
M  V30 2467 C 230.826 -3.15371 1.40126 0
M  V30 2468 C 229.939 -3.4098 2.65249 0
M  V30 2469 C 229.074 -4.68915 2.49584 0
M  V30 2470 C 228.113 -4.87608 3.70006 0
M  V30 2471 N 227.25 -6.06796 3.53189 0
M  V30 2472 H 232.09 -1.72584 2.42938 0
M  V30 2473 H 229.627 -0.842297 1.20598 0
M  V30 2474 H 231.585 -3.9521 1.33659 0
M  V30 2475 H 230.215 -3.19121 0.485964 0
M  V30 2476 H 229.267 -2.55282 2.8202 0
M  V30 2477 H 230.579 -3.50681 3.54717 0
M  V30 2478 H 229.733 -5.56871 2.4079 0
M  V30 2479 H 228.472 -4.61524 1.5763 0
M  V30 2480 H 227.477 -3.9809 3.79215 0
M  V30 2481 H 228.702 -4.96834 4.62961 0
M  V30 2482 H 226.648 -6.00549 2.63965 0
M  V30 2483 H 226.565 -6.17428 4.36255 0
M  V30 2484 H 227.833 -6.9739 3.48236 0
M  V30 2485 N 232.062 -1.29571 -0.897171 0
M  V30 2486 C 233.009 -1.14916 -2.00158 0
M  V30 2487 C 233.979 -0.0418149 -1.66047 0
M  V30 2488 O 235.164 -0.209793 -1.89643 0
M  V30 2489 C 232.304 -0.834307 -3.34863 0
M  V30 2490 C 231.417 -2.02234 -3.8174 0
M  V30 2491 C 230.552 -1.64664 -5.05034 0
M  V30 2492 C 229.591 -2.80033 -5.44286 0
M  V30 2493 N 228.728 -2.42843 -6.58765 0
M  V30 2494 H 233.568 -2.09403 -2.12025 0
M  V30 2495 H 231.105 -1.042 -1.0383 0
M  V30 2496 H 233.063 -0.632436 -4.12379 0
M  V30 2497 H 231.693 0.0736656 -3.22716 0
M  V30 2498 H 230.745 -2.33583 -3.00238 0
M  V30 2499 H 232.057 -2.88673 -4.06779 0
M  V30 2500 H 231.211 -1.4078 -5.9014 0
M  V30 2501 H 229.95 -0.753766 -4.8184 0
M  V30 2502 H 228.955 -3.04596 -4.57713 0
M  V30 2503 H 230.18 -3.69989 -5.6946 0
M  V30 2504 H 228.126 -1.56046 -6.3717 0
M  V30 2505 H 228.043 -3.22815 -6.83613 0
M  V30 2506 H 229.311 -2.22285 -7.47134 0
M  V30 2507 N 233.54 1.10788 -1.12088 0
M  V30 2508 C 234.817 1.79136 -0.785476 0
M  V30 2509 C 235.197 1.98246 0.725377 0
M  V30 2510 O 234.545 1.57258 1.65778 0
M  V30 2511 C 234.755 3.12375 -1.55636 0
M  V30 2512 C 236.103 3.8731 -1.74001 0
M  V30 2513 O 237.127 3.22085 -1.52117 0
M  V30 2514 O 235.986 5.04369 -2.10415 0
M  V30 2515 H 233.08 0.776226 -0.285311 0
M  V30 2516 H 235.626 1.1747 -1.2247 0
M  V30 2517 H 234.398 2.93863 -2.5838 0
M  V30 2518 H 234.021 3.81758 -1.11114 0
M  V30 2519 N 235.018 0.912232 1.28515 0
M  V30 2520 C 236.434 0.610159 1.47476 0
M  V30 2521 C 236.634 -0.844955 1.82928 0
M  V30 2522 O 235.69 -1.62416 1.93332 0
M  V30 2523 C 237.003 1.54675 2.57868 0
M  V30 2524 C 238.551 1.55331 2.71738 0
M  V30 2525 C 239.026 2.47649 3.85272 0
M  V30 2526 N 240.517 2.45767 3.92623 0
M  V30 2527 C 241.252 3.13896 4.79851 0
M  V30 2528 N 240.748 3.9135 5.71679 0
M  V30 2529 N 242.541 3.02991 4.73448 0
M  V30 2530 H 234.692 1.85318 1.03783 0
M  V30 2531 H 236.955 0.794777 0.516753 0
M  V30 2532 H 236.661 2.5841 2.38574 0
M  V30 2533 H 236.535 1.27671 3.54937 0
M  V30 2534 H 238.922 0.52335 2.90422 0
M  V30 2535 H 239.003 1.86378 1.75205 0
M  V30 2536 H 238.647 3.50745 3.67342 0
M  V30 2537 H 238.577 2.13904 4.81199 0
M  V30 2538 H 241.068 1.89503 3.26951 0
M  V30 2539 H 241.381 4.40359 6.35062 0
M  V30 2540 H 239.726 3.95455 5.71524 0
M  V30 2541 H 242.917 2.41987 4.007 0
M  V30 2542 H 243.09 3.5636 5.41213 0
M  V30 2543 N 236.496 -1.42363 0.676048 0
M  V30 2544 C 237.742 -2.0182 0.199125 0
M  V30 2545 C 238.075 -1.53339 -1.19168 0
M  V30 2546 O 237.35 -0.736124 -1.80032 0
M  V30 2547 C 237.633 -3.59331 0.235144 0
M  V30 2548 C 237.486 -4.17989 1.66149 0
M  V30 2549 C 238.805 -4.3813 -0.41595 0
M  V30 2550 H 235.924 -0.733293 0.0738311 0
M  V30 2551 H 238.566 -1.69368 0.86107 0
M  V30 2552 H 236.716 -3.87109 -0.328487 0
M  V30 2553 H 238.388 -4.0116 2.27747 0
M  V30 2554 H 236.631 -3.7377 2.20178 0
M  V30 2555 H 237.302 -5.27126 1.63837 0
M  V30 2556 H 239.778 -4.16051 0.0638529 0
M  V30 2557 H 238.654 -5.47717 -0.360115 0
M  V30 2558 H 238.915 -4.16101 -1.49373 0
M  V30 2559 N 237.974 -0.419461 -1.51915 0
M  V30 2560 C 239.202 0.152136 -2.0634 0
M  V30 2561 C 239.617 1.37988 -1.28859 0
M  V30 2562 O 238.974 1.79243 -0.343232 0
M  V30 2563 C 239.025 0.492266 -3.58133 0
M  V30 2564 O 238.746 -0.686736 -4.32684 0
M  V30 2565 C 240.247 1.11648 -4.2901 0
M  V30 2566 H 237.467 0.0158325 -0.670813 0
M  V30 2567 H 240.011 -0.593394 -1.95702 0
M  V30 2568 H 238.166 1.18769 -3.68745 0
M  V30 2569 H 238.58 -0.400341 -5.2297 0
M  V30 2570 H 240.054 1.3046 -5.36362 0
M  V30 2571 H 240.531 2.09251 -3.86148 0
M  V30 2572 H 241.137 0.460958 -4.22795 0
M  V30 2573 N 239.452 1.56882 -0.150215 0
M  V30 2574 C 240.698 1.96518 0.500834 0
M  V30 2575 C 241.031 1.03527 1.64304 0
M  V30 2576 O 240.306 0.0782751 1.94342 0
M  V30 2577 C 240.589 3.45822 1.00395 0
M  V30 2578 C 240.442 4.49591 -0.136983 0
M  V30 2579 C 241.761 3.97704 1.88467 0
M  V30 2580 H 238.88 0.714535 0.18058 0
M  V30 2581 H 241.522 1.88577 -0.232091 0
M  V30 2582 H 239.672 3.5272 1.62851 0
M  V30 2583 H 241.344 4.5477 -0.77343 0
M  V30 2584 H 239.587 4.26441 -0.795652 0
M  V30 2585 H 240.258 5.51402 0.256815 0
M  V30 2586 H 242.734 3.93304 1.35834 0
M  V30 2587 H 241.61 5.0263 2.20578 0
M  V30 2588 H 241.871 3.40252 2.82279 0
M  V30 2589 N 240.93 -0.123565 1.57115 0
M  V30 2590 C 242.176 -0.833386 1.84885 0
M  V30 2591 C 242.509 -1.79742 0.735292 0
M  V30 2592 O 241.784 -1.92764 -0.25925 0
M  V30 2593 C 242.067 -1.5873 3.23228 0
M  V30 2594 C 241.92 -0.643183 4.45178 0
M  V30 2595 C 243.239 -2.54453 3.59085 0
M  V30 2596 H 240.358 -0.301518 0.6725 0
M  V30 2597 H 243 -0.097778 1.89748 0
M  V30 2598 H 241.15 -2.21438 3.19214 0
M  V30 2599 H 242.822 -0.0253015 4.61293 0
M  V30 2600 H 241.065 0.0456139 4.33776 0
M  V30 2601 H 241.736 -1.20724 5.38637 0
M  V30 2602 H 244.212 -2.01853 3.63861 0
M  V30 2603 H 243.088 -3.04238 4.5687 0
M  V30 2604 H 243.349 -3.36906 2.86264 0
M  V30 2605 N 242.408 -1.52605 -0.393616 0
M  V30 2606 C 243.655 -1.67424 -1.1391 0
M  V30 2607 C 243.983 -0.411859 -1.90089 0
M  V30 2608 O 243.238 0.605626 -1.86093 0
M  V30 2609 C 243.537 -2.85721 -2.14705 0
M  V30 2610 C 243.203 -4.23342 -1.55218 0
M  V30 2611 C 241.865 -4.60771 -1.3872 0
M  V30 2612 C 244.217 -5.09041 -1.11924 0
M  V30 2613 C 241.545 -5.81563 -0.774689 0
M  V30 2614 C 243.897 -6.30452 -0.520853 0
M  V30 2615 C 242.561 -6.66617 -0.343134 0
M  V30 2616 H 241.831 -0.612648 -0.416826 0
M  V30 2617 H 244.478 -1.8674 -0.424315 0
M  V30 2618 H 242.783 -2.60803 -2.92385 0
M  V30 2619 H 244.48 -2.94382 -2.72288 0
M  V30 2620 H 241.07 -3.93855 -1.69045 0
M  V30 2621 H 245.254 -4.80695 -1.23473 0
M  V30 2622 H 240.51 -6.08196 -0.625154 0
M  V30 2623 H 244.684 -6.96175 -0.177065 0
M  V30 2624 H 242.311 -7.60083 0.133571 0
M  V30 2625 N 243.887 0.651787 -1.4349 0
M  V30 2626 C 245.112 1.44434 -1.48841 0
M  V30 2627 C 245.537 1.8779 -0.107955 0
M  V30 2628 O 244.895 1.57464 0.898602 0
M  V30 2629 C 244.943 2.65458 -2.44059 0
M  V30 2630 O 244.047 3.64566 -1.92784 0
M  V30 2631 H 243.388 0.433005 -0.503391 0
M  V30 2632 H 245.918 0.797451 -1.88419 0
M  V30 2633 H 245.928 3.13255 -2.6141 0
M  V30 2634 H 244.603 2.33244 -3.4434 0
M  V30 2635 H 243.18 3.23716 -1.851 0
M  V30 2636 N 245.365 1.30045 0.890287 0
M  V30 2637 C 246.593 1.21472 1.67487 0
M  V30 2638 C 247.008 -0.223241 1.87476 0
M  V30 2639 O 246.365 -1.14828 1.41847 0
M  V30 2640 C 246.416 1.93394 3.05419 0
M  V30 2641 O 246.137 3.31576 2.86337 0
M  V30 2642 C 247.638 1.91414 3.99844 0
M  V30 2643 H 244.858 0.420604 0.522813 0
M  V30 2644 H 247.402 1.7158 1.11268 0
M  V30 2645 H 245.557 1.47099 3.58386 0
M  V30 2646 H 245.971 3.67929 3.73802 0
M  V30 2647 H 247.445 2.46285 4.94012 0
M  V30 2648 H 247.922 0.891833 4.3005 0
M  V30 2649 H 248.528 2.37496 3.52811 0
M  V30 2650 N 246.843 -1.10192 1.12674 0
M  V30 2651 C 248.089 -1.82475 0.884915 0
M  V30 2652 C 248.422 -1.85093 -0.58773 0
M  V30 2653 O 247.697 -1.3134 -1.43457 0
M  V30 2654 C 247.98 -3.29018 1.46353 0
M  V30 2655 C 247.833 -3.34718 3.00473 0
M  V30 2656 C 249.152 -4.25473 1.12519 0
M  V30 2657 H 246.271 -0.662492 0.322915 0
M  V30 2658 H 248.913 -1.2913 1.39375 0
M  V30 2659 H 247.063 -3.74576 1.03077 0
M  V30 2660 H 248.735 -2.97622 3.52447 0
M  V30 2661 H 246.978 -2.74541 3.35872 0
M  V30 2662 H 247.649 -4.37918 3.36053 0
M  V30 2663 H 250.125 -3.88161 1.499 0
M  V30 2664 H 249.001 -5.26365 1.55663 0
M  V30 2665 H 249.262 -4.42084 0.0377407 0
M  V30 2666 N 248.321 -0.919034 -1.28029 0
M  V30 2667 C 249.568 -0.554934 -1.94748 0
M  V30 2668 C 249.896 0.90231 -1.72304 0
M  V30 2669 O 249.151 1.65767 -1.04018 0
M  V30 2670 C 249.45 -0.816855 -3.4794 0
M  V30 2671 C 249.116 -2.25448 -3.90492 0
M  V30 2672 C 247.778 -2.64752 -4.01821 0
M  V30 2673 C 250.13 -3.18977 -4.12193 0
M  V30 2674 C 247.458 -3.96727 -4.32232 0
M  V30 2675 C 249.81 -4.50523 -4.44086 0
M  V30 2676 C 248.474 -4.89673 -4.53626 0
M  V30 2677 H 247.744 -0.203065 -0.712633 0
M  V30 2678 H 250.391 -1.16136 -1.52265 0
M  V30 2679 H 248.696 -0.127677 -3.91592 0
M  V30 2680 H 250.393 -0.514238 -3.97689 0
M  V30 2681 H 246.983 -1.93952 -3.82205 0
M  V30 2682 H 251.167 -2.89817 -4.02889 0
M  V30 2683 H 246.423 -4.26754 -4.37825 0
M  V30 2684 H 250.597 -5.23005 -4.59825 0
M  V30 2685 H 248.224 -5.91969 -4.76946 0
M  V30 2686 N 249.799 1.42003 -0.683588 0
M  V30 2687 C 250.746 2.30798 -0.0107309 0
M  V30 2688 C 251.716 1.4645 0.783688 0
M  V30 2689 O 252.901 1.75263 0.754156 0
M  V30 2690 C 250.041 3.3238 0.928306 0
M  V30 2691 C 249.154 4.31814 0.126776 0
M  V30 2692 C 248.289 5.20468 1.06236 0
M  V30 2693 C 247.328 6.11577 0.253035 0
M  V30 2694 N 246.465 6.92754 1.14179 0
M  V30 2695 H 251.305 2.8778 -0.773727 0
M  V30 2696 H 248.842 1.41745 -0.393283 0
M  V30 2697 H 250.8 3.89813 1.48666 0
M  V30 2698 H 249.43 2.76976 1.65783 0
M  V30 2699 H 248.482 3.76427 -0.54833 0
M  V30 2700 H 249.794 4.96276 -0.501192 0
M  V30 2701 H 248.948 5.82677 1.69035 0
M  V30 2702 H 247.687 4.56204 1.7242 0
M  V30 2703 H 246.692 5.48428 -0.388108 0
M  V30 2704 H 247.917 6.77892 -0.404839 0
M  V30 2705 H 245.863 6.3111 1.78987 0
M  V30 2706 H 245.78 7.53855 0.569111 0
M  V30 2707 H 247.048 7.59441 1.75697 0
M  V30 2708 N 251.277 0.427512 1.51691 0
M  V30 2709 C 252.554 -0.201684 1.94557 0
M  V30 2710 C 252.934 -1.60981 1.36559 0
M  V30 2711 O 252.282 -2.21814 0.548702 0
M  V30 2712 C 252.492 -0.189394 3.48486 0
M  V30 2713 C 253.84 -0.39978 4.22714 0
M  V30 2714 O 254.864 -0.267945 3.55191 0
M  V30 2715 O 253.723 -0.661249 5.42485 0
M  V30 2716 H 250.817 -0.135261 0.815864 0
M  V30 2717 H 253.363 0.484782 1.62628 0
M  V30 2718 H 252.135 0.795431 3.8313 0
M  V30 2719 H 251.758 -0.919187 3.86829 0
M  V30 2720 N 252.755 -1.56801 0.158532 0
M  V30 2721 C 254.032 -1.88131 -0.535357 0
M  V30 2722 C 254.412 -1.06638 -1.82186 0
M  V30 2723 O 253.76 -0.156533 -2.27963 0
M  V30 2724 C 253.97 -3.39949 -0.789653 0
M  V30 2725 C 255.318 -4.09416 -1.12533 0
M  V30 2726 O 256.342 -3.45194 -0.878622 0
M  V30 2727 O 255.201 -5.22855 -1.59014 0
M  V30 2728 H 252.295 -0.780143 -0.27442 0
M  V30 2729 H 254.841 -1.68564 0.19601 0
M  V30 2730 H 253.613 -3.91115 0.120353 0
M  V30 2731 H 253.236 -3.65084 -1.57479 0
M  V30 2732 N 254.233 0.115231 -1.57178 0
M  V30 2733 C 255.51 0.852873 -1.76027 0
M  V30 2734 C 255.89 1.97892 -0.73498 0
M  V30 2735 O 255.238 2.27232 0.24036 0
M  V30 2736 C 255.448 1.36608 -3.21153 0
M  V30 2737 C 256.796 1.81692 -3.83762 0
M  V30 2738 O 257.82 1.46278 -3.24779 0
M  V30 2739 O 256.679 2.47104 -4.87444 0
M  V30 2740 H 253.773 0.405296 -0.720877 0
M  V30 2741 H 256.319 0.0986785 -1.69413 0
M  V30 2742 H 255.091 0.558357 -3.87296 0
M  V30 2743 H 254.714 2.18287 -3.3232 0
M  V30 2744 N 255.711 1.52812 0.385517 0
M  V30 2745 C 256.988 1.5861 1.14465 0
M  V30 2746 C 257.368 0.381402 2.07626 0
M  V30 2747 O 256.716 -0.629999 2.19643 0
M  V30 2748 C 256.926 2.92664 1.90128 0
M  V30 2749 C 258.274 3.46526 2.45367 0
M  V30 2750 O 259.298 2.94562 2.0028 0
M  V30 2751 O 258.157 4.37323 3.27736 0
M  V30 2752 H 255.251 0.639855 0.523941 0
M  V30 2753 H 257.797 1.65149 0.390389 0
M  V30 2754 H 256.569 3.71788 1.22022 0
M  V30 2755 H 256.192 2.89527 2.72507 0
M  V30 2756 N 257.189 -0.644168 1.43834 0
M  V30 2757 C 258.435 -1.40603 1.46146 0
M  V30 2758 C 258.768 -1.93997 0.0887717 0
M  V30 2759 O 258.043 -1.72854 -0.891724 0
M  V30 2760 C 258.326 -2.58086 2.51124 0
M  V30 2761 C 258.179 -2.10126 3.97702 0
M  V30 2762 C 259.498 -3.60291 2.52742 0
M  V30 2763 H 256.617 -0.509905 0.532134 0
M  V30 2764 H 259.259 -0.729502 1.75437 0
M  V30 2765 H 257.409 -3.15801 2.26278 0
M  V30 2766 H 259.081 -1.57342 4.33637 0
M  V30 2767 H 257.324 -1.41419 4.10101 0
M  V30 2768 H 257.995 -2.94649 4.66783 0
M  V30 2769 H 260.471 -3.12352 2.7491 0
M  V30 2770 H 259.347 -4.40032 3.28121 0
M  V30 2771 H 259.608 -4.1349 1.56455 0
M  V30 2772 N 258.668 -1.30515 -0.883378 0
M  V30 2773 C 259.914 -1.19607 -1.63774 0
M  V30 2774 C 260.247 0.248314 -1.92606 0
M  V30 2775 O 259.522 1.17742 -1.54813 0
M  V30 2776 C 259.805 -2.02669 -2.97653 0
M  V30 2777 C 259.658 -3.55335 -2.75784 0
M  V30 2778 C 260.977 -1.86573 -3.98596 0
M  V30 2779 H 258.096 -0.435856 -0.594305 0
M  V30 2780 H 260.738 -1.60165 -1.02212 0
M  V30 2781 H 258.888 -1.68208 -3.50197 0
M  V30 2782 H 260.56 -3.99863 -2.30016 0
M  V30 2783 H 258.803 -3.79438 -2.1026 0
M  V30 2784 H 259.474 -4.08745 -3.70988 0
M  V30 2785 H 261.95 -2.16703 -3.55217 0
M  V30 2786 H 260.826 -2.47014 -4.90179 0
M  V30 2787 H 261.087 -0.825321 -4.34328 0
M  V30 2788 N 260.146 1.09593 -1.13257 0
M  V30 2789 C 261.395 1.81105 -0.887917 0
M  V30 2790 C 261.708 1.86563 0.587672 0
M  V30 2791 O 262.914 2.54367 0.949204 0
M  V30 2792 C 261.37 3.25338 -1.53895 0
M  V30 2793 C 260.978 3.28151 -3.04994 0
M  V30 2794 C 262.722 4.01617 -1.37492 0
M  V30 2795 C 260.629 4.66897 -3.6299 0
M  V30 2796 H 259.559 0.678661 -0.328534 0
M  V30 2797 H 262.21 1.23183 -1.36008 0
M  V30 2798 H 260.592 3.8331 -0.994446 0
M  V30 2799 H 261.766 2.79953 -3.66009 0
M  V30 2800 H 260.081 2.65361 -3.20893 0
M  V30 2801 H 262.678 5.04119 -1.78235 0
M  V30 2802 H 263.021 4.15072 -0.31957 0
M  V30 2803 H 263.554 3.50082 -1.88912 0
M  V30 2804 H 260.293 4.58643 -4.68323 0
M  V30 2805 H 259.813 5.15426 -3.06752 0
M  V30 2806 H 261.492 5.3587 -3.62563 0
M  V30 2807 N 261.624 0.925811 1.2754 0
M  V30 2808 C 262.872 0.564138 1.94067 0
M  V30 2809 C 263.193 -0.897188 1.73134 0
M  V30 2810 O 262.463 -1.63573 1.07799 0
M  V30 2811 H 261.043 0.205645 0.718136 0
M  V30 2812 H 263.705 1.1778 1.55287 0
M  V30 2813 H 262.801 0.76881 3.02483 0
M  V30 2814 N 263.102 -1.41638 0.69111 0
M  V30 2815 C 264.049 -2.30789 0.0229705 0
M  V30 2816 C 265.019 -1.46863 -0.775911 0
M  V30 2817 O 266.204 -1.75661 -0.74485 0
M  V30 2818 C 263.344 -3.32868 -0.910666 0
M  V30 2819 C 262.457 -4.31875 -0.103874 0
M  V30 2820 C 261.592 -5.21024 -1.03475 0
M  V30 2821 C 260.631 -6.11702 -0.220598 0
M  V30 2822 N 259.768 -6.93349 -1.10504 0
M  V30 2823 H 264.608 -2.87366 0.788978 0
M  V30 2824 H 262.145 -1.41535 0.400794 0
M  V30 2825 H 264.103 -3.90596 -1.46597 0
M  V30 2826 H 262.733 -2.77851 -1.64312 0
M  V30 2827 H 261.785 -3.76131 0.568285 0
M  V30 2828 H 263.097 -4.96003 0.527504 0
M  V30 2829 H 262.251 -5.83565 -1.65943 0
M  V30 2830 H 260.99 -4.57112 -1.69999 0
M  V30 2831 H 259.995 -5.48215 0.417187 0
M  V30 2832 H 261.22 -6.77668 0.440784 0
M  V30 2833 H 259.166 -6.3205 -1.75638 0
M  V30 2834 H 259.083 -7.54146 -0.529125 0
M  V30 2835 H 260.351 -7.60362 -1.71667 0
M  V30 2836 N 264.58 -0.43555 -1.51462 0
M  V30 2837 C 265.826 0.131709 -2.02372 0
M  V30 2838 C 266.159 1.42516 -1.3192 0
M  V30 2839 O 265.434 1.89606 -0.433573 0
M  V30 2840 C 265.717 0.352301 -3.58373 0
M  V30 2841 C 265.57 -0.959676 -4.39443 0
M  V30 2842 C 266.889 1.12286 -4.25535 0
M  V30 2843 H 264.008 0.0463936 -0.735538 0
M  V30 2844 H 266.65 -0.574197 -1.81116 0
M  V30 2845 H 264.8 0.9536 -3.76615 0
M  V30 2846 H 266.472 -1.59482 -4.32855 0
M  V30 2847 H 264.715 -1.56468 -4.04599 0
M  V30 2848 H 265.386 -0.759394 -5.46752 0
M  V30 2849 H 267.862 0.613545 -4.11552 0
M  V30 2850 H 266.738 1.24598 -5.34571 0
M  V30 2851 H 266.999 2.15048 -3.86273 0
M  V30 2852 N 266.058 1.56714 -0.166846 0
M  V30 2853 C 267.305 1.96747 0.479252 0
M  V30 2854 C 267.633 1.05263 1.63554 0
M  V30 2855 O 266.888 0.0858098 1.95512 0
M  V30 2856 C 267.187 3.42889 1.00806 0
M  V30 2857 C 266.853 4.50889 -0.0318574 0
M  V30 2858 C 265.515 4.8015 -0.317675 0
M  V30 2859 C 267.867 5.15949 -0.737956 0
M  V30 2860 C 265.195 5.71772 -1.31506 0
M  V30 2861 C 267.547 6.08647 -1.72429 0
M  V30 2862 C 266.211 6.36277 -2.0176 0
M  V30 2863 H 265.481 0.719949 0.175371 0
M  V30 2864 H 268.128 1.89756 -0.257864 0
M  V30 2865 H 266.433 3.4681 1.82291 0
M  V30 2866 H 268.13 3.71203 1.51689 0
M  V30 2867 H 264.72 4.28128 0.201088 0
M  V30 2868 H 268.904 4.93458 -0.530351 0
M  V30 2869 H 264.16 5.91465 -1.54853 0
M  V30 2870 H 268.334 6.58129 -2.27682 0
M  V30 2871 H 265.961 7.07075 -2.79194 0
M  V30 2872 N 267.536 -0.106894 1.57237 0
M  V30 2873 C 268.469 -1.16125 1.96444 0
M  V30 2874 C 269.447 -1.3947 0.835871 0
M  V30 2875 O 270.631 -1.53425 1.09513 0
M  V30 2876 C 267.758 -2.51277 2.27107 0
M  V30 2877 C 266.804 -2.44285 3.4961 0
M  V30 2878 S 267.637 -1.87077 5.01759 0
M  V30 2879 C 268.793 -3.23877 5.35588 0
M  V30 2880 H 269.026 -0.826971 2.85567 0
M  V30 2881 H 266.559 -0.314124 1.51171 0
M  V30 2882 H 268.517 -3.29035 2.45451 0
M  V30 2883 H 267.178 -2.81879 1.38576 0
M  V30 2884 H 266.371 -3.4387 3.68469 0
M  V30 2885 H 265.973 -1.74652 3.30715 0
M  V30 2886 H 268.265 -4.20122 5.31511 0
M  V30 2887 H 269.208 -3.09833 6.36717 0
M  V30 2888 H 269.616 -3.22864 4.63054 0
M  V30 2889 N 269.014 -1.53014 -0.377408 0
M  V30 2890 C 269.946 -1.74884 -1.48149 0
M  V30 2891 C 270.959 -0.629433 -1.5014 0
M  V30 2892 O 272.148 -0.905416 -1.53833 0
M  V30 2893 C 269.248 -1.80299 -2.86959 0
M  V30 2894 C 268.421 -3.09776 -3.08801 0
M  V30 2895 C 267.48 -3.06586 -4.27658 0
M  V30 2896 O 266.506 -3.80419 -4.23403 0
M  V30 2897 N 267.708 -2.26578 -5.34455 0
M  V30 2898 H 270.473 -2.70147 -1.29771 0
M  V30 2899 H 268.034 -1.51646 -0.56703 0
M  V30 2900 H 270.026 -1.75657 -3.64591 0
M  V30 2901 H 268.596 -0.92372 -2.98641 0
M  V30 2902 H 267.816 -3.27815 -2.18931 0
M  V30 2903 H 269.104 -3.95366 -3.20255 0
M  V30 2904 H 268.502 -1.66081 -5.40771 0
M  V30 2905 H 267.059 -2.27766 -6.10709 0
M  V30 2906 N 270.492 0.636531 -1.44174 0
M  V30 2907 C 271.402 1.77754 -1.53103 0
M  V30 2908 C 272.418 1.68928 -0.417034 0
M  V30 2909 O 273.594 1.89801 -0.6736 0
M  V30 2910 C 270.659 3.14115 -1.46741 0
M  V30 2911 C 269.72 3.34612 -2.68948 0
M  V30 2912 C 268.953 4.64467 -2.6288 0
M  V30 2913 O 269.176 5.44919 -1.68581 0
M  V30 2914 O 268.11 4.87049 -3.53648 0
M  V30 2915 H 271.936 1.73174 -2.49489 0
M  V30 2916 H 269.521 0.79709 -1.2636 0
M  V30 2917 H 271.403 3.95412 -1.45696 0
M  V30 2918 H 270.078 3.19249 -0.534975 0
M  V30 2919 H 268.985 2.53014 -2.75562 0
M  V30 2920 H 270.318 3.34336 -3.61221 0
M  V30 2921 N 271.97 1.30982 0.876444 0
M  V30 2922 C 273.217 1.20296 1.62896 0
M  V30 2923 C 273.545 -0.240395 1.93009 0
M  V30 2924 O 272.8 -1.18733 1.55567 0
M  V30 2925 C 273.099 1.98572 2.9716 0
M  V30 2926 C 272.765 3.48125 2.86566 0
M  V30 2927 C 271.427 3.88905 2.83383 0
M  V30 2928 C 273.779 4.43322 2.74071 0
M  V30 2929 C 271.107 5.2316 2.65556 0
M  V30 2930 C 273.459 5.77695 2.57781 0
M  V30 2931 C 272.123 6.17704 2.52979 0
M  V30 2932 H 271.393 0.440193 0.59608 0
M  V30 2933 H 274.04 1.62177 1.01837 0
M  V30 2934 H 272.345 1.49352 3.62217 0
M  V30 2935 H 274.042 1.8769 3.54364 0
M  V30 2936 H 270.632 3.15723 2.89856 0
M  V30 2937 H 274.816 4.12752 2.75589 0
M  V30 2938 H 270.072 5.53241 2.60259 0
M  V30 2939 H 274.246 6.51091 2.47089 0
M  V30 2940 H 271.873 7.21678 2.38924 0
M  V30 2941 N 273.449 -1.08991 1.13837 0
M  V30 2942 C 274.396 -2.15748 0.819835 0
M  V30 2943 C 275.366 -1.64636 -0.220026 0
M  V30 2944 O 276.551 -1.90582 -0.0912757 0
M  V30 2945 C 273.691 -3.4382 0.296913 0
M  V30 2946 C 272.804 -4.0881 1.39636 0
M  V30 2947 C 271.939 -5.24655 0.831314 0
M  V30 2948 C 270.978 -5.81575 1.90886 0
M  V30 2949 N 270.115 -6.88774 1.36142 0
M  V30 2950 H 274.955 -2.42338 1.73426 0
M  V30 2951 H 272.492 -1.18935 0.865613 0
M  V30 2952 H 274.45 -4.17193 -0.0244339 0
M  V30 2953 H 273.08 -3.17535 -0.580628 0
M  V30 2954 H 272.132 -3.33258 1.83422 0
M  V30 2955 H 273.444 -4.47141 2.21058 0
M  V30 2956 H 272.598 -6.04942 0.461515 0
M  V30 2957 H 271.337 -4.87698 -0.013932 0
M  V30 2958 H 270.342 -4.99946 2.28767 0
M  V30 2959 H 271.567 -6.20592 2.75758 0
M  V30 2960 H 269.513 -6.53788 0.538254 0
M  V30 2961 H 269.43 -7.25898 2.11208 0
M  V30 2962 H 270.698 -7.72806 1.01933 0
M  V30 2963 N 274.927 -0.932562 -1.27047 0
M  V30 2964 C 275.837 -0.441219 -2.30414 0
M  V30 2965 C 276.853 0.480525 -1.67233 0
M  V30 2966 O 278.029 0.362151 -1.98117 0
M  V30 2967 C 275.094 0.293651 -3.45454 0
M  V30 2968 C 274.155 -0.663601 -4.2414 0
M  V30 2969 C 273.388 0.0362932 -5.33688 0
M  V30 2970 O 273.611 1.2548 -5.56427 0
M  V30 2971 O 272.545 -0.638015 -5.98509 0
M  V30 2972 H 276.371 -1.29962 -2.74488 0
M  V30 2973 H 273.956 -0.6981 -1.32087 0
M  V30 2974 H 275.838 0.707951 -4.15411 0
M  V30 2975 H 274.513 1.12758 -3.03426 0
M  V30 2976 H 273.42 -1.12768 -3.56699 0
M  V30 2977 H 274.753 -1.46489 -4.69896 0
M  V30 2978 N 276.405 1.4127 -0.698611 0
M  V30 2979 C 277.653 2.00782 -0.230409 0
M  V30 2980 C 277.974 1.5562 1.17505 0
M  V30 2981 O 277.244 0.78815 1.79346 0
M  V30 2982 H 275.824 0.742464 -0.0821944 0
M  V30 2983 H 278.486 1.72852 -0.90045 0
M  V30 2984 H 277.582 3.11095 -0.25021 0
M  V30 2985 N 277.883 0.443576 1.51229 0
M  V30 2986 C 279.299 0.0962001 1.5931 0
M  V30 2987 C 279.499 -1.39501 1.45402 0
M  V30 2988 O 278.555 -2.16557 1.29843 0
M  V30 2989 C 279.868 0.621875 2.94199 0
M  V30 2990 C 281.416 0.582865 3.07525 0
M  V30 2991 C 281.891 1.08562 4.44948 0
M  V30 2992 N 283.382 1.04387 4.51284 0
M  V30 2993 C 284.117 1.40368 5.55954 0
M  V30 2994 N 283.613 1.83664 6.68011 0
M  V30 2995 N 285.406 1.32145 5.46346 0
M  V30 2996 H 277.557 1.41376 1.58514 0
M  V30 2997 H 279.82 0.582965 0.747567 0
M  V30 2998 H 279.526 1.66546 3.09767 0
M  V30 2999 H 279.4 0.0502125 3.77167 0
M  V30 3000 H 281.787 -0.451749 2.91622 0
M  V30 3001 H 281.868 1.191 2.26382 0
M  V30 3002 H 281.512 2.11873 4.61598 0
M  V30 3003 H 281.442 0.453956 5.2464 0
M  V30 3004 H 283.933 0.725986 3.70861 0
M  V30 3005 H 284.246 2.0934 7.43906 0
M  V30 3006 H 282.591 1.87596 6.69203 0
M  V30 3007 H 285.782 0.981808 4.57688 0
M  V30 3008 H 285.955 1.60514 6.27805 0
M  V30 3009 N 279.361 -1.56624 0.175154 0
M  V30 3010 C 280.777 -1.58571 -0.180966 0
M  V30 3011 C 280.977 -1.19065 -1.6256 0
M  V30 3012 O 280.033 -0.904044 -2.35761 0
M  V30 3013 C 281.346 -3.00522 0.103326 0
M  V30 3014 C 282.894 -3.12972 0.0418426 0
M  V30 3015 C 283.369 -4.57022 0.299175 0
M  V30 3016 N 284.86 -4.62541 0.247086 0
M  V30 3017 C 285.595 -5.71857 0.420318 0
M  V30 3018 N 285.091 -6.89717 0.652816 0
M  V30 3019 N 286.884 -5.60972 0.355957 0
M  V30 3020 H 279.035 -1.80589 1.11809 0
M  V30 3021 H 281.298 -0.837178 0.444788 0
M  V30 3022 H 281.004 -3.33916 1.10422 0
M  V30 3023 H 280.878 -3.72344 -0.603299 0
M  V30 3024 H 283.265 -2.79403 -0.949636 0
M  V30 3025 H 283.346 -2.43578 0.781238 0
M  V30 3026 H 282.99 -4.913 1.28788 0
M  V30 3027 H 282.92 -5.24579 -0.460876 0
M  V30 3028 H 285.411 -3.77829 0.0731895 0
M  V30 3029 H 285.724 -7.68911 0.774347 0
M  V30 3030 H 284.069 -6.91572 0.689476 0
M  V30 3031 H 287.26 -4.67773 0.174882 0
M  V30 3032 H 287.433 -6.46111 0.494388 0
M  V30 3033 N 280.839 0.0985539 -1.57292 0
M  V30 3034 C 281.802 1.10402 -2.00858 0
M  V30 3035 C 282.802 1.33146 -0.901593 0
M  V30 3036 O 283.992 1.29318 -1.16716 0
M  V30 3037 C 281.124 2.45394 -2.36632 0
M  V30 3038 H 282.317 0.729099 -2.90902 0
M  V30 3039 H 279.87 0.343495 -1.52479 0
M  V30 3040 H 280.605 2.87769 -1.49531 0
M  V30 3041 H 280.39 2.30235 -3.17387 0
M  V30 3042 H 281.88 3.17718 -2.71007 0
M  V30 3043 N 282.317 1.53212 0.369288 0
M  V30 3044 C 283.542 1.73423 1.1375 0
M  V30 3045 C 283.967 0.460404 1.82378 0
M  V30 3046 O 283.325 -0.585298 1.71592 0
M  V30 3047 C 283.373 2.89769 2.1463 0
M  V30 3048 O 282.477 2.58119 3.21634 0
M  V30 3049 H 281.818 0.576061 0.330227 0
M  V30 3050 H 284.348 2.00083 0.427547 0
M  V30 3051 H 284.358 3.15829 2.58294 0
M  V30 3052 H 283.033 3.8217 1.64071 0
M  V30 3053 H 281.61 2.42864 2.82969 0
M  V30 3054 N 283.795 -0.628877 1.44509 0
M  V30 3055 C 284.745 -1.7345 1.47983 0
M  V30 3056 C 285.729 -1.5715 0.345373 0
M  V30 3057 O 286.921 -1.66848 0.590829 0
M  V30 3058 C 284.05 -3.12143 1.42904 0
M  V30 3059 C 283.136 -3.33906 2.61472 0
M  V30 3060 N 283.527 -3.26024 3.86706 0
M  V30 3061 C 281.825 -3.64709 2.56716 0
M  V30 3062 C 282.526 -3.48536 4.65722 0
M  V30 3063 N 281.502 -3.71517 3.96832 0
M  V30 3064 H 285.304 -1.65818 2.42655 0
M  V30 3065 H 282.818 -0.831419 1.39503 0
M  V30 3066 H 284.815 -3.91433 1.43476 0
M  V30 3067 H 283.475 -3.2094 0.492717 0
M  V30 3068 H 284.486 -3.04893 4.18641 0
M  V30 3069 H 281.163 -3.80473 1.71891 0
M  V30 3070 H 282.553 -3.48016 5.74747 0
M  V30 3071 N 285.273 -1.31445 -0.869486 0
M  V30 3072 C 286.501 -1.24122 -1.65534 0
M  V30 3073 C 286.916 0.193387 -1.87807 0
M  V30 3074 O 286.273 1.12557 -1.43656 0
M  V30 3075 C 286.324 -1.98229 -3.02304 0
M  V30 3076 O 286.045 -3.3609 -2.81026 0
M  V30 3077 C 287.546 -1.97751 -3.96749 0
M  V30 3078 H 284.766 -0.428868 -0.516055 0
M  V30 3079 H 287.31 -1.73328 -1.08525 0
M  V30 3080 H 285.465 -1.52782 -3.56001 0
M  V30 3081 H 285.879 -3.7383 -3.67902 0
M  V30 3082 H 287.353 -2.54114 -4.90031 0
M  V30 3083 H 287.83 -0.960137 -4.28577 0
M  V30 3084 H 288.436 -2.43079 -3.48988 0
M  V30 3085 N 286.751 1.08385 -1.14413 0
M  V30 3086 C 287.714 2.13486 -0.834048 0
M  V30 3087 C 288.714 1.59988 0.161418 0
M  V30 3088 O 289.904 1.74071 -0.0669575 0
M  V30 3089 C 287.036 3.4003 -0.243354 0
M  V30 3090 H 288.229 2.42425 -1.7655 0
M  V30 3091 H 285.782 1.24101 -0.950189 0
M  V30 3092 H 286.517 3.16726 0.696807 0
M  V30 3093 H 286.302 3.80157 -0.960367 0
M  V30 3094 H 287.792 4.17577 -0.0436242 0
M  V30 3095 N 288.23 0.939286 1.26551 0
M  V30 3096 C 289.641 0.628782 1.75793 0
M  V30 3097 C 289.992 -0.856046 1.7654 0
M  V30 3098 O 289.117 -1.66994 1.3763 0
M  V30 3099 C 289.712 1.13465 3.19235 0
M  V30 3100 C 288.271 0.874601 3.66098 0
M  V30 3101 C 287.418 1.28667 2.45642 0
M  V30 3102 H 290.369 1.1178 1.12654 0
M  V30 3103 H 290.39 0.487609 3.77363 0
M  V30 3104 H 289.902 2.21535 3.1866 0
M  V30 3105 H 288.003 -0.191793 3.72106 0
M  V30 3106 H 288.116 1.50028 4.55004 0
M  V30 3107 H 286.48 0.705109 2.44745 0
M  V30 3108 H 287.263 2.37625 2.47769 0
M  V30 3109 N 289.708 -1.40897 0.706093 0
M  V30 3110 C 290.64 -2.29199 0.00815776 0
M  V30 3111 C 291.653 -1.45336 -0.733582 0
M  V30 3112 O 292.842 -1.68727 -0.582537 0
M  V30 3113 C 289.942 -3.23417 -1.01265 0
M  V30 3114 C 289.115 -4.36089 -0.338387 0
M  V30 3115 C 288.174 -5.10811 -1.26326 0
M  V30 3116 O 287.2 -5.64215 -0.751651 0
M  V30 3117 N 288.402 -5.19269 -2.595 0
M  V30 3118 H 291.167 -2.89738 0.766297 0
M  V30 3119 H 288.728 -1.52164 0.55296 0
M  V30 3120 H 290.72 -3.70276 -1.63334 0
M  V30 3121 H 289.29 -2.64112 -1.67223 0
M  V30 3122 H 288.51 -3.91479 0.462352 0
M  V30 3123 H 289.798 -5.08634 0.130031 0
M  V30 3124 H 289.196 -4.77347 -3.03573 0
M  V30 3125 H 287.753 -5.69667 -3.16737 0
M  V30 3126 N 291.186 -0.45159 -1.50991 0
M  V30 3127 C 292.432 0.110237 -2.025 0
M  V30 3128 C 292.765 1.41109 -1.33424 0
M  V30 3129 O 292.04 1.89135 -0.453659 0
M  V30 3130 C 292.323 0.314271 -3.58726 0
M  V30 3131 C 292.176 -1.00623 -4.38401 0
M  V30 3132 C 293.495 1.07767 -4.26702 0
M  V30 3133 H 290.614 0.0385897 -0.735989 0
M  V30 3134 H 293.256 -0.593374 -1.80497 0
M  V30 3135 H 291.406 0.913601 -3.77605 0
M  V30 3136 H 293.078 -1.64064 -4.31139 0
M  V30 3137 H 291.321 -1.6075 -4.02917 0
M  V30 3138 H 291.992 -0.817341 -5.45915 0
M  V30 3139 H 294.468 0.56986 -4.12179 0
M  V30 3140 H 293.344 1.18921 -5.35863 0
M  V30 3141 H 293.605 2.10939 -3.88532 0
M  V30 3142 N 292.664 1.56529 -0.183458 0
M  V30 3143 C 293.594 2.21549 0.737456 0
M  V30 3144 C 294.575 1.17489 1.23005 0
M  V30 3145 O 295.76 1.45959 1.281 0
M  V30 3146 C 292.89 2.86575 1.96194 0
M  V30 3147 C 291.844 3.96778 1.60473 0
M  V30 3148 C 291.17 4.48911 2.90487 0
M  V30 3149 C 292.47 5.15767 0.823497 0
M  V30 3150 H 294.164 2.98761 0.195453 0
M  V30 3151 H 291.71 1.43702 0.0925686 0
M  V30 3152 H 293.663 3.30739 2.61131 0
M  V30 3153 H 292.387 2.06749 2.52828 0
M  V30 3154 H 291.046 3.53286 0.978997 0
M  V30 3155 H 290.694 3.65862 3.45186 0
M  V30 3156 H 290.394 5.23265 2.67335 0
M  V30 3157 H 291.918 4.95771 3.56432 0
M  V30 3158 H 293.332 5.56549 1.37571 0
M  V30 3159 H 291.729 5.96114 0.690551 0
M  V30 3160 H 292.799 4.84574 -0.177782 0
M  V30 3161 N 294.142 -0.090211 1.57342 0
M  V30 3162 C 295.389 -0.792807 1.86335 0
M  V30 3163 C 295.717 -1.78494 0.772662 0
M  V30 3164 O 294.972 -1.94305 -0.233258 0
M  V30 3165 C 295.271 -1.55222 3.21933 0
M  V30 3166 C 294.937 -0.701765 4.45406 0
M  V30 3167 C 293.599 -0.467334 4.78925 0
M  V30 3168 C 295.951 -0.11086 5.21082 0
M  V30 3169 C 293.279 0.367785 5.85546 0
M  V30 3170 C 295.631 0.711609 6.28585 0
M  V30 3171 C 294.295 0.956086 6.60617 0
M  V30 3172 H 293.565 -0.290109 0.681849 0
M  V30 3173 H 296.212 -0.0541332 1.91423 0
M  V30 3174 H 294.517 -2.3626 3.12551 0
M  V30 3175 H 296.214 -2.10032 3.41595 0
M  V30 3176 H 292.804 -0.894598 4.1916 0
M  V30 3177 H 296.988 -0.279129 4.95514 0
M  V30 3178 H 292.244 0.566128 6.08773 0
M  V30 3179 H 296.418 1.17632 6.86393 0
M  V30 3180 H 294.045 1.60499 7.43064 0
M  V30 3181 N 295.62 -1.53406 -0.361157 0
M  V30 3182 C 296.845 -1.74024 -1.12829 0
M  V30 3183 C 297.27 -0.470069 -1.82132 0
M  V30 3184 O 296.628 0.57619 -1.719 0
M  V30 3185 C 296.676 -2.90903 -2.13091 0
M  V30 3186 O 295.78 -2.59821 -3.20261 0
M  V30 3187 H 295.121 -0.577804 -0.327168 0
M  V30 3188 H 297.651 -2.00307 -0.41693 0
M  V30 3189 H 297.661 -3.17194 -2.56616 0
M  V30 3190 H 296.336 -3.83034 -1.62042 0
M  V30 3191 H 294.913 -2.44362 -2.81677 0
M  V30 3192 N 297.098 0.621204 -1.44841 0
M  V30 3193 C 298.048 1.72663 -1.48901 0
M  V30 3194 C 299.032 1.56964 -0.353702 0
M  V30 3195 O 300.224 1.66532 -0.599669 0
M  V30 3196 C 297.353 3.11381 -1.44557 0
M  V30 3197 C 296.439 3.32514 -2.6324 0
M  V30 3198 N 296.83 3.23969 -3.8843 0
M  V30 3199 C 295.128 3.63343 -2.58647 0
M  V30 3200 C 295.829 3.46062 -4.67564 0
M  V30 3201 N 294.805 3.69407 -3.98797 0
M  V30 3202 H 298.607 1.64529 -2.43531 0
M  V30 3203 H 296.121 0.82401 -1.39942 0
M  V30 3204 H 298.118 3.90667 -1.4555 0
M  V30 3205 H 296.778 3.20674 -0.509731 0
M  V30 3206 H 297.789 3.02669 -4.20252 0
M  V30 3207 H 294.466 3.79556 -1.73906 0
M  V30 3208 H 295.856 3.44963 -5.76585 0
M  V30 3209 N 298.576 1.31904 0.862503 0
M  V30 3210 C 299.992 1.10724 1.14945 0
M  V30 3211 C 300.192 -0.117421 2.01158 0
M  V30 3212 O 299.248 -0.804595 2.39338 0
M  V30 3213 C 300.561 2.38267 1.83437 0
M  V30 3214 C 302.109 2.43949 1.96106 0
M  V30 3215 C 302.584 3.71394 2.68013 0
M  V30 3216 N 304.075 3.72331 2.75543 0
M  V30 3217 C 304.81 4.67641 3.31812 0
M  V30 3218 N 304.306 5.73313 3.88953 0
M  V30 3219 N 306.099 4.5515 3.29841 0
M  V30 3220 H 298.25 2.10436 0.288191 0
M  V30 3221 H 300.513 0.928705 0.190292 0
M  V30 3222 H 300.219 3.27759 1.27542 0
M  V30 3223 H 300.093 2.48633 2.83657 0
M  V30 3224 H 302.48 1.54922 2.51164 0
M  V30 3225 H 302.561 2.37543 0.949059 0
M  V30 3226 H 302.205 4.60791 2.13621 0
M  V30 3227 H 302.135 3.75069 3.69636 0
M  V30 3228 H 304.626 2.95947 2.34997 0
M  V30 3229 H 304.939 6.42107 4.30022 0
M  V30 3230 H 303.284 5.77077 3.87308 0
M  V30 3231 H 306.475 3.71766 2.84443 0
M  V30 3232 H 306.648 5.29604 3.73394 0
M  V30 3233 N 300.054 -1.07777 1.14986 0
M  V30 3234 C 300.964 -2.18404 0.856546 0
M  V30 3235 C 301.98 -1.73211 -0.165485 0
M  V30 3236 O 303.156 -2.01399 0.00755219 0
M  V30 3237 C 300.221 -3.44977 0.34526 0
M  V30 3238 C 299.282 -4.0476 1.43065 0
M  V30 3239 C 298.515 -5.25291 0.943663 0
M  V30 3240 O 298.738 -5.70004 -0.212426 0
M  V30 3241 O 297.672 -5.76638 1.72547 0
M  V30 3242 H 301.498 -2.45978 1.78125 0
M  V30 3243 H 299.083 -1.17033 0.928631 0
M  V30 3244 H 300.965 -4.21348 0.0663671 0
M  V30 3245 H 299.64 -3.18965 -0.551631 0
M  V30 3246 H 298.547 -3.29949 1.76309 0
M  V30 3247 H 299.88 -4.35035 2.30229 0
M  V30 3248 N 301.532 -0.945985 -1.26051 0
M  V30 3249 C 302.943 -0.638096 -1.75457 0
M  V30 3250 C 303.294 0.846672 -1.76991 0
M  V30 3251 O 302.419 1.66262 -1.38513 0
M  V30 3252 C 303.014 -1.15157 -3.18629 0
M  V30 3253 C 301.573 -0.894004 -3.65629 0
M  V30 3254 C 300.72 -1.29967 -2.44957 0
M  V30 3255 H 303.671 -1.12376 -1.1206 0
M  V30 3256 H 303.692 -0.507615 -3.77099 0
M  V30 3257 H 303.204 -2.23222 -3.1748 0
M  V30 3258 H 301.305 0.172057 -3.72203 0
M  V30 3259 H 301.418 -1.52439 -4.54202 0
M  V30 3260 H 299.782 -0.718078 -2.44368 0
M  V30 3261 H 300.565 -2.38935 -2.46505 0
M  V30 3262 N 303.011 1.40521 -0.713556 0
M  V30 3263 C 304.422 1.83853 -0.324807 0
M  V30 3264 C 304.773 1.59667 1.14021 0
M  V30 3265 O 303.898 1.07649 1.87725 0
M  V30 3266 C 304.493 3.33751 -0.582746 0
M  V30 3267 C 303.052 3.75584 -0.247727 0
M  V30 3268 C 302.199 2.63753 -0.856121 0
M  V30 3269 H 305.15 1.29817 -0.91286 0
M  V30 3270 H 305.171 3.80194 0.152682 0
M  V30 3271 H 304.683 3.51322 -1.64908 0
M  V30 3272 H 302.784 3.63608 0.813624 0
M  V30 3273 H 302.897 4.7373 -0.715307 0
M  V30 3274 H 301.261 2.53108 -0.28432 0
M  V30 3275 H 302.044 2.84137 -1.92668 0
M  V30 3276 N 304.489 0.459591 1.5075 0
M  V30 3277 C 305.419 -0.330644 2.31147 0
M  V30 3278 C 306.4 -1.00087 1.37538 0
M  V30 3279 O 307.585 -1.00025 1.66459 0
M  V30 3280 C 304.715 -1.41958 3.16962 0
M  V30 3281 C 303.669 -0.871608 4.19031 0
M  V30 3282 C 302.995 -2.05797 4.9351 0
M  V30 3283 C 304.295 0.109251 5.22186 0
M  V30 3284 H 305.989 0.340336 2.97459 0
M  V30 3285 H 303.535 0.165119 1.4305 0
M  V30 3286 H 305.488 -1.9798 3.71997 0
M  V30 3287 H 304.212 -2.11917 2.48513 0
M  V30 3288 H 302.871 -0.333442 3.6508 0
M  V30 3289 H 302.519 -2.74427 4.21544 0
M  V30 3290 H 302.219 -1.6976 5.62544 0
M  V30 3291 H 303.743 -2.62331 5.51375 0
M  V30 3292 H 305.157 -0.361405 5.7216 0
M  V30 3293 H 303.554 0.383316 5.98875 0
M  V30 3294 H 304.624 1.03887 4.73641 0
M  V30 3295 N 305.967 -1.56429 0.191757 0
M  V30 3296 C 306.877 -2.22541 -0.742481 0
M  V30 3297 C 307.893 -1.22342 -1.23727 0
M  V30 3298 O 309.069 -1.55069 -1.28513 0
M  V30 3299 C 306.134 -2.8692 -1.94623 0
M  V30 3300 C 305.195 -4.02378 -1.49633 0
M  V30 3301 C 304.428 -4.63678 -2.6427 0
M  V30 3302 O 304.651 -4.23895 -3.81666 0
M  V30 3303 O 303.585 -5.53202 -2.37174 0
M  V30 3304 H 307.411 -3.02977 -0.209462 0
M  V30 3305 H 304.996 -1.49353 -0.0373832 0
M  V30 3306 H 306.878 -3.27663 -2.64982 0
M  V30 3307 H 305.553 -2.09466 -2.46791 0
M  V30 3308 H 304.46 -3.66265 -0.761636 0
M  V30 3309 H 305.793 -4.81487 -1.02134 0
M  V30 3310 N 307.445 0.0818655 -1.57387 0
M  V30 3311 C 308.375 1.09885 -2.06028 0
M  V30 3312 C 309.356 1.4098 -0.951774 0
M  V30 3313 O 310.541 1.50781 -1.22387 0
M  V30 3314 C 307.671 2.4151 -2.4958 0
M  V30 3315 C 306.625 2.24792 -3.64215 0
M  V30 3316 C 305.951 3.61712 -3.93787 0
M  V30 3317 C 307.251 1.67749 -4.94629 0
M  V30 3318 H 308.945 0.694128 -2.91243 0
M  V30 3319 H 306.491 0.332448 -1.4011 0
M  V30 3320 H 308.444 3.12939 -2.82219 0
M  V30 3321 H 307.168 2.83943 -1.61381 0
M  V30 3322 H 305.827 1.55807 -3.31843 0
M  V30 3323 H 305.475 4.01697 -3.02735 0
M  V30 3324 H 305.175 3.51368 -4.70971 0
M  V30 3325 H 306.699 4.34587 -4.28913 0
M  V30 3326 H 308.113 2.29032 -5.25564 0
M  V30 3327 H 306.51 1.68128 -5.76067 0
M  V30 3328 H 307.58 0.638059 -4.80684 0
M  V30 3329 N 308.923 1.53595 0.353017 0
M  V30 3330 C 309.87 1.80919 1.43308 0
M  V30 3331 C 310.84 0.654288 1.5267 0
M  V30 3332 O 312.025 0.897759 1.6836 0
M  V30 3333 C 309.165 2.01605 2.80089 0
M  V30 3334 C 308.278 3.29321 2.79593 0
M  V30 3335 C 307.413 3.40125 4.0803 0
M  V30 3336 C 306.452 4.61826 4.01725 0
M  V30 3337 N 305.589 4.69716 5.21834 0
M  V30 3338 H 310.429 2.73074 1.19308 0
M  V30 3339 H 307.966 1.35263 0.578131 0
M  V30 3340 H 309.924 2.11586 3.59565 0
M  V30 3341 H 308.554 1.12772 3.0246 0
M  V30 3342 H 307.606 3.28229 1.92276 0
M  V30 3343 H 308.918 4.18884 2.70809 0
M  V30 3344 H 308.072 3.49488 4.95927 0
M  V30 3345 H 306.811 2.48601 4.19582 0
M  V30 3346 H 305.816 4.52552 3.12213 0
M  V30 3347 H 307.041 5.54705 3.91764 0
M  V30 3348 H 304.987 3.81097 5.33948 0
M  V30 3349 H 304.904 5.53202 5.1527 0
M  V30 3350 H 306.172 4.83376 6.11529 0
M  V30 3351 N 310.401 -0.613514 1.45168 0
M  V30 3352 C 311.678 -1.37263 1.39349 0
M  V30 3353 C 312.058 -2.11012 0.0610848 0
M  V30 3354 O 311.406 -2.07502 -0.956825 0
M  V30 3355 C 311.616 -2.3244 2.60332 0
M  V30 3356 C 312.964 -2.9523 3.05163 0
M  V30 3357 O 313.988 -2.42762 2.60663 0
M  V30 3358 O 312.847 -3.90454 3.82372 0
M  V30 3359 H 309.941 -0.615188 0.552696 0
M  V30 3360 H 312.487 -0.637097 1.57287 0
M  V30 3361 H 311.259 -1.77164 3.48896 0
M  V30 3362 H 310.882 -3.13383 2.44698 0
M  V30 3363 N 311.879 -1.3236 -0.855495 0
M  V30 3364 C 313.107 -1.2587 -1.64208 0
M  V30 3365 C 313.522 0.173457 -1.88002 0
M  V30 3366 O 312.879 1.11027 -1.44842 0
M  V30 3367 C 312.93 -2.01424 -3.00184 0
M  V30 3368 O 312.651 -3.39051 -2.77445 0
M  V30 3369 C 314.152 -2.01948 -3.94629 0
M  V30 3370 H 311.372 -0.434318 -0.511477 0
M  V30 3371 H 313.916 -1.74469 -1.0668 0
M  V30 3372 H 312.071 -1.56549 -3.5436 0
M  V30 3373 H 312.485 -3.77711 -3.63916 0
M  V30 3374 H 313.959 -2.59297 -4.87308 0
M  V30 3375 H 314.436 -1.00554 -4.27534 0
M  V30 3376 H 315.042 -2.46767 -3.4639 0
M  V30 3377 N 313.357 1.07166 -1.15556 0
M  V30 3378 C 314.634 1.76546 -0.842069 0
M  V30 3379 C 315.014 2.00453 0.661939 0
M  V30 3380 O 314.362 1.62452 1.60691 0
M  V30 3381 C 314.572 3.07266 -1.65495 0
M  V30 3382 C 315.92 3.81578 -1.86234 0
M  V30 3383 O 316.944 3.17083 -1.62287 0
M  V30 3384 O 315.803 4.97419 -2.26355 0
M  V30 3385 H 312.897 0.766756 -0.309862 0
M  V30 3386 H 315.443 1.13514 -1.26145 0
M  V30 3387 H 314.215 2.85494 -2.67598 0
M  V30 3388 H 313.838 3.7803 -1.23203 0
M  V30 3389 N 314.835 0.952656 1.25548 0
M  V30 3390 C 315.798 0.475794 2.24207 0
M  V30 3391 C 316.798 -0.419428 1.55234 0
M  V30 3392 O 317.988 -0.216994 1.72843 0
M  V30 3393 C 315.12 -0.312814 3.39462 0
M  V30 3394 H 316.313 1.34779 2.67908 0
M  V30 3395 H 313.866 0.735739 1.37901 0
M  V30 3396 H 314.601 -1.20257 3.01179 0
M  V30 3397 H 314.386 0.329404 3.90714 0
M  V30 3398 H 315.876 -0.635986 4.12729 0
M  V30 3399 N 316.313 -1.40141 0.720998 0
M  V30 3400 C 317.276 -2.29058 0.0805834 0
M  V30 3401 C 318.276 -1.45632 -0.681758 0
M  V30 3402 O 319.466 -1.6648 -0.512856 0
M  V30 3403 C 316.598 -3.28925 -0.895593 0
M  V30 3404 H 317.791 -2.87191 0.863793 0
M  V30 3405 H 315.344 -1.48553 0.485975 0
M  V30 3406 H 316.079 -2.75822 -1.70566 0
M  V30 3407 H 315.864 -3.90519 -0.351766 0
M  V30 3408 H 317.354 -3.95494 -1.34069 0
M  V30 3409 N 317.792 -0.46758 -1.50504 0
M  V30 3410 C 319.038 0.0887532 -2.02606 0
M  V30 3411 C 319.371 1.39686 -1.34913 0
M  V30 3412 O 318.646 1.88644 -0.473694 0
M  V30 3413 C 318.929 0.276206 -3.59039 0
M  V30 3414 C 318.782 -1.05267 -4.37309 0
M  V30 3415 C 320.101 1.03235 -4.27821 0
M  V30 3416 H 317.22 0.0307814 -0.736357 0
M  V30 3417 H 319.862 -0.612485 -1.79857 0
M  V30 3418 H 318.012 0.8735 -3.78553 0
M  V30 3419 H 319.684 -1.68628 -4.29374 0
M  V30 3420 H 317.927 -1.65015 -4.01189 0
M  V30 3421 H 318.598 -0.875197 -5.45018 0
M  V30 3422 H 321.074 0.526111 -4.12761 0
M  V30 3423 H 319.95 1.1323 -5.37094 0
M  V30 3424 H 320.211 2.06806 -3.90748 0
M  V30 3425 N 319.27 1.56325 -0.20005 0
M  V30 3426 C 320.518 1.97329 0.436547 0
M  V30 3427 C 320.839 1.08826 1.61808 0
M  V30 3428 O 320.109 0.160604 1.95241 0
M  V30 3429 H 318.689 0.728714 0.164272 0
M  V30 3430 H 321.351 1.92761 -0.287937 0
M  V30 3431 H 320.447 3.02264 0.777353 0
M  V30 3432 N 320.748 -0.0735177 1.57428 0
M  V30 3433 C 322.025 -0.805903 1.78226 0
M  V30 3434 C 322.405 -1.95874 0.787189 0
M  V30 3435 O 321.753 -2.2779 -0.180029 0
M  V30 3436 C 321.963 -1.28045 3.24662 0
M  V30 3437 C 323.311 -1.71453 3.88444 0
M  V30 3438 O 324.335 -1.37616 3.28543 0
M  V30 3439 O 323.194 -2.34093 4.93825 0
M  V30 3440 H 320.288 -0.386041 0.73137 0
M  V30 3441 H 322.834 -0.0537269 1.69615 0
M  V30 3442 H 321.606 -0.455476 3.8864 0
M  V30 3443 H 321.229 -2.094 3.37991 0
M  V30 3444 N 322.226 -1.5378 -0.344866 0
M  V30 3445 C 323.174 -1.82373 -1.4437 0
M  V30 3446 C 324.168 -0.694128 -1.54526 0
M  V30 3447 O 325.374 -0.877442 -1.57165 0
M  V30 3448 H 321.749 -0.577765 -0.481344 0
M  V30 3449 H 323.72 -2.74306 -1.17468 0
M  V30 3450 C 322.469 -2.04898 -2.80913 0
M  V30 3451 H 321.792 -2.9127 -2.73865 0
M  V30 3452 H 323.232 -2.28871 -3.56923 0
M  V30 3453 C 321.691 -0.834116 -3.26411 0
M  V30 3454 O 322.221 -0.0328885 -4.01687 0
M  V30 3455 N 320.427 -0.65171 -2.83198 0
M  V30 3456 H 319.974 -1.30489 -2.22104 0
M  V30 3457 H 319.932 0.159686 -3.13994 0
M  V30 3458 N 323.704 0.605807 -1.45491 0
M  V30 3459 C 324.953 1.36086 -1.48874 0
M  V30 3460 C 325.266 1.95131 -0.135333 0
M  V30 3461 O 326.472 2.7146 -0.0468144 0
M  V30 3462 C 324.928 2.46518 -2.62215 0
M  V30 3463 C 324.536 1.93877 -4.03876 0
M  V30 3464 C 326.28 3.23512 -2.74846 0
M  V30 3465 C 324.187 3.01801 -5.08596 0
M  V30 3466 H 323.117 0.511497 -0.553974 0
M  V30 3467 H 325.768 0.649089 -1.71636 0
M  V30 3468 H 324.15 3.20388 -2.32739 0
M  V30 3469 H 325.324 1.26704 -4.43038 0
M  V30 3470 H 323.639 1.29622 -3.95711 0
M  V30 3471 H 326.236 4.04013 -3.50253 0
M  V30 3472 H 326.579 3.74631 -1.81542 0
M  V30 3473 H 327.112 2.56742 -3.03856 0
M  V30 3474 H 323.851 2.55597 -6.03614 0
M  V30 3475 H 323.371 3.67535 -4.74002 0
M  V30 3476 H 325.05 3.66152 -5.33424 0
M  V30 3477 N 325.182 1.32811 0.848464 0
M  V30 3478 C 326.43 1.23479 1.59991 0
M  V30 3479 C 326.751 -0.201853 1.93952 0
M  V30 3480 O 326.021 -1.12818 1.60153 0
M  V30 3481 H 324.601 0.454034 0.593179 0
M  V30 3482 H 327.263 1.66412 1.01455 0
M  V30 3483 H 326.359 1.82178 2.53412 0
M  V30 3484 N 326.66 -1.06551 1.16123 0
M  V30 3485 C 327.89 -1.8274 0.963838 0
M  V30 3486 C 328.298 -1.82712 -0.491228 0
M  V30 3487 O 327.641 -1.24294 -1.35265 0
M  V30 3488 C 327.703 -3.3065 1.41106 0
M  V30 3489 C 327.367 -3.54384 2.88549 0
M  V30 3490 C 328.364 -3.4765 3.86569 0
M  V30 3491 C 326.049 -3.81789 3.26408 0
M  V30 3492 C 328.043 -3.67982 5.2045 0
M  V30 3493 C 325.73 -4.01772 4.60459 0
M  V30 3494 C 326.728 -3.94866 5.57288 0
M  V30 3495 O 326.416 -4.14306 6.88916 0
M  V30 3496 H 326.148 -0.583136 0.341948 0
M  V30 3497 H 328.702 -1.35351 1.54497 0
M  V30 3498 H 326.932 -3.78887 0.773394 0
M  V30 3499 H 328.621 -3.88324 1.1815 0
M  V30 3500 H 329.387 -3.2647 3.58667 0
M  V30 3501 H 325.266 -3.86276 2.51619 0
M  V30 3502 H 328.81 -3.62507 5.96015 0
M  V30 3503 H 324.707 -4.2244 4.88072 0
M  V30 3504 H 325.475 -4.31609 6.95454 0
M  V30 3505 N 328.138 -0.959301 -1.25041 0
M  V30 3506 C 329.387 -0.612254 -1.92183 0
M  V30 3507 C 329.7 0.855347 -1.75907 0
M  V30 3508 O 330.906 1.31256 -2.37664 0
M  V30 3509 C 329.362 -1.04435 -3.44414 0
M  V30 3510 C 328.97 -2.53482 -3.69393 0
M  V30 3511 C 330.714 -0.770055 -4.17457 0
M  V30 3512 C 328.621 -2.90468 -5.15153 0
M  V30 3513 H 327.551 -0.225279 -0.719559 0
M  V30 3514 H 330.202 -1.16438 -1.41825 0
M  V30 3515 H 328.584 -0.4206 -3.9376 0
M  V30 3516 H 329.758 -3.20916 -3.30681 0
M  V30 3517 H 328.073 -2.78432 -3.0962 0
M  V30 3518 H 330.67 -1.02249 -5.24832 0
M  V30 3519 H 331.013 0.293611 -4.15263 0
M  V30 3520 H 331.546 -1.35437 -3.74034 0
M  V30 3521 H 328.285 -3.95871 -5.22462 0
M  V30 3522 H 327.805 -2.27711 -5.54894 0
M  V30 3523 H 329.484 -2.79914 -5.83315 0
M  V30 3524 N 329.616 1.39756 -0.72842 0
M  V30 3525 C 330.844 2.04948 -0.283528 0
M  V30 3526 C 331.259 1.54908 1.0793 0
M  V30 3527 O 330.616 0.711135 1.68075 0
M  V30 3528 C 330.667 3.60498 -0.268957 0
M  V30 3529 O 330.388 4.08695 -1.57798 0
M  V30 3530 C 331.889 4.4288 0.192912 0
M  V30 3531 H 329.109 0.659243 -0.125056 0
M  V30 3532 H 331.653 1.78927 -0.990226 0
M  V30 3533 H 329.808 3.85444 0.388801 0
M  V30 3534 H 330.222 5.02977 -1.48709 0
M  V30 3535 H 331.696 5.51791 0.151952 0
M  V30 3536 H 332.173 4.21418 1.23708 0
M  V30 3537 H 332.779 4.23069 -0.435039 0
M  V30 3538 N 331.094 0.475555 1.50254 0
M  V30 3539 C 332.341 -0.0778919 2.0235 0
M  V30 3540 C 332.669 -1.39319 1.35722 0
M  V30 3541 O 331.924 -1.89888 0.473395 0
M  V30 3542 C 332.223 -0.305114 3.56095 0
M  V30 3543 C 331.889 0.92903 4.41225 0
M  V30 3544 C 330.551 1.26739 4.6421 0
M  V30 3545 C 332.903 1.75054 4.90923 0
M  V30 3546 C 330.231 2.42724 5.34137 0
M  V30 3547 C 332.583 2.9017 5.62125 0
M  V30 3548 C 331.247 3.24416 5.83362 0
M  V30 3549 H 330.517 -0.0285027 0.740452 0
M  V30 3550 H 333.164 0.630543 1.80821 0
M  V30 3551 H 331.469 -1.09584 3.76163 0
M  V30 3552 H 333.166 -0.747377 3.93974 0
M  V30 3553 H 329.756 0.655428 4.23559 0
M  V30 3554 H 333.94 1.50231 4.73016 0
M  V30 3555 H 329.196 2.69525 5.48786 0
M  V30 3556 H 333.37 3.54169 5.99614 0
M  V30 3557 H 330.997 4.14396 6.37323 0
M  V30 3558 N 332.573 -1.56217 0.208337 0
M  V30 3559 C 333.819 -1.98242 -0.427552 0
M  V30 3560 C 334.152 -1.09554 -1.60348 0
M  V30 3561 O 333.427 -0.15035 -1.93918 0
M  V30 3562 C 333.71 -3.4931 -0.874907 0
M  V30 3563 C 333.563 -4.48773 0.303751 0
M  V30 3564 C 334.882 -4.04424 -1.73577 0
M  V30 3565 H 332.001 -0.720744 -0.153936 0
M  V30 3566 H 334.643 -1.87586 0.30192 0
M  V30 3567 H 332.793 -3.58522 -1.49648 0
M  V30 3568 H 334.465 -4.51586 0.941682 0
M  V30 3569 H 332.708 -4.23194 0.953375 0
M  V30 3570 H 333.379 -5.51976 -0.0519883 0
M  V30 3571 H 335.855 -3.98075 -1.21143 0
M  V30 3572 H 334.731 -5.1047 -2.01771 0
M  V30 3573 H 334.992 -3.50494 -2.69456 0
M  V30 3574 N 334.051 0.0651679 -1.57465 0
M  V30 3575 C 334.981 1.07693 -2.07182 0
M  V30 3576 C 335.962 1.39962 -0.966673 0
M  V30 3577 O 337.147 1.49475 -1.2398 0
M  V30 3578 C 334.277 2.3885 -2.52127 0
M  V30 3579 C 333.231 2.20917 -3.66579 0
M  V30 3580 C 332.557 3.57515 -3.97601 0
M  V30 3581 C 333.857 1.62493 -4.9638 0
M  V30 3582 H 335.551 0.663199 -2.91962 0
M  V30 3583 H 333.097 0.317569 -1.40455 0
M  V30 3584 H 335.05 3.09928 -2.85522 0
M  V30 3585 H 333.774 2.82215 -1.64384 0
M  V30 3586 H 332.433 1.52279 -3.33477 0
M  V30 3587 H 332.081 3.98463 -3.06979 0
M  V30 3588 H 331.781 3.46353 -4.74672 0
M  V30 3589 H 333.305 4.30013 -4.33499 0
M  V30 3590 H 334.719 2.23445 -5.27963 0
M  V30 3591 H 333.116 1.62009 -5.77818 0
M  V30 3592 H 334.186 0.587041 -4.81333 0
M  V30 3593 N 335.529 1.53961 0.336706 0
M  V30 3594 C 336.776 1.71536 1.07618 0
M  V30 3595 C 337.104 0.482125 1.8843 0
M  V30 3596 O 336.359 -0.536142 1.88213 0
M  V30 3597 C 336.658 2.93493 2.03953 0
M  V30 3598 C 336.324 4.28811 1.39399 0
M  V30 3599 C 334.986 4.65602 1.21523 0
M  V30 3600 C 337.338 5.12844 0.929541 0
M  V30 3601 C 334.666 5.84037 0.558312 0
M  V30 3602 C 337.018 6.31951 0.286505 0
M  V30 3603 C 335.682 6.67432 0.0954869 0
M  V30 3604 H 334.952 0.627696 0.393801 0
M  V30 3605 H 337.599 1.88186 0.354715 0
M  V30 3606 H 335.904 2.71475 2.82504 0
M  V30 3607 H 337.601 3.04285 2.61174 0
M  V30 3608 H 334.191 3.99858 1.54311 0
M  V30 3609 H 338.375 4.84947 1.05548 0
M  V30 3610 H 333.631 6.10097 0.398995 0
M  V30 3611 H 337.805 6.96352 -0.0814376 0
M  V30 3612 H 335.432 7.59063 -0.415579 0
M  V30 3613 N 337.007 -0.598083 1.45811 0
M  V30 3614 C 338.418 -1.18011 1.44673 0
M  V30 3615 C 338.769 -1.95378 0.179364 0
M  V30 3616 O 337.894 -2.04124 -0.718509 0
M  V30 3617 C 338.489 -2.14677 2.62105 0
M  V30 3618 C 337.048 -2.68236 2.64057 0
M  V30 3619 C 336.195 -1.43816 2.37091 0
M  V30 3620 H 339.146 -0.38686 1.53913 0
M  V30 3621 H 339.167 -2.97878 2.36746 0
M  V30 3622 H 338.679 -1.5834 3.5433 0
M  V30 3623 H 336.78 -3.28486 1.75864 0
M  V30 3624 H 336.893 -3.12021 3.63566 0
M  V30 3625 H 335.257 -1.731 1.86838 0
M  V30 3626 H 336.04 -0.893333 3.31473 0
M  V30 3627 N 338.485 -1.33259 -0.841409 0
M  V30 3628 C 339.901 -1.12538 -1.13169 0
M  V30 3629 C 340.101 0.0854037 -2.01319 0
M  V30 3630 O 339.157 0.766417 -2.40587 0
M  V30 3631 C 340.47 -2.41156 -1.79623 0
M  V30 3632 C 342.018 -2.47038 -1.922 0
M  V30 3633 C 342.493 -3.7561 -2.6207 0
M  V30 3634 N 343.984 -3.76667 -2.69585 0
M  V30 3635 C 344.719 -4.72861 -3.2433 0
M  V30 3636 N 344.215 -5.79428 -3.79783 0
M  V30 3637 N 346.008 -4.6034 -3.22558 0
M  V30 3638 H 338.159 -2.10868 -0.254676 0
M  V30 3639 H 340.422 -0.931615 -0.175493 0
M  V30 3640 H 340.128 -3.29747 -1.22311 0
M  V30 3641 H 340.002 -2.53114 -2.79666 0
M  V30 3642 H 342.389 -1.58898 -2.48667 0
M  V30 3643 H 342.47 -2.39022 -0.911148 0
M  V30 3644 H 342.114 -4.64131 -2.06263 0
M  V30 3645 H 342.044 -3.80902 -3.63622 0
M  V30 3646 H 344.535 -2.99648 -2.30259 0
M  V30 3647 H 344.848 -6.48867 -4.19752 0
M  V30 3648 H 343.193 -5.83166 -3.78078 0
M  V30 3649 H 346.384 -3.76244 -2.78492 0
M  V30 3650 H 346.557 -5.35478 -3.64921 0
M  V30 3651 N 339.963 1.05934 -1.16686 0
M  V30 3652 C 340.913 2.11764 -0.844978 0
M  V30 3653 C 341.897 1.59922 0.177178 0
M  V30 3654 O 343.089 1.76983 -0.0241768 0
M  V30 3655 C 340.218 3.41493 -0.351812 0
M  V30 3656 C 339.304 4.00152 -1.40496 0
M  V30 3657 N 339.695 4.32874 -2.61636 0
M  V30 3658 C 337.993 4.278 -1.26106 0
M  V30 3659 C 338.694 4.79552 -3.29249 0
M  V30 3660 N 337.67 4.79211 -2.56628 0
M  V30 3661 H 341.472 2.34916 -1.76612 0
M  V30 3662 H 338.986 1.23511 -1.05446 0
M  V30 3663 H 340.983 4.16773 -0.102796 0
M  V30 3664 H 339.643 3.19778 0.56322 0
M  V30 3665 H 340.654 4.23109 -2.98663 0
M  V30 3666 H 337.331 4.15511 -0.407081 0
M  V30 3667 H 338.721 5.14045 -4.32675 0
M  V30 3668 N 341.441 0.965919 1.2453 0
M  V30 3669 C 342.669 0.644385 1.96609 0
M  V30 3670 C 343.084 -0.785823 1.71669 0
M  V30 3671 O 342.441 -1.52703 0.999399 0
M  V30 3672 C 342.492 0.907375 3.49927 0
M  V30 3673 O 342.213 2.28136 3.74013 0
M  V30 3674 C 343.714 0.599784 4.39224 0
M  V30 3675 H 340.934 0.240588 0.626385 0
M  V30 3676 H 343.478 1.29337 1.58405 0
M  V30 3677 H 341.633 0.304631 3.862 0
M  V30 3678 H 342.047 2.36002 4.68405 0
M  V30 3679 H 343.521 0.834263 5.45659 0
M  V30 3680 H 343.998 -0.465921 4.36722 0
M  V30 3681 H 344.604 1.18235 4.08535 0
M  V30 3682 N 342.919 -1.39368 0.735821 0
M  V30 3683 C 343.867 -2.32443 0.0855131 0
M  V30 3684 C 344.861 -1.53104 -0.724954 0
M  V30 3685 O 346.067 -1.68762 -0.626047 0
M  V30 3686 H 342.442 -0.751948 0.00885257 0
M  V30 3687 H 344.413 -2.84916 0.886883 0
M  V30 3688 C 343.162 -3.38206 -0.806983 0
M  V30 3689 H 342.485 -3.99335 -0.19274 0
M  V30 3690 H 343.925 -4.05779 -1.2296 0
M  V30 3691 C 342.384 -2.75321 -1.94165 0
M  V30 3692 O 342.914 -2.63231 -3.03435 0
M  V30 3693 N 341.12 -2.33396 -1.73132 0
M  V30 3694 H 340.667 -2.4343 -0.842596 0
M  V30 3695 H 340.625 -1.91661 -2.49225 0
M  V30 3696 N 344.397 -0.483516 -1.5 0
M  V30 3697 C 345.36 0.292965 -2.2732 0
M  V30 3698 C 346.36 0.909499 -1.32608 0
M  V30 3699 O 347.55 0.776745 -1.55924 0
M  V30 3700 C 344.682 1.41854 -3.09984 0
M  V30 3701 H 345.875 -0.385289 -2.97415 0
M  V30 3702 H 343.428 -0.237942 -1.54478 0
M  V30 3703 H 344.163 2.13148 -2.44414 0
M  V30 3704 H 343.948 0.982114 -3.79601 0
M  V30 3705 H 345.438 1.96597 -3.68429 0
M  V30 3706 N 345.875 1.56104 -0.216619 0
M  V30 3707 C 347.1 2.0301 0.424462 0
M  V30 3708 C 347.525 1.0955 1.52907 0
M  V30 3709 O 346.883 0.0827914 1.81111 0
M  V30 3710 C 346.931 3.4819 0.937883 0
M  V30 3711 O 346.035 3.57865 2.04955 0
M  V30 3712 H 345.376 0.656925 0.0966755 0
M  V30 3713 H 347.906 2.01859 -0.33381 0
M  V30 3714 H 347.916 3.88413 1.24897 0
M  V30 3715 H 346.591 4.15699 0.129387 0
M  V30 3716 H 345.168 3.29527 1.74546 0
M  V30 3717 N 347.353 -0.0568162 1.57498 0
M  V30 3718 C 348.316 -1.05038 2.03715 0
M  V30 3719 C 349.316 -1.30709 0.936577 0
M  V30 3720 O 350.506 -1.26178 1.20103 0
M  V30 3721 C 347.638 -2.39034 2.43055 0
M  V30 3722 H 348.831 -0.651715 2.92733 0
M  V30 3723 H 346.384 -0.302947 1.53336 0
M  V30 3724 H 347.119 -2.83703 1.57108 0
M  V30 3725 H 346.904 -2.21739 3.2338 0
M  V30 3726 H 348.394 -3.10421 2.79336 0
M  V30 3727 N 348.832 -1.54138 -0.328536 0
M  V30 3728 C 350.248 -1.44736 -0.672574 0
M  V30 3729 C 350.448 -0.616217 -1.91846 0
M  V30 3730 O 349.504 -0.113067 -2.52247 0
M  V30 3731 C 350.817 -2.884 -0.851217 0
M  V30 3732 C 352.365 -2.98271 -0.948877 0
M  V30 3733 C 352.84 -4.43074 -1.15973 0
M  V30 3734 N 354.331 -4.46665 -1.22658 0
M  V30 3735 C 355.066 -5.55857 -1.40751 0
M  V30 3736 N 354.562 -6.75026 -1.5592 0
M  V30 3737 N 356.355 -5.43495 -1.4342 0
M  V30 3738 H 348.506 -2.06661 0.490421 0
M  V30 3739 H 350.769 -0.934812 0.157579 0
M  V30 3740 H 350.475 -3.51699 -0.00704236 0
M  V30 3741 H 350.349 -3.34225 -1.74853 0
M  V30 3742 H 352.736 -2.35102 -1.78356 0
M  V30 3743 H 352.817 -2.55785 -0.0281435 0
M  V30 3744 H 352.461 -5.06827 -0.329915 0
M  V30 3745 H 352.391 -4.83165 -2.09426 0
M  V30 3746 H 354.882 -3.60797 -1.124 0
M  V30 3747 H 355.195 -7.54004 -1.69404 0
M  V30 3748 H 353.54 -6.77944 -1.53027 0
M  V30 3749 H 356.731 -4.49349 -1.31162 0
M  V30 3750 H 356.904 -6.28649 -1.57178 0
M  V30 3751 N 350.31 0.590341 -1.46126 0
M  V30 3752 C 351.587 1.35029 -1.41515 0
M  V30 3753 C 351.967 2.10888 -0.0946472 0
M  V30 3754 O 351.315 2.08998 0.923693 0
M  V30 3755 C 351.525 2.28269 -2.63997 0
M  V30 3756 C 352.873 2.90338 -3.09821 0
M  V30 3757 O 353.897 2.38585 -2.64492 0
M  V30 3758 O 352.756 3.84321 -3.88535 0
M  V30 3759 H 349.85 0.606317 -0.562413 0
M  V30 3760 H 352.396 0.611994 -1.58281 0
M  V30 3761 H 351.168 1.71591 -3.51671 0
M  V30 3762 H 350.791 3.0945 -2.49652 0
M  V30 3763 N 351.788 1.33704 0.83433 0
M  V30 3764 C 352.736 1.24323 1.96587 0
M  V30 3765 C 353.73 0.143659 1.6879 0
M  V30 3766 O 354.936 0.30791 1.77347 0
M  V30 3767 H 351.311 0.385925 0.645419 0
M  V30 3768 H 353.282 2.19978 2.01624 0
M  V30 3769 C 352.031 1.00394 3.32891 0
M  V30 3770 H 351.354 1.84231 3.54822 0
M  V30 3771 H 352.794 0.97862 4.12552 0
M  V30 3772 C 351.253 -0.293047 3.35623 0
M  V30 3773 O 351.783 -1.29823 3.80143 0
M  V30 3774 N 349.989 -0.322174 2.88809 0
M  V30 3775 H 349.536 0.496379 2.52772 0
M  V30 3776 H 349.494 -1.18977 2.91019 0
M  V30 3777 N 353.266 -1.05314 1.17247 0
M  V30 3778 C 354.494 -1.81971 0.984593 0
M  V30 3779 C 354.909 -1.82929 -0.467166 0
M  V30 3780 O 354.266 -1.25564 -1.32438 0
M  V30 3781 C 354.317 -3.28143 1.51672 0
M  V30 3782 O 354.038 -3.27347 2.91163 0
M  V30 3783 C 355.539 -4.21493 1.37326 0
M  V30 3784 H 352.759 -0.573455 0.348411 0
M  V30 3785 H 355.303 -1.32808 1.55506 0
M  V30 3786 H 353.458 -3.74582 0.988302 0
M  V30 3787 H 353.872 -4.18824 3.15732 0
M  V30 3788 H 355.346 -5.22043 1.79375 0
M  V30 3789 H 355.823 -4.38031 0.320169 0
M  V30 3790 H 356.429 -3.80909 1.89178 0
M  V30 3791 N 354.744 -0.972509 -1.24016 0
M  V30 3792 C 355.993 -0.632603 -1.91523 0
M  V30 3793 C 356.306 0.836641 -1.76804 0
M  V30 3794 O 357.512 1.28728 -2.39043 0
M  V30 3795 C 355.968 -1.08082 -3.43287 0
M  V30 3796 C 355.576 -2.57386 -3.66683 0
M  V30 3797 C 357.32 -0.814288 -4.16617 0
M  V30 3798 C 355.227 -2.95915 -5.12043 0
M  V30 3799 H 354.157 -0.232898 -0.717129 0
M  V30 3800 H 356.808 -1.17936 -1.40582 0
M  V30 3801 H 355.19 -0.462339 -3.93292 0
M  V30 3802 H 356.364 -3.24405 -3.27258 0
M  V30 3803 H 354.679 -2.81701 -3.06649 0
M  V30 3804 H 357.276 -1.0781 -5.23718 0
M  V30 3805 H 357.619 0.24955 -4.15551 0
M  V30 3806 H 358.152 -1.39397 -3.72577 0
M  V30 3807 H 354.891 -4.0139 -5.18234 0
M  V30 3808 H 354.411 -2.33584 -5.52448 0
M  V30 3809 H 356.09 -2.86086 -5.80314 0
M  V30 3810 N 356.222 1.38976 -0.743202 0
M  V30 3811 C 357.17 2.32394 -0.0978389 0
M  V30 3812 C 358.164 1.53486 0.716824 0
M  V30 3813 O 359.37 1.69092 0.617088 0
M  V30 3814 H 355.745 0.75189 -0.0128402 0
M  V30 3815 H 357.716 2.84441 -0.901981 0
M  V30 3816 C 356.465 3.38629 0.789036 0
M  V30 3817 H 355.788 3.99432 0.171559 0
M  V30 3818 H 357.228 4.06426 1.20807 0
M  V30 3819 C 355.687 2.76347 1.92702 0
M  V30 3820 O 356.217 2.64836 3.02034 0
M  V30 3821 N 354.423 2.34311 1.71891 0
M  V30 3822 H 353.97 2.43873 0.829675 0
M  V30 3823 H 353.928 1.9298 2.48205 0
M  V30 3824 N 357.7 0.491464 1.49741 0
M  V30 3825 C 358.63 -0.28154 2.31796 0
M  V30 3826 C 359.611 -0.971473 1.3963 0
M  V30 3827 O 360.796 -0.964719 1.68543 0
M  V30 3828 C 357.926 -1.35203 3.19902 0
M  V30 3829 C 356.88 -0.782529 4.20786 0
M  V30 3830 C 356.206 -1.95283 4.97764 0
M  V30 3831 C 357.506 0.21999 5.21837 0
M  V30 3832 H 359.2 0.403355 2.96671 0
M  V30 3833 H 356.746 0.195425 1.42668 0
M  V30 3834 H 358.699 -1.90045 3.76113 0
M  V30 3835 H 357.423 -2.06598 2.52953 0
M  V30 3836 H 356.082 -0.255928 3.65706 0
M  V30 3837 H 355.73 -2.65423 4.2727 0
M  V30 3838 H 355.43 -1.57789 5.66018 0
M  V30 3839 H 356.954 -2.50577 5.56816 0
M  V30 3840 H 358.368 -0.23996 5.72798 0
M  V30 3841 H 356.765 0.51026 5.97927 0
M  V30 3842 H 357.835 1.13911 4.7133 0
M  V30 3843 N 359.178 -1.55987 0.224894 0
M  V30 3844 C 360.427 -1.97566 -0.406273 0
M  V30 3845 C 360.74 -1.11569 -1.6066 0
M  V30 3846 O 361.946 -1.43062 -2.3075 0
M  V30 3847 C 360.402 -3.51474 -0.774207 0
M  V30 3848 C 360.01 -4.46179 0.403496 0
M  V30 3849 C 361.754 -4.01758 -1.37079 0
M  V30 3850 C 359.661 -5.91399 0.0129412 0
M  V30 3851 H 358.591 -0.737777 -0.155565 0
M  V30 3852 H 361.242 -1.80659 0.321635 0
M  V30 3853 H 359.624 -3.63994 -1.55963 0
M  V30 3854 H 360.798 -4.45409 1.18101 0
M  V30 3855 H 359.113 -4.06255 0.913536 0
M  V30 3856 H 361.71 -5.07756 -1.67596 0
M  V30 3857 H 362.053 -3.47805 -2.28773 0
M  V30 3858 H 362.586 -3.92475 -0.648733 0
M  V30 3859 H 359.325 -6.49341 0.896451 0
M  V30 3860 H 358.845 -5.95356 -0.728821 0
M  V30 3861 H 360.524 -6.45683 -0.412582 0
M  V30 3862 N 360.656 0.0484629 -1.57525 0
M  V30 3863 C 361.606 1.06246 -2.01732 0
M  V30 3864 C 362.59 1.33155 -0.903245 0
M  V30 3865 O 363.782 1.33065 -1.16717 0
M  V30 3866 C 360.911 2.36943 -2.48421 0
M  V30 3867 C 359.997 2.13208 -3.6661 0
M  V30 3868 N 360.388 1.5947 -4.80003 0
M  V30 3869 C 358.686 2.43581 -3.7361 0
M  V30 3870 C 359.387 1.51092 -5.61735 0
M  V30 3871 N 358.363 1.9797 -5.0627 0
M  V30 3872 H 362.165 0.640675 -2.86832 0
M  V30 3873 H 359.679 0.255134 -1.60383 0
M  V30 3874 H 361.676 3.10374 -2.78341 0
M  V30 3875 H 360.336 2.79818 -1.64718 0
M  V30 3876 H 361.347 1.28008 -5.01831 0
M  V30 3877 H 358.024 2.89662 -3.00669 0
M  V30 3878 H 359.414 1.10199 -6.62801 0
M  V30 3879 N 362.134 1.5431 0.320358 0
M  V30 3880 C 363.362 1.76636 1.07738 0
M  V30 3881 C 363.777 0.51649 1.81598 0
M  V30 3882 O 363.134 -0.512942 1.75143 0
M  V30 3883 C 363.185 2.96158 2.07299 0
M  V30 3884 O 362.906 4.16313 1.36438 0
M  V30 3885 C 364.407 3.3072 2.95193 0
M  V30 3886 H 361.627 0.589597 0.320339 0
M  V30 3887 H 364.171 2.01207 0.36551 0
M  V30 3888 H 362.326 2.73851 2.74016 0
M  V30 3889 H 362.74 4.83565 2.03138 0
M  V30 3890 H 364.214 4.17643 3.60941 0
M  V30 3891 H 364.691 2.48026 3.62463 0
M  V30 3892 H 365.297 3.55117 2.34034 0
M  V30 3893 N 363.613 -0.582584 1.46437 0
M  V30 3894 C 364.86 -1.34079 1.51753 0
M  V30 3895 C 365.188 -1.93762 0.169299 0
M  V30 3896 O 364.443 -1.76989 -0.835062 0
M  V30 3897 C 364.742 -2.48964 2.56421 0
M  V30 3898 C 364.408 -2.07273 4.00436 0
M  V30 3899 C 363.07 -1.95618 4.39644 0
M  V30 3900 C 365.422 -1.75111 4.90903 0
M  V30 3901 C 362.75 -1.5006 5.67185 0
M  V30 3902 C 365.102 -1.31032 6.18881 0
M  V30 3903 C 363.766 -1.17954 6.56996 0
M  V30 3904 H 363.036 -0.49063 0.555304 0
M  V30 3905 H 365.683 -0.656007 1.79913 0
M  V30 3906 H 363.988 -3.22889 2.21923 0
M  V30 3907 H 365.685 -3.07178 2.57765 0
M  V30 3908 H 362.275 -2.17279 3.69443 0
M  V30 3909 H 366.459 -1.83001 4.61329 0
M  V30 3910 H 361.715 -1.38577 5.95488 0
M  V30 3911 H 365.889 -1.052 6.88408 0
M  V30 3912 H 363.516 -0.824279 7.55718 0
M  V30 3913 N 365.091 -1.34144 -0.827227 0
M  V30 3914 C 366.507 -1.13732 -1.11969 0
M  V30 3915 C 366.707 0.0640463 -2.01398 0
M  V30 3916 O 365.763 0.740856 -2.41387 0
M  V30 3917 C 367.076 -2.43047 -1.77055 0
M  V30 3918 C 368.624 -2.49063 -1.89569 0
M  V30 3919 C 369.099 -3.78369 -2.58072 0
M  V30 3920 N 370.59 -3.79505 -2.65575 0
M  V30 3921 C 371.325 -4.76274 -3.19297 0
M  V30 3922 N 370.821 -5.83424 -3.73616 0
M  V30 3923 N 372.614 -4.63735 -3.17658 0
M  V30 3924 H 364.765 -2.11126 -0.232296 0
M  V30 3925 H 367.028 -0.933424 -0.165602 0
M  V30 3926 H 366.734 -3.31025 -1.18807 0
M  V30 3927 H 366.608 -2.56066 -2.76966 0
M  V30 3928 H 368.995 -1.61527 -2.46968 0
M  V30 3929 H 369.076 -2.39975 -0.885745 0
M  V30 3930 H 368.72 -4.66293 -2.01329 0
M  V30 3931 H 368.65 -3.84737 -3.59562 0
M  V30 3932 H 371.141 -3.02074 -2.27068 0
M  V30 3933 H 371.454 -6.53282 -4.12846 0
M  V30 3934 H 369.799 -5.87143 -3.71871 0
M  V30 3935 H 372.99 -3.79177 -2.74486 0
M  V30 3936 H 373.163 -5.39318 -3.59221 0
M  V30 3937 N 366.569 1.04691 -1.17803 0
M  V30 3938 C 367.846 1.7472 -0.879328 0
M  V30 3939 C 368.226 2.01812 0.619271 0
M  V30 3940 O 367.574 1.65824 1.57209 0
M  V30 3941 C 367.784 3.03686 -1.71976 0
M  V30 3942 C 369.132 3.77542 -1.94286 0
M  V30 3943 O 370.156 3.13569 -1.68976 0
M  V30 3944 O 369.015 4.92506 -2.36855 0
M  V30 3945 H 366.109 0.760011 -0.326056 0
M  V30 3946 H 368.655 1.10813 -1.28525 0
M  V30 3947 H 367.427 2.79754 -2.73594 0
M  V30 3948 H 367.05 3.75332 -1.31194 0
M  V30 3949 N 368.047 0.979072 1.23499 0
M  V30 3950 C 369.277 0.664237 1.95631 0
M  V30 3951 C 369.685 -0.772653 1.72704 0
M  V30 3952 O 369.028 -1.53141 1.01457 0
M  V30 3953 C 369.09 0.873115 3.48736 0
M  V30 3954 C 368.754 2.29182 3.95379 0
M  V30 3955 C 369.751 3.2704 4.04155 0
M  V30 3956 C 367.436 2.62256 4.28401 0
M  V30 3957 C 369.43 4.56052 4.45304 0
M  V30 3958 C 367.117 3.91491 4.69231 0
M  V30 3959 C 368.115 4.88201 4.77649 0
M  V30 3960 O 367.803 6.15129 5.17563 0
M  V30 3961 H 367.535 0.245915 0.629684 0
M  V30 3962 H 370.089 1.3127 1.57979 0
M  V30 3963 H 368.319 0.167476 3.86337 0
M  V30 3964 H 370.008 0.555642 4.02079 0
M  V30 3965 H 370.774 3.02819 3.78848 0
M  V30 3966 H 366.653 1.87692 4.21061 0
M  V30 3967 H 370.197 5.31538 4.51789 0
M  V30 3968 H 366.094 4.15508 4.93987 0
M  V30 3969 H 366.862 6.18862 5.35679 0
M  V30 3970 N 369.525 -1.3858 0.750561 0
M  V30 3971 C 370.455 -2.33102 0.136237 0
M  V30 3972 C 371.436 -1.54713 -0.706965 0
M  V30 3973 O 372.621 -1.83043 -0.648769 0
M  V30 3974 C 369.751 -3.38882 -0.760017 0
M  V30 3975 C 368.705 -4.27995 -0.0197785 0
M  V30 3976 C 368.031 -5.24605 -1.03408 0
M  V30 3977 C 369.331 -5.09554 1.14684 0
M  V30 3978 H 371.025 -2.84726 0.925822 0
M  V30 3979 H 368.571 -1.36898 0.446654 0
M  V30 3980 H 370.524 -4.0397 -1.19943 0
M  V30 3981 H 369.248 -2.85734 -1.58189 0
M  V30 3982 H 367.907 -3.64409 0.400184 0
M  V30 3983 H 367.555 -4.67746 -1.84994 0
M  V30 3984 H 367.255 -5.85081 -0.543464 0
M  V30 3985 H 368.779 -5.9257 -1.47288 0
M  V30 3986 H 370.193 -5.67899 0.785118 0
M  V30 3987 H 368.59 -5.7925 1.56812 0
M  V30 3988 H 369.66 -4.4347 1.96118 0
M  V30 3989 N 371.003 -0.499398 -1.49478 0
M  V30 3990 C 371.953 0.299103 -2.2603 0
M  V30 3991 C 372.937 0.936934 -1.30807 0
M  V30 3992 O 374.129 0.844798 -1.55538 0
M  V30 3993 C 371.258 1.36391 -3.15044 0
M  V30 3994 C 370.344 0.732398 -4.17728 0
M  V30 3995 N 370.735 -0.164028 -5.05534 0
M  V30 3996 C 369.033 0.993162 -4.34801 0
M  V30 3997 C 369.734 -0.525345 -5.79323 0
M  V30 3998 N 368.71 0.106348 -5.43496 0
M  V30 3999 H 372.512 -0.391003 -2.91287 0
M  V30 4000 H 370.026 -0.31537 -1.59308 0
M  V30 4001 H 372.023 1.94939 -3.68516 0
M  V30 4002 H 370.683 2.05571 -2.51338 0
M  V30 4003 H 371.694 -0.534736 -5.15132 0
M  V30 4004 H 368.371 1.67783 -3.82302 0
M  V30 4005 H 369.761 -1.25862 -6.60006 0
M  V30 4006 N 372.481 1.55866 -0.233164 0
M  V30 4007 C 373.711 2.02704 0.399325 0
M  V30 4008 C 374.119 1.11204 1.53069 0
M  V30 4009 O 373.462 0.116182 1.83332 0
M  V30 4010 C 373.524 3.45844 0.981429 0
M  V30 4011 C 373.188 4.56997 -0.0159561 0
M  V30 4012 C 374.185 5.13384 -0.820552 0
M  V30 4013 C 371.87 5.0211 -0.138072 0
M  V30 4014 C 373.864 6.13365 -1.73386 0
M  V30 4015 C 371.551 6.01926 -1.0549 0
M  V30 4016 C 372.549 6.57431 -1.85132 0
M  V30 4017 O 372.237 7.55302 -2.75272 0
M  V30 4018 H 371.969 0.668459 0.100692 0
M  V30 4019 H 374.523 2.02387 -0.35052 0
M  V30 4020 H 372.753 3.43267 1.78058 0
M  V30 4021 H 374.442 3.76262 1.52255 0
M  V30 4022 H 375.208 4.79372 -0.736721 0
M  V30 4023 H 371.087 4.5858 0.471737 0
M  V30 4024 H 374.631 6.56614 -2.35592 0
M  V30 4025 H 370.528 6.35359 -1.1397 0
M  V30 4026 H 371.296 7.72867 -2.69477 0
M  V30 4027 N 373.959 -0.0401083 1.57549 0
M  V30 4028 C 374.909 -1.05175 2.02292 0
M  V30 4029 C 375.893 -1.32674 0.910294 0
M  V30 4030 O 377.085 -1.32444 1.17421 0
M  V30 4031 C 374.214 -2.35622 2.49674 0
M  V30 4032 C 373.3 -2.11261 3.67736 0
M  V30 4033 N 373.691 -1.56923 4.80842 0
M  V30 4034 C 371.989 -2.41596 3.74897 0
M  V30 4035 C 372.69 -1.48111 5.62528 0
M  V30 4036 N 371.666 -1.95282 5.07312 0
M  V30 4037 H 375.468 -0.625455 2.87168 0
M  V30 4038 H 372.982 -0.246624 1.60516 0
M  V30 4039 H 374.979 -3.08893 2.79983 0
M  V30 4040 H 373.639 -2.7894 1.662 0
M  V30 4041 H 374.65 -1.25345 5.02503 0
M  V30 4042 H 371.327 -2.88064 3.02201 0
M  V30 4043 H 372.717 -1.06683 6.63377 0
M  V30 4044 N 375.437 -1.54477 -0.31217 0
M  V30 4045 C 376.686 -1.72438 -1.04633 0
M  V30 4046 C 376.999 -0.511163 -1.88803 0
M  V30 4047 O 378.205 -0.572341 -2.65399 0
M  V30 4048 C 376.661 -3.05043 -1.9099 0
M  V30 4049 C 376.269 -4.33806 -1.11877 0
M  V30 4050 C 378.013 -3.32364 -2.64073 0
M  V30 4051 C 375.92 -5.57467 -1.97445 0
M  V30 4052 H 374.85 -0.642647 -0.394361 0
M  V30 4053 H 377.501 -1.80966 -0.303929 0
M  V30 4054 H 375.883 -2.90451 -2.69173 0
M  V30 4055 H 377.057 -4.59199 -0.383843 0
M  V30 4056 H 375.372 -4.13336 -0.504252 0
M  V30 4057 H 377.969 -4.21951 -3.28423 0
M  V30 4058 H 378.312 -2.50745 -3.32314 0
M  V30 4059 H 378.845 -3.47875 -1.92944 0
M  V30 4060 H 375.584 -6.41722 -1.33692 0
M  V30 4061 H 375.104 -5.36277 -2.6864 0
M  V30 4062 H 376.783 -5.94303 -2.5576 0
M  V30 4063 N 376.915 0.57481 -1.46744 0
M  V30 4064 C 377.862 1.68329 -1.57905 0
M  V30 4065 C 378.832 1.60625 -0.422927 0
M  V30 4066 O 380.017 1.79721 -0.640711 0
M  V30 4067 C 377.157 3.06665 -1.58274 0
M  V30 4068 C 376.27 3.24935 -2.84678 0
M  V30 4069 C 375.405 4.53566 -2.76499 0
M  V30 4070 C 374.444 4.65207 -3.97806 0
M  V30 4071 N 373.581 5.85172 -3.87967 0
M  V30 4072 H 378.421 1.58127 -2.52587 0
M  V30 4073 H 375.958 0.770552 -1.25303 0
M  V30 4074 H 377.916 3.86745 -1.56473 0
M  V30 4075 H 376.546 3.15745 -0.671194 0
M  V30 4076 H 375.598 2.38405 -2.96424 0
M  V30 4077 H 376.91 3.29403 -3.7456 0
M  V30 4078 H 376.064 5.41885 -2.72848 0
M  V30 4079 H 374.803 4.51548 -1.8427 0
M  V30 4080 H 373.808 3.75304 -4.0178 0
M  V30 4081 H 375.033 4.68997 -4.9114 0
M  V30 4082 H 372.979 5.84137 -2.98529 0
M  V30 4083 H 372.896 5.90943 -4.71511 0
M  V30 4084 H 374.164 6.759 -3.88303 0
M  V30 4085 N 378.394 1.34581 0.820102 0
M  V30 4086 C 379.634 1.28448 1.58998 0
M  V30 4087 C 379.998 -0.142883 1.91468 0
M  V30 4088 O 381.199 -0.328422 2.66786 0
M  V30 4089 C 379.47 2.153 2.85273 0
M  V30 4090 S 381.029 2.26548 3.75794 0
M  V30 4091 H 377.847 0.456685 0.54494 0
M  V30 4092 H 380.449 1.69825 0.968487 0
M  V30 4093 H 379.153 3.18008 2.59421 0
M  V30 4094 H 378.684 1.7483 3.52417 0
M  V30 4095 H 380.699 1.44034 4.74835 0
M  V30 4096 N 379.872 -1.04064 1.18357 0
M  V30 4097 C 381.097 -1.81454 1.00445 0
M  V30 4098 C 381.522 -1.82823 -0.442423 0
M  V30 4099 O 380.88 -1.24555 -1.31741 0
M  V30 4100 C 380.928 -3.24925 1.56384 0
M  V30 4101 O 380.032 -4.04856 0.785209 0
M  V30 4102 H 379.373 -0.560604 0.355835 0
M  V30 4103 H 381.903 -1.31059 1.57114 0
M  V30 4104 H 381.913 -3.75702 1.59097 0
M  V30 4105 H 380.588 -3.23244 2.61699 0
M  V30 4106 H 379.165 -3.63537 0.830399 0
M  V30 4107 N 381.35 -0.985608 -1.22978 0
M  V30 4108 C 382.297 -0.529825 -2.24636 0
M  V30 4109 C 383.267 0.434028 -1.60329 0
M  V30 4110 O 384.452 0.340414 -1.87739 0
M  V30 4111 C 381.592 0.156533 -3.44745 0
M  V30 4112 C 380.705 -0.848197 -4.23591 0
M  V30 4113 C 379.84 -0.136109 -5.31026 0
M  V30 4114 C 378.879 -1.1297 -6.01585 0
M  V30 4115 N 378.016 -0.446415 -7.00679 0
M  V30 4116 H 382.856 -1.40148 -2.62988 0
M  V30 4117 H 380.393 -0.702168 -1.29259 0
M  V30 4118 H 382.351 0.571324 -4.1327 0
M  V30 4119 H 380.981 0.992025 -3.07179 0
M  V30 4120 H 380.033 -1.38135 -3.54433 0
M  V30 4121 H 381.345 -1.60512 -4.72268 0
M  V30 4122 H 380.499 0.335784 -6.0577 0
M  V30 4123 H 379.238 0.653373 -4.83304 0
M  V30 4124 H 378.243 -1.6123 -5.25628 0
M  V30 4125 H 379.468 -1.91993 -6.51395 0
M  V30 4126 H 377.414 0.323763 -6.55201 0
M  V30 4127 H 377.331 -1.1419 -7.47326 0
M  V30 4128 H 378.599 0.00291697 -7.795 0
M  V30 4129 N 382.828 1.3818 -0.7579 0
M  V30 4130 C 383.791 2.28764 -0.141286 0
M  V30 4131 C 384.791 1.47388 0.642907 0
M  V30 4132 O 385.981 1.67781 0.468536 0
M  V30 4133 C 383.113 3.31184 0.808069 0
M  V30 4134 H 384.306 2.848 -0.939633 0
M  V30 4135 H 381.859 1.47212 -0.525191 0
M  V30 4136 H 382.594 2.80247 1.63193 0
M  V30 4137 H 382.379 3.91314 0.248104 0
M  V30 4138 H 383.869 3.98909 1.23536 0
M  V30 4139 N 384.306 0.507319 1.49211 0
M  V30 4140 C 385.536 -0.0315292 2.06576 0
M  V30 4141 C 385.944 -1.30791 1.36713 0
M  V30 4142 O 385.287 -1.78324 0.441181 0
M  V30 4143 C 385.349 -0.349104 3.57801 0
M  V30 4144 C 385.013 0.830475 4.49391 0
M  V30 4145 C 386.01 1.72271 4.90529 0
M  V30 4146 C 383.695 1.03107 4.91604 0
M  V30 4147 C 385.689 2.79964 5.72625 0
M  V30 4148 C 383.376 2.11116 5.73475 0
M  V30 4149 C 384.374 2.99379 6.1389 0
M  V30 4150 O 384.062 4.05523 6.94123 0
M  V30 4151 H 383.794 0.0201002 0.675701 0
M  V30 4152 H 386.348 0.705737 1.92895 0
M  V30 4153 H 384.578 -1.14005 3.69513 0
M  V30 4154 H 386.267 -0.827319 3.97379 0
M  V30 4155 H 387.033 1.57958 4.58557 0
M  V30 4156 H 382.912 0.353417 4.59643 0
M  V30 4157 H 386.456 3.48884 6.04091 0
M  V30 4158 H 382.353 2.25421 6.0486 0
M  V30 4159 H 383.121 4.02953 7.1244 0
M  V30 4160 N 385.784 -1.5574 0.241426 0
M  V30 4161 C 387.033 -1.97986 -0.385295 0
M  V30 4162 C 387.346 -1.13267 -1.59468 0
M  V30 4163 O 388.552 -1.45501 -2.2922 0
M  V30 4164 C 387.008 -3.52275 -0.736884 0
M  V30 4165 C 386.616 -4.45726 0.450796 0
M  V30 4166 C 388.36 -4.03189 -1.3281 0
M  V30 4167 C 386.267 -5.91352 0.0756662 0
M  V30 4168 H 385.197 -0.739386 -0.147731 0
M  V30 4169 H 387.848 -1.80308 0.340779 0
M  V30 4170 H 386.23 -3.65628 -1.52094 0
M  V30 4171 H 387.404 -4.44131 1.22819 0
M  V30 4172 H 385.719 -4.05264 0.956573 0
M  V30 4173 H 388.316 -5.09505 -1.62201 0
M  V30 4174 H 388.659 -3.50212 -2.25071 0
M  V30 4175 H 389.192 -3.93141 -0.607069 0
M  V30 4176 H 385.931 -6.48354 0.965272 0
M  V30 4177 H 385.451 -5.96095 -0.665635 0
M  V30 4178 H 387.13 -6.46084 -0.344075 0
M  V30 4179 N 387.262 0.0317525 -1.57568 0
M  V30 4180 C 388.212 1.04101 -2.02847 0
M  V30 4181 C 389.196 1.3219 -0.917317 0
M  V30 4182 O 390.388 1.31819 -1.18121 0
M  V30 4183 C 387.517 2.34295 -2.5092 0
M  V30 4184 C 386.603 2.09308 -3.68851 0
M  V30 4185 N 386.994 1.5437 -4.81667 0
M  V30 4186 C 385.292 2.39604 -3.76172 0
M  V30 4187 C 385.993 1.45126 -5.63306 0
M  V30 4188 N 384.969 1.92589 -5.08341 0
M  V30 4189 H 388.771 0.610217 -2.87495 0
M  V30 4190 H 386.285 0.238108 -1.60645 0
M  V30 4191 H 388.282 3.07404 -2.81617 0
M  V30 4192 H 386.942 2.78055 -1.67677 0
M  V30 4193 H 387.953 1.22678 -5.03161 0
M  V30 4194 H 384.63 2.86457 -3.03724 0
M  V30 4195 H 386.02 1.03163 -6.63933 0
M  V30 4196 N 388.74 1.54641 0.303973 0
M  V30 4197 C 389.968 1.77768 1.05858 0
M  V30 4198 C 390.383 0.535722 1.8104 0
M  V30 4199 O 389.74 -0.494337 1.75677 0
M  V30 4200 C 389.791 2.9834 2.04146 0
M  V30 4201 O 389.512 4.17736 1.32015 0
M  V30 4202 C 391.013 3.33832 2.91669 0
M  V30 4203 H 388.233 0.592961 0.314067 0
M  V30 4204 H 390.777 2.01583 0.344149 0
M  V30 4205 H 388.932 2.76742 2.71096 0
M  V30 4206 H 389.346 4.85693 1.97998 0
M  V30 4207 H 390.82 4.21448 3.56491 0
M  V30 4208 H 391.297 2.51857 3.59812 0
M  V30 4209 H 391.903 3.57579 2.30254 0
M  V30 4210 N 390.218 -0.567019 1.47046 0
M  V30 4211 C 391.634 -0.891975 1.32348 0
M  V30 4212 C 391.834 -1.99154 0.306616 0
M  V30 4213 O 390.89 -2.50883 -0.28532 0
M  V30 4214 C 392.203 -1.29449 2.7141 0
M  V30 4215 C 393.751 -1.40646 2.79621 0
M  V30 4216 C 394.226 -1.84257 4.19301 0
M  V30 4217 N 395.717 -1.91424 4.21795 0
M  V30 4218 C 396.452 -2.26476 5.26779 0
M  V30 4219 N 395.948 -2.60211 6.42077 0
M  V30 4220 N 397.741 -2.27166 5.14152 0
M  V30 4221 H 389.892 0.159074 2.11803 0
M  V30 4222 H 392.155 0.00849752 0.947962 0
M  V30 4223 H 391.861 -0.560448 3.47206 0
M  V30 4224 H 391.735 -2.25273 3.02542 0
M  V30 4225 H 394.122 -2.13133 2.04104 0
M  V30 4226 H 394.203 -0.430339 2.52154 0
M  V30 4227 H 393.847 -1.12343 4.95319 0
M  V30 4228 H 393.777 -2.82855 4.44185 0
M  V30 4229 H 396.268 -1.6778 3.38612 0
M  V30 4230 H 396.581 -2.85956 7.17948 0
M  V30 4231 H 394.926 -2.57813 6.45413 0
M  V30 4232 H 398.117 -2.00244 4.23107 0
M  V30 4233 H 398.29 -2.54154 5.96079 0
M  V30 4234 N 391.696 -1.35014 -0.812953 0
M  V30 4235 C 392.629 -1.21761 -1.93001 0
M  V30 4236 C 393.607 -0.10694 -1.62248 0
M  V30 4237 O 394.791 -0.273891 -1.865 0
M  V30 4238 C 391.918 -0.873404 -3.27245 0
M  V30 4239 C 390.964 -1.99523 -3.76952 0
M  V30 4240 S 391.797 -3.61009 -3.95516 0
M  V30 4241 C 392.953 -3.28651 -5.32672 0
M  V30 4242 H 393.186 -2.16315 -2.03948 0
M  V30 4243 H 390.719 -1.20156 -0.969631 0
M  V30 4244 H 392.677 -0.68161 -4.04802 0
M  V30 4245 H 391.338 0.053971 -3.14054 0
M  V30 4246 H 390.531 -1.70838 -4.74163 0
M  V30 4247 H 390.133 -2.14503 -3.06373 0
M  V30 4248 H 392.425 -2.81085 -6.1644 0
M  V30 4249 H 393.368 -4.25039 -5.66346 0
M  V30 4250 H 393.776 -2.6458 -4.98656 0
M  V30 4251 N 393.175 1.03435 -1.18907 0
M  V30 4252 C 394.591 1.28973 -0.940111 0
M  V30 4253 C 394.791 1.97676 0.390691 0
M  V30 4254 O 393.847 2.26127 1.12352 0
M  V30 4255 C 395.16 2.14221 -2.11021 0
M  V30 4256 C 396.708 2.27547 -2.14922 0
M  V30 4257 C 397.183 3.16164 -3.31367 0
M  V30 4258 N 398.674 3.23752 -3.31269 0
M  V30 4259 C 399.409 3.92495 -4.18014 0
M  V30 4260 N 398.905 4.63515 -5.14904 0
M  V30 4261 N 400.698 3.88838 -4.05908 0
M  V30 4262 H 392.849 0.57252 -2.04538 0
M  V30 4263 H 395.112 0.315184 -0.894071 0
M  V30 4264 H 394.818 1.71054 -3.073 0
M  V30 4265 H 394.692 3.14919 -2.0762 0
M  V30 4266 H 397.079 2.69947 -1.19217 0
M  V30 4267 H 397.16 1.26418 -2.22378 0
M  V30 4268 H 396.804 2.74474 -4.27348 0
M  V30 4269 H 396.734 4.17339 -3.21148 0
M  V30 4270 H 399.225 2.73167 -2.61129 0
M  V30 4271 H 399.538 5.13583 -5.77453 0
M  V30 4272 H 397.883 4.62398 -5.18857 0
M  V30 4273 H 401.074 3.32491 -3.29495 0
M  V30 4274 H 401.247 4.4214 -4.73726 0
M  V30 4275 N 394.653 0.992116 1.22453 0
M  V30 4276 C 395.616 0.546883 2.2258 0
M  V30 4277 C 396.616 -0.369829 1.56489 0
M  V30 4278 O 397.806 -0.161896 1.73446 0
M  V30 4279 C 394.938 -0.204659 3.40285 0
M  V30 4280 H 396.131 1.43234 2.63484 0
M  V30 4281 H 393.684 0.779239 1.3549 0
M  V30 4282 H 394.419 -1.10614 3.04853 0
M  V30 4283 H 394.204 0.45354 3.89468 0
M  V30 4284 H 395.694 -0.504358 4.14543 0
M  V30 4285 N 396.131 -1.37776 0.765217 0
M  V30 4286 C 397.078 -2.30342 0.145274 0
M  V30 4287 C 398.048 -1.5077 -0.696971 0
M  V30 4288 O 399.233 -1.79362 -0.650689 0
M  V30 4289 C 396.373 -3.37227 -0.732939 0
M  V30 4290 C 395.486 -4.31819 0.125199 0
M  V30 4291 C 394.621 -5.25777 -0.757107 0
M  V30 4292 C 393.66 -6.12012 0.103963 0
M  V30 4293 N 392.797 -6.98232 -0.735953 0
M  V30 4294 H 397.637 -2.8278 0.940195 0
M  V30 4295 H 395.174 -1.39211 0.475255 0
M  V30 4296 H 397.132 -3.97818 -1.25686 0
M  V30 4297 H 395.762 -2.86171 -1.49353 0
M  V30 4298 H 394.814 -3.7259 0.766865 0
M  V30 4299 H 396.126 -4.92509 0.789683 0
M  V30 4300 H 395.28 -5.91541 -1.34776 0
M  V30 4301 H 394.019 -4.65481 -1.45529 0
M  V30 4302 H 393.024 -5.45233 0.707197 0
M  V30 4303 H 394.249 -6.74379 0.799381 0
M  V30 4304 H 392.195 -6.40472 -1.41887 0
M  V30 4305 H 392.112 -7.55891 -0.128624 0
M  V30 4306 H 393.38 -7.68393 -1.31121 0
M  V30 4307 N 397.609 -0.515225 -1.4894 0
M  V30 4308 C 398.837 0.0206034 -2.0689 0
M  V30 4309 C 399.252 1.29514 -1.37374 0
M  V30 4310 O 398.609 1.76698 -0.456529 0
M  V30 4311 C 398.66 0.26351 -3.60538 0
M  V30 4312 O 398.381 -0.960517 -4.27441 0
M  V30 4313 C 399.882 0.841383 -4.35242 0
M  V30 4314 H 397.102 -0.0268608 -0.670462 0
M  V30 4315 H 399.646 -0.716651 -1.91532 0
M  V30 4316 H 397.801 0.950777 -3.75552 0
M  V30 4317 H 398.215 -0.73212 -5.19365 0
M  V30 4318 H 399.689 0.96085 -5.43573 0
M  V30 4319 H 400.166 1.8427 -3.98674 0
M  V30 4320 H 400.772 0.191143 -4.2487 0
M  V30 4321 N 399.087 1.5561 -0.249682 0
M  V30 4322 C 400.312 2.03865 0.381305 0
M  V30 4323 C 400.737 1.12769 1.50548 0
M  V30 4324 O 400.095 0.121189 1.80895 0
M  V30 4325 C 400.143 3.50101 0.863816 0
M  V30 4326 O 399.247 3.62132 1.97318 0
M  V30 4327 H 398.588 0.658827 0.0827194 0
M  V30 4328 H 401.118 2.01105 -0.376552 0
M  V30 4329 H 401.128 3.90975 1.1663 0
M  V30 4330 H 399.803 4.1588 0.0411816 0
M  V30 4331 H 398.38 3.33155 1.67517 0
M  V30 4332 N 400.565 -0.0233959 1.57583 0
M  V30 4333 C 401.842 -0.748794 1.807 0
M  V30 4334 C 402.222 -1.9327 0.849106 0
M  V30 4335 O 401.57 -2.28247 -0.107468 0
M  V30 4336 C 401.78 -1.17651 3.28571 0
M  V30 4337 C 403.128 -1.59008 3.93702 0
M  V30 4338 O 404.152 -1.27094 3.32755 0
M  V30 4339 O 403.011 -2.18264 5.01022 0
M  V30 4340 H 400.105 -0.362578 0.743281 0
M  V30 4341 H 402.651 0.000261958 1.697 0
M  V30 4342 H 401.423 -0.331603 3.89892 0
M  V30 4343 H 401.046 -1.98541 3.44481 0
M  V30 4344 N 402.043 -1.548 -0.295768 0
M  V30 4345 C 403.29 -1.74329 -1.03032 0
M  V30 4346 C 403.618 -0.531915 -1.87085 0
M  V30 4347 O 402.873 0.486052 -1.89568 0
M  V30 4348 C 403.172 -2.98797 -1.961 0
M  V30 4349 C 402.838 -4.32356 -1.2798 0
M  V30 4350 C 401.5 -4.68661 -1.09135 0
M  V30 4351 C 403.852 -5.15128 -0.793243 0
M  V30 4352 C 401.18 -5.85312 -0.403269 0
M  V30 4353 C 403.532 -6.32488 -0.118854 0
M  V30 4354 C 402.196 -6.6745 0.0815043 0
M  V30 4355 H 401.466 -0.637916 -0.37702 0
M  V30 4356 H 404.113 -1.8906 -0.304696 0
M  V30 4357 H 402.418 -2.78869 -2.75207 0
M  V30 4358 H 404.115 -3.11102 -2.53015 0
M  V30 4359 H 400.705 -4.03808 -1.43655 0
M  V30 4360 H 404.889 -4.87575 -0.92653 0
M  V30 4361 H 400.145 -6.1094 -0.237098 0
M  V30 4362 H 404.319 -6.95892 0.266035 0
M  V30 4363 H 401.946 -7.57695 0.616685 0
M  V30 4364 N 403.521 0.559213 -1.47345 0
M  V30 4365 C 404.451 1.67622 -1.62558 0
M  V30 4366 C 405.432 1.63331 -0.475087 0
M  V30 4367 O 406.617 1.80983 -0.704182 0
M  V30 4368 C 403.747 3.0626 -1.63774 0
M  V30 4369 C 402.701 3.25397 -2.7803 0
M  V30 4370 C 402.027 4.64801 -2.64318 0
M  V30 4371 C 403.327 3.10965 -4.19641 0
M  V30 4372 H 405.021 1.55146 -2.56067 0
M  V30 4373 H 402.567 0.744961 -1.23233 0
M  V30 4374 H 404.52 3.84247 -1.73008 0
M  V30 4375 H 403.244 3.1969 -0.66825 0
M  V30 4376 H 401.903 2.49817 -2.68304 0
M  V30 4377 H 401.551 4.75028 -1.65401 0
M  V30 4378 H 401.251 4.78555 -3.40968 0
M  V30 4379 H 402.775 5.44926 -2.75478 0
M  V30 4380 H 404.189 3.78772 -4.30354 0
M  V30 4381 H 402.586 3.36229 -4.97062 0
M  V30 4382 H 403.656 2.07736 -4.38148 0
M  V30 4383 N 404.999 1.35443 0.805782 0
M  V30 4384 C 405.946 1.28431 1.91766 0
M  V30 4385 C 406.916 0.156102 1.65365 0
M  V30 4386 O 408.101 0.339936 1.87747 0
M  V30 4387 C 405.241 1.06301 3.2832 0
M  V30 4388 C 404.354 2.2805 3.66902 0
M  V30 4389 C 403.489 1.99064 4.92491 0
M  V30 4390 C 402.528 3.16863 5.23703 0
M  V30 4391 N 401.665 2.87647 6.40471 0
M  V30 4392 H 406.505 2.23511 1.97096 0
M  V30 4393 H 404.042 1.11105 0.964054 0
M  V30 4394 H 406 0.915012 4.07042 0
M  V30 4395 H 404.63 0.148822 3.22457 0
M  V30 4396 H 403.682 2.53711 2.83434 0
M  V30 4397 H 404.994 3.1601 3.85927 0
M  V30 4398 H 404.148 1.81099 5.7904 0
M  V30 4399 H 402.887 1.0839 4.75503 0
M  V30 4400 H 401.892 3.35404 4.35642 0
M  V30 4401 H 403.117 4.08339 5.4262 0
M  V30 4402 H 401.063 1.99568 6.24907 0
M  V30 4403 H 400.98 3.69141 6.59751 0
M  V30 4404 H 402.248 2.73226 7.30047 0
M  V30 4405 N 406.477 -1.02803 1.19454 0
M  V30 4406 C 407.723 -1.76478 0.999171 0
M  V30 4407 C 408.056 -1.88456 -0.468828 0
M  V30 4408 O 407.331 -1.40198 -1.34814 0
M  V30 4409 C 407.614 -3.19044 1.66981 0
M  V30 4410 C 407.467 -3.14932 3.21151 0
M  V30 4411 C 408.786 -4.17456 1.39349 0
M  V30 4412 H 405.905 -0.640614 0.364393 0
M  V30 4413 H 408.547 -1.20005 1.47305 0
M  V30 4414 H 406.697 -3.67263 1.2669 0
M  V30 4415 H 408.369 -2.74605 3.70661 0
M  V30 4416 H 406.612 -2.52625 3.52652 0
M  V30 4417 H 407.283 -4.1566 3.63223 0
M  V30 4418 H 409.759 -3.77842 1.74283 0
M  V30 4419 H 408.635 -5.154 1.88823 0
M  V30 4420 H 408.896 -4.40949 0.318813 0
M  V30 4421 N 407.956 -0.998596 -1.21925 0
M  V30 4422 C 408.886 -0.573688 -2.26343 0
M  V30 4423 C 409.867 0.402296 -1.65274 0
M  V30 4424 O 411.052 0.291683 -1.91997 0
M  V30 4425 C 408.182 0.106839 -3.47136 0
M  V30 4426 C 407.136 -0.788269 -4.20678 0
M  V30 4427 C 406.462 0.0254927 -5.34694 0
M  V30 4428 C 407.762 -2.08784 -4.78755 0
M  V30 4429 H 409.456 -1.44651 -2.62138 0
M  V30 4430 H 407.002 -0.696975 -1.26009 0
M  V30 4431 H 408.955 0.415531 -4.19346 0
M  V30 4432 H 407.679 1.01424 -3.10452 0
M  V30 4433 H 406.338 -1.08069 -3.50309 0
M  V30 4434 H 405.986 0.933989 -4.94253 0
M  V30 4435 H 405.686 -0.570437 -5.84825 0
M  V30 4436 H 407.21 0.328147 -6.09718 0
M  V30 4437 H 408.624 -1.84272 -5.42878 0
M  V30 4438 H 407.021 -2.63307 -5.39249 0
M  V30 4439 H 408.091 -2.76284 -3.98491 0
M  V30 4440 N 409.434 1.37368 -0.772513 0
M  V30 4441 C 410.382 2.32134 -0.147111 0
M  V30 4442 C 411.376 1.54972 0.684106 0
M  V30 4443 O 412.582 1.70363 0.581083 0
M  V30 4444 H 408.957 0.751449 -0.028786 0
M  V30 4445 H 410.928 2.82464 -0.962112 0
M  V30 4446 C 409.677 3.40226 0.71703 0
M  V30 4447 H 409 3.99706 0.0867951 0
M  V30 4448 H 410.44 4.08897 1.12159 0
M  V30 4449 C 408.899 2.80372 1.86797 0
M  V30 4450 O 409.429 2.71183 2.96349 0
M  V30 4451 N 407.635 2.37904 1.66883 0
M  V30 4452 H 407.182 2.45578 0.777759 0
M  V30 4453 H 407.14 1.98202 2.44056 0
M  V30 4454 N 410.912 0.523116 1.48665 0
M  V30 4455 C 412.328 0.180511 1.58576 0
M  V30 4456 C 412.528 -1.31597 1.52592 0
M  V30 4457 O 411.584 -2.0937 1.4114 0
M  V30 4458 C 412.897 0.776949 2.90489 0
M  V30 4459 C 414.445 0.745058 3.04003 0
M  V30 4460 C 414.92 1.31995 4.38567 0
M  V30 4461 N 416.411 1.28162 4.45117 0
M  V30 4462 C 417.146 1.6964 5.47731 0
M  V30 4463 N 416.642 2.18816 6.57337 0
M  V30 4464 N 418.435 1.6092 5.38573 0
M  V30 4465 H 410.586 1.4958 1.50797 0
M  V30 4466 H 412.849 0.621772 0.715614 0
M  V30 4467 H 412.555 1.82732 3.00503 0
M  V30 4468 H 412.429 0.25007 3.7637 0
M  V30 4469 H 414.816 -0.296532 2.93606 0
M  V30 4470 H 414.897 1.30933 2.1975 0
M  V30 4471 H 414.541 2.36043 4.49718 0
M  V30 4472 H 414.471 0.731418 5.21496 0
M  V30 4473 H 416.962 0.92155 3.66491 0
M  V30 4474 H 417.275 2.48478 7.31764 0
M  V30 4475 H 415.62 2.22805 6.58318 0
M  V30 4476 H 418.811 1.22304 4.5184 0
M  V30 4477 H 418.984 1.93567 6.18414 0
M  V30 4478 N 412.39 -1.55475 0.257931 0
M  V30 4479 C 413.353 -2.20551 -0.623706 0
M  V30 4480 C 414.353 -1.17809 -1.09443 0
M  V30 4481 O 415.543 -1.42823 -0.997362 0
M  V30 4482 C 412.675 -2.85784 -1.8585 0
M  V30 4483 H 413.868 -2.99848 -0.0557743 0
M  V30 4484 H 411.421 -1.56298 0.0084422 0
M  V30 4485 H 412.156 -2.10453 -2.46739 0
M  V30 4486 H 411.941 -3.61057 -1.52907 0
M  V30 4487 H 413.431 -3.35553 -2.48584 0
M  V30 4488 N 413.868 0.0150385 -1.57593 0
M  V30 4489 C 415.284 0.370907 -1.5523 0
M  V30 4490 C 415.484 1.75735 -0.985882 0
M  V30 4491 O 414.54 2.44944 -0.613077 0
M  V30 4492 C 415.853 0.259908 -2.99575 0
M  V30 4493 C 417.401 0.335959 -3.11192 0
M  V30 4494 C 417.876 0.254253 -4.57294 0
M  V30 4495 N 419.367 0.312618 -4.62144 0
M  V30 4496 C 420.102 0.272505 -5.72752 0
M  V30 4497 N 419.598 0.183864 -6.92556 0
M  V30 4498 N 421.391 0.323267 -5.6117 0
M  V30 4499 H 413.542 -0.892104 -1.92757 0
M  V30 4500 H 415.805 -0.340563 -0.884715 0
M  V30 4501 H 415.511 -0.693403 -3.44797 0
M  V30 4502 H 415.385 1.048 -3.62349 0
M  V30 4503 H 417.772 1.27971 -2.65909 0
M  V30 4504 H 417.853 -0.481739 -2.51223 0
M  V30 4505 H 417.497 -0.685887 -5.03247 0
M  V30 4506 H 417.427 1.09024 -5.15191 0
M  V30 4507 H 419.918 0.38307 -3.75953 0
M  V30 4508 H 420.231 0.15874 -7.72637 0
M  V30 4509 H 418.576 0.149708 -6.94839 0
M  V30 4510 H 421.767 0.390607 -4.66467 0
M  V30 4511 H 421.94 0.288539 -6.47357 0
M  V30 4512 N 415.346 1.54954 0.287554 0
M  V30 4513 C 416.757 1.65732 0.859634 0
M  V30 4514 C 417.108 0.574767 1.87592 0
M  V30 4515 O 416.233 -0.286299 2.14498 0
M  V30 4516 C 416.828 3.00438 1.56597 0
M  V30 4517 C 415.387 3.13292 2.08627 0
M  V30 4518 C 414.534 2.61473 0.923416 0
M  V30 4519 H 417.485 1.5857 0.0642338 0
M  V30 4520 H 417.506 2.92613 2.43224 0
M  V30 4521 H 417.018 3.79207 0.826053 0
M  V30 4522 H 415.119 2.39268 2.85625 0
M  V30 4523 H 415.232 4.19647 2.31157 0
M  V30 4524 H 413.596 2.18264 1.31275 0
M  V30 4525 H 414.379 3.42733 0.197241 0
M  V30 4526 N 416.824 -0.551391 1.4764 0
M  V30 4527 C 418.101 -1.31229 1.45046 0
M  V30 4528 C 418.481 -2.10563 0.150527 0
M  V30 4529 O 417.829 -2.11374 -0.867956 0
M  V30 4530 C 418.039 -2.21189 2.69956 0
M  V30 4531 C 419.387 -2.82021 3.1741 0
M  V30 4532 O 420.411 -2.31488 2.70724 0
M  V30 4533 O 419.27 -3.73885 3.98588 0
M  V30 4534 H 416.364 -0.591193 0.578291 0
M  V30 4535 H 418.91 -0.569813 1.59847 0
M  V30 4536 H 417.682 -1.62207 3.56096 0
M  V30 4537 H 417.305 -3.02722 2.57769 0
M  V30 4538 N 418.302 -1.35869 -0.798587 0
M  V30 4539 C 419.265 -1.29307 -1.89242 0
M  V30 4540 C 420.265 -0.202747 -1.59517 0
M  V30 4541 O 421.455 -0.456957 -1.681 0
M  V30 4542 C 418.587 -1.00229 -3.25833 0
M  V30 4543 H 419.78 -2.26576 -1.96478 0
M  V30 4544 H 417.333 -1.20509 -0.995358 0
M  V30 4545 H 418.068 -0.033801 -3.24282 0
M  V30 4546 H 417.853 -1.79121 -3.48795 0
M  V30 4547 H 419.343 -0.98219 -4.05885 0
M  V30 4548 N 419.78 1.02168 -1.19998 0
M  V30 4549 C 420.69 2.14069 -0.959774 0
M  V30 4550 C 421.706 1.73804 0.082655 0
M  V30 4551 O 422.882 2.01133 -0.103633 0
M  V30 4552 C 419.947 3.42936 -0.509459 0
M  V30 4553 C 419.008 3.97474 -1.62213 0
M  V30 4554 C 418.241 5.2019 -1.19321 0
M  V30 4555 O 418.464 5.70369 -0.0597726 0
M  V30 4556 O 417.398 5.67749 -1.99863 0
M  V30 4557 H 421.224 2.37199 -1.89658 0
M  V30 4558 H 418.809 1.12469 -0.983411 0
M  V30 4559 H 420.691 4.20551 -0.267322 0
M  V30 4560 H 419.366 3.21234 0.398821 0
M  V30 4561 H 418.273 3.21161 -1.9185 0
M  V30 4562 H 419.606 4.23555 -2.50723 0
M  V30 4563 N 421.258 1.00505 1.21394 0
M  V30 4564 C 422.205 0.565496 2.23765 0
M  V30 4565 C 423.175 -0.408466 1.60999 0
M  V30 4566 O 424.36 -0.310503 1.88257 0
M  V30 4567 C 421.5 -0.101667 3.4495 0
M  V30 4568 C 420.613 0.915479 4.22188 0
M  V30 4569 C 419.748 0.220574 5.30742 0
M  V30 4570 C 418.787 1.22527 5.99711 0
M  V30 4571 N 417.924 0.557831 6.9988 0
M  V30 4572 H 422.764 1.44314 2.60725 0
M  V30 4573 H 420.301 0.722643 1.28126 0
M  V30 4574 H 422.259 -0.505504 4.14126 0
M  V30 4575 H 420.889 -0.94303 3.08718 0
M  V30 4576 H 419.941 1.43756 3.52191 0
M  V30 4577 H 421.253 1.68005 4.69655 0
M  V30 4578 H 420.407 -0.239368 6.06228 0
M  V30 4579 H 419.146 -0.576401 4.84282 0
M  V30 4580 H 418.151 1.69571 5.22997 0
M  V30 4581 H 419.376 2.02332 6.48258 0
M  V30 4582 H 417.322 -0.219486 6.55633 0
M  V30 4583 H 417.239 1.26065 7.45415 0
M  V30 4584 H 418.507 0.121095 7.79406 0
M  V30 4585 N 422.737 -1.36956 0.779787 0
M  V30 4586 C 423.684 -2.30175 0.169697 0
M  V30 4587 C 424.654 -1.51501 -0.68094 0
M  V30 4588 O 425.839 -1.80042 -0.631629 0
M  V30 4589 C 422.979 -3.37985 -0.697131 0
M  V30 4590 C 422.092 -4.31661 0.170992 0
M  V30 4591 C 421.227 -5.2655 -0.701298 0
M  V30 4592 C 420.266 -6.11867 0.168869 0
M  V30 4593 N 419.403 -6.98973 -0.661855 0
M  V30 4594 H 424.243 -2.81767 0.970135 0
M  V30 4595 H 421.78 -1.38699 0.489994 0
M  V30 4596 H 423.738 -3.99128 -1.2146 0
M  V30 4597 H 422.368 -2.87739 -1.46309 0
M  V30 4598 H 421.42 -3.71756 0.80634 0
M  V30 4599 H 422.732 -4.91644 0.841875 0
M  V30 4600 H 421.886 -5.92937 -1.28494 0
M  V30 4601 H 420.625 -4.66998 -1.40584 0
M  V30 4602 H 419.63 -5.44452 0.764986 0
M  V30 4603 H 420.855 -6.73493 0.870863 0
M  V30 4604 H 418.801 -6.41941 -1.35086 0
M  V30 4605 H 418.718 -7.55984 -0.0484447 0
M  V30 4606 H 419.986 -7.6974 -1.22963 0
M  V30 4607 N 424.215 -0.530993 -1.48385 0
M  V30 4608 C 425.125 0.23503 -2.3342 0
M  V30 4609 C 426.141 0.93801 -1.46552 0
M  V30 4610 O 427.317 0.912745 -1.7953 0
M  V30 4611 C 424.382 1.26778 -3.22689 0
M  V30 4612 C 423.443 0.575038 -4.25431 0
M  V30 4613 C 422.676 1.55858 -5.10435 0
M  V30 4614 O 422.899 2.79129 -4.97437 0
M  V30 4615 O 421.833 1.09742 -5.91811 0
M  V30 4616 H 425.659 -0.461794 -3.00169 0
M  V30 4617 H 423.244 -0.291903 -1.46521 0
M  V30 4618 H 425.126 1.86457 -3.77904 0
M  V30 4619 H 423.801 1.94699 -2.586 0
M  V30 4620 H 422.708 -0.0622782 -3.74048 0
M  V30 4621 H 424.041 -0.062253 -4.92161 0
M  V30 4622 N 425.693 1.55336 -0.266172 0
M  V30 4623 C 426.626 2.18256 0.666296 0
M  V30 4624 C 427.604 1.14064 1.1588 0
M  V30 4625 O 428.788 1.42546 1.23341 0
M  V30 4626 C 425.915 2.79867 1.90768 0
M  V30 4627 C 424.961 3.97283 1.55141 0
M  V30 4628 S 425.794 5.31694 0.637313 0
M  V30 4629 C 426.95 5.96769 1.88727 0
M  V30 4630 H 427.183 2.97008 0.131647 0
M  V30 4631 H 424.716 1.54317 -0.0504869 0
M  V30 4632 H 426.674 3.15996 2.62025 0
M  V30 4633 H 425.335 2.01025 2.41346 0
M  V30 4634 H 424.528 4.3905 2.4749 0
M  V30 4635 H 424.13 3.6253 0.919113 0
M  V30 4636 H 426.422 6.15458 2.83227 0
M  V30 4637 H 427.365 6.91752 1.51276 0
M  V30 4638 H 427.773 5.26034 2.04814 0
M  V30 4639 N 427.171 -0.0066808 1.57599 0
M  V30 4640 C 428.118 -1.00024 2.08 0
M  V30 4641 C 429.088 -1.34549 0.973943 0
M  V30 4642 O 430.273 -1.44502 1.24595 0
M  V30 4643 C 427.413 -2.2891 2.58252 0
M  V30 4644 C 426.526 -2.00346 3.82734 0
M  V30 4645 C 425.661 -3.23265 4.21513 0
M  V30 4646 C 424.7 -2.90357 5.3885 0
M  V30 4647 N 423.837 -4.05793 5.72954 0
M  V30 4648 H 428.677 -0.563499 2.92624 0
M  V30 4649 H 426.214 -0.266592 1.44664 0
M  V30 4650 H 428.172 -3.04247 2.85464 0
M  V30 4651 H 426.802 -2.70265 1.76512 0
M  V30 4652 H 425.854 -1.15406 3.62471 0
M  V30 4653 H 427.166 -1.72086 4.68175 0
M  V30 4654 H 426.32 -4.06953 4.49971 0
M  V30 4655 H 425.059 -3.54657 3.34768 0
M  V30 4656 H 424.064 -2.05075 5.10122 0
M  V30 4657 H 425.289 -2.60219 6.27266 0
M  V30 4658 H 423.235 -4.37094 4.89167 0
M  V30 4659 H 423.152 -3.81034 6.52954 0
M  V30 4660 H 424.42 -4.90289 6.06001 0
M  V30 4661 N 428.649 -1.55105 -0.279332 0
M  V30 4662 C 429.877 -1.7943 -1.03017 0
M  V30 4663 C 430.292 -0.564456 -1.80165 0
M  V30 4664 O 429.649 0.466326 -1.76442 0
M  V30 4665 C 429.7 -3.0155 -1.99374 0
M  V30 4666 O 429.421 -4.19784 -1.25352 0
M  V30 4667 C 430.922 -3.3843 -2.86321 0
M  V30 4668 H 428.142 -0.597882 -0.304594 0
M  V30 4669 H 430.686 -2.02105 -0.312035 0
M  V30 4670 H 428.841 -2.81019 -2.66659 0
M  V30 4671 H 429.255 -4.88781 -1.90246 0
M  V30 4672 H 430.729 -4.27066 -3.49741 0
M  V30 4673 H 431.206 -2.57549 -3.5576 0
M  V30 4674 H 431.812 -3.61197 -2.24536 0
M  V30 4675 N 430.127 0.543554 -1.4793 0
M  V30 4676 C 431.376 1.29649 -1.54512 0
M  V30 4677 C 431.689 1.94382 -0.217973 0
M  V30 4678 O 432.895 2.71017 -0.161908 0
M  V30 4679 C 431.351 2.35175 -2.72435 0
M  V30 4680 C 430.959 1.76572 -4.11736 0
M  V30 4681 C 432.703 3.11564 -2.8832 0
M  V30 4682 C 430.61 2.79958 -5.20939 0
M  V30 4683 H 429.54 0.487541 -0.57517 0
M  V30 4684 H 432.191 0.575708 -1.74235 0
M  V30 4685 H 430.573 3.10229 -2.46118 0
M  V30 4686 H 431.747 1.07799 -4.48013 0
M  V30 4687 H 430.062 1.12722 -4.00852 0
M  V30 4688 H 432.659 3.88794 -3.67074 0
M  V30 4689 H 433.002 3.66594 -1.97268 0
M  V30 4690 H 433.535 2.43623 -3.14472 0
M  V30 4691 H 430.274 2.29766 -6.13912 0
M  V30 4692 H 429.794 3.47101 -4.89164 0
M  V30 4693 H 431.473 3.43198 -5.48474 0
M  V30 4694 N 431.605 1.3629 0.791371 0
M  V30 4695 C 432.833 1.33562 1.58016 0
M  V30 4696 C 433.248 -0.0835616 1.88615 0
M  V30 4697 O 432.605 -1.0399 1.49974 0
M  V30 4698 C 432.656 2.15517 2.90232 0
M  V30 4699 O 432.377 3.51902 2.60953 0
M  V30 4700 C 433.878 2.20546 3.84544 0
M  V30 4701 H 431.098 0.458226 0.490173 0
M  V30 4702 H 433.642 1.79361 0.982345 0
M  V30 4703 H 431.797 1.73278 3.46487 0
M  V30 4704 H 432.211 3.94644 3.4548 0
M  V30 4705 H 433.685 2.82252 4.74382 0
M  V30 4706 H 434.162 1.20838 4.2225 0
M  V30 4707 H 434.768 2.63013 3.34222 0
M  V30 4708 N 433.083 -1.0153 1.20538 0
M  V30 4709 C 434.331 -1.74803 1.01432 0
M  V30 4710 C 434.652 -1.8963 -0.454456 0
M  V30 4711 O 433.922 -1.43975 -1.32846 0
M  V30 4712 H 432.502 -0.647598 0.372324 0
M  V30 4713 H 435.164 -1.22402 1.5167 0
M  V30 4714 H 434.26 -2.75114 1.47373 0
M  V30 4715 N 434.561 -1.01147 -1.20859 0
M  V30 4716 C 435.508 -0.577354 -2.23462 0
M  V30 4717 C 436.478 0.399922 -1.61214 0
M  V30 4718 O 437.663 0.300515 -1.88419 0
M  V30 4719 C 434.803 0.083372 -3.44999 0
M  V30 4720 C 433.916 -0.937856 -4.21697 0
M  V30 4721 C 433.051 -0.248717 -5.30617 0
M  V30 4722 C 432.09 -1.25705 -5.99053 0
M  V30 4723 N 431.227 -0.594939 -6.99575 0
M  V30 4724 H 436.067 -1.45695 -2.59956 0
M  V30 4725 H 433.604 -0.729428 -1.27741 0
M  V30 4726 H 435.562 0.483535 -4.14388 0
M  V30 4727 H 434.192 0.926645 -3.09214 0
M  V30 4728 H 433.244 -1.45622 -3.51423 0
M  V30 4729 H 434.556 -1.70493 -4.68757 0
M  V30 4730 H 433.71 0.207215 -6.06346 0
M  V30 4731 H 432.449 0.55071 -4.84581 0
M  V30 4732 H 431.454 -1.72343 -5.2209 0
M  V30 4733 H 432.679 -2.05767 -6.47176 0
M  V30 4734 H 430.625 0.184713 -6.5574 0
M  V30 4735 H 430.542 -1.30017 -7.44736 0
M  V30 4736 H 431.81 -0.162427 -7.79331 0
M  V30 4737 N 436.039 1.36541 -0.78704 0
M  V30 4738 C 437.267 2.03561 -0.370199 0
M  V30 4739 C 437.682 1.59347 1.01263 0
M  V30 4740 O 437.039 0.781781 1.64907 0
M  V30 4741 C 437.09 3.59033 -0.421614 0
M  V30 4742 O 436.811 4.01634 -1.7499 0
M  V30 4743 C 438.312 4.433 0.00489763 0
M  V30 4744 H 435.532 0.653346 -0.152904 0
M  V30 4745 H 438.076 1.74566 -1.06522 0
M  V30 4746 H 436.231 3.86746 0.224971 0
M  V30 4747 H 436.645 4.96217 -1.69909 0
M  V30 4748 H 438.119 5.51939 -0.0822184 0
M  V30 4749 H 438.596 4.26285 1.05723 0
M  V30 4750 H 439.202 4.20843 -0.614085 0
M  V30 4751 N 437.518 0.538854 1.48102 0
M  V30 4752 C 438.765 0.0080018 2.02498 0
M  V30 4753 C 439.093 -1.33437 1.41509 0
M  V30 4754 O 438.348 -1.87709 0.553507 0
M  V30 4755 C 438.647 -0.153808 3.57069 0
M  V30 4756 C 438.313 1.11533 4.36888 0
M  V30 4757 C 436.975 1.46314 4.58417 0
M  V30 4758 C 439.327 1.95718 4.83057 0
M  V30 4759 C 436.655 2.6516 5.23361 0
M  V30 4760 C 439.007 3.13751 5.49312 0
M  V30 4761 C 437.671 3.48866 5.69077 0
M  V30 4762 H 436.941 0.00292807 0.740994 0
M  V30 4763 H 439.588 0.706668 1.77984 0
M  V30 4764 H 437.893 -0.935309 3.80472 0
M  V30 4765 H 439.59 -0.579607 3.96789 0
M  V30 4766 H 436.18 0.834484 4.20398 0
M  V30 4767 H 440.364 1.70158 4.66219 0
M  V30 4768 H 435.62 2.92558 5.36861 0
M  V30 4769 H 439.794 3.79282 5.84053 0
M  V30 4770 H 437.421 4.41054 6.19173 0
M  V30 4771 N 438.996 -1.55193 0.274407 0
M  V30 4772 C 440.221 -2.04446 -0.348824 0
M  V30 4773 C 440.646 -1.15149 -1.48735 0
M  V30 4774 O 440.004 -0.149952 -1.80679 0
M  V30 4775 C 440.052 -3.51431 -0.808009 0
M  V30 4776 O 439.156 -3.65225 -1.91531 0
M  V30 4777 H 438.497 -0.66006 -0.0722276 0
M  V30 4778 H 441.027 -2.00481 0.408498 0
M  V30 4779 H 441.037 -3.92781 -1.10395 0
M  V30 4780 H 439.712 -4.15892 0.0249865 0
M  V30 4781 H 438.289 -3.35778 -1.62196 0
M  V30 4782 N 440.474 -0.00167713 -1.576 0
M  V30 4783 C 441.699 0.69739 -1.95323 0
M  V30 4784 C 442.124 1.6642 -0.876706 0
M  V30 4785 O 441.482 1.80548 0.165007 0
M  V30 4786 C 441.53 1.40403 -3.32144 0
M  V30 4787 O 440.634 2.5185 -3.26566 0
M  V30 4788 H 439.975 0.185373 -0.637599 0
M  V30 4789 H 442.505 -0.0553665 -2.04525 0
M  V30 4790 H 442.515 1.76707 -3.67748 0
M  V30 4791 H 441.19 0.695167 -4.10049 0
M  V30 4792 H 439.767 2.17861 -3.0264 0
M  V30 4793 N 441.952 1.55251 0.271103 0
M  V30 4794 C 443.368 1.47133 0.618393 0
M  V30 4795 C 443.568 0.686994 1.89427 0
M  V30 4796 O 442.624 0.206609 2.51653 0
M  V30 4797 C 443.937 2.91361 0.743593 0
M  V30 4798 C 445.485 3.01587 0.837522 0
M  V30 4799 C 445.96 4.47073 0.994483 0
M  V30 4800 N 447.451 4.50909 1.05996 0
M  V30 4801 C 448.186 5.60698 1.20024 0
M  V30 4802 N 447.682 6.80348 1.30759 0
M  V30 4803 N 449.475 5.48444 1.23149 0
M  V30 4804 H 441.626 2.04698 -0.566784 0
M  V30 4805 H 443.889 0.928319 -0.192165 0
M  V30 4806 H 443.595 3.51483 -0.123493 0
M  V30 4807 H 443.469 3.40484 1.62328 0
M  V30 4808 H 445.856 2.4156 1.69507 0
M  V30 4809 H 445.937 2.55713 -0.0668086 0
M  V30 4810 H 445.581 5.07703 0.141582 0
M  V30 4811 H 445.511 4.90605 1.91349 0
M  V30 4812 H 448.002 3.6472 0.989316 0
M  V30 4813 H 448.315 7.59772 1.41303 0
M  V30 4814 H 446.66 6.83156 1.27761 0
M  V30 4815 H 449.851 4.53907 1.14394 0
M  V30 4816 H 450.024 6.34049 1.33738 0
M  V30 4817 O 443.469 -0.416875 1.56027 0
M  V30 4818 H 444.16 -1.06974 1.61481 0
M  V30 END ATOM
M  V30 BEGIN BOND
M  V30 END BOND
M  V30 END CTAB
M  END
$$$$
