drugbank_target|O15197 Ephrin type-B receptor 6 (DB12010)
 OpenBabel12092121153D

  0  0  0     0  0            999 V3000
M  V30 BEGIN CTAB
M  V30 COUNTS 15394 15592 0 0 0
M  V30 BEGIN ATOM
M  V30 1 H -0.908 1.98254 -0.117106 0
M  V30 2 N 0 1.576 0 0
M  V30 3 C 0.933 2.03868 1.02534 0
M  V30 4 C 1.911 0.928543 1.3348 0
M  V30 5 O 3.095 1.19667 1.45644 0
M  V30 6 C 0.222 2.43627 2.35294 0
M  V30 7 C -0.732 3.65373 2.2001 0
M  V30 8 S 0.101 5.13292 1.52614 0
M  V30 9 C 1.257 5.56322 2.86805 0
M  V30 10 H 1.49 2.90518 0.631377 0
M  V30 11 H -0.977 1.52953 0.210867 0
M  V30 12 H 0.981 2.67203 3.11629 0
M  V30 13 H -0.358 1.57376 2.7183 0
M  V30 14 H -1.165 3.90944 3.18086 0
M  V30 15 H -1.563 3.418 1.51819 0
M  V30 16 H 0.729 5.58782 3.83104 0
M  V30 17 H 1.672 6.56266 2.65933 0
M  V30 18 H 2.08 4.83886 2.90714 0
M  V30 19 N 1.4781 -0.272755 1.55222 0
M  V30 20 C 2.4411 -1.32041 1.87344 0
M  V30 21 C 3.4411 -1.42342 0.74803 0
M  V30 22 O 4.6311 -1.41488 1.0162 0
M  V30 23 C 1.7631 -2.70173 2.07893 0
M  V30 24 H 2.9561 -1.04789 2.80997 0
M  V30 25 H 0.5091 -0.51083 1.47717 0
M  V30 26 H 1.2441 -3.02605 1.16622 0
M  V30 27 H 1.0291 -2.64082 2.89833 0
M  V30 28 H 2.5191 -3.45869 2.34017 0
M  V30 29 N 2.9562 -1.48159 -0.537278 0
M  V30 30 C 4.1842 -1.59454 -1.31841 0
M  V30 31 C 4.5992 -0.252065 -1.8711 0
M  V30 32 O 3.9562 0.757621 -1.66031 0
M  V30 33 C 4.0072 -2.63546 -2.47439 0
M  V30 34 O 3.7282 -3.92583 -1.94449 0
M  V30 35 C 5.2292 -2.85212 -3.39366 0
M  V30 36 H 2.4492 -0.53785 -0.401196 0
M  V30 37 H 4.9932 -1.93932 -0.648891 0
M  V30 38 H 3.1482 -2.31946 -3.1029 0
M  V30 39 H 3.5622 -4.49629 -2.70063 0
M  V30 40 H 5.0362 -3.61863 -4.16844 0
M  V30 41 H 5.5132 -1.93765 -3.94147 0
M  V30 42 H 6.1192 -3.18086 -2.82314 0
M  V30 43 N 4.4343 0.785586 -1.36625 0
M  V30 44 C 5.3443 1.92964 -1.33425 0
M  V30 45 C 6.3603 1.72394 -0.235851 0
M  V30 46 O 7.5363 1.95866 -0.468878 0
M  V30 47 C 4.6013 3.27884 -1.12662 0
M  V30 48 C 3.6623 3.61204 -2.32013 0
M  V30 49 C 2.8953 4.89687 -2.12231 0
M  V30 50 O 3.1183 5.59704 -1.09945 0
M  V30 51 O 2.0523 5.21752 -3.00098 0
M  V30 52 H 5.8783 1.98613 -2.29753 0
M  V30 53 H 3.4633 0.926384 -1.17211 0
M  V30 54 H 5.3453 4.08614 -1.03016 0
M  V30 55 H 4.0203 3.23118 -0.193991 0
M  V30 56 H 2.9273 2.80765 -2.47228 0
M  V30 57 H 4.2603 3.70698 -3.23796 0
M  V30 58 N 5.9124 1.20967 1.01018 0
M  V30 59 C 7.1604 1.02172 1.74371 0
M  V30 60 C 7.4814 -0.446414 1.89821 0
M  V30 61 O 6.7514 -1.32234 1.44537 0
M  V30 62 H 5.3314 0.375066 0.646014 0
M  V30 63 H 7.9934 1.52187 1.21758 0
M  V30 64 H 7.0894 1.48538 2.74487 0
M  V30 65 N 7.3905 -1.2043 1.01659 0
M  V30 66 C 8.3535 -2.21433 0.591616 0
M  V30 67 C 9.3535 -1.57203 -0.338226 0
M  V30 68 O 10.5435 -1.73737 -0.126918 0
M  V30 69 C 7.6755 -3.40628 -0.136058 0
M  V30 70 H 8.8685 -2.60545 1.48514 0
M  V30 71 H 6.4215 -1.33893 0.806379 0
M  V30 72 H 7.1565 -3.07019 -1.04449 0
M  V30 73 H 6.9415 -3.88475 0.531917 0
M  V30 74 H 8.4315 -4.15475 -0.420735 0
M  V30 75 N 8.8686 -0.792821 -1.36206 0
M  V30 76 C 9.8316 -0.199459 -2.2833 0
M  V30 77 C 10.8316 0.605189 -1.48977 0
M  V30 78 O 12.0216 0.425685 -1.68919 0
M  V30 79 C 9.1536 0.723523 -3.33134 0
M  V30 80 H 10.3466 -1.01181 -2.82316 0
M  V30 81 H 7.8996 -0.562485 -1.45828 0
M  V30 82 H 8.6346 1.56008 -2.84309 0
M  V30 83 H 8.4196 0.148436 -3.91819 0
M  V30 84 H 9.9096 1.13344 -4.01924 0
M  V30 85 N 10.3467 1.47872 -0.545128 0
M  V30 86 C 11.2787 2.27869 0.246621 0
M  V30 87 C 12.2917 1.36282 0.890561 0
M  V30 88 O 13.4807 1.61207 0.766449 0
M  V30 89 C 10.5807 3.10159 1.36582 0
M  V30 90 C 9.7537 4.29627 0.820954 0
M  V30 91 C 8.8127 4.93607 1.82314 0
M  V30 92 O 7.8387 5.52366 1.37406 0
M  V30 93 N 9.0407 4.87211 3.15603 0
M  V30 94 H 11.8057 2.96459 -0.439539 0
M  V30 95 H 9.3667 1.57367 -0.380421 0
M  V30 96 H 11.3587 3.49829 2.03474 0
M  V30 97 H 9.9287 2.43891 1.9554 0
M  V30 98 H 9.1487 3.94192 -0.0244032 0
M  V30 99 H 10.4367 5.06928 0.436063 0
M  V30 100 H 9.8347 4.40651 3.54744 0
M  V30 101 H 8.3917 5.30937 3.78087 0
M  V30 102 N 11.8248 0.280983 1.55075 0
M  V30 103 C 12.7548 -0.597469 2.25727 0
M  V30 104 C 13.7358 -1.15417 1.24952 0
M  V30 105 O 14.9208 -1.18722 1.53684 0
M  V30 106 C 12.0508 -1.7789 2.98283 0
M  V30 107 C 11.0048 -1.35347 4.06036 0
M  V30 108 C 10.3308 -2.61846 4.66198 0
M  V30 109 C 11.6308 -0.499354 5.19907 0
M  V30 110 H 13.3248 -0.00824265 2.99399 0
M  V30 111 H 10.8708 -0.0025244 1.44 0
M  V30 112 H 12.8238 -2.39937 3.46422 0
M  V30 113 H 11.5478 -2.39405 2.22155 0
M  V30 114 H 10.2068 -0.756156 3.58717 0
M  V30 115 H 9.8548 -3.21632 3.86732 0
M  V30 116 H 9.5548 -2.3409 5.38958 0
M  V30 117 H 11.0788 -3.24732 5.1709 0
M  V30 118 H 12.4928 -1.02498 5.64063 0
M  V30 119 H 10.8898 -0.316424 5.99265 0
M  V30 120 H 11.9598 0.480459 4.82514 0
M  V30 121 N 13.3029 -1.57598 0.00835791 0
M  V30 122 C 14.5509 -1.90551 -0.6734 0
M  V30 123 C 14.8719 -0.883301 -1.73847 0
M  V30 124 O 14.1419 0.0781442 -1.95744 0
M  V30 125 H 12.7219 -0.703312 -0.251717 0
M  V30 126 H 15.3839 -1.94833 0.0512592 0
M  V30 127 H 14.4799 -2.9056 -1.13935 0
M  V30 128 N 14.781 0.264519 -1.55364 0
M  V30 129 C 15.729 1.34702 -1.89626 0
M  V30 130 C 16.723 1.50712 -0.773459 0
M  V30 131 O 17.929 1.52395 -0.957897 0
M  V30 132 H 14.304 0.450682 -0.601988 0
M  V30 133 H 16.275 1.0306 -2.80038 0
M  V30 134 C 15.024 2.6989 -2.19214 0
M  V30 135 H 14.347 2.58365 -3.05103 0
M  V30 136 H 15.787 3.44553 -2.47102 0
M  V30 137 C 14.246 3.21637 -1.00254 0
M  V30 138 O 14.776 4.00973 -0.241501 0
M  V30 139 N 12.982 2.7943 -0.797938 0
M  V30 140 H 12.529 2.15026 -1.4185 0
M  V30 141 H 12.487 3.144 -0.00363422 0
M  V30 142 N 16.2591 1.48442 0.529413 0
M  V30 143 C 17.6751 1.34575 0.858004 0
M  V30 144 C 17.8751 0.3572 1.98309 0
M  V30 145 O 16.9311 -0.221379 2.51528 0
M  V30 146 C 18.2441 2.74617 1.22499 0
M  V30 147 C 19.7921 2.83109 1.33484 0
M  V30 148 C 20.2671 4.23854 1.73526 0
M  V30 149 N 21.7581 4.2653 1.80628 0
M  V30 150 C 22.4931 5.32372 2.12997 0
M  V30 151 N 21.9891 6.48491 2.43786 0
M  V30 152 N 23.7821 5.19766 2.14008 0
M  V30 153 H 15.9331 2.1133 -0.212925 0
M  V30 154 H 18.1961 0.947439 -0.0326199 0
M  V30 155 H 17.9021 3.4852 0.471905 0
M  V30 156 H 17.7761 3.08177 2.17501 0
M  V30 157 H 20.1631 2.09462 2.0787 0
M  V30 158 H 20.2441 2.53168 0.366027 0
M  V30 159 H 19.8881 4.98018 0.997013 0
M  V30 160 H 19.8181 4.5124 2.71459 0
M  V30 161 H 22.3091 3.42772 1.59108 0
M  V30 162 H 22.6221 7.24993 2.67592 0
M  V30 163 H 20.9671 6.51765 2.41304 0
M  V30 164 H 24.1581 4.28066 1.89412 0
M  V30 165 H 24.3311 6.02354 2.38902 0
M  V30 166 N 17.7372 -0.778329 1.37039 0
M  V30 167 C 18.9832 -1.53892 1.32079 0
M  V30 168 C 19.3162 -1.9396 -0.0965386 0
M  V30 169 O 18.5912 -1.63568 -1.05242 0
M  V30 170 C 18.8742 -2.80847 2.25382 0
M  V30 171 C 18.7272 -2.47076 3.75864 0
M  V30 172 C 20.0462 -3.82741 2.1725 0
M  V30 173 H 17.1652 -0.558303 0.48111 0
M  V30 174 H 19.8072 -0.893397 1.67685 0
M  V30 175 H 17.9572 -3.35931 1.95148 0
M  V30 176 H 19.6292 -1.97957 4.16666 0
M  V30 177 H 17.8722 -1.79863 3.94755 0
M  V30 178 H 18.5432 -3.37798 4.36574 0
M  V30 179 H 21.0192 -3.37133 2.43887 0
M  V30 180 H 19.8952 -4.69303 2.84686 0
M  V30 181 H 20.1562 -4.2652 1.16331 0
M  V30 182 N 19.2153 -1.21501 -1.00376 0
M  V30 183 C 20.1783 -0.976927 -2.07337 0
M  V30 184 C 21.1783 0.0525322 -1.60714 0
M  V30 185 O 22.3683 -0.184869 -1.73216 0
M  V30 186 C 19.5003 -0.473423 -3.37597 0
M  V30 187 H 20.6933 -1.92587 -2.29892 0
M  V30 188 H 18.2463 -1.03217 -1.17371 0
M  V30 189 H 18.9813 0.480379 -3.20722 0
M  V30 190 H 18.7663 -1.216 -3.72768 0
M  V30 191 H 20.2563 -0.32675 -4.1632 0
M  V30 192 N 20.6934 1.19889 -1.02296 0
M  V30 193 C 21.9414 1.89046 -0.714558 0
M  V30 194 C 22.2624 1.79636 0.758681 0
M  V30 195 O 21.5324 1.20292 1.54618 0
M  V30 196 H 20.1124 0.699802 -0.261317 0
M  V30 197 H 22.7744 1.45574 -1.29592 0
M  V30 198 H 21.8704 2.95524 -1.0036 0
M  V30 199 N 22.1715 0.800033 1.35784 0
M  V30 200 C 23.1045 0.151499 2.27697 0
M  V30 201 C 24.0825 -0.678663 1.4776 0
M  V30 202 O 25.2665 -0.647358 1.77035 0
M  V30 203 C 22.3935 -0.790492 3.29346 0
M  V30 204 C 21.4395 -0.0407832 4.26481 0
M  V30 205 S 22.2725 1.29077 5.19711 0
M  V30 206 C 23.4285 0.353055 6.24903 0
M  V30 207 H 23.6615 0.930796 2.82353 0
M  V30 208 H 21.1945 0.594767 1.42485 0
M  V30 209 H 23.1525 -1.3285 3.88409 0
M  V30 210 H 21.8135 -1.54312 2.73581 0
M  V30 211 H 21.0065 -0.755971 4.98298 0
M  V30 212 H 20.6085 0.427063 3.71554 0
M  V30 213 H 22.9005 -0.464147 6.75908 0
M  V30 214 H 23.8435 1.04023 7.00418 0
M  V30 215 H 24.2515 -0.0483344 5.64479 0
M  V30 216 N 23.6496 -1.47581 0.552962 0
M  V30 217 C 24.8956 -2.02782 0.0273648 0
M  V30 218 C 25.2286 -1.42687 -1.31734 0
M  V30 219 O 24.5036 -0.580897 -1.85623 0
M  V30 220 C 24.7866 -3.60031 -0.0702371 0
M  V30 221 C 24.6396 -4.30566 1.30126 0
M  V30 222 C 25.9586 -4.33028 -0.785771 0
M  V30 223 H 23.0776 -0.736912 0.0114185 0
M  V30 224 H 25.7196 -1.76056 0.714432 0
M  V30 225 H 23.8696 -3.82932 -0.655382 0
M  V30 226 H 25.5416 -4.19018 1.92929 0
M  V30 227 H 23.7846 -3.91086 1.87709 0
M  V30 228 H 24.4556 -5.39114 1.18573 0
M  V30 229 H 26.9316 -4.15095 -0.288982 0
M  V30 230 H 25.8076 -5.42695 -0.823013 0
M  V30 231 H 26.0686 -4.01945 -1.841 0
M  V30 232 N 25.1277 -0.289203 -1.54924 0
M  V30 233 C 26.3677 0.324536 -2.01807 0
M  V30 234 C 26.7317 1.5199 -1.17316 0
M  V30 235 O 27.9327 2.20422 -1.53843 0
M  V30 236 C 26.2037 0.683578 -3.50802 0
M  V30 237 S 27.7627 1.28185 -4.19659 0
M  V30 238 H 24.5807 0.100236 -0.703899 0
M  V30 239 H 27.1827 -0.414325 -1.91059 0
M  V30 240 H 25.8867 -0.195073 -4.09936 0
M  V30 241 H 25.4177 1.45354 -3.65562 0
M  V30 242 H 27.4327 2.57006 -4.24456 0
M  V30 243 N 26.6058 1.57591 -0.0167156 0
M  V30 244 C 27.8308 1.9598 0.67872 0
M  V30 245 C 28.2558 0.892546 1.65575 0
M  V30 246 O 27.6138 -0.147772 1.80697 0
M  V30 247 C 27.6618 3.33468 1.37227 0
M  V30 248 O 26.7658 3.28954 2.48722 0
M  V30 249 H 26.1068 0.639339 0.17928 0
M  V30 250 H 28.6368 2.04463 -0.0748802 0
M  V30 251 H 28.6468 3.69417 1.7319 0
M  V30 252 H 27.3218 4.10694 0.656007 0
M  V30 253 H 25.8988 3.04705 2.14963 0
M  V30 254 N 28.0839 -0.256276 1.55502 0
M  V30 255 C 29.0139 -1.32102 1.92539 0
M  V30 256 C 29.9949 -1.50684 0.789194 0
M  V30 257 O 31.1799 -1.63449 1.04872 0
M  V30 258 C 28.3099 -2.67752 2.21192 0
M  V30 259 C 27.2639 -2.63878 3.36975 0
M  V30 260 C 26.5899 -4.03236 3.51147 0
M  V30 261 C 27.8899 -2.21682 4.72921 0
M  V30 262 H 29.5839 -1.01351 2.81724 0
M  V30 263 H 27.1299 -0.486105 1.35547 0
M  V30 264 H 29.0829 -3.42365 2.45691 0
M  V30 265 H 27.8069 -3.0012 1.28824 0
M  V30 266 H 26.4659 -1.91722 3.12471 0
M  V30 267 H 26.1139 -4.32854 2.56216 0
M  V30 268 H 25.8139 -4.01535 4.29003 0
M  V30 269 H 27.3379 -4.79563 3.77957 0
M  V30 270 H 28.7519 -2.86023 4.96854 0
M  V30 271 H 27.1489 -2.3111 5.53812 0
M  V30 272 H 28.2189 -1.16833 4.70615 0
M  V30 273 N 29.562 -1.4872 -0.521534 0
M  V30 274 C 30.808 -1.58378 -1.27624 0
M  V30 275 C 31.163 -0.258028 -1.90662 0
M  V30 276 O 30.456 0.739917 -1.76736 0
M  V30 277 C 30.65 -2.66497 -2.38148 0
M  V30 278 C 30.479 -4.09456 -1.85945 0
M  V30 279 C 29.249 -4.76495 -1.68168 0
M  V30 280 C 31.447 -4.95353 -1.3831 0
M  V30 281 N 29.429 -6.0384 -1.1068 0
M  V30 282 C 30.8 -6.13012 -0.928238 0
M  V30 283 C 32.855 -4.81512 -1.26692 0
M  V30 284 C 31.558 -7.18354 -0.368701 0
M  V30 285 C 33.584 -5.86984 -0.721368 0
M  V30 286 C 32.946 -7.03857 -0.276623 0
M  V30 287 H 29.045 -0.634045 -0.457724 0
M  V30 288 H 31.629 -1.85639 -0.587049 0
M  V30 289 H 29.8 -2.41043 -3.04553 0
M  V30 290 H 31.532 -2.65791 -3.05184 0
M  V30 291 H 28.287 -4.32962 -1.91939 0
M  V30 292 H 28.711 -6.71778 -0.839217 0
M  V30 293 H 33.353 -3.91487 -1.5968 0
M  V30 294 H 31.071 -8.08096 -0.0265122 0
M  V30 295 H 34.657 -5.78329 -0.634531 0
M  V30 296 H 33.537 -7.84077 0.138947 0
M  V30 297 N 31.0401 0.771051 -1.3745 0
M  V30 298 C 32.2861 1.5319 -1.32894 0
M  V30 299 C 32.6191 1.94008 0.0862511 0
M  V30 300 O 31.8941 1.64124 1.04373 0
M  V30 301 C 32.1771 2.79648 -2.26868 0
M  V30 302 C 32.0301 2.45079 -3.77169 0
M  V30 303 C 33.3491 3.81583 -2.19277 0
M  V30 304 H 30.4681 0.555744 -0.484064 0
M  V30 305 H 33.1101 0.884492 -1.68157 0
M  V30 306 H 31.2601 3.34891 -1.96926 0
M  V30 307 H 32.9321 1.95745 -4.1771 0
M  V30 308 H 31.1751 1.77767 -3.95704 0
M  V30 309 H 31.8461 3.35478 -4.38359 0
M  V30 310 H 34.3221 3.35835 -2.45671 0
M  V30 311 H 33.1981 4.67787 -2.87171 0
M  V30 312 H 33.4591 4.25897 -1.18592 0
M  V30 313 N 32.5182 1.22032 0.997298 0
M  V30 314 C 33.4482 1.01065 2.10495 0
M  V30 315 C 34.4292 -0.0669542 1.69968 0
M  V30 316 O 35.6142 0.0943987 1.9397 0
M  V30 317 C 32.7442 0.582874 3.42374 0
M  V30 318 C 31.6982 1.60592 3.96729 0
M  V30 319 C 31.0242 1.03412 5.24605 0
M  V30 320 C 32.3242 2.99478 4.27914 0
M  V30 321 H 34.0182 1.93708 2.28292 0
M  V30 322 H 31.5642 0.932761 1.09707 0
M  V30 323 H 33.5172 0.423332 4.19268 0
M  V30 324 H 32.2412 -0.379213 3.24391 0
M  V30 325 H 30.9002 1.75316 3.21963 0
M  V30 326 H 30.5482 0.063518 5.0296 0
M  V30 327 H 30.2482 1.71754 5.61938 0
M  V30 328 H 31.7722 0.886066 6.04137 0
M  V30 329 H 33.1862 2.88153 4.95622 0
M  V30 330 H 31.5832 3.64903 4.76409 0
M  V30 331 H 32.6532 3.49742 3.3587 0
M  V30 332 N 33.9963 -1.19345 1.0293 0
M  V30 333 C 34.9263 -2.2481 0.631105 0
M  V30 334 C 35.9073 -1.66245 -0.360104 0
M  V30 335 O 37.0923 -1.92677 -0.242726 0
M  V30 336 C 34.2223 -3.47295 -0.0184607 0
M  V30 337 C 33.1763 -4.18536 0.895073 0
M  V30 338 C 32.5023 -5.34586 0.110592 0
M  V30 339 C 33.8023 -4.73287 2.209 0
M  V30 340 H 35.4963 -2.58372 1.51275 0
M  V30 341 H 33.0423 -1.24194 0.728818 0
M  V30 342 H 34.9953 -4.20268 -0.308675 0
M  V30 343 H 33.7193 -3.12933 -0.934907 0
M  V30 344 H 32.3783 -3.47446 1.16949 0
M  V30 345 H 32.0263 -4.96469 -0.807902 0
M  V30 346 H 31.7263 -5.83183 0.719087 0
M  V30 347 H 33.2503 -6.10355 -0.172871 0
M  V30 348 H 34.6643 -5.38013 1.98028 0
M  V30 349 H 33.0613 -5.32373 2.76946 0
M  V30 350 H 34.1313 -3.91331 2.86336 0
M  V30 351 N 35.4744 -0.807222 -1.35358 0
M  V30 352 C 36.4044 -0.232509 -2.3234 0
M  V30 353 C 37.3854 0.642386 -1.57504 0
M  V30 354 O 38.5704 0.572526 -1.85569 0
M  V30 355 C 35.7004 0.619238 -3.41735 0
M  V30 356 C 34.6544 -0.157215 -4.27711 0
M  V30 357 C 33.9804 0.816273 -5.28433 0
M  V30 358 C 35.2804 -1.35656 -5.04376 0
M  V30 359 H 36.9744 -1.04276 -2.80654 0
M  V30 360 H 34.5204 -0.50288 -1.34934 0
M  V30 361 H 36.4734 1.03137 -4.08584 0
M  V30 362 H 35.1974 1.46239 -2.92031 0
M  V30 363 H 33.8564 -0.550525 -3.62443 0
M  V30 364 H 33.5044 1.65494 -4.74996 0
M  V30 365 H 33.2044 0.301067 -5.86828 0
M  V30 366 H 34.7284 1.22659 -5.98153 0
M  V30 367 H 36.1424 -1.01927 -5.64166 0
M  V30 368 H 34.5394 -1.8063 -5.7227 0
M  V30 369 H 35.6094 -2.14288 -4.34981 0
M  V30 370 N 36.9525 1.47285 -0.560781 0
M  V30 371 C 38.1985 2.02764 -0.0381184 0
M  V30 372 C 38.5315 1.43384 1.30976 0
M  V30 373 O 37.8065 0.590733 1.85312 0
M  V30 374 C 38.0895 3.60064 0.0511427 0
M  V30 375 C 37.9425 4.2987 -1.32408 0
M  V30 376 C 39.2615 4.33439 0.762795 0
M  V30 377 H 36.3805 0.736841 -0.0153264 0
M  V30 378 H 39.0225 1.75675 -0.723759 0
M  V30 379 H 37.1725 3.83274 0.635065 0
M  V30 380 H 38.8445 4.17989 -1.95148 0
M  V30 381 H 37.0875 3.90085 -1.8978 0
M  V30 382 H 37.7585 5.38478 -1.21431 0
M  V30 383 H 40.2345 4.15243 0.266965 0
M  V30 384 H 39.1105 5.43124 0.794221 0
M  V30 385 H 39.3715 4.02915 1.81966 0
M  V30 386 N 38.4306 0.297415 1.54768 0
M  V30 387 C 39.6556 -0.318435 2.04941 0
M  V30 388 C 40.0806 -1.4701 1.17345 0
M  V30 389 O 39.4386 -1.80436 0.176758 0
M  V30 390 C 39.4866 -0.755749 3.52592 0
M  V30 391 O 38.5906 -1.86088 3.68028 0
M  V30 392 H 37.9316 -0.062421 0.661059 0
M  V30 393 H 40.4616 0.438215 1.99852 0
M  V30 394 H 40.4716 -1.04552 3.94376 0
M  V30 395 H 39.1466 0.0867233 4.1581 0
M  V30 396 H 37.7236 -1.57193 3.38149 0
M  V30 397 N 39.9087 -1.5758 0.0250728 0
M  V30 398 C 41.1337 -1.96337 -0.668317 0
M  V30 399 C 41.5587 -0.901314 -1.651 0
M  V30 400 O 40.9167 0.138187 -1.80773 0
M  V30 401 C 40.9647 -3.34191 -1.35457 0
M  V30 402 O 40.0687 -3.30269 -2.46974 0
M  V30 403 H 39.4097 -0.640281 -0.175887 0
M  V30 404 H 41.9397 -2.0442 0.0857224 0
M  V30 405 H 41.9497 -3.70331 -1.71228 0
M  V30 406 H 40.6247 -4.11036 -0.634218 0
M  V30 407 H 39.2017 -3.05841 -2.13344 0
M  V30 408 N 41.3868 0.248026 -1.55636 0
M  V30 409 C 42.6328 0.97767 -1.77678 0
M  V30 410 C 42.9658 1.85016 -0.590135 0
M  V30 411 O 42.2408 1.90095 0.411611 0
M  V30 412 C 42.5238 1.83914 -3.09593 0
M  V30 413 C 42.3768 0.99491 -4.38659 0
M  V30 414 C 43.6958 2.82183 -3.37729 0
M  V30 415 H 40.8148 0.354005 -0.646413 0
M  V30 416 H 43.4568 0.248253 -1.88371 0
M  V30 417 H 41.6068 2.46104 -3.00608 0
M  V30 418 H 43.2788 0.391789 -4.59633 0
M  V30 419 H 41.5218 0.299231 -4.32767 0
M  V30 420 H 42.1928 1.63145 -5.2734 0
M  V30 421 H 44.6688 2.30129 -3.4667 0
M  V30 422 H 43.5448 3.39582 -4.31249 0
M  V30 423 H 43.8058 3.58588 -2.58586 0
M  V30 424 N 42.8649 1.48995 0.513639 0
M  V30 425 C 43.7949 1.67636 1.62544 0
M  V30 426 C 44.7759 0.525087 1.61793 0
M  V30 427 O 45.9609 0.759502 1.78732 0
M  V30 428 C 43.0909 1.73114 3.01079 0
M  V30 429 C 42.0449 2.87905 3.16693 0
M  V30 430 C 41.3709 2.78486 4.56453 0
M  V30 431 C 42.6709 4.29005 2.97913 0
M  V30 432 H 44.3649 2.60716 1.47198 0
M  V30 433 H 41.9109 1.25465 0.706714 0
M  V30 434 H 43.8639 1.84742 3.78746 0
M  V30 435 H 42.5879 0.766241 3.17484 0
M  V30 436 H 41.2469 2.75859 2.41448 0
M  V30 437 H 40.8949 1.7993 4.69717 0
M  V30 438 H 40.5949 3.55523 4.67843 0
M  V30 439 H 42.1189 2.92104 5.36197 0
M  V30 440 H 43.5329 4.41798 3.65359 0
M  V30 441 H 41.9299 5.07166 3.20785 0
M  V30 442 H 42.9999 4.44329 1.94165 0
M  V30 443 N 44.343 -0.763751 1.37857 0
M  V30 444 C 45.306 -1.85889 1.34081 0
M  V30 445 C 46.306 -1.58949 0.243277 0
M  V30 446 O 47.496 -1.66882 0.499589 0
M  V30 447 C 44.628 -3.23176 1.08489 0
M  V30 448 H 45.821 -1.90648 2.31502 0
M  V30 449 H 43.374 -0.964367 1.23003 0
M  V30 450 H 44.109 -3.24091 0.116318 0
M  V30 451 H 43.894 -3.44124 1.8794 0
M  V30 452 H 45.384 -4.03254 1.08517 0
M  V30 453 N 45.8211 -1.22559 -0.990812 0
M  V30 454 C 46.7511 -1.0218 -2.09956 0
M  V30 455 C 47.7321 0.0579394 -1.70001 0
M  V30 456 O 48.9171 -0.104684 -1.93918 0
M  V30 457 C 46.0471 -0.601023 -3.4206 0
M  V30 458 C 45.0011 -1.62694 -3.95872 0
M  V30 459 C 44.3271 -1.06193 -5.24049 0
M  V30 460 C 45.6271 -3.01743 -4.2632 0
M  V30 461 H 47.3211 -1.94916 -2.27262 0
M  V30 462 H 44.8671 -0.938566 -1.09211 0
M  V30 463 H 46.8201 -0.445561 -4.19038 0
M  V30 464 H 45.5441 0.362005 -3.24588 0
M  V30 465 H 44.2031 -1.77021 -3.21028 0
M  V30 466 H 43.8511 -0.0901903 -5.02919 0
M  V30 467 H 43.5511 -1.74732 -5.61019 0
M  V30 468 H 45.0751 -0.918092 -6.03658 0
M  V30 469 H 46.4891 -2.90777 -4.94087 0
M  V30 470 H 44.8861 -3.67425 -4.74467 0
M  V30 471 H 45.9561 -3.51518 -3.34011 0
M  V30 472 N 47.2992 1.18797 -1.03562 0
M  V30 473 C 48.2092 2.25913 -0.632505 0
M  V30 474 C 49.2252 1.70668 0.338882 0
M  V30 475 O 50.4012 2.00453 0.195076 0
M  V30 476 C 47.4662 3.467 0.00350942 0
M  V30 477 C 46.5272 4.17098 -1.01624 0
M  V30 478 C 45.7602 5.32119 -0.410478 0
M  V30 479 O 45.9832 5.64976 0.784725 0
M  V30 480 O 44.9172 5.9107 -1.13667 0
M  V30 481 H 48.7432 2.62648 -1.52478 0
M  V30 482 H 46.3282 1.25781 -0.806195 0
M  V30 483 H 48.2102 4.19878 0.35781 0
M  V30 484 H 46.8852 3.11798 0.869686 0
M  V30 485 H 45.7922 3.4601 -1.42224 0
M  V30 486 H 47.1252 4.55987 -1.85301 0
M  V30 487 N 48.7773 0.814389 1.34928 0
M  V30 488 C 49.6873 0.231978 2.3345 0
M  V30 489 C 50.7033 -0.629139 1.62228 0
M  V30 490 O 51.8793 -0.539052 1.94052 0
M  V30 491 C 48.9443 -0.603482 3.41407 0
M  V30 492 C 48.0053 0.279037 4.28392 0
M  V30 493 C 47.2383 -0.516643 5.31193 0
M  V30 494 O 47.4613 -1.75068 5.4287 0
M  V30 495 O 46.3953 0.0965652 6.01823 0
M  V30 496 H 50.2213 1.04721 2.85074 0
M  V30 497 H 47.8063 0.576343 1.37836 0
M  V30 498 H 49.6883 -1.07908 4.0735 0
M  V30 499 H 48.3633 -1.39618 2.92042 0
M  V30 500 H 47.2703 0.801948 3.65403 0
M  V30 501 H 48.6033 1.03588 4.81176 0
M  V30 502 N 50.2554 -1.46986 0.568584 0
M  V30 503 C 51.5014 -2.02741 0.0488709 0
M  V30 504 C 51.8344 -1.44077 -1.30214 0
M  V30 505 O 51.1094 -0.600552 -1.84996 0
M  V30 506 C 51.3924 -3.60086 -0.032047 0
M  V30 507 C 51.2454 -4.29162 1.34686 0
M  V30 508 C 52.5644 -4.33838 -0.739798 0
M  V30 509 H 49.6834 -0.736749 0.0192338 0
M  V30 510 H 52.3254 -1.75289 0.733065 0
M  V30 511 H 50.4754 -3.83606 -0.61473 0
M  V30 512 H 52.1474 -4.16948 1.97362 0
M  V30 513 H 50.3904 -3.89073 1.91846 0
M  V30 514 H 51.0614 -5.37826 1.24285 0
M  V30 515 H 53.5374 -4.15378 -0.244939 0
M  V30 516 H 52.4134 -5.43537 -0.765406 0
M  V30 517 H 52.6744 -4.03875 -1.79827 0
M  V30 518 N 51.7335 -0.305618 -1.54608 0
M  V30 519 C 52.6635 0.561482 -2.26649 0
M  V30 520 C 53.6445 1.13415 -1.26772 0
M  V30 521 O 54.8295 1.16262 -1.55553 0
M  V30 522 C 51.9595 1.73122 -3.01075 0
M  V30 523 C 50.9135 1.2887 -4.08138 0
M  V30 524 C 50.2395 2.54396 -4.70305 0
M  V30 525 C 51.5395 0.416578 -5.20636 0
M  V30 526 H 53.2335 -0.0393902 -2.99374 0
M  V30 527 H 50.7795 -0.020385 -1.43986 0
M  V30 528 H 52.7325 2.34396 -3.50195 0
M  V30 529 H 51.4565 2.3584 -2.25936 0
M  V30 530 H 50.1155 0.698991 -3.59875 0
M  V30 531 H 49.7635 3.15439 -3.918 0
M  V30 532 H 49.4635 2.25486 -5.42614 0
M  V30 533 H 50.9875 3.16464 -5.2219 0
M  V30 534 H 52.4015 0.935116 -5.65622 0
M  V30 535 H 50.7985 0.221046 -5.99693 0
M  V30 536 H 51.8685 -0.557162 -4.81688 0
M  V30 537 N 53.2116 1.57565 -0.0334293 0
M  V30 538 C 54.1416 2.13511 0.945265 0
M  V30 539 C 55.1226 1.05231 1.33643 0
M  V30 540 O 56.3076 1.33084 1.41429 0
M  V30 541 C 53.4376 2.6657 2.22616 0
M  V30 542 C 52.3916 3.79676 1.97561 0
M  V30 543 C 51.7176 4.1918 3.31952 0
M  V30 544 C 53.0176 5.0557 1.31135 0
M  V30 545 H 54.7116 2.95538 0.479325 0
M  V30 546 H 52.2576 1.42166 0.229115 0
M  V30 547 H 54.2106 3.04344 2.91466 0
M  V30 548 H 52.9346 1.8171 2.71384 0
M  V30 549 H 51.5936 3.42347 1.31127 0
M  V30 550 H 51.2416 3.31296 3.78487 0
M  V30 551 H 50.9416 4.95402 3.15992 0
M  V30 552 H 52.4656 4.59541 4.02063 0
M  V30 553 H 53.8796 5.40903 1.89992 0
M  V30 554 H 52.2766 5.86818 1.25559 0
M  V30 555 H 53.3466 4.84062 0.284894 0
M  V30 556 N 54.6897 -0.239769 1.55765 0
M  V30 557 C 55.9667 -0.990056 1.68693 0
M  V30 558 C 56.3467 -2.03107 0.5754 0
M  V30 559 O 55.6947 -2.24604 -0.42017 0
M  V30 560 C 55.9047 -1.61696 3.09282 0
M  V30 561 C 57.2527 -2.11613 3.6811 0
M  V30 562 O 58.2767 -1.71624 3.12127 0
M  V30 563 O 57.1357 -2.85057 4.66267 0
M  V30 564 H 54.2297 -0.461299 0.686391 0
M  V30 565 H 56.7757 -0.232991 1.68093 0
M  V30 566 H 55.5477 -0.864357 3.81634 0
M  V30 567 H 55.1707 -2.44005 3.13923 0
M  V30 568 N 56.1678 -1.49265 -0.50573 0
M  V30 569 C 57.3958 -1.62215 -1.28429 0
M  V30 570 C 57.8108 -0.291697 -1.86533 0
M  V30 571 O 57.1678 0.722233 -1.67601 0
M  V30 572 C 57.2188 -2.68735 -2.41793 0
M  V30 573 O 56.9398 -3.96619 -1.86078 0
M  V30 574 C 58.4408 -2.92346 -3.3324 0
M  V30 575 H 55.6608 -0.546239 -0.389697 0
M  V30 576 H 58.2048 -1.95265 -0.607609 0
M  V30 577 H 56.3598 -2.38476 -3.053 0
M  V30 578 H 56.7738 -4.55256 -2.60465 0
M  V30 579 H 58.2478 -3.70623 -4.09075 0
M  V30 580 H 58.7248 -2.02081 -3.89948 0
M  V30 581 H 59.3308 -3.24003 -2.75503 0
M  V30 582 N 57.6459 0.756429 -1.3826 0
M  V30 583 C 58.8739 1.54565 -1.3754 0
M  V30 584 C 59.2889 1.88767 0.0355331 0
M  V30 585 O 58.6459 1.52572 1.0014 0
M  V30 586 C 58.6969 2.84654 -2.22833 0
M  V30 587 O 58.4179 2.51912 -3.5843 0
M  V30 588 C 59.9189 3.78807 -2.30261 0
M  V30 589 H 57.1389 0.478353 -0.470553 0
M  V30 590 H 59.6829 0.936381 -1.81803 0
M  V30 591 H 57.8379 3.41965 -1.8204 0
M  V30 592 H 58.2519 3.35325 -4.03308 0
M  V30 593 H 59.7259 4.67045 -2.94233 0
M  V30 594 H 60.2029 4.19038 -1.31545 0
M  V30 595 H 60.8089 3.2742 -2.71433 0
M  V30 596 N 59.124 1.23083 0.984299 0
M  V30 597 C 60.372 1.05848 1.72165 0
M  V30 598 C 60.693 -0.406049 1.90726 0
M  V30 599 O 59.963 -1.29139 1.47309 0
M  V30 600 H 58.543 0.388685 0.637913 0
M  V30 601 H 61.205 1.54736 1.18503 0
M  V30 602 H 60.301 1.54327 2.71274 0
M  V30 603 N 60.6021 -1.18246 1.0419 0
M  V30 604 C 61.5121 -2.25574 0.644476 0
M  V30 605 C 62.5281 -1.70845 -0.329826 0
M  V30 606 O 63.7041 -2.00554 -0.184443 0
M  V30 607 C 60.7691 -3.46697 0.014877 0
M  V30 608 C 59.8301 -4.16554 1.03834 0
M  V30 609 C 59.0631 -5.31894 0.438692 0
M  V30 610 O 59.2861 -5.65385 -0.754752 0
M  V30 611 O 58.2201 -5.90459 1.168 0
M  V30 612 H 62.0461 -2.61836 1.53869 0
M  V30 613 H 59.6311 -1.25352 0.812854 0
M  V30 614 H 61.5131 -4.20062 -0.335538 0
M  V30 615 H 60.1881 -3.12255 -0.853138 0
M  V30 616 H 59.0951 -3.45251 1.44057 0
M  V30 617 H 60.4281 -4.54998 1.87716 0
M  V30 618 N 62.0802 -0.821533 -1.34494 0
M  V30 619 C 63.3082 -0.421884 -2.02553 0
M  V30 620 C 63.7232 0.971745 -1.61872 0
M  V30 621 O 63.0802 1.62864 -0.823496 0
M  V30 622 C 63.1312 -0.51285 -3.57844 0
M  V30 623 O 62.8522 -1.85155 -3.97051 0
M  V30 624 C 64.3532 -0.107921 -4.43169 0
M  V30 625 H 61.5732 -0.169482 -0.649243 0
M  V30 626 H 64.1172 -1.1093 -1.71798 0
M  V30 627 H 62.2722 0.126474 -3.87193 0
M  V30 628 H 62.6862 -1.82482 -4.91732 0
M  V30 629 H 64.1602 -0.222657 -5.51551 0
M  V30 630 H 64.6372 0.948401 -4.28838 0
M  V30 631 H 65.2432 -0.720989 -4.19144 0
M  V30 632 N 63.5583 1.46682 -0.576371 0
M  V30 633 C 64.7833 2.07304 -0.0630475 0
M  V30 634 C 65.2083 1.42329 1.2298 0
M  V30 635 O 64.5663 0.504865 1.74129 0
M  V30 636 C 64.6143 3.60472 0.095895 0
M  V30 637 O 63.7183 3.95927 1.15394 0
M  V30 638 H 63.0593 0.661288 -0.0599463 0
M  V30 639 H 65.5893 1.88417 -0.797511 0
M  V30 640 H 65.5993 4.06865 0.304071 0
M  V30 641 H 64.2743 4.07157 -0.84828 0
M  V30 642 H 62.8513 3.61252 0.924724 0
M  V30 643 N 65.0364 0.313813 1.54444 0
M  V30 644 C 65.9464 -0.565714 2.27677 0
M  V30 645 C 66.9624 -1.13754 1.31666 0
M  V30 646 O 68.1384 -1.15959 1.64668 0
M  V30 647 C 65.2034 -1.71528 3.01296 0
M  V30 648 C 64.2644 -1.17624 4.12872 0
M  V30 649 C 63.4974 -2.27102 4.8297 0
M  V30 650 O 63.7204 -3.47256 4.52514 0
M  V30 651 O 62.6544 -1.9307 5.70094 0
M  V30 652 H 66.4804 0.0287296 3.03686 0
M  V30 653 H 64.0654 0.0798312 1.49187 0
M  V30 654 H 65.9474 -2.38476 3.4743 0
M  V30 655 H 64.6224 -2.29608 2.2817 0
M  V30 656 H 63.5294 -0.472124 3.71109 0
M  V30 657 H 64.8624 -0.640695 4.88012 0
M  V30 658 N 66.5145 -1.57545 0.0417849 0
M  V30 659 C 67.7635 -1.91494 -0.633492 0
M  V30 660 C 68.0765 -0.921084 -1.72556 0
M  V30 661 O 69.2825 -1.15228 -2.45835 0
M  V30 662 C 67.7385 -3.40072 -1.17808 0
M  V30 663 C 67.3465 -4.47843 -0.118633 0
M  V30 664 C 69.0905 -3.8307 -1.82915 0
M  V30 665 C 66.9975 -5.87529 -0.675578 0
M  V30 666 H 65.9275 -0.714653 -0.24039 0
M  V30 667 H 68.5785 -1.83175 0.109148 0
M  V30 668 H 66.9605 -3.43364 -1.97274 0
M  V30 669 H 68.1345 -4.56128 0.654494 0
M  V30 670 H 66.4495 -4.14128 0.434414 0
M  V30 671 H 69.0465 -4.84794 -2.25563 0
M  V30 672 H 69.3895 -3.1881 -2.67705 0
M  V30 673 H 69.9225 -3.82255 -1.10119 0
M  V30 674 H 66.6615 -6.55362 0.134475 0
M  V30 675 H 66.1815 -5.82824 -1.4169 0
M  V30 676 H 67.8605 -6.36491 -1.1614 0
M  V30 677 N 67.9926 0.231505 -1.5589 0
M  V30 678 C 69.2406 0.955461 -1.78088 0
M  V30 679 C 69.5616 1.85262 -0.608533 0
M  V30 680 O 68.8316 1.92277 0.375035 0
M  V30 681 H 67.4116 0.355787 -0.656829 0
M  V30 682 H 70.0736 0.245751 -1.93344 0
M  V30 683 H 69.1696 1.56814 -2.69844 0
M  V30 684 N 69.4707 1.49531 0.497807 0
M  V30 685 C 70.7167 1.60388 1.25089 0
M  V30 686 C 71.0717 0.288328 1.90227 0
M  V30 687 O 70.3647 -0.711706 1.77891 0
M  V30 688 C 70.5587 2.70252 2.33878 0
M  V30 689 C 70.3877 4.12363 1.79408 0
M  V30 690 C 69.1577 4.7911 1.60566 0
M  V30 691 C 71.3557 4.97491 1.30412 0
M  V30 692 N 69.3377 6.05525 1.01059 0
M  V30 693 C 70.7087 6.14411 0.830595 0
M  V30 694 C 72.7637 4.83466 1.19015 0
M  V30 695 C 71.4667 7.1885 0.254371 0
M  V30 696 C 73.4927 5.88057 0.627892 0
M  V30 697 C 72.8547 7.04208 0.16461 0
M  V30 698 H 68.9537 0.641246 0.447579 0
M  V30 699 H 71.5377 1.86549 0.557441 0
M  V30 700 H 69.7087 2.45858 3.0068 0
M  V30 701 H 71.4407 2.70613 3.00917 0
M  V30 702 H 68.1957 4.35961 1.85026 0
M  V30 703 H 68.6197 6.73028 0.732236 0
M  V30 704 H 73.2617 3.93978 1.53431 0
M  V30 705 H 70.9797 8.08036 -0.102052 0
M  V30 706 H 74.5657 5.79266 0.542444 0
M  V30 707 H 73.4457 7.83757 -0.263669 0
M  V30 708 N 70.9488 -0.749086 1.3866 0
M  V30 709 C 71.8788 -1.8764 1.38973 0
M  V30 710 C 72.8598 -1.68178 0.255004 0
M  V30 711 O 74.0448 -1.88704 0.458754 0
M  V30 712 C 71.1748 -3.25222 1.21851 0
M  V30 713 C 70.1288 -3.59295 2.32575 0
M  V30 714 C 69.4548 -4.95663 2.00555 0
M  V30 715 C 70.7548 -3.63709 3.7485 0
M  V30 716 H 72.4488 -1.87635 2.3331 0
M  V30 717 H 69.9948 -0.901329 1.12303 0
M  V30 718 H 71.9478 -4.03746 1.20695 0
M  V30 719 H 70.6718 -3.25719 0.239775 0
M  V30 720 H 69.3308 -2.83093 2.32925 0
M  V30 721 H 68.9788 -4.92724 1.01154 0
M  V30 722 H 68.6788 -5.19429 2.74714 0
M  V30 723 H 70.2028 -5.7656 2.01024 0
M  V30 724 H 71.6168 -4.32338 3.76506 0
M  V30 725 H 70.0138 -3.98986 4.48252 0
M  V30 726 H 71.0838 -2.63834 4.06841 0
M  V30 727 N 72.4269 -1.23603 -0.977757 0
M  V30 728 C 73.6549 -1.09646 -1.75458 0
M  V30 729 C 74.0699 0.351859 -1.85492 0
M  V30 730 O 73.4269 1.24327 -1.336 0
M  V30 731 C 73.4779 -1.71895 -3.18016 0
M  V30 732 O 73.1989 -3.11063 -3.08498 0
M  V30 733 C 74.6999 -1.63415 -4.12081 0
M  V30 734 H 71.9199 -0.38359 -0.550545 0
M  V30 735 H 74.4639 -1.63507 -1.22824 0
M  V30 736 H 72.6189 -1.22061 -3.67668 0
M  V30 737 H 73.0329 -3.41305 -3.9826 0
M  V30 738 H 74.5069 -2.11669 -5.09804 0
M  V30 739 H 74.9839 -0.593462 -4.35172 0
M  V30 740 H 75.5899 -2.12628 -3.68334 0
M  V30 741 N 73.905 1.17692 -1.04816 0
M  V30 742 C 75.135 1.91508 -0.775128 0
M  V30 743 C 75.543 1.76844 0.67253 0
M  V30 744 O 74.886 1.10057 1.47082 0
M  V30 745 C 74.948 3.43167 -1.0713 0
M  V30 746 C 74.612 3.81612 -2.51438 0
M  V30 747 C 75.609 3.84772 -3.49638 0
M  V30 748 C 73.294 4.12687 -2.86348 0
M  V30 749 C 75.288 4.18469 -4.80794 0
M  V30 750 C 72.975 4.46053 -4.17708 0
M  V30 751 C 73.973 4.48921 -5.14741 0
M  V30 752 O 73.661 4.81504 -6.43746 0
M  V30 753 H 73.393 0.614575 -0.281555 0
M  V30 754 H 75.947 1.50206 -1.40098 0
M  V30 755 H 74.177 3.84745 -0.388342 0
M  V30 756 H 75.866 3.98239 -0.784883 0
M  V30 757 H 76.632 3.60893 -3.24008 0
M  V30 758 H 72.511 4.09627 -2.11486 0
M  V30 759 H 76.055 4.20623 -5.56527 0
M  V30 760 H 71.952 4.69393 -4.43103 0
M  V30 761 H 72.72 4.99377 -6.4851 0
M  V30 762 N 75.3831 0.828654 1.34056 0
M  V30 763 C 76.7941 0.477534 1.8049 0
M  V30 764 C 77.1451 -1.00258 1.6865 0
M  V30 765 O 76.2701 -1.78057 1.22982 0
M  V30 766 C 76.8651 0.860018 3.27703 0
M  V30 767 C 75.4241 0.561185 3.72193 0
M  V30 768 C 74.5711 1.07385 2.55663 0
M  V30 769 H 77.5221 1.0183 1.21722 0
M  V30 770 H 77.5431 0.166038 3.80138 0
M  V30 771 H 77.0551 1.93731 3.36288 0
M  V30 772 H 75.1561 -0.506465 3.69142 0
M  V30 773 H 75.2691 1.10926 4.66082 0
M  V30 774 H 73.6331 0.495149 2.49841 0
M  V30 775 H 74.4161 2.15771 2.67016 0
M  V30 776 N 76.8612 -1.46375 0.584142 0
M  V30 777 C 78.2722 -1.86031 0.157959 0
M  V30 778 C 78.6232 -1.48753 -1.27933 0
M  V30 779 O 77.7482 -0.903098 -1.96655 0
M  V30 780 C 78.3432 -3.37642 0.279892 0
M  V30 781 C 76.9022 -3.76289 -0.09143 0
M  V30 782 C 76.0492 -2.7039 0.615178 0
M  V30 783 H 79.0002 -1.37509 0.792274 0
M  V30 784 H 79.0212 -3.77275 -0.494364 0
M  V30 785 H 78.5332 -3.64742 1.32607 0
M  V30 786 H 76.6342 -3.54806 -1.13769 0
M  V30 787 H 76.7472 -4.78246 0.285886 0
M  V30 788 H 75.1112 -2.5464 0.0552833 0
M  V30 789 H 75.8942 -3.0033 1.66303 0
M  V30 790 N 78.3393 -0.321999 -1.54275 0
M  V30 791 C 79.5873 0.280489 -2.00144 0
M  V30 792 C 79.9083 1.52777 -1.21178 0
M  V30 793 O 79.1783 1.9338 -0.313187 0
M  V30 794 H 77.7583 0.106632 -0.73935 0
M  V30 795 H 80.4203 -0.438184 -1.8991 0
M  V30 796 H 79.5163 0.537972 -3.07428 0
M  V30 797 N 79.8174 1.5752 -0.0501392 0
M  V30 798 C 81.0654 1.9227 0.622642 0
M  V30 799 C 81.3864 0.929083 1.71444 0
M  V30 800 O 80.6564 -0.0262186 1.95882 0
M  V30 801 H 79.2364 0.709739 0.232981 0
M  V30 802 H 81.8984 1.94628 -0.102898 0
M  V30 803 H 80.9944 2.93479 1.06191 0
M  V30 804 N 81.2955 -0.223234 1.56011 0
M  V30 805 C 82.5415 -0.944891 1.8012 0
M  V30 806 C 82.8965 -1.82039 0.622862 0
M  V30 807 O 82.1895 -1.8773 -0.383143 0
M  V30 808 C 82.3835 -1.81948 3.0762 0
M  V30 809 C 82.2125 -1.03014 4.37742 0
M  V30 810 C 80.9825 -0.72574 5.00061 0
M  V30 811 C 83.1805 -0.396256 5.12771 0
M  V30 812 N 81.1625 0.0851816 6.13841 0
M  V30 813 C 82.5335 0.278137 6.19376 0
M  V30 814 C 84.5885 -0.309117 4.9694 0
M  V30 815 C 83.2915 1.03133 7.11868 0
M  V30 816 C 85.3175 0.430607 5.8983 0
M  V30 817 C 84.6795 1.09355 6.9586 0
M  V30 818 H 80.7785 -0.326081 0.710771 0
M  V30 819 H 83.3625 -0.215914 1.93499 0
M  V30 820 H 81.5335 -2.52029 2.95527 0
M  V30 821 H 83.2655 -2.47848 3.19927 0
M  V30 822 H 80.0205 -1.04335 4.61964 0
M  V30 823 H 80.4445 0.479428 6.753 0
M  V30 824 H 85.0865 -0.807313 4.15021 0
M  V30 825 H 82.8045 1.54105 7.9327 0
M  V30 826 H 86.3905 0.499012 5.79656 0
M  V30 827 H 85.2705 1.65679 7.66499 0
M  V30 828 N 82.7736 -1.49793 -0.48987 0
M  V30 829 C 84.0506 -1.50348 -1.25119 0
M  V30 830 C 84.4306 -0.237466 -2.0976 0
M  V30 831 O 83.7786 0.77981 -2.14782 0
M  V30 832 C 83.9886 -2.78872 -2.09837 0
M  V30 833 C 85.3366 -3.288 -2.68655 0
M  V30 834 O 86.3606 -2.80065 -2.20096 0
M  V30 835 O 85.2196 -4.13707 -3.57083 0
M  V30 836 H 82.3136 -0.602242 -0.566775 0
M  V30 837 H 84.8596 -1.62067 -0.503229 0
M  V30 838 H 83.6316 -3.62499 -1.47343 0
M  V30 839 H 83.2546 -2.70066 -2.91805 0
M  V30 840 N 84.2517 0.741722 -1.39055 0
M  V30 841 C 85.1617 1.88621 -1.39496 0
M  V30 842 C 86.1777 1.71557 -0.290578 0
M  V30 843 O 87.3537 1.94275 -0.530954 0
M  V30 844 C 84.4187 3.24134 -1.23037 0
M  V30 845 C 83.4797 3.5364 -2.43387 0
M  V30 846 C 82.7127 4.82687 -2.27703 0
M  V30 847 O 82.9357 5.55922 -1.27696 0
M  V30 848 O 81.8697 5.1194 -3.16545 0
M  V30 849 H 85.6957 1.91203 -2.35956 0
M  V30 850 H 83.2807 0.888625 -1.20099 0
M  V30 851 H 85.1627 4.0513 -1.15964 0
M  V30 852 H 83.8377 3.22337 -0.296691 0
M  V30 853 H 82.7447 2.72758 -2.56035 0
M  V30 854 H 84.0777 3.60209 -3.35425 0
M  V30 855 N 85.7298 1.2412 0.971189 0
M  V30 856 C 86.9758 1.08041 1.71625 0
M  V30 857 C 87.3088 -0.380407 1.90438 0
M  V30 858 O 86.5838 -1.28127 1.46334 0
M  V30 859 C 86.8668 1.81682 3.10908 0
M  V30 860 C 86.7198 3.35493 2.99608 0
M  V30 861 C 88.0388 1.58671 4.10501 0
M  V30 862 H 85.1578 0.39388 0.622919 0
M  V30 863 H 87.7998 1.52743 1.13003 0
M  V30 864 H 85.9498 1.43684 3.60953 0
M  V30 865 H 87.6218 3.83068 2.57015 0
M  V30 866 H 85.8648 3.64052 2.35899 0
M  V30 867 H 86.5358 3.82217 3.98264 0
M  V30 868 H 89.0118 1.91719 3.69301 0
M  V30 869 H 87.8878 2.1266 5.06031 0
M  V30 870 H 88.1488 0.524161 4.38982 0
M  V30 871 N 87.2079 -1.17134 1.05439 0
M  V30 872 C 88.4329 -1.91913 0.786396 0
M  V30 873 C 88.8579 -1.7643 -0.652234 0
M  V30 874 O 88.2159 -1.08372 -1.45345 0
M  V30 875 C 88.2639 -3.40921 1.17497 0
M  V30 876 O 87.3679 -4.11244 0.308589 0
M  V30 877 H 86.7089 -0.598215 0.288158 0
M  V30 878 H 89.2389 -1.48457 1.4079 0
M  V30 879 H 89.2489 -3.91668 1.14281 0
M  V30 880 H 87.9239 -3.5151 2.22292 0
M  V30 881 H 86.5009 -3.70731 0.40157 0
M  V30 882 N 88.686 -0.835752 -1.33615 0
M  V30 883 C 89.932 -0.430596 -1.98176 0
M  V30 884 C 90.265 1.00684 -1.66061 0
M  V30 885 O 89.54 1.70339 -0.938877 0
M  V30 886 C 89.823 -0.648065 -3.5422 0
M  V30 887 C 89.676 -2.13255 -3.96033 0
M  V30 888 C 90.995 -0.0922113 -4.40003 0
M  V30 889 H 88.114 -0.157924 -0.719881 0
M  V30 890 H 90.756 -1.05069 -1.58305 0
M  V30 891 H 88.906 -0.120237 -3.88314 0
M  V30 892 H 90.578 -2.725 -3.72211 0
M  V30 893 H 88.821 -2.61823 -3.45878 0
M  V30 894 H 89.492 -2.23547 -5.04708 0
M  V30 895 H 91.968 -0.543343 -4.12537 0
M  V30 896 H 90.844 -0.274083 -5.48215 0
M  V30 897 H 91.105 1.00378 -4.30554 0
M  V30 898 N 90.1641 1.46063 -0.591896 0
M  V30 899 C 91.0941 2.33172 0.123673 0
M  V30 900 C 92.0751 1.45897 0.87453 0
M  V30 901 O 93.2601 1.74698 0.848181 0
M  V30 902 C 90.3901 3.28336 1.13194 0
M  V30 903 C 89.3441 4.25124 0.495324 0
M  V30 904 C 88.6701 5.09863 1.61071 0
M  V30 905 C 89.9701 5.19143 -0.573425 0
M  V30 906 H 91.6641 2.93252 -0.603646 0
M  V30 907 H 89.2101 1.41014 -0.291741 0
M  V30 908 H 91.1631 3.88137 1.64097 0
M  V30 909 H 89.8871 2.66383 1.88965 0
M  V30 910 H 88.5461 3.66599 0.00729452 0
M  V30 911 H 88.1941 4.44288 2.35832 0
M  V30 912 H 87.8941 5.75417 1.19035 0
M  V30 913 H 89.4181 5.72529 2.12233 0
M  V30 914 H 90.8321 5.73106 -0.1491 0
M  V30 915 H 89.2291 5.93089 -0.914636 0
M  V30 916 H 90.2991 4.62519 -1.45617 0
M  V30 917 N 91.6422 0.330177 1.54103 0
M  V30 918 C 92.9192 -0.325007 1.92881 0
M  V30 919 C 93.2992 -1.6934 1.26045 0
M  V30 920 O 92.6472 -2.24855 0.406526 0
M  V30 921 C 92.8572 -0.410634 3.46576 0
M  V30 922 C 94.2052 -0.667801 4.19316 0
M  V30 923 O 95.2292 -0.49329 3.52768 0
M  V30 924 O 94.0882 -1.00491 5.37181 0
M  V30 925 H 91.1822 -0.186873 0.80561 0
M  V30 926 H 93.7282 0.380376 1.65382 0
M  V30 927 H 92.5002 0.550164 3.87413 0
M  V30 928 H 92.1232 -1.16333 3.802 0
M  V30 929 N 93.1203 -1.57491 0.0584922 0
M  V30 930 C 94.3973 -1.84346 -0.653918 0
M  V30 931 C 94.7773 -0.948355 -1.88599 0
M  V30 932 O 94.1253 -0.0112403 -2.28497 0
M  V30 933 C 94.3353 -3.34239 -1.00425 0
M  V30 934 C 95.6833 -4.01431 -1.38342 0
M  V30 935 O 96.7073 -3.38907 -1.09637 0
M  V30 936 O 95.5663 -5.11683 -1.91943 0
M  V30 937 H 92.6603 -0.761112 -0.323478 0
M  V30 938 H 95.2063 -1.6947 0.0884125 0
M  V30 939 H 93.9783 -3.91089 -0.128625 0
M  V30 940 H 93.6013 -3.54329 -1.80378 0
M  V30 941 N 94.5984 0.214957 -1.56127 0
M  V30 942 C 95.5304 1.29004 -1.89448 0
M  V30 943 C 96.5434 1.42716 -0.783326 0
M  V30 944 O 97.7324 1.43496 -1.06166 0
M  V30 945 C 94.8324 2.66482 -2.09381 0
M  V30 946 C 94.0054 2.74633 -3.40434 0
M  V30 947 C 93.0644 3.9317 -3.49719 0
M  V30 948 O 92.0904 3.812 -4.227 0
M  V30 949 N 93.2924 5.07765 -2.81346 0
M  V30 950 H 96.0574 1.00743 -2.82261 0
M  V30 951 H 93.6184 0.40497 -1.56753 0
M  V30 952 H 95.6104 3.44173 -2.12901 0
M  V30 953 H 94.1804 2.87314 -1.23163 0
M  V30 954 H 93.4004 1.83368 -3.48955 0
M  V30 955 H 94.6884 2.77054 -4.26754 0
M  V30 956 H 94.0864 5.20386 -2.21843 0
M  V30 957 H 92.6434 5.83474 -2.90519 0
M  V30 958 N 96.0765 1.50051 0.48192 0
M  V30 959 C 97.4925 1.37237 0.814756 0
M  V30 960 C 97.6925 0.420109 1.97072 0
M  V30 961 O 96.7485 -0.141246 2.52105 0
M  V30 962 C 98.0615 2.78375 1.13701 0
M  V30 963 C 99.6095 2.87213 1.2441 0
M  V30 964 C 100.084 4.29161 1.59954 0
M  V30 965 N 101.575 4.32061 1.66967 0
M  V30 966 C 102.31 5.38879 1.95952 0
M  V30 967 N 101.806 6.55918 2.23031 0
M  V30 968 N 103.599 5.26312 1.97363 0
M  V30 969 H 95.7505 2.10546 -0.28005 0
M  V30 970 H 98.0135 0.945921 -0.0627454 0
M  V30 971 H 97.7195 3.49845 0.360787 0
M  V30 972 H 97.5935 3.14941 2.07586 0
M  V30 973 H 99.9805 2.15969 2.01101 0
M  V30 974 H 100.061 2.54204 0.285299 0
M  V30 975 H 99.7055 5.00938 0.838067 0
M  V30 976 H 99.6355 4.59648 2.56966 0
M  V30 977 H 102.126 3.47661 1.48123 0
M  V30 978 H 102.439 7.33139 2.44391 0
M  V30 979 H 100.784 6.59112 2.20447 0
M  V30 980 H 103.975 4.33876 1.75697 0
M  V30 981 H 104.148 6.09649 2.19618 0
M  V30 982 N 97.5546 -0.734337 1.39446 0
M  V30 983 C 98.9706 -1.03997 1.21065 0
M  V30 984 C 99.1706 -2.01369 0.0727019 0
M  V30 985 O 98.2266 -2.45856 -0.575426 0
M  V30 986 C 99.5396 -1.60163 2.54496 0
M  V30 987 C 101.088 -1.7224 2.61347 0
M  V30 988 C 101.563 -2.31814 3.95002 0
M  V30 989 N 103.054 -2.39223 3.96644 0
M  V30 990 C 103.789 -2.86258 4.96834 0
M  V30 991 N 103.285 -3.33184 6.07421 0
M  V30 992 N 105.078 -2.85473 4.84213 0
M  V30 993 H 97.2286 -0.0885624 2.12215 0
M  V30 994 H 99.4916 -0.10191 0.942506 0
M  V30 995 H 99.1976 -0.960811 3.38321 0
M  V30 996 H 99.0716 -2.5896 2.74262 0
M  V30 997 H 101.459 -2.35443 1.77906 0
M  V30 998 H 101.54 -0.720939 2.4543 0
M  V30 999 H 101.184 -1.69238 4.78875 0
M  V30 1000 H 101.114 -3.32638 4.08239 0
M  V30 1001 H 103.605 -2.06057 3.16779 0
M  V30 1002 H 103.918 -3.67586 6.7978 0
M  V30 1003 H 102.263 -3.31191 6.11013 0
M  V30 1004 H 105.454 -2.48136 3.96921 0
M  V30 1005 H 105.627 -3.21814 5.62441 0
M  V30 1006 N 99.0327 -1.24633 -0.964593 0
M  V30 1007 C 99.9627 -1.06611 -2.07741 0
M  V30 1008 C 100.944 0.0218666 -1.70086 0
M  V30 1009 O 102.129 -0.145793 -1.93652 0
M  V30 1010 C 99.2587 -0.673444 -3.40708 0
M  V30 1011 C 98.2127 -1.71054 -3.92332 0
M  V30 1012 C 97.5387 -1.17285 -5.21678 0
M  V30 1013 C 98.8387 -3.10718 -4.19824 0
M  V30 1014 H 100.533 -1.99693 -2.23076 0
M  V30 1015 H 98.0787 -0.96152 -1.07195 0
M  V30 1016 H 100.032 -0.534345 -4.17998 0
M  V30 1017 H 98.7557 0.293073 -3.25282 0
M  V30 1018 H 97.4147 -1.83791 -3.17201 0
M  V30 1019 H 97.0627 -0.196847 -5.02615 0
M  V30 1020 H 96.7627 -1.86592 -5.57187 0
M  V30 1021 H 98.2867 -1.04593 -6.01575 0
M  V30 1022 H 99.7007 -3.01192 -4.87808 0
M  V30 1023 H 98.0977 -3.77406 -4.66567 0
M  V30 1024 H 99.1677 -3.58524 -3.26479 0
M  V30 1025 N 100.511 1.16574 -1.06058 0
M  V30 1026 C 101.739 1.90952 -0.796552 0
M  V30 1027 C 102.154 1.77302 0.648808 0
M  V30 1028 O 101.511 1.11605 1.44397 0
M  V30 1029 C 101.562 3.41736 -1.17894 0
M  V30 1030 O 101.283 3.54975 -2.56758 0
M  V30 1031 C 102.784 4.33169 -0.942308 0
M  V30 1032 H 100.004 0.605594 -0.288959 0
M  V30 1033 H 102.548 1.47777 -1.41358 0
M  V30 1034 H 100.703 3.82623 -0.606491 0
M  V30 1035 H 101.117 4.4846 -2.72 0
M  V30 1036 H 102.591 5.37439 -1.25952 0
M  V30 1037 H 103.068 4.3903 0.122078 0
M  V30 1038 H 103.674 3.98007 -1.49902 0
M  V30 1039 N 101.989 0.842826 1.3317 0
M  V30 1040 C 103.405 0.531128 1.50503 0
M  V30 1041 C 103.605 -0.940734 1.78192 0
M  V30 1042 O 102.661 -1.72436 1.84451 0
M  V30 1043 C 103.974 1.40789 2.65705 0
M  V30 1044 C 105.522 1.40708 2.79589 0
M  V30 1045 C 105.997 2.26878 3.97857 0
M  V30 1046 N 107.488 2.24609 4.05099 0
M  V30 1047 C 108.223 2.88019 4.95815 0
M  V30 1048 N 107.719 3.60496 5.9162 0
M  V30 1049 N 109.512 2.77469 4.88843 0
M  V30 1050 H 101.663 1.79557 1.1346 0
M  V30 1051 H 103.926 0.766267 0.558156 0
M  V30 1052 H 103.632 2.454 2.51936 0
M  V30 1053 H 103.506 1.08677 3.61205 0
M  V30 1054 H 105.893 0.368668 2.92788 0
M  V30 1055 H 105.974 1.76829 1.84838 0
M  V30 1056 H 105.618 3.3078 3.85418 0
M  V30 1057 H 105.548 1.88096 4.91861 0
M  V30 1058 H 108.039 1.71906 3.36536 0
M  V30 1059 H 108.352 4.06076 6.57512 0
M  V30 1060 H 106.697 3.64604 5.91683 0
M  V30 1061 H 109.888 2.20406 4.12963 0
M  V30 1062 H 110.061 3.2717 5.59342 0
M  V30 1063 N 103.467 -1.45747 0.599634 0
M  V30 1064 C 104.695 -2.06668 0.0978551 0
M  V30 1065 C 105.11 -1.44562 -1.21439 0
M  V30 1066 O 104.467 -0.556923 -1.73795 0
M  V30 1067 C 104.518 -3.61456 -0.0567044 0
M  V30 1068 O 104.239 -4.21242 1.20361 0
M  V30 1069 C 105.74 -4.39345 -0.590869 0
M  V30 1070 H 102.96 -0.667825 0.0651943 0
M  V30 1071 H 105.504 -1.87115 0.82511 0
M  V30 1072 H 103.659 -3.80378 -0.734251 0
M  V30 1073 H 104.073 -5.14323 1.02821 0
M  V30 1074 H 105.547 -5.48182 -0.648131 0
M  V30 1075 H 106.024 -4.08568 -1.61147 0
M  V30 1076 H 106.63 -4.25268 0.0523679 0
M  V30 1077 N 104.945 -0.338344 -1.53925 0
M  V30 1078 C 106.192 0.259758 -2.00827 0
M  V30 1079 C 106.52 1.50973 -1.22628 0
M  V30 1080 O 105.775 1.93379 -0.300509 0
M  V30 1081 C 106.074 0.62448 -3.51902 0
M  V30 1082 C 105.74 -0.528006 -4.47798 0
M  V30 1083 C 104.402 -0.844298 -4.73735 0
M  V30 1084 C 106.754 -1.30143 -5.0469 0
M  V30 1085 C 104.082 -1.93648 -5.53821 0
M  V30 1086 C 106.434 -2.38382 -5.85967 0
M  V30 1087 C 105.098 -2.70576 -6.10201 0
M  V30 1088 H 104.368 0.0950523 -0.734878 0
M  V30 1089 H 107.015 -0.465182 -1.85764 0
M  V30 1090 H 105.32 1.43006 -3.64769 0
M  V30 1091 H 107.017 1.09905 -3.85645 0
M  V30 1092 H 103.607 -0.271421 -4.2774 0
M  V30 1093 H 107.791 -1.07033 -4.84621 0
M  V30 1094 H 103.047 -2.19021 -5.70824 0
M  V30 1095 H 107.221 -2.98746 -6.29066 0
M  V30 1096 H 104.848 -3.55333 -6.72044 0
M  V30 1097 N 106.423 1.57458 -0.0668435 0
M  V30 1098 C 107.333 2.15937 0.916975 0
M  V30 1099 C 108.349 1.12123 1.33058 0
M  V30 1100 O 109.525 1.44366 1.40429 0
M  V30 1101 C 106.59 2.70547 2.16807 0
M  V30 1102 C 105.651 3.89215 1.81135 0
M  V30 1103 C 104.884 4.41211 3.0028 0
M  V30 1104 O 105.107 3.92225 4.14144 0
M  V30 1105 O 104.041 5.32605 2.80384 0
M  V30 1106 H 107.867 3.00354 0.449561 0
M  V30 1107 H 105.452 1.48584 0.155949 0
M  V30 1108 H 107.334 3.0557 2.90181 0
M  V30 1109 H 106.009 1.89192 2.62656 0
M  V30 1110 H 104.916 3.59054 1.05028 0
M  V30 1111 H 106.249 4.71848 1.40073 0
M  V30 1112 N 107.901 -0.206675 1.56239 0
M  V30 1113 C 108.864 -1.23976 1.92776 0
M  V30 1114 C 109.864 -1.39041 0.807729 0
M  V30 1115 O 111.054 -1.37051 1.0753 0
M  V30 1116 C 108.186 -2.61112 2.19165 0
M  V30 1117 H 109.379 -0.927764 2.85189 0
M  V30 1118 H 106.932 -0.447718 1.4975 0
M  V30 1119 H 107.667 -2.97386 1.29352 0
M  V30 1120 H 107.452 -2.51552 3.00772 0
M  V30 1121 H 108.942 -3.35633 2.48476 0
M  V30 1122 N 109.379 -1.50304 -0.473955 0
M  V30 1123 C 110.619 -1.62786 -1.23612 0
M  V30 1124 C 110.983 -0.319786 -1.89318 0
M  V30 1125 O 112.184 -0.320012 -2.66888 0
M  V30 1126 C 110.455 -2.77351 -2.25414 0
M  V30 1127 S 112.014 -3.09948 -3.10608 0
M  V30 1128 H 108.832 -0.573895 -0.419721 0
M  V30 1129 H 111.434 -1.88076 -0.533623 0
M  V30 1130 H 110.138 -3.70879 -1.75719 0
M  V30 1131 H 109.669 -2.54137 -3.00296 0
M  V30 1132 H 111.684 -2.53553 -4.26527 0
M  V30 1133 N 110.857 0.726932 -1.39834 0
M  V30 1134 C 111.807 1.83232 -1.35683 0
M  V30 1135 C 112.791 1.59155 -0.236295 0
M  V30 1136 O 113.983 1.70522 -0.474488 0
M  V30 1137 C 111.112 3.21246 -1.21062 0
M  V30 1138 C 110.198 3.51125 -2.37849 0
M  V30 1139 N 110.589 3.51889 -3.63329 0
M  V30 1140 C 108.887 3.81527 -2.30982 0
M  V30 1141 C 109.588 3.79791 -4.40606 0
M  V30 1142 N 108.564 3.97971 -3.70297 0
M  V30 1143 H 112.366 1.8214 -2.30656 0
M  V30 1144 H 109.88 0.925545 -1.33444 0
M  V30 1145 H 111.877 4.00387 -1.16171 0
M  V30 1146 H 110.537 3.23572 -0.270458 0
M  V30 1147 H 111.548 3.33008 -3.96643 0
M  V30 1148 H 108.225 3.91411 -1.45272 0
M  V30 1149 H 109.615 3.86783 -5.49408 0
M  V30 1150 N 112.336 1.25143 0.95797 0
M  V30 1151 C 113.582 1.09855 1.70469 0
M  V30 1152 C 113.915 -0.360187 1.90831 0
M  V30 1153 O 113.19 -1.26568 1.47685 0
M  V30 1154 C 113.473 1.8497 3.08963 0
M  V30 1155 C 113.326 3.38652 2.96032 0
M  V30 1156 C 114.645 1.63016 4.08795 0
M  V30 1157 H 111.764 0.400465 0.618706 0
M  V30 1158 H 114.406 1.53933 1.11376 0
M  V30 1159 H 112.556 1.47505 3.59409 0
M  V30 1160 H 114.228 3.85772 2.52938 0
M  V30 1161 H 112.471 3.66534 2.32025 0
M  V30 1162 H 113.142 3.8642 3.94187 0
M  V30 1163 H 115.618 1.95625 3.67247 0
M  V30 1164 H 114.494 2.18015 5.03747 0
M  V30 1165 H 114.755 0.570692 4.38401 0
M  V30 1166 N 113.814 -1.1601 1.06675 0
M  V30 1167 C 114.777 -2.18724 0.685001 0
M  V30 1168 C 115.777 -1.58496 -0.271246 0
M  V30 1169 O 116.967 -1.74119 -0.0531156 0
M  V30 1170 C 114.099 -3.40899 0.00853648 0
M  V30 1171 H 115.292 -2.54011 1.59431 0
M  V30 1172 H 112.845 -1.30352 0.862441 0
M  V30 1173 H 113.58 -3.11173 -0.913337 0
M  V30 1174 H 113.365 -3.8587 0.696204 0
M  V30 1175 H 114.855 -4.16886 -0.24414 0
M  V30 1176 N 115.292 -0.849877 -1.32721 0
M  V30 1177 C 116.54 -0.450032 -1.97026 0
M  V30 1178 C 116.861 0.996604 -1.67609 0
M  V30 1179 O 116.131 1.6958 -0.980786 0
M  V30 1180 H 114.711 -0.163426 -0.728904 0
M  V30 1181 H 117.373 -1.08526 -1.6189 0
M  V30 1182 H 116.469 -0.591146 -3.0645 0
M  V30 1183 N 116.77 1.45427 -0.607355 0
M  V30 1184 C 117.733 2.28974 0.101693 0
M  V30 1185 C 118.733 1.39754 0.795329 0
M  V30 1186 O 119.923 1.61878 0.643527 0
M  V30 1187 C 117.055 3.20768 1.15414 0
M  V30 1188 H 118.248 2.93147 -0.632844 0
M  V30 1189 H 115.801 1.51945 -0.366391 0
M  V30 1190 H 116.536 2.61395 1.91945 0
M  V30 1191 H 116.321 3.86489 0.66098 0
M  V30 1192 H 117.811 3.83589 1.65073 0
M  V30 1193 N 118.248 0.346503 1.53744 0
M  V30 1194 C 119.659 -0.136779 1.86198 0
M  V30 1195 C 120.01 -1.49749 1.26766 0
M  V30 1196 O 119.135 -2.08417 0.582355 0
M  V30 1197 C 119.73 -0.254966 3.37839 0
M  V30 1198 C 118.289 -0.682482 3.70161 0
M  V30 1199 C 117.436 0.181981 2.76702 0
M  V30 1200 H 120.387 0.565994 1.48264 0
M  V30 1201 H 120.408 -1.08195 3.64793 0
M  V30 1202 H 119.92 0.735526 3.81066 0
M  V30 1203 H 118.021 -1.68189 3.3248 0
M  V30 1204 H 118.134 -0.470326 4.76786 0
M  V30 1205 H 116.498 -0.34615 2.52337 0
M  V30 1206 H 117.281 1.16966 3.2276 0
M  V30 1207 N 119.726 -1.57421 0.075193 0
M  V30 1208 C 121.137 -1.81021 -0.456964 0
M  V30 1209 C 121.488 -0.98936 -1.69429 0
M  V30 1210 O 120.613 -0.212865 -2.15351 0
M  V30 1211 C 121.208 -3.28329 -0.83581 0
M  V30 1212 C 119.767 -3.52764 -1.31281 0
M  V30 1213 C 118.914 -2.75676 -0.299648 0
M  V30 1214 H 121.865 -1.55822 0.300856 0
M  V30 1215 H 121.886 -3.40564 -1.69696 0
M  V30 1216 H 121.398 -3.88046 0.0649238 0
M  V30 1217 H 119.499 -2.98355 -2.23193 0
M  V30 1218 H 119.612 -4.61451 -1.28839 0
M  V30 1219 H 117.976 -2.42538 -0.777641 0
M  V30 1220 H 118.759 -3.38132 0.593417 0
M  V30 1221 N 121.204 0.198386 -1.56346 0
M  V30 1222 C 122.452 0.91747 -1.80075 0
M  V30 1223 C 122.773 1.83929 -0.647692 0
M  V30 1224 O 122.043 1.93029 0.334166 0
M  V30 1225 H 120.623 0.341774 -0.664228 0
M  V30 1226 H 123.285 0.204684 -1.93822 0
M  V30 1227 H 122.381 1.51055 -2.7311 0
M  V30 1228 N 122.682 1.50554 0.465978 0
M  V30 1229 C 123.91 1.65563 1.24083 0
M  V30 1230 C 124.325 0.341051 1.85694 0
M  V30 1231 O 123.682 -0.677543 1.69457 0
M  V30 1232 C 123.733 2.75051 2.34583 0
M  V30 1233 O 123.454 4.01413 1.75497 0
M  V30 1234 C 124.955 3.01078 3.25372 0
M  V30 1235 H 122.175 0.55638 0.375077 0
M  V30 1236 H 124.719 1.96807 0.555624 0
M  V30 1237 H 122.874 2.46486 2.9887 0
M  V30 1238 H 123.288 4.62002 2.48303 0
M  V30 1239 H 124.762 3.81339 3.99105 0
M  V30 1240 H 125.239 2.12349 3.84453 0
M  V30 1241 H 125.845 3.31194 2.66816 0
M  V30 1242 N 124.16 -0.719506 1.40217 0
M  V30 1243 C 125.408 -1.47641 1.3801 0
M  V30 1244 C 125.729 -1.94992 -0.018145 0
M  V30 1245 O 124.999 -1.70073 -0.972207 0
M  V30 1246 H 123.579 -0.547744 0.507923 0
M  V30 1247 H 126.241 -0.853187 1.75233 0
M  V30 1248 H 125.337 -2.35112 2.05253 0
M  V30 1249 N 125.638 -1.25649 -0.95132 0
M  V30 1250 C 126.57 -1.02112 -2.05197 0
M  V30 1251 C 127.583 0.0150571 -1.62793 0
M  V30 1252 O 128.772 -0.223874 -1.77091 0
M  V30 1253 C 125.872 -0.522361 -3.3485 0
M  V30 1254 C 125.045 -1.62546 -4.06076 0
M  V30 1255 C 124.104 -1.12649 -5.14001 0
M  V30 1256 O 123.13 -1.82156 -5.39266 0
M  V30 1257 N 124.332 0.03047 -5.80492 0
M  V30 1258 H 127.097 -1.96885 -2.25957 0
M  V30 1259 H 124.658 -1.16899 -1.1201 0
M  V30 1260 H 126.65 -0.172961 -4.0433 0
M  V30 1261 H 125.22 0.33151 -3.10837 0
M  V30 1262 H 124.44 -2.14628 -3.30649 0
M  V30 1263 H 125.728 -2.36644 -4.50419 0
M  V30 1264 H 125.126 0.611169 -5.62389 0
M  V30 1265 H 123.683 0.320875 -6.5101 0
M  V30 1266 N 127.117 1.15442 -1.07289 0
M  V30 1267 C 128.394 1.82306 -0.708792 0
M  V30 1268 C 128.774 1.94991 0.808807 0
M  V30 1269 O 128.122 1.50085 1.72298 0
M  V30 1270 C 128.332 3.18695 -1.42247 0
M  V30 1271 C 129.68 3.94341 -1.57417 0
M  V30 1272 O 130.704 3.28247 -1.38319 0
M  V30 1273 O 129.563 5.12839 -1.88834 0
M  V30 1274 H 126.657 0.787628 -0.252132 0
M  V30 1275 H 129.203 1.22559 -1.17377 0
M  V30 1276 H 127.975 3.04557 -2.45684 0
M  V30 1277 H 127.598 3.86128 -0.948223 0
M  V30 1278 N 128.595 0.856903 1.32268 0
M  V30 1279 C 129.543 0.291987 2.3076 0
M  V30 1280 C 130.537 -0.585857 1.58947 0
M  V30 1281 O 131.743 -0.47341 1.73663 0
M  V30 1282 H 128.118 0.075721 0.748178 0
M  V30 1283 H 130.089 1.13687 2.75895 0
M  V30 1284 C 128.838 -0.502869 3.44044 0
M  V30 1285 H 128.161 0.163328 3.99466 0
M  V30 1286 H 129.601 -0.863691 4.1511 0
M  V30 1287 C 128.06 -1.68898 2.91505 0
M  V30 1288 O 128.59 -2.78811 2.89184 0
M  V30 1289 N 126.796 -1.51679 2.47875 0
M  V30 1290 H 126.343 -0.622666 2.49961 0
M  V30 1291 H 126.301 -2.31184 2.13076 0
M  V30 1292 N 130.073 -1.45103 0.615059 0
M  V30 1293 C 131.319 -2.03035 0.121804 0
M  V30 1294 C 131.674 -1.47393 -1.23665 0
M  V30 1295 O 130.967 -0.642061 -1.80522 0
M  V30 1296 C 131.161 -3.57386 0.0318797 0
M  V30 1297 C 130.99 -4.28 1.38007 0
M  V30 1298 C 129.76 -4.65624 1.9627 0
M  V30 1299 C 131.958 -4.5948 2.31047 0
M  V30 1300 N 129.94 -5.21132 3.24492 0
M  V30 1301 C 131.311 -5.159 3.43872 0
M  V30 1302 C 133.366 -4.41423 2.30326 0
M  V30 1303 C 132.069 -5.56165 4.5615 0
M  V30 1304 C 134.095 -4.82726 3.41658 0
M  V30 1305 C 133.457 -5.39245 4.53205 0
M  V30 1306 H 129.556 -0.77702 0.0881159 0
M  V30 1307 H 132.14 -1.76819 0.815044 0
M  V30 1308 H 130.311 -3.83247 -0.630599 0
M  V30 1309 H 132.043 -4.01976 -0.468721 0
M  V30 1310 H 128.798 -4.49421 1.49392 0
M  V30 1311 H 129.222 -5.53377 3.90004 0
M  V30 1312 H 133.864 -3.97033 1.45343 0
M  V30 1313 H 131.582 -5.99517 5.41854 0
M  V30 1314 H 135.168 -4.7048 3.42257 0
M  V30 1315 H 134.048 -5.70616 5.37929 0
M  V30 1316 N 131.551 -0.354651 -1.53558 0
M  V30 1317 C 132.481 0.489091 -2.2832 0
M  V30 1318 C 133.462 1.09324 -1.30316 0
M  V30 1319 O 134.647 1.11255 -1.59173 0
M  V30 1320 C 131.777 1.63456 -3.0643 0
M  V30 1321 C 130.731 1.1582 -4.12031 0
M  V30 1322 C 130.057 2.39305 -4.7816 0
M  V30 1323 C 131.357 0.250731 -5.21698 0
M  V30 1324 H 133.051 -0.134614 -2.99097 0
M  V30 1325 H 130.597 -0.0661826 -1.43848 0
M  V30 1326 H 132.55 2.23136 -3.57475 0
M  V30 1327 H 131.274 2.28533 -2.33325 0
M  V30 1328 H 129.933 0.584146 -3.61916 0
M  V30 1329 H 129.581 3.02814 -4.01637 0
M  V30 1330 H 129.281 2.08109 -5.49513 0
M  V30 1331 H 130.805 2.99691 -5.31994 0
M  V30 1332 H 132.219 0.754695 -5.68311 0
M  V30 1333 H 130.616 0.0301468 -6.00092 0
M  V30 1334 H 131.686 -0.710125 -4.79672 0
M  V30 1335 N 133.029 1.57378 -0.0835403 0
M  V30 1336 C 133.961 2.10389 0.909338 0
M  V30 1337 C 134.974 1.03858 1.25369 0
M  V30 1338 O 136.163 1.31338 1.20882 0
M  V30 1339 C 133.263 2.55908 2.2218 0
M  V30 1340 C 132.436 3.86145 2.05453 0
M  V30 1341 C 131.495 4.17633 3.20108 0
M  V30 1342 O 130.521 4.87043 2.94581 0
M  V30 1343 N 131.723 3.72113 4.45547 0
M  V30 1344 H 134.488 2.962 0.456657 0
M  V30 1345 H 132.049 1.61579 0.101877 0
M  V30 1346 H 134.041 2.74027 2.97811 0
M  V30 1347 H 132.611 1.75171 2.58909 0
M  V30 1348 H 131.831 3.7729 1.1422 0
M  V30 1349 H 133.119 4.7137 1.91541 0
M  V30 1350 H 132.517 3.16062 4.69171 0
M  V30 1351 H 131.074 3.95409 5.18165 0
M  V30 1352 N 134.507 -0.190092 1.56449 0
M  V30 1353 C 135.735 -0.925772 1.85033 0
M  V30 1354 C 136.15 -1.76638 0.666658 0
M  V30 1355 O 135.507 -1.78822 -0.364565 0
M  V30 1356 C 135.558 -1.81786 3.12468 0
M  V30 1357 O 135.279 -1.01118 4.26271 0
M  V30 1358 C 136.78 -2.6648 3.54265 0
M  V30 1359 H 134 -0.269872 0.614337 0
M  V30 1360 H 136.544 -0.195837 2.0356 0
M  V30 1361 H 134.699 -2.50136 2.95822 0
M  V30 1362 H 135.113 -1.61956 4.98869 0
M  V30 1363 H 136.587 -3.24722 4.46385 0
M  V30 1364 H 137.064 -3.40434 2.77491 0
M  V30 1365 H 137.67 -2.03493 3.73458 0
M  V30 1366 N 135.985 -1.50799 -0.457987 0
M  V30 1367 C 136.935 -1.67003 -1.55222 0
M  V30 1368 C 137.919 -0.52434 -1.52117 0
M  V30 1369 O 139.111 -0.779345 -1.58919 0
M  V30 1370 C 136.24 -1.77956 -2.93576 0
M  V30 1371 C 135.326 -2.98243 -3.01516 0
M  V30 1372 N 135.717 -4.21732 -2.79241 0
M  V30 1373 C 134.015 -2.97072 -3.32662 0
M  V30 1374 C 134.716 -5.02817 -2.92489 0
M  V30 1375 N 133.692 -4.37038 -3.23262 0
M  V30 1376 H 137.494 -2.60163 -1.36721 0
M  V30 1377 H 135.008 -1.48163 -0.664952 0
M  V30 1378 H 137.005 -1.87671 -3.72271 0
M  V30 1379 H 135.665 -0.859634 -3.13114 0
M  V30 1380 H 136.676 -4.51016 -2.54567 0
M  V30 1381 H 133.353 -2.14631 -3.58106 0
M  V30 1382 H 134.743 -6.11054 -2.79396 0
M  V30 1383 N 137.463 0.71206 -1.40597 0
M  V30 1384 C 138.71 1.47197 -1.39065 0
M  V30 1385 C 139.038 1.94499 0.00583891 0
M  V30 1386 O 138.293 1.68752 0.99102 0
M  V30 1387 C 138.592 2.71039 -2.32965 0
M  V30 1388 C 138.258 2.42484 -3.80148 0
M  V30 1389 C 136.92 2.34406 -4.20247 0
M  V30 1390 C 139.272 2.18598 -4.73143 0
M  V30 1391 C 136.6 2.00516 -5.51371 0
M  V30 1392 C 138.952 1.8622 -6.0457 0
M  V30 1393 C 137.616 1.76626 -6.43708 0
M  V30 1394 H 136.886 0.538634 -0.508876 0
M  V30 1395 H 139.533 0.815325 -1.73276 0
M  V30 1396 H 137.838 3.41558 -1.91951 0
M  V30 1397 H 139.535 3.29138 -2.29061 0
M  V30 1398 H 136.125 2.49659 -3.4838 0
M  V30 1399 H 140.309 2.23793 -4.42979 0
M  V30 1400 H 135.565 1.91628 -5.80593 0
M  V30 1401 H 139.739 1.66752 -6.76141 0
M  V30 1402 H 137.366 1.50133 -7.45228 0
M  V30 1403 N 138.941 1.26152 0.944643 0
M  V30 1404 C 140.187 1.11657 1.69294 0
M  V30 1405 C 140.52 -0.339926 1.91202 0
M  V30 1406 O 139.795 -1.24994 1.49019 0
M  V30 1407 C 140.078 1.88236 3.06984 0
M  V30 1408 C 139.931 3.41772 2.92424 0
M  V30 1409 C 141.25 1.67343 4.07043 0
M  V30 1410 H 138.369 0.407004 0.614424 0
M  V30 1411 H 141.011 1.55106 1.09737 0
M  V30 1412 H 139.161 1.51308 3.57824 0
M  V30 1413 H 140.833 3.88433 2.48832 0
M  V30 1414 H 139.076 3.68974 2.28124 0
M  V30 1415 H 139.747 3.90579 3.90067 0
M  V30 1416 H 142.223 1.99509 3.65151 0
M  V30 1417 H 141.099 2.23346 5.01406 0
M  V30 1418 H 141.36 0.617158 4.37771 0
M  V30 1419 N 140.419 -1.14872 1.07899 0
M  V30 1420 C 141.329 -2.2341 0.715915 0
M  V30 1421 C 142.345 -1.71808 -0.275306 0
M  V30 1422 O 143.521 -2.01039 -0.120545 0
M  V30 1423 C 140.586 -3.46474 0.125168 0
M  V30 1424 C 139.647 -4.13039 1.17034 0
M  V30 1425 C 138.88 -5.30229 0.607688 0
M  V30 1426 O 139.103 -5.675 -0.574497 0
M  V30 1427 O 138.037 -5.86444 1.35526 0
M  V30 1428 H 141.863 -2.56808 1.62121 0
M  V30 1429 H 139.448 -1.22702 0.852322 0
M  V30 1430 H 141.33 -4.20917 -0.201729 0
M  V30 1431 H 140.005 -3.14811 -0.753364 0
M  V30 1432 H 138.912 -3.40493 1.54968 0
M  V30 1433 H 140.245 -4.48796 2.02097 0
M  V30 1434 N 141.898 -0.863906 -1.31812 0
M  V30 1435 C 143.314 -0.555004 -1.49639 0
M  V30 1436 C 143.514 0.912266 -1.79666 0
M  V30 1437 O 142.57 1.69479 -1.87171 0
M  V30 1438 C 143.883 -1.44998 -2.63431 0
M  V30 1439 C 145.431 -1.45138 -2.77316 0
M  V30 1440 C 145.906 -2.33179 -3.94197 0
M  V30 1441 N 147.397 -2.31025 -4.01474 0
M  V30 1442 C 148.132 -2.95871 -4.9117 0
M  V30 1443 N 147.628 -3.69863 -5.8581 0
M  V30 1444 N 149.421 -2.85211 -4.84367 0
M  V30 1445 H 141.572 -1.81339 -1.10589 0
M  V30 1446 H 143.835 -0.77505 -0.545895 0
M  V30 1447 H 143.541 -2.49377 -2.48 0
M  V30 1448 H 143.415 -1.14409 -3.59431 0
M  V30 1449 H 145.802 -0.415201 -2.92164 0
M  V30 1450 H 145.883 -1.79747 -1.82001 0
M  V30 1451 H 145.527 -3.3687 -3.80107 0
M  V30 1452 H 145.457 -1.95897 -4.88807 0
M  V30 1453 H 147.948 -1.77238 -3.33759 0
M  V30 1454 H 148.261 -4.16486 -6.50968 0
M  V30 1455 H 146.606 -3.73971 -5.85808 0
M  V30 1456 H 149.797 -2.26948 -4.09405 0
M  V30 1457 H 149.97 -3.36027 -5.54066 0
M  V30 1458 N 143.376 1.44774 -0.622745 0
M  V30 1459 C 144.792 1.56986 -0.287652 0
M  V30 1460 C 144.992 1.61167 1.20944 0
M  V30 1461 O 144.048 1.55015 1.99315 0
M  V30 1462 C 145.361 2.84551 -0.972188 0
M  V30 1463 C 146.909 2.9825 -0.949536 0
M  V30 1464 C 147.384 4.28605 -1.61437 0
M  V30 1465 N 148.875 4.35399 -1.58057 0
M  V30 1466 C 149.61 5.34964 -2.064 0
M  V30 1467 N 149.106 6.40981 -2.62897 0
M  V30 1468 N 150.899 5.26419 -1.97078 0
M  V30 1469 H 143.05 1.40304 -1.59463 0
M  V30 1470 H 145.313 0.671794 -0.668878 0
M  V30 1471 H 145.019 2.87417 -2.02693 0
M  V30 1472 H 144.893 3.73807 -0.504771 0
M  V30 1473 H 147.28 2.94941 0.0967067 0
M  V30 1474 H 147.361 2.10364 -1.45536 0
M  V30 1475 H 147.005 4.32672 -2.66002 0
M  V30 1476 H 146.935 5.15334 -1.08344 0
M  V30 1477 H 149.426 3.59397 -1.16801 0
M  V30 1478 H 149.739 7.13225 -2.97539 0
M  V30 1479 H 148.084 6.4169 -2.66943 0
M  V30 1480 H 151.275 4.42504 -1.52669 0
M  V30 1481 H 151.448 6.03861 -2.35066 0
M  V30 1482 N 144.854 0.36279 1.53368 0
M  V30 1483 C 146.102 -0.227326 2.00817 0
M  V30 1484 C 146.423 -1.49511 1.25186 0
M  V30 1485 O 145.693 -1.92482 0.364348 0
M  V30 1486 H 144.273 -0.0869923 0.741917 0
M  V30 1487 H 146.935 0.488381 1.88682 0
M  V30 1488 H 146.031 -0.456273 3.08747 0
M  V30 1489 N 146.332 -1.57332 0.0918853 0
M  V30 1490 C 147.295 -2.12708 -0.85369 0
M  V30 1491 C 148.295 -1.05561 -1.213 0
M  V30 1492 O 149.485 -1.31461 -1.14296 0
M  V30 1493 C 146.617 -2.64503 -2.15061 0
M  V30 1494 H 147.81 -2.97573 -0.3729 0
M  V30 1495 H 145.363 -1.55509 -0.157072 0
M  V30 1496 H 146.098 -1.83149 -2.67632 0
M  V30 1497 H 145.883 -3.4284 -1.90272 0
M  V30 1498 H 147.373 -3.07351 -2.82711 0
M  V30 1499 N 147.81 0.181792 -1.56548 0
M  V30 1500 C 148.742 1.24956 -1.92142 0
M  V30 1501 C 149.755 1.41022 -0.813422 0
M  V30 1502 O 150.944 1.41212 -1.09186 0
M  V30 1503 C 148.044 2.61981 -2.14987 0
M  V30 1504 C 147.217 2.6735 -3.46183 0
M  V30 1505 C 146.276 3.85664 -3.5798 0
M  V30 1506 O 145.302 3.72148 -4.30691 0
M  V30 1507 N 146.504 5.01683 -2.92053 0
M  V30 1508 H 149.269 0.947329 -2.84334 0
M  V30 1509 H 146.83 0.371629 -1.57577 0
M  V30 1510 H 148.822 3.3958 -2.20154 0
M  V30 1511 H 147.392 2.84637 -1.2923 0
M  V30 1512 H 146.612 1.75925 -3.52766 0
M  V30 1513 H 147.9 2.67939 -4.32534 0
M  V30 1514 H 147.298 5.15564 -2.32832 0
M  V30 1515 H 145.855 5.77181 -3.0283 0
M  V30 1516 N 149.288 1.51039 0.449983 0
M  V30 1517 C 150.704 1.38934 0.785462 0
M  V30 1518 C 150.904 0.461817 1.96136 0
M  V30 1519 O 149.96 -0.0877389 2.52348 0
M  V30 1520 C 151.273 2.80724 1.0777 0
M  V30 1521 C 152.821 2.89787 1.1829 0
M  V30 1522 C 153.296 4.32457 1.50815 0
M  V30 1523 N 154.787 4.35505 1.57764 0
M  V30 1524 C 155.522 5.42914 1.84477 0
M  V30 1525 N 155.018 6.60502 2.09068 0
M  V30 1526 N 156.811 5.3038 1.86155 0
M  V30 1527 H 148.962 2.09904 -0.324647 0
M  V30 1528 H 151.225 0.944378 -0.0827957 0
M  V30 1529 H 150.931 3.50531 0.286498 0
M  V30 1530 H 150.805 3.19273 2.00859 0
M  V30 1531 H 153.192 2.20186 1.96474 0
M  V30 1532 H 153.273 2.54752 0.231314 0
M  V30 1533 H 152.917 5.02603 0.731622 0
M  V30 1534 H 152.847 4.64995 2.47158 0
M  V30 1535 H 155.338 3.50724 1.40715 0
M  V30 1536 H 155.651 7.38158 2.28785 0
M  V30 1537 H 153.996 6.63639 2.06416 0
M  V30 1538 H 157.187 4.37505 1.66454 0
M  V30 1539 H 157.36 6.1417 2.06637 0
M  V30 1540 N 150.766 -0.704594 1.40972 0
M  V30 1541 C 151.729 -1.80035 1.41845 0
M  V30 1542 C 152.729 -1.57774 0.310474 0
M  V30 1543 O 153.919 -1.64613 0.56992 0
M  V30 1544 C 151.051 -3.18284 1.22098 0
M  V30 1545 H 152.244 -1.80658 2.3938 0
M  V30 1546 H 149.797 -0.911329 1.26982 0
M  V30 1547 H 150.532 -3.23306 0.253672 0
M  V30 1548 H 150.317 -3.35843 2.02366 0
M  V30 1549 H 151.807 -3.98289 1.25522 0
M  V30 1550 N 152.244 -1.26651 -0.937939 0
M  V30 1551 C 153.194 -1.05156 -2.02302 0
M  V30 1552 C 154.178 0.0171233 -1.60891 0
M  V30 1553 O 155.37 -0.200213 -1.75864 0
M  V30 1554 C 152.499 -0.689962 -3.36295 0
M  V30 1555 C 151.585 -1.79626 -3.84181 0
M  V30 1556 N 151.976 -3.03422 -4.04684 0
M  V30 1557 C 150.274 -1.6806 -4.13124 0
M  V30 1558 C 150.975 -3.75345 -4.444 0
M  V30 1559 N 149.951 -3.03051 -4.51288 0
M  V30 1560 H 153.753 -1.99117 -2.1617 0
M  V30 1561 H 151.267 -1.17216 -1.12402 0
M  V30 1562 H 153.264 -0.517112 -4.13681 0
M  V30 1563 H 151.924 0.242139 -3.23796 0
M  V30 1564 H 152.935 -3.39293 -3.91281 0
M  V30 1565 H 149.612 -0.818629 -4.09396 0
M  V30 1566 H 151.002 -4.81691 -4.68427 0
M  V30 1567 N 153.722 1.14298 -1.08507 0
M  V30 1568 C 154.971 1.84708 -0.810305 0
M  V30 1569 C 155.284 1.83903 0.666271 0
M  V30 1570 O 156.49 2.50112 1.05624 0
M  V30 1571 C 154.946 3.31572 -1.39957 0
M  V30 1572 C 154.554 3.40791 -2.90801 0
M  V30 1573 C 156.298 4.07087 -1.20334 0
M  V30 1574 C 154.205 4.81872 -3.4286 0
M  V30 1575 H 153.135 0.691985 -0.299454 0
M  V30 1576 H 155.786 1.28841 -1.30661 0
M  V30 1577 H 154.168 3.87183 -0.830976 0
M  V30 1578 H 155.342 2.95225 -3.53806 0
M  V30 1579 H 153.657 2.78732 -3.0935 0
M  V30 1580 H 156.254 5.11225 -1.56693 0
M  V30 1581 H 156.597 4.16054 -0.143237 0
M  V30 1582 H 157.13 3.57779 -1.73893 0
M  V30 1583 H 153.869 4.78094 -4.48449 0
M  V30 1584 H 153.389 5.27972 -2.84615 0
M  V30 1585 H 155.068 5.50765 -3.39509 0
M  V30 1586 N 155.201 0.870884 1.31352 0
M  V30 1587 C 156.617 0.562932 1.49343 0
M  V30 1588 C 156.817 -0.902725 1.80148 0
M  V30 1589 O 155.873 -1.68484 1.88067 0
M  V30 1590 C 157.186 1.46393 2.62659 0
M  V30 1591 C 158.734 1.46607 2.76542 0
M  V30 1592 C 159.209 2.35266 3.92955 0
M  V30 1593 N 160.7 2.33151 4.00243 0
M  V30 1594 C 161.435 2.98471 4.89594 0
M  V30 1595 N 160.931 3.72964 5.8384 0
M  V30 1596 N 162.724 2.87775 4.82848 0
M  V30 1597 H 154.875 1.81923 1.09626 0
M  V30 1598 H 157.138 0.777934 0.541777 0
M  V30 1599 H 156.844 2.50689 2.46674 0
M  V30 1600 H 156.718 1.16314 3.58819 0
M  V30 1601 H 159.105 0.43069 2.9194 0
M  V30 1602 H 159.186 1.8071 1.81046 0
M  V30 1603 H 158.83 3.38881 3.78315 0
M  V30 1604 H 158.76 1.98487 4.87761 0
M  V30 1605 H 161.251 1.79006 3.32814 0
M  V30 1606 H 161.564 4.19932 6.4875 0
M  V30 1607 H 159.909 3.77073 5.83816 0
M  V30 1608 H 163.1 2.29116 4.08195 0
M  V30 1609 H 163.273 3.38961 5.52277 0
M  V30 1610 N 156.679 -1.44442 0.630414 0
M  V30 1611 C 157.609 -2.33418 -0.0618083 0
M  V30 1612 C 158.59 -1.48165 -0.835541 0
M  V30 1613 O 159.775 -1.76886 -0.801564 0
M  V30 1614 C 156.905 -3.31222 -1.04449 0
M  V30 1615 C 155.859 -4.26288 -0.382436 0
M  V30 1616 C 155.185 -5.13954 -1.47497 0
M  V30 1617 C 156.485 -5.1744 0.710865 0
M  V30 1618 H 158.179 -2.91548 0.681184 0
M  V30 1619 H 155.725 -1.40191 0.329026 0
M  V30 1620 H 157.678 -3.92351 -1.53748 0
M  V30 1621 H 156.402 -2.71299 -1.81836 0
M  V30 1622 H 155.061 -3.6649 0.0899054 0
M  V30 1623 H 154.709 -4.50385 -2.2397 0
M  V30 1624 H 154.409 -5.7837 -1.03737 0
M  V30 1625 H 155.933 -5.77955 -1.96979 0
M  V30 1626 H 157.347 -5.72509 0.300996 0
M  V30 1627 H 155.744 -5.90455 1.07156 0
M  V30 1628 H 156.814 -4.58496 1.57829 0
M  V30 1629 N 158.157 -0.370918 -1.53173 0
M  V30 1630 C 159.107 0.489588 -2.22681 0
M  V30 1631 C 160.091 1.04442 -1.22395 0
M  V30 1632 O 161.283 0.973578 -1.47819 0
M  V30 1633 C 158.412 1.626 -3.02351 0
M  V30 1634 C 157.498 1.08379 -4.10018 0
M  V30 1635 N 157.889 0.265004 -5.05105 0
M  V30 1636 C 156.187 1.35809 -4.2482 0
M  V30 1637 C 156.888 -0.0324755 -5.81691 0
M  V30 1638 N 155.864 0.566581 -5.40639 0
M  V30 1639 H 159.666 -0.142729 -2.93553 0
M  V30 1640 H 157.18 -0.179221 -1.61408 0
M  V30 1641 H 159.177 2.2547 -3.50669 0
M  V30 1642 H 157.837 2.26132 -2.33011 0
M  V30 1643 H 158.848 -0.0962352 -5.17811 0
M  V30 1644 H 155.525 1.9958 -3.66707 0
M  V30 1645 H 156.915 -0.69473 -6.68299 0
M  V30 1646 N 159.635 1.57281 -0.100228 0
M  V30 1647 C 160.882 1.94537 0.562268 0
M  V30 1648 C 161.21 0.982315 1.67871 0
M  V30 1649 O 160.465 0.00280936 1.957 0
M  V30 1650 C 160.764 3.38305 1.15259 0
M  V30 1651 C 160.43 4.50618 0.159409 0
M  V30 1652 C 159.092 4.81066 -0.113741 0
M  V30 1653 C 161.444 5.18615 -0.518461 0
M  V30 1654 C 158.772 5.76835 -1.07137 0
M  V30 1655 C 161.124 6.15412 -1.46459 0
M  V30 1656 C 159.788 6.44262 -1.74592 0
M  V30 1657 H 159.058 0.711863 0.205748 0
M  V30 1658 H 161.705 1.90679 -0.17715 0
M  V30 1659 H 160.01 3.38766 1.96836 0
M  V30 1660 H 161.707 3.64435 1.67297 0
M  V30 1661 H 158.297 4.2689 0.382491 0
M  V30 1662 H 162.481 4.95264 -0.320581 0
M  V30 1663 H 157.737 5.975 -1.29628 0
M  V30 1664 H 161.911 6.67194 -1.99564 0
M  V30 1665 H 159.538 7.1828 -2.48953 0
M  V30 1666 N 161.113 -0.173488 1.56642 0
M  V30 1667 C 162.338 -0.910149 1.86363 0
M  V30 1668 C 162.763 -1.75132 0.686318 0
M  V30 1669 O 162.121 -1.77595 -0.364643 0
M  V30 1670 C 162.169 -1.76447 3.14482 0
M  V30 1671 O 161.273 -2.86584 2.96553 0
M  V30 1672 H 160.614 -0.255086 0.613047 0
M  V30 1673 H 163.144 -0.172283 2.03873 0
M  V30 1674 H 163.154 -2.16483 3.45831 0
M  V30 1675 H 161.829 -1.14658 3.99783 0
M  V30 1676 H 160.406 -2.50146 2.76553 0
M  V30 1677 N 162.591 -1.51276 -0.441967 0
M  V30 1678 C 163.837 -1.63958 -1.19355 0
M  V30 1679 C 164.17 -0.352543 -1.90973 0
M  V30 1680 O 163.445 0.647627 -1.83401 0
M  V30 1681 C 163.728 -2.83979 -2.21422 0
M  V30 1682 C 163.581 -4.22646 -1.53918 0
M  V30 1683 C 164.9 -2.99521 -3.22451 0
M  V30 1684 H 162.019 -0.596709 -0.432559 0
M  V30 1685 H 164.661 -1.83748 -0.483398 0
M  V30 1686 H 162.811 -2.67237 -2.81987 0
M  V30 1687 H 164.483 -4.51045 -0.967256 0
M  V30 1688 H 162.726 -4.25558 -0.841615 0
M  V30 1689 H 163.397 -5.02609 -2.28229 0
M  V30 1690 H 165.873 -3.14944 -2.71937 0
M  V30 1691 H 164.749 -3.85072 -3.91166 0
M  V30 1692 H 165.01 -2.11391 -3.88287 0
M  V30 1693 N 164.069 0.697108 -1.41344 0
M  V30 1694 C 165.485 1.00751 -1.2378 0
M  V30 1695 C 165.685 2.01105 -0.126066 0
M  V30 1696 O 164.741 2.47295 0.51004 0
M  V30 1697 C 166.054 1.53359 -2.58653 0
M  V30 1698 C 167.602 1.6525 -2.65822 0
M  V30 1699 C 168.077 2.2126 -4.01009 0
M  V30 1700 N 169.568 2.28622 -4.02847 0
M  V30 1701 C 170.303 2.72984 -5.04249 0
M  V30 1702 N 169.799 3.16962 -6.16041 0
M  V30 1703 N 171.592 2.72534 -4.91611 0
M  V30 1704 H 163.743 0.0322662 -2.12375 0
M  V30 1705 H 166.006 0.0768853 -0.944877 0
M  V30 1706 H 165.712 0.870773 -3.4075 0
M  V30 1707 H 165.586 2.51597 -2.81032 0
M  V30 1708 H 167.973 2.30644 -1.84086 0
M  V30 1709 H 168.054 0.655614 -2.47256 0
M  V30 1710 H 167.698 1.56482 -4.83193 0
M  V30 1711 H 167.628 3.21698 -4.16915 0
M  V30 1712 H 170.119 1.97585 -3.22131 0
M  V30 1713 H 170.432 3.49434 -6.89287 0
M  V30 1714 H 168.777 3.14875 -6.1958 0
M  V30 1715 H 171.968 2.37525 -4.0336 0
M  V30 1716 H 172.141 3.06789 -5.70775 0
M  V30 1717 N 165.547 1.27147 0.931209 0
M  V30 1718 C 166.51 1.09615 2.01289 0
M  V30 1719 C 167.51 0.0412581 1.60747 0
M  V30 1720 O 168.7 0.285545 1.71844 0
M  V30 1721 C 165.832 0.669447 3.34262 0
M  V30 1722 H 167.025 2.05662 2.18273 0
M  V30 1723 H 164.578 1.09885 1.11153 0
M  V30 1724 H 165.313 -0.292572 3.22978 0
M  V30 1725 H 165.098 1.43127 3.65044 0
M  V30 1726 H 166.588 0.568921 4.13706 0
M  V30 1727 N 167.025 -1.13721 1.09112 0
M  V30 1728 C 168.265 -1.86576 0.834801 0
M  V30 1729 C 168.629 -1.81435 -0.628122 0
M  V30 1730 O 169.83 -2.49497 -1.00024 0
M  V30 1731 C 168.101 -3.30872 1.35124 0
M  V30 1732 S 169.66 -4.21257 1.22832 0
M  V30 1733 H 166.478 -0.643666 0.302017 0
M  V30 1734 H 169.08 -1.37085 1.39385 0
M  V30 1735 H 167.784 -3.32166 2.41027 0
M  V30 1736 H 167.315 -3.85423 0.788185 0
M  V30 1737 H 169.33 -4.95884 0.177191 0
M  V30 1738 N 168.503 -0.877838 -1.30888 0
M  V30 1739 C 169.728 -0.506629 -2.01117 0
M  V30 1740 C 170.153 0.895564 -1.65412 0
M  V30 1741 O 169.511 1.5923 -0.866922 0
M  V30 1742 C 169.559 -0.680223 -3.54126 0
M  V30 1743 O 168.663 0.277033 -4.11468 0
M  V30 1744 H 168.004 -0.200518 -0.633 0
M  V30 1745 H 170.534 -1.18342 -1.66902 0
M  V30 1746 H 170.544 -0.5765 -4.03907 0
M  V30 1747 H 169.219 -1.70261 -3.79452 0
M  V30 1748 H 167.796 0.127606 -3.72682 0
M  V30 1749 N 169.982 1.44106 -0.638065 0
M  V30 1750 C 171.207 2.0685 -0.150916 0
M  V30 1751 C 171.632 1.47417 1.16833 0
M  V30 1752 O 170.99 0.578264 1.71831 0
M  V30 1753 C 171.038 3.60555 -0.05708 0
M  V30 1754 O 170.142 4.00465 0.984972 0
M  V30 1755 H 169.483 0.658151 -0.0879399 0
M  V30 1756 H 172.013 1.84865 -0.876707 0
M  V30 1757 H 172.023 4.07789 0.131232 0
M  V30 1758 H 170.698 4.03193 -1.02021 0
M  V30 1759 H 169.275 3.64849 0.770672 0
M  V30 1760 N 171.46 0.379036 1.52974 0
M  V30 1761 C 172.39 -0.452706 2.29069 0
M  V30 1762 C 173.371 -1.07237 1.32039 0
M  V30 1763 O 174.556 -1.08708 1.60923 0
M  V30 1764 C 171.686 -1.5856 3.08992 0
M  V30 1765 C 170.64 -1.0925 4.13822 0
M  V30 1766 C 169.966 -2.31668 4.81907 0
M  V30 1767 C 171.266 -0.167702 5.22031 0
M  V30 1768 H 172.96 0.182181 2.98845 0
M  V30 1769 H 170.506 0.0890592 1.43724 0
M  V30 1770 H 172.459 -2.1742 3.6098 0
M  V30 1771 H 171.183 -2.24792 2.36931 0
M  V30 1772 H 169.842 -0.526494 3.628 0
M  V30 1773 H 169.49 -2.96386 4.06404 0
M  V30 1774 H 169.19 -1.9934 5.52754 0
M  V30 1775 H 170.714 -2.91189 5.36695 0
M  V30 1776 H 172.128 -0.664186 5.6944 0
M  V30 1777 H 170.525 0.0653265 6.00064 0
M  V30 1778 H 171.595 0.786347 4.78482 0
M  V30 1779 N 172.938 -1.57226 0.108567 0
M  V30 1780 C 174.186 -1.94448 -0.550853 0
M  V30 1781 C 174.507 -0.992074 -1.67878 0
M  V30 1782 O 173.777 -0.0465 -1.95845 0
M  V30 1783 H 172.357 -0.717897 -0.206479 0
M  V30 1784 H 175.019 -1.94112 0.175062 0
M  V30 1785 H 174.115 -2.97218 -0.952259 0
M  V30 1786 N 174.416 0.165178 -1.56732 0
M  V30 1787 C 175.662 0.882112 -1.82611 0
M  V30 1788 C 175.995 1.81628 -0.687378 0
M  V30 1789 O 175.27 1.92009 0.310267 0
M  V30 1790 C 175.553 1.67245 -3.18906 0
M  V30 1791 C 175.406 0.760987 -4.43316 0
M  V30 1792 C 176.725 2.63884 -3.52212 0
M  V30 1793 H 173.844 0.319242 -0.664269 0
M  V30 1794 H 176.486 0.148052 -1.89422 0
M  V30 1795 H 174.636 2.29824 -3.1323 0
M  V30 1796 H 176.308 0.147596 -4.61064 0
M  V30 1797 H 174.551 0.0694102 -4.33744 0
M  V30 1798 H 175.222 1.34962 -5.35247 0
M  V30 1799 H 177.698 2.11429 -3.58381 0
M  V30 1800 H 176.574 3.16245 -4.48643 0
M  V30 1801 H 176.835 3.44377 -2.77231 0
M  V30 1802 N 175.894 1.51508 0.433938 0
M  V30 1803 C 177.119 1.68443 1.21003 0
M  V30 1804 C 177.544 0.382636 1.84167 0
M  V30 1805 O 176.902 -0.65755 1.68956 0
M  V30 1806 C 176.95 2.80405 2.26727 0
M  V30 1807 O 176.054 2.44245 3.32292 0
M  V30 1808 H 175.395 0.561536 0.354363 0
M  V30 1809 H 177.925 1.9809 0.512024 0
M  V30 1810 H 177.935 3.0459 2.71457 0
M  V30 1811 H 176.61 3.74867 1.80132 0
M  V30 1812 H 175.187 2.30644 2.93015 0
M  V30 1813 N 177.372 -0.689602 1.41712 0
M  V30 1814 C 178.62 -1.4468 1.4111 0
M  V30 1815 C 178.941 -1.94986 0.0232196 0
M  V30 1816 O 178.211 -1.72097 -0.935913 0
M  V30 1817 H 176.791 -0.536847 0.519427 0
M  V30 1818 H 179.453 -0.815825 1.77004 0
M  V30 1819 H 178.549 -2.30706 2.10193 0
M  V30 1820 N 178.85 -1.27639 -0.924453 0
M  V30 1821 C 180.098 -1.13941 -1.66918 0
M  V30 1822 C 180.419 0.314589 -1.92446 0
M  V30 1823 O 179.689 1.21964 -1.53303 0
M  V30 1824 H 178.269 -0.418678 -0.618642 0
M  V30 1825 H 180.931 -1.60213 -1.10985 0
M  V30 1826 H 180.027 -1.67094 -2.63602 0
M  V30 1827 N 180.328 1.1314 -1.09713 0
M  V30 1828 C 181.556 1.88321 -0.856898 0
M  V30 1829 C 181.971 1.79276 0.592073 0
M  V30 1830 O 181.328 1.16142 1.40774 0
M  V30 1831 C 181.379 3.37812 -1.28706 0
M  V30 1832 O 181.1 3.46627 -2.67921 0
M  V30 1833 C 182.601 4.29952 -1.07964 0
M  V30 1834 H 179.821 0.596094 -0.308079 0
M  V30 1835 H 182.365 1.43205 -1.45988 0
M  V30 1836 H 180.52 3.805 -0.727912 0
M  V30 1837 H 180.934 4.39579 -2.8613 0
M  V30 1838 H 182.408 5.33159 -1.42986 0
M  V30 1839 H 182.885 4.39196 -0.0176577 0
M  V30 1840 H 183.491 3.93036 -1.62489 0
M  V30 1841 N 181.806 0.884767 1.30421 0
M  V30 1842 C 183.046 0.509806 1.9794 0
M  V30 1843 C 183.41 -0.923736 1.68319 0
M  V30 1844 O 184.611 -1.40481 2.29169 0
M  V30 1845 C 182.882 0.776732 3.48858 0
M  V30 1846 S 184.441 0.503843 4.35898 0
M  V30 1847 H 181.259 0.189699 0.685227 0
M  V30 1848 H 183.861 1.14399 1.58535 0
M  V30 1849 H 182.565 1.81857 3.67908 0
M  V30 1850 H 182.096 0.1301 3.93185 0
M  V30 1851 H 184.111 -0.657625 4.91823 0
M  V30 1852 N 183.284 -1.43765 0.645699 0
M  V30 1853 C 184.7 -1.56509 0.312591 0
M  V30 1854 C 184.9 -1.6307 -1.18365 0
M  V30 1855 O 183.956 -1.58167 -1.96824 0
M  V30 1856 C 185.269 -2.82968 1.01733 0
M  V30 1857 C 186.817 -2.96701 0.996865 0
M  V30 1858 C 187.292 -4.25982 1.68236 0
M  V30 1859 N 188.783 -4.32829 1.64964 0
M  V30 1860 C 189.518 -5.31613 2.14885 0
M  V30 1861 N 189.014 -6.36718 2.73061 0
M  V30 1862 N 190.807 -5.23217 2.05428 0
M  V30 1863 H 182.958 -1.3775 1.61675 0
M  V30 1864 H 185.221 -0.661067 0.679481 0
M  V30 1865 H 184.927 -2.84156 2.0724 0
M  V30 1866 H 184.801 -3.72957 0.564177 0
M  V30 1867 H 187.188 -2.95058 -0.0497719 0
M  V30 1868 H 187.269 -2.08022 1.48865 0
M  V30 1869 H 186.913 -4.28386 2.72852 0
M  V30 1870 H 186.843 -5.13545 1.16529 0
M  V30 1871 H 189.334 -3.57493 1.22503 0
M  V30 1872 H 189.647 -7.08401 3.08848 0
M  V30 1873 H 187.992 -6.37362 2.77118 0
M  V30 1874 H 191.183 -4.40019 1.59689 0
M  V30 1875 H 191.356 -6.00045 2.44643 0
M  V30 1876 N 184.763 -0.387143 -1.52771 0
M  V30 1877 C 185.673 0.456442 -2.30117 0
M  V30 1878 C 186.689 1.07342 -1.36944 0
M  V30 1879 O 187.865 1.07971 -1.70013 0
M  V30 1880 C 184.93 1.56957 -3.09136 0
M  V30 1881 C 183.991 0.977916 -4.18014 0
M  V30 1882 C 183.224 2.038 -4.93256 0
M  V30 1883 O 183.447 3.25271 -4.68567 0
M  V30 1884 O 182.381 1.6565 -5.78657 0
M  V30 1885 H 186.207 -0.17359 -3.03203 0
M  V30 1886 H 183.792 -0.150919 -1.48636 0
M  V30 1887 H 185.674 2.21628 -3.58412 0
M  V30 1888 H 184.349 2.18461 -2.38865 0
M  V30 1889 H 183.256 0.294525 -3.72939 0
M  V30 1890 H 184.589 0.407128 -4.90513 0
M  V30 1891 N 186.241 1.57166 -0.116904 0
M  V30 1892 C 187.469 1.99473 0.549383 0
M  V30 1893 C 187.884 0.996541 1.60357 0
M  V30 1894 O 187.241 -0.0108731 1.82497 0
M  V30 1895 C 187.292 3.41788 1.17741 0
M  V30 1896 O 187.013 4.37788 0.165362 0
M  V30 1897 C 188.514 3.99216 1.92722 0
M  V30 1898 H 185.734 0.655009 0.145616 0
M  V30 1899 H 188.278 2.03494 -0.202625 0
M  V30 1900 H 186.433 3.38713 1.88021 0
M  V30 1901 H 186.847 5.20806 0.621403 0
M  V30 1902 H 188.321 5.00882 2.31995 0
M  V30 1903 H 188.798 3.3824 2.80161 0
M  V30 1904 H 189.404 4.0583 1.27209 0
M  V30 1905 N 187.719 -0.156864 1.56817 0
M  V30 1906 C 188.966 -0.871125 1.82805 0
M  V30 1907 C 189.294 -1.81611 0.696262 0
M  V30 1908 O 188.549 -1.93141 -0.315459 0
M  V30 1909 C 188.848 -1.68737 3.1506 0
M  V30 1910 C 188.514 -0.890045 4.42028 0
M  V30 1911 C 187.176 -0.670042 4.76512 0
M  V30 1912 C 189.528 -0.331769 5.20143 0
M  V30 1913 C 186.856 0.119104 5.86579 0
M  V30 1914 C 189.208 0.444365 6.31037 0
M  V30 1915 C 187.872 0.675035 6.64078 0
M  V30 1916 H 187.142 -0.318767 0.668931 0
M  V30 1917 H 189.789 -0.135274 1.91022 0
M  V30 1918 H 188.094 -2.49304 3.0225 0
M  V30 1919 H 189.791 -2.24331 3.3238 0
M  V30 1920 H 186.381 -1.07157 4.14988 0
M  V30 1921 H 190.565 -0.489043 4.93885 0
M  V30 1922 H 185.821 0.307417 6.10627 0
M  V30 1923 H 189.995 0.884139 6.90765 0
M  V30 1924 H 187.622 1.28839 7.49203 0
M  V30 1925 N 189.197 -1.51736 -0.425897 0
M  V30 1926 C 190.425 -1.68794 -1.1965 0
M  V30 1927 C 190.84 -0.390164 -1.84725 0
M  V30 1928 O 190.197 0.632376 -1.71194 0
M  V30 1929 C 190.248 -2.81174 -2.27208 0
M  V30 1930 O 189.969 -4.05925 -1.64793 0
M  V30 1931 C 191.47 -3.09599 -3.17275 0
M  V30 1932 H 188.69 -0.566128 -0.360194 0
M  V30 1933 H 191.234 -1.98211 -0.503249 0
M  V30 1934 H 189.389 -2.54324 -2.9223 0
M  V30 1935 H 189.803 -4.68423 -2.35967 0
M  V30 1936 H 191.277 -3.91786 -3.88854 0
M  V30 1937 H 191.754 -2.22468 -3.78688 0
M  V30 1938 H 192.36 -3.38151 -2.57941 0
M  V30 1939 N 190.675 0.682077 -1.42076 0
M  V30 1940 C 191.605 1.80796 -1.47767 0
M  V30 1941 C 192.586 1.6677 -0.334954 0
M  V30 1942 O 193.771 1.863 -0.548264 0
M  V30 1943 C 190.901 3.19038 -1.37229 0
M  V30 1944 C 189.855 3.47789 -2.49453 0
M  V30 1945 C 189.181 4.8553 -2.23975 0
M  V30 1946 C 190.481 3.45411 -3.91776 0
M  V30 1947 H 192.175 1.7629 -2.41997 0
M  V30 1948 H 189.721 0.846721 -1.16476 0
M  V30 1949 H 191.674 3.97528 -1.39821 0
M  V30 1950 H 190.398 3.24204 -0.394907 0
M  V30 1951 H 189.057 2.71657 -2.46166 0
M  V30 1952 H 188.705 4.87337 -1.24547 0
M  V30 1953 H 188.405 5.0573 -2.99184 0
M  V30 1954 H 189.929 5.66312 -2.28304 0
M  V30 1955 H 191.343 4.13882 -3.96705 0
M  V30 1956 H 189.74 3.77145 -4.66778 0
M  V30 1957 H 190.81 2.44122 -4.18966 0
M  V30 1958 N 192.153 1.28127 0.917671 0
M  V30 1959 C 193.383 1.17722 1.6978 0
M  V30 1960 C 193.791 -0.267261 1.87303 0
M  V30 1961 O 193.134 -1.19286 1.39702 0
M  V30 1962 C 193.196 1.79958 3.11216 0
M  V30 1963 C 192.86 3.29187 3.16993 0
M  V30 1964 C 193.857 4.25679 2.98485 0
M  V30 1965 C 191.542 3.70075 3.39632 0
M  V30 1966 C 193.536 5.61035 3.02521 0
M  V30 1967 C 191.223 5.05557 3.433 0
M  V30 1968 C 192.221 6.00847 3.24764 0
M  V30 1969 O 191.909 7.33859 3.28187 0
M  V30 1970 H 191.641 0.409788 0.537634 0
M  V30 1971 H 194.195 1.69694 1.15728 0
M  V30 1972 H 192.425 1.22475 3.66793 0
M  V30 1973 H 194.114 1.64125 3.71238 0
M  V30 1974 H 194.88 3.95426 2.80826 0
M  V30 1975 H 190.759 2.96373 3.53106 0
M  V30 1976 H 194.303 6.35388 2.87971 0
M  V30 1977 H 190.2 5.35462 3.60486 0
M  V30 1978 H 190.968 7.42436 3.44575 0
M  V30 1979 N 193.631 -1.12557 1.10312 0
M  V30 1980 C 194.861 -1.87592 0.865617 0
M  V30 1981 C 195.269 -1.79851 -0.587389 0
M  V30 1982 O 194.612 -1.16949 -1.41664 0
M  V30 1983 C 194.674 -3.37665 1.23381 0
M  V30 1984 C 194.338 -3.69181 2.69359 0
M  V30 1985 C 195.335 -3.67652 3.67597 0
M  V30 1986 C 193.02 -3.98555 3.05711 0
M  V30 1987 C 195.014 -3.95053 5.00212 0
M  V30 1988 C 192.701 -4.25616 4.38514 0
M  V30 1989 C 193.699 -4.23851 5.35574 0
M  V30 1990 O 193.387 -4.50242 6.65986 0
M  V30 1991 H 193.119 -0.600442 0.310557 0
M  V30 1992 H 195.673 -1.4335 1.47105 0
M  V30 1993 H 193.903 -3.82454 0.571467 0
M  V30 1994 H 195.592 -3.94041 0.973994 0
M  V30 1995 H 196.358 -3.45024 3.40857 0
M  V30 1996 H 192.237 -3.99071 2.30789 0
M  V30 1997 H 195.781 -3.93591 5.75962 0
M  V30 1998 H 191.678 -4.47718 4.64994 0
M  V30 1999 H 192.446 -4.67867 6.71597 0
M  V30 2000 N 195.109 -0.891671 -1.2995 0
M  V30 2001 C 196.525 -0.58662 -1.48428 0
M  V30 2002 C 196.725 0.873951 -1.81561 0
M  V30 2003 O 195.781 1.65471 -1.90724 0
M  V30 2004 C 197.094 -1.50553 -2.60296 0
M  V30 2005 C 198.642 -1.50988 -2.74175 0
M  V30 2006 C 199.117 -2.41488 -3.89163 0
M  V30 2007 N 200.608 -2.39489 -3.96483 0
M  V30 2008 C 201.343 -3.06223 -4.84784 0
M  V30 2009 N 200.839 -3.82206 -5.77833 0
M  V30 2010 N 202.632 -2.95421 -4.78208 0
M  V30 2011 H 194.783 -1.83644 -1.06718 0
M  V30 2012 H 197.046 -0.786455 -0.529332 0
M  V30 2013 H 196.752 -2.54581 -2.42654 0
M  V30 2014 H 196.626 -1.22008 -3.56923 0
M  V30 2015 H 199.013 -0.47708 -2.91218 0
M  V30 2016 H 199.094 -1.83567 -1.78148 0
M  V30 2017 H 198.738 -3.44857 -3.72876 0
M  V30 2018 H 198.668 -2.06222 -4.84541 0
M  V30 2019 H 201.159 -1.84278 -3.29924 0
M  V30 2020 H 201.472 -4.302 -6.41988 0
M  V30 2021 H 199.817 -3.86313 -5.77743 0
M  V30 2022 H 203.008 -2.35581 -4.04499 0
M  V30 2023 H 203.181 -3.47704 -5.46814 0
M  V30 2024 N 196.587 1.43421 -0.653314 0
M  V30 2025 C 197.519 2.29071 0.0769134 0
M  V30 2026 C 198.532 1.42513 0.787017 0
M  V30 2027 O 199.721 1.66449 0.644757 0
M  V30 2028 C 196.821 3.19436 1.13199 0
M  V30 2029 C 195.994 4.34533 0.500006 0
M  V30 2030 C 195.053 5.05771 1.45198 0
M  V30 2031 O 194.079 5.61037 0.960538 0
M  V30 2032 N 195.281 5.0928 2.78594 0
M  V30 2033 H 198.046 2.92382 -0.658235 0
M  V30 2034 H 195.607 1.54112 -0.496104 0
M  V30 2035 H 197.599 3.63958 1.76964 0
M  V30 2036 H 196.169 2.57724 1.7691 0
M  V30 2037 H 195.389 3.92925 -0.316738 0
M  V30 2038 H 196.677 5.08766 0.0588345 0
M  V30 2039 H 196.075 4.65751 3.2108 0
M  V30 2040 H 194.632 5.57519 3.37662 0
M  V30 2041 N 198.065 0.39524 1.52563 0
M  V30 2042 C 199.028 -0.425001 2.25225 0
M  V30 2043 C 200.028 -0.985266 1.27079 0
M  V30 2044 O 201.218 -0.866332 1.5113 0
M  V30 2045 C 198.35 -1.59686 3.01186 0
M  V30 2046 H 199.543 0.211233 2.99155 0
M  V30 2047 H 197.096 0.147472 1.55603 0
M  V30 2048 H 197.831 -2.27035 2.31572 0
M  V30 2049 H 197.616 -1.20176 3.73229 0
M  V30 2050 H 199.106 -2.17743 3.5634 0
M  V30 2051 N 199.544 -1.57102 0.125237 0
M  V30 2052 C 200.454 -2.19191 -0.8362 0
M  V30 2053 C 201.47 -1.16985 -1.28805 0
M  V30 2054 O 202.646 -1.49479 -1.34974 0
M  V30 2055 C 199.711 -2.78407 -2.06617 0
M  V30 2056 C 198.772 -3.9567 -1.66565 0
M  V30 2057 C 198.005 -4.52052 -2.83698 0
M  V30 2058 O 198.228 -4.07326 -3.99302 0
M  V30 2059 O 197.162 -5.42645 -2.60423 0
M  V30 2060 H 200.988 -3.01816 -0.337776 0
M  V30 2061 H 198.573 -1.4906 -0.100695 0
M  V30 2062 H 200.455 -3.16129 -2.7864 0
M  V30 2063 H 199.13 -1.9881 -2.55453 0
M  V30 2064 H 198.037 -3.62705 -0.916296 0
M  V30 2065 H 199.37 -4.76722 -1.22464 0
M  V30 2066 N 201.022 0.148545 -1.56898 0
M  V30 2067 C 201.932 1.20293 -2.01412 0
M  V30 2068 C 202.948 1.47107 -0.929273 0
M  V30 2069 O 204.124 1.58807 -1.23863 0
M  V30 2070 C 201.189 2.51682 -2.38447 0
M  V30 2071 C 200.25 2.32529 -3.60872 0
M  V30 2072 C 199.483 3.57653 -3.96132 0
M  V30 2073 O 199.706 4.63771 -3.32073 0
M  V30 2074 O 198.64 3.50408 -4.89385 0
M  V30 2075 H 202.466 0.855025 -2.91416 0
M  V30 2076 H 200.051 0.357151 -1.45068 0
M  V30 2077 H 201.933 3.29147 -2.63135 0
M  V30 2078 H 200.608 2.86006 -1.51599 0
M  V30 2079 H 199.515 1.53019 -3.41373 0
M  V30 2080 H 200.848 2.03121 -4.48333 0
M  V30 2081 N 202.5 1.5196 0.417844 0
M  V30 2082 C 203.911 1.57851 0.997 0
M  V30 2083 C 204.262 0.413714 1.91789 0
M  V30 2084 O 203.387 -0.467057 2.113 0
M  V30 2085 C 203.982 2.86085 1.81496 0
M  V30 2086 C 202.541 2.94483 2.34428 0
M  V30 2087 C 201.688 2.52707 1.14169 0
M  V30 2088 H 204.639 1.57455 0.198392 0
M  V30 2089 H 204.66 2.70947 2.67148 0
M  V30 2090 H 204.172 3.70842 1.14446 0
M  V30 2091 H 202.273 2.142 3.04875 0
M  V30 2092 H 202.386 3.98546 2.65891 0
M  V30 2093 H 200.75 2.06353 1.49301 0
M  V30 2094 H 201.533 3.39828 0.486999 0
M  V30 2095 N 203.978 -0.674533 1.42435 0
M  V30 2096 C 205.255 -1.4305 1.33402 0
M  V30 2097 C 205.635 -2.11081 -0.0284674 0
M  V30 2098 O 204.983 -2.03257 -1.04397 0
M  V30 2099 C 205.193 -2.43272 2.50239 0
M  V30 2100 C 206.541 -3.07907 2.92367 0
M  V30 2101 O 207.565 -2.53599 2.50132 0
M  V30 2102 O 206.424 -4.0632 3.65467 0
M  V30 2103 H 203.518 -0.638076 0.526106 0
M  V30 2104 H 206.064 -0.703235 1.54443 0
M  V30 2105 H 204.836 -1.91803 3.41068 0
M  V30 2106 H 204.459 -3.23479 2.31186 0
M  V30 2107 N 205.456 -1.28612 -0.910864 0
M  V30 2108 C 206.681 -1.1891 -1.69927 0
M  V30 2109 C 207.106 0.248372 -1.86453 0
M  V30 2110 O 206.464 1.17961 -1.37676 0
M  V30 2111 C 206.512 -1.89578 -3.06745 0
M  V30 2112 O 205.616 -1.20521 -3.94396 0
M  V30 2113 H 204.957 -0.412632 -0.520222 0
M  V30 2114 H 207.487 -1.69985 -1.1387 0
M  V30 2115 H 207.497 -1.97597 -3.56958 0
M  V30 2116 H 206.172 -2.94136 -2.94035 0
M  V30 2117 H 204.749 -1.20684 -3.52831 0
M  V30 2118 N 206.934 1.1197 -1.10907 0
M  V30 2119 C 208.345 1.65114 -0.871446 0
M  V30 2120 C 208.696 1.86885 0.597353 0
M  V30 2121 O 207.821 1.59896 1.45816 0
M  V30 2122 C 208.416 2.99944 -1.5754 0
M  V30 2123 C 206.975 3.50018 -1.38435 0
M  V30 2124 C 206.122 2.24941 -1.62164 0
M  V30 2125 H 209.073 0.956851 -1.2661 0
M  V30 2126 H 209.094 3.66651 -1.01721 0
M  V30 2127 H 208.606 2.84067 -2.64438 0
M  V30 2128 H 206.707 3.71071 -0.337214 0
M  V30 2129 H 206.82 4.29165 -2.12965 0
M  V30 2130 H 205.184 2.3229 -1.04467 0
M  V30 2131 H 205.967 2.11612 -2.70324 0
M  V30 2132 N 208.412 0.89855 1.29475 0
M  V30 2133 C 209.689 0.443416 1.90508 0
M  V30 2134 C 210.069 -1.07685 1.81569 0
M  V30 2135 O 209.417 -1.9182 1.24166 0
M  V30 2136 C 209.627 0.956708 3.35631 0
M  V30 2137 C 210.975 0.999728 4.12663 0
M  V30 2138 O 211.999 0.904299 3.4453 0
M  V30 2139 O 210.858 1.14289 5.34416 0
M  V30 2140 H 207.952 0.138025 0.815401 0
M  V30 2141 H 210.498 0.98834 1.37949 0
M  V30 2142 H 209.27 2.00067 3.36287 0
M  V30 2143 H 208.893 0.391728 3.95666 0
M  V30 2144 N 209.89 -1.43072 0.660911 0
M  V30 2145 C 211.115 -2.06584 0.183805 0
M  V30 2146 C 211.54 -1.49257 -1.14472 0
M  V30 2147 O 210.898 -0.605528 -1.70889 0
M  V30 2148 C 210.946 -3.60418 0.114434 0
M  V30 2149 O 210.05 -4.01981 -0.921137 0
M  V30 2150 H 209.391 -0.656669 0.0983994 0
M  V30 2151 H 211.921 -1.83447 0.906006 0
M  V30 2152 H 211.931 -4.07946 -0.0663394 0
M  V30 2153 H 210.606 -4.01519 1.08422 0
M  V30 2154 H 209.183 -3.66029 -0.71253 0
M  V30 2155 N 211.368 -0.403325 -1.52352 0
M  V30 2156 C 212.614 0.174605 -2.02047 0
M  V30 2157 C 212.947 1.45282 -1.28867 0
M  V30 2158 O 212.222 1.90483 -0.393257 0
M  V30 2159 C 212.505 0.428238 -3.57545 0
M  V30 2160 C 212.358 -0.866248 -4.4138 0
M  V30 2161 C 213.677 1.21287 -4.23057 0
M  V30 2162 H 210.796 0.0619851 -0.734389 0
M  V30 2163 H 213.438 -0.53565 -1.82293 0
M  V30 2164 H 211.588 1.03327 -3.74507 0
M  V30 2165 H 213.26 -1.50265 -4.3614 0
M  V30 2166 H 211.503 -1.47851 -4.07827 0
M  V30 2167 H 212.174 -0.643249 -5.48239 0
M  V30 2168 H 214.65 0.700703 -4.10158 0
M  V30 2169 H 213.526 1.35909 -5.31808 0
M  V30 2170 H 213.787 2.23193 -3.81625 0
M  V30 2171 N 212.846 1.57033 -0.133567 0
M  V30 2172 C 214.071 2.00475 0.531477 0
M  V30 2173 C 214.496 1.01291 1.58499 0
M  V30 2174 O 213.854 -0.0133279 1.81295 0
M  V30 2175 C 213.902 3.42729 1.12113 0
M  V30 2176 O 213.006 3.46498 2.23636 0
M  V30 2177 H 212.347 0.650876 0.131362 0
M  V30 2178 H 214.877 2.03344 -0.22634 0
M  V30 2179 H 214.887 3.81246 1.4531 0
M  V30 2180 H 213.562 4.14428 0.349557 0
M  V30 2181 H 212.139 3.19811 1.91769 0
M  V30 2182 N 214.325 -0.140222 1.56975 0
M  V30 2183 C 215.55 -0.870414 1.88251 0
M  V30 2184 C 215.975 -1.73637 0.723312 0
M  V30 2185 O 215.333 -1.78329 -0.32689 0
M  V30 2186 C 215.381 -1.69737 3.18154 0
M  V30 2187 O 214.485 -2.80229 3.02565 0
M  V30 2188 H 213.826 -0.242025 0.61832 0
M  V30 2189 H 216.356 -0.128999 2.04193 0
M  V30 2190 H 216.366 -2.09099 3.50345 0
M  V30 2191 H 215.041 -1.06152 4.02125 0
M  V30 2192 H 213.618 -2.44224 2.81796 0
M  V30 2193 N 215.803 -1.52179 -0.40978 0
M  V30 2194 C 217.049 -1.67408 -1.15525 0
M  V30 2195 C 217.404 -0.398746 -1.88223 0
M  V30 2196 O 216.697 0.60678 -1.81738 0
M  V30 2197 C 216.891 -2.83428 -2.17723 0
M  V30 2198 C 216.72 -4.22121 -1.55061 0
M  V30 2199 C 215.49 -4.87657 -1.3236 0
M  V30 2200 C 217.688 -5.04248 -1.01185 0
M  V30 2201 N 215.67 -6.10387 -0.655834 0
M  V30 2202 C 217.041 -6.18209 -0.470963 0
M  V30 2203 C 219.096 -4.89583 -0.906252 0
M  V30 2204 C 217.799 -7.1911 0.165172 0
M  V30 2205 C 219.825 -5.90718 -0.28397 0
M  V30 2206 C 219.187 -7.03969 0.246243 0
M  V30 2207 H 215.286 -0.666251 -0.409431 0
M  V30 2208 H 217.87 -1.89482 -0.447729 0
M  V30 2209 H 216.041 -2.6297 -2.85834 0
M  V30 2210 H 217.773 -2.87697 -2.84627 0
M  V30 2211 H 214.528 -4.46007 -1.59294 0
M  V30 2212 H 214.952 -6.76153 -0.338596 0
M  V30 2213 H 219.594 -4.02253 -1.302 0
M  V30 2214 H 217.312 -8.06066 0.572986 0
M  V30 2215 H 220.898 -5.81443 -0.203792 0
M  V30 2216 H 219.778 -7.80886 0.720173 0
M  V30 2217 N 217.281 0.66697 -1.42791 0
M  V30 2218 C 218.231 1.77313 -1.43332 0
M  V30 2219 C 219.215 1.5801 -0.303586 0
M  V30 2220 O 220.407 1.68356 -0.546385 0
M  V30 2221 C 217.536 3.15822 -1.34578 0
M  V30 2222 C 216.622 3.40721 -2.52528 0
M  V30 2223 N 217.013 3.36162 -3.77927 0
M  V30 2224 C 215.311 3.71387 -2.46956 0
M  V30 2225 C 216.012 3.60762 -4.56318 0
M  V30 2226 N 214.988 3.81908 -3.86843 0
M  V30 2227 H 218.79 1.72193 -2.38174 0
M  V30 2228 H 216.304 0.868114 -1.3725 0
M  V30 2229 H 218.301 3.951 -1.33048 0
M  V30 2230 H 216.961 3.22133 -0.407453 0
M  V30 2231 H 217.972 3.15885 -4.10411 0
M  V30 2232 H 214.649 3.84897 -1.61743 0
M  V30 2233 H 216.039 3.63132 -5.65318 0
M  V30 2234 N 218.759 1.29093 0.90403 0
M  V30 2235 C 219.689 1.16401 2.02418 0
M  V30 2236 C 220.67 0.0593085 1.69997 0
M  V30 2237 O 221.855 0.238021 1.92736 0
M  V30 2238 C 218.985 0.835233 3.37107 0
M  V30 2239 C 217.939 1.89578 3.83724 0
M  V30 2240 C 217.265 1.42041 5.15489 0
M  V30 2241 C 218.565 3.30394 4.04521 0
M  V30 2242 H 220.259 2.10109 2.13295 0
M  V30 2243 H 217.805 1.01157 1.02486 0
M  V30 2244 H 219.758 0.733169 4.14973 0
M  V30 2245 H 218.482 -0.137543 3.2631 0
M  V30 2246 H 217.141 1.98715 3.08071 0
M  V30 2247 H 216.789 0.436426 5.01103 0
M  V30 2248 H 216.489 2.12964 5.4765 0
M  V30 2249 H 218.013 1.33176 5.959 0
M  V30 2250 H 219.427 3.24123 4.72882 0
M  V30 2251 H 217.824 3.99237 4.48029 0
M  V30 2252 H 218.894 3.73692 3.09002 0
M  V30 2253 N 220.237 -1.11381 1.11499 0
M  V30 2254 C 221.184 -2.17439 0.773887 0
M  V30 2255 C 222.154 -1.64132 -0.254899 0
M  V30 2256 O 223.339 -1.90345 -0.13168 0
M  V30 2257 C 220.479 -3.44373 0.223917 0
M  V30 2258 C 219.592 -4.1168 1.30934 0
M  V30 2259 C 218.727 -5.263 0.71984 0
M  V30 2260 C 217.766 -5.85493 1.78507 0
M  V30 2261 N 216.903 -6.91507 1.21502 0
M  V30 2262 H 221.743 -2.45962 1.68246 0
M  V30 2263 H 219.28 -1.20744 0.840191 0
M  V30 2264 H 221.238 -4.17047 -0.112921 0
M  V30 2265 H 219.868 -3.16232 -0.647851 0
M  V30 2266 H 218.92 -3.37073 1.76312 0
M  V30 2267 H 220.232 -4.51729 2.11524 0
M  V30 2268 H 219.386 -6.05785 0.333094 0
M  V30 2269 H 218.125 -4.87559 -0.117377 0
M  V30 2270 H 217.13 -5.04686 2.18111 0
M  V30 2271 H 218.355 -6.26301 2.62533 0
M  V30 2272 H 216.301 -6.54783 0.399455 0
M  V30 2273 H 216.218 -7.30214 1.95763 0
M  V30 2274 H 217.486 -7.74795 0.855181 0
M  V30 2275 N 221.715 -0.905404 -1.28997 0
M  V30 2276 C 223.131 -0.60233 -1.47798 0
M  V30 2277 C 223.331 0.854645 -1.82478 0
M  V30 2278 O 222.387 1.63439 -1.92468 0
M  V30 2279 C 223.7 -1.53306 -2.58685 0
M  V30 2280 C 225.248 -1.53887 -2.72558 0
M  V30 2281 C 225.723 -2.45602 -3.86579 0
M  V30 2282 N 227.214 -2.43681 -3.93921 0
M  V30 2283 C 227.949 -3.11347 -4.81509 0
M  V30 2284 N 227.445 -3.88313 -5.73746 0
M  V30 2285 N 229.238 -3.00476 -4.75048 0
M  V30 2286 H 221.389 -1.84765 -1.04764 0
M  V30 2287 H 223.652 -0.792025 -0.520961 0
M  V30 2288 H 223.358 -2.57141 -2.39941 0
M  V30 2289 H 223.232 -1.25787 -3.55609 0
M  V30 2290 H 225.619 -0.507941 -2.90696 0
M  V30 2291 H 225.7 -1.85447 -1.76191 0
M  V30 2292 H 225.344 -3.48792 -3.69197 0
M  V30 2293 H 225.274 -2.11349 -4.82327 0
M  V30 2294 H 227.765 -1.87767 -3.27951 0
M  V30 2295 H 228.078 -4.36985 -6.37389 0
M  V30 2296 H 226.423 -3.92419 -5.73614 0
M  V30 2297 H 229.614 -2.39858 -4.01977 0
M  V30 2298 H 229.787 -3.53485 -5.43095 0
M  V30 2299 N 223.193 1.4272 -0.668489 0
M  V30 2300 C 224.439 2.02443 -0.197076 0
M  V30 2301 C 224.794 1.51882 1.18109 0
M  V30 2302 O 224.087 0.708618 1.78015 0
M  V30 2303 C 224.281 3.57021 -0.164499 0
M  V30 2304 C 224.11 4.22583 -1.53797 0
M  V30 2305 C 222.88 4.58019 -2.13416 0
M  V30 2306 C 225.078 4.50588 -2.47941 0
M  V30 2307 N 223.06 5.08729 -3.4361 0
M  V30 2308 C 224.431 5.02782 -3.62782 0
M  V30 2309 C 226.486 4.32571 -2.46551 0
M  V30 2310 C 225.189 5.38852 -4.76478 0
M  V30 2311 C 227.215 4.69713 -3.59338 0
M  V30 2312 C 226.577 5.22053 -4.72906 0
M  V30 2313 H 222.676 0.773214 -0.116894 0
M  V30 2314 H 225.26 1.73673 -0.880108 0
M  V30 2315 H 223.431 3.85323 0.487925 0
M  V30 2316 H 225.163 4.03439 0.319207 0
M  V30 2317 H 221.918 4.43566 -1.65969 0
M  V30 2318 H 222.342 5.38521 -4.10273 0
M  V30 2319 H 226.984 3.91365 -1.59978 0
M  V30 2320 H 224.702 5.78993 -5.63731 0
M  V30 2321 H 228.288 4.57454 -3.59482 0
M  V30 2322 H 227.168 5.50258 -5.58736 0
M  V30 2323 N 224.671 0.411399 1.52136 0
M  V30 2324 C 225.899 -0.163076 2.06256 0
M  V30 2325 C 226.314 -1.3867 1.28125 0
M  V30 2326 O 225.671 -1.79423 0.333721 0
M  V30 2327 C 225.722 -0.511252 3.57867 0
M  V30 2328 O 225.443 0.66378 4.33042 0
M  V30 2329 C 226.944 -1.13921 4.28412 0
M  V30 2330 H 224.164 -0.0193897 0.67072 0
M  V30 2331 H 226.708 0.583007 1.96013 0
M  V30 2332 H 224.863 -1.20723 3.6811 0
M  V30 2333 H 225.277 0.372601 5.23175 0
M  V30 2334 H 226.751 -1.33302 5.35663 0
M  V30 2335 H 227.228 -2.11296 3.85033 0
M  V30 2336 H 227.834 -0.483373 4.22544 0
M  V30 2337 N 226.149 -1.5696 0.141893 0
M  V30 2338 C 227.096 -2.16501 -0.799737 0
M  V30 2339 C 228.066 -1.09643 -1.24771 0
M  V30 2340 O 229.251 -1.3766 -1.32115 0
M  V30 2341 C 226.391 -2.78679 -2.03549 0
M  V30 2342 C 225.504 -3.99914 -1.6338 0
M  V30 2343 C 224.639 -4.50106 -2.82096 0
M  V30 2344 C 223.678 -5.63819 -2.38275 0
M  V30 2345 N 222.815 -6.08651 -3.49983 0
M  V30 2346 H 227.655 -2.96632 -0.285179 0
M  V30 2347 H 225.192 -1.46533 -0.129053 0
M  V30 2348 H 227.15 -3.1287 -2.75986 0
M  V30 2349 H 225.78 -2.012 -2.52425 0
M  V30 2350 H 224.832 -3.71735 -0.807279 0
M  V30 2351 H 226.144 -4.82311 -1.27192 0
M  V30 2352 H 225.298 -4.86325 -3.62729 0
M  V30 2353 H 224.037 -3.66706 -3.21525 0
M  V30 2354 H 223.042 -5.2718 -1.56081 0
M  V30 2355 H 224.267 -6.49 -1.99938 0
M  V30 2356 H 222.213 -5.28188 -3.89042 0
M  V30 2357 H 222.13 -6.85961 -3.17794 0
M  V30 2358 H 223.398 -6.49515 -4.30988 0
M  V30 2359 N 227.627 0.131896 -1.57047 0
M  V30 2360 C 228.873 0.843179 -1.84441 0
M  V30 2361 C 229.206 1.80129 -0.725749 0
M  V30 2362 O 228.481 1.92624 0.269469 0
M  V30 2363 C 228.764 1.60442 -3.22382 0
M  V30 2364 C 228.617 0.666782 -4.4483 0
M  V30 2365 C 229.936 2.56354 -3.5773 0
M  V30 2366 H 227.055 0.305081 -0.670891 0
M  V30 2367 H 229.697 0.107839 -1.89694 0
M  V30 2368 H 227.847 2.23128 -3.18035 0
M  V30 2369 H 229.519 0.0497646 -4.61273 0
M  V30 2370 H 227.762 -0.022609 -4.33794 0
M  V30 2371 H 228.433 1.23579 -5.37989 0
M  V30 2372 H 230.909 2.0378 -3.62785 0
M  V30 2373 H 229.785 3.06657 -4.5525 0
M  V30 2374 H 230.046 3.38419 -2.84473 0
M  V30 2375 N 229.106 1.52395 0.401703 0
M  V30 2376 C 230.383 1.57387 1.16141 0
M  V30 2377 C 230.763 0.359359 2.08019 0
M  V30 2378 O 230.111 -0.65326 2.18963 0
M  V30 2379 C 230.321 2.90631 1.93221 0
M  V30 2380 C 231.669 3.43904 2.49028 0
M  V30 2381 O 232.693 2.92421 2.03393 0
M  V30 2382 O 231.552 4.33823 3.32356 0
M  V30 2383 H 228.646 0.634262 0.530698 0
M  V30 2384 H 231.192 1.64725 0.407883 0
M  V30 2385 H 229.964 3.70473 1.25958 0
M  V30 2386 H 229.587 2.8662 2.75563 0
M  V30 2387 N 230.584 -0.659388 1.43143 0
M  V30 2388 C 231.812 -1.44723 1.47861 0
M  V30 2389 C 232.227 -1.88563 0.0945886 0
M  V30 2390 O 231.584 -1.59108 -0.893915 0
M  V30 2391 C 231.635 -2.68627 2.41913 0
M  V30 2392 O 231.356 -2.26623 3.74932 0
M  V30 2393 C 232.857 -3.62045 2.55809 0
M  V30 2394 H 230.077 -0.444801 0.502387 0
M  V30 2395 H 232.621 -0.808916 1.87821 0
M  V30 2396 H 230.776 -3.28613 2.05164 0
M  V30 2397 H 231.19 -3.06745 4.2545 0
M  V30 2398 H 232.664 -4.45666 3.25708 0
M  V30 2399 H 233.141 -4.08981 1.60099 0
M  V30 2400 H 233.747 -3.07944 2.93344 0
M  V30 2401 N 232.062 -1.29571 -0.897171 0
M  V30 2402 C 233.311 -1.1706 -1.64256 0
M  V30 2403 C 233.624 0.276476 -1.93636 0
M  V30 2404 O 234.83 0.52294 -2.66416 0
M  V30 2405 C 233.286 -2.0475 -2.95982 0
M  V30 2406 C 232.894 -3.54295 -2.74187 0
M  V30 2407 C 234.638 -2.0097 -3.73914 0
M  V30 2408 C 232.545 -4.34081 -4.01656 0
M  V30 2409 H 231.475 -0.43452 -0.616205 0
M  V30 2410 H 234.126 -1.54229 -0.994268 0
M  V30 2411 H 232.508 -1.60452 -3.62038 0
M  V30 2412 H 233.682 -4.06662 -2.1671 0
M  V30 2413 H 231.997 -3.59773 -2.09648 0
M  V30 2414 H 234.594 -2.57838 -4.68427 0
M  V30 2415 H 234.937 -0.990273 -4.0435 0
M  V30 2416 H 235.47 -2.43325 -3.14703 0
M  V30 2417 H 232.209 -5.36671 -3.76384 0
M  V30 2418 H 231.729 -3.86483 -4.58684 0
M  V30 2419 H 233.408 -4.44877 -4.69781 0
M  V30 2420 N 233.54 1.10788 -1.12088 0
M  V30 2421 C 234.503 2.15207 -0.788577 0
M  V30 2422 C 235.503 1.59609 0.195317 0
M  V30 2423 O 236.693 1.74174 -0.0300193 0
M  V30 2424 C 233.825 3.4047 -0.171174 0
M  V30 2425 H 235.018 2.46116 -1.71368 0
M  V30 2426 H 232.571 1.26089 -0.923652 0
M  V30 2427 H 233.306 3.15176 0.763832 0
M  V30 2428 H 233.091 3.82109 -0.879514 0
M  V30 2429 H 234.581 4.17576 0.04496 0
M  V30 2430 N 235.018 0.912232 1.28515 0
M  V30 2431 C 235.981 0.404223 2.25607 0
M  V30 2432 C 236.981 -0.468602 1.53821 0
M  V30 2433 O 238.171 -0.271873 1.72065 0
M  V30 2434 C 235.303 -0.420653 3.38295 0
M  V30 2435 H 236.496 1.26188 2.7206 0
M  V30 2436 H 234.049 0.691495 1.40171 0
M  V30 2437 H 234.784 -1.29777 2.97201 0
M  V30 2438 H 234.569 0.204935 3.91564 0
M  V30 2439 H 236.059 -0.766971 4.10496 0
M  V30 2440 N 236.496 -1.42363 0.676048 0
M  V30 2441 C 237.773 -1.95183 0.127726 0
M  V30 2442 C 238.153 -1.61641 -1.35777 0
M  V30 2443 O 237.501 -0.913216 -2.09458 0
M  V30 2444 C 237.711 -3.46721 0.398199 0
M  V30 2445 C 239.059 -4.23427 0.315383 0
M  V30 2446 O 240.083 -3.54649 0.332016 0
M  V30 2447 O 238.942 -5.45888 0.25865 0
M  V30 2448 H 236.036 -0.826992 0.00359427 0
M  V30 2449 H 238.582 -1.52184 0.750864 0
M  V30 2450 H 237.354 -3.64344 1.4272 0
M  V30 2451 H 236.977 -3.96769 -0.256885 0
M  V30 2452 N 237.974 -0.419461 -1.51915 0
M  V30 2453 C 238.884 0.407528 -2.31033 0
M  V30 2454 C 239.9 1.04413 -1.3919 0
M  V30 2455 O 241.076 1.0434 -1.72265 0
M  V30 2456 C 238.141 1.50365 -3.12396 0
M  V30 2457 C 237.202 0.889029 -4.19994 0
M  V30 2458 C 236.435 1.93291 -4.97468 0
M  V30 2459 O 236.658 3.15259 -4.75361 0
M  V30 2460 O 235.592 1.53339 -5.8204 0
M  V30 2461 H 239.418 -0.237865 -3.02767 0
M  V30 2462 H 237.003 -0.182413 -1.48282 0
M  V30 2463 H 238.885 2.13975 -3.63032 0
M  V30 2464 H 237.56 2.13345 -2.43445 0
M  V30 2465 H 236.467 0.215353 -3.7348 0
M  V30 2466 H 237.8 0.302991 -4.91267 0
M  V30 2467 N 239.452 1.56882 -0.150215 0
M  V30 2468 C 240.677 2.01027 0.510184 0
M  V30 2469 C 241.102 1.02966 1.57415 0
M  V30 2470 O 240.46 0.00590158 1.81299 0
M  V30 2471 C 240.508 3.43899 1.08472 0
M  V30 2472 O 239.612 3.4885 2.19948 0
M  V30 2473 H 238.953 0.652233 0.124451 0
M  V30 2474 H 241.483 2.03093 -0.247894 0
M  V30 2475 H 241.493 3.82766 1.41259 0
M  V30 2476 H 240.168 4.14776 0.305582 0
M  V30 2477 H 238.745 3.21827 1.88366 0
M  V30 2478 N 240.93 -0.123565 1.57115 0
M  V30 2479 C 242.177 -0.832153 1.84612 0
M  V30 2480 C 242.505 -1.80093 0.734627 0
M  V30 2481 O 241.76 -1.93766 -0.27442 0
M  V30 2482 C 242.059 -1.62016 3.18568 0
M  V30 2483 C 241.725 -0.796084 4.43817 0
M  V30 2484 C 240.387 -0.568816 4.77826 0
M  V30 2485 C 242.739 -0.221364 5.2073 0
M  V30 2486 C 240.067 0.243499 5.86194 0
M  V30 2487 C 242.419 0.578117 6.29953 0
M  V30 2488 C 241.083 0.815744 6.62497 0
M  V30 2489 H 240.353 -0.304507 0.675542 0
M  V30 2490 H 243 -0.0947248 1.91266 0
M  V30 2491 H 241.305 -2.42837 3.0747 0
M  V30 2492 H 243.002 -2.17231 3.37064 0
M  V30 2493 H 239.592 -0.983307 4.17168 0
M  V30 2494 H 243.776 -0.384173 4.94811 0
M  V30 2495 H 239.032 0.436871 6.09837 0
M  V30 2496 H 243.206 1.03046 6.88734 0
M  V30 2497 H 240.833 1.44701 7.46301 0
M  V30 2498 N 242.408 -1.52605 -0.393616 0
M  V30 2499 C 243.819 -1.59417 -0.971761 0
M  V30 2500 C 244.17 -0.444173 -1.91106 0
M  V30 2501 O 243.295 0.433382 -2.12016 0
M  V30 2502 C 243.89 -2.88936 -1.76921 0
M  V30 2503 C 242.449 -2.98175 -2.29714 0
M  V30 2504 C 241.596 -2.54491 -1.10135 0
M  V30 2505 H 244.547 -1.57751 -0.173317 0
M  V30 2506 H 244.568 -2.75163 -2.62804 0
M  V30 2507 H 244.08 -3.72616 -1.08532 0
M  V30 2508 H 242.181 -2.19024 -3.01429 0
M  V30 2509 H 242.294 -4.02726 -2.59517 0
M  V30 2510 H 240.658 -2.08702 -1.45999 0
M  V30 2511 H 241.441 -3.4056 -0.432874 0
M  V30 2512 N 243.887 0.651787 -1.4349 0
M  V30 2513 C 245.112 1.44434 -1.48841 0
M  V30 2514 C 245.537 1.8779 -0.107955 0
M  V30 2515 O 244.895 1.57464 0.898602 0
M  V30 2516 C 244.943 2.65458 -2.44059 0
M  V30 2517 O 244.047 3.64566 -1.92784 0
M  V30 2518 H 243.388 0.433005 -0.503391 0
M  V30 2519 H 245.918 0.797451 -1.88419 0
M  V30 2520 H 245.928 3.13255 -2.6141 0
M  V30 2521 H 244.603 2.33244 -3.4434 0
M  V30 2522 H 243.18 3.23716 -1.851 0
M  V30 2523 N 245.365 1.30045 0.890287 0
M  V30 2524 C 246.59 1.21598 1.68014 0
M  V30 2525 C 247.015 -0.218678 1.86825 0
M  V30 2526 O 246.373 -1.15756 1.39536 0
M  V30 2527 C 246.421 1.94434 3.03691 0
M  V30 2528 O 245.525 1.2678 3.92429 0
M  V30 2529 H 244.866 0.420856 0.513592 0
M  V30 2530 H 247.396 1.71775 1.11151 0
M  V30 2531 H 247.406 2.03251 3.5377 0
M  V30 2532 H 246.081 2.98777 2.89318 0
M  V30 2533 H 244.658 1.26282 3.50866 0
M  V30 2534 N 246.843 -1.10192 1.12674 0
M  V30 2535 C 248.068 -1.86523 0.906853 0
M  V30 2536 C 248.493 -1.80221 -0.538711 0
M  V30 2537 O 247.851 -1.17396 -1.38158 0
M  V30 2538 C 247.899 -3.32758 1.3894 0
M  V30 2539 O 247.003 -4.08449 0.5695 0
M  V30 2540 H 246.344 -0.578678 0.325619 0
M  V30 2541 H 248.874 -1.39203 1.49946 0
M  V30 2542 H 248.884 -3.83608 1.38958 0
M  V30 2543 H 247.559 -3.36661 2.44197 0
M  V30 2544 H 246.136 -3.67427 0.636528 0
M  V30 2545 N 248.321 -0.919034 -1.28029 0
M  V30 2546 C 249.546 -0.570357 -1.99403 0
M  V30 2547 C 249.971 0.842486 -1.68178 0
M  V30 2548 O 249.329 1.56391 -0.917141 0
M  V30 2549 C 249.377 -0.792541 -3.51783 0
M  V30 2550 O 248.481 0.145988 -4.12142 0
M  V30 2551 H 247.822 -0.220555 -0.6263 0
M  V30 2552 H 250.352 -1.23592 -1.63053 0
M  V30 2553 H 250.362 -0.704708 -4.01868 0
M  V30 2554 H 249.037 -1.82247 -3.73844 0
M  V30 2555 H 247.614 0.00897528 -3.72899 0
M  V30 2556 N 249.799 1.42003 -0.683588 0
M  V30 2557 C 251.024 2.06265 -0.216647 0
M  V30 2558 C 251.449 1.51059 1.12083 0
M  V30 2559 O 250.807 0.632638 1.69904 0
M  V30 2560 C 250.855 3.60191 -0.171759 0
M  V30 2561 O 249.959 4.03396 0.857069 0
M  V30 2562 H 249.3 0.65502 -0.108834 0
M  V30 2563 H 251.83 1.81982 -0.935077 0
M  V30 2564 H 251.84 4.08 0.0014303 0
M  V30 2565 H 250.515 3.99743 -1.14796 0
M  V30 2566 H 249.092 3.67117 0.654208 0
M  V30 2567 N 251.277 0.427512 1.51691 0
M  V30 2568 C 252.502 -0.143601 2.06902 0
M  V30 2569 C 252.927 -1.36536 1.29382 0
M  V30 2570 O 252.285 -1.78289 0.329043 0
M  V30 2571 C 252.333 -0.454207 3.57728 0
M  V30 2572 O 251.437 -1.54228 3.82475 0
M  V30 2573 H 250.778 -0.00617128 0.663971 0
M  V30 2574 H 253.308 0.606014 1.95419 0
M  V30 2575 H 253.318 -0.707525 4.01818 0
M  V30 2576 H 251.993 0.438812 4.13579 0
M  V30 2577 H 250.57 -1.2797 3.50254 0
M  V30 2578 N 252.755 -1.56801 0.158532 0
M  V30 2579 C 253.98 -2.01295 -0.499516 0
M  V30 2580 C 254.405 -1.03799 -1.56867 0
M  V30 2581 O 253.763 -0.0155162 -1.81293 0
M  V30 2582 C 253.811 -3.44469 -1.06647 0
M  V30 2583 O 252.915 -3.50012 -2.18095 0
M  V30 2584 H 252.256 -0.652884 -0.12099 0
M  V30 2585 H 254.786 -2.02958 0.258661 0
M  V30 2586 H 254.796 -3.8351 -1.39227 0
M  V30 2587 H 253.471 -4.14932 -0.283581 0
M  V30 2588 H 252.048 -3.22822 -1.86656 0
M  V30 2589 N 254.233 0.115231 -1.57178 0
M  V30 2590 C 255.458 0.840354 -1.89612 0
M  V30 2591 C 255.883 1.72464 -0.750845 0
M  V30 2592 O 255.241 1.78826 0.298478 0
M  V30 2593 C 255.289 1.64654 -3.20814 0
M  V30 2594 O 254.393 2.7538 -3.06985 0
M  V30 2595 H 253.734 0.232158 -0.622092 0
M  V30 2596 H 256.264 0.0964977 -2.04372 0
M  V30 2597 H 256.274 2.03499 -3.53627 0
M  V30 2598 H 254.949 0.997416 -4.03763 0
M  V30 2599 H 253.526 2.3971 -2.85646 0
M  V30 2600 N 255.711 1.52812 0.385517 0
M  V30 2601 C 256.936 1.72207 1.15583 0
M  V30 2602 C 257.361 0.441034 1.82857 0
M  V30 2603 O 256.719 -0.603465 1.70962 0
M  V30 2604 C 256.767 2.87476 2.17692 0
M  V30 2605 O 255.871 2.54693 3.24354 0
M  V30 2606 H 255.212 0.572526 0.336319 0
M  V30 2607 H 257.742 1.99618 0.448744 0
M  V30 2608 H 257.752 3.13072 2.6163 0
M  V30 2609 H 256.427 3.80408 1.68115 0
M  V30 2610 H 255.004 2.3985 2.85529 0
M  V30 2611 N 257.189 -0.644168 1.43834 0
M  V30 2612 C 258.414 -1.43642 1.49605 0
M  V30 2613 C 258.839 -1.8773 0.117913 0
M  V30 2614 O 258.197 -1.57938 -0.890239 0
M  V30 2615 C 258.245 -2.6416 2.45463 0
M  V30 2616 O 257.349 -3.63538 1.94714 0
M  V30 2617 H 256.69 -0.430329 0.50568 0
M  V30 2618 H 259.22 -0.787448 1.8884 0
M  V30 2619 H 259.23 -3.11864 2.63068 0
M  V30 2620 H 257.905 -2.31414 3.45572 0
M  V30 2621 H 256.482 -3.2273 1.86814 0
M  V30 2622 N 258.668 -1.30515 -0.883378 0
M  V30 2623 C 259.893 -1.22487 -1.67367 0
M  V30 2624 C 260.318 0.208767 -1.86938 0
M  V30 2625 O 259.676 1.15015 -1.40148 0
M  V30 2626 C 259.724 -1.96041 -3.02655 0
M  V30 2627 O 258.828 -1.28859 -3.91751 0
M  V30 2628 H 258.169 -0.423573 -0.511353 0
M  V30 2629 H 260.699 -1.72362 -1.10239 0
M  V30 2630 H 260.709 -2.05124 -3.52687 0
M  V30 2631 H 259.384 -3.00307 -2.8773 0
M  V30 2632 H 257.961 -1.28141 -3.50192 0
M  V30 2633 N 260.146 1.09593 -1.13257 0
M  V30 2634 C 261.109 2.14359 -0.811358 0
M  V30 2635 C 262.109 1.59808 0.178377 0
M  V30 2636 O 263.299 1.74132 -0.0484911 0
M  V30 2637 C 260.431 3.40269 -0.207276 0
M  V30 2638 H 261.624 2.44284 -1.73969 0
M  V30 2639 H 259.177 1.25102 -0.936973 0
M  V30 2640 H 259.912 3.15969 0.73036 0
M  V30 2641 H 259.697 3.81154 -0.919992 0
M  V30 2642 H 261.187 4.176 0.000667944 0
M  V30 2643 N 261.624 0.925811 1.2754 0
M  V30 2644 C 262.587 0.428129 2.25166 0
M  V30 2645 C 263.587 -0.452261 1.54309 0
M  V30 2646 O 264.777 -0.253608 1.72344 0
M  V30 2647 C 261.909 -0.384749 3.38722 0
M  V30 2648 H 263.102 1.29066 2.70706 0
M  V30 2649 H 260.655 0.706323 1.3943 0
M  V30 2650 H 261.39 -1.26618 2.98561 0
M  V30 2651 H 261.175 0.246454 3.91325 0
M  V30 2652 H 262.665 -0.723389 4.11287 0
M  V30 2653 N 263.102 -1.41638 0.69111 0
M  V30 2654 C 264.348 -2.02104 0.229258 0
M  V30 2655 C 264.703 -1.53741 -1.15678 0
M  V30 2656 O 263.996 -0.736849 -1.76865 0
M  V30 2657 C 264.19 -3.56714 0.221277 0
M  V30 2658 C 264.019 -4.20083 1.605 0
M  V30 2659 C 262.789 -4.54566 2.20676 0
M  V30 2660 C 264.987 -4.46587 2.55078 0
M  V30 2661 N 262.969 -5.03199 3.5166 0
M  V30 2662 C 264.34 -4.96946 3.70735 0
M  V30 2663 C 266.395 -4.28593 2.53401 0
M  V30 2664 C 265.098 -5.31203 4.8499 0
M  V30 2665 C 267.124 -4.63936 3.66765 0
M  V30 2666 C 266.486 -5.14463 4.81152 0
M  V30 2667 H 262.585 -0.771256 0.12918 0
M  V30 2668 H 265.169 -1.72251 0.907626 0
M  V30 2669 H 263.34 -3.86051 -0.426562 0
M  V30 2670 H 265.072 -4.03896 -0.254983 0
M  V30 2671 H 261.827 -4.4087 1.73005 0
M  V30 2672 H 262.251 -5.31926 4.18789 0
M  V30 2673 H 266.893 -3.88771 1.66184 0
M  V30 2674 H 264.611 -5.69951 5.72871 0
M  V30 2675 H 268.197 -4.51677 3.66714 0
M  V30 2676 H 267.077 -5.41299 5.67419 0
M  V30 2677 N 264.58 -0.43555 -1.51462 0
M  V30 2678 C 265.543 0.365137 -2.26273 0
M  V30 2679 C 266.543 0.951227 -1.29647 0
M  V30 2680 O 267.733 0.825958 -1.53374 0
M  V30 2681 C 264.865 1.51645 -3.05314 0
M  V30 2682 H 266.058 -0.290474 -2.9849 0
M  V30 2683 H 263.611 -0.188676 -1.55157 0
M  V30 2684 H 264.346 2.20816 -2.3751 0
M  V30 2685 H 264.131 1.10238 -3.76284 0
M  V30 2686 H 265.621 2.08218 -3.61987 0
M  V30 2687 N 266.058 1.56714 -0.166846 0
M  V30 2688 C 267.304 1.97039 0.479962 0
M  V30 2689 C 267.637 1.05264 1.63197 0
M  V30 2690 O 266.912 0.0988833 1.94248 0
M  V30 2691 C 267.195 3.46867 0.967212 0
M  V30 2692 C 267.048 4.49421 -0.18466 0
M  V30 2693 C 268.367 3.9968 1.84238 0
M  V30 2694 H 265.486 0.71641 0.172992 0
M  V30 2695 H 268.128 1.8832 -0.252079 0
M  V30 2696 H 266.278 3.54428 1.59101 0
M  V30 2697 H 267.95 4.53924 -0.821621 0
M  V30 2698 H 266.193 4.25573 -0.840837 0
M  V30 2699 H 266.864 5.51644 0.198317 0
M  V30 2700 H 269.34 3.94723 1.31655 0
M  V30 2701 H 268.216 5.04941 2.15234 0
M  V30 2702 H 268.477 3.43226 2.78654 0
M  V30 2703 N 267.536 -0.106894 1.57237 0
M  V30 2704 C 268.784 -0.810921 1.85117 0
M  V30 2705 C 269.105 -1.7984 0.753827 0
M  V30 2706 O 268.375 -1.94649 -0.221056 0
M  V30 2707 H 266.955 -0.302466 0.683025 0
M  V30 2708 H 269.617 -0.0913324 1.94686 0
M  V30 2709 H 268.713 -1.34875 2.81452 0
M  V30 2710 N 269.014 -1.53014 -0.377408 0
M  V30 2711 C 270.425 -1.60438 -0.954798 0
M  V30 2712 C 270.776 -0.464418 -1.90624 0
M  V30 2713 O 269.901 0.41087 -2.12464 0
M  V30 2714 C 270.496 -2.90797 -1.73847 0
M  V30 2715 C 269.055 -3.00595 -2.26538 0
M  V30 2716 C 268.202 -2.55645 -1.07429 0
M  V30 2717 H 271.153 -1.57926 -0.156575 0
M  V30 2718 H 271.174 -2.77935 -2.5987 0
M  V30 2719 H 270.686 -3.73746 -1.04574 0
M  V30 2720 H 268.787 -2.22208 -2.99089 0
M  V30 2721 H 268.9 -4.05456 -2.5523 0
M  V30 2722 H 267.264 -2.10239 -1.43777 0
M  V30 2723 H 268.047 -3.41 -0.396728 0
M  V30 2724 N 270.492 0.636531 -1.44174 0
M  V30 2725 C 271.442 1.74233 -1.47061 0
M  V30 2726 C 272.426 1.57331 -0.337034 0
M  V30 2727 O 273.618 1.67159 -0.581973 0
M  V30 2728 C 270.747 3.12897 -1.41246 0
M  V30 2729 C 269.833 3.35288 -2.59698 0
M  V30 2730 N 270.224 3.2807 -3.84972 0
M  V30 2731 C 268.522 3.66065 -2.54778 0
M  V30 2732 C 269.223 3.51001 -4.63867 0
M  V30 2733 N 268.199 3.73616 -3.94857 0
M  V30 2734 H 272.001 1.67103 -2.41773 0
M  V30 2735 H 269.515 0.838806 -1.3906 0
M  V30 2736 H 271.512 3.92189 -1.41398 0
M  V30 2737 H 270.172 3.21197 -0.47569 0
M  V30 2738 H 271.183 3.07109 -4.17019 0
M  V30 2739 H 267.86 3.81379 -1.6987 0
M  V30 2740 H 269.25 3.51059 -5.72894 0
M  V30 2741 N 271.97 1.30982 0.876444 0
M  V30 2742 C 273.218 1.20058 1.62575 0
M  V30 2743 C 273.539 -0.242947 1.93481 0
M  V30 2744 O 272.809 -1.1619 1.57724 0
M  V30 2745 H 271.389 0.44135 0.602677 0
M  V30 2746 H 274.051 1.64222 1.04962 0
M  V30 2747 H 273.147 1.76762 2.57219 0
M  V30 2748 N 273.449 -1.08991 1.13837 0
M  V30 2749 C 274.412 -2.13925 0.822715 0
M  V30 2750 C 275.412 -1.599 -0.1699 0
M  V30 2751 O 276.602 -1.74104 0.0577251 0
M  V30 2752 C 273.734 -3.40155 0.225318 0
M  V30 2753 H 274.927 -2.43358 1.75262 0
M  V30 2754 H 272.48 -1.24603 0.943594 0
M  V30 2755 H 273.215 -3.16352 -0.713594 0
M  V30 2756 H 273 -3.80661 0.940193 0
M  V30 2757 H 274.49 -4.17594 0.0214784 0
M  V30 2758 N 274.927 -0.932562 -1.27047 0
M  V30 2759 C 276.175 -0.574422 -1.93765 0
M  V30 2760 C 276.496 0.887993 -1.73608 0
M  V30 2761 O 275.766 1.62999 -1.08665 0
M  V30 2762 H 274.346 -0.209451 -0.717035 0
M  V30 2763 H 277.008 -1.18601 -1.5466 0
M  V30 2764 H 276.104 -0.784841 -3.02071 0
M  V30 2765 N 276.405 1.4127 -0.698611 0
M  V30 2766 C 277.337 2.292 0.00399731 0
M  V30 2767 C 278.35 1.44944 0.741279 0
M  V30 2768 O 279.539 1.68416 0.591477 0
M  V30 2769 C 276.639 3.22875 1.02979 0
M  V30 2770 C 275.812 4.35904 0.36151 0
M  V30 2771 C 274.871 5.10134 1.29033 0
M  V30 2772 O 273.897 5.63809 0.781562 0
M  V30 2773 N 275.099 5.17885 2.6225 0
M  V30 2774 H 277.864 2.9014 -0.750921 0
M  V30 2775 H 275.425 1.52455 -0.544882 0
M  V30 2776 H 277.417 3.69404 1.65296 0
M  V30 2777 H 275.987 2.63221 1.68622 0
M  V30 2778 H 275.207 3.91719 -0.441584 0
M  V30 2779 H 276.495 5.08696 -0.103055 0
M  V30 2780 H 275.893 4.7573 3.061 0
M  V30 2781 H 274.45 5.6798 3.19754 0
M  V30 2782 N 277.883 0.443576 1.51229 0
M  V30 2783 C 279.299 0.0962001 1.5931 0
M  V30 2784 C 279.499 -1.39501 1.45402 0
M  V30 2785 O 278.555 -2.16557 1.29843 0
M  V30 2786 C 279.868 0.621875 2.94199 0
M  V30 2787 C 281.416 0.582865 3.07525 0
M  V30 2788 C 281.891 1.08562 4.44948 0
M  V30 2789 N 283.382 1.04387 4.51284 0
M  V30 2790 C 284.117 1.40368 5.55954 0
M  V30 2791 N 283.613 1.83664 6.68011 0
M  V30 2792 N 285.406 1.32145 5.46346 0
M  V30 2793 H 277.557 1.41376 1.58514 0
M  V30 2794 H 279.82 0.582965 0.747567 0
M  V30 2795 H 279.526 1.66546 3.09767 0
M  V30 2796 H 279.4 0.0502125 3.77167 0
M  V30 2797 H 281.787 -0.451749 2.91622 0
M  V30 2798 H 281.868 1.191 2.26382 0
M  V30 2799 H 281.512 2.11873 4.61598 0
M  V30 2800 H 281.442 0.453956 5.2464 0
M  V30 2801 H 283.933 0.725986 3.70861 0
M  V30 2802 H 284.246 2.0934 7.43906 0
M  V30 2803 H 282.591 1.87596 6.69203 0
M  V30 2804 H 285.782 0.981808 4.57688 0
M  V30 2805 H 285.955 1.60514 6.27805 0
M  V30 2806 N 279.361 -1.56624 0.175154 0
M  V30 2807 C 280.324 -2.16934 -0.739738 0
M  V30 2808 C 281.324 -1.11842 -1.15533 0
M  V30 2809 O 282.514 -1.37335 -1.07167 0
M  V30 2810 C 279.646 -2.75531 -2.00738 0
M  V30 2811 H 280.839 -2.99131 -0.214639 0
M  V30 2812 H 278.392 -1.56123 -0.0744197 0
M  V30 2813 H 279.127 -1.97078 -2.57548 0
M  V30 2814 H 278.912 -3.52444 -1.71831 0
M  V30 2815 H 280.402 -3.21904 -2.66021 0
M  V30 2816 N 280.839 0.0985539 -1.57292 0
M  V30 2817 C 282.087 0.801092 -1.85545 0
M  V30 2818 C 282.408 1.79438 -0.763353 0
M  V30 2819 O 281.678 1.94763 0.21073 0
M  V30 2820 H 280.258 0.29884 -0.684619 0
M  V30 2821 H 282.92 0.0810064 -1.94732 0
M  V30 2822 H 282.016 1.3338 -2.82163 0
M  V30 2823 N 282.317 1.53212 0.369288 0
M  V30 2824 C 283.247 1.82365 1.45826 0
M  V30 2825 C 284.228 0.676907 1.56051 0
M  V30 2826 O 285.413 0.926401 1.70679 0
M  V30 2827 C 282.543 2.01023 2.83208 0
M  V30 2828 C 281.497 3.1678 2.8781 0
M  V30 2829 C 280.823 3.20724 4.27832 0
M  V30 2830 C 282.123 4.55447 2.55667 0
M  V30 2831 H 283.817 2.73559 1.21678 0
M  V30 2832 H 281.363 1.3163 0.583911 0
M  V30 2833 H 283.316 2.20001 3.59413 0
M  V30 2834 H 282.04 1.06536 3.08736 0
M  V30 2835 H 280.699 2.97616 2.14056 0
M  V30 2836 H 280.347 2.23882 4.50429 0
M  V30 2837 H 280.047 3.98496 4.31827 0
M  V30 2838 H 281.571 3.41881 5.05915 0
M  V30 2839 H 282.985 4.74611 3.21586 0
M  V30 2840 H 281.382 5.35432 2.70984 0
M  V30 2841 H 282.452 4.60812 1.5093 0
M  V30 2842 N 283.795 -0.628877 1.44509 0
M  V30 2843 C 284.727 -1.754 1.47538 0
M  V30 2844 C 285.74 -1.58575 0.368506 0
M  V30 2845 O 286.929 -1.66847 0.634376 0
M  V30 2846 C 284.029 -3.1315 1.29577 0
M  V30 2847 C 283.202 -3.56413 2.53551 0
M  V30 2848 C 282.261 -4.7305 2.30457 0
M  V30 2849 O 281.287 -4.81247 3.03957 0
M  V30 2850 N 282.489 -5.64903 1.3366 0
M  V30 2851 H 285.254 -1.73272 2.44534 0
M  V30 2852 H 282.815 -0.813512 1.39977 0
M  V30 2853 H 284.807 -3.88902 1.11971 0
M  V30 2854 H 283.377 -3.09908 0.409371 0
M  V30 2855 H 282.597 -2.70847 2.86419 0
M  V30 2856 H 283.885 -3.82071 3.36005 0
M  V30 2857 H 283.283 -5.60975 0.729604 0
M  V30 2858 H 281.84 -6.40275 1.22032 0
M  V30 2859 N 285.273 -1.31445 -0.869486 0
M  V30 2860 C 286.203 -1.21727 -1.99261 0
M  V30 2861 C 287.184 -0.104359 -1.6978 0
M  V30 2862 O 288.369 -0.289038 -1.92037 0
M  V30 2863 C 285.499 -0.924317 -3.34774 0
M  V30 2864 C 284.453 -1.99685 -3.78563 0
M  V30 2865 C 283.779 -1.55658 -5.11541 0
M  V30 2866 C 285.079 -3.41003 -3.95619 0
M  V30 2867 H 286.773 -2.1569 -2.07649 0
M  V30 2868 H 284.319 -1.03839 -0.997675 0
M  V30 2869 H 286.272 -0.842934 -4.12883 0
M  V30 2870 H 284.996 0.0509793 -3.2656 0
M  V30 2871 H 283.655 -2.06813 -3.02694 0
M  V30 2872 H 283.303 -0.569132 -4.9977 0
M  V30 2873 H 283.003 -2.27409 -5.41811 0
M  V30 2874 H 284.527 -1.48928 -5.92159 0
M  V30 2875 H 285.941 -3.36547 -4.64122 0
M  V30 2876 H 284.338 -4.10975 -4.37286 0
M  V30 2877 H 285.408 -3.81754 -2.98985 0
M  V30 2878 N 286.751 1.08385 -1.14413 0
M  V30 2879 C 287.699 2.17406 -0.826888 0
M  V30 2880 C 288.693 1.6827 0.195312 0
M  V30 2881 O 289.899 1.79927 0.0513892 0
M  V30 2882 H 286.274 0.70934 -0.249681 0
M  V30 2883 H 288.245 2.41388 -1.75426 0
M  V30 2884 C 286.994 3.46215 -0.320979 0
M  V30 2885 H 286.317 3.84401 -1.0989 0
M  V30 2886 H 287.757 4.23777 -0.137549 0
M  V30 2887 C 286.216 3.23067 0.955472 0
M  V30 2888 O 286.746 3.4668 2.02918 0
M  V30 2889 N 284.952 2.7661 0.890798 0
M  V30 2890 H 284.499 2.57594 0.0168815 0
M  V30 2891 H 284.457 2.61501 1.74542 0
M  V30 2892 N 288.23 0.939286 1.26551 0
M  V30 2893 C 289.476 0.586715 1.94128 0
M  V30 2894 C 289.809 -0.8717 1.73537 0
M  V30 2895 O 289.084 -1.62339 1.07127 0
M  V30 2896 C 289.367 0.927497 3.4795 0
M  V30 2897 C 289.22 2.44052 3.77834 0
M  V30 2898 C 290.539 0.441569 4.37879 0
M  V30 2899 H 287.658 0.21463 0.705055 0
M  V30 2900 H 290.3 1.17316 1.49455 0
M  V30 2901 H 288.45 0.428431 3.8613 0
M  V30 2902 H 290.122 3.01216 3.4938 0
M  V30 2903 H 288.365 2.8848 3.23978 0
M  V30 2904 H 289.036 2.62947 4.85348 0
M  V30 2905 H 291.512 0.869448 4.06915 0
M  V30 2906 H 290.388 0.708856 5.44304 0
M  V30 2907 H 290.649 -0.658467 4.37169 0
M  V30 2908 N 289.708 -1.40897 0.706093 0
M  V30 2909 C 290.655 -2.30751 0.0474474 0
M  V30 2910 C 291.625 -1.47678 -0.76029 0
M  V30 2911 O 292.81 -1.76441 -0.726177 0
M  V30 2912 C 289.95 -3.33815 -0.875309 0
M  V30 2913 C 289.063 -4.31961 -0.0580623 0
M  V30 2914 C 288.198 -5.22093 -0.979425 0
M  V30 2915 C 287.237 -6.11902 -0.155706 0
M  V30 2916 N 286.374 -6.94482 -1.03144 0
M  V30 2917 H 291.214 -2.86513 0.819413 0
M  V30 2918 H 288.751 -1.41102 0.415783 0
M  V30 2919 H 290.709 -3.92129 -1.42446 0
M  V30 2920 H 289.339 -2.79579 -1.61356 0
M  V30 2921 H 288.391 -3.75507 0.608147 0
M  V30 2922 H 289.703 -4.95415 0.580082 0
M  V30 2923 H 288.857 -5.85292 -1.59744 0
M  V30 2924 H 287.596 -4.5889 -1.65141 0
M  V30 2925 H 286.601 -5.47742 0.475309 0
M  V30 2926 H 287.826 -6.77162 0.512635 0
M  V30 2927 H 285.772 -6.33877 -1.68924 0
M  V30 2928 H 285.689 -7.54665 -0.449108 0
M  V30 2929 H 286.957 -7.6214 -1.63593 0
M  V30 2930 N 291.186 -0.45159 -1.50991 0
M  V30 2931 C 292.096 0.358431 -2.31846 0
M  V30 2932 C 293.112 1.01438 -1.41373 0
M  V30 2933 O 294.288 1.00663 -1.74439 0
M  V30 2934 C 291.353 1.43704 -3.15515 0
M  V30 2935 C 290.414 0.799742 -4.21785 0
M  V30 2936 C 289.647 1.82696 -5.01456 0
M  V30 2937 O 289.87 3.05105 -4.81941 0
M  V30 2938 O 288.804 1.40958 -5.85162 0
M  V30 2939 H 292.63 -0.302032 -3.02194 0
M  V30 2940 H 290.215 -0.213825 -1.47862 0
M  V30 2941 H 292.097 2.06227 -3.67489 0
M  V30 2942 H 290.772 2.08133 -2.47916 0
M  V30 2943 H 289.679 0.136084 -3.73852 0
M  V30 2944 H 291.012 0.198718 -4.91799 0
M  V30 2945 N 292.664 1.56529 -0.183458 0
M  V30 2946 C 294.08 1.58664 0.172554 0
M  V30 2947 C 294.28 1.19925 1.61926 0
M  V30 2948 O 293.336 0.916534 2.35278 0
M  V30 2949 C 294.649 3.00463 -0.119262 0
M  V30 2950 C 296.197 3.12945 -0.0584396 0
M  V30 2951 C 296.672 4.56857 -0.323408 0
M  V30 2952 N 298.163 4.62403 -0.271612 0
M  V30 2953 C 298.898 5.71626 -0.450639 0
M  V30 2954 N 298.394 6.89362 -0.689384 0
M  V30 2955 N 300.187 5.60775 -0.385701 0
M  V30 2956 H 292.338 1.79994 -1.12765 0
M  V30 2957 H 294.601 0.834808 -0.449222 0
M  V30 2958 H 294.307 3.33326 -1.12192 0
M  V30 2959 H 294.181 3.72659 0.583544 0
M  V30 2960 H 296.568 2.79902 0.934805 0
M  V30 2961 H 296.649 2.4316 -0.794144 0
M  V30 2962 H 296.293 4.9061 -1.31392 0
M  V30 2963 H 296.223 5.24816 0.43305 0
M  V30 2964 H 298.714 3.77785 -0.0932256 0
M  V30 2965 H 299.027 7.68489 -0.815113 0
M  V30 2966 H 297.372 6.91196 -0.726142 0
M  V30 2967 H 300.563 4.67674 -0.199687 0
M  V30 2968 H 300.736 6.4584 -0.528646 0
M  V30 2969 N 294.142 -0.090211 1.57342 0
M  V30 2970 C 295.367 -0.810082 1.90925 0
M  V30 2971 C 295.792 -1.71248 0.778187 0
M  V30 2972 O 295.15 -1.79278 -0.269991 0
M  V30 2973 C 295.198 -1.59529 3.23393 0
M  V30 2974 O 294.302 -2.70461 3.11327 0
M  V30 2975 H 293.643 -0.222231 0.625707 0
M  V30 2976 H 296.173 -0.0639716 2.045 0
M  V30 2977 H 296.183 -1.97847 3.5682 0
M  V30 2978 H 294.858 -0.933055 4.05299 0
M  V30 2979 H 293.435 -2.35135 2.89423 0
M  V30 2980 N 295.62 -1.53406 -0.361157 0
M  V30 2981 C 296.867 -1.69802 -1.10333 0
M  V30 2982 C 297.195 -0.452087 -1.89173 0
M  V30 2983 O 296.45 0.566017 -1.87336 0
M  V30 2984 C 296.749 -2.90211 -2.08596 0
M  V30 2985 C 296.415 -4.26539 -1.46203 0
M  V30 2986 C 295.077 -4.6361 -1.28915 0
M  V30 2987 C 297.429 -5.113 -1.01101 0
M  V30 2988 C 294.757 -5.83075 -0.651157 0
M  V30 2989 C 297.109 -6.31415 -0.387007 0
M  V30 2990 C 295.773 -6.67195 -0.201657 0
M  V30 2991 H 295.043 -0.621351 -0.403737 0
M  V30 2992 H 297.69 -1.87598 -0.384609 0
M  V30 2993 H 295.995 -2.66946 -2.86788 0
M  V30 2994 H 297.692 -3.00091 -2.65982 0
M  V30 2995 H 294.282 -3.97352 -1.60653 0
M  V30 2996 H 298.466 -4.83206 -1.13249 0
M  V30 2997 H 293.722 -6.09385 -0.496006 0
M  V30 2998 H 297.896 -6.96394 -0.0293563 0
M  V30 2999 H 295.523 -7.59628 0.294766 0
M  V30 3000 N 297.098 0.621204 -1.44841 0
M  V30 3001 C 298.346 1.37783 -1.47852 0
M  V30 3002 C 298.667 1.94653 -0.116224 0
M  V30 3003 O 297.937 1.76367 0.852737 0
M  V30 3004 H 296.517 0.511453 -0.544449 0
M  V30 3005 H 299.179 0.730446 -1.80694 0
M  V30 3006 H 298.275 2.20414 -2.20961 0
M  V30 3007 N 298.576 1.31904 0.862503 0
M  V30 3008 C 299.987 1.19803 1.43193 0
M  V30 3009 C 300.338 -0.192567 1.95253 0
M  V30 3010 O 299.463 -1.09081 1.86896 0
M  V30 3011 C 300.058 2.16883 2.60283 0
M  V30 3012 C 298.617 2.08692 3.13248 0
M  V30 3013 C 297.764 2.05691 1.85975 0
M  V30 3014 H 300.715 1.43846 0.670365 0
M  V30 3015 H 300.736 1.76278 3.37204 0
M  V30 3016 H 300.248 3.18083 2.22363 0
M  V30 3017 H 298.349 1.10713 3.55771 0
M  V30 3018 H 298.462 2.9815 3.75025 0
M  V30 3019 H 296.826 1.50814 2.05249 0
M  V30 3020 H 297.609 3.08659 1.50282 0
M  V30 3021 N 300.054 -1.07777 1.14986 0
M  V30 3022 C 300.984 -2.16865 0.865557 0
M  V30 3023 C 301.965 -1.69123 -0.182083 0
M  V30 3024 O 303.15 -1.94164 -0.0373815 0
M  V30 3025 C 300.28 -3.45539 0.349313 0
M  V30 3026 C 299.234 -4.06708 1.33313 0
M  V30 3027 C 298.56 -5.30411 0.675918 0
M  V30 3028 C 299.86 -4.47241 2.69764 0
M  V30 3029 H 301.554 -2.40905 1.77778 0
M  V30 3030 H 299.1 -1.15781 0.856203 0
M  V30 3031 H 301.053 -4.21174 0.137983 0
M  V30 3032 H 299.777 -3.21072 -0.598362 0
M  V30 3033 H 298.436 -3.33112 1.53075 0
M  V30 3034 H 298.084 -5.02232 -0.277767 0
M  V30 3035 H 297.784 -5.72293 1.33244 0
M  V30 3036 H 299.308 -6.08755 0.474262 0
M  V30 3037 H 300.722 -5.14025 2.53873 0
M  V30 3038 H 299.119 -5.00062 3.3175 0
M  V30 3039 H 300.189 -3.58818 3.26156 0
M  V30 3040 N 301.532 -0.945985 -1.26051 0
M  V30 3041 C 302.76 -0.613025 -1.9761 0
M  V30 3042 C 303.175 0.813035 -1.70397 0
M  V30 3043 O 302.532 1.54274 -0.974979 0
M  V30 3044 C 302.583 -0.85159 -3.51326 0
M  V30 3045 O 302.304 -2.22157 -3.77595 0
M  V30 3046 C 303.805 -0.529831 -4.40122 0
M  V30 3047 H 301.025 -0.230593 -0.630133 0
M  V30 3048 H 303.569 -1.268 -1.60443 0
M  V30 3049 H 301.724 -0.243151 -3.86636 0
M  V30 3050 H 302.138 -2.2852 -4.721 0
M  V30 3051 H 303.612 -0.747348 -5.46917 0
M  V30 3052 H 304.089 0.535341 -4.35925 0
M  V30 3053 H 304.695 -1.11721 -4.10364 0
M  V30 3054 N 303.011 1.40521 -0.713556 0
M  V30 3055 C 303.943 2.29191 -0.0203126 0
M  V30 3056 C 304.956 1.45723 0.725864 0
M  V30 3057 O 306.145 1.69033 0.573581 0
M  V30 3058 C 303.245 3.2395 0.995486 0
M  V30 3059 C 302.418 4.36262 0.315256 0
M  V30 3060 C 301.477 5.11474 1.23616 0
M  V30 3061 O 300.503 5.64606 0.721719 0
M  V30 3062 N 301.705 5.20638 2.56743 0
M  V30 3063 H 304.47 2.89327 -0.781652 0
M  V30 3064 H 302.031 1.51869 -0.561022 0
M  V30 3065 H 304.023 3.71137 1.61368 0
M  V30 3066 H 302.593 2.64995 1.6582 0
M  V30 3067 H 301.813 3.91228 -0.483106 0
M  V30 3068 H 303.101 5.08558 -0.157004 0
M  V30 3069 H 302.499 4.7895 3.01037 0
M  V30 3070 H 301.056 5.71339 3.13712 0
M  V30 3071 N 304.489 0.459591 1.5075 0
M  V30 3072 C 305.905 0.113092 1.59199 0
M  V30 3073 C 306.105 -1.37951 1.46874 0
M  V30 3074 O 305.161 -2.15168 1.32132 0
M  V30 3075 C 306.474 0.653043 2.93523 0
M  V30 3076 C 308.022 0.615449 3.0689 0
M  V30 3077 C 308.497 1.13275 4.43771 0
M  V30 3078 N 309.988 1.09167 4.50152 0
M  V30 3079 C 310.723 1.46256 5.54434 0
M  V30 3080 N 310.219 1.90739 6.66026 0
M  V30 3081 N 312.012 1.37932 5.44914 0
M  V30 3082 H 304.163 1.43049 1.57005 0
M  V30 3083 H 306.426 0.590861 0.741341 0
M  V30 3084 H 306.132 1.69822 3.07983 0
M  V30 3085 H 306.006 0.0902132 3.77092 0
M  V30 3086 H 308.393 -0.420793 2.92084 0
M  V30 3087 H 308.474 1.21495 2.25106 0
M  V30 3088 H 308.118 2.16757 4.59324 0
M  V30 3089 H 308.048 0.509576 5.24129 0
M  V30 3090 H 310.539 0.76528 3.7007 0
M  V30 3091 H 310.852 2.17218 7.41644 0
M  V30 3092 H 309.197 1.94683 6.67176 0
M  V30 3093 H 312.388 1.0303 4.56621 0
M  V30 3094 H 312.561 1.67164 6.26067 0
M  V30 3095 N 305.967 -1.56429 0.191757 0
M  V30 3096 C 307.215 -1.97095 -0.447006 0
M  V30 3097 C 307.536 -1.07967 -1.62383 0
M  V30 3098 O 306.806 -0.150248 -1.95323 0
M  V30 3099 H 305.386 -0.727832 -0.168135 0
M  V30 3100 H 308.048 -1.92911 0.27771 0
M  V30 3101 H 307.144 -3.01848 -0.793371 0
M  V30 3102 N 307.445 0.0818655 -1.57387 0
M  V30 3103 C 308.692 0.782914 -1.86753 0
M  V30 3104 C 309.02 1.78082 -0.782118 0
M  V30 3105 O 308.275 1.94426 0.22295 0
M  V30 3106 C 308.574 1.53513 -3.22752 0
M  V30 3107 C 308.24 0.678134 -4.45771 0
M  V30 3108 C 306.902 0.441929 -4.79166 0
M  V30 3109 C 309.254 0.0832243 -5.21134 0
M  V30 3110 C 306.582 -0.398833 -5.85343 0
M  V30 3111 C 308.934 -0.744935 -6.28199 0
M  V30 3112 C 307.598 -0.991107 -6.60101 0
M  V30 3113 H 306.868 0.286489 -0.683378 0
M  V30 3114 H 309.515 0.0439808 -1.91449 0
M  V30 3115 H 307.82 2.34599 -3.138 0
M  V30 3116 H 309.517 2.08218 -3.42705 0
M  V30 3117 H 306.107 0.872357 -4.19628 0
M  V30 3118 H 310.291 0.252847 -4.95655 0
M  V30 3119 H 305.547 -0.598405 -6.08465 0
M  V30 3120 H 309.721 -1.21271 -6.8576 0
M  V30 3121 H 307.348 -1.64437 -7.42202 0
M  V30 3122 N 308.923 1.53595 0.353017 0
M  V30 3123 C 310.153 1.74058 1.11299 0
M  V30 3124 C 310.561 0.475205 1.83135 0
M  V30 3125 O 309.904 -0.562344 1.74881 0
M  V30 3126 C 309.966 2.85994 2.17825 0
M  V30 3127 C 309.63 4.25923 1.65647 0
M  V30 3128 C 310.627 5.07829 1.11383 0
M  V30 3129 C 308.312 4.72377 1.7078 0
M  V30 3130 C 310.306 6.34285 0.629439 0
M  V30 3131 C 307.993 5.98808 1.21953 0
M  V30 3132 C 308.991 6.79594 0.681265 0
M  V30 3133 O 308.679 8.03651 0.200248 0
M  V30 3134 H 308.411 0.585327 0.338183 0
M  V30 3135 H 310.965 2.01186 0.413927 0
M  V30 3136 H 309.195 2.54368 2.91262 0
M  V30 3137 H 310.884 2.94515 2.79313 0
M  V30 3138 H 311.65 4.73107 1.06746 0
M  V30 3139 H 307.529 4.0956 2.11617 0
M  V30 3140 H 311.073 6.97288 0.208636 0
M  V30 3141 H 306.97 6.33026 1.26287 0
M  V30 3142 H 307.738 8.1788 0.318416 0
M  V30 3143 N 310.401 -0.613514 1.45168 0
M  V30 3144 C 311.647 -1.37471 1.49096 0
M  V30 3145 C 311.98 -1.93765 0.129901 0
M  V30 3146 O 311.255 -1.74707 -0.854858 0
M  V30 3147 C 311.538 -2.52701 2.56542 0
M  V30 3148 C 311.391 -2.01643 4.0207 0
M  V30 3149 C 312.71 -3.54849 2.60327 0
M  V30 3150 H 309.829 -0.498502 0.54283 0
M  V30 3151 H 312.471 -0.692125 1.76945 0
M  V30 3152 H 310.621 -3.10931 2.32926 0
M  V30 3153 H 312.293 -1.48108 4.36877 0
M  V30 3154 H 310.536 -1.32688 4.13009 0
M  V30 3155 H 311.207 -2.84681 4.72928 0
M  V30 3156 H 313.683 -3.0645 2.81474 0
M  V30 3157 H 312.559 -4.32973 3.37381 0
M  V30 3158 H 312.82 -4.10079 1.6519 0
M  V30 3159 N 311.879 -1.3236 -0.855495 0
M  V30 3160 C 312.842 -1.21164 -1.94556 0
M  V30 3161 C 313.842 -0.134908 -1.60233 0
M  V30 3162 O 315.032 -0.385249 -1.69887 0
M  V30 3163 C 312.164 -0.863192 -3.29791 0
M  V30 3164 H 313.357 -2.18038 -2.05911 0
M  V30 3165 H 310.91 -1.16179 -1.04557 0
M  V30 3166 H 311.645 0.103769 -3.24134 0
M  V30 3167 H 311.43 -1.64166 -3.56078 0
M  V30 3168 H 312.92 -0.809156 -4.09686 0
M  V30 3169 N 313.357 1.07166 -1.15556 0
M  V30 3170 C 314.604 1.79798 -0.931604 0
M  V30 3171 C 314.932 1.8682 0.54115 0
M  V30 3172 O 314.187 1.34942 1.41736 0
M  V30 3173 C 314.486 3.24707 -1.49332 0
M  V30 3174 C 314.152 3.37781 -2.98688 0
M  V30 3175 C 312.814 3.41057 -3.39461 0
M  V30 3176 C 315.166 3.40424 -3.94665 0
M  V30 3177 C 312.494 3.4458 -4.74849 0
M  V30 3178 C 314.846 3.45485 -5.29927 0
M  V30 3179 C 313.51 3.47039 -5.70193 0
M  V30 3180 H 312.78 0.657928 -0.340898 0
M  V30 3181 H 315.427 1.26091 -1.44129 0
M  V30 3182 H 313.732 3.81208 -0.904859 0
M  V30 3183 H 315.429 3.79486 -1.29582 0
M  V30 3184 H 312.019 3.35932 -2.66172 0
M  V30 3185 H 316.203 3.37113 -3.64237 0
M  V30 3186 H 311.459 3.44083 -5.05388 0
M  V30 3187 H 315.633 3.46476 -6.04092 0
M  V30 3188 H 313.26 3.49522 -6.75084 0
M  V30 3189 N 314.835 0.952656 1.25548 0
M  V30 3190 C 315.767 0.428609 2.25157 0
M  V30 3191 C 316.78 -0.454428 1.56329 0
M  V30 3192 O 317.969 -0.263023 1.76552 0
M  V30 3193 C 315.069 -0.401972 3.36508 0
M  V30 3194 C 314.242 0.467601 4.34893 0
M  V30 3195 C 313.301 -0.30445 5.25319 0
M  V30 3196 O 312.327 0.296473 5.68427 0
M  V30 3197 N 313.529 -1.59805 5.5807 0
M  V30 3198 H 316.294 1.28497 2.70756 0
M  V30 3199 H 313.855 0.822798 1.39433 0
M  V30 3200 H 315.847 -0.926134 3.9396 0
M  V30 3201 H 314.417 -1.15918 2.90313 0
M  V30 3202 H 313.637 1.17288 3.76347 0
M  V30 3203 H 314.925 1.06119 4.97611 0
M  V30 3204 H 314.323 -2.10823 5.24948 0
M  V30 3205 H 312.88 -2.06822 6.18116 0
M  V30 3206 N 316.313 -1.40141 0.720998 0
M  V30 3207 C 317.59 -1.94677 0.189757 0
M  V30 3208 C 317.97 -1.65879 -1.30566 0
M  V30 3209 O 317.318 -0.979391 -2.06447 0
M  V30 3210 C 317.528 -3.45279 0.508304 0
M  V30 3211 C 318.876 -4.22209 0.449934 0
M  V30 3212 O 319.9 -3.53413 0.444677 0
M  V30 3213 O 318.759 -5.44788 0.432189 0
M  V30 3214 H 315.853 -0.826459 0.0299026 0
M  V30 3215 H 318.399 -1.49719 0.7989 0
M  V30 3216 H 317.171 -3.59619 1.54239 0
M  V30 3217 H 316.794 -3.97386 -0.130525 0
M  V30 3218 N 317.792 -0.46758 -1.50504 0
M  V30 3219 C 319.02 0.0864133 -2.06719 0
M  V30 3220 C 319.435 1.33819 -1.33184 0
M  V30 3221 O 318.792 1.78061 -0.400083 0
M  V30 3222 C 318.843 0.378079 -3.59517 0
M  V30 3223 O 318.564 -0.824044 -4.3028 0
M  V30 3224 C 320.065 0.979426 -4.32345 0
M  V30 3225 H 317.285 -0.00551697 -0.670977 0
M  V30 3226 H 319.829 -0.655354 -1.93715 0
M  V30 3227 H 317.984 1.06977 -3.72337 0
M  V30 3228 H 318.398 -0.566518 -5.21432 0
M  V30 3229 H 319.872 1.1333 -5.40241 0
M  V30 3230 H 320.349 1.9686 -3.9261 0
M  V30 3231 H 320.955 0.326216 -4.24047 0
M  V30 3232 N 319.27 1.56325 -0.20005 0
M  V30 3233 C 320.518 1.97329 0.436547 0
M  V30 3234 C 320.839 1.08826 1.61808 0
M  V30 3235 O 320.109 0.160604 1.95241 0
M  V30 3236 H 318.689 0.728714 0.164272 0
M  V30 3237 H 321.351 1.92761 -0.287937 0
M  V30 3238 H 320.447 3.02264 0.777353 0
M  V30 3239 N 320.748 -0.0735177 1.57428 0
M  V30 3240 C 321.711 -1.07192 2.02589 0
M  V30 3241 C 322.711 -1.31695 0.922661 0
M  V30 3242 O 323.901 -1.27445 1.18758 0
M  V30 3243 C 321.033 -2.41599 2.40506 0
M  V30 3244 H 322.226 -0.682727 2.92025 0
M  V30 3245 H 319.779 -0.319193 1.53006 0
M  V30 3246 H 320.514 -2.85354 1.5409 0
M  V30 3247 H 320.299 -2.25156 3.21009 0
M  V30 3248 H 321.789 -3.13367 2.76027 0
M  V30 3249 N 322.226 -1.5378 -0.344866 0
M  V30 3250 C 323.466 -1.72677 -1.09371 0
M  V30 3251 C 323.83 -0.479084 -1.85927 0
M  V30 3252 O 325.031 -0.54505 -2.63216 0
M  V30 3253 C 323.302 -2.95457 -2.01097 0
M  V30 3254 S 324.861 -3.35158 -2.83222 0
M  V30 3255 H 321.679 -0.607402 -0.369573 0
M  V30 3256 H 324.281 -1.91922 -0.372307 0
M  V30 3257 H 322.985 -3.84437 -1.43655 0
M  V30 3258 H 322.516 -2.78673 -2.77678 0
M  V30 3259 H 324.531 -2.88789 -4.03504 0
M  V30 3260 N 323.704 0.605807 -1.45491 0
M  V30 3261 C 324.634 1.72709 -1.57143 0
M  V30 3262 C 325.615 1.6476 -0.422884 0
M  V30 3263 O 326.8 1.83132 -0.646247 0
M  V30 3264 C 323.93 3.11316 -1.53948 0
M  V30 3265 C 322.884 3.34077 -2.67537 0
M  V30 3266 C 322.21 4.72975 -2.49397 0
M  V30 3267 C 323.51 3.24158 -4.09535 0
M  V30 3268 H 325.204 1.63214 -2.51001 0
M  V30 3269 H 322.75 0.78379 -1.208 0
M  V30 3270 H 324.703 3.89557 -1.60696 0
M  V30 3271 H 323.427 3.21655 -0.566205 0
M  V30 3272 H 322.086 2.58227 -2.6022 0
M  V30 3273 H 321.734 4.8005 -1.50205 0
M  V30 3274 H 321.434 4.8916 -3.25571 0
M  V30 3275 H 322.958 5.53414 -2.58002 0
M  V30 3276 H 324.372 3.92271 -4.18086 0
M  V30 3277 H 322.769 3.51872 -4.86113 0
M  V30 3278 H 323.839 2.2157 -4.31317 0
M  V30 3279 N 325.182 1.32811 0.848464 0
M  V30 3280 C 326.145 1.22194 1.9391 0
M  V30 3281 C 327.145 0.143404 1.60159 0
M  V30 3282 O 328.335 0.394253 1.6968 0
M  V30 3283 C 325.467 0.88067 3.29328 0
M  V30 3284 H 326.66 2.19127 2.04752 0
M  V30 3285 H 324.213 1.16731 1.0394 0
M  V30 3286 H 324.948 -0.0865776 3.24184 0
M  V30 3287 H 324.733 1.66052 3.55203 0
M  V30 3288 H 326.223 0.830871 4.09251 0
M  V30 3289 N 326.66 -1.06551 1.16123 0
M  V30 3290 C 327.59 -2.15935 0.88851 0
M  V30 3291 C 328.571 -1.69306 -0.164135 0
M  V30 3292 O 329.756 -1.94193 -0.0167857 0
M  V30 3293 C 326.886 -3.45149 0.385942 0
M  V30 3294 C 325.84 -4.05271 1.3762 0
M  V30 3295 C 325.166 -5.29664 0.732137 0
M  V30 3296 C 326.466 -4.44355 2.74493 0
M  V30 3297 H 328.16 -2.39006 1.80323 0
M  V30 3298 H 325.706 -1.14866 0.868435 0
M  V30 3299 H 327.659 -4.21004 0.182647 0
M  V30 3300 H 326.383 -3.21689 -0.564274 0
M  V30 3301 H 325.042 -3.3147 1.56599 0
M  V30 3302 H 324.69 -5.02499 -0.224483 0
M  V30 3303 H 324.39 -5.70848 1.39307 0
M  V30 3304 H 325.914 -6.08218 0.538802 0
M  V30 3305 H 327.328 -5.11303 2.59311 0
M  V30 3306 H 325.725 -4.96515 3.37035 0
M  V30 3307 H 326.795 -3.55339 3.29943 0
M  V30 3308 N 328.138 -0.959301 -1.25041 0
M  V30 3309 C 329.384 -0.617525 -1.9317 0
M  V30 3310 C 329.717 0.843981 -1.74902 0
M  V30 3311 O 328.992 1.60615 -1.09696 0
M  V30 3312 C 329.275 -0.982736 -3.46431 0
M  V30 3313 C 329.128 -2.50032 -3.73904 0
M  V30 3314 C 330.447 -0.511176 -4.37121 0
M  V30 3315 H 327.566 -0.22582 -0.701552 0
M  V30 3316 H 330.208 -1.19679 -1.4757 0
M  V30 3317 H 328.358 -0.489806 -3.854 0
M  V30 3318 H 330.03 -3.06737 -3.44544 0
M  V30 3319 H 328.273 -2.93598 -3.19348 0
M  V30 3320 H 328.944 -2.70635 -4.81103 0
M  V30 3321 H 331.42 -0.934075 -4.0548 0
M  V30 3322 H 330.296 -0.795361 -5.43107 0
M  V30 3323 H 330.557 0.588834 -4.38161 0
M  V30 3324 N 329.616 1.39756 -0.72842 0
M  V30 3325 C 330.579 2.29012 -0.0927297 0
M  V30 3326 C 331.579 1.45992 0.674025 0
M  V30 3327 O 332.769 1.66749 0.50402 0
M  V30 3328 C 329.901 3.29396 0.878137 0
M  V30 3329 H 331.094 2.86729 -0.879011 0
M  V30 3330 H 328.647 1.48293 -0.493847 0
M  V30 3331 H 329.382 2.76722 1.69101 0
M  V30 3332 H 329.167 3.907 0.331051 0
M  V30 3333 H 330.657 3.96199 1.3197 0
M  V30 3334 N 331.094 0.475555 1.50254 0
M  V30 3335 C 332.34 -0.0780073 2.0265 0
M  V30 3336 C 332.673 -1.38968 1.35652 0
M  V30 3337 O 331.948 -1.8839 0.483691 0
M  V30 3338 C 332.231 -0.257161 3.59181 0
M  V30 3339 C 332.084 1.07585 4.36744 0
M  V30 3340 C 333.403 -1.00965 4.28362 0
M  V30 3341 H 330.522 -0.0268758 0.73651 0
M  V30 3342 H 333.164 0.622015 1.7953 0
M  V30 3343 H 331.314 -0.853412 3.79011 0
M  V30 3344 H 332.986 1.70902 4.28474 0
M  V30 3345 H 331.229 1.6714 4.00308 0
M  V30 3346 H 331.9 0.904088 5.44546 0
M  V30 3347 H 334.376 -0.504214 4.13034 0
M  V30 3348 H 333.252 -1.10381 5.37687 0
M  V30 3349 H 333.513 -2.04731 3.91839 0
M  V30 3350 N 332.573 -1.56217 0.208337 0
M  V30 3351 C 333.989 -1.58919 -0.14729 0
M  V30 3352 C 334.189 -1.22486 -1.59998 0
M  V30 3353 O 333.245 -0.953849 -2.3379 0
M  V30 3354 C 334.558 -3.00236 0.167048 0
M  V30 3355 C 336.106 -3.12813 0.108219 0
M  V30 3356 C 336.581 -4.56284 0.396049 0
M  V30 3357 N 338.072 -4.61912 0.345142 0
M  V30 3358 C 338.807 -5.70837 0.541523 0
M  V30 3359 N 338.303 -6.88178 0.798968 0
M  V30 3360 N 340.096 -5.60091 0.474867 0
M  V30 3361 H 332.247 -1.78177 1.15614 0
M  V30 3362 H 334.51 -0.827555 0.462446 0
M  V30 3363 H 334.216 -3.31499 1.1748 0
M  V30 3364 H 334.09 -3.7354 -0.524184 0
M  V30 3365 H 336.477 -2.81354 -0.890157 0
M  V30 3366 H 336.558 -2.41866 0.832729 0
M  V30 3367 H 336.202 -4.88458 1.3918 0
M  V30 3368 H 336.132 -5.25439 -0.349502 0
M  V30 3369 H 338.623 -3.77589 0.153316 0
M  V30 3370 H 338.936 -7.67095 0.93727 0
M  V30 3371 H 337.281 -6.89953 0.836013 0
M  V30 3372 H 340.472 -4.67297 0.274064 0
M  V30 3373 H 340.645 -6.44917 0.631326 0
M  V30 3374 N 334.051 0.0651679 -1.57465 0
M  V30 3375 C 334.981 1.07693 -2.07182 0
M  V30 3376 C 335.962 1.39962 -0.966673 0
M  V30 3377 O 337.147 1.49475 -1.2398 0
M  V30 3378 C 334.277 2.3885 -2.52127 0
M  V30 3379 C 333.231 2.20917 -3.66579 0
M  V30 3380 C 332.557 3.57515 -3.97601 0
M  V30 3381 C 333.857 1.62493 -4.9638 0
M  V30 3382 H 335.551 0.663199 -2.91962 0
M  V30 3383 H 333.097 0.317569 -1.40455 0
M  V30 3384 H 335.05 3.09928 -2.85522 0
M  V30 3385 H 333.774 2.82215 -1.64384 0
M  V30 3386 H 332.433 1.52279 -3.33477 0
M  V30 3387 H 332.081 3.98463 -3.06979 0
M  V30 3388 H 331.781 3.46353 -4.74672 0
M  V30 3389 H 333.305 4.30013 -4.33499 0
M  V30 3390 H 334.719 2.23445 -5.27963 0
M  V30 3391 H 333.116 1.62009 -5.77818 0
M  V30 3392 H 334.186 0.587041 -4.81333 0
M  V30 3393 N 335.529 1.53961 0.336706 0
M  V30 3394 C 336.776 1.71536 1.07618 0
M  V30 3395 C 337.104 0.482125 1.8843 0
M  V30 3396 O 336.359 -0.536142 1.88213 0
M  V30 3397 C 336.658 2.93493 2.03953 0
M  V30 3398 C 336.324 4.28811 1.39399 0
M  V30 3399 C 334.986 4.65602 1.21523 0
M  V30 3400 C 337.338 5.12844 0.929541 0
M  V30 3401 C 334.666 5.84037 0.558312 0
M  V30 3402 C 337.018 6.31951 0.286505 0
M  V30 3403 C 335.682 6.67432 0.0954869 0
M  V30 3404 H 334.952 0.627696 0.393801 0
M  V30 3405 H 337.599 1.88186 0.354715 0
M  V30 3406 H 335.904 2.71475 2.82504 0
M  V30 3407 H 337.601 3.04285 2.61174 0
M  V30 3408 H 334.191 3.99858 1.54311 0
M  V30 3409 H 338.375 4.84947 1.05548 0
M  V30 3410 H 333.631 6.10097 0.398995 0
M  V30 3411 H 337.805 6.96352 -0.0814376 0
M  V30 3412 H 335.432 7.59063 -0.415579 0
M  V30 3413 N 337.007 -0.598083 1.45811 0
M  V30 3414 C 338.232 -1.3881 1.54099 0
M  V30 3415 C 338.657 -1.8726 0.177578 0
M  V30 3416 O 338.015 -1.6069 -0.839541 0
M  V30 3417 C 338.063 -2.56217 2.53743 0
M  V30 3418 O 337.167 -3.5716 2.06182 0
M  V30 3419 H 336.508 -0.414024 0.519115 0
M  V30 3420 H 339.038 -0.726971 1.91249 0
M  V30 3421 H 339.048 -3.03337 2.72856 0
M  V30 3422 H 337.723 -2.20303 3.5276 0
M  V30 3423 H 336.3 -3.16624 1.96987 0
M  V30 3424 N 338.485 -1.33259 -0.841409 0
M  V30 3425 C 339.715 -1.2742 -1.62628 0
M  V30 3426 C 340.123 0.157604 -1.88542 0
M  V30 3427 O 339.466 1.10938 -1.46419 0
M  V30 3428 C 339.528 -1.97797 -3.00194 0
M  V30 3429 C 339.192 -3.47109 -2.97261 0
M  V30 3430 C 340.189 -4.42358 -2.73159 0
M  V30 3431 C 337.874 -3.89247 -3.17478 0
M  V30 3432 C 339.868 -5.77718 -2.69296 0
M  V30 3433 C 337.555 -5.24713 -3.13241 0
M  V30 3434 C 338.553 -6.1876 -2.89181 0
M  V30 3435 O 338.241 -7.51745 -2.84843 0
M  V30 3436 H 337.973 -0.440436 -0.512827 0
M  V30 3437 H 340.527 -1.76153 -1.05638 0
M  V30 3438 H 338.757 -1.43652 -3.59028 0
M  V30 3439 H 340.446 -1.8549 -3.61038 0
M  V30 3440 H 341.212 -4.11127 -2.57294 0
M  V30 3441 H 337.091 -3.16456 -3.35226 0
M  V30 3442 H 340.635 -6.51097 -2.50436 0
M  V30 3443 H 336.532 -5.55569 -3.28654 0
M  V30 3444 H 337.3 -7.61262 -3.00702 0
M  V30 3445 N 339.963 1.05934 -1.16686 0
M  V30 3446 C 341.191 1.8249 -0.974929 0
M  V30 3447 C 341.606 1.82679 0.476861 0
M  V30 3448 O 340.963 1.2486 1.33103 0
M  V30 3449 C 341.014 3.28943 -1.49929 0
M  V30 3450 O 340.735 3.28886 -2.89423 0
M  V30 3451 C 342.236 4.22215 -1.35089 0
M  V30 3452 H 339.456 0.575295 -0.345365 0
M  V30 3453 H 342 1.33631 -1.548 0
M  V30 3454 H 340.155 3.751 -0.968423 0
M  V30 3455 H 340.569 4.20493 -3.13506 0
M  V30 3456 H 342.043 5.22987 -1.76603 0
M  V30 3457 H 342.52 4.38195 -0.296935 0
M  V30 3458 H 343.126 3.81907 -1.87155 0
M  V30 3459 N 341.441 0.965919 1.2453 0
M  V30 3460 C 342.681 0.634656 1.94297 0
M  V30 3461 C 343.045 -0.814822 1.73852 0
M  V30 3462 O 344.246 -1.25622 2.3764 0
M  V30 3463 C 342.517 0.99702 3.43212 0
M  V30 3464 S 344.076 0.780038 4.31811 0
M  V30 3465 H 340.894 0.232893 0.671775 0
M  V30 3466 H 343.496 1.24249 1.50938 0
M  V30 3467 H 342.2 2.04886 3.55598 0
M  V30 3468 H 341.731 0.379888 3.91562 0
M  V30 3469 H 343.746 -0.343512 4.9501 0
M  V30 3470 N 342.919 -1.39368 0.735821 0
M  V30 3471 C 344.33 -1.83313 0.354015 0
M  V30 3472 C 344.681 -1.61461 -1.11466 0
M  V30 3473 O 343.806 -1.10621 -1.85989 0
M  V30 3474 C 344.401 -3.32781 0.635769 0
M  V30 3475 C 342.96 -3.75142 0.307448 0
M  V30 3476 C 342.107 -2.62358 0.897974 0
M  V30 3477 H 345.058 -1.28349 0.933398 0
M  V30 3478 H 345.079 -3.80388 -0.0921773 0
M  V30 3479 H 344.591 -3.48654 1.70476 0
M  V30 3480 H 342.692 -3.64857 -0.755674 0
M  V30 3481 H 342.805 -4.72532 0.790583 0
M  V30 3482 H 341.169 -2.52624 0.324551 0
M  V30 3483 H 341.952 -2.81036 1.97164 0
M  V30 3484 N 344.397 -0.483516 -1.5 0
M  V30 3485 C 345.36 0.292965 -2.2732 0
M  V30 3486 C 346.36 0.909499 -1.32608 0
M  V30 3487 O 347.55 0.776745 -1.55924 0
M  V30 3488 C 344.682 1.41854 -3.09984 0
M  V30 3489 H 345.875 -0.385289 -2.97415 0
M  V30 3490 H 343.428 -0.237942 -1.54478 0
M  V30 3491 H 344.163 2.13148 -2.44414 0
M  V30 3492 H 343.948 0.982114 -3.79601 0
M  V30 3493 H 345.438 1.96597 -3.68429 0
M  V30 3494 N 345.875 1.56104 -0.216619 0
M  V30 3495 C 347.121 1.98466 0.417033 0
M  V30 3496 C 347.454 1.10403 1.59765 0
M  V30 3497 O 346.729 0.160632 1.93836 0
M  V30 3498 C 347.012 3.49769 0.85637 0
M  V30 3499 C 346.865 4.48606 -0.327546 0
M  V30 3500 C 348.184 4.05339 1.7143 0
M  V30 3501 H 345.303 0.721551 0.150112 0
M  V30 3502 H 347.945 1.87423 -0.311864 0
M  V30 3503 H 346.095 3.5931 1.47745 0
M  V30 3504 H 347.767 4.5108 -0.965618 0
M  V30 3505 H 346.01 4.22682 -0.975805 0
M  V30 3506 H 346.681 5.51995 0.0227149 0
M  V30 3507 H 349.157 3.98712 1.19031 0
M  V30 3508 H 348.033 5.11533 1.99061 0
M  V30 3509 H 348.294 3.51918 2.67593 0
M  V30 3510 N 347.353 -0.0568162 1.57498 0
M  V30 3511 C 348.283 -1.06593 2.0775 0
M  V30 3512 C 349.264 -1.39448 0.974082 0
M  V30 3513 O 350.449 -1.48815 1.24771 0
M  V30 3514 C 347.579 -2.37509 2.5339 0
M  V30 3515 C 346.533 -2.1897 3.67745 0
M  V30 3516 C 345.859 -3.55402 3.99492 0
M  V30 3517 C 347.159 -1.59859 4.97235 0
M  V30 3518 H 348.853 -0.647706 2.9231 0
M  V30 3519 H 346.399 -0.310116 1.40621 0
M  V30 3520 H 348.352 -3.08409 2.87162 0
M  V30 3521 H 347.076 -2.8134 1.65878 0
M  V30 3522 H 345.735 -1.50508 3.3428 0
M  V30 3523 H 345.383 -3.9683 3.09088 0
M  V30 3524 H 345.083 -3.43831 4.76502 0
M  V30 3525 H 346.607 -4.27708 4.35773 0
M  V30 3526 H 348.021 -2.20642 5.29141 0
M  V30 3527 H 346.418 -1.58942 5.78669 0
M  V30 3528 H 347.488 -0.561506 4.81638 0
M  V30 3529 N 348.832 -1.54138 -0.328536 0
M  V30 3530 C 350.248 -1.44736 -0.672574 0
M  V30 3531 C 350.448 -0.616217 -1.91846 0
M  V30 3532 O 349.504 -0.113067 -2.52247 0
M  V30 3533 C 350.817 -2.884 -0.851217 0
M  V30 3534 C 352.365 -2.98271 -0.948877 0
M  V30 3535 C 352.84 -4.43074 -1.15973 0
M  V30 3536 N 354.331 -4.46665 -1.22658 0
M  V30 3537 C 355.066 -5.55857 -1.40751 0
M  V30 3538 N 354.562 -6.75026 -1.5592 0
M  V30 3539 N 356.355 -5.43495 -1.4342 0
M  V30 3540 H 348.506 -2.06661 0.490421 0
M  V30 3541 H 350.769 -0.934812 0.157579 0
M  V30 3542 H 350.475 -3.51699 -0.00704236 0
M  V30 3543 H 350.349 -3.34225 -1.74853 0
M  V30 3544 H 352.736 -2.35102 -1.78356 0
M  V30 3545 H 352.817 -2.55785 -0.0281435 0
M  V30 3546 H 352.461 -5.06827 -0.329915 0
M  V30 3547 H 352.391 -4.83165 -2.09426 0
M  V30 3548 H 354.882 -3.60797 -1.124 0
M  V30 3549 H 355.195 -7.54004 -1.69404 0
M  V30 3550 H 353.54 -6.77944 -1.53027 0
M  V30 3551 H 356.731 -4.49349 -1.31162 0
M  V30 3552 H 356.904 -6.28649 -1.57178 0
M  V30 3553 N 350.31 0.590341 -1.46126 0
M  V30 3554 C 351.535 1.37991 -1.54833 0
M  V30 3555 C 351.96 1.87163 -0.187506 0
M  V30 3556 O 351.318 1.61133 0.831008 0
M  V30 3557 C 351.366 2.54867 -2.55098 0
M  V30 3558 O 350.47 3.56061 -2.08073 0
M  V30 3559 H 349.811 0.411265 -0.521303 0
M  V30 3560 H 352.341 0.716819 -1.91632 0
M  V30 3561 H 352.351 3.01886 -2.74461 0
M  V30 3562 H 351.026 2.18429 -3.53923 0
M  V30 3563 H 349.603 3.15574 -1.98664 0
M  V30 3564 N 351.788 1.33704 0.83433 0
M  V30 3565 C 353.035 1.25417 1.58987 0
M  V30 3566 C 353.363 -0.178869 1.93676 0
M  V30 3567 O 352.618 -1.13723 1.59265 0
M  V30 3568 C 352.917 2.07926 2.90692 0
M  V30 3569 C 352.583 3.57066 2.75345 0
M  V30 3570 C 351.245 3.97724 2.70867 0
M  V30 3571 C 353.597 4.51817 2.59828 0
M  V30 3572 C 350.925 5.31344 2.48778 0
M  V30 3573 C 353.277 5.85604 2.39272 0
M  V30 3574 C 351.941 6.25439 2.33199 0
M  V30 3575 H 351.211 0.458934 0.581774 0
M  V30 3576 H 353.858 1.65335 0.966261 0
M  V30 3577 H 352.163 1.608 3.57282 0
M  V30 3578 H 353.86 1.98868 3.48213 0
M  V30 3579 H 350.45 3.24785 2.79665 0
M  V30 3580 H 354.634 4.21311 2.62319 0
M  V30 3581 H 349.89 5.61241 2.42526 0
M  V30 3582 H 354.064 6.58623 2.2625 0
M  V30 3583 H 351.691 7.28914 2.15843 0
M  V30 3584 N 353.266 -1.05314 1.17247 0
M  V30 3585 C 354.229 -2.112 0.890357 0
M  V30 3586 C 355.229 -1.60359 -0.118943 0
M  V30 3587 O 356.419 -1.73833 0.113086 0
M  V30 3588 C 353.551 -3.39266 0.333422 0
M  V30 3589 H 354.744 -2.37659 1.82916 0
M  V30 3590 H 352.297 -1.21538 0.982758 0
M  V30 3591 H 353.032 -3.18462 -0.612587 0
M  V30 3592 H 352.817 -3.77477 1.06082 0
M  V30 3593 H 354.307 -4.17315 0.154322 0
M  V30 3594 N 354.744 -0.972509 -1.24016 0
M  V30 3595 C 355.969 -0.654417 -1.96805 0
M  V30 3596 C 356.394 0.770398 -1.716 0
M  V30 3597 O 355.752 1.52361 -0.982647 0
M  V30 3598 C 355.8 -0.941031 -3.48105 0
M  V30 3599 O 354.904 -0.0289472 -4.1239 0
M  V30 3600 H 354.245 -0.24692 -0.616382 0
M  V30 3601 H 356.775 -1.30396 -1.57664 0
M  V30 3602 H 356.785 -0.87452 -3.98517 0
M  V30 3603 H 355.46 -1.97939 -3.65777 0
M  V30 3604 H 354.037 -0.149192 -3.72601 0
M  V30 3605 N 356.222 1.38976 -0.743202 0
M  V30 3606 C 357.469 2.00343 -0.294752 0
M  V30 3607 C 357.797 1.58983 1.12047 0
M  V30 3608 O 357.052 0.813809 1.77977 0
M  V30 3609 C 357.351 3.55647 -0.353517 0
M  V30 3610 C 357.017 4.16685 -1.72292 0
M  V30 3611 C 355.679 4.3307 -2.09771 0
M  V30 3612 C 358.031 4.50464 -2.62168 0
M  V30 3613 C 355.359 4.80526 -3.36618 0
M  V30 3614 C 357.711 4.99332 -3.88395 0
M  V30 3615 C 356.375 5.13924 -4.25956 0
M  V30 3616 H 355.645 0.733108 -0.107857 0
M  V30 3617 H 358.292 1.6618 -0.951651 0
M  V30 3618 H 356.597 3.89884 0.386954 0
M  V30 3619 H 358.294 4.00998 0.0117269 0
M  V30 3620 H 354.884 4.04339 -1.42155 0
M  V30 3621 H 359.068 4.37416 -2.3448 0
M  V30 3622 H 354.324 4.90008 -3.65653 0
M  V30 3623 H 358.498 5.2444 -4.58187 0
M  V30 3624 H 356.125 5.50457 -5.2431 0
M  V30 3625 N 357.7 0.491464 1.49741 0
M  V30 3626 C 359.111 0.0413169 1.86654 0
M  V30 3627 C 359.462 -1.36985 1.40462 0
M  V30 3628 O 358.587 -2.01917 0.778354 0
M  V30 3629 C 359.182 0.0682023 3.38731 0
M  V30 3630 C 357.741 -0.32656 3.74981 0
M  V30 3631 C 356.888 0.444888 2.73708 0
M  V30 3632 H 359.839 0.704733 1.42194 0
M  V30 3633 H 359.86 -0.729322 3.73445 0
M  V30 3634 H 359.372 1.09539 3.72321 0
M  V30 3635 H 357.473 -1.35734 3.46997 0
M  V30 3636 H 357.586 -0.013741 4.79098 0
M  V30 3637 H 355.95 -0.104062 2.54487 0
M  V30 3638 H 356.733 1.47197 3.10142 0
M  V30 3639 N 359.178 -1.55987 0.224894 0
M  V30 3640 C 360.088 -2.24066 -0.69511 0
M  V30 3641 C 361.104 -1.24939 -1.21104 0
M  V30 3642 O 362.28 -1.5776 -1.25195 0
M  V30 3643 C 359.345 -2.90983 -1.88493 0
M  V30 3644 C 358.406 -4.05462 -1.41064 0
M  V30 3645 C 357.639 -4.69179 -2.54375 0
M  V30 3646 O 357.862 -4.31895 -3.72589 0
M  V30 3647 O 356.796 -5.58108 -2.25386 0
M  V30 3648 H 360.622 -3.03353 -0.145149 0
M  V30 3649 H 358.207 -1.49399 -0.00569476 0
M  V30 3650 H 360.089 -3.33209 -2.57972 0
M  V30 3651 H 358.764 -2.14653 -2.42293 0
M  V30 3652 H 357.671 -3.67798 -0.683774 0
M  V30 3653 H 359.004 -4.83545 -0.918985 0
M  V30 3654 N 360.656 0.0484629 -1.57525 0
M  V30 3655 C 361.884 0.755421 -1.92616 0
M  V30 3656 C 362.299 1.69919 -0.822984 0
M  V30 3657 O 361.656 1.81378 0.202085 0
M  V30 3658 C 361.707 1.52915 -3.27566 0
M  V30 3659 O 361.428 0.62329 -4.33644 0
M  V30 3660 C 362.929 2.33502 -3.76818 0
M  V30 3661 H 360.149 0.213465 -0.63614 0
M  V30 3662 H 362.693 0.0117698 -2.04497 0
M  V30 3663 H 360.848 2.22486 -3.17142 0
M  V30 3664 H 361.262 1.16383 -5.11425 0
M  V30 3665 H 362.736 2.83214 -4.73808 0
M  V30 3666 H 363.213 3.14068 -3.07014 0
M  V30 3667 H 363.819 1.69043 -3.90262 0
M  V30 3668 N 362.134 1.5431 0.320358 0
M  V30 3669 C 363.066 1.80262 1.41556 0
M  V30 3670 C 364.079 0.684723 1.477 0
M  V30 3671 O 365.268 0.961886 1.50366 0
M  V30 3672 C 362.368 1.90825 2.8007 0
M  V30 3673 C 361.541 3.21023 2.97091 0
M  V30 3674 C 360.6 3.22247 4.15985 0
M  V30 3675 O 359.626 3.95871 4.08992 0
M  V30 3676 N 360.828 2.46258 5.25678 0
M  V30 3677 H 363.593 2.74778 1.19655 0
M  V30 3678 H 361.154 1.53646 0.510358 0
M  V30 3679 H 363.146 1.89067 3.57821 0
M  V30 3680 H 361.716 1.03392 2.95006 0
M  V30 3681 H 360.936 3.35715 2.06614 0
M  V30 3682 H 362.224 4.0698 3.05361 0
M  V30 3683 H 361.622 1.86037 5.34235 0
M  V30 3684 H 360.179 2.50275 6.01835 0
M  V30 3685 N 363.613 -0.582584 1.46437 0
M  V30 3686 C 364.576 -1.67366 1.56592 0
M  V30 3687 C 365.576 -1.54575 0.443072 0
M  V30 3688 O 366.766 -1.59191 0.707381 0
M  V30 3689 C 363.898 -3.06791 1.48634 0
M  V30 3690 H 365.091 -1.5972 2.5383 0
M  V30 3691 H 362.644 -0.800432 1.34249 0
M  V30 3692 H 363.379 -3.19993 0.526763 0
M  V30 3693 H 363.164 -3.17484 2.30101 0
M  V30 3694 H 364.654 -3.86218 1.58826 0
M  V30 3695 N 365.091 -1.34144 -0.827227 0
M  V30 3696 C 366.316 -1.29476 -1.62021 0
M  V30 3697 C 366.741 0.129292 -1.87655 0
M  V30 3698 O 366.099 1.08967 -1.449 0
M  V30 3699 C 366.147 -2.08702 -2.94068 0
M  V30 3700 O 365.251 -1.45359 -3.85933 0
M  V30 3701 H 364.592 -0.444881 -0.492927 0
M  V30 3702 H 367.122 -1.76882 -1.02829 0
M  V30 3703 H 367.132 -2.19898 -3.43669 0
M  V30 3704 H 365.807 -3.12241 -2.74734 0
M  V30 3705 H 364.384 -1.42879 -3.44442 0
M  V30 3706 N 366.569 1.04691 -1.17803 0
M  V30 3707 C 367.817 1.7743 -0.967617 0
M  V30 3708 C 368.138 1.88359 0.504574 0
M  V30 3709 O 367.408 1.40402 1.36617 0
M  V30 3710 H 365.988 0.657242 -0.355024 0
M  V30 3711 H 368.65 1.2638 -1.48371 0
M  V30 3712 H 367.746 2.78924 -1.40027 0
M  V30 3713 N 368.047 0.979072 1.23499 0
M  V30 3714 C 369.01 0.523244 2.23147 0
M  V30 3715 C 370.01 -0.386406 1.56088 0
M  V30 3716 O 371.2 -0.180283 1.73265 0
M  V30 3717 C 368.332 -0.240739 3.40049 0
M  V30 3718 H 369.525 1.40432 2.64989 0
M  V30 3719 H 367.078 0.764824 1.36309 0
M  V30 3720 H 367.813 -1.13841 3.03662 0
M  V30 3721 H 367.598 0.412207 3.89927 0
M  V30 3722 H 369.088 -0.548297 4.13985 0
M  V30 3723 N 369.525 -1.3858 0.750561 0
M  V30 3724 C 370.773 -1.99789 0.30477 0
M  V30 3725 C 371.094 -1.59874 -1.11649 0
M  V30 3726 O 370.364 -0.85417 -1.76297 0
M  V30 3727 H 368.944 -0.738902 0.109694 0
M  V30 3728 H 371.606 -1.69391 0.963983 0
M  V30 3729 H 370.702 -3.09952 0.365499 0
M  V30 3730 N 371.003 -0.499398 -1.49478 0
M  V30 3731 C 372.251 0.0455996 -2.02049 0
M  V30 3732 C 372.572 1.37633 -1.38138 0
M  V30 3733 O 371.842 1.8842 -0.536166 0
M  V30 3734 H 370.422 0.0198416 -0.746736 0
M  V30 3735 H 373.084 -0.656274 -1.83519 0
M  V30 3736 H 372.18 0.176445 -3.11601 0
M  V30 3737 N 372.481 1.55866 -0.233164 0
M  V30 3738 C 373.444 2.1953 0.658715 0
M  V30 3739 C 374.444 1.16053 1.11303 0
M  V30 3740 O 375.634 1.41218 1.01996 0
M  V30 3741 C 372.766 2.82791 1.90373 0
M  V30 3742 H 373.959 2.99721 0.10347 0
M  V30 3743 H 371.512 1.56291 0.0164245 0
M  V30 3744 H 372.247 2.06501 2.50056 0
M  V30 3745 H 372.032 3.58578 1.58632 0
M  V30 3746 H 373.522 3.31556 2.53891 0
M  V30 3747 N 373.959 -0.0401083 1.57549 0
M  V30 3748 C 375.184 -0.748931 1.93406 0
M  V30 3749 C 375.609 -1.68686 0.832274 0
M  V30 3750 O 374.967 -1.80047 -0.212818 0
M  V30 3751 C 375.015 -1.4916 3.28304 0
M  V30 3752 O 374.119 -2.6042 3.19774 0
M  V30 3753 H 373.46 -0.202212 0.63246 0
M  V30 3754 H 375.99 0.00112086 2.046 0
M  V30 3755 H 376 -1.86395 3.62934 0
M  V30 3756 H 374.675 -0.80364 4.08062 0
M  V30 3757 H 373.252 -2.25808 2.96758 0
M  V30 3758 N 375.437 -1.54477 -0.31217 0
M  V30 3759 C 376.367 -1.87652 -1.38957 0
M  V30 3760 C 377.348 -0.734358 -1.53431 0
M  V30 3761 O 378.533 -0.98911 -1.67123 0
M  V30 3762 C 375.663 -2.11396 -2.75552 0
M  V30 3763 C 374.617 -3.27243 -2.75855 0
M  V30 3764 C 373.943 -3.36382 -4.15633 0
M  V30 3765 C 375.243 -4.64622 -2.38587 0
M  V30 3766 H 376.937 -2.77887 -1.11442 0
M  V30 3767 H 374.483 -1.33707 -0.534655 0
M  V30 3768 H 376.436 -2.33189 -3.51 0
M  V30 3769 H 375.16 -1.17921 -3.04569 0
M  V30 3770 H 373.819 -3.05356 -2.02863 0
M  V30 3771 H 373.467 -2.40445 -4.41809 0
M  V30 3772 H 373.167 -4.14249 -4.1674 0
M  V30 3773 H 374.691 -3.60422 -4.92877 0
M  V30 3774 H 376.105 -4.86219 -3.03749 0
M  V30 3775 H 374.502 -5.45121 -2.50925 0
M  V30 3776 H 375.572 -4.66097 -1.33723 0
M  V30 3777 N 376.915 0.57481 -1.46744 0
M  V30 3778 C 378.161 1.3347 -1.52688 0
M  V30 3779 C 378.494 1.93353 -0.181229 0
M  V30 3780 O 377.769 1.76912 0.808237 0
M  V30 3781 C 378.052 2.45811 -2.63152 0
M  V30 3782 C 377.905 1.90912 -4.07275 0
M  V30 3783 C 379.224 3.47822 -2.69644 0
M  V30 3784 H 376.343 0.483935 -0.555856 0
M  V30 3785 H 378.985 0.644968 -1.78718 0
M  V30 3786 H 377.135 3.04646 -2.41088 0
M  V30 3787 H 378.807 1.36473 -4.4065 0
M  V30 3788 H 377.05 1.21691 -4.16382 0
M  V30 3789 H 377.721 2.72042 -4.80309 0
M  V30 3790 H 380.197 2.9888 -2.895 0
M  V30 3791 H 379.073 4.23876 -3.48742 0
M  V30 3792 H 379.334 4.05555 -1.76005 0
M  V30 3793 N 378.394 1.34581 0.820102 0
M  V30 3794 C 379.357 1.2628 1.91275 0
M  V30 3795 C 380.357 0.177344 1.59819 0
M  V30 3796 O 381.547 0.430156 1.68806 0
M  V30 3797 C 378.679 0.950327 3.27386 0
M  V30 3798 H 379.872 2.23421 2.00057 0
M  V30 3799 H 377.425 1.1891 1.0144 0
M  V30 3800 H 378.16 -0.0177938 3.24295 0
M  V30 3801 H 377.945 1.73549 3.51601 0
M  V30 3802 H 379.435 0.917492 4.07396 0
M  V30 3803 N 379.872 -1.04064 1.18357 0
M  V30 3804 C 380.835 -2.10243 0.912707 0
M  V30 3805 C 381.835 -1.60477 -0.101928 0
M  V30 3806 O 383.025 -1.73703 0.131517 0
M  V30 3807 C 380.157 -3.38893 0.369387 0
M  V30 3808 H 381.35 -2.35706 1.85426 0
M  V30 3809 H 378.903 -1.20489 0.995594 0
M  V30 3810 H 379.638 -3.19094 -0.578776 0
M  V30 3811 H 379.423 -3.76331 1.1008 0
M  V30 3812 H 380.913 -4.17128 0.198575 0
M  V30 3813 N 381.35 -0.985608 -1.22978 0
M  V30 3814 C 382.596 -0.65836 -1.91816 0
M  V30 3815 C 382.929 0.806692 -1.76653 0
M  V30 3816 O 382.204 1.58252 -1.13078 0
M  V30 3817 C 382.487 -1.056 -3.44268 0
M  V30 3818 C 382.34 -2.57906 -3.68516 0
M  V30 3819 C 383.659 -0.603781 -4.35939 0
M  V30 3820 H 380.778 -0.24065 -0.696604 0
M  V30 3821 H 383.42 -1.22783 -1.44998 0
M  V30 3822 H 381.57 -0.571445 -3.84274 0
M  V30 3823 H 383.242 -3.13976 -3.3796 0
M  V30 3824 H 381.485 -3.00305 -3.13048 0
M  V30 3825 H 382.156 -2.80779 -4.75255 0
M  V30 3826 H 384.632 -1.01987 -4.03408 0
M  V30 3827 H 383.508 -0.910383 -5.41298 0
M  V30 3828 H 383.769 0.495761 -4.39312 0
M  V30 3829 N 382.828 1.3818 -0.7579 0
M  V30 3830 C 384.076 1.99624 -0.315361 0
M  V30 3831 C 384.397 1.60464 1.10799 0
M  V30 3832 O 383.667 0.863507 1.75842 0
M  V30 3833 H 382.247 0.73831 -0.113611 0
M  V30 3834 H 384.909 1.68878 -0.972952 0
M  V30 3835 H 384.005 3.09754 -0.381931 0
M  V30 3836 N 384.306 0.507319 1.49211 0
M  V30 3837 C 385.534 -0.0315749 2.06876 0
M  V30 3838 C 385.949 -1.30241 1.36685 0
M  V30 3839 O 385.306 -1.76937 0.447152 0
M  V30 3840 C 385.357 -0.282627 3.60393 0
M  V30 3841 O 385.078 0.937835 4.27944 0
M  V30 3842 C 386.579 -0.864453 4.3479 0
M  V30 3843 H 383.799 0.0233048 0.670595 0
M  V30 3844 H 386.343 0.706484 1.91909 0
M  V30 3845 H 384.498 -0.97068 3.75042 0
M  V30 3846 H 384.912 0.704567 5.19746 0
M  V30 3847 H 386.386 -0.989664 5.43056 0
M  V30 3848 H 386.863 -1.86382 3.97692 0
M  V30 3849 H 387.469 -0.213672 4.24763 0
M  V30 3850 N 385.784 -1.5574 0.241426 0
M  V30 3851 C 387.024 -2.00714 -0.38644 0
M  V30 3852 C 387.388 -1.12586 -1.55526 0
M  V30 3853 O 388.589 -1.46992 -2.25048 0
M  V30 3854 C 386.86 -3.48534 -0.791128 0
M  V30 3855 S 388.419 -4.15519 -1.41029 0
M  V30 3856 H 385.237 -0.700484 -0.121834 0
M  V30 3857 H 387.839 -1.92243 0.355377 0
M  V30 3858 H 386.543 -4.10342 0.0689225 0
M  V30 3859 H 386.074 -3.6092 -1.56526 0
M  V30 3860 H 388.089 -4.16352 -2.69936 0
M  V30 3861 N 387.262 0.0317525 -1.57568 0
M  V30 3862 C 388.508 0.724175 -1.8943 0
M  V30 3863 C 388.841 1.75149 -0.838836 0
M  V30 3864 O 388.116 1.93948 0.146422 0
M  V30 3865 C 388.399 1.39615 -3.31933 0
M  V30 3866 C 388.252 0.382537 -4.4817 0
M  V30 3867 C 389.571 2.33084 -3.73309 0
M  V30 3868 H 386.69 0.261797 -0.688935 0
M  V30 3869 H 389.332 -0.013017 -1.89996 0
M  V30 3870 H 387.482 2.02451 -3.31581 0
M  V30 3871 H 389.154 -0.243689 -4.60656 0
M  V30 3872 H 387.397 -0.29844 -4.32772 0
M  V30 3873 H 388.068 0.891145 -5.44759 0
M  V30 3874 H 390.544 1.80295 -3.7501 0
M  V30 3875 H 389.42 2.77084 -4.73831 0
M  V30 3876 H 389.681 3.19643 -3.05419 0
M  V30 3877 N 388.74 1.54641 0.303973 0
M  V30 3878 C 389.703 1.84646 1.35789 0
M  V30 3879 C 390.703 0.7192 1.4382 0
M  V30 3880 O 391.893 0.987491 1.43507 0
M  V30 3881 C 389.025 2.02407 2.74307 0
M  V30 3882 H 390.218 2.78829 1.10429 0
M  V30 3883 H 387.771 1.46658 0.540487 0
M  V30 3884 H 388.506 1.10502 3.04893 0
M  V30 3885 H 388.291 2.84453 2.69868 0
M  V30 3886 H 389.781 2.27002 3.50514 0
M  V30 3887 N 390.218 -0.567019 1.47046 0
M  V30 3888 C 391.168 -1.67018 1.55207 0
M  V30 3889 C 392.152 -1.55543 0.411714 0
M  V30 3890 O 393.344 -1.64192 0.661064 0
M  V30 3891 C 390.473 -3.05801 1.56014 0
M  V30 3892 C 389.559 -3.22515 2.75399 0
M  V30 3893 N 389.95 -3.09329 4.00186 0
M  V30 3894 C 388.248 -3.53493 2.71954 0
M  V30 3895 C 388.949 -3.2847 4.80086 0
M  V30 3896 N 387.925 -3.54352 4.12233 0
M  V30 3897 H 391.727 -1.55377 2.4947 0
M  V30 3898 H 389.241 -0.771503 1.42904 0
M  V30 3899 H 391.238 -3.84996 1.59949 0
M  V30 3900 H 389.898 -3.18561 0.628396 0
M  V30 3901 H 390.909 -2.86863 4.31196 0
M  V30 3902 H 387.586 -3.7284 1.87873 0
M  V30 3903 H 388.976 -3.23326 5.88991 0
M  V30 3904 N 391.696 -1.35014 -0.812953 0
M  V30 3905 C 392.659 -1.27292 -1.90602 0
M  V30 3906 C 393.659 -0.185817 -1.59723 0
M  V30 3907 O 394.849 -0.439102 -1.68575 0
M  V30 3908 C 391.981 -0.967676 -3.26877 0
M  V30 3909 H 393.174 -2.24479 -1.9887 0
M  V30 3910 H 390.727 -1.19446 -1.00808 0
M  V30 3911 H 391.462 0.0005954 -3.243 0
M  V30 3912 H 391.247 -1.75412 -3.50675 0
M  V30 3913 H 392.737 -0.939085 -4.06904 0
M  V30 3914 N 393.175 1.03435 -1.18907 0
M  V30 3915 C 394.085 2.15075 -0.937015 0
M  V30 3916 C 395.101 1.73706 0.101085 0
M  V30 3917 O 396.277 2.01232 -0.0822948 0
M  V30 3918 C 393.342 3.43458 -0.473057 0
M  V30 3919 C 392.403 3.99172 -1.57989 0
M  V30 3920 C 391.636 5.21427 -1.13797 0
M  V30 3921 O 391.859 5.704 0.000725941 0
M  V30 3922 O 390.793 5.69837 -1.9383 0
M  V30 3923 H 394.619 2.39198 -1.87131 0
M  V30 3924 H 392.204 1.13506 -0.971427 0
M  V30 3925 H 394.086 4.20811 -0.222702 0
M  V30 3926 H 392.761 3.20793 0.432869 0
M  V30 3927 H 391.668 3.23178 -1.88433 0
M  V30 3928 H 393.001 4.2619 -2.46217 0
M  V30 3929 N 394.653 0.992116 1.22453 0
M  V30 3930 C 396.064 0.702776 1.72968 0
M  V30 3931 C 396.415 -0.780399 1.80012 0
M  V30 3932 O 395.54 -1.61007 1.44589 0
M  V30 3933 C 396.135 1.26903 3.14135 0
M  V30 3934 C 394.694 1.02909 3.62059 0
M  V30 3935 C 393.841 1.38969 2.39964 0
M  V30 3936 H 396.792 1.16457 1.07812 0
M  V30 3937 H 396.813 0.647223 3.74955 0
M  V30 3938 H 396.325 2.34851 3.08977 0
M  V30 3939 H 394.426 -0.0337979 3.72585 0
M  V30 3940 H 394.539 1.69191 4.48231 0
M  V30 3941 H 392.903 0.808279 2.41535 0
M  V30 3942 H 393.686 2.4792 2.37467 0
M  V30 3943 N 396.131 -1.37776 0.765217 0
M  V30 3944 C 397.041 -2.34135 0.147666 0
M  V30 3945 C 398.057 -1.59854 -0.687215 0
M  V30 3946 O 399.233 -1.91983 -0.608659 0
M  V30 3947 C 396.298 -3.3901 -0.72617 0
M  V30 3948 C 395.359 -4.2912 0.124417 0
M  V30 3949 C 394.592 -5.28986 -0.707807 0
M  V30 3950 O 394.815 -5.36205 -1.94525 0
M  V30 3951 O 393.749 -6.01779 -0.12046 0
M  V30 3952 H 397.575 -2.88664 0.943758 0
M  V30 3953 H 395.16 -1.39824 0.526277 0
M  V30 3954 H 397.042 -4.03195 -1.22524 0
M  V30 3955 H 395.717 -2.86819 -1.50056 0
M  V30 3956 H 394.624 -3.68057 0.669696 0
M  V30 3957 H 395.957 -4.84598 0.861736 0
M  V30 3958 N 397.609 -0.515225 -1.4894 0
M  V30 3959 C 398.519 0.259774 -2.33157 0
M  V30 3960 C 399.535 0.953501 -1.45548 0
M  V30 3961 O 400.711 0.931735 -1.78552 0
M  V30 3962 C 397.776 1.30193 -3.21326 0
M  V30 3963 C 396.837 0.620129 -4.24797 0
M  V30 3964 C 396.07 1.61263 -5.08753 0
M  V30 3965 O 396.293 2.84389 -4.94448 0
M  V30 3966 O 395.227 1.16013 -5.90614 0
M  V30 3967 H 399.053 -0.429932 -3.00641 0
M  V30 3968 H 396.638 -0.276346 -1.46822 0
M  V30 3969 H 398.52 1.90455 -3.75905 0
M  V30 3970 H 397.195 1.97431 -2.56521 0
M  V30 3971 H 396.102 -0.0226019 -3.74093 0
M  V30 3972 H 397.435 -0.0100493 -4.92199 0
M  V30 3973 N 399.087 1.5561 -0.249682 0
M  V30 3974 C 400.364 1.90932 0.424761 0
M  V30 3975 C 400.744 1.17078 1.75658 0
M  V30 3976 O 400.092 0.289176 2.26663 0
M  V30 3977 C 400.302 3.43975 0.590109 0
M  V30 3978 C 401.65 4.15281 0.884714 0
M  V30 3979 O 402.674 3.49729 0.67587 0
M  V30 3980 O 401.533 5.31236 1.28259 0
M  V30 3981 H 398.627 0.794815 0.228468 0
M  V30 3982 H 401.173 1.67135 -0.293954 0
M  V30 3983 H 399.945 3.89748 -0.34818 0
M  V30 3984 H 399.568 3.73644 1.35926 0
M  V30 3985 N 400.565 -0.0233959 1.57583 0
M  V30 3986 C 401.813 -0.711654 1.89156 0
M  V30 3987 C 402.134 -1.75591 0.848096 0
M  V30 3988 O 401.404 -1.95547 -0.117566 0
M  V30 3989 H 399.984 -0.265835 0.698098 0
M  V30 3990 H 402.646 0.0119948 1.94896 0
M  V30 3991 H 401.742 -1.19766 2.88206 0
M  V30 3992 N 402.043 -1.548 -0.295768 0
M  V30 3993 C 403.289 -1.74588 -1.03184 0
M  V30 3994 C 403.622 -0.532962 -1.86744 0
M  V30 3995 O 402.897 0.469872 -1.88739 0
M  V30 3996 C 403.18 -3.03791 -1.93347 0
M  V30 3997 C 403.033 -4.35392 -1.12933 0
M  V30 3998 C 404.352 -3.28892 -2.92435 0
M  V30 3999 H 401.471 -0.635221 -0.373715 0
M  V30 4000 H 404.113 -1.87519 -0.30606 0
M  V30 4001 H 402.263 -2.92898 -2.55232 0
M  V30 4002 H 403.935 -4.58211 -0.532943 0
M  V30 4003 H 402.178 -4.31642 -0.432168 0
M  V30 4004 H 402.849 -5.22074 -1.79284 0
M  V30 4005 H 405.325 -3.39429 -2.4068 0
M  V30 4006 H 404.201 -4.20603 -3.52682 0
M  V30 4007 H 404.462 -2.47437 -3.6637 0
M  V30 4008 N 403.521 0.559213 -1.47345 0
M  V30 4009 C 404.769 1.31388 -1.53563 0
M  V30 4010 C 405.09 1.93985 -0.198678 0
M  V30 4011 O 404.36 1.79825 0.777167 0
M  V30 4012 H 402.94 0.487901 -0.565652 0
M  V30 4013 H 405.602 0.65315 -1.8363 0
M  V30 4014 H 404.698 2.10844 -2.30111 0
M  V30 4015 N 404.999 1.35443 0.805782 0
M  V30 4016 C 406.247 1.28507 1.55982 0
M  V30 4017 C 406.568 -0.140046 1.94496 0
M  V30 4018 O 405.838 -1.07666 1.63661 0
M  V30 4019 H 404.418 0.472676 0.578434 0
M  V30 4020 H 407.08 1.69555 0.961098 0
M  V30 4021 H 406.176 1.90148 2.47488 0
M  V30 4022 N 406.477 -1.02803 1.19454 0
M  V30 4023 C 407.409 -2.11181 0.890807 0
M  V30 4024 C 408.422 -1.6238 -0.116829 0
M  V30 4025 O 409.611 -1.78144 0.112694 0
M  V30 4026 C 406.711 -3.37461 0.311942 0
M  V30 4027 C 405.884 -4.15446 1.36834 0
M  V30 4028 C 404.943 -5.20039 0.802864 0
M  V30 4029 O 403.969 -5.49602 1.48077 0
M  V30 4030 N 405.171 -5.79165 -0.393417 0
M  V30 4031 H 407.936 -2.37827 1.82369 0
M  V30 4032 H 405.497 -1.19101 1.09666 0
M  V30 4033 H 407.489 -4.0462 -0.0802225 0
M  V30 4034 H 406.059 -3.08156 -0.52524 0
M  V30 4035 H 405.279 -3.43423 1.93531 0
M  V30 4036 H 406.567 -4.64335 2.08015 0
M  V30 4037 H 405.965 -5.57466 -0.961658 0
M  V30 4038 H 404.522 -6.47729 -0.727351 0
M  V30 4039 N 407.956 -0.998596 -1.21925 0
M  V30 4040 C 408.919 -0.558679 -2.22287 0
M  V30 4041 C 409.919 0.361525 -1.56683 0
M  V30 4042 O 411.109 0.152695 -1.73529 0
M  V30 4043 C 408.241 0.18661 -3.40389 0
M  V30 4044 H 409.434 -1.4463 -2.62721 0
M  V30 4045 H 406.987 -0.786413 -1.35075 0
M  V30 4046 H 407.722 1.08996 -3.05435 0
M  V30 4047 H 407.507 -0.474188 -3.89222 0
M  V30 4048 H 408.997 0.482367 -4.14805 0
M  V30 4049 N 409.434 1.37368 -0.772513 0
M  V30 4050 C 410.682 1.99279 -0.336516 0
M  V30 4051 C 411.003 1.6163 1.09091 0
M  V30 4052 O 410.273 0.882109 1.74916 0
M  V30 4053 H 408.853 0.737063 -0.121435 0
M  V30 4054 H 411.515 1.67836 -0.990809 0
M  V30 4055 H 410.611 3.09332 -0.414763 0
M  V30 4056 N 410.912 0.523116 1.48665 0
M  V30 4057 C 412.16 -0.0134497 2.02096 0
M  V30 4058 C 412.481 -1.35418 1.40311 0
M  V30 4059 O 411.751 -1.87543 0.566074 0
M  V30 4060 H 410.331 -0.00795915 0.746958 0
M  V30 4061 H 412.993 0.685388 1.82451 0
M  V30 4062 H 412.089 -0.126849 3.11842 0
M  V30 4063 N 412.39 -1.55475 0.257931 0
M  V30 4064 C 413.615 -2.04064 -0.370488 0
M  V30 4065 C 414.04 -1.13565 -1.49948 0
M  V30 4066 O 413.398 -0.130781 -1.80828 0
M  V30 4067 C 413.446 -3.50554 -0.845237 0
M  V30 4068 O 412.55 -3.63173 -1.95394 0
M  V30 4069 H 411.891 -0.659257 -0.0792243 0
M  V30 4070 H 414.421 -2.00903 0.387212 0
M  V30 4071 H 414.431 -3.91588 -1.14555 0
M  V30 4072 H 413.106 -4.15896 -0.0191259 0
M  V30 4073 H 411.683 -3.34039 -1.65748 0
M  V30 4074 N 413.868 0.0150385 -1.57593 0
M  V30 4075 C 415.279 0.559832 -1.78109 0
M  V30 4076 C 415.63 1.74814 -0.890756 0
M  V30 4077 O 414.755 2.16216 -0.0892482 0
M  V30 4078 C 415.35 1.02238 -3.23006 0
M  V30 4079 C 413.909 1.51258 -3.44671 0
M  V30 4080 C 413.056 0.456955 -2.73509 0
M  V30 4081 H 416.007 -0.211169 -1.57289 0
M  V30 4082 H 416.028 1.88912 -3.30292 0
M  V30 4083 H 415.54 0.157302 -3.87781 0
M  V30 4084 H 413.641 2.39905 -2.8509 0
M  V30 4085 H 413.754 1.55042 -4.5332 0
M  V30 4086 H 412.118 0.915196 -2.37689 0
M  V30 4087 H 412.901 -0.398896 -3.40975 0
M  V30 4088 N 415.346 1.54954 0.287554 0
M  V30 4089 C 416.757 1.65732 0.859634 0
M  V30 4090 C 417.108 0.574767 1.87592 0
M  V30 4091 O 416.233 -0.286299 2.14498 0
M  V30 4092 C 416.828 3.00438 1.56597 0
M  V30 4093 C 415.387 3.13292 2.08627 0
M  V30 4094 C 414.534 2.61473 0.923416 0
M  V30 4095 H 417.485 1.5857 0.0642338 0
M  V30 4096 H 417.506 2.92613 2.43224 0
M  V30 4097 H 417.018 3.79207 0.826053 0
M  V30 4098 H 415.119 2.39268 2.85625 0
M  V30 4099 H 415.232 4.19647 2.31157 0
M  V30 4100 H 413.596 2.18264 1.31275 0
M  V30 4101 H 414.379 3.42733 0.197241 0
M  V30 4102 N 416.824 -0.551391 1.4764 0
M  V30 4103 C 418.24 -0.877887 1.33287 0
M  V30 4104 C 418.44 -1.98817 0.327721 0
M  V30 4105 O 417.496 -2.51171 -0.258695 0
M  V30 4106 C 418.809 -1.26563 2.72768 0
M  V30 4107 C 420.357 -1.37673 2.81097 0
M  V30 4108 C 420.832 -1.79799 4.21232 0
M  V30 4109 N 422.323 -1.8694 4.23802 0
M  V30 4110 C 423.058 -2.20876 5.29151 0
M  V30 4111 N 422.554 -2.53386 6.448 0
M  V30 4112 N 424.347 -2.217 5.16532 0
M  V30 4113 H 416.498 0.18153 2.11623 0
M  V30 4114 H 418.761 0.0185514 0.947818 0
M  V30 4115 H 418.467 -0.523591 3.47781 0
M  V30 4116 H 418.341 -2.22052 3.04915 0
M  V30 4117 H 420.728 -2.10956 2.06353 0
M  V30 4118 H 420.809 -0.40357 2.52596 0
M  V30 4119 H 420.453 -1.07083 4.96483 0
M  V30 4120 H 420.383 -2.78128 4.4716 0
M  V30 4121 H 422.874 -1.64179 3.40373 0
M  V30 4122 H 423.187 -2.78325 7.20941 0
M  V30 4123 H 421.532 -2.50953 6.48111 0
M  V30 4124 H 424.723 -1.95745 4.25207 0
M  V30 4125 H 424.896 -2.47818 5.98741 0
M  V30 4126 N 418.302 -1.35869 -0.798587 0
M  V30 4127 C 419.232 -1.32118 -1.92528 0
M  V30 4128 C 420.213 -0.194209 -1.68988 0
M  V30 4129 O 421.398 -0.390426 -1.90235 0
M  V30 4130 C 418.528 -1.10047 -3.29404 0
M  V30 4131 C 417.482 -2.19471 -3.67446 0
M  V30 4132 C 416.808 -1.82555 -5.02571 0
M  V30 4133 C 418.108 -3.61495 -3.76987 0
M  V30 4134 H 419.802 -2.26394 -1.95924 0
M  V30 4135 H 417.348 -1.08981 -0.94123 0
M  V30 4136 H 419.301 -1.06061 -4.07835 0
M  V30 4137 H 418.025 -0.122195 -3.26371 0
M  V30 4138 H 416.684 -2.22568 -2.91306 0
M  V30 4139 H 416.332 -0.833249 -4.9605 0
M  V30 4140 H 416.032 -2.5581 -5.28995 0
M  V30 4141 H 417.556 -1.80108 -5.83432 0
M  V30 4142 H 418.97 -3.60676 -4.4563 0
M  V30 4143 H 417.367 -4.33577 -4.14887 0
M  V30 4144 H 418.437 -3.97065 -2.78329 0
M  V30 4145 N 419.78 1.02168 -1.19998 0
M  V30 4146 C 420.73 2.08969 -0.911921 0
M  V30 4147 C 421.714 1.60404 0.12621 0
M  V30 4148 O 422.906 1.76817 -0.0804706 0
M  V30 4149 C 420.035 3.402 -0.460277 0
M  V30 4150 C 419.121 3.9548 -1.53155 0
M  V30 4151 N 419.512 4.24332 -2.75275 0
M  V30 4152 C 417.81 4.23572 -1.39653 0
M  V30 4153 C 418.511 4.68834 -3.44339 0
M  V30 4154 N 417.487 4.70804 -2.71744 0
M  V30 4155 H 421.289 2.29178 -1.83997 0
M  V30 4156 H 418.803 1.20094 -1.09322 0
M  V30 4157 H 420.8 4.16235 -0.235337 0
M  V30 4158 H 419.46 3.21408 0.4612 0
M  V30 4159 H 420.471 4.13393 -3.11973 0
M  V30 4160 H 417.148 4.14005 -0.539067 0
M  V30 4161 H 418.538 5.00019 -4.4881 0
M  V30 4162 N 421.258 1.00505 1.21394 0
M  V30 4163 C 422.498 0.696149 1.9218 0
M  V30 4164 C 422.862 -0.759099 1.76357 0
M  V30 4165 O 424.063 -1.17998 2.41516 0
M  V30 4166 C 422.334 1.10571 3.39866 0
M  V30 4167 S 423.893 0.91702 4.29111 0
M  V30 4168 H 420.711 0.254147 0.664026 0
M  V30 4169 H 423.313 1.28988 1.46909 0
M  V30 4170 H 422.017 2.16096 3.489 0
M  V30 4171 H 421.548 0.504268 3.90155 0
M  V30 4172 H 423.563 -0.185855 4.95852 0
M  V30 4173 N 422.737 -1.36956 0.779787 0
M  V30 4174 C 423.685 -2.32053 0.15942 0
M  V30 4175 C 424.679 -1.55333 -0.675878 0
M  V30 4176 O 425.885 -1.70668 -0.57204 0
M  V30 4177 H 422.26 -0.751286 0.0327707 0
M  V30 4178 H 424.231 -2.8195 0.977078 0
M  V30 4179 C 422.98 -3.40602 -0.698977 0
M  V30 4180 H 422.303 -3.99746 -0.0655966 0
M  V30 4181 H 423.743 -4.09486 -1.09989 0
M  V30 4182 C 422.202 -2.81359 -1.85307 0
M  V30 4183 O 422.732 -2.72751 -2.94906 0
M  V30 4184 N 420.938 -2.38786 -1.65619 0
M  V30 4185 H 420.485 -2.45987 -0.764725 0
M  V30 4186 H 420.443 -1.99493 -2.43002 0
M  V30 4187 N 424.215 -0.530993 -1.48385 0
M  V30 4188 C 425.463 0.00273189 -2.021 0
M  V30 4189 C 425.784 1.34672 -1.41027 0
M  V30 4190 O 425.054 1.8724 -0.576012 0
M  V30 4191 H 423.634 0.00399774 -0.746989 0
M  V30 4192 H 426.296 -0.695054 -1.82085 0
M  V30 4193 H 425.392 0.11031 -3.11905 0
M  V30 4194 N 425.693 1.55336 -0.266172 0
M  V30 4195 C 426.603 2.2583 0.635458 0
M  V30 4196 C 427.619 1.28106 1.17749 0
M  V30 4197 O 428.795 1.61024 1.20968 0
M  V30 4198 C 425.86 2.95879 1.80712 0
M  V30 4199 C 424.921 4.09059 1.30265 0
M  V30 4200 C 424.154 4.75759 2.41846 0
M  V30 4201 O 424.377 4.41622 3.61007 0
M  V30 4202 O 423.311 5.63888 2.1051 0
M  V30 4203 H 427.137 3.03631 0.0646693 0
M  V30 4204 H 424.722 1.49361 -0.0339177 0
M  V30 4205 H 426.604 3.39932 2.49047 0
M  V30 4206 H 425.279 2.21002 2.36516 0
M  V30 4207 H 424.186 3.69482 0.586019 0
M  V30 4208 H 425.519 4.85811 0.790458 0
M  V30 4209 N 427.171 -0.0066808 1.57599 0
M  V30 4210 C 428.419 -0.691552 1.899 0
M  V30 4211 C 428.74 -1.74682 0.866672 0
M  V30 4212 O 428.01 -1.95661 -0.0968189 0
M  V30 4213 H 426.59 -0.258416 0.700878 0
M  V30 4214 H 429.252 0.0326655 1.94873 0
M  V30 4215 H 428.348 -1.16702 2.8946 0
M  V30 4216 N 428.649 -1.55105 -0.279332 0
M  V30 4217 C 429.596 -1.8755 -1.34513 0
M  V30 4218 C 430.566 -0.726384 -1.49375 0
M  V30 4219 O 431.751 -0.977063 -1.63884 0
M  V30 4220 C 428.891 -2.14738 -2.70151 0
M  V30 4221 C 428.004 -3.42285 -2.63562 0
M  V30 4222 C 427.139 -3.59206 -3.91337 0
M  V30 4223 C 426.178 -4.80467 -3.79233 0
M  V30 4224 N 425.315 -4.94079 -4.98829 0
M  V30 4225 H 430.155 -2.78456 -1.06143 0
M  V30 4226 H 427.692 -1.37867 -0.512936 0
M  V30 4227 H 429.65 -2.28501 -3.49061 0
M  V30 4228 H 428.28 -1.27075 -2.96735 0
M  V30 4229 H 427.332 -3.37029 -1.76397 0
M  V30 4230 H 428.644 -4.31328 -2.50515 0
M  V30 4231 H 427.798 -3.72751 -4.78687 0
M  V30 4232 H 426.537 -2.68337 -4.07243 0
M  V30 4233 H 425.542 -4.66932 -2.90266 0
M  V30 4234 H 426.767 -5.72765 -3.64852 0
M  V30 4235 H 424.713 -4.06139 -5.15158 0
M  V30 4236 H 424.63 -5.77156 -4.8829 0
M  V30 4237 H 425.898 -5.12003 -5.8777 0
M  V30 4238 N 430.127 0.543554 -1.4793 0
M  V30 4239 C 431.373 1.29961 -1.56466 0
M  V30 4240 C 431.728 1.91024 -0.229696 0
M  V30 4241 O 431.021 1.75619 0.766072 0
M  V30 4242 C 431.215 2.42078 -2.62932 0
M  V30 4243 C 431.044 1.92003 -4.06651 0
M  V30 4244 C 429.814 1.75223 -4.73946 0
M  V30 4245 C 432.012 1.45648 -4.93245 0
M  V30 4246 N 429.994 1.19632 -6.02131 0
M  V30 4247 C 431.365 1.01914 -6.11566 0
M  V30 4248 C 433.42 1.33826 -4.79578 0
M  V30 4249 C 432.123 0.475301 -7.17728 0
M  V30 4250 C 434.149 0.808427 -5.85848 0
M  V30 4251 C 433.511 0.381081 -7.03368 0
M  V30 4252 H 429.61 0.467086 -0.62718 0
M  V30 4253 H 432.194 0.614543 -1.84747 0
M  V30 4254 H 430.365 3.08098 -2.36496 0
M  V30 4255 H 432.097 3.09096 -2.61231 0
M  V30 4256 H 428.852 1.98345 -4.30065 0
M  V30 4257 H 429.276 0.93885 -6.70458 0
M  V30 4258 H 433.918 1.65474 -3.89074 0
M  V30 4259 H 431.636 0.146472 -8.07967 0
M  V30 4260 H 435.222 0.720315 -5.77324 0
M  V30 4261 H 434.102 -0.0225344 -7.84197 0
M  V30 4262 N 431.605 1.3629 0.791371 0
M  V30 4263 C 432.538 1.24816 1.9104 0
M  V30 4264 C 433.516 0.132739 1.62057 0
M  V30 4265 O 434.7 0.303527 1.8604 0
M  V30 4266 C 431.827 0.925355 3.25814 0
M  V30 4267 C 430.873 2.05495 3.7373 0
M  V30 4268 S 431.706 3.67255 3.89723 0
M  V30 4269 C 432.862 3.37084 5.27376 0
M  V30 4270 H 433.095 2.19533 2.00481 0
M  V30 4271 H 430.628 1.21684 0.950393 0
M  V30 4272 H 432.586 0.745924 4.03666 0
M  V30 4273 H 431.247 -0.00400098 3.141 0
M  V30 4274 H 430.44 1.7836 4.71385 0
M  V30 4275 H 430.042 2.1935 3.02922 0
M  V30 4276 H 432.334 2.90856 6.1189 0
M  V30 4277 H 433.277 4.33995 5.59512 0
M  V30 4278 H 433.685 2.7248 4.94383 0
M  V30 4279 N 433.083 -1.0153 1.20538 0
M  V30 4280 C 434.329 -1.75408 1.01783 0
M  V30 4281 C 434.662 -1.88943 -0.448814 0
M  V30 4282 O 433.937 -1.4162 -1.33319 0
M  V30 4283 C 434.22 -3.17255 1.70356 0
M  V30 4284 C 434.073 -3.11508 3.24473 0
M  V30 4285 C 435.392 -4.15955 1.43769 0
M  V30 4286 H 432.511 -0.636713 0.371167 0
M  V30 4287 H 435.153 -1.18436 1.4857 0
M  V30 4288 H 433.303 -3.65898 1.30578 0
M  V30 4289 H 434.975 -2.70658 3.73553 0
M  V30 4290 H 433.218 -2.4887 3.55311 0
M  V30 4291 H 433.889 -4.11784 3.67611 0
M  V30 4292 H 436.365 -3.75973 1.7828 0
M  V30 4293 H 435.241 -5.13368 1.94279 0
M  V30 4294 H 435.502 -4.40586 0.365564 0
M  V30 4295 N 434.561 -1.01147 -1.20859 0
M  V30 4296 C 435.524 -0.582224 -2.21682 0
M  V30 4297 C 436.524 0.344887 -1.57058 0
M  V30 4298 O 437.714 0.134281 -1.73682 0
M  V30 4299 C 434.846 0.150496 -3.40568 0
M  V30 4300 H 436.039 -1.47408 -2.61172 0
M  V30 4301 H 433.592 -0.800695 -1.34233 0
M  V30 4302 H 434.327 1.0575 -3.06574 0
M  V30 4303 H 434.112 -0.515444 -3.88697 0
M  V30 4304 H 435.602 0.438344 -4.15293 0
M  V30 4305 N 436.039 1.36541 -0.78704 0
M  V30 4306 C 437.285 1.99599 -0.358872 0
M  V30 4307 C 437.618 1.62323 1.06606 0
M  V30 4308 O 436.893 0.876858 1.73613 0
M  V30 4309 C 437.176 3.56327 -0.519944 0
M  V30 4310 C 437.029 4.03464 -1.98839 0
M  V30 4311 C 438.348 4.4005 0.0664737 0
M  V30 4312 H 435.467 0.725107 -0.131869 0
M  V30 4313 H 438.109 1.6199 -0.992936 0
M  V30 4314 H 436.259 3.88495 0.0198321 0
M  V30 4315 H 437.931 3.81793 -2.58905 0
M  V30 4316 H 436.174 3.55092 -2.49183 0
M  V30 4317 H 436.845 5.12439 -2.05207 0
M  V30 4318 H 439.321 4.14228 -0.394267 0
M  V30 4319 H 438.197 5.48847 -0.0762682 0
M  V30 4320 H 438.458 4.26655 1.15835 0
M  V30 4321 N 437.518 0.538854 1.48102 0
M  V30 4322 C 438.766 0.00798599 2.02098 0
M  V30 4323 C 439.087 -1.33922 1.41739 0
M  V30 4324 O 438.357 -1.86932 0.585934 0
M  V30 4325 H 436.937 -3.62179e-05 0.747 0
M  V30 4326 H 439.599 0.7047 1.81714 0
M  V30 4327 H 438.695 -0.0937672 3.11959 0
M  V30 4328 N 438.996 -1.55193 0.274407 0
M  V30 4329 C 440.244 -1.99187 -0.341902 0
M  V30 4330 C 440.565 -1.16422 -1.56431 0
M  V30 4331 O 439.835 -0.253573 -1.94252 0
M  V30 4332 H 438.415 -0.735721 -0.129317 0
M  V30 4333 H 441.077 -1.91168 0.379578 0
M  V30 4334 H 440.173 -3.05629 -0.632253 0
M  V30 4335 N 440.474 -0.00167713 -1.576 0
M  V30 4336 C 441.714 0.687302 -1.92498 0
M  V30 4337 C 442.078 1.70844 -0.876144 0
M  V30 4338 O 443.279 2.44792 -1.11043 0
M  V30 4339 C 441.55 1.31217 -3.32441 0
M  V30 4340 S 443.109 2.02604 -3.89226 0
M  V30 4341 H 439.927 0.226985 -0.673794 0
M  V30 4342 H 442.529 -0.0587666 -1.95412 0
M  V30 4343 H 441.233 0.556164 -4.06614 0
M  V30 4344 H 440.764 2.09613 -3.32905 0
M  V30 4345 H 442.779 3.30137 -3.70438 0
M  V30 4346 N 441.952 1.55251 0.271103 0
M  V30 4347 C 443.368 1.47133 0.618393 0
M  V30 4348 C 443.568 0.686994 1.89427 0
M  V30 4349 O 442.624 0.206609 2.51653 0
M  V30 4350 C 443.937 2.91361 0.743593 0
M  V30 4351 C 445.485 3.01587 0.837522 0
M  V30 4352 C 445.96 4.47073 0.994483 0
M  V30 4353 N 447.451 4.50909 1.05996 0
M  V30 4354 C 448.186 5.60698 1.20024 0
M  V30 4355 N 447.682 6.80348 1.30759 0
M  V30 4356 N 449.475 5.48444 1.23149 0
M  V30 4357 H 441.626 2.04698 -0.566784 0
M  V30 4358 H 443.889 0.928319 -0.192165 0
M  V30 4359 H 443.595 3.51483 -0.123493 0
M  V30 4360 H 443.469 3.40484 1.62328 0
M  V30 4361 H 445.856 2.4156 1.69507 0
M  V30 4362 H 445.937 2.55713 -0.0668086 0
M  V30 4363 H 445.581 5.07703 0.141582 0
M  V30 4364 H 445.511 4.90605 1.91349 0
M  V30 4365 H 448.002 3.6472 0.989316 0
M  V30 4366 H 448.315 7.59772 1.41303 0
M  V30 4367 H 446.66 6.83156 1.27761 0
M  V30 4368 H 449.851 4.53907 1.14394 0
M  V30 4369 H 450.024 6.34049 1.33738 0
M  V30 4370 N 443.43 -0.535701 1.48216 0
M  V30 4371 C 444.67 -1.30238 1.57536 0
M  V30 4372 C 445.034 -1.90479 0.241229 0
M  V30 4373 O 446.235 -2.67983 0.20938 0
M  V30 4374 C 444.506 -2.3669 2.67792 0
M  V30 4375 S 446.065 -3.23159 2.9684 0
M  V30 4376 H 442.883 -0.443093 0.556048 0
M  V30 4377 H 445.485 -0.610937 1.85709 0
M  V30 4378 H 444.189 -1.90905 3.63296 0
M  V30 4379 H 443.72 -3.10548 2.41502 0
M  V30 4380 H 445.735 -4.36647 2.35699 0
M  V30 4381 N 444.908 -1.36708 -0.784132 0
M  V30 4382 C 445.84 -1.27333 -1.90575 0
M  V30 4383 C 446.853 -0.191706 -1.61667 0
M  V30 4384 O 448.042 -0.446854 -1.72816 0
M  V30 4385 C 445.142 -0.943177 -3.25511 0
M  V30 4386 C 444.315 -2.12776 -3.82158 0
M  V30 4387 C 443.374 -1.76983 -4.95544 0
M  V30 4388 O 442.4 -2.49134 -5.11782 0
M  V30 4389 N 443.602 -0.706624 -5.76183 0
M  V30 4390 H 446.367 -2.23974 -1.99138 0
M  V30 4391 H 443.928 -1.30171 -0.962656 0
M  V30 4392 H 445.92 -0.684799 -3.98864 0
M  V30 4393 H 444.49 -0.0657333 -3.12531 0
M  V30 4394 H 443.71 -2.54863 -3.0073 0
M  V30 4395 H 444.998 -2.91904 -4.16737 0
M  V30 4396 H 444.396 -0.107643 -5.65598 0
M  V30 4397 H 442.953 -0.50808 -6.49817 0
M  V30 4398 N 446.386 1.0089 -1.21074 0
M  V30 4399 C 447.797 1.56056 -1.02486 0
M  V30 4400 C 448.148 1.91728 0.416506 0
M  V30 4401 O 447.273 1.73066 1.29912 0
M  V30 4402 C 447.868 2.83563 -1.85411 0
M  V30 4403 C 446.427 3.3523 -1.71166 0
M  V30 4404 C 445.574 2.0846 -1.82865 0
M  V30 4405 H 448.525 0.831818 -1.35154 0
M  V30 4406 H 448.546 3.55286 -1.36205 0
M  V30 4407 H 448.058 2.57569 -2.9031 0
M  V30 4408 H 446.159 3.66167 -0.689361 0
M  V30 4409 H 446.272 4.06913 -2.52901 0
M  V30 4410 H 444.636 2.21275 -1.26132 0
M  V30 4411 H 445.419 1.84883 -2.89263 0
M  V30 4412 N 447.864 1.01787 1.20321 0
M  V30 4413 C 449.112 0.706538 1.89347 0
M  V30 4414 C 449.433 -0.766289 1.79313 0
M  V30 4415 O 448.703 -1.55126 1.19635 0
M  V30 4416 H 447.283 0.258348 0.700903 0
M  V30 4417 H 449.945 1.28974 1.46122 0
M  V30 4418 H 449.041 0.991066 2.95946 0
M  V30 4419 N 449.342 -1.36122 0.79427 0
M  V30 4420 C 450.572 -2.03067 0.380437 0
M  V30 4421 C 450.98 -1.60018 -1.00949 0
M  V30 4422 O 450.323 -0.787425 -1.65968 0
M  V30 4423 C 450.385 -3.57587 0.37034 0
M  V30 4424 C 450.049 -4.23855 1.70867 0
M  V30 4425 C 451.046 -4.46404 2.66496 0
M  V30 4426 C 448.731 -4.61229 1.9893 0
M  V30 4427 C 450.725 -5.05412 3.88378 0
M  V30 4428 C 448.412 -5.19953 3.21079 0
M  V30 4429 C 449.41 -5.41985 4.15621 0
M  V30 4430 O 449.098 -5.99475 5.35616 0
M  V30 4431 H 448.83 -0.658168 0.154243 0
M  V30 4432 H 451.384 -1.7498 1.0757 0
M  V30 4433 H 449.614 -3.84814 -0.381444 0
M  V30 4434 H 451.303 -4.05895 -0.0194894 0
M  V30 4435 H 452.069 -4.17921 2.46103 0
M  V30 4436 H 447.948 -4.43402 1.26158 0
M  V30 4437 H 451.492 -5.22524 4.62185 0
M  V30 4438 H 447.389 -5.47862 3.41347 0
M  V30 4439 H 448.157 -6.17937 5.36745 0
M  V30 4440 N 450.82 -0.546701 -1.47814 0
M  V30 4441 C 451.752 0.244196 -2.27895 0
M  V30 4442 C 452.765 0.88911 -1.36377 0
M  V30 4443 O 453.954 0.764733 -1.61289 0
M  V30 4444 C 451.054 1.36252 -3.10304 0
M  V30 4445 C 450.227 0.816382 -4.29714 0
M  V30 4446 C 449.286 1.81789 -4.93801 0
M  V30 4447 O 448.312 1.36818 -5.52512 0
M  V30 4448 N 449.514 3.15085 -4.87547 0
M  V30 4449 H 452.279 -0.442694 -2.96412 0
M  V30 4450 H 449.84 -0.382095 -1.57327 0
M  V30 4451 H 451.832 2.03102 -3.50045 0
M  V30 4452 H 450.402 1.95281 -2.44099 0
M  V30 4453 H 449.622 -0.0285981 -3.9419 0
M  V30 4454 H 450.91 0.430668 -5.06974 0
M  V30 4455 H 450.308 3.54275 -4.41028 0
M  V30 4456 H 448.865 3.77522 -5.31339 0
M  V30 4457 N 452.299 1.55045 -0.282633 0
M  V30 4458 C 453.71 1.85473 0.213655 0
M  V30 4459 C 454.061 1.20465 1.54863 0
M  V30 4460 O 453.186 0.495676 2.10647 0
M  V30 4461 C 453.781 3.36496 0.394445 0
M  V30 4462 C 452.34 3.67022 0.834961 0
M  V30 4463 C 451.487 2.77218 -0.0674081 0
M  V30 4464 H 454.438 1.50478 -0.504202 0
M  V30 4465 H 454.459 3.60007 1.23186 0
M  V30 4466 H 453.971 3.83782 -0.577326 0
M  V30 4467 H 452.072 3.25241 1.81794 0
M  V30 4468 H 452.185 4.74433 0.667075 0
M  V30 4469 H 450.549 2.5069 0.450196 0
M  V30 4470 H 451.332 3.2732 -1.0352 0
M  V30 4471 N 453.777 0.010035 1.57597 0
M  V30 4472 C 454.74 -0.963029 2.07986 0
M  V30 4473 C 455.74 -1.26619 0.991173 0
M  V30 4474 O 456.93 -1.2097 1.25347 0
M  V30 4475 C 454.062 -2.2851 2.52974 0
M  V30 4476 H 455.255 -0.526971 2.95234 0
M  V30 4477 H 452.808 -0.237639 1.54483 0
M  V30 4478 H 453.543 -2.76784 1.69 0
M  V30 4479 H 453.328 -2.07824 3.32493 0
M  V30 4480 H 454.818 -2.98294 2.9225 0
M  V30 4481 N 455.255 -1.55392 -0.262866 0
M  V30 4482 C 456.671 -1.47459 -0.610582 0
M  V30 4483 C 456.871 -0.697031 -1.8906 0
M  V30 4484 O 455.927 -0.219952 -2.5154 0
M  V30 4485 C 457.24 -2.91751 -0.728131 0
M  V30 4486 C 458.788 -3.02027 -0.821517 0
M  V30 4487 C 459.263 -4.47594 -0.97076 0
M  V30 4488 N 460.754 -4.51465 -1.03603 0
M  V30 4489 C 461.489 -5.61326 -1.17049 0
M  V30 4490 N 460.985 -6.81032 -1.2715 0
M  V30 4491 N 462.778 -5.49089 -1.20239 0
M  V30 4492 H 454.929 -2.04395 0.577632 0
M  V30 4493 H 457.192 -0.927287 0.197086 0
M  V30 4494 H 456.898 -3.51413 0.142132 0
M  V30 4495 H 456.772 -3.4134 -1.6052 0
M  V30 4496 H 459.159 -2.42456 -1.68224 0
M  V30 4497 H 459.24 -2.55674 0.0803688 0
M  V30 4498 H 458.884 -5.07771 -0.114655 0
M  V30 4499 H 458.814 -4.91613 -1.88745 0
M  V30 4500 H 461.305 -3.6524 -0.96996 0
M  V30 4501 H 461.618 -7.60511 -1.37271 0
M  V30 4502 H 459.963 -6.83824 -1.24136 0
M  V30 4503 H 463.154 -4.54507 -1.11985 0
M  V30 4504 H 463.327 -6.34749 -1.30373 0
M  V30 4505 N 456.733 0.527833 -1.48498 0
M  V30 4506 C 457.981 1.28101 -1.56316 0
M  V30 4507 C 458.302 1.9352 -0.239781 0
M  V30 4508 O 457.572 1.81433 0.738849 0
M  V30 4509 H 456.152 0.475793 -0.575873 0
M  V30 4510 H 458.814 0.614052 -1.84974 0
M  V30 4511 H 457.91 2.05916 -2.34532 0
M  V30 4512 N 458.211 1.37122 0.776871 0
M  V30 4513 C 459.488 1.22586 1.52421 0
M  V30 4514 C 459.868 -0.182726 2.10308 0
M  V30 4515 O 459.216 -1.18979 1.9508 0
M  V30 4516 C 459.426 2.31782 2.60918 0
M  V30 4517 C 460.774 2.69071 3.2846 0
M  V30 4518 O 461.798 2.3092 2.71209 0
M  V30 4519 O 460.657 3.3478 4.31954 0
M  V30 4520 H 457.751 0.478045 0.674835 0
M  V30 4521 H 460.297 1.48888 0.814275 0
M  V30 4522 H 459.069 3.26131 2.16227 0
M  V30 4523 H 458.692 2.06916 3.39517 0
M  V30 4524 N 459.689 -1.00246 1.21608 0
M  V30 4525 C 460.636 -2.09073 0.977613 0
M  V30 4526 C 461.606 -1.65815 -0.097297 0
M  V30 4527 O 462.791 -1.90734 0.0503445 0
M  V30 4528 C 459.931 -3.40671 0.551133 0
M  V30 4529 C 459.044 -3.97326 1.69576 0
M  V30 4530 C 458.179 -5.17043 1.2182 0
M  V30 4531 C 457.218 -5.65813 2.335 0
M  V30 4532 N 456.355 -6.76778 1.86859 0
M  V30 4533 H 461.195 -2.28806 1.90924 0
M  V30 4534 H 458.732 -1.12186 0.951452 0
M  V30 4535 H 460.69 -4.16225 0.285097 0
M  V30 4536 H 459.32 -3.20967 -0.343489 0
M  V30 4537 H 458.372 -3.18734 2.07637 0
M  V30 4538 H 459.684 -4.29511 2.53617 0
M  V30 4539 H 458.838 -5.99852 0.908975 0
M  V30 4540 H 457.577 -4.86458 0.347869 0
M  V30 4541 H 456.582 -4.81599 2.65222 0
M  V30 4542 H 457.807 -5.98427 3.21033 0
M  V30 4543 H 455.753 -6.47994 1.02174 0
M  V30 4544 H 455.67 -7.08231 2.64471 0
M  V30 4545 H 456.938 -7.63116 1.58978 0
M  V30 4546 N 461.167 -1.02423 -1.1978 0
M  V30 4547 C 462.13 -0.605703 -2.21052 0
M  V30 4548 C 463.13 0.328209 -1.57415 0
M  V30 4549 O 464.32 0.115853 -1.73814 0
M  V30 4550 C 461.452 0.114366 -3.40708 0
M  V30 4551 H 462.645 -1.5017 -2.59594 0
M  V30 4552 H 460.198 -0.814888 -1.33376 0
M  V30 4553 H 460.933 1.02492 -3.07678 0
M  V30 4554 H 460.718 -0.556641 -3.88129 0
M  V30 4555 H 462.208 0.394272 -4.15735 0
M  V30 4556 N 462.645 1.35699 -0.801477 0
M  V30 4557 C 463.885 2.00741 -0.385027 0
M  V30 4558 C 464.249 1.62213 1.02718 0
M  V30 4559 O 465.45 2.19936 1.54537 0
M  V30 4560 C 463.721 3.53032 -0.557057 0
M  V30 4561 S 465.28 4.38195 -0.230272 0
M  V30 4562 H 462.098 0.695748 -0.146477 0
M  V30 4563 H 464.7 1.65378 -1.04261 0
M  V30 4564 H 463.404 3.7856 -1.58494 0
M  V30 4565 H 462.935 3.93229 0.116029 0
M  V30 4566 H 464.95 4.86748 0.963895 0
M  V30 4567 N 464.123 0.554532 1.47522 0
M  V30 4568 C 465.055 -0.232106 2.28022 0
M  V30 4569 C 466.068 -0.881865 1.36847 0
M  V30 4570 O 467.257 -0.756168 1.61692 0
M  V30 4571 C 464.357 -1.34604 3.11022 0
M  V30 4572 C 463.53 -0.793582 4.30141 0
M  V30 4573 C 462.589 -1.79168 4.94758 0
M  V30 4574 O 461.615 -1.33886 5.5323 0
M  V30 4575 N 462.817 -3.12495 4.89211 0
M  V30 4576 H 465.582 0.458407 2.96173 0
M  V30 4577 H 463.143 0.390433 1.57122 0
M  V30 4578 H 465.135 -2.01243 3.51118 0
M  V30 4579 H 463.705 -1.93983 2.45131 0
M  V30 4580 H 462.925 0.0495025 3.94169 0
M  V30 4581 H 464.213 -0.403776 5.07195 0
M  V30 4582 H 463.611 -3.51931 4.42901 0
M  V30 4583 H 462.168 -3.74698 5.33333 0
M  V30 4584 N 465.601 -1.54893 0.290851 0
M  V30 4585 C 466.564 -2.21824 -0.576784 0
M  V30 4586 C 467.564 -1.20104 -1.06919 0
M  V30 4587 O 468.754 -1.44906 -0.966843 0
M  V30 4588 C 465.886 -2.89662 -1.79747 0
M  V30 4589 H 467.079 -2.99899 0.00784051 0
M  V30 4590 H 464.632 -1.56245 0.0415934 0
M  V30 4591 H 465.367 -2.15639 -2.42219 0
M  V30 4592 H 465.152 -3.64219 -1.45214 0
M  V30 4593 H 466.642 -3.4075 -2.4141 0
M  V30 4594 N 467.08 -0.0183926 -1.57589 0
M  V30 4595 C 468.32 0.666846 -1.93216 0
M  V30 4596 C 468.684 1.69905 -0.894215 0
M  V30 4597 O 469.885 2.436 -1.13633 0
M  V30 4598 C 468.156 1.27684 -3.33814 0
M  V30 4599 S 469.715 1.98464 -3.91353 0
M  V30 4600 H 466.533 0.219826 -0.676164 0
M  V30 4601 H 469.135 -0.0794893 -1.95338 0
M  V30 4602 H 467.839 0.513006 -4.07181 0
M  V30 4603 H 467.37 2.06071 -3.3511 0
M  V30 4604 H 469.385 3.26189 -3.73918 0
M  V30 4605 N 468.558 1.5553 0.254621 0
M  V30 4606 C 469.969 1.67518 0.824286 0
M  V30 4607 C 470.32 0.614429 1.86331 0
M  V30 4608 O 469.445 -0.240736 2.15057 0
M  V30 4609 C 470.04 3.03692 1.50189 0
M  V30 4610 C 468.599 3.17646 2.01935 0
M  V30 4611 C 467.746 2.63373 0.867746 0
M  V30 4612 H 470.697 1.58671 0.0305843 0
M  V30 4613 H 470.718 2.97706 2.36962 0
M  V30 4614 H 470.23 3.80874 0.745431 0
M  V30 4615 H 468.331 2.45273 2.80485 0
M  V30 4616 H 468.444 4.24455 2.22204 0
M  V30 4617 H 466.808 2.20999 1.26616 0
M  V30 4618 H 467.591 3.43074 0.124498 0
M  V30 4619 N 470.036 -0.519951 1.48776 0
M  V30 4620 C 471.452 -0.849418 1.35119 0
M  V30 4621 C 471.652 -1.98077 0.36982 0
M  V30 4622 O 470.708 -2.51664 -0.205359 0
M  V30 4623 C 472.021 -1.20748 2.75391 0
M  V30 4624 C 473.569 -1.31679 2.83954 0
M  V30 4625 C 474.044 -1.70824 4.24951 0
M  V30 4626 N 475.535 -1.77908 4.27672 0
M  V30 4627 C 476.27 -2.09603 5.33717 0
M  V30 4628 N 475.766 -2.39652 6.5003 0
M  V30 4629 N 477.559 -2.10694 5.21119 0
M  V30 4630 H 469.71 0.226377 2.1119 0
M  V30 4631 H 471.973 0.0386519 0.947212 0
M  V30 4632 H 471.679 -0.449703 3.48813 0
M  V30 4633 H 471.553 -2.15534 3.09556 0
M  V30 4634 H 473.94 -2.06532 2.10781 0
M  V30 4635 H 474.021 -0.3499 2.53396 0
M  V30 4636 H 473.665 -0.965282 4.98643 0
M  V30 4637 H 473.595 -2.6858 4.52959 0
M  V30 4638 H 476.086 -1.56923 3.43779 0
M  V30 4639 H 476.399 -2.6297 7.26682 0
M  V30 4640 H 474.744 -2.37149 6.53288 0
M  V30 4641 H 477.935 -1.86682 4.29264 0
M  V30 4642 H 478.108 -2.35062 6.03863 0
M  V30 4643 N 471.514 -1.37532 -0.769588 0
M  V30 4644 C 472.762 -1.32597 -1.5252 0
M  V30 4645 C 473.083 0.0884294 -1.94799 0
M  V30 4646 O 472.353 1.03289 -1.66458 0
M  V30 4647 H 470.933 -0.487846 -0.565699 0
M  V30 4648 H 473.595 -1.72044 -0.915806 0
M  V30 4649 H 472.691 -1.96643 -2.42359 0
M  V30 4650 N 472.992 0.995999 -1.22138 0
M  V30 4651 C 473.922 2.10387 -1.01289 0
M  V30 4652 C 474.903 1.69975 0.0651454 0
M  V30 4653 O 476.088 1.9396 -0.0964628 0
M  V30 4654 C 473.218 3.42312 -0.586517 0
M  V30 4655 C 472.172 3.96558 -1.61014 0
M  V30 4656 C 471.498 5.24494 -1.0397 0
M  V30 4657 C 472.798 4.27595 -2.99933 0
M  V30 4658 H 474.492 2.28086 -1.93951 0
M  V30 4659 H 472.038 1.09607 -0.933928 0
M  V30 4660 H 473.991 4.19223 -0.427793 0
M  V30 4661 H 472.715 3.24431 0.375761 0
M  V30 4662 H 471.374 3.21776 -1.75658 0
M  V30 4663 H 471.022 5.02953 -0.0688703 0
M  V30 4664 H 470.722 5.61755 -1.72352 0
M  V30 4665 H 472.246 6.04042 -0.892494 0
M  V30 4666 H 473.66 4.95315 -2.8868 0
M  V30 4667 H 472.057 4.76021 -3.6541 0
M  V30 4668 H 473.127 3.35498 -3.50099 0
M  V30 4669 N 474.47 1.03057 1.19235 0
M  V30 4670 C 475.7 0.746613 1.92638 0
M  V30 4671 C 476.108 -0.698708 1.75826 0
M  V30 4672 O 475.451 -1.487 1.07861 0
M  V30 4673 C 475.513 1.02024 3.44719 0
M  V30 4674 C 475.177 2.45745 3.85303 0
M  V30 4675 C 476.174 3.43887 3.8992 0
M  V30 4676 C 473.859 2.8019 4.16892 0
M  V30 4677 C 475.853 4.74529 4.2556 0
M  V30 4678 C 473.54 4.1104 4.52205 0
M  V30 4679 C 474.538 5.0802 4.56513 0
M  V30 4680 O 474.226 6.36527 4.91008 0
M  V30 4681 H 473.958 0.272401 0.618687 0
M  V30 4682 H 476.512 1.37853 1.52269 0
M  V30 4683 H 474.742 0.331184 3.85279 0
M  V30 4684 H 476.431 0.725677 3.9936 0
M  V30 4685 H 477.197 3.18614 3.65664 0
M  V30 4686 H 473.076 2.05382 4.12722 0
M  V30 4687 H 476.62 5.50222 4.28838 0
M  V30 4688 H 472.517 4.36086 4.7592 0
M  V30 4689 H 473.285 6.41025 5.08949 0
M  V30 4690 N 475.948 -1.35272 0.808662 0
M  V30 4691 C 476.895 -2.29764 0.218482 0
M  V30 4692 C 477.865 -1.52911 -0.648652 0
M  V30 4693 O 479.05 -1.81341 -0.593297 0
M  V30 4694 C 476.19 -3.39388 -0.625282 0
M  V30 4695 C 475.303 -4.31202 0.262516 0
M  V30 4696 C 474.438 -5.27919 -0.589451 0
M  V30 4697 C 473.477 -6.11371 0.298617 0
M  V30 4698 N 472.614 -7.0022 -0.513443 0
M  V30 4699 H 477.454 -2.79645 1.02968 0
M  V30 4700 H 474.991 -1.37629 0.519303 0
M  V30 4701 H 476.949 -4.01615 -1.12966 0
M  V30 4702 H 475.579 -2.90777 -1.40173 0
M  V30 4703 H 474.631 -3.69962 0.885013 0
M  V30 4704 H 475.943 -4.89748 0.945971 0
M  V30 4705 H 475.097 -5.95529 -1.15888 0
M  V30 4706 H 473.836 -4.69875 -1.30647 0
M  V30 4707 H 472.841 -5.42707 0.880301 0
M  V30 4708 H 474.066 -6.71494 1.01352 0
M  V30 4709 H 472.012 -6.44662 -1.21439 0
M  V30 4710 H 471.929 -7.55917 0.111922 0
M  V30 4711 H 473.197 -7.72175 -1.06608 0
M  V30 4712 N 477.426 -0.562348 -1.47226 0
M  V30 4713 C 478.651 -0.0432632 -2.07355 0
M  V30 4714 C 479.076 1.24332 -1.41149 0
M  V30 4715 O 478.434 1.74603 -0.488226 0
M  V30 4716 C 478.482 0.130288 -3.60365 0
M  V30 4717 O 477.586 1.19166 -3.94808 0
M  V30 4718 H 476.927 -0.0536334 -0.66183 0
M  V30 4719 H 479.457 -0.779495 -1.89169 0
M  V30 4720 H 479.467 0.342881 -4.06557 0
M  V30 4721 H 478.142 -0.809389 -4.07948 0
M  V30 4722 H 476.719 0.959153 -3.60354 0
M  V30 4723 N 478.904 1.54736 -0.299062 0
M  V30 4724 C 480.129 2.04975 0.316254 0
M  V30 4725 C 480.554 1.17501 1.46885 0
M  V30 4726 O 479.912 0.178678 1.80417 0
M  V30 4727 C 479.96 3.52672 0.751997 0
M  V30 4728 O 479.064 3.68226 1.85697 0
M  V30 4729 H 478.405 0.661126 0.0617175 0
M  V30 4730 H 480.935 1.99805 -0.440341 0
M  V30 4731 H 480.945 3.94488 1.04133 0
M  V30 4732 H 479.62 4.158 -0.0911482 0
M  V30 4733 H 478.197 3.38316 1.56834 0
M  V30 4734 N 480.382 0.0267497 1.57577 0
M  V30 4735 C 481.345 -0.940916 2.08996 0
M  V30 4736 C 482.345 -1.25561 1.00455 0
M  V30 4737 O 483.535 -1.19634 1.26623 0
M  V30 4738 C 480.667 -2.25814 2.55384 0
M  V30 4739 H 481.86 -0.495628 2.95776 0
M  V30 4740 H 479.413 -0.221241 1.54726 0
M  V30 4741 H 480.148 -2.74976 1.71926 0
M  V30 4742 H 479.933 -2.04285 3.34679 0
M  V30 4743 H 481.423 -2.95178 2.95398 0
M  V30 4744 N 481.861 -1.55662 -0.24637 0
M  V30 4745 C 483.109 -1.77168 -0.972411 0
M  V30 4746 C 483.43 -0.590827 -1.85834 0
M  V30 4747 O 482.7 0.393365 -1.9191 0
M  V30 4748 H 481.28 -0.653405 -0.362038 0
M  V30 4749 H 483.942 -1.93101 -0.264189 0
M  V30 4750 H 483.038 -2.68335 -1.59382 0
M  V30 4751 N 483.339 0.512053 -1.4905 0
M  V30 4752 C 484.287 1.63568 -1.65373 0
M  V30 4753 C 485.281 1.61228 -0.519806 0
M  V30 4754 O 486.487 1.65869 -0.699101 0
M  V30 4755 H 482.862 0.542019 -0.521267 0
M  V30 4756 H 484.833 1.4695 -2.59708 0
M  V30 4757 C 483.582 3.01761 -1.7273 0
M  V30 4758 H 482.905 3.04263 -2.59353 0
M  V30 4759 H 484.345 3.79948 -1.8819 0
M  V30 4760 C 482.804 3.33609 -0.46973 0
M  V30 4761 O 483.334 3.99607 0.409492 0
M  V30 4762 N 481.54 2.88651 -0.336003 0
M  V30 4763 H 481.087 2.35119 -1.05247 0
M  V30 4764 H 481.045 3.10328 0.504363 0
M  V30 4765 N 484.817 1.37938 0.762283 0
M  V30 4766 C 485.78 1.34279 1.85747 0
M  V30 4767 C 486.78 0.244969 1.58923 0
M  V30 4768 O 487.97 0.501365 1.66829 0
M  V30 4769 C 485.102 1.08833 3.23061 0
M  V30 4770 H 486.295 2.31705 1.90401 0
M  V30 4771 H 483.848 1.23105 0.963057 0
M  V30 4772 H 484.583 0.119767 3.24079 0
M  V30 4773 H 484.368 1.88306 3.43923 0
M  V30 4774 H 485.858 1.08946 4.03138 0
M  V30 4775 N 486.295 -0.989507 1.22664 0
M  V30 4776 C 487.706 -1.54406 1.04955 0
M  V30 4777 C 488.057 -1.92366 -0.385951 0
M  V30 4778 O 487.182 -1.75111 -1.27142 0
M  V30 4779 C 487.777 -2.80578 1.89899 0
M  V30 4780 C 486.336 -3.32464 1.76478 0
M  V30 4781 C 485.483 -2.05524 1.86159 0
M  V30 4782 H 488.434 -0.810211 1.3646 0
M  V30 4783 H 488.455 -3.53075 1.4184 0
M  V30 4784 H 487.967 -2.52918 2.94371 0
M  V30 4785 H 486.068 -3.65024 0.747528 0
M  V30 4786 H 486.181 -4.02838 2.59342 0
M  V30 4787 H 484.545 -2.19241 1.29636 0
M  V30 4788 H 485.328 -1.80258 2.92168 0
M  V30 4789 N 487.773 -1.03688 -1.18687 0
M  V30 4790 C 489.013 -0.746858 -1.90267 0
M  V30 4791 C 489.377 0.712075 -1.78307 0
M  V30 4792 O 490.578 1.11553 -2.44559 0
M  V30 4793 C 488.849 -1.19543 -3.36815 0
M  V30 4794 S 490.408 -1.03047 -4.26529 0
M  V30 4795 H 487.226 -0.271663 -0.657054 0
M  V30 4796 H 489.828 -1.32838 -1.43437 0
M  V30 4797 H 488.532 -2.2527 -3.43047 0
M  V30 4798 H 488.063 -0.607533 -3.88681 0
M  V30 4799 H 490.078 0.0543232 -4.9617 0
M  V30 4800 N 489.251 1.34841 -0.815825 0
M  V30 4801 C 490.476 2.03261 -0.41226 0
M  V30 4802 C 490.901 1.61055 0.971751 0
M  V30 4803 O 490.259 0.7917 1.63101 0
M  V30 4804 C 490.307 3.56914 -0.514289 0
M  V30 4805 O 489.411 4.09728 0.468675 0
M  V30 4806 H 488.752 0.641664 -0.170771 0
M  V30 4807 H 491.282 1.72241 -1.10427 0
M  V30 4808 H 491.292 4.06156 -0.387457 0
M  V30 4809 H 489.967 3.86982 -1.52375 0
M  V30 4810 H 488.544 3.71681 0.301316 0
M  V30 4811 N 490.729 0.570148 1.46925 0
M  V30 4812 C 492.14 0.1402 1.86173 0
M  V30 4813 C 492.491 -1.29347 1.47526 0
M  V30 4814 O 491.616 -1.97508 0.884292 0
M  V30 4815 C 492.211 0.247661 3.37894 0
M  V30 4816 C 490.77 -0.127332 3.76185 0
M  V30 4817 C 489.917 0.589349 2.70965 0
M  V30 4818 H 492.868 0.779117 1.38259 0
M  V30 4819 H 492.889 -0.530341 3.76786 0
M  V30 4820 H 492.401 1.29121 3.65991 0
M  V30 4821 H 490.502 -1.17149 3.53704 0
M  V30 4822 H 490.615 0.240238 4.78497 0
M  V30 4823 H 488.979 0.0309824 2.54681 0
M  V30 4824 H 489.762 1.6343 3.01903 0
M  V30 4825 N 492.207 -1.54576 0.307264 0
M  V30 4826 C 493.447 -2.02172 -0.300962 0
M  V30 4827 C 493.811 -1.19081 -1.50611 0
M  V30 4828 O 495.012 -1.56405 -2.18612 0
M  V30 4829 C 493.283 -3.51576 -0.642591 0
M  V30 4830 S 494.842 -4.21127 -1.23279 0
M  V30 4831 H 491.66 -0.705021 -0.0920141 0
M  V30 4832 H 494.262 -1.90563 0.436594 0
M  V30 4833 H 492.966 -4.09681 0.242901 0
M  V30 4834 H 492.497 -3.67234 -1.41077 0
M  V30 4835 H 494.512 -4.27426 -2.52034 0
M  V30 4836 N 493.685 -0.035106 -1.57561 0
M  V30 4837 C 495.096 0.502885 -1.798 0
M  V30 4838 C 495.447 1.71892 -0.945921 0
M  V30 4839 O 494.572 2.15822 -0.157991 0
M  V30 4840 C 495.167 0.919097 -3.26095 0
M  V30 4841 C 493.726 1.40216 -3.49308 0
M  V30 4842 C 492.873 0.369709 -2.74824 0
M  V30 4843 H 495.824 -0.261102 -1.56537 0
M  V30 4844 H 495.845 1.78308 -3.36135 0
M  V30 4845 H 495.357 0.0338526 -3.88085 0
M  V30 4846 H 493.458 2.30714 -2.92578 0
M  V30 4847 H 493.571 1.40541 -4.58023 0
M  V30 4848 H 491.935 0.839113 -2.40481 0
M  V30 4849 H 492.718 -0.507173 -3.39533 0
M  V30 4850 N 495.163 1.55791 0.238111 0
M  V30 4851 C 496.126 1.90239 1.27835 0
M  V30 4852 C 497.126 0.779552 1.4064 0
M  V30 4853 O 498.316 1.04747 1.3919 0
M  V30 4854 C 495.448 2.13859 2.65475 0
M  V30 4855 H 496.641 2.83262 0.985034 0
M  V30 4856 H 494.194 1.48818 0.477799 0
M  V30 4857 H 494.929 1.23334 2.99932 0
M  V30 4858 H 494.714 2.95643 2.57561 0
M  V30 4859 H 496.204 2.41664 3.40571 0
M  V30 4860 N 496.642 -0.504142 1.49319 0
M  V30 4861 C 498.058 -0.835039 1.36012 0
M  V30 4862 C 498.258 -1.97674 0.390808 0
M  V30 4863 O 497.314 -2.51867 -0.178655 0
M  V30 4864 C 498.627 -1.17821 2.76656 0
M  V30 4865 C 500.175 -1.2866 2.85334 0
M  V30 4866 C 500.65 -1.66307 4.26739 0
M  V30 4867 N 502.141 -1.73362 4.29534 0
M  V30 4868 C 502.876 -2.0393 5.35911 0
M  V30 4869 N 502.372 -2.32744 6.52535 0
M  V30 4870 N 504.165 -2.05155 5.23324 0
M  V30 4871 H 496.316 0.248764 2.10938 0
M  V30 4872 H 498.579 0.0486962 0.946748 0
M  V30 4873 H 498.285 -0.412682 3.4927 0
M  V30 4874 H 498.159 -2.12239 3.11825 0
M  V30 4875 H 500.546 -2.04285 2.1296 0
M  V30 4876 H 500.627 -0.323004 2.53752 0
M  V30 4877 H 500.271 -0.91234 4.99639 0
M  V30 4878 H 500.201 -2.63761 4.55782 0
M  V30 4879 H 502.692 -1.53268 3.45424 0
M  V30 4880 H 503.005 -2.55248 7.2943 0
M  V30 4881 H 501.35 -2.30207 6.55767 0
M  V30 4882 H 504.541 -1.82119 4.3122 0
M  V30 4883 H 504.714 -2.28644 6.06322 0
M  V30 4884 N 498.12 -1.38341 -0.754957 0
M  V30 4885 C 499.345 -1.37882 -1.5493 0
M  V30 4886 C 499.77 0.0296385 -1.88077 0
M  V30 4887 O 499.128 1.01133 -1.50472 0
M  V30 4888 C 499.176 -2.23996 -2.82592 0
M  V30 4889 O 498.28 -1.65612 -3.77686 0
M  V30 4890 H 497.621 -0.470384 -0.468652 0
M  V30 4891 H 500.151 -1.82084 -0.933082 0
M  V30 4892 H 500.161 -2.37806 -3.3153 0
M  V30 4893 H 498.836 -3.26365 -2.57796 0
M  V30 4894 H 497.413 -1.60936 -3.36384 0
M  V30 4895 N 499.598 0.982988 -1.23187 0
M  V30 4896 C 500.548 2.05962 -0.977942 0
M  V30 4897 C 501.532 1.60725 0.0751148 0
M  V30 4898 O 502.724 1.76471 -0.136683 0
M  V30 4899 C 499.853 3.38564 -0.568276 0
M  V30 4900 C 498.939 3.90407 -1.6566 0
M  V30 4901 N 499.33 4.15359 -2.88635 0
M  V30 4902 C 497.628 4.18915 -1.53058 0
M  V30 4903 C 498.329 4.57642 -3.5908 0
M  V30 4904 N 497.305 4.6192 -2.86584 0
M  V30 4905 H 501.107 2.23208 -1.91195 0
M  V30 4906 H 498.621 1.16555 -1.13087 0
M  V30 4907 H 500.618 4.15276 -0.36764 0
M  V30 4908 H 499.278 3.22712 0.358713 0
M  V30 4909 H 500.289 4.03258 -3.24966 0
M  V30 4910 H 496.966 4.12081 -0.670506 0
M  V30 4911 H 498.356 4.85488 -4.6449 0
M  V30 4912 N 501.076 1.04316 1.18135 0
M  V30 4913 C 502.039 0.640794 2.2006 0
M  V30 4914 C 503.039 -0.303124 1.57917 0
M  V30 4915 O 504.229 -0.0881855 1.73977 0
M  V30 4916 C 501.361 -0.060148 3.40847 0
M  V30 4917 H 502.554 1.54281 2.57172 0
M  V30 4918 H 500.107 0.836004 1.32063 0
M  V30 4919 H 500.842 -0.975845 3.0927 0
M  V30 4920 H 500.627 0.618319 3.87194 0
M  V30 4921 H 502.117 -0.328082 4.16309 0
M  V30 4922 N 502.554 -1.34406 0.822964 0
M  V30 4923 C 503.965 -1.8069 0.469879 0
M  V30 4924 C 504.316 -1.68223 -1.00972 0
M  V30 4925 O 503.441 -1.22226 -1.78577 0
M  V30 4926 C 504.036 -3.28064 0.846118 0
M  V30 4927 C 502.595 -3.72428 0.545402 0
M  V30 4928 C 501.742 -2.56116 1.06301 0
M  V30 4929 H 504.693 -1.22153 1.01313 0
M  V30 4930 H 504.714 -3.80205 0.149922 0
M  V30 4931 H 504.226 -3.37107 1.92304 0
M  V30 4932 H 502.327 -3.68924 -0.522109 0
M  V30 4933 H 502.44 -4.66548 1.0895 0
M  V30 4934 H 500.804 -2.50048 0.484554 0
M  V30 4935 H 501.587 -2.67928 2.14638 0
M  V30 4936 N 504.032 -0.577932 -1.46621 0
M  V30 4937 C 504.98 0.170882 -2.31971 0
M  V30 4938 C 505.974 0.889086 -1.44193 0
M  V30 4939 O 507.18 0.808017 -1.60845 0
M  V30 4940 H 503.555 0.0739763 -0.748353 0
M  V30 4941 H 505.526 -0.567856 -2.92947 0
M  V30 4942 C 504.275 1.17438 -3.27267 0
M  V30 4943 H 503.598 0.63116 -3.94787 0
M  V30 4944 H 505.038 1.66882 -3.89778 0
M  V30 4945 C 503.497 2.23292 -2.52274 0
M  V30 4946 O 504.027 3.30567 -2.28229 0
M  V30 4947 N 502.233 1.97772 -2.12919 0
M  V30 4948 H 501.78 1.10545 -2.32675 0
M  V30 4949 H 501.738 2.68809 -1.63062 0
M  V30 4950 N 505.51 1.54411 -0.315457 0
M  V30 4951 C 506.921 1.85885 0.174265 0
M  V30 4952 C 507.272 1.23723 1.52273 0
M  V30 4953 O 506.397 0.540246 2.09548 0
M  V30 4954 C 506.992 3.37257 0.322981 0
M  V30 4955 C 505.551 3.68711 0.756922 0
M  V30 4956 C 504.698 2.77013 -0.126195 0
M  V30 4957 H 507.649 1.49374 -0.536007 0
M  V30 4958 H 507.67 3.62539 1.15522 0
M  V30 4959 H 507.182 3.82471 -0.658602 0
M  V30 4960 H 505.283 3.29024 1.74854 0
M  V30 4961 H 505.396 4.75741 0.566291 0
M  V30 4962 H 503.76 2.51588 0.39692 0
M  V30 4963 H 504.543 3.25051 -1.1044 0
M  V30 4964 N 506.988 0.0434614 1.5754 0
M  V30 4965 C 507.951 -0.918696 2.09982 0
M  V30 4966 C 508.951 -1.24488 1.01781 0
M  V30 4967 O 510.141 -1.18284 1.27885 0
M  V30 4968 C 507.273 -2.23093 2.57764 0
M  V30 4969 H 508.466 -0.464229 2.96285 0
M  V30 4970 H 506.019 -0.204818 1.54952 0
M  V30 4971 H 506.754 -2.73137 1.74832 0
M  V30 4972 H 506.539 -2.00724 3.36827 0
M  V30 4973 H 508.029 -2.92028 2.98512 0
M  V30 4974 N 508.466 -1.55915 -0.229846 0
M  V30 4975 C 509.429 -1.90914 -1.26824 0
M  V30 4976 C 510.429 -0.786999 -1.40225 0
M  V30 4977 O 511.619 -1.05484 -1.38632 0
M  V30 4978 C 508.751 -2.15264 -2.64337 0
M  V30 4979 H 509.944 -2.8378 -0.969998 0
M  V30 4980 H 507.497 -1.49069 -0.4699 0
M  V30 4981 H 508.232 -1.24923 -2.99274 0
M  V30 4982 H 508.017 -2.97005 -2.55989 0
M  V30 4983 H 509.507 -2.43467 -3.39284 0
M  V30 4984 N 509.944 0.496216 -1.49584 0
M  V30 4985 C 511.355 1.07765 -1.52459 0
M  V30 4986 C 511.706 1.93679 -0.31353 0
M  V30 4987 O 510.831 2.08588 0.576186 0
M  V30 4988 C 511.426 1.96111 -2.76271 0
M  V30 4989 C 509.985 2.49409 -2.81908 0
M  V30 4990 C 509.132 1.27142 -2.46435 0
M  V30 4991 H 512.083 0.279914 -1.56212 0
M  V30 4992 H 512.104 2.80862 -2.56704 0
M  V30 4993 H 511.616 1.33555 -3.64396 0
M  V30 4994 H 509.717 3.1559 -1.98074 0
M  V30 4995 H 509.83 2.86234 -3.84196 0
M  V30 4996 H 508.194 1.59818 -1.98319 0
M  V30 4997 H 508.977 0.662866 -3.3684 0
M  V30 4998 N 511.423 1.38739 0.74761 0
M  V30 4999 C 512.669 1.35475 1.50912 0
M  V30 5000 C 513.002 -0.0533093 1.94127 0
M  V30 5001 O 512.277 -1.01572 1.65871 0
M  V30 5002 C 512.56 2.31582 2.75757 0
M  V30 5003 C 512.413 3.81274 2.38642 0
M  V30 5004 C 513.732 2.25722 3.77806 0
M  V30 5005 H 510.851 0.493427 0.547447 0
M  V30 5006 H 513.493 1.69634 0.855823 0
M  V30 5007 H 511.643 2.02582 3.31501 0
M  V30 5008 H 513.315 4.20972 1.88626 0
M  V30 5009 H 511.558 3.98664 1.71025 0
M  V30 5010 H 512.229 4.4399 3.27989 0
M  V30 5011 H 514.705 2.51336 3.31616 0
M  V30 5012 H 513.581 2.95069 4.62845 0
M  V30 5013 H 513.842 1.25803 4.23823 0
M  V30 5014 N 512.901 -0.976442 1.23707 0
M  V30 5015 C 514.141 -1.73331 1.08332 0
M  V30 5016 C 514.505 -1.88346 -0.372781 0
M  V30 5017 O 515.706 -2.60877 -0.647813 0
M  V30 5018 C 513.977 -3.09159 1.7932 0
M  V30 5019 S 515.536 -4.00376 1.79567 0
M  V30 5020 H 512.354 -0.596045 0.387622 0
M  V30 5021 H 514.956 -1.16625 1.56904 0
M  V30 5022 H 513.66 -2.95884 2.84395 0
M  V30 5023 H 513.191 -3.70932 1.31046 0
M  V30 5024 H 515.206 -4.88742 0.857094 0
M  V30 5025 N 514.379 -1.04941 -1.1758 0
M  V30 5026 C 515.79 -0.784501 -1.69418 0
M  V30 5027 C 516.141 0.693625 -1.8353 0
M  V30 5028 O 515.266 1.53925 -1.52106 0
M  V30 5029 C 515.861 -1.41746 -3.07723 0
M  V30 5030 C 514.42 -1.20066 -3.56737 0
M  V30 5031 C 513.567 -1.5026 -2.33061 0
M  V30 5032 H 516.518 -1.21469 -1.02133 0
M  V30 5033 H 516.539 -0.825381 -3.7144 0
M  V30 5034 H 516.051 -2.49325 -2.9742 0
M  V30 5035 H 514.152 -0.144006 -3.72322 0
M  V30 5036 H 514.265 -1.90384 -4.39648 0
M  V30 5037 H 512.629 -0.922598 -2.37403 0
M  V30 5038 H 513.412 -2.58967 -2.25368 0
M  V30 5039 N 515.857 1.33968 -0.830081 0
M  V30 5040 C 517.097 1.99879 -0.427521 0
M  V30 5041 C 517.461 1.64355 0.992546 0
M  V30 5042 O 518.662 2.23164 1.49837 0
M  V30 5043 C 516.933 3.51771 -0.631815 0
M  V30 5044 S 518.492 4.37608 -0.323168 0
M  V30 5045 H 515.31 0.692485 -0.161202 0
M  V30 5046 H 517.912 1.63129 -1.07745 0
M  V30 5047 H 516.616 3.75113 -1.66488 0
M  V30 5048 H 516.147 3.93386 0.0325936 0
M  V30 5049 H 518.162 4.88683 0.860432 0
M  V30 5050 N 517.335 0.585699 1.46312 0
M  V30 5051 C 518.265 -0.133556 2.33118 0
M  V30 5052 C 519.246 -0.880707 1.45525 0
M  V30 5053 O 520.431 -0.855579 1.74337 0
M  V30 5054 C 517.561 -1.14585 3.27853 0
M  V30 5055 C 516.515 -0.513341 4.2491 0
M  V30 5056 C 515.841 -1.63231 5.09175 0
M  V30 5057 C 517.141 0.551413 5.19381 0
M  V30 5058 H 518.835 0.59121 2.93505 0
M  V30 5059 H 516.381 0.285761 1.41136 0
M  V30 5060 H 518.334 -1.65741 3.87438 0
M  V30 5061 H 517.058 -1.90093 2.65579 0
M  V30 5062 H 515.717 -0.0228349 3.66593 0
M  V30 5063 H 515.365 -2.37713 4.43285 0
M  V30 5064 H 515.065 -1.21473 5.74907 0
M  V30 5065 H 516.589 -2.14658 5.71624 0
M  V30 5066 H 518.003 0.124804 5.73164 0
M  V30 5067 H 516.4 0.889486 5.93471 0
M  V30 5068 H 517.47 1.43655 4.63132 0
M  V30 5069 N 518.813 -1.54241 0.323641 0
M  V30 5070 C 519.723 -2.28033 -0.551205 0
M  V30 5071 C 520.739 -1.32388 -1.12913 0
M  V30 5072 O 521.915 -1.65403 -1.14908 0
M  V30 5073 C 518.98 -3.02382 -1.69606 0
M  V30 5074 C 518.041 -4.13612 -1.14993 0
M  V30 5075 C 517.274 -4.84407 -2.24022 0
M  V30 5076 O 517.497 -4.54716 -3.44368 0
M  V30 5077 O 516.431 -5.71312 -1.89436 0
M  V30 5078 H 520.257 -3.03662 0.048066 0
M  V30 5079 H 517.842 -1.49133 0.0893289 0
M  V30 5080 H 519.724 -3.48941 -2.36259 0
M  V30 5081 H 518.399 -2.29628 -2.28151 0
M  V30 5082 H 517.306 -3.71402 -0.448484 0
M  V30 5083 H 518.639 -4.8841 -0.609608 0
M  V30 5084 N 520.291 -0.0518155 -1.57515 0
M  V30 5085 C 521.539 0.620595 -1.92336 0
M  V30 5086 C 521.86 1.71345 -0.930907 0
M  V30 5087 O 521.13 1.95885 0.0241341 0
M  V30 5088 H 519.71 0.232226 -0.709986 0
M  V30 5089 H 522.372 -0.104969 -1.94617 0
M  V30 5090 H 521.468 1.05879 -2.93592 0
M  V30 5091 N 521.769 1.56035 0.221574 0
M  V30 5092 C 523.016 1.79047 0.94597 0
M  V30 5093 C 523.344 0.62057 1.84334 0
M  V30 5094 O 522.599 -0.395053 1.91671 0
M  V30 5095 C 522.898 3.07813 1.8162 0
M  V30 5096 C 522.564 4.3797 1.07206 0
M  V30 5097 C 521.226 4.73334 0.866508 0
M  V30 5098 C 523.578 5.18326 0.546565 0
M  V30 5099 C 520.906 5.8657 0.123549 0
M  V30 5100 C 523.258 6.32335 -0.18305 0
M  V30 5101 C 521.922 6.66301 -0.399861 0
M  V30 5102 H 521.192 0.655178 0.346155 0
M  V30 5103 H 523.839 1.90299 0.214146 0
M  V30 5104 H 522.144 2.91682 2.61589 0
M  V30 5105 H 523.841 3.2282 2.37884 0
M  V30 5106 H 520.431 4.10202 1.24226 0
M  V30 5107 H 524.615 4.9144 0.692847 0
M  V30 5108 H 519.871 6.11376 -0.0546591 0
M  V30 5109 H 524.045 6.9383 -0.59775 0
M  V30 5110 H 521.672 7.53889 -0.977489 0
M  V30 5111 N 523.247 -0.488276 1.49845 0
M  V30 5112 C 524.477 -1.26344 1.63465 0
M  V30 5113 C 524.885 -1.86637 0.310379 0
M  V30 5114 O 524.228 -1.69184 -0.715712 0
M  V30 5115 C 524.29 -2.42407 2.65479 0
M  V30 5116 C 523.954 -2.02886 4.09495 0
M  V30 5117 C 524.951 -1.56124 4.95904 0
M  V30 5118 C 522.636 -2.12131 4.55308 0
M  V30 5119 C 524.63 -1.19129 6.26169 0
M  V30 5120 C 522.317 -1.74747 5.85582 0
M  V30 5121 C 523.315 -1.28322 6.70837 0
M  V30 5122 O 523.003 -0.914491 7.98682 0
M  V30 5123 H 522.735 -0.388921 0.552916 0
M  V30 5124 H 525.289 -0.591288 1.96705 0
M  V30 5125 H 523.519 -3.12739 2.27445 0
M  V30 5126 H 525.208 -3.04409 2.68495 0
M  V30 5127 H 525.974 -1.48417 4.61733 0
M  V30 5128 H 521.853 -2.47217 3.89107 0
M  V30 5129 H 525.397 -0.828211 6.92666 0
M  V30 5130 H 521.294 -1.82109 6.19279 0
M  V30 5131 H 522.062 -1.04485 8.11804 0
M  V30 5132 N 524.725 -1.39134 -0.740242 0
M  V30 5133 C 526.141 -1.20623 -1.0451 0
M  V30 5134 C 526.341 -0.0641651 -2.01398 0
M  V30 5135 O 525.397 0.585843 -2.4561 0
M  V30 5136 C 526.71 -2.53815 -1.6124 0
M  V30 5137 C 528.258 -2.60615 -1.73346 0
M  V30 5138 C 528.733 -3.94015 -2.33486 0
M  V30 5139 N 530.224 -3.95627 -2.40902 0
M  V30 5140 C 530.959 -4.95616 -2.88361 0
M  V30 5141 N 530.455 -6.06003 -3.35756 0
M  V30 5142 N 532.248 -4.82998 -2.87523 0
M  V30 5143 H 524.399 -2.12176 -0.0975576 0
M  V30 5144 H 526.662 -0.942066 -0.105904 0
M  V30 5145 H 526.368 -3.37911 -0.975144 0
M  V30 5146 H 526.242 -2.73162 -2.6012 0
M  V30 5147 H 528.629 -1.76906 -2.36195 0
M  V30 5148 H 528.71 -2.45123 -0.731336 0
M  V30 5149 H 528.354 -4.78153 -1.71267 0
M  V30 5150 H 528.284 -4.06825 -3.34366 0
M  V30 5151 H 530.775 -3.15903 -2.07398 0
M  V30 5152 H 531.088 -6.78215 -3.70464 0
M  V30 5153 H 529.433 -6.09604 -3.33778 0
M  V30 5154 H 532.624 -3.95866 -2.49816 0
M  V30 5155 H 532.797 -5.61072 -3.24196 0
M  V30 5156 N 526.204 0.969867 -1.24223 0
M  V30 5157 C 527.167 2.04564 -1.03373 0
M  V30 5158 C 528.167 1.60798 0.00819206 0
M  V30 5159 O 529.357 1.72641 -0.232567 0
M  V30 5160 C 526.489 3.36163 -0.566343 0
M  V30 5161 H 527.682 2.24494 -1.98853 0
M  V30 5162 H 525.235 1.1448 -1.06415 0
M  V30 5163 H 525.97 3.21925 0.391751 0
M  V30 5164 H 525.755 3.69273 -1.31834 0
M  V30 5165 H 527.245 4.1526 -0.441435 0
M  V30 5166 N 527.682 1.05563 1.17022 0
M  V30 5167 C 528.907 0.788437 1.91829 0
M  V30 5168 C 529.332 -0.650356 1.76499 0
M  V30 5169 O 528.69 -1.45229 1.08527 0
M  V30 5170 C 528.738 1.1786 3.40795 0
M  V30 5171 O 527.842 0.312965 4.11211 0
M  V30 5172 H 527.183 0.288794 0.597908 0
M  V30 5173 H 529.713 1.40948 1.48307 0
M  V30 5174 H 529.723 1.14697 3.91546 0
M  V30 5175 H 528.398 2.22666 3.51273 0
M  V30 5176 H 526.975 0.405515 3.70689 0
M  V30 5177 N 529.16 -1.33526 0.837174 0
M  V30 5178 C 530.385 -2.0258 0.444545 0
M  V30 5179 C 530.81 -1.6258 -0.946006 0
M  V30 5180 O 530.168 -0.817548 -1.6182 0
M  V30 5181 C 530.216 -3.5605 0.571006 0
M  V30 5182 O 529.32 -4.10422 -0.403431 0
M  V30 5183 H 528.661 -0.638866 0.180958 0
M  V30 5184 H 531.191 -1.70462 1.13154 0
M  V30 5185 H 531.201 -4.05488 0.452024 0
M  V30 5186 H 529.876 -3.84509 1.58512 0
M  V30 5187 H 528.453 -3.72113 -0.242147 0
M  V30 5188 N 530.638 -0.59345 -1.46 0
M  V30 5189 C 531.915 -0.0157933 -1.95594 0
M  V30 5190 C 532.295 1.44807 -1.53604 0
M  V30 5191 O 531.643 2.14342 -0.791824 0
M  V30 5192 C 531.853 -0.199081 -3.48432 0
M  V30 5193 C 533.201 -0.0724943 -4.24538 0
M  V30 5194 O 534.225 -0.128469 -3.55968 0
M  V30 5195 O 533.084 0.0542426 -5.46473 0
M  V30 5196 H 530.178 0.043749 -0.825842 0
M  V30 5197 H 532.724 -0.662522 -1.56233 0
M  V30 5198 H 531.496 -1.21631 -3.71916 0
M  V30 5199 H 531.119 0.483576 -3.94648 0
M  V30 5200 N 532.116 1.54067 -0.331816 0
M  V30 5201 C 533.527 1.86059 0.15454 0
M  V30 5202 C 533.878 1.25331 1.50952 0
M  V30 5203 O 533.003 0.562441 2.08963 0
M  V30 5204 C 533.598 3.37581 0.287192 0
M  V30 5205 C 532.157 3.69493 0.717773 0
M  V30 5206 C 531.304 2.76863 -0.155569 0
M  V30 5207 H 534.255 1.48797 -0.55182 0
M  V30 5208 H 534.276 3.63744 1.11671 0
M  V30 5209 H 533.788 3.81751 -0.699131 0
M  V30 5210 H 531.889 3.3086 1.71354 0
M  V30 5211 H 532.002 4.76315 0.5158 0
M  V30 5212 H 530.366 2.51995 0.370213 0
M  V30 5213 H 531.149 3.23861 -1.13881 0
M  V30 5214 N 533.594 0.0601682 1.57485 0
M  V30 5215 C 535.005 -0.474217 1.80577 0
M  V30 5216 C 535.356 -1.70365 0.973147 0
M  V30 5217 O 534.481 -2.15544 0.192306 0
M  V30 5218 C 535.076 -0.867102 3.27516 0
M  V30 5219 C 533.635 -1.34642 3.51495 0
M  V30 5220 C 532.782 -0.32594 2.75378 0
M  V30 5221 H 535.733 0.285973 1.56102 0
M  V30 5222 H 535.754 -1.72938 3.38929 0
M  V30 5223 H 535.266 0.0278927 3.8809 0
M  V30 5224 H 533.367 -2.2603 2.96212 0
M  V30 5225 H 533.48 -1.33237 4.60201 0
M  V30 5226 H 531.844 -0.800749 2.41785 0
M  V30 5227 H 532.627 0.561125 3.38683 0
M  V30 5228 N 535.072 -1.5615 -0.213296 0
M  V30 5229 C 535.982 -1.96265 -1.28519 0
M  V30 5230 C 536.998 -0.86765 -1.50824 0
M  V30 5231 O 538.174 -1.17191 -1.63793 0
M  V30 5232 C 535.239 -2.27836 -2.61327 0
M  V30 5233 C 534.3 -3.50949 -2.47252 0
M  V30 5234 C 533.533 -3.81004 -3.73727 0
M  V30 5235 O 533.756 -3.12612 -4.77106 0
M  V30 5236 O 532.69 -4.74477 -3.70344 0
M  V30 5237 H 536.516 -2.87631 -0.974795 0
M  V30 5238 H 534.101 -1.43467 -0.416832 0
M  V30 5239 H 535.983 -2.49299 -3.39747 0
M  V30 5240 H 534.658 -1.39643 -2.9203 0
M  V30 5241 H 533.565 -3.34754 -1.67004 0
M  V30 5242 H 534.898 -4.39551 -2.21486 0
M  V30 5243 N 536.55 0.480323 -1.50102 0
M  V30 5244 C 537.513 1.56181 -1.6775 0
M  V30 5245 C 538.513 1.51156 -0.548503 0
M  V30 5246 O 539.703 1.5394 -0.815363 0
M  V30 5247 C 536.835 2.95823 -1.69415 0
M  V30 5248 H 538.028 1.41855 -2.6423 0
M  V30 5249 H 535.581 0.70605 -1.39444 0
M  V30 5250 H 536.316 3.15604 -0.745948 0
M  V30 5251 H 536.101 3.00878 -2.51425 0
M  V30 5252 H 537.591 3.74359 -1.85054 0
M  V30 5253 N 538.028 1.39524 0.732853 0
M  V30 5254 C 539.439 1.32905 1.31122 0
M  V30 5255 C 539.79 -0.00558708 1.96199 0
M  V30 5256 O 538.915 -0.907706 1.96443 0
M  V30 5257 C 539.51 2.40704 2.38426 0
M  V30 5258 C 538.069 2.37599 2.91931 0
M  V30 5259 C 537.216 2.2248 1.65523 0
M  V30 5260 H 540.167 1.49581 0.530207 0
M  V30 5261 H 540.188 2.07616 3.18867 0
M  V30 5262 H 539.7 3.37829 1.91033 0
M  V30 5263 H 537.801 1.44119 3.43599 0
M  V30 5264 H 537.914 3.32538 3.44899 0
M  V30 5265 H 536.278 1.69691 1.8994 0
M  V30 5266 H 537.061 3.21577 1.20178 0
M  V30 5267 N 539.506 -0.963266 1.24736 0
M  V30 5268 C 540.746 -1.72172 1.10165 0
M  V30 5269 C 541.11 -1.88731 -0.352784 0
M  V30 5270 O 542.311 -2.61549 -0.620107 0
M  V30 5271 C 540.582 -3.0724 1.82589 0
M  V30 5272 S 542.141 -3.98449 1.83803 0
M  V30 5273 H 538.959 -0.591901 0.393922 0
M  V30 5274 H 541.561 -1.14955 1.58132 0
M  V30 5275 H 540.265 -2.92851 2.87518 0
M  V30 5276 H 539.796 -3.69521 1.34973 0
M  V30 5277 H 541.811 -4.87805 0.908883 0
M  V30 5278 N 540.985 -1.06182 -1.16461 0
M  V30 5279 C 542.213 -0.798583 -1.90867 0
M  V30 5280 C 542.628 0.646921 -1.77371 0
M  V30 5281 O 541.985 1.44279 -1.11758 0
M  V30 5282 C 542.036 -1.18258 -3.4161 0
M  V30 5283 O 541.757 -2.57135 -3.54701 0
M  V30 5284 C 543.258 -0.946917 -4.33069 0
M  V30 5285 H 540.478 -0.289603 -0.605286 0
M  V30 5286 H 543.022 -1.41515 -1.47627 0
M  V30 5287 H 541.177 -0.610562 -3.82558 0
M  V30 5288 H 541.591 -2.72477 -4.4817 0
M  V30 5289 H 543.065 -1.26523 -5.37304 0
M  V30 5290 H 543.542 0.117406 -4.39043 0
M  V30 5291 H 544.148 -1.50326 -3.97847 0
M  V30 5292 N 542.463 1.3308 -0.844243 0
M  V30 5293 C 543.711 1.97215 -0.441676 0
M  V30 5294 C 544.032 1.67185 1.0037 0
M  V30 5295 O 543.302 0.973588 1.69994 0
M  V30 5296 H 541.882 0.72959 -0.160335 0
M  V30 5297 H 544.544 1.62348 -1.07838 0
M  V30 5298 H 543.64 3.06698 -0.57815 0
M  V30 5299 N 543.941 0.601185 1.45683 0
M  V30 5300 C 545.352 0.179659 1.85834 0
M  V30 5301 C 545.703 -1.26189 1.50236 0
M  V30 5302 O 544.828 -1.95587 0.925987 0
M  V30 5303 C 545.423 0.319277 3.37292 0
M  V30 5304 C 543.982 -0.0475092 3.7637 0
M  V30 5305 C 543.129 0.646692 2.69654 0
M  V30 5306 H 546.08 0.808268 1.36575 0
M  V30 5307 H 546.101 -0.4503 3.77826 0
M  V30 5308 H 545.613 1.36855 3.6317 0
M  V30 5309 H 543.714 -1.0962 3.5611 0
M  V30 5310 H 543.827 0.34168 4.7788 0
M  V30 5311 H 542.191 0.0849971 2.54558 0
M  V30 5312 H 542.974 1.69797 2.98369 0
M  V30 5313 N 545.419 -1.53889 0.339982 0
M  V30 5314 C 546.83 -1.86139 -0.144671 0
M  V30 5315 C 547.181 -1.2613 -1.50285 0
M  V30 5316 O 546.306 -0.573515 -2.08662 0
M  V30 5317 C 546.901 -3.37728 -0.269285 0
M  V30 5318 C 545.46 -3.69868 -0.698168 0
M  V30 5319 C 544.607 -2.76777 0.170249 0
M  V30 5320 H 547.558 -1.48503 0.559704 0
M  V30 5321 H 547.579 -3.64331 -1.0974 0
M  V30 5322 H 547.091 -3.81375 0.719366 0
M  V30 5323 H 545.192 -3.31764 -1.69597 0
M  V30 5324 H 545.305 -4.76582 -0.490533 0
M  V30 5325 H 543.669 -2.52188 -0.356844 0
M  V30 5326 H 544.452 -3.23253 1.15597 0
M  V30 5327 N 546.897 -0.0685191 -1.57451 0
M  V30 5328 C 548.122 0.613919 -1.98106 0
M  V30 5329 C 548.547 1.62551 -0.946501 0
M  V30 5330 O 547.905 1.81085 0.0882824 0
M  V30 5331 C 547.953 1.26189 -3.378 0
M  V30 5332 O 547.057 2.37773 -3.36954 0
M  V30 5333 H 546.398 0.158163 -0.644888 0
M  V30 5334 H 548.928 -0.142063 -2.04106 0
M  V30 5335 H 548.938 1.60951 -3.74912 0
M  V30 5336 H 547.613 0.520625 -4.12629 0
M  V30 5337 H 546.19 2.04829 -3.11608 0
M  V30 5338 N 548.375 1.56261 0.205012 0
M  V30 5339 C 549.338 1.92908 1.23771 0
M  V30 5340 C 550.338 0.809208 1.38955 0
M  V30 5341 O 551.528 1.07676 1.36936 0
M  V30 5342 C 548.66 2.19442 2.60879 0
M  V30 5343 H 549.853 2.85287 0.924728 0
M  V30 5344 H 547.406 1.49798 0.446125 0
M  V30 5345 H 548.141 1.29668 2.97248 0
M  V30 5346 H 547.926 3.0104 2.51232 0
M  V30 5347 H 549.416 2.48833 3.35368 0
M  V30 5348 N 549.853 -0.472356 1.50355 0
M  V30 5349 C 551.264 -1.05326 1.54154 0
M  V30 5350 C 551.615 -1.93155 0.344303 0
M  V30 5351 O 550.74 -2.09479 -0.542928 0
M  V30 5352 C 551.335 -1.91691 2.79356 0
M  V30 5353 C 549.894 -2.44892 2.8584 0
M  V30 5354 C 549.041 -1.23205 2.48426 0
M  V30 5355 H 551.992 -0.255027 1.56637 0
M  V30 5356 H 552.013 -2.76742 2.6114 0
M  V30 5357 H 551.525 -1.27741 3.66475 0
M  V30 5358 H 549.626 -3.12399 2.0307 0
M  V30 5359 H 549.739 -2.80086 3.88701 0
M  V30 5360 H 548.103 -1.56643 2.00836 0
M  V30 5361 H 548.886 -0.609194 3.37852 0
M  V30 5362 N 551.331 -1.39911 -0.725443 0
M  V30 5363 C 552.263 -1.35301 -1.85003 0
M  V30 5364 C 553.276 -0.260102 -1.60709 0
M  V30 5365 O 554.465 -0.519749 -1.70766 0
M  V30 5366 C 551.565 -1.08039 -3.21218 0
M  V30 5367 C 550.738 -2.28793 -3.7279 0
M  V30 5368 C 549.797 -1.97841 -4.87591 0
M  V30 5369 O 548.823 -2.70616 -5.00755 0
M  V30 5370 N 550.025 -0.950367 -5.72668 0
M  V30 5371 H 552.79 -2.32218 -1.89459 0
M  V30 5372 H 550.351 -1.34137 -0.90658 0
M  V30 5373 H 552.343 -0.853354 -3.95601 0
M  V30 5374 H 550.913 -0.198229 -3.11971 0
M  V30 5375 H 550.133 -2.67388 -2.8965 0
M  V30 5376 H 551.421 -3.09317 -4.03981 0
M  V30 5377 H 550.819 -0.347436 -5.64632 0
M  V30 5378 H 549.376 -0.783232 -6.47077 0
M  V30 5379 N 552.809 0.956637 -1.25245 0
M  V30 5380 C 553.719 2.0868 -1.0719 0
M  V30 5381 C 554.735 1.73997 -0.00959074 0
M  V30 5382 O 555.911 2.00301 -0.210104 0
M  V30 5383 C 552.976 3.39754 -0.690526 0
M  V30 5384 C 552.037 3.88316 -1.83055 0
M  V30 5385 C 551.27 5.13134 -1.46728 0
M  V30 5386 O 551.493 5.6925 -0.362029 0
M  V30 5387 O 550.427 5.56356 -2.29677 0
M  V30 5388 H 554.253 2.26813 -2.01965 0
M  V30 5389 H 551.838 1.07098 -1.04165 0
M  V30 5390 H 553.72 4.18543 -0.489871 0
M  V30 5391 H 552.395 3.22896 0.227981 0
M  V30 5392 H 551.302 3.1054 -2.08604 0
M  V30 5393 H 552.635 4.09669 -2.72822 0
M  V30 5394 N 554.287 1.06798 1.15896 0
M  V30 5395 C 555.217 0.704677 2.22613 0
M  V30 5396 C 556.198 -0.305252 1.67339 0
M  V30 5397 O 557.383 -0.179247 1.93371 0
M  V30 5398 C 554.513 0.0957325 3.47168 0
M  V30 5399 C 553.467 1.0322 4.15367 0
M  V30 5400 C 552.793 0.286293 5.33933 0
M  V30 5401 C 554.093 2.36341 4.65768 0
M  V30 5402 H 555.787 1.59688 2.53259 0
M  V30 5403 H 553.333 0.769257 1.21731 0
M  V30 5404 H 555.286 -0.170333 4.21056 0
M  V30 5405 H 554.01 -0.831516 3.15838 0
M  V30 5406 H 552.669 1.28309 3.43413 0
M  V30 5407 H 552.317 -0.644237 4.98857 0
M  V30 5408 H 552.017 0.910436 5.80504 0
M  V30 5409 H 553.541 0.0278938 6.10594 0
M  V30 5410 H 554.955 2.1561 5.31211 0
M  V30 5411 H 553.352 2.94299 5.2298 0
M  V30 5412 H 554.422 2.99047 3.81705 0
M  V30 5413 N 555.766 -1.3263 0.851289 0
M  V30 5414 C 557.012 -1.98061 0.462963 0
M  V30 5415 C 557.367 -1.66162 -0.969948 0
M  V30 5416 O 556.66 -0.937723 -1.67085 0
M  V30 5417 C 556.854 -3.51713 0.635015 0
M  V30 5418 C 556.683 -3.98544 2.0831 0
M  V30 5419 C 555.453 -4.25787 2.72091 0
M  V30 5420 C 557.651 -4.13858 3.0533 0
M  V30 5421 N 555.633 -4.58842 4.07845 0
M  V30 5422 C 557.004 -4.50412 4.26063 0
M  V30 5423 C 559.059 -3.96182 3.0157 0
M  V30 5424 C 557.762 -4.71136 5.43529 0
M  V30 5425 C 559.788 -4.18088 4.18278 0
M  V30 5426 C 559.15 -4.54956 5.37768 0
M  V30 5427 H 555.249 -0.750976 0.218082 0
M  V30 5428 H 557.833 -1.60514 1.10197 0
M  V30 5429 H 556.004 -3.88391 0.0257298 0
M  V30 5430 H 557.736 -4.04118 0.216915 0
M  V30 5431 H 554.491 -4.17734 2.23149 0
M  V30 5432 H 554.915 -4.7956 4.77862 0
M  V30 5433 H 559.557 -3.66783 2.1031 0
M  V30 5434 H 557.275 -4.9939 6.35323 0
M  V30 5435 H 560.861 -4.05918 4.168 0
M  V30 5436 H 559.741 -4.71567 6.26573 0
M  V30 5437 N 557.244 -0.608902 -1.45362 0
M  V30 5438 C 558.491 -0.104607 -2.0223 0
M  V30 5439 C 558.819 1.26534 -1.47714 0
M  V30 5440 O 558.074 1.84855 -0.642435 0
M  V30 5441 C 558.373 -0.0167296 -3.57396 0
M  V30 5442 C 558.039 -1.32251 -4.31069 0
M  V30 5443 C 556.701 -1.68019 -4.50914 0
M  V30 5444 C 559.053 -2.18542 -4.73169 0
M  V30 5445 C 556.381 -2.89828 -5.10114 0
M  V30 5446 C 558.733 -3.39602 -5.33717 0
M  V30 5447 C 557.397 -3.7562 -5.51784 0
M  V30 5448 H 556.667 -0.0382785 -0.740011 0
M  V30 5449 H 559.314 -0.790782 -1.7441 0
M  V30 5450 H 557.619 0.752715 -3.84502 0
M  V30 5451 H 559.316 0.389634 -3.99103 0
M  V30 5452 H 555.906 -1.03411 -4.15938 0
M  V30 5453 H 560.09 -1.92208 -4.5757 0
M  V30 5454 H 555.346 -3.17839 -5.22291 0
M  V30 5455 H 559.52 -4.06716 -5.65292 0
M  V30 5456 H 557.147 -4.70093 -5.97425 0
M  V30 5457 N 558.722 1.53707 -0.348139 0
M  V30 5458 C 559.632 2.28881 0.514857 0
M  V30 5459 C 560.648 1.34168 1.10793 0
M  V30 5460 O 561.824 1.6721 1.12262 0
M  V30 5461 C 558.889 3.05042 1.64774 0
M  V30 5462 C 557.95 4.15389 1.08398 0
M  V30 5463 C 557.183 4.87909 2.16287 0
M  V30 5464 O 557.406 4.60137 3.3709 0
M  V30 5465 O 556.34 5.74254 1.80323 0
M  V30 5466 H 560.166 3.03547 -0.0963699 0
M  V30 5467 H 557.751 1.48972 -0.113043 0
M  V30 5468 H 559.633 3.52656 2.30677 0
M  V30 5469 H 558.308 2.33228 2.24469 0
M  V30 5470 H 557.215 3.72068 0.389341 0
M  V30 5471 H 558.548 4.89318 0.531829 0
M  V30 5472 N 560.2 0.0768682 1.57412 0
M  V30 5473 C 561.446 -0.591961 1.93968 0
M  V30 5474 C 561.779 -1.68954 0.9575 0
M  V30 5475 O 561.054 -1.94496 -0.0124675 0
M  V30 5476 C 561.337 -1.16418 3.40762 0
M  V30 5477 C 561.19 -0.0728933 4.49741 0
M  V30 5478 C 562.509 -2.06814 3.88479 0
M  V30 5479 H 559.628 -0.213716 0.705333 0
M  V30 5480 H 562.27 0.14387 1.89455 0
M  V30 5481 H 560.42 -1.79128 3.4474 0
M  V30 5482 H 562.092 0.560446 4.57883 0
M  V30 5483 H 560.335 0.595859 4.29688 0
M  V30 5484 H 561.006 -0.513755 5.49604 0
M  V30 5485 H 563.482 -1.54033 3.8654 0
M  V30 5486 H 562.358 -2.43785 4.91793 0
M  V30 5487 H 562.619 -2.97844 3.26713 0
M  V30 5488 N 561.678 -1.56367 -0.196722 0
M  V30 5489 C 562.61 -1.90941 -1.26784 0
M  V30 5490 C 563.623 -0.799928 -1.41792 0
M  V30 5491 O 564.812 -1.07833 -1.42247 0
M  V30 5492 C 561.912 -2.12477 -2.6402 0
M  V30 5493 C 561.085 -3.43616 -2.70641 0
M  V30 5494 C 560.144 -3.54284 -3.89062 0
M  V30 5495 O 559.17 -4.2712 -3.76241 0
M  V30 5496 N 560.372 -2.87252 -5.04447 0
M  V30 5497 H 563.137 -2.83417 -0.974417 0
M  V30 5498 H 560.698 -1.57215 -0.386649 0
M  V30 5499 H 562.69 -2.16904 -3.41665 0
M  V30 5500 H 561.26 -1.26508 -2.85857 0
M  V30 5501 H 560.48 -3.51072 -1.79283 0
M  V30 5502 H 561.768 -4.29958 -2.72054 0
M  V30 5503 H 561.166 -2.27901 -5.17762 0
M  V30 5504 H 559.723 -2.97308 -5.80044 0
M  V30 5505 N 563.156 0.464375 -1.50603 0
M  V30 5506 C 564.404 1.21356 -1.61608 0
M  V30 5507 C 564.725 1.92329 -0.321643 0
M  V30 5508 O 563.995 1.84403 0.661232 0
M  V30 5509 H 562.575 0.45094 -0.595535 0
M  V30 5510 H 565.237 0.535046 -1.87412 0
M  V30 5511 H 564.333 1.95783 -2.43054 0
M  V30 5512 N 564.634 1.40294 0.718013 0
M  V30 5513 C 565.859 1.41941 1.5122 0
M  V30 5514 C 566.284 0.0202371 1.88089 0
M  V30 5515 O 565.642 -0.971078 1.53101 0
M  V30 5516 C 565.69 2.3141 2.76554 0
M  V30 5517 O 564.794 1.75567 3.73162 0
M  V30 5518 H 564.135 0.482644 0.456016 0
M  V30 5519 H 566.665 1.84494 0.884478 0
M  V30 5520 H 566.675 2.46513 3.25108 0
M  V30 5521 H 565.35 3.33085 2.49053 0
M  V30 5522 H 563.927 1.69798 3.31999 0
M  V30 5523 N 566.112 -0.949982 1.2575 0
M  V30 5524 C 567.075 -2.02894 1.06615 0
M  V30 5525 C 568.075 -1.60791 0.0173905 0
M  V30 5526 O 569.265 -1.72249 0.260003 0
M  V30 5527 C 566.397 -3.35219 0.619751 0
M  V30 5528 H 567.59 -2.21302 2.02399 0
M  V30 5529 H 565.143 -1.12772 1.08223 0
M  V30 5530 H 565.878 -3.22508 -0.340486 0
M  V30 5531 H 565.663 -3.67129 1.37692 0
M  V30 5532 H 567.153 -4.14505 0.507443 0
M  V30 5533 N 567.59 -1.07411 -1.15328 0
M  V30 5534 C 568.52 -0.716472 -2.22236 0
M  V30 5535 C 569.501 0.296373 -1.67498 0
M  V30 5536 O 570.686 0.168989 -1.93463 0
M  V30 5537 C 567.816 -0.114142 -3.47112 0
M  V30 5538 C 566.77 -1.05421 -4.14814 0
M  V30 5539 C 566.096 -0.314604 -5.33774 0
M  V30 5540 C 567.396 -2.38808 -4.64508 0
M  V30 5541 H 569.09 -1.61029 -2.52408 0
M  V30 5542 H 566.636 -0.775702 -1.21321 0
M  V30 5543 H 568.589 0.148001 -4.2114 0
M  V30 5544 H 567.313 0.814755 -3.16274 0
M  V30 5545 H 565.972 -1.30128 -3.42728 0
M  V30 5546 H 565.62 0.617772 -4.99192 0
M  V30 5547 H 565.32 -0.941209 -5.80013 0
M  V30 5548 H 566.844 -0.0602747 -6.1057 0
M  V30 5549 H 568.258 -2.18424 -5.3006 0
M  V30 5550 H 566.655 -2.97069 -5.21412 0
M  V30 5551 H 567.725 -3.01067 -3.80114 0
M  V30 5552 N 569.068 1.32177 -0.85831 0
M  V30 5553 C 570.001 2.26823 -0.25035 0
M  V30 5554 C 570.979 1.50571 0.61378 0
M  V30 5555 O 572.163 1.79682 0.569777 0
M  V30 5556 C 569.29 3.32472 0.646556 0
M  V30 5557 C 568.336 4.26255 -0.144675 0
M  V30 5558 S 569.169 5.13608 -1.5155 0
M  V30 5559 C 570.325 6.22778 -0.624408 0
M  V30 5560 H 570.558 2.7804 -1.05267 0
M  V30 5561 H 568.091 1.39764 -0.656152 0
M  V30 5562 H 570.049 3.93817 1.15837 0
M  V30 5563 H 568.71 2.80031 1.42272 0
M  V30 5564 H 567.903 5.01114 0.538613 0
M  V30 5565 H 567.505 3.69346 -0.588198 0
M  V30 5566 H 569.797 6.77287 0.169846 0
M  V30 5567 H 570.74 6.95233 -1.34376 0
M  V30 5568 H 571.148 5.64156 -0.197128 0
M  V30 5569 N 570.547 0.616602 1.45037 0
M  V30 5570 C 571.477 -0.0840787 2.33349 0
M  V30 5571 C 572.458 -0.849641 1.4736 0
M  V30 5572 O 573.643 -0.818407 1.76113 0
M  V30 5573 C 570.773 -1.07604 3.3021 0
M  V30 5574 C 569.727 -0.423096 4.25904 0
M  V30 5575 C 569.053 -1.52394 5.12523 0
M  V30 5576 C 570.353 0.661457 5.18095 0
M  V30 5577 H 572.047 0.653333 2.92185 0
M  V30 5578 H 569.593 0.315634 1.40498 0
M  V30 5579 H 571.546 -1.57485 3.90866 0
M  V30 5580 H 570.27 -1.84416 2.69552 0
M  V30 5581 H 568.929 0.05493 3.66559 0
M  V30 5582 H 568.577 -2.28257 4.48227 0
M  V30 5583 H 568.277 -1.09251 5.77354 0
M  V30 5584 H 569.801 -2.02485 5.76049 0
M  V30 5585 H 571.215 0.246353 5.7277 0
M  V30 5586 H 569.612 1.01517 5.91451 0
M  V30 5587 H 570.682 1.53446 4.59981 0
M  V30 5588 N 572.025 -1.5352 0.356285 0
M  V30 5589 C 572.975 -2.22204 -0.510815 0
M  V30 5590 C 573.959 -1.21393 -1.05605 0
M  V30 5591 O 575.151 -1.46883 -0.987639 0
M  V30 5592 C 572.28 -3.00786 -1.65478 0
M  V30 5593 C 571.366 -4.08965 -1.12287 0
M  V30 5594 N 571.757 -5.04829 -0.313191 0
M  V30 5595 C 570.055 -4.23505 -1.39856 0
M  V30 5596 C 570.756 -5.81695 -0.0230322 0
M  V30 5597 N 569.732 -5.40074 -0.618144 0
M  V30 5598 H 573.534 -2.93676 0.114711 0
M  V30 5599 H 571.048 -1.61572 0.163811 0
M  V30 5600 H 573.045 -3.48502 -2.28806 0
M  V30 5601 H 571.705 -2.30843 -2.28345 0
M  V30 5602 H 572.716 -5.17879 0.0468202 0
M  V30 5603 H 569.393 -3.64786 -2.0307 0
M  V30 5604 H 570.783 -6.68931 0.630927 0
M  V30 5605 N 573.503 -0.0852151 -1.57369 0
M  V30 5606 C 574.749 0.575588 -1.95086 0
M  V30 5607 C 575.104 1.66402 -0.96582 0
M  V30 5608 O 574.397 1.91598 0.00978463 0
M  V30 5609 C 574.591 1.18482 -3.3719 0
M  V30 5610 C 574.42 0.156928 -4.49426 0
M  V30 5611 C 573.19 -0.263126 -5.04614 0
M  V30 5612 C 575.388 -0.611068 -5.10657 0
M  V30 5613 N 573.37 -1.28032 -6.00401 0
M  V30 5614 C 574.741 -1.48036 -6.02068 0
M  V30 5615 C 576.796 -0.665669 -4.9343 0
M  V30 5616 C 575.499 -2.39943 -6.781 0
M  V30 5617 C 577.525 -1.5723 -5.70116 0
M  V30 5618 C 576.887 -2.42924 -6.61186 0
M  V30 5619 H 572.986 0.181249 -0.760705 0
M  V30 5620 H 575.57 -0.165484 -1.93995 0
M  V30 5621 H 573.741 1.89575 -3.38992 0
M  V30 5622 H 575.473 1.80718 -3.62109 0
M  V30 5623 H 572.228 0.122664 -4.73441 0
M  V30 5624 H 572.652 -1.78682 -6.52994 0
M  V30 5625 H 577.294 -0.0173214 -4.22796 0
M  V30 5626 H 575.012 -3.05807 -7.48002 0
M  V30 5627 H 578.598 -1.61956 -5.58804 0
M  V30 5628 H 577.478 -3.1194 -7.19488 0
M  V30 5629 N 574.981 1.5647 0.188427 0
M  V30 5630 C 576.397 1.50204 0.539532 0
M  V30 5631 C 576.597 0.78644 1.85519 0
M  V30 5632 O 575.653 0.339714 2.50204 0
M  V30 5633 C 576.966 2.94893 0.588103 0
M  V30 5634 C 578.514 3.05602 0.67648 0
M  V30 5635 C 578.989 4.51716 0.756101 0
M  V30 5636 N 580.48 4.55894 0.819451 0
M  V30 5637 C 581.215 5.66272 0.90134 0
M  V30 5638 N 580.711 6.86323 0.945118 0
M  V30 5639 N 582.504 5.54201 0.939043 0
M  V30 5640 H 574.655 2.01406 -0.674493 0
M  V30 5641 H 576.918 0.916828 -0.241103 0
M  V30 5642 H 576.624 3.50334 -0.309633 0
M  V30 5643 H 576.498 3.4861 1.44051 0
M  V30 5644 H 578.885 2.50206 1.56465 0
M  V30 5645 H 578.966 2.54999 -0.202262 0
M  V30 5646 H 578.61 5.07739 -0.12774 0
M  V30 5647 H 578.54 5.00058 1.65074 0
M  V30 5648 H 581.031 3.69452 0.794594 0
M  V30 5649 H 581.344 7.66194 1.0083 0
M  V30 5650 H 579.689 6.88968 0.913683 0
M  V30 5651 H 582.88 4.59333 0.901725 0
M  V30 5652 H 583.053 6.40247 0.999402 0
M  V30 5653 N 576.459 -0.456382 1.50847 0
M  V30 5654 C 577.389 -1.56025 1.73719 0
M  V30 5655 C 578.37 -1.5967 0.586473 0
M  V30 5656 O 579.555 -1.75702 0.827185 0
M  V30 5657 C 576.685 -2.94251 1.84483 0
M  V30 5658 C 575.639 -3.05471 2.99786 0
M  V30 5659 C 574.965 -4.45489 2.95709 0
M  V30 5660 C 576.265 -2.81318 4.40065 0
M  V30 5661 H 577.959 -1.37138 2.66146 0
M  V30 5662 H 575.505 -0.658299 1.28072 0
M  V30 5663 H 577.458 -3.71417 1.99067 0
M  V30 5664 H 576.182 -3.14328 0.886891 0
M  V30 5665 H 574.841 -2.30741 2.84876 0
M  V30 5666 H 574.489 -4.62505 1.97732 0
M  V30 5667 H 574.189 -4.53929 3.73125 0
M  V30 5668 H 575.713 -5.24655 3.12362 0
M  V30 5669 H 577.127 -3.48226 4.55425 0
M  V30 5670 H 575.524 -3.01188 5.19043 0
M  V30 5671 H 576.594 -1.7706 4.51418 0
M  V30 5672 N 577.937 -1.40673 -0.710563 0
M  V30 5673 C 579.348 -1.34975 -1.28991 0
M  V30 5674 C 579.699 -0.0256272 -1.96183 0
M  V30 5675 O 578.824 0.876339 -1.97862 0
M  V30 5676 C 579.419 -2.44467 -2.34567 0
M  V30 5677 C 577.978 -2.42213 -2.88114 0
M  V30 5678 C 577.125 -2.25085 -1.61963 0
M  V30 5679 H 580.076 -1.50406 -0.506343 0
M  V30 5680 H 580.097 -2.12663 -3.15523 0
M  V30 5681 H 579.609 -3.40825 -1.85634 0
M  V30 5682 H 577.71 -1.49568 -3.41263 0
M  V30 5683 H 577.823 -3.37983 -3.39565 0
M  V30 5684 H 576.187 -1.72691 -1.87216 0
M  V30 5685 H 576.97 -3.23449 -1.15047 0
M  V30 5686 N 579.415 0.9433 -1.26252 0
M  V30 5687 C 580.831 1.21644 -1.03319 0
M  V30 5688 C 581.031 2.0003 0.242983 0
M  V30 5689 O 580.087 2.33838 0.952688 0
M  V30 5690 C 581.4 1.97978 -2.2633 0
M  V30 5691 C 582.948 2.10978 -2.31209 0
M  V30 5692 C 583.423 2.90713 -3.53907 0
M  V30 5693 N 584.914 2.98287 -3.54371 0
M  V30 5694 C 585.649 3.60406 -4.45976 0
M  V30 5695 N 585.145 4.24043 -5.47868 0
M  V30 5696 N 586.938 3.57658 -4.33633 0
M  V30 5697 H 579.089 0.419221 -2.08222 0
M  V30 5698 H 581.352 0.247995 -0.914988 0
M  V30 5699 H 581.058 1.47788 -3.19142 0
M  V30 5700 H 580.932 2.9865 -2.30408 0
M  V30 5701 H 583.319 2.6036 -1.38913 0
M  V30 5702 H 583.4 1.09575 -2.31143 0
M  V30 5703 H 583.044 2.42018 -4.46531 0
M  V30 5704 H 582.974 3.92367 -3.5122 0
M  V30 5705 H 585.465 2.53044 -2.80673 0
M  V30 5706 H 585.778 4.69334 -6.13959 0
M  V30 5707 H 584.123 4.22637 -5.51728 0
M  V30 5708 H 587.314 3.07134 -3.53251 0
M  V30 5709 H 587.487 4.05782 -5.05218 0
M  V30 5710 N 580.893 1.08022 1.14757 0
M  V30 5711 C 581.803 0.718292 2.23333 0
M  V30 5712 C 582.819 -0.273477 1.71837 0
M  V30 5713 O 583.995 -0.118406 2.01052 0
M  V30 5714 C 581.06 0.128855 3.4646 0
M  V30 5715 C 580.121 1.17473 4.12915 0
M  V30 5716 C 579.354 0.61333 5.30164 0
M  V30 5717 O 579.577 -0.568458 5.6756 0
M  V30 5718 O 578.511 1.3615 5.86299 0
M  V30 5719 H 582.337 1.62394 2.56636 0
M  V30 5720 H 579.922 0.853628 1.22611 0
M  V30 5721 H 581.804 -0.197249 4.20938 0
M  V30 5722 H 580.479 -0.750014 3.14891 0
M  V30 5723 H 579.386 1.5533 3.40328 0
M  V30 5724 H 580.719 2.02574 4.48581 0
M  V30 5725 N 582.371 -1.3172 0.865308 0
M  V30 5726 C 583.301 -2.31109 0.333302 0
M  V30 5727 C 584.282 -1.60148 -0.573301 0
M  V30 5728 O 585.467 -1.87882 -0.491305 0
M  V30 5729 C 582.597 -3.44104 -0.470078 0
M  V30 5730 C 581.551 -4.26623 0.343021 0
M  V30 5731 C 580.877 -5.31482 -0.585756 0
M  V30 5732 C 582.177 -4.98001 1.57456 0
M  V30 5733 H 583.871 -2.75855 1.1638 0
M  V30 5734 H 581.417 -1.3262 0.561069 0
M  V30 5735 H 583.37 -4.12682 -0.852752 0
M  V30 5736 H 582.094 -2.98112 -1.33404 0
M  V30 5737 H 580.753 -3.59707 0.707583 0
M  V30 5738 H 580.401 -4.81741 -1.44686 0
M  V30 5739 H 580.101 -5.87582 -0.0456494 0
M  V30 5740 H 581.625 -6.0292 -0.965375 0
M  V30 5741 H 583.039 -5.59201 1.26359 0
M  V30 5742 H 581.436 -5.63876 2.05339 0
M  V30 5743 H 582.506 -4.25253 2.32997 0
M  V30 5744 N 583.85 -0.624285 -1.44708 0
M  V30 5745 C 585.098 -0.125802 -2.01708 0
M  V30 5746 C 585.418 1.2543 -1.49306 0
M  V30 5747 O 584.689 1.83198 -0.693924 0
M  V30 5748 H 583.269 -0.0435161 -0.745731 0
M  V30 5749 H 585.931 -0.809446 -1.77296 0
M  V30 5750 H 585.027 -0.0882734 -3.11975 0
M  V30 5751 N 585.328 1.53329 -0.364422 0
M  V30 5752 C 586.576 2.00842 0.225189 0
M  V30 5753 C 586.897 1.25345 1.49378 0
M  V30 5754 O 586.167 0.366396 1.92443 0
M  V30 5755 H 584.747 0.742009 0.0862027 0
M  V30 5756 H 587.409 1.8863 -0.490389 0
M  V30 5757 H 586.505 3.08795 0.452987 0
M  V30 5758 N 586.806 0.0935595 1.57322 0
M  V30 5759 C 588.222 -0.263091 1.57417 0
M  V30 5760 C 588.422 -1.68526 1.1046 0
M  V30 5761 O 587.478 -2.40139 0.780357 0
M  V30 5762 C 588.791 -0.0529201 3.00653 0
M  V30 5763 C 590.339 -0.120788 3.12767 0
M  V30 5764 C 590.814 0.0613707 4.57959 0
M  V30 5765 N 592.305 0.00648534 4.632 0
M  V30 5766 C 593.04 0.122699 5.73269 0
M  V30 5767 N 592.536 0.29366 6.92177 0
M  V30 5768 N 594.329 0.0640787 5.62063 0
M  V30 5769 H 586.48 1.02277 1.86154 0
M  V30 5770 H 588.743 0.4007 0.859153 0
M  V30 5771 H 588.449 0.929279 3.39201 0
M  V30 5772 H 588.323 -0.795899 3.68708 0
M  V30 5773 H 590.71 -1.09349 2.74093 0
M  V30 5774 H 590.791 0.653656 2.47307 0
M  V30 5775 H 590.435 1.03093 4.97327 0
M  V30 5776 H 590.365 -0.732748 5.21477 0
M  V30 5777 H 592.856 -0.123173 3.77699 0
M  V30 5778 H 593.169 0.37389 7.71895 0
M  V30 5779 H 591.514 0.329307 6.94219 0
M  V30 5780 H 594.705 -0.0683396 4.6805 0
M  V30 5781 H 594.878 0.158097 6.47807 0
M  V30 5782 N 588.284 -1.56567 -0.180126 0
M  V30 5783 C 589.532 -1.81133 -0.896392 0
M  V30 5784 C 589.853 -0.669114 -1.83161 0
M  V30 5785 O 589.123 0.311616 -1.93406 0
M  V30 5786 H 587.703 -0.668172 -0.333999 0
M  V30 5787 H 590.365 -1.94048 -0.182051 0
M  V30 5788 H 589.461 -2.74854 -1.47857 0
M  V30 5789 N 589.762 0.448376 -1.51087 0
M  V30 5790 C 591.039 1.20926 -1.53741 0
M  V30 5791 C 591.419 2.09025 -0.295222 0
M  V30 5792 O 590.767 2.16851 0.720283 0
M  V30 5793 C 590.977 2.02067 -2.84552 0
M  V30 5794 C 592.325 2.59486 -3.36084 0
M  V30 5795 O 593.349 2.12289 -2.86028 0
M  V30 5796 O 592.208 3.45539 -4.23397 0
M  V30 5797 H 589.302 0.549951 -0.617643 0
M  V30 5798 H 591.848 0.458344 -1.63393 0
M  V30 5799 H 590.62 1.37291 -3.66425 0
M  V30 5800 H 590.243 2.84246 -2.78011 0
M  V30 5801 N 591.24 1.41047 0.703093 0
M  V30 5802 C 592.17 1.45067 1.82969 0
M  V30 5803 C 593.151 0.31016 1.67248 0
M  V30 5804 O 594.336 0.520548 1.87093 0
M  V30 5805 C 591.466 1.32478 3.2104 0
M  V30 5806 C 590.42 2.44262 3.51454 0
M  V30 5807 C 589.746 2.16742 4.88801 0
M  V30 5808 C 591.046 3.86606 3.51189 0
M  V30 5809 H 592.74 2.39353 1.79863 0
M  V30 5810 H 590.286 1.15206 0.863919 0
M  V30 5811 H 592.239 1.33904 3.99559 0
M  V30 5812 H 590.963 0.346735 3.24754 0
M  V30 5813 H 589.622 2.42107 2.75282 0
M  V30 5814 H 589.27 1.17299 4.89132 0
M  V30 5815 H 588.97 2.91643 5.10116 0
M  V30 5816 H 590.494 2.19872 5.69639 0
M  V30 5817 H 591.908 3.90517 4.19725 0
M  V30 5818 H 590.305 4.61128 3.84033 0
M  V30 5819 H 591.375 4.15296 2.50315 0
M  V30 5820 N 592.718 -0.936591 1.26751 0
M  V30 5821 C 593.648 -2.05315 1.11212 0
M  V30 5822 C 594.629 -1.70092 0.0160262 0
M  V30 5823 O 595.814 -1.93279 0.188894 0
M  V30 5824 C 592.944 -3.39123 0.749171 0
M  V30 5825 C 591.898 -3.88425 1.79751 0
M  V30 5826 C 591.224 -5.18936 1.28876 0
M  V30 5827 C 592.524 -4.12798 3.19992 0
M  V30 5828 H 594.218 -2.18573 2.04613 0
M  V30 5829 H 591.764 -1.05027 0.985159 0
M  V30 5830 H 593.717 -4.16704 0.627323 0
M  V30 5831 H 592.441 -3.25855 -0.220543 0
M  V30 5832 H 591.1 -3.13028 1.90811 0
M  V30 5833 H 590.748 -5.02051 0.308757 0
M  V30 5834 H 590.448 -5.52892 1.98958 0
M  V30 5835 H 591.972 -5.99096 1.17967 0
M  V30 5836 H 593.386 -4.80977 3.11983 0
M  V30 5837 H 591.783 -4.58044 3.87705 0
M  V30 5838 H 592.853 -3.18412 3.65707 0
M  V30 5839 N 594.196 -1.08629 -1.14182 0
M  V30 5840 C 595.443 -0.817345 -1.85272 0
M  V30 5841 C 595.771 0.656917 -1.83071 0
M  V30 5842 O 595.026 1.49897 -1.25815 0
M  V30 5843 C 595.325 -1.28734 -3.3341 0
M  V30 5844 C 594.991 -2.76981 -3.55798 0
M  V30 5845 C 593.653 -3.17469 -3.61617 0
M  V30 5846 C 596.005 -3.72605 -3.64438 0
M  V30 5847 C 593.333 -4.52371 -3.736 0
M  V30 5848 C 595.685 -5.07286 -3.77947 0
M  V30 5849 C 594.349 -5.47376 -3.82016 0
M  V30 5850 H 593.619 -0.299088 -0.677958 0
M  V30 5851 H 596.266 -1.35962 -1.34857 0
M  V30 5852 H 594.571 -0.664702 -3.8612 0
M  V30 5853 H 596.268 -1.05598 -3.86846 0
M  V30 5854 H 592.858 -2.44644 -3.51919 0
M  V30 5855 H 597.042 -3.42443 -3.5923 0
M  V30 5856 H 592.298 -4.82882 -3.75013 0
M  V30 5857 H 596.472 -5.81243 -3.83575 0
M  V30 5858 H 594.099 -6.51906 -3.91054 0
M  V30 5859 N 595.674 1.31259 -0.872281 0
M  V30 5860 C 596.622 2.30404 -0.318897 0
M  V30 5861 C 597.616 1.5962 0.567267 0
M  V30 5862 O 598.822 1.74204 0.453111 0
M  V30 5863 H 595.197 0.747243 -0.0844474 0
M  V30 5864 H 597.168 2.74549 -1.16899 0
M  V30 5865 C 595.917 3.44608 0.462683 0
M  V30 5866 H 595.24 3.99248 -0.209936 0
M  V30 5867 H 596.68 4.1609 0.815187 0
M  V30 5868 C 595.139 2.93456 1.65485 0
M  V30 5869 O 595.669 2.92418 2.75417 0
M  V30 5870 N 593.875 2.49628 1.48776 0
M  V30 5871 H 593.422 2.50671 0.593452 0
M  V30 5872 H 593.38 2.15759 2.28682 0
M  V30 5873 N 597.152 0.631951 1.44375 0
M  V30 5874 C 598.398 0.13697 2.02337 0
M  V30 5875 C 598.731 -1.23826 1.49602 0
M  V30 5876 O 598.006 -1.8221 0.680415 0
M  V30 5877 C 598.289 0.124536 3.59885 0
M  V30 5878 C 598.142 1.53217 4.229 0
M  V30 5879 C 599.461 -0.550481 4.36644 0
M  V30 5880 H 596.58 0.051247 0.735216 0
M  V30 5881 H 599.222 0.808581 1.71936 0
M  V30 5882 H 597.372 -0.44737 3.85916 0
M  V30 5883 H 599.044 2.15303 4.07973 0
M  V30 5884 H 597.287 2.0858 3.80364 0
M  V30 5885 H 597.958 1.4755 5.31914 0
M  V30 5886 H 600.434 -0.0641154 4.16051 0
M  V30 5887 H 599.31 -0.528371 5.46351 0
M  V30 5888 H 599.571 -1.62097 4.11311 0
M  V30 5889 N 598.631 -1.53133 0.372548 0
M  V30 5890 C 599.877 -2.01654 -0.215277 0
M  V30 5891 C 600.21 -1.25914 -1.47849 0
M  V30 5892 O 599.485 -0.3548 -1.91237 0
M  V30 5893 C 599.768 -3.56609 -0.500187 0
M  V30 5894 C 599.621 -4.43036 0.777145 0
M  V30 5895 C 600.94 -4.20528 -1.29786 0
M  V30 5896 H 598.059 -0.732991 -0.0767686 0
M  V30 5897 H 600.701 -1.83335 0.498814 0
M  V30 5898 H 598.851 -3.7235 -1.10852 0
M  V30 5899 H 600.523 -4.39079 1.41447 0
M  V30 5900 H 598.766 -4.10723 1.39604 0
M  V30 5901 H 599.437 -5.49424 0.532662 0
M  V30 5902 H 601.913 -4.08663 -0.783198 0
M  V30 5903 H 600.789 -5.28962 -1.46596 0
M  V30 5904 H 601.05 -3.77051 -2.30836 0
M  V30 5905 N 600.109 -0.101901 -1.5727 0
M  V30 5906 C 601.349 0.563489 -1.96479 0
M  V30 5907 C 601.713 1.64926 -0.983021 0
M  V30 5908 O 602.914 2.37234 -1.26386 0
M  V30 5909 C 601.185 1.09809 -3.40113 0
M  V30 5910 S 602.744 1.7744 -4.01323 0
M  V30 5911 H 599.562 0.183675 -0.686866 0
M  V30 5912 H 602.164 -0.182922 -1.94642 0
M  V30 5913 H 600.868 0.296447 -4.09328 0
M  V30 5914 H 600.399 1.88018 -3.45562 0
M  V30 5915 H 602.414 3.0591 -3.90683 0
M  V30 5916 N 601.587 1.56661 0.17182 0
M  V30 5917 C 602.534 1.96371 1.21273 0
M  V30 5918 C 603.504 0.82756 1.44016 0
M  V30 5919 O 604.689 1.08764 1.56764 0
M  V30 5920 C 601.829 2.32838 2.54716 0
M  V30 5921 C 600.942 3.59628 2.39356 0
M  V30 5922 C 600.077 3.85311 3.65662 0
M  V30 5923 C 599.116 5.0545 3.45234 0
M  V30 5924 N 598.253 5.27268 4.63608 0
M  V30 5925 H 603.093 2.85106 0.86709 0
M  V30 5926 H 600.63 1.41073 0.416744 0
M  V30 5927 H 602.588 2.52004 3.3249 0
M  V30 5928 H 601.218 1.47214 2.87277 0
M  V30 5929 H 600.27 3.4838 1.52761 0
M  V30 5930 H 601.582 4.4756 2.20207 0
M  V30 5931 H 600.736 4.04841 4.51872 0
M  V30 5932 H 599.475 2.95753 3.8779 0
M  V30 5933 H 598.48 4.85819 2.5741 0
M  V30 5934 H 599.705 5.96538 3.24529 0
M  V30 5935 H 597.651 4.40662 4.85956 0
M  V30 5936 H 597.568 6.09422 4.4737 0
M  V30 5937 H 598.836 5.51277 5.51103 0
M  V30 5938 N 603.065 -0.440357 1.51323 0
M  V30 5939 C 603.975 -1.55955 1.75258 0
M  V30 5940 C 604.991 -1.61933 0.636687 0
M  V30 5941 O 606.167 -1.79231 0.918593 0
M  V30 5942 C 603.232 -2.9196 1.86977 0
M  V30 5943 C 602.293 -2.96122 3.10822 0
M  V30 5944 C 601.526 -4.2564 3.21973 0
M  V30 5945 O 601.749 -5.17851 2.39137 0
M  V30 5946 O 600.683 -4.36025 4.14929 0
M  V30 5947 H 604.509 -1.38673 2.70191 0
M  V30 5948 H 602.094 -0.623055 1.35788 0
M  V30 5949 H 603.976 -3.72682 1.96688 0
M  V30 5950 H 602.651 -3.09375 0.952307 0
M  V30 5951 H 601.558 -2.14366 3.06591 0
M  V30 5952 H 602.891 -2.83651 4.02247 0
M  V30 5953 N 604.543 -1.41418 -0.695603 0
M  V30 5954 C 605.783 -1.42241 -1.46788 0
M  V30 5955 C 606.147 -0.0300827 -1.91976 0
M  V30 5956 O 607.348 0.0868914 -2.6866 0
M  V30 5957 C 605.619 -2.4011 -2.6473 0
M  V30 5958 S 607.178 -2.59462 -3.53871 0
M  V30 5959 H 603.996 -0.503893 -0.50161 0
M  V30 5960 H 606.598 -1.77855 -0.811654 0
M  V30 5961 H 605.302 -3.40073 -2.29736 0
M  V30 5962 H 604.833 -2.05849 -3.35246 0
M  V30 5963 H 606.848 -1.862 -4.59939 0
M  V30 5964 N 606.021 0.929856 -1.27246 0
M  V30 5965 C 606.931 2.0636 -1.11592 0
M  V30 5966 C 607.947 1.73938 -0.046496 0
M  V30 5967 O 609.123 1.9981 -0.252544 0
M  V30 5968 C 606.188 3.38213 -0.762437 0
M  V30 5969 C 605.249 3.84346 -1.9125 0
M  V30 5970 C 604.482 5.09906 -1.57579 0
M  V30 5971 O 604.705 5.68354 -0.482694 0
M  V30 5972 O 603.639 5.51359 -2.41426 0
M  V30 5973 H 607.465 2.22478 -2.0673 0
M  V30 5974 H 605.05 1.04865 -1.06413 0
M  V30 5975 H 606.932 4.1741 -0.57854 0
M  V30 5976 H 605.607 3.23307 0.159439 0
M  V30 5977 H 604.514 3.06045 -2.15144 0
M  V30 5978 H 605.847 4.0379 -2.81451 0
M  V30 5979 N 607.499 1.09233 1.13605 0
M  V30 5980 C 608.747 0.825525 1.84471 0
M  V30 5981 C 609.068 -0.650702 1.83823 0
M  V30 5982 O 608.338 -1.47204 1.29259 0
M  V30 5983 H 606.918 0.3024 0.683054 0
M  V30 5984 H 609.58 1.38006 1.37624 0
M  V30 5985 H 608.676 1.17727 2.89045 0
M  V30 5986 N 608.977 -1.30795 0.87923 0
M  V30 5987 C 610.393 -1.48981 0.57243 0
M  V30 5988 C 610.593 -1.80719 -0.891236 0
M  V30 5989 O 609.649 -1.89136 -1.67283 0
M  V30 5990 C 610.962 -2.61721 1.48063 0
M  V30 5991 C 612.51 -2.75603 1.48365 0
M  V30 5992 C 612.985 -3.91449 2.37763 0
M  V30 5993 N 614.476 -3.98751 2.35695 0
M  V30 5994 C 615.211 -4.87684 3.01583 0
M  V30 5995 N 614.707 -5.81454 3.76674 0
M  V30 5996 N 616.5 -4.81005 2.90844 0
M  V30 5997 H 608.651 -1.08465 1.82617 0
M  V30 5998 H 610.914 -0.536813 0.781368 0
M  V30 5999 H 610.62 -2.45073 2.52254 0
M  V30 6000 H 610.494 -3.58071 1.18596 0
M  V30 6001 H 612.881 -2.9166 0.44927 0
M  V30 6002 H 612.962 -1.79891 1.81859 0
M  V30 6003 H 612.606 -3.76149 3.41283 0
M  V30 6004 H 612.536 -4.86487 2.01589 0
M  V30 6005 H 615.027 -3.31668 1.81121 0
M  V30 6006 H 615.34 -6.46063 4.24054 0
M  V30 6007 H 613.685 -5.81403 3.80782 0
M  V30 6008 H 616.876 -4.06728 2.31711 0
M  V30 6009 H 617.049 -5.50107 3.42471 0
M  V30 6010 N 610.455 -0.639598 -1.44038 0
M  V30 6011 C 611.387 0.0987684 -2.28987 0
M  V30 6012 C 612.4 0.80058 -1.41755 0
M  V30 6013 O 613.589 0.660611 -1.65826 0
M  V30 6014 C 610.689 1.16242 -3.18341 0
M  V30 6015 C 609.862 0.541447 -4.34036 0
M  V30 6016 C 608.921 1.50017 -5.04362 0
M  V30 6017 O 607.947 1.01403 -5.60095 0
M  V30 6018 N 609.149 2.83441 -5.06598 0
M  V30 6019 H 611.914 -0.630305 -2.92997 0
M  V30 6020 H 609.475 -0.481376 -1.54578 0
M  V30 6021 H 611.467 1.80429 -3.62253 0
M  V30 6022 H 610.037 1.79362 -2.56024 0
M  V30 6023 H 609.257 -0.27923 -3.9321 0
M  V30 6024 H 610.545 0.107379 -5.08687 0
M  V30 6025 H 609.943 3.2551 -4.62666 0
M  V30 6026 H 608.5 3.42966 -5.54272 0
M  V30 6027 N 611.933 1.52934 -0.380664 0
M  V30 6028 C 612.843 2.29921 0.466192 0
M  V30 6029 C 613.859 1.36488 1.07922 0
M  V30 6030 O 615.035 1.69553 1.0869 0
M  V30 6031 C 612.1 3.08468 1.58266 0
M  V30 6032 C 611.161 4.17595 0.995627 0
M  V30 6033 C 610.394 4.92387 2.05889 0
M  V30 6034 O 610.617 4.67184 3.27254 0
M  V30 6035 O 609.551 5.77949 1.68102 0
M  V30 6036 H 613.377 3.03274 -0.160735 0
M  V30 6037 H 610.962 1.48698 -0.144617 0
M  V30 6038 H 612.844 3.57469 2.23145 0
M  V30 6039 H 611.519 2.37937 2.19471 0
M  V30 6040 H 610.426 3.72811 0.310332 0
M  V30 6041 H 611.759 4.90336 0.427918 0
M  V30 6042 N 613.412 0.11024 1.57214 0
M  V30 6043 C 614.823 -0.416527 1.81994 0
M  V30 6044 C 615.174 -1.67183 1.02686 0
M  V30 6045 O 614.299 -2.14823 0.260782 0
M  V30 6046 C 614.894 -0.762466 3.30109 0
M  V30 6047 C 613.453 -1.23391 3.556 0
M  V30 6048 C 612.6 -0.238166 2.76275 0
M  V30 6049 H 615.551 0.335491 1.55113 0
M  V30 6050 H 615.572 -1.62068 3.44259 0
M  V30 6051 H 615.084 0.151346 3.87805 0
M  V30 6052 H 613.185 -2.16492 3.03253 0
M  V30 6053 H 613.298 -1.18528 4.64207 0
M  V30 6054 H 611.662 -0.723421 2.4421 0
M  V30 6055 H 612.445 0.668591 3.36727 0
M  V30 6056 N 614.89 -1.56749 -0.16351 0
M  V30 6057 C 615.853 -1.96121 -1.18613 0
M  V30 6058 C 616.853 -0.845765 -1.36761 0
M  V30 6059 O 618.043 -1.11268 -1.34033 0
M  V30 6060 C 615.175 -2.26282 -2.54969 0
M  V30 6061 H 616.368 -2.87639 -0.848764 0
M  V30 6062 H 613.921 -1.50928 -0.406251 0
M  V30 6063 H 614.656 -1.37504 -2.93706 0
M  V30 6064 H 614.441 -3.07595 -2.43162 0
M  V30 6065 H 615.931 -2.57638 -3.28653 0
M  V30 6066 N 616.368 0.432326 -1.51554 0
M  V30 6067 C 617.593 1.20824 -1.68571 0
M  V30 6068 C 618.018 1.84126 -0.384596 0
M  V30 6069 O 617.376 1.69025 0.655751 0
M  V30 6070 C 617.424 2.26429 -2.80646 0
M  V30 6071 O 616.528 3.32032 -2.44598 0
M  V30 6072 H 615.869 0.353765 -0.561913 0
M  V30 6073 H 618.399 0.509916 -1.98144 0
M  V30 6074 H 618.409 2.71133 -3.04878 0
M  V30 6075 H 617.084 1.79733 -3.75058 0
M  V30 6076 H 615.661 2.92769 -2.30956 0
M  V30 6077 N 617.846 1.41785 0.688094 0
M  V30 6078 C 619.094 1.41264 1.4453 0
M  V30 6079 C 619.415 0.0252946 1.94984 0
M  V30 6080 O 618.685 -0.934081 1.72197 0
M  V30 6081 H 617.265 0.519998 0.536294 0
M  V30 6082 H 619.927 1.7709 0.813941 0
M  V30 6083 H 619.023 2.10439 2.30482 0
M  V30 6084 N 619.324 -0.923095 1.27737 0
M  V30 6085 C 620.572 -1.66797 1.14119 0
M  V30 6086 C 620.893 -1.92479 -0.312541 0
M  V30 6087 O 620.163 -1.53432 -1.218 0
M  V30 6088 H 618.743 -0.618196 0.419336 0
M  V30 6089 H 621.405 -1.10815 1.60331 0
M  V30 6090 H 620.501 -2.63424 1.67374 0
M  V30 6091 N 620.802 -1.09834 -1.13024 0
M  V30 6092 C 622.05 -0.835297 -1.8403 0
M  V30 6093 C 622.371 0.640944 -1.84165 0
M  V30 6094 O 621.641 1.46517 -1.30037 0
M  V30 6095 H 620.221 -0.306018 -0.681441 0
M  V30 6096 H 622.883 -1.38734 -1.36891 0
M  V30 6097 H 621.979 -1.19258 -2.88416 0
M  V30 6098 N 622.28 1.30327 -0.886154 0
M  V30 6099 C 623.528 1.9571 -0.504195 0
M  V30 6100 C 623.849 1.70294 0.950003 0
M  V30 6101 O 623.119 1.02718 1.66811 0
M  V30 6102 H 621.699 0.72412 -0.183465 0
M  V30 6103 H 624.361 1.58835 -1.12949 0
M  V30 6104 H 623.457 3.04704 -0.675431 0
M  V30 6105 N 623.758 0.647228 1.43697 0
M  V30 6106 C 624.986 0.16575 2.06235 0
M  V30 6107 C 625.401 -1.1662 1.48476 0
M  V30 6108 O 624.758 -1.7187 0.613762 0
M  V30 6109 C 624.809 0.0621651 3.61447 0
M  V30 6110 O 624.53 1.34146 4.17057 0
M  V30 6111 C 626.031 -0.446102 4.4105 0
M  V30 6112 H 623.251 0.0871158 0.665321 0
M  V30 6113 H 625.795 0.886183 1.84301 0
M  V30 6114 H 623.95 -0.608794 3.82587 0
M  V30 6115 H 624.364 1.19675 5.10664 0
M  V30 6116 H 625.838 -0.46755 5.50016 0
M  V30 6117 H 626.315 -1.47627 4.13646 0
M  V30 6118 H 626.921 0.192159 4.24866 0
M  V30 6119 N 625.236 -1.5273 0.388769 0
M  V30 6120 C 626.476 -2.03483 -0.193372 0
M  V30 6121 C 626.84 -1.26897 -1.44087 0
M  V30 6122 O 628.041 -1.67773 -2.10014 0
M  V30 6123 C 626.312 -3.54488 -0.455325 0
M  V30 6124 S 627.871 -4.27069 -1.00783 0
M  V30 6125 H 624.689 -0.708907 -0.0545131 0
M  V30 6126 H 627.291 -1.8798 0.536993 0
M  V30 6127 H 625.995 -4.07817 0.459722 0
M  V30 6128 H 625.526 -3.74196 -1.21413 0
M  V30 6129 H 627.541 -4.40185 -2.29023 0
M  V30 6130 N 626.714 -0.118576 -1.57153 0
M  V30 6131 C 627.664 0.842924 -2.11846 0
M  V30 6132 C 628.648 1.22845 -1.03914 0
M  V30 6133 O 629.84 1.19961 -1.30148 0
M  V30 6134 C 626.969 2.09312 -2.72109 0
M  V30 6135 C 626.055 1.73198 -3.87122 0
M  V30 6136 N 626.446 1.07758 -4.94188 0
M  V30 6137 C 624.744 2.02659 -3.97298 0
M  V30 6138 C 625.445 0.907741 -5.74574 0
M  V30 6139 N 624.421 1.4326 -5.24383 0
M  V30 6140 H 628.223 0.333416 -2.92003 0
M  V30 6141 H 625.737 0.0839073 -1.62183 0
M  V30 6142 H 627.734 2.79162 -3.09635 0
M  V30 6143 H 626.394 2.60807 -1.93416 0
M  V30 6144 H 627.405 0.741613 -5.12563 0
M  V30 6145 H 624.082 2.56204 -3.29645 0
M  V30 6146 H 625.472 0.394112 -6.70743 0
M  V30 6147 N 628.193 1.56834 0.155195 0
M  V30 6148 C 629.609 1.51315 0.50755 0
M  V30 6149 C 629.809 0.825614 1.83809 0
M  V30 6150 O 628.865 0.39271 2.49427 0
M  V30 6151 C 630.178 2.96074 0.52542 0
M  V30 6152 C 631.726 3.06968 0.611505 0
M  V30 6153 C 632.201 4.53218 0.660115 0
M  V30 6154 N 633.692 4.5753 0.722564 0
M  V30 6155 C 634.427 5.68056 0.781023 0
M  V30 6156 N 633.923 6.88173 0.799327 0
M  V30 6157 N 635.716 5.56068 0.821278 0
M  V30 6158 H 627.867 1.9993 -0.717063 0
M  V30 6159 H 630.13 0.911507 -0.260496 0
M  V30 6160 H 629.836 3.49599 -0.383875 0
M  V30 6161 H 629.71 3.51587 1.36624 0
M  V30 6162 H 632.097 2.53468 1.51122 0
M  V30 6163 H 632.178 2.54513 -0.256306 0
M  V30 6164 H 631.822 5.07354 -0.23541 0
M  V30 6165 H 631.752 5.03447 1.5443 0
M  V30 6166 H 634.243 3.71054 0.716049 0
M  V30 6167 H 634.556 7.6816 0.845553 0
M  V30 6168 H 632.901 6.90751 0.767337 0
M  V30 6169 H 636.092 4.61142 0.804091 0
M  V30 6170 H 636.265 6.42223 0.863372 0
M  V30 6171 N 629.671 -0.424282 1.51781 0
M  V30 6172 C 630.911 -1.18194 1.66762 0
M  V30 6173 C 631.275 -1.88164 0.381857 0
M  V30 6174 O 632.476 -2.65692 0.407586 0
M  V30 6175 C 630.747 -2.16173 2.84612 0
M  V30 6176 S 632.306 -3.0025 3.19993 0
M  V30 6177 H 629.124 -0.400626 0.587384 0
M  V30 6178 H 631.726 -0.471499 1.89729 0
M  V30 6179 H 630.43 -1.6343 3.76455 0
M  V30 6180 H 629.961 -2.91778 2.63873 0
M  V30 6181 H 631.976 -4.1796 2.67439 0
M  V30 6182 N 631.149 -1.42148 -0.680565 0
M  V30 6183 C 632.565 -1.24947 -0.992995 0
M  V30 6184 C 632.765 -0.149527 -2.00944 0
M  V30 6185 O 631.821 0.481145 -2.47873 0
M  V30 6186 C 633.134 -2.60426 -1.5033 0
M  V30 6187 C 634.682 -2.67733 -1.62137 0
M  V30 6188 C 635.157 -4.03564 -2.16565 0
M  V30 6189 N 636.648 -4.05488 -2.23905 0
M  V30 6190 C 637.383 -5.07401 -2.67081 0
M  V30 6191 N 636.879 -6.19698 -3.09751 0
M  V30 6192 N 638.672 -4.94758 -2.66778 0
M  V30 6193 H 630.823 -2.12399 -0.0074788 0
M  V30 6194 H 633.086 -0.94571 -0.0658529 0
M  V30 6195 H 632.792 -3.41743 -0.830947 0
M  V30 6196 H 632.666 -2.83949 -2.483 0
M  V30 6197 H 635.053 -1.86765 -2.2848 0
M  V30 6198 H 635.134 -2.48004 -0.626713 0
M  V30 6199 H 634.778 -4.84987 -1.50833 0
M  V30 6200 H 634.708 -4.20641 -3.1681 0
M  V30 6201 H 637.199 -3.24415 -1.93812 0
M  V30 6202 H 637.512 -6.93318 -3.41365 0
M  V30 6203 H 635.857 -6.23212 -3.07623 0
M  V30 6204 H 639.048 -4.06105 -2.32801 0
M  V30 6205 H 639.221 -5.74317 -3.00107 0
M  V30 6206 N 632.627 0.916307 -1.28225 0
M  V30 6207 C 633.904 1.64429 -1.05936 0
M  V30 6208 C 634.284 2.07234 0.402139 0
M  V30 6209 O 633.632 1.81535 1.3877 0
M  V30 6210 C 633.842 2.83773 -2.03159 0
M  V30 6211 C 635.19 3.54852 -2.33164 0
M  V30 6212 O 636.214 2.93918 -2.01223 0
M  V30 6213 O 635.073 4.64663 -2.87664 0
M  V30 6214 H 632.167 0.721221 -0.404683 0
M  V30 6215 H 634.713 0.965838 -1.39534 0
M  V30 6216 H 633.485 2.49217 -3.01673 0
M  V30 6217 H 633.108 3.59333 -1.70192 0
M  V30 6218 N 634.105 1.10431 1.1244 0
M  V30 6219 C 635.015 0.765502 2.21759 0
M  V30 6220 C 636.031 -0.236966 1.72379 0
M  V30 6221 O 637.207 -0.0757329 2.01258 0
M  V30 6222 C 634.272 0.202316 3.46109 0
M  V30 6223 C 633.333 1.26205 4.1033 0
M  V30 6224 C 632.566 0.725648 5.28744 0
M  V30 6225 O 632.789 -0.447942 5.68638 0
M  V30 6226 O 631.723 1.48555 5.83279 0
M  V30 6227 H 635.549 1.67801 2.53133 0
M  V30 6228 H 633.134 0.879443 1.20773 0
M  V30 6229 H 635.016 -0.107918 4.21262 0
M  V30 6230 H 633.691 -0.683052 3.16411 0
M  V30 6231 H 632.598 1.62514 3.36957 0
M  V30 6232 H 633.931 2.12044 4.44183 0
M  V30 6233 N 635.583 -1.29855 0.893053 0
M  V30 6234 C 636.829 -1.96116 0.516349 0
M  V30 6235 C 637.162 -1.70281 -0.933695 0
M  V30 6236 O 636.437 -1.01205 -1.66096 0
M  V30 6237 C 636.72 -3.51068 0.801455 0
M  V30 6238 C 636.573 -3.86387 2.30272 0
M  V30 6239 C 637.892 -4.39186 0.283423 0
M  V30 6240 H 635.011 -0.712335 0.189072 0
M  V30 6241 H 637.653 -1.53587 1.11852 0
M  V30 6242 H 635.803 -3.87424 0.288949 0
M  V30 6243 H 637.475 -3.60012 2.88425 0
M  V30 6244 H 635.718 -3.34167 2.76613 0
M  V30 6245 H 636.389 -4.94512 2.45279 0
M  V30 6246 H 638.865 -4.09785 0.722187 0
M  V30 6247 H 637.741 -5.46505 0.512169 0
M  V30 6248 H 638.002 -4.34511 -0.815643 0
M  V30 6249 N 637.061 -0.65484 -1.43351 0
M  V30 6250 C 638.011 0.0581325 -2.27926 0
M  V30 6251 C 638.995 0.793188 -1.3999 0
M  V30 6252 O 640.187 0.675387 -1.63608 0
M  V30 6253 C 637.316 1.02272 -3.27712 0
M  V30 6254 C 636.402 0.286048 -4.23134 0
M  V30 6255 N 636.793 -0.698298 -5.00957 0
M  V30 6256 C 635.091 0.527272 -4.42872 0
M  V30 6257 C 635.792 -1.1357 -5.70506 0
M  V30 6258 N 634.768 -0.469631 -5.41568 0
M  V30 6259 H 638.57 -0.697182 -2.85511 0
M  V30 6260 H 636.084 -0.482252 -1.55074 0
M  V30 6261 H 638.081 1.5483 -3.87083 0
M  V30 6262 H 636.741 1.77807 -2.71688 0
M  V30 6263 H 637.752 -1.07708 -5.06576 0
M  V30 6264 H 634.429 1.26367 -3.97916 0
M  V30 6265 H 635.819 -1.95027 -6.42973 0
M  V30 6266 N 638.539 1.52521 -0.396863 0
M  V30 6267 C 639.786 2.01672 0.182898 0
M  V30 6268 C 640.114 1.28302 1.46181 0
M  V30 6269 O 639.369 0.374118 1.92091 0
M  V30 6270 C 639.668 3.5403 0.489677 0
M  V30 6271 C 639.334 4.45456 -0.698581 0
M  V30 6272 C 637.996 4.70166 -1.02454 0
M  V30 6273 C 640.348 4.99354 -1.49316 0
M  V30 6274 C 637.676 5.46024 -2.1465 0
M  V30 6275 C 640.028 5.76439 -2.60579 0
M  V30 6276 C 638.692 5.99426 -2.93675 0
M  V30 6277 H 637.962 0.737971 0.066927 0
M  V30 6278 H 640.609 1.83853 -0.535764 0
M  V30 6279 H 638.914 3.69963 1.28976 0
M  V30 6280 H 640.611 3.8956 0.951018 0
M  V30 6281 H 637.201 4.26392 -0.434525 0
M  V30 6282 H 641.385 4.80182 -1.25457 0
M  V30 6283 H 636.641 5.62046 -2.40654 0
M  V30 6284 H 640.815 6.17202 -3.22544 0
M  V30 6285 H 638.442 6.57988 -3.80731 0
M  V30 6286 N 640.017 0.126909 1.57088 0
M  V30 6287 C 641.294 -0.573152 1.87014 0
M  V30 6288 C 641.674 -1.84297 1.02945 0
M  V30 6289 O 641.022 -2.28232 0.110573 0
M  V30 6290 C 641.232 -0.857984 3.38289 0
M  V30 6291 C 642.58 -1.20759 4.07066 0
M  V30 6292 O 643.604 -0.947992 3.43353 0
M  V30 6293 O 642.463 -1.69516 5.19545 0
M  V30 6294 H 639.557 -0.290082 0.774456 0
M  V30 6295 H 642.103 0.162008 1.68925 0
M  V30 6296 H 640.875 0.0415286 3.91278 0
M  V30 6297 H 640.498 -1.64803 3.61837 0
M  V30 6298 N 641.495 -1.56914 -0.146875 0
M  V30 6299 C 642.906 -1.72799 -0.706928 0
M  V30 6300 C 643.257 -0.741329 -1.81656 0
M  V30 6301 O 642.382 0.0920162 -2.16204 0
M  V30 6302 C 642.977 -3.13317 -1.28911 0
M  V30 6303 C 641.536 -3.30803 -1.79573 0
M  V30 6304 C 640.683 -2.68725 -0.684252 0
M  V30 6305 H 643.634 -1.58504 0.0787931 0
M  V30 6306 H 643.655 -3.13323 -2.15891 0
M  V30 6307 H 643.167 -3.85104 -0.481284 0
M  V30 6308 H 641.268 -2.64012 -2.62923 0
M  V30 6309 H 641.381 -4.38754 -1.92436 0
M  V30 6310 H 639.745 -2.29196 -1.11091 0
M  V30 6311 H 640.528 -3.43117 0.112134 0
M  V30 6312 N 642.974 0.416227 -1.52004 0
M  V30 6313 C 644.39 0.754319 -1.40649 0
M  V30 6314 C 644.59 1.95059 -0.505392 0
M  V30 6315 O 643.646 2.5248 0.0315057 0
M  V30 6316 C 644.959 1.0149 -2.83055 0
M  V30 6317 C 646.507 1.11805 -2.9235 0
M  V30 6318 C 646.982 1.41144 -4.35709 0
M  V30 6319 N 648.473 1.48024 -4.38911 0
M  V30 6320 C 649.208 1.72338 -5.46889 0
M  V30 6321 N 648.704 1.94303 -6.64995 0
M  V30 6322 N 650.497 1.74294 -5.34395 0
M  V30 6323 H 642.648 -0.371324 -2.09129 0
M  V30 6324 H 644.911 -0.103811 -0.942299 0
M  V30 6325 H 644.617 0.208345 -3.51082 0
M  V30 6326 H 644.491 1.93697 -3.23668 0
M  V30 6327 H 646.878 1.91521 -2.24508 0
M  V30 6328 H 646.959 0.17451 -2.55204 0
M  V30 6329 H 646.603 0.619484 -5.04108 0
M  V30 6330 H 646.533 2.36739 -4.70385 0
M  V30 6331 H 649.024 1.32868 -3.53772 0
M  V30 6332 H 649.337 2.12286 -7.43071 0
M  V30 6333 H 647.682 1.91582 -6.68073 0
M  V30 6334 H 650.873 1.56667 -4.41104 0
M  V30 6335 H 651.046 1.92904 -6.18621 0
M  V30 6336 N 644.452 1.42507 0.673017 0
M  V30 6337 C 645.384 1.42074 1.79854 0
M  V30 6338 C 646.397 0.319569 1.59633 0
M  V30 6339 O 647.586 0.582769 1.68719 0
M  V30 6340 C 644.686 1.19886 3.16987 0
M  V30 6341 C 643.859 2.42471 3.64042 0
M  V30 6342 C 642.918 2.15802 4.79913 0
M  V30 6343 O 641.944 2.89015 4.90366 0
M  V30 6344 N 643.146 1.16225 5.68746 0
M  V30 6345 H 645.911 2.3909 1.8071 0
M  V30 6346 H 643.472 1.37409 0.856171 0
M  V30 6347 H 645.464 0.999591 3.92161 0
M  V30 6348 H 644.034 0.313879 3.1102 0
M  V30 6349 H 643.254 2.77954 2.79526 0
M  V30 6350 H 644.542 3.24097 3.92223 0
M  V30 6351 H 643.94 0.556756 5.62954 0
M  V30 6352 H 642.497 1.02285 6.43724 0
M  V30 6353 N 645.93 -0.909495 1.28709 0
M  V30 6354 C 647.346 -1.18862 1.06508 0
M  V30 6355 C 647.546 -2.00604 -0.189864 0
M  V30 6356 O 646.602 -2.36281 -0.890355 0
M  V30 6357 C 647.915 -1.91908 2.31499 0
M  V30 6358 C 649.463 -2.04773 2.36721 0
M  V30 6359 C 649.938 -2.81228 3.6149 0
M  V30 6360 N 651.429 -2.88787 3.62155 0
M  V30 6361 C 652.164 -3.48455 4.55375 0
M  V30 6362 N 651.66 -4.09369 5.58918 0
M  V30 6363 N 653.453 -3.46035 4.42963 0
M  V30 6364 H 645.604 -0.363867 2.0926 0
M  V30 6365 H 647.867 -0.223649 0.921241 0
M  V30 6366 H 647.573 -1.39275 3.22948 0
M  V30 6367 H 647.447 -2.92436 2.38245 0
M  V30 6368 H 649.834 -2.56585 1.45767 0
M  V30 6369 H 649.915 -1.03408 2.33967 0
M  V30 6370 H 649.559 -2.30094 4.5279 0
M  V30 6371 H 649.489 -3.82917 3.61499 0
M  V30 6372 H 651.98 -2.45514 2.87283 0
M  V30 6373 H 652.293 -4.52891 6.26187 0
M  V30 6374 H 650.638 -4.0786 5.62739 0
M  V30 6375 H 653.829 -2.9766 3.6127 0
M  V30 6376 H 654.002 -3.92244 5.15799 0
M  V30 6377 N 647.408 -1.11026 -1.11852 0
M  V30 6378 C 648.656 -0.854769 -1.83134 0
M  V30 6379 C 648.977 0.621375 -1.84835 0
M  V30 6380 O 648.247 1.45129 -1.31584 0
M  V30 6381 H 646.827 -0.313229 -0.678157 0
M  V30 6382 H 649.489 -1.40178 -1.35411 0
M  V30 6383 H 648.585 -1.22311 -2.87135 0
M  V30 6384 N 648.886 1.2938 -0.899927 0
M  V30 6385 C 649.816 2.30144 -0.39446 0
M  V30 6386 C 650.797 1.61611 0.530639 0
M  V30 6387 O 651.982 1.89119 0.441319 0
M  V30 6388 C 649.112 3.45229 0.37868 0
M  V30 6389 C 648.066 4.25564 -0.456012 0
M  V30 6390 C 647.392 5.32848 0.444637 0
M  V30 6391 C 648.692 4.93651 -1.70605 0
M  V30 6392 H 650.386 2.72673 -1.23653 0
M  V30 6393 H 647.932 1.31086 -0.596034 0
M  V30 6394 H 649.885 4.14797 0.743037 0
M  V30 6395 H 648.609 3.01545 1.25453 0
M  V30 6396 H 647.268 3.57704 -0.802704 0
M  V30 6397 H 646.916 4.85408 1.31863 0
M  V30 6398 H 646.616 5.87497 -0.110154 0
M  V30 6399 H 648.14 6.05268 0.805182 0
M  V30 6400 H 649.554 5.55655 -1.41141 0
M  V30 6401 H 647.951 5.58233 -2.20217 0
M  V30 6402 H 649.021 4.18926 -2.4419 0
M  V30 6403 N 650.364 0.662433 1.43002 0
M  V30 6404 C 651.592 0.187615 2.06048 0
M  V30 6405 C 652.007 -1.15039 1.49705 0
M  V30 6406 O 651.364 -1.71209 0.631956 0
M  V30 6407 C 651.415 0.100498 3.6136 0
M  V30 6408 O 651.136 1.38562 4.15611 0
M  V30 6409 C 652.637 -0.399298 4.41498 0
M  V30 6410 H 649.857 0.0941675 0.664359 0
M  V30 6411 H 652.401 0.905681 1.83351 0
M  V30 6412 H 650.556 -0.568181 3.83211 0
M  V30 6413 H 650.97 1.25084 5.09366 0
M  V30 6414 H 652.444 -0.409187 5.50481 0
M  V30 6415 H 652.921 -1.43232 4.15188 0
M  V30 6416 H 653.527 0.23721 4.24638 0
M  V30 6417 N 651.842 -1.52309 0.404946 0
M  V30 6418 C 652.752 -2.30634 -0.429555 0
M  V30 6419 C 653.768 -1.38187 -1.05737 0
M  V30 6420 O 654.944 -1.71261 -1.05979 0
M  V30 6421 C 652.009 -3.10947 -1.53339 0
M  V30 6422 C 651.07 -4.19126 -0.929065 0
M  V30 6423 C 650.303 -4.95601 -1.9803 0
M  V30 6424 O 650.526 -4.72331 -3.1978 0
M  V30 6425 O 649.46 -5.80551 -1.58886 0
M  V30 6426 H 653.286 -3.0298 0.208963 0
M  V30 6427 H 650.871 -1.4845 0.168255 0
M  V30 6428 H 652.753 -3.60974 -2.1743 0
M  V30 6429 H 651.428 -2.41399 -2.15658 0
M  V30 6430 H 650.335 -3.73257 -0.250982 0
M  V30 6431 H 651.668 -4.90955 -0.349855 0
M  V30 6432 N 653.32 -0.135238 -1.57019 0
M  V30 6433 C 654.545 0.529343 -2.00531 0
M  V30 6434 C 654.97 1.58391 -1.01459 0
M  V30 6435 O 654.328 1.81296 0.0113986 0
M  V30 6436 C 654.376 1.11748 -3.42848 0
M  V30 6437 O 653.48 2.23267 -3.46736 0
M  V30 6438 H 652.821 0.130669 -0.651016 0
M  V30 6439 H 655.351 -0.228503 -2.0332 0
M  V30 6440 H 655.361 1.44905 -3.81401 0
M  V30 6441 H 654.036 0.345147 -4.14465 0
M  V30 6442 H 652.613 1.91428 -3.20015 0
M  V30 6443 N 654.798 1.5699 0.138552 0
M  V30 6444 C 656.214 1.51844 0.491472 0
M  V30 6445 C 656.414 0.845063 1.82923 0
M  V30 6446 O 655.47 0.419143 2.48997 0
M  V30 6447 C 656.783 2.96615 0.493987 0
M  V30 6448 C 658.331 3.076 0.578913 0
M  V30 6449 C 658.806 4.53893 0.612009 0
M  V30 6450 N 660.297 4.5827 0.673997 0
M  V30 6451 C 661.032 5.68852 0.720729 0
M  V30 6452 N 660.528 6.88982 0.726292 0
M  V30 6453 N 662.321 5.56908 0.762253 0
M  V30 6454 H 654.472 1.99158 -0.738228 0
M  V30 6455 H 656.735 0.908693 -0.270149 0
M  V30 6456 H 656.441 3.49172 -0.420933 0
M  V30 6457 H 656.315 3.53017 1.32887 0
M  V30 6458 H 658.702 2.55057 1.48425 0
M  V30 6459 H 658.783 2.54227 -0.283286 0
M  V30 6460 H 658.427 5.07076 -0.289208 0
M  V30 6461 H 658.357 5.05057 1.49082 0
M  V30 6462 H 660.848 3.71793 0.676654 0
M  V30 6463 H 661.161 7.69014 0.764032 0
M  V30 6464 H 659.506 6.91526 0.69403 0
M  V30 6465 H 662.697 4.61969 0.755135 0
M  V30 6466 H 662.87 6.43102 0.795207 0
M  V30 6467 N 656.276 -0.40816 1.52223 0
M  V30 6468 C 657.522 -1.15673 1.66576 0
M  V30 6469 C 657.855 -1.90141 0.394996 0
M  V30 6470 O 657.13 -1.84798 -0.606613 0
M  V30 6471 C 657.413 -2.15042 2.88841 0
M  V30 6472 C 657.266 -1.44465 4.25969 0
M  V30 6473 C 658.585 -3.15699 3.0663 0
M  V30 6474 H 655.704 -0.41916 0.606196 0
M  V30 6475 H 658.346 -0.442348 1.84779 0
M  V30 6476 H 656.496 -2.75964 2.73452 0
M  V30 6477 H 658.168 -0.866544 4.53088 0
M  V30 6478 H 656.411 -0.746612 4.27327 0
M  V30 6479 H 657.082 -2.16976 5.07568 0
M  V30 6480 H 659.558 -2.64854 3.20923 0
M  V30 6481 H 658.434 -3.82491 3.9369 0
M  V30 6482 H 658.695 -3.83481 2.19987 0
M  V30 6483 N 657.755 -1.42862 -0.66545 0
M  V30 6484 C 658.685 -1.49867 -1.79059 0
M  V30 6485 C 659.666 -0.354394 -1.66367 0
M  V30 6486 O 660.851 -0.569969 -1.85647 0
M  V30 6487 C 657.981 -1.40943 -3.17415 0
M  V30 6488 C 656.935 -2.53495 -3.44854 0
M  V30 6489 C 656.261 -2.29626 -4.82883 0
M  V30 6490 C 657.561 -3.95781 -3.40815 0
M  V30 6491 H 659.255 -2.44037 -1.73453 0
M  V30 6492 H 656.801 -1.17456 -0.833071 0
M  V30 6493 H 658.754 -1.4445 -3.95869 0
M  V30 6494 H 657.478 -0.432716 -3.23721 0
M  V30 6495 H 656.137 -2.4932 -2.68766 0
M  V30 6496 H 655.785 -1.30226 -4.8585 0
M  V30 6497 H 655.485 -3.05065 -5.02204 0
M  V30 6498 H 657.009 -2.34897 -5.63609 0
M  V30 6499 H 658.423 -4.01508 -4.09224 0
M  V30 6500 H 656.82 -4.71148 -3.71672 0
M  V30 6501 H 657.89 -4.21786 -2.39216 0
M  V30 6502 N 659.233 0.902656 -1.29189 0
M  V30 6503 C 660.479 1.65532 -1.17163 0
M  V30 6504 C 660.812 1.92216 0.276879 0
M  V30 6505 O 660.087 1.53048 1.20027 0
M  V30 6506 C 660.37 3.00629 -1.98228 0
M  V30 6507 C 660.223 2.81029 -3.51202 0
M  V30 6508 C 661.542 4.01321 -1.80635 0
M  V30 6509 H 658.661 0.60071 -0.426985 0
M  V30 6510 H 661.303 1.04578 -1.5863 0
M  V30 6511 H 659.453 3.52656 -1.62991 0
M  V30 6512 H 661.125 2.35927 -3.96404 0
M  V30 6513 H 659.368 2.1587 -3.76275 0
M  V30 6514 H 660.039 3.77014 -4.03192 0
M  V30 6515 H 662.515 3.58394 -2.11406 0
M  V30 6516 H 661.391 4.93792 -2.3971 0
M  V30 6517 H 661.652 4.35505 -0.760754 0
M  V30 6518 N 660.711 1.11618 1.11262 0
M  V30 6519 C 661.959 0.864469 1.82678 0
M  V30 6520 C 662.28 -0.611564 1.85162 0
M  V30 6521 O 661.55 -1.44429 1.32352 0
M  V30 6522 H 660.13 0.316821 0.676486 0
M  V30 6523 H 662.792 1.40894 1.34666 0
M  V30 6524 H 661.888 1.23832 2.86482 0
M  V30 6525 N 662.189 -1.289 0.906776 0
M  V30 6526 C 663.437 -1.94883 0.535266 0
M  V30 6527 C 663.758 -1.71784 -0.922791 0
M  V30 6528 O 663.028 -1.05359 -1.65156 0
M  V30 6529 H 661.608 -0.721109 0.194962 0
M  V30 6530 H 664.27 -1.57018 1.15461 0
M  V30 6531 H 663.366 -3.03591 0.723821 0
M  V30 6532 N 663.667 -0.670007 -1.42649 0
M  V30 6533 C 664.597 -0.00258501 -2.335 0
M  V30 6534 C 665.578 0.794364 -1.50412 0
M  V30 6535 O 666.763 0.75248 -1.79029 0
M  V30 6536 C 663.893 0.952748 -3.33976 0
M  V30 6537 C 662.847 0.264733 -4.2718 0
M  V30 6538 C 662.173 1.33267 -5.17826 0
M  V30 6539 C 663.473 -0.853289 -5.15283 0
M  V30 6540 H 665.167 -0.761326 -2.89559 0
M  V30 6541 H 662.713 -0.367561 -1.3923 0
M  V30 6542 H 664.666 1.4287 -3.96442 0
M  V30 6543 H 663.39 1.74285 -2.7621 0
M  V30 6544 H 662.049 -0.190938 -3.66102 0
M  V30 6545 H 661.697 2.11464 -4.5639 0
M  V30 6546 H 661.397 0.877476 -5.81011 0
M  V30 6547 H 662.921 1.80965 -5.83167 0
M  V30 6548 H 664.335 -0.458763 -5.71462 0
M  V30 6549 H 662.732 -1.23398 -5.87276 0
M  V30 6550 H 663.802 -1.70412 -4.53969 0
M  V30 6551 N 665.145 1.52092 -0.413018 0
M  V30 6552 C 666.561 1.59471 -0.0640836 0
M  V30 6553 C 666.761 1.42562 1.42402 0
M  V30 6554 O 665.817 1.25453 2.19129 0
M  V30 6555 C 667.13 2.95392 -0.562474 0
M  V30 6556 C 668.678 3.08637 -0.520788 0
M  V30 6557 C 669.153 4.47044 -0.995752 0
M  V30 6558 N 670.644 4.53296 -0.952732 0
M  V30 6559 C 671.379 5.58669 -1.29138 0
M  V30 6560 N 670.875 6.71576 -1.70168 0
M  V30 6561 N 672.668 5.48898 -1.2111 0
M  V30 6562 H 664.819 1.6133 -1.38153 0
M  V30 6563 H 667.082 0.75916 -0.567785 0
M  V30 6564 H 666.788 3.13059 -1.60271 0
M  V30 6565 H 666.662 3.77191 0.0257875 0
M  V30 6566 H 669.049 2.90652 0.510412 0
M  V30 6567 H 669.13 2.28735 -1.14515 0
M  V30 6568 H 668.774 4.65773 -2.0253 0
M  V30 6569 H 668.704 5.25448 -0.348162 0
M  V30 6570 H 671.195 3.72248 -0.651119 0
M  V30 6571 H 671.508 7.47973 -1.9431 0
M  V30 6572 H 669.853 6.72847 -1.74075 0
M  V30 6573 H 673.044 4.59573 -0.889396 0
M  V30 6574 H 673.217 6.30912 -1.47833 0
M  V30 6575 N 666.623 0.143563 1.56945 0
M  V30 6576 C 667.586 -0.783295 2.154 0
M  V30 6577 C 668.586 -1.17763 1.09492 0
M  V30 6578 O 669.776 -1.09912 1.35148 0
M  V30 6579 C 666.908 -2.06248 2.7143 0
M  V30 6580 H 668.101 -0.274863 2.98638 0
M  V30 6581 H 665.654 -0.105859 1.55941 0
M  V30 6582 H 666.389 -2.61466 1.91849 0
M  V30 6583 H 666.174 -1.78897 3.4891 0
M  V30 6584 H 667.664 -2.72453 3.16479 0
M  V30 6585 N 668.101 -1.57061 -0.130224 0
M  V30 6586 C 669.051 -1.95941 -1.16582 0
M  V30 6587 C 670.035 -0.832858 -1.37667 0
M  V30 6588 O 671.227 -1.09647 -1.38948 0
M  V30 6589 C 668.356 -2.35777 -2.49528 0
M  V30 6590 C 667.442 -3.5504 -2.31964 0
M  V30 6591 N 667.833 -4.71071 -1.84189 0
M  V30 6592 C 666.131 -3.60453 -2.62659 0
M  V30 6593 C 666.832 -5.53128 -1.80068 0
M  V30 6594 N 665.808 -4.95303 -2.24001 0
M  V30 6595 H 669.61 -2.83117 -0.788806 0
M  V30 6596 H 667.124 -1.58842 -0.3381 0
M  V30 6597 H 669.121 -2.61843 -3.24413 0
M  V30 6598 H 667.781 -1.49961 -2.87996 0
M  V30 6599 H 668.792 -4.94504 -1.53903 0
M  V30 6600 H 665.469 -2.85217 -3.0489 0
M  V30 6601 H 666.859 -6.56182 -1.4448 0
M  V30 6602 N 669.579 0.400081 -1.52437 0
M  V30 6603 C 670.825 1.14788 -1.67187 0
M  V30 6604 C 671.158 1.89928 -0.405074 0
M  V30 6605 O 670.433 1.85118 0.596804 0
M  V30 6606 C 670.716 2.13507 -2.89977 0
M  V30 6607 C 670.569 1.42204 -4.2673 0
M  V30 6608 C 671.888 3.14069 -3.083 0
M  V30 6609 H 669.007 0.415939 -0.608411 0
M  V30 6610 H 671.649 0.432542 -1.85011 0
M  V30 6611 H 669.799 2.7451 -2.74912 0
M  V30 6612 H 671.471 0.842503 -4.53541 0
M  V30 6613 H 669.714 0.723939 -4.27717 0
M  V30 6614 H 670.385 2.14281 -5.08712 0
M  V30 6615 H 672.861 2.63148 -3.22323 0
M  V30 6616 H 671.737 3.80398 -3.95713 0
M  V30 6617 H 671.998 3.82309 -2.22018 0
M  V30 6618 N 671.057 1.43213 0.657864 0
M  V30 6619 C 672.468 1.39669 1.23893 0
M  V30 6620 C 672.819 0.0984217 1.95953 0
M  V30 6621 O 671.944 -0.8023 2.00978 0
M  V30 6622 C 672.539 2.53004 2.25332 0
M  V30 6623 C 671.098 2.5274 2.78926 0
M  V30 6624 C 670.245 2.30941 1.53497 0
M  V30 6625 H 673.196 1.52181 0.450172 0
M  V30 6626 H 673.217 2.24226 3.07413 0
M  V30 6627 H 672.729 3.4748 1.72856 0
M  V30 6628 H 670.83 1.6213 3.35477 0
M  V30 6629 H 670.943 3.50352 3.26787 0
M  V30 6630 H 669.307 1.7952 1.80678 0
M  V30 6631 H 670.09 3.27496 1.02963 0
M  V30 6632 N 672.536 -0.895792 1.29666 0
M  V30 6633 C 673.766 -1.67757 1.20586 0
M  V30 6634 C 674.174 -1.87729 -0.235432 0
M  V30 6635 O 673.517 -1.41706 -1.16898 0
M  V30 6636 C 673.579 -3.08117 1.85215 0
M  V30 6637 C 673.243 -3.1136 3.3452 0
M  V30 6638 C 674.24 -2.91217 4.30684 0
M  V30 6639 C 671.925 -3.33302 3.75786 0
M  V30 6640 C 673.919 -2.92955 5.66089 0
M  V30 6641 C 671.606 -3.3467 5.11311 0
M  V30 6642 C 672.604 -3.14519 6.06273 0
M  V30 6643 O 672.292 -3.15684 7.39323 0
M  V30 6644 H 672.024 -0.530601 0.418854 0
M  V30 6645 H 674.578 -1.12831 1.71634 0
M  V30 6646 H 672.808 -3.64661 1.28683 0
M  V30 6647 H 674.497 -3.68399 1.70403 0
M  V30 6648 H 675.263 -2.74074 4.00136 0
M  V30 6649 H 671.142 -3.48025 3.02324 0
M  V30 6650 H 674.686 -2.77145 6.40185 0
M  V30 6651 H 670.583 -3.51346 5.41504 0
M  V30 6652 H 671.351 -3.31924 7.48177 0
M  V30 6653 N 674.014 -1.12206 -1.10668 0
M  V30 6654 C 675.263 -0.870595 -1.81944 0
M  V30 6655 C 675.576 0.605447 -1.85994 0
M  V30 6656 O 676.782 0.973433 -2.53449 0
M  V30 6657 C 675.238 -1.50783 -3.26791 0
M  V30 6658 C 674.846 -3.01849 -3.31046 0
M  V30 6659 C 676.59 -1.33653 -4.02911 0
M  V30 6660 C 674.497 -3.58518 -4.70339 0
M  V30 6661 H 673.427 -0.322043 -0.681765 0
M  V30 6662 H 676.078 -1.34827 -1.24475 0
M  V30 6663 H 674.46 -0.957825 -3.84242 0
M  V30 6664 H 675.634 -3.63321 -2.83433 0
M  V30 6665 H 673.949 -3.18346 -2.68411 0
M  V30 6666 H 676.546 -1.73416 -5.05797 0
M  V30 6667 H 676.889 -0.279949 -4.15358 0
M  V30 6668 H 677.422 -1.85562 -3.51868 0
M  V30 6669 H 674.161 -4.63925 -4.63091 0
M  V30 6670 H 673.681 -3.01819 -5.18329 0
M  V30 6671 H 675.36 -3.57434 -5.39305 0
M  V30 6672 N 675.492 1.28418 -0.913599 0
M  V30 6673 C 676.422 2.29713 -0.418847 0
M  V30 6674 C 677.403 1.62165 0.513469 0
M  V30 6675 O 678.588 1.89576 0.421235 0
M  V30 6676 C 675.718 3.45612 0.342042 0
M  V30 6677 C 674.672 4.25056 -0.501123 0
M  V30 6678 C 673.998 5.3329 0.388097 0
M  V30 6679 C 675.298 4.91814 -1.75831 0
M  V30 6680 H 676.992 2.71346 -1.26538 0
M  V30 6681 H 674.538 1.30446 -0.609903 0
M  V30 6682 H 676.491 4.15562 0.699 0
M  V30 6683 H 675.215 3.02858 1.22248 0
M  V30 6684 H 673.874 3.56833 -0.840598 0
M  V30 6685 H 673.522 4.8678 1.26707 0
M  V30 6686 H 673.222 5.87347 -0.172459 0
M  V30 6687 H 674.746 6.06088 0.74094 0
M  V30 6688 H 676.16 5.54126 -1.47026 0
M  V30 6689 H 674.557 5.55866 -2.26126 0
M  V30 6690 H 675.627 4.16313 -2.4862 0
M  V30 6691 N 676.97 0.677563 1.42291 0
M  V30 6692 C 677.88 0.000962654 2.346 0
M  V30 6693 C 678.896 -0.785833 1.55244 0
M  V30 6694 O 680.072 -0.727523 1.87801 0
M  V30 6695 C 677.137 -0.936746 3.33805 0
M  V30 6696 C 676.198 -0.144173 4.29058 0
M  V30 6697 C 675.431 -1.03722 5.23524 0
M  V30 6698 O 675.654 -2.27675 5.22992 0
M  V30 6699 O 674.588 -0.496542 5.99848 0
M  V30 6700 H 678.414 0.761397 2.94001 0
M  V30 6701 H 675.999 0.43781 1.42841 0
M  V30 6702 H 677.881 -1.47497 3.94744 0
M  V30 6703 H 676.556 -1.67698 2.76874 0
M  V30 6704 H 675.463 0.438224 3.71524 0
M  V30 6705 H 676.796 0.55701 4.89038 0
M  V30 6706 N 678.448 -1.51871 0.421078 0
M  V30 6707 C 679.694 -2.02237 -0.151014 0
M  V30 6708 C 680.027 -1.30554 -1.43768 0
M  V30 6709 O 679.302 -0.41546 -1.90011 0
M  V30 6710 C 679.585 -3.5802 -0.386482 0
M  V30 6711 C 679.438 -4.40339 0.9177 0
M  V30 6712 C 680.757 -4.24444 -1.16342 0
M  V30 6713 H 677.876 -0.735062 -0.0534102 0
M  V30 6714 H 680.518 -1.81656 0.556888 0
M  V30 6715 H 678.668 -3.75688 -0.989494 0
M  V30 6716 H 680.34 -4.34357 1.55344 0
M  V30 6717 H 678.583 -4.06073 1.526 0
M  V30 6718 H 679.254 -5.47451 0.707187 0
M  V30 6719 H 681.73 -4.10948 -0.652788 0
M  V30 6720 H 680.606 -5.33358 -1.29693 0
M  V30 6721 H 680.867 -3.84204 -2.18724 0
M  V30 6722 N 679.926 -0.151884 -1.56866 0
M  V30 6723 C 680.858 0.817008 -2.14144 0
M  V30 6724 C 681.871 1.20735 -1.0921 0
M  V30 6725 O 683.06 1.15058 -1.36469 0
M  V30 6726 C 680.16 2.10844 -2.65326 0
M  V30 6727 C 679.333 1.88471 -3.94712 0
M  V30 6728 C 678.392 3.01649 -4.31155 0
M  V30 6729 O 677.418 2.73127 -4.9939 0
M  V30 6730 N 678.62 4.28947 -3.91132 0
M  V30 6731 H 681.385 0.327448 -2.97906 0
M  V30 6732 H 678.946 0.0315313 -1.61869 0
M  V30 6733 H 680.938 2.85616 -2.86715 0
M  V30 6734 H 679.508 2.51049 -1.86262 0
M  V30 6735 H 678.728 0.977088 -3.81899 0
M  V30 6736 H 680.016 1.70866 -4.79252 0
M  V30 6737 H 679.414 4.54986 -3.36161 0
M  V30 6738 H 677.971 5.00484 -4.17563 0
M  V30 6739 N 681.404 1.57128 0.121893 0
M  V30 6740 C 682.367 1.99197 1.13372 0
M  V30 6741 C 683.367 0.881728 1.3447 0
M  V30 6742 O 684.557 1.14783 1.31036 0
M  V30 6743 C 681.689 2.32963 2.4888 0
M  V30 6744 H 682.882 2.89788 0.772204 0
M  V30 6745 H 680.435 1.51952 0.366093 0
M  V30 6746 H 681.17 1.45243 2.89957 0
M  V30 6747 H 680.955 3.13934 2.34921 0
M  V30 6748 H 682.445 2.66261 3.21706 0
M  V30 6749 N 682.882 -0.391992 1.52647 0
M  V30 6750 C 684.128 -1.139 1.67793 0
M  V30 6751 C 684.461 -1.89711 0.41514 0
M  V30 6752 O 683.736 -1.85431 -0.586979 0
M  V30 6753 C 684.019 -2.11966 2.91105 0
M  V30 6754 C 683.872 -1.39939 4.27478 0
M  V30 6755 C 685.191 -3.1243 3.09961 0
M  V30 6756 H 682.31 -0.412707 0.610608 0
M  V30 6757 H 684.952 -0.422725 1.85238 0
M  V30 6758 H 683.102 -2.73048 2.76364 0
M  V30 6759 H 684.774 -0.818439 4.53982 0
M  V30 6760 H 683.017 -0.701246 4.28095 0
M  V30 6761 H 683.688 -2.1158 5.09841 0
M  V30 6762 H 686.164 -2.61435 3.23714 0
M  V30 6763 H 685.04 -3.78294 3.97725 0
M  V30 6764 H 685.301 -3.81127 2.24042 0
M  V30 6765 N 684.36 -1.4356 -0.65026 0
M  V30 6766 C 685.308 -1.49219 -1.78427 0
M  V30 6767 C 686.302 -0.365528 -1.65409 0
M  V30 6768 O 687.508 -0.539649 -1.7172 0
M  V30 6769 H 683.883 -0.467858 -0.588738 0
M  V30 6770 H 685.854 -2.44701 -1.70774 0
M  V30 6771 C 684.603 -1.43519 -3.16698 0
M  V30 6772 H 683.926 -2.2952 -3.27354 0
M  V30 6773 H 685.366 -1.5154 -3.95995 0
M  V30 6774 C 683.825 -0.153197 -3.36552 0
M  V30 6775 O 684.355 0.784317 -3.93969 0
M  V30 6776 N 682.561 -0.0624402 -2.90533 0
M  V30 6777 H 682.108 -0.826172 -2.43992 0
M  V30 6778 H 682.066 0.794616 -3.04193 0
M  V30 6779 N 685.838 0.888903 -1.30139 0
M  V30 6780 C 687.086 1.63713 -1.18501 0
M  V30 6781 C 687.407 1.9324 0.261399 0
M  V30 6782 O 686.677 1.56608 1.17689 0
M  V30 6783 H 685.257 0.606861 -0.435579 0
M  V30 6784 H 687.919 1.06525 -1.63213 0
M  V30 6785 H 687.015 2.58894 -1.743 0
M  V30 6786 N 687.317 1.12792 1.10072 0
M  V30 6787 C 688.563 0.886857 1.82381 0
M  V30 6788 C 688.896 -0.58576 1.85155 0
M  V30 6789 O 688.171 -1.43317 1.31493 0
M  V30 6790 C 688.454 1.46703 3.28862 0
M  V30 6791 C 688.307 3.00829 3.34398 0
M  V30 6792 C 689.626 1.12971 4.25353 0
M  V30 6793 H 686.745 0.32362 0.662148 0
M  V30 6794 H 689.387 1.39513 1.28982 0
M  V30 6795 H 687.537 1.03476 3.74466 0
M  V30 6796 H 689.209 3.52764 2.97247 0
M  V30 6797 H 687.452 3.36164 2.74183 0
M  V30 6798 H 688.123 3.36519 4.3756 0
M  V30 6799 H 690.599 1.50313 3.88001 0
M  V30 6800 H 689.475 1.56223 5.26199 0
M  V30 6801 H 689.736 0.0424452 4.4208 0
M  V30 6802 N 688.795 -1.27931 0.920396 0
M  V30 6803 C 690.02 -1.99343 0.572478 0
M  V30 6804 C 690.445 -1.68267 -0.840696 0
M  V30 6805 O 689.803 -0.918805 -1.56294 0
M  V30 6806 C 689.851 -3.51698 0.796284 0
M  V30 6807 O 688.955 -4.12157 -0.141602 0
M  V30 6808 H 688.296 -0.626065 0.221221 0
M  V30 6809 H 690.826 -1.62921 1.23765 0
M  V30 6810 H 690.836 -4.01793 0.708984 0
M  V30 6811 H 689.511 -3.73649 1.82644 0
M  V30 6812 H 688.088 -3.729 -0.005007 0
M  V30 6813 N 690.273 -0.685099 -1.4193 0
M  V30 6814 C 691.183 -0.013404 -2.34596 0
M  V30 6815 C 692.199 0.777589 -1.55658 0
M  V30 6816 O 693.375 0.717553 -1.88184 0
M  V30 6817 C 690.44 0.919031 -3.34297 0
M  V30 6818 C 689.501 0.121417 -4.29128 0
M  V30 6819 C 688.734 1.00944 -5.24067 0
M  V30 6820 O 688.957 2.24898 -5.24192 0
M  V30 6821 O 687.891 0.464724 -6.00103 0
M  V30 6822 H 691.717 -0.776978 -2.93593 0
M  V30 6823 H 689.302 -0.445379 -1.42607 0
M  V30 6824 H 691.184 1.45402 -3.9552 0
M  V30 6825 H 689.859 1.66228 -2.77759 0
M  V30 6826 H 688.766 -0.45792 -3.71287 0
M  V30 6827 H 690.099 -0.582937 -4.88736 0
M  V30 6828 N 691.751 1.51645 -0.429126 0
M  V30 6829 C 692.681 2.30434 0.377148 0
M  V30 6830 C 693.662 1.35493 1.02838 0
M  V30 6831 O 694.847 1.6441 1.03359 0
M  V30 6832 C 691.977 3.14038 1.48315 0
M  V30 6833 C 690.931 4.1719 0.955855 0
M  V30 6834 C 690.257 4.89263 2.15698 0
M  V30 6835 C 691.557 5.223 -0.00402136 0
M  V30 6836 H 693.251 2.98085 -0.280336 0
M  V30 6837 H 690.797 1.43354 -0.136265 0
M  V30 6838 H 692.75 3.67933 2.05435 0
M  V30 6839 H 691.474 2.44193 2.16881 0
M  V30 6840 H 690.133 3.64335 0.406929 0
M  V30 6841 H 689.781 4.15929 2.82864 0
M  V30 6842 H 689.481 5.59009 1.81059 0
M  V30 6843 H 691.005 5.45978 2.73387 0
M  V30 6844 H 692.419 5.71315 0.476607 0
M  V30 6845 H 690.816 5.99525 -0.26258 0
M  V30 6846 H 691.886 4.75638 -0.943236 0
M  V30 6847 N 693.229 0.160201 1.56784 0
M  V30 6848 C 694.454 -0.497373 2.01348 0
M  V30 6849 C 694.879 -1.56757 1.03966 0
M  V30 6850 O 694.237 -1.81292 0.0174455 0
M  V30 6851 C 694.285 -1.0628 3.44582 0
M  V30 6852 O 693.389 -2.17723 3.50244 0
M  V30 6853 H 692.73 -0.120295 0.653012 0
M  V30 6854 H 695.26 0.260821 2.02931 0
M  V30 6855 H 695.27 -1.38819 3.83658 0
M  V30 6856 H 693.945 -0.279166 4.14962 0
M  V30 6857 H 692.522 -1.86313 3.2302 0
M  V30 6858 N 694.707 -1.5719 -0.113559 0
M  V30 6859 C 696.118 -1.74259 -0.670116 0
M  V30 6860 C 696.469 -0.779694 -1.80042 0
M  V30 6861 O 695.594 0.0461353 -2.16351 0
M  V30 6862 C 696.189 -3.15981 -1.22236 0
M  V30 6863 C 694.748 -3.34537 -1.72516 0
M  V30 6864 C 693.895 -2.70116 -0.627098 0
M  V30 6865 H 696.846 -1.58301 0.112396 0
M  V30 6866 H 696.867 -3.17832 -2.09197 0
M  V30 6867 H 696.379 -3.86038 -0.39949 0
M  V30 6868 H 694.48 -2.6953 -2.57263 0
M  V30 6869 H 694.593 -4.42737 -1.83086 0
M  V30 6870 H 692.957 -2.31501 -1.06204 0
M  V30 6871 H 693.74 -3.42802 0.184889 0
M  V30 6872 N 696.185 0.383891 -1.52853 0
M  V30 6873 C 697.462 1.14296 -1.58732 0
M  V30 6874 C 697.842 2.07585 -0.383611 0
M  V30 6875 O 697.19 2.1971 0.627661 0
M  V30 6876 C 697.4 1.89816 -2.92867 0
M  V30 6877 C 698.748 2.44998 -3.46787 0
M  V30 6878 O 699.772 1.99966 -2.94774 0
M  V30 6879 O 698.631 3.2727 -4.37672 0
M  V30 6880 H 695.725 0.52326 -0.640413 0
M  V30 6881 H 698.271 0.388631 -1.6519 0
M  V30 6882 H 697.043 1.21626 -3.71918 0
M  V30 6883 H 696.666 2.72199 -2.89816 0
M  V30 6884 N 697.663 1.43903 0.642637 0
M  V30 6885 C 699.074 1.40975 1.22404 0
M  V30 6886 C 699.425 0.1192 1.95838 0
M  V30 6887 O 698.55 -0.780939 2.01818 0
M  V30 6888 C 699.145 2.5538 2.22636 0
M  V30 6889 C 697.704 2.55684 2.76229 0
M  V30 6890 C 696.851 2.32556 1.51039 0
M  V30 6891 H 699.802 1.5265 0.434006 0
M  V30 6892 H 699.823 2.27474 3.05017 0
M  V30 6893 H 699.335 3.49294 1.69161 0
M  V30 6894 H 697.436 1.65679 3.33738 0
M  V30 6895 H 697.549 3.53799 3.23053 0
M  V30 6896 H 695.913 1.81427 1.78764 0
M  V30 6897 H 696.696 3.28569 0.99484 0
M  V30 6898 N 699.141 -0.881989 1.30609 0
M  V30 6899 C 700.552 -1.44956 1.17664 0
M  V30 6900 C 700.903 -1.94945 -0.221531 0
M  V30 6901 O 700.028 -1.85257 -1.11844 0
M  V30 6902 C 700.623 -2.63474 2.12995 0
M  V30 6903 C 699.182 -3.16312 2.04019 0
M  V30 6904 C 698.329 -1.89008 2.02907 0
M  V30 6905 H 701.28 -0.691645 1.42835 0
M  V30 6906 H 701.301 -3.39783 1.71253 0
M  V30 6907 H 700.813 -2.2706 3.14746 0
M  V30 6908 H 698.914 -3.57376 1.0542 0
M  V30 6909 H 699.027 -3.79409 2.9255 0
M  V30 6910 H 697.391 -2.07465 1.47751 0
M  V30 6911 H 698.174 -1.54848 3.06394 0
M  V30 6912 N 700.619 -1.13374 -1.09472 0
M  V30 6913 C 701.551 -0.768466 -2.15933 0
M  V30 6914 C 702.564 0.209585 -1.61445 0
M  V30 6915 O 703.753 -0.010539 -1.78497 0
M  V30 6916 C 700.853 -0.118266 -3.38694 0
M  V30 6917 C 700.026 -1.12829 -4.22597 0
M  V30 6918 C 699.085 -0.503875 -5.23782 0
M  V30 6919 O 698.111 -1.16374 -5.57177 0
M  V30 6920 N 699.313 0.724288 -5.75964 0
M  V30 6921 H 702.078 -1.68457 -2.47876 0
M  V30 6922 H 699.639 -1.02668 -1.25183 0
M  V30 6923 H 701.631 0.311698 -4.03498 0
M  V30 6924 H 700.201 0.700769 -3.04644 0
M  V30 6925 H 699.421 -1.73556 -3.53938 0
M  V30 6926 H 700.709 -1.81095 -4.75481 0
M  V30 6927 H 700.107 1.27918 -5.51048 0
M  V30 6928 H 698.664 1.09692 -6.42504 0
M  V30 6929 N 702.098 1.27442 -0.927168 0
M  V30 6930 C 703.061 2.2512 -0.430525 0
M  V30 6931 C 704.061 1.54357 0.450619 0
M  V30 6932 O 705.251 1.72371 0.251774 0
M  V30 6933 C 702.383 3.38763 0.381144 0
M  V30 6934 H 703.576 2.70569 -1.29354 0
M  V30 6935 H 701.129 1.39355 -0.707806 0
M  V30 6936 H 701.864 2.98695 1.263 0
M  V30 6937 H 701.649 3.91298 -0.250618 0
M  V30 6938 H 703.139 4.11364 0.719012 0
M  V30 6939 N 703.576 0.692616 1.41565 0
M  V30 6940 C 704.539 0.0344174 2.29174 0
M  V30 6941 C 705.539 -0.710961 1.44229 0
M  V30 6942 O 706.729 -0.546293 1.65412 0
M  V30 6943 C 703.861 -0.961682 3.27054 0
M  V30 6944 H 705.054 0.805755 2.88873 0
M  V30 6945 H 702.607 0.455947 1.49502 0
M  V30 6946 H 703.342 -1.76089 2.72329 0
M  V30 6947 H 703.127 -0.430375 3.89731 0
M  V30 6948 H 704.617 -1.4201 3.92712 0
M  V30 6949 N 705.054 -1.51416 0.437162 0
M  V30 6950 C 706.017 -2.26312 -0.362729 0
M  V30 6951 C 707.017 -1.29748 -0.949847 0
M  V30 6952 O 708.207 -1.53462 -0.824325 0
M  V30 6953 C 705.339 -3.05475 -1.5132 0
M  V30 6954 H 706.532 -2.98459 0.29365 0
M  V30 6955 H 704.085 -1.55137 0.190327 0
M  V30 6956 H 704.82 -2.37744 -2.20563 0
M  V30 6957 H 704.605 -3.76401 -1.09838 0
M  V30 6958 H 706.095 -3.62209 -2.07833 0
M  V30 6959 N 706.532 -0.168513 -1.56696 0
M  V30 6960 C 707.781 0.477233 -1.95973 0
M  V30 6961 C 708.094 1.64578 -1.05704 0
M  V30 6962 O 709.3 2.35758 -1.3465 0
M  V30 6963 C 707.756 0.900413 -3.48455 0
M  V30 6964 C 707.364 -0.242382 -4.47344 0
M  V30 6965 C 709.108 1.51474 -3.96555 0
M  V30 6966 C 707.015 0.200272 -5.91061 0
M  V30 6967 H 705.945 0.182061 -0.73169 0
M  V30 6968 H 708.596 -0.256297 -1.81701 0
M  V30 6969 H 706.978 1.68984 -3.58135 0
M  V30 6970 H 708.152 -1.01967 -4.49377 0
M  V30 6971 H 706.467 -0.766484 -4.09285 0
M  V30 6972 H 709.064 1.85792 -5.01384 0
M  V30 6973 H 709.407 2.41163 -3.39332 0
M  V30 6974 H 709.94 0.789802 -3.89881 0
M  V30 6975 H 706.679 -0.661775 -6.52151 0
M  V30 6976 H 706.199 0.942979 -5.92341 0
M  V30 6977 H 707.878 0.645088 -6.43776 0
M  V30 6978 N 708.01 1.57248 0.105221 0
M  V30 6979 C 708.958 2.02337 1.14728 0
M  V30 6980 C 709.952 0.922652 1.42069 0
M  V30 6981 O 711.158 1.10785 1.41869 0
M  V30 6982 H 707.533 0.644682 0.387155 0
M  V30 6983 H 709.504 2.89063 0.740607 0
M  V30 6984 C 708.253 2.45513 2.46209 0
M  V30 6985 H 707.576 3.29785 2.26013 0
M  V30 6986 H 709.016 2.80846 3.1765 0
M  V30 6987 C 707.475 1.3243 3.09781 0
M  V30 6988 O 708.005 0.647841 3.96442 0
M  V30 6989 N 706.211 1.07785 2.69872 0
M  V30 6990 H 705.758 1.62973 1.99493 0
M  V30 6991 H 705.716 0.323204 3.12734 0
M  V30 6992 N 709.488 -0.375779 1.53054 0
M  V30 6993 C 710.734 -1.12114 1.68992 0
M  V30 6994 C 711.067 -1.8926 0.435238 0
M  V30 6995 O 710.342 -1.86044 -0.567278 0
M  V30 6996 C 710.625 -2.08867 2.93337 0
M  V30 6997 C 710.478 -1.35397 4.28938 0
M  V30 6998 C 711.797 -3.09124 3.13257 0
M  V30 6999 H 708.916 -0.406207 0.614951 0
M  V30 7000 H 711.558 -0.403054 1.85676 0
M  V30 7001 H 709.708 -2.70102 2.79244 0
M  V30 7002 H 711.38 -0.770242 4.54824 0
M  V30 7003 H 709.623 -0.655801 4.28814 0
M  V30 7004 H 710.294 -2.06161 5.12056 0
M  V30 7005 H 712.77 -2.57987 3.26469 0
M  V30 7006 H 711.646 -3.74054 4.01715 0
M  V30 7007 H 711.907 -3.78729 2.28072 0
M  V30 7008 N 710.966 -1.44241 -0.634997 0
M  V30 7009 C 712.191 -1.50516 -1.42687 0
M  V30 7010 C 712.616 -0.129864 -1.87651 0
M  V30 7011 O 711.974 0.880164 -1.58502 0
M  V30 7012 C 712.022 -2.4714 -2.62591 0
M  V30 7013 O 711.126 -1.97025 -3.62291 0
M  V30 7014 H 710.467 -0.50841 -0.427101 0
M  V30 7015 H 712.997 -1.89337 -0.775408 0
M  V30 7016 H 713.007 -2.65048 -3.10183 0
M  V30 7017 H 711.682 -3.47039 -2.29209 0
M  V30 7018 H 710.259 -1.88866 -3.21534 0
M  V30 7019 N 712.444 0.87505 -1.31075 0
M  V30 7020 C 713.672 1.66058 -1.23419 0
M  V30 7021 C 714.087 1.87723 0.201347 0
M  V30 7022 O 713.444 1.43178 1.13165 0
M  V30 7023 C 713.495 3.03142 -1.96945 0
M  V30 7024 O 713.216 2.82448 -3.34895 0
M  V30 7025 C 714.717 3.97583 -1.96067 0
M  V30 7026 H 711.937 0.517868 -0.426677 0
M  V30 7027 H 714.481 1.09258 -1.72867 0
M  V30 7028 H 712.636 3.56645 -1.51271 0
M  V30 7029 H 713.05 3.69483 -3.72267 0
M  V30 7030 H 714.524 4.91104 -2.52034 0
M  V30 7031 H 715.001 4.2898 -0.941961 0
M  V30 7032 H 715.607 3.50015 -2.41597 0
M  V30 7033 N 713.922 1.13953 1.08869 0
M  V30 7034 C 715.147 0.928559 1.85452 0
M  V30 7035 C 715.572 -0.517642 1.80837 0
M  V30 7036 O 714.93 -1.36779 1.19001 0
M  V30 7037 C 714.978 1.42814 3.31114 0
M  V30 7038 O 714.082 0.617129 4.07756 0
M  V30 7039 H 713.423 0.33235 0.574839 0
M  V30 7040 H 715.953 1.5156 1.37443 0
M  V30 7041 H 715.963 1.43425 3.8196 0
M  V30 7042 H 714.638 2.48109 3.33788 0
M  V30 7043 H 713.215 0.679365 3.66659 0
M  V30 7044 N 715.4 -1.26948 0.933913 0
M  V30 7045 C 716.35 -2.24306 0.408779 0
M  V30 7046 C 717.334 -1.53243 -0.490435 0
M  V30 7047 O 718.526 -1.73956 -0.326866 0
M  V30 7048 C 715.655 -3.41695 -0.331578 0
M  V30 7049 C 714.741 -4.20053 0.58451 0
M  V30 7050 N 715.132 -4.76122 1.70709 0
M  V30 7051 C 713.43 -4.44303 0.388703 0
M  V30 7052 C 714.131 -5.35267 2.27737 0
M  V30 7053 N 713.107 -5.20548 1.56622 0
M  V30 7054 H 716.909 -2.65244 1.26582 0
M  V30 7055 H 714.423 -1.4195 0.788919 0
M  V30 7056 H 716.42 -4.10552 -0.724774 0
M  V30 7057 H 715.08 -3.02286 -1.18547 0
M  V30 7058 H 716.091 -4.73884 2.08937 0
M  V30 7059 H 712.768 -4.15341 -0.424016 0
M  V30 7060 H 714.158 -5.89563 3.22282 0
M  V30 7061 N 716.879 -0.700114 -1.41195 0
M  V30 7062 C 717.789 -0.0382854 -2.34569 0
M  V30 7063 C 718.805 0.761036 -1.56474 0
M  V30 7064 O 719.981 0.697553 -1.88934 0
M  V30 7065 C 717.046 0.883522 -3.35253 0
M  V30 7066 C 716.107 0.0758957 -4.29233 0
M  V30 7067 C 715.34 0.9538 -5.25108 0
M  V30 7068 O 715.563 2.19326 -5.26547 0
M  V30 7069 O 714.497 0.401049 -6.00562 0
M  V30 7070 H 718.323 -0.808073 -2.92752 0
M  V30 7071 H 715.908 -0.460479 -1.42127 0
M  V30 7072 H 717.79 1.41199 -3.9704 0
M  V30 7073 H 716.465 1.63272 -2.79506 0
M  V30 7074 H 715.372 -0.497274 -3.7078 0
M  V30 7075 H 716.705 -0.634741 -4.8809 0
M  V30 7076 N 718.357 1.51182 -0.445186 0
M  V30 7077 C 719.603 2.02452 0.11882 0
M  V30 7078 C 719.936 1.32824 1.41673 0
M  V30 7079 O 719.211 0.445637 1.89326 0
M  V30 7080 C 719.494 3.5859 0.329475 0
M  V30 7081 C 719.347 4.38823 -0.987638 0
M  V30 7082 C 720.666 4.26241 1.09575 0
M  V30 7083 H 717.785 0.735819 0.0417092 0
M  V30 7084 H 720.427 1.80747 -0.585718 0
M  V30 7085 H 718.577 3.77214 0.9296 0
M  V30 7086 H 720.249 4.3183 -1.62235 0
M  V30 7087 H 718.492 4.03594 -1.59041 0
M  V30 7088 H 719.163 5.46257 -0.794192 0
M  V30 7089 H 721.639 4.11934 0.587328 0
M  V30 7090 H 720.515 5.35354 1.21191 0
M  V30 7091 H 720.776 3.87635 2.12584 0
M  V30 7092 N 719.835 0.176821 1.56605 0
M  V30 7093 C 721.246 -0.338963 1.83597 0
M  V30 7094 C 721.597 -1.62677 1.09684 0
M  V30 7095 O 720.722 -2.13524 0.351661 0
M  V30 7096 C 721.317 -0.62177 3.33046 0
M  V30 7097 C 719.876 -1.08198 3.60514 0
M  V30 7098 C 719.023 -0.120774 2.77037 0
M  V30 7099 H 721.974 0.400978 1.53551 0
M  V30 7100 H 721.995 -1.47321 3.50823 0
M  V30 7101 H 721.507 0.315692 3.86814 0
M  V30 7102 H 719.608 -2.03435 3.12162 0
M  V30 7103 H 719.721 -0.987329 4.68816 0
M  V30 7104 H 718.085 -0.619192 2.47059 0
M  V30 7105 H 718.868 0.810806 3.33588 0
M  V30 7106 N 721.313 -1.57302 -0.09688 0
M  V30 7107 C 722.538 -1.9058 -0.818169 0
M  V30 7108 C 722.963 -0.770921 -1.71576 0
M  V30 7109 O 722.321 0.277588 -1.79162 0
M  V30 7110 C 722.369 -3.22714 -1.60898 0
M  V30 7111 O 721.473 -3.10178 -2.71779 0
M  V30 7112 H 720.814 -0.624759 -0.224882 0
M  V30 7113 H 723.344 -2.04471 -0.07264 0
M  V30 7114 H 723.354 -3.55978 -1.99358 0
M  V30 7115 H 722.029 -4.04899 -0.950227 0
M  V30 7116 H 720.606 -2.88424 -2.3636 0
M  V30 7117 N 722.791 0.367657 -1.53252 0
M  V30 7118 C 723.754 1.43308 -1.78873 0
M  V30 7119 C 724.754 1.46671 -0.659115 0
M  V30 7120 O 725.944 1.47468 -0.927306 0
M  V30 7121 C 723.076 2.82442 -1.90892 0
M  V30 7122 H 724.269 1.21864 -2.74024 0
M  V30 7123 H 721.822 0.600668 -1.44297 0
M  V30 7124 H 722.557 3.09202 -0.978 0
M  V30 7125 H 722.342 2.81399 -2.73051 0
M  V30 7126 H 723.832 3.59601 -2.12314 0
M  V30 7127 N 724.269 1.44576 0.627338 0
M  V30 7128 C 725.515 1.47777 1.38888 0
M  V30 7129 C 725.848 0.111406 1.9388 0
M  V30 7130 O 725.123 -0.87149 1.73883 0
M  V30 7131 C 725.406 2.54119 2.55138 0
M  V30 7132 C 725.259 4.00128 2.0547 0
M  V30 7133 C 726.578 2.56929 3.57317 0
M  V30 7134 H 723.697 0.538048 0.50366 0
M  V30 7135 H 726.339 1.76277 0.708978 0
M  V30 7136 H 724.489 2.29948 3.13139 0
M  V30 7137 H 726.161 4.35444 1.5227 0
M  V30 7138 H 724.404 4.11724 1.36623 0
M  V30 7139 H 725.075 4.7019 2.89181 0
M  V30 7140 H 727.551 2.78536 3.09122 0
M  V30 7141 H 726.427 3.33234 4.36173 0
M  V30 7142 H 726.688 1.6127 4.11636 0
M  V30 7143 N 725.747 -0.868086 1.31537 0
M  V30 7144 C 727.158 -1.437 1.19195 0
M  V30 7145 C 727.509 -1.95169 -0.200842 0
M  V30 7146 O 726.634 -1.86432 -1.09872 0
M  V30 7147 C 727.229 -2.612 2.15778 0
M  V30 7148 C 725.788 -3.1413 2.07363 0
M  V30 7149 C 724.935 -1.86845 2.049 0
M  V30 7150 H 727.886 -0.676457 1.43561 0
M  V30 7151 H 727.907 -3.37948 1.74847 0
M  V30 7152 H 727.419 -2.23709 3.17137 0
M  V30 7153 H 725.52 -3.56238 1.09204 0
M  V30 7154 H 725.633 -3.76285 2.96557 0
M  V30 7155 H 723.997 -2.05886 1.49943 0
M  V30 7156 H 724.78 -1.51589 3.08019 0
M  V30 7157 N 727.225 -1.14528 -1.08264 0
M  V30 7158 C 728.471 -0.91576 -1.80947 0
M  V30 7159 C 728.804 0.55623 -1.86064 0
M  V30 7160 O 728.079 1.41207 -1.33756 0
M  V30 7161 C 728.362 -1.51917 -3.26486 0
M  V30 7162 C 728.215 -3.06111 -3.2957 0
M  V30 7163 C 729.534 -1.19724 -4.23502 0
M  V30 7164 H 726.653 -0.334113 -0.656915 0
M  V30 7165 H 729.295 -1.41547 -1.26746 0
M  V30 7166 H 727.445 -1.0942 -3.72773 0
M  V30 7167 H 729.117 -3.57448 -2.91597 0
M  V30 7168 H 727.36 -3.40483 -2.688 0
M  V30 7169 H 728.031 -3.43438 -4.32151 0
M  V30 7170 H 730.507 -1.56467 -3.85561 0
M  V30 7171 H 729.383 -1.64575 -5.23647 0
M  V30 7172 H 729.644 -0.112771 -4.41956 0
M  V30 7173 N 728.703 1.26451 -0.940633 0
M  V30 7174 C 729.949 1.94065 -0.58878 0
M  V30 7175 C 730.282 1.7363 0.869853 0
M  V30 7176 O 729.557 1.073 1.62225 0
M  V30 7177 C 729.84 3.47852 -0.931199 0
M  V30 7178 C 729.693 3.77575 -2.44453 0
M  V30 7179 C 731.012 4.37832 -0.446229 0
M  V30 7180 H 728.131 0.704827 -0.21538 0
M  V30 7181 H 730.773 1.4933 -1.17475 0
M  V30 7182 H 728.923 3.86085 -0.432539 0
M  V30 7183 H 730.595 3.49059 -3.01588 0
M  V30 7184 H 728.838 3.23671 -2.88825 0
M  V30 7185 H 729.509 4.85068 -2.63464 0
M  V30 7186 H 731.985 4.06822 -0.873778 0
M  V30 7187 H 730.861 5.44228 -0.714648 0
M  V30 7188 H 731.122 4.37239 0.653815 0
M  V30 7189 N 730.181 0.707592 1.40822 0
M  V30 7190 C 731.131 0.0265008 2.27985 0
M  V30 7191 C 732.115 -0.740685 1.42838 0
M  V30 7192 O 733.307 -0.6142 1.66002 0
M  V30 7193 C 730.436 -0.900382 3.31282 0
M  V30 7194 C 729.522 -0.128807 4.23904 0
M  V30 7195 N 729.913 0.883744 4.9802 0
M  V30 7196 C 728.211 -0.362539 4.44524 0
M  V30 7197 C 728.912 1.34666 5.65898 0
M  V30 7198 N 727.888 0.670306 5.39451 0
M  V30 7199 H 731.69 0.802667 2.82727 0
M  V30 7200 H 729.204 0.539475 1.53178 0
M  V30 7201 H 731.201 -1.40357 3.92563 0
M  V30 7202 H 729.861 -1.67601 2.781 0
M  V30 7203 H 730.872 1.26435 5.0223 0
M  V30 7204 H 727.549 -1.11512 4.02332 0
M  V30 7205 H 728.939 2.18756 6.35292 0
M  V30 7206 N 731.66 -1.50943 0.453197 0
M  V30 7207 C 732.592 -2.25922 -0.38623 0
M  V30 7208 C 733.605 -1.3055 -0.972652 0
M  V30 7209 O 734.794 -1.56191 -0.864097 0
M  V30 7210 C 731.894 -3.01176 -1.5539 0
M  V30 7211 C 731.067 -4.23768 -1.0835 0
M  V30 7212 C 730.126 -4.81466 -2.12313 0
M  V30 7213 O 729.152 -5.42875 -1.71101 0
M  V30 7214 N 730.354 -4.66889 -3.44956 0
M  V30 7215 H 733.119 -2.98601 0.256468 0
M  V30 7216 H 730.68 -1.59408 0.282965 0
M  V30 7217 H 732.672 -3.36659 -2.24594 0
M  V30 7218 H 731.242 -2.31409 -2.10163 0
M  V30 7219 H 730.462 -3.93597 -0.217961 0
M  V30 7220 H 731.75 -5.03289 -0.746857 0
M  V30 7221 H 731.148 -4.18011 -3.81161 0
M  V30 7222 H 729.705 -5.06691 -4.1001 0
M  V30 7223 N 733.138 -0.185124 -1.56509 0
M  V30 7224 C 734.384 0.456934 -1.97585 0
M  V30 7225 C 734.717 1.61957 -1.07161 0
M  V30 7226 O 733.992 1.9412 -0.121546 0
M  V30 7227 C 734.275 0.926666 -3.47973 0
M  V30 7228 C 734.128 -0.237097 -4.49175 0
M  V30 7229 C 735.447 1.79561 -4.01803 0
M  V30 7230 H 732.566 0.164619 -0.71838 0
M  V30 7231 H 735.208 -0.274039 -1.88013 0
M  V30 7232 H 733.358 1.54954 -3.56261 0
M  V30 7233 H 735.03 -0.87454 -4.52934 0
M  V30 7234 H 733.273 -0.890446 -4.24563 0
M  V30 7235 H 733.944 0.133924 -5.51838 0
M  V30 7236 H 736.42 1.27039 -3.96232 0
M  V30 7237 H 735.296 2.09327 -5.07418 0
M  V30 7238 H 735.557 2.74629 -3.46455 0
M  V30 7239 N 734.616 1.57351 0.0885366 0
M  V30 7240 C 735.841 1.91011 0.80805 0
M  V30 7241 C 736.266 0.780009 1.71165 0
M  V30 7242 O 735.624 -0.268083 1.79307 0
M  V30 7243 C 735.672 3.23562 1.59185 0
M  V30 7244 O 734.776 3.11615 2.7013 0
M  V30 7245 H 734.117 0.625943 0.221565 0
M  V30 7246 H 736.647 2.04507 0.0617954 0
M  V30 7247 H 736.657 3.5703 1.97468 0
M  V30 7248 H 735.332 4.05398 0.928741 0
M  V30 7249 H 733.909 2.89673 2.34827 0
M  V30 7250 N 736.094 -0.359525 1.53444 0
M  V30 7251 C 737.51 -0.701599 1.43352 0
M  V30 7252 C 737.71 -1.93049 0.577439 0
M  V30 7253 O 736.766 -2.52423 0.0622224 0
M  V30 7254 C 738.079 -0.90915 2.86627 0
M  V30 7255 C 739.627 -1.00878 2.96298 0
M  V30 7256 C 740.102 -1.24876 4.40647 0
M  V30 7257 N 741.593 -1.31632 4.44103 0
M  V30 7258 C 742.328 -1.51922 5.52908 0
M  V30 7259 N 741.824 -1.69489 6.71748 0
M  V30 7260 N 743.617 -1.54341 5.40496 0
M  V30 7261 H 735.768 0.448685 2.07607 0
M  V30 7262 H 738.031 0.138713 0.937797 0
M  V30 7263 H 737.737 -0.0778997 3.51614 0
M  V30 7264 H 737.611 -1.81551 3.30634 0
M  V30 7265 H 739.998 -1.83057 2.31461 0
M  V30 7266 H 740.079 -0.0796721 2.55676 0
M  V30 7267 H 739.723 -0.431961 5.0606 0
M  V30 7268 H 739.653 -2.19118 4.78848 0
M  V30 7269 H 742.144 -1.19646 3.5846 0
M  V30 7270 H 742.457 -1.84561 7.50438 0
M  V30 7271 H 740.802 -1.66655 6.74723 0
M  V30 7272 H 743.993 -1.40188 4.46615 0
M  V30 7273 H 744.166 -1.69812 6.25354 0
M  V30 7274 N 737.572 -1.44907 -0.619662 0
M  V30 7275 C 738.535 -1.52282 -1.71297 0
M  V30 7276 C 739.535 -0.40359 -1.55653 0
M  V30 7277 O 740.725 -0.666638 -1.6094 0
M  V30 7278 C 737.857 -1.40778 -3.10474 0
M  V30 7279 H 739.05 -2.49683 -1.66128 0
M  V30 7280 H 736.603 -1.32168 -0.834339 0
M  V30 7281 H 737.338 -0.445156 -3.2123 0
M  V30 7282 H 737.123 -2.21947 -3.23237 0
M  V30 7283 H 738.613 -1.48946 -3.90135 0
M  V30 7284 N 739.05 0.861098 -1.31996 0
M  V30 7285 C 740.275 1.65264 -1.2531 0
M  V30 7286 C 740.7 1.87265 0.177007 0
M  V30 7287 O 740.058 1.4208 1.12619 0
M  V30 7288 C 740.106 2.99284 -2.0115 0
M  V30 7289 O 739.21 3.89508 -1.3549 0
M  V30 7290 H 738.551 0.50409 -0.432192 0
M  V30 7291 H 741.081 1.07297 -1.74208 0
M  V30 7292 H 741.091 3.49154 -2.11081 0
M  V30 7293 H 739.766 2.82591 -3.05148 0
M  V30 7294 H 738.343 3.47966 -1.34066 0
M  V30 7295 N 740.528 1.15101 1.07655 0
M  V30 7296 C 741.476 0.840714 2.16875 0
M  V30 7297 C 742.47 -0.184594 1.68391 0
M  V30 7298 O 743.676 -0.0399315 1.79956 0
M  V30 7299 H 740.051 0.254192 0.707736 0
M  V30 7300 H 742.022 1.76959 2.40266 0
M  V30 7301 C 740.771 0.343018 3.46004 0
M  V30 7302 H 740.094 1.12335 3.83694 0
M  V30 7303 H 741.534 0.16453 4.23681 0
M  V30 7304 C 739.993 -0.934881 3.23669 0
M  V30 7305 O 740.523 -2.00706 3.47965 0
M  V30 7306 N 738.729 -0.873167 2.77172 0
M  V30 7307 H 738.276 -0.000479072 2.576 0
M  V30 7308 H 738.234 -1.72873 2.62607 0
M  V30 7309 N 742.006 -1.2595 0.947325 0
M  V30 7310 C 743.231 -1.98083 0.614633 0
M  V30 7311 C 743.656 -1.70013 -0.804815 0
M  V30 7312 O 743.014 -0.95175 -1.54309 0
M  V30 7313 C 743.062 -3.4993 0.870706 0
M  V30 7314 O 742.166 -4.12364 -0.0541451 0
M  V30 7315 H 741.507 -0.621232 0.234451 0
M  V30 7316 H 744.037 -1.60259 1.27193 0
M  V30 7317 H 744.047 -4.00198 0.794051 0
M  V30 7318 H 742.722 -3.69691 1.90529 0
M  V30 7319 H 741.299 -3.72826 0.0740917 0
M  V30 7320 N 743.484 -0.715051 -1.40445 0
M  V30 7321 C 744.733 -0.251322 -2.00128 0
M  V30 7322 C 745.046 1.16194 -1.57347 0
M  V30 7323 O 746.252 1.72416 -2.09726 0
M  V30 7324 C 744.708 -0.398407 -3.57688 0
M  V30 7325 C 744.316 -1.81828 -4.09442 0
M  V30 7326 C 746.06 0.00455625 -4.245 0
M  V30 7327 C 743.967 -1.91598 -5.59503 0
M  V30 7328 H 742.897 -0.0902081 -0.748584 0
M  V30 7329 H 745.548 -0.886062 -1.6069 0
M  V30 7330 H 743.93 0.304908 -3.94824 0
M  V30 7331 H 745.104 -2.55193 -3.83684 0
M  V30 7332 H 743.419 -2.17266 -3.55225 0
M  V30 7333 H 746.016 -0.0477303 -5.34679 0
M  V30 7334 H 746.359 1.04636 -4.02935 0
M  V30 7335 H 746.892 -0.649184 -3.92467 0
M  V30 7336 H 743.631 -2.93898 -5.85922 0
M  V30 7337 H 743.151 -1.22644 -5.87127 0
M  V30 7338 H 744.83 -1.68785 -6.24596 0
M  V30 7339 N 744.962 1.50701 -0.461195 0
M  V30 7340 C 746.19 2.06681 0.0951756 0
M  V30 7341 C 746.605 1.32615 1.34382 0
M  V30 7342 O 745.962 0.392531 1.78229 0
M  V30 7343 C 746.013 3.59354 0.393316 0
M  V30 7344 O 745.734 4.30626 -0.805797 0
M  V30 7345 C 747.235 4.31926 0.997744 0
M  V30 7346 H 744.455 0.670995 -0.00267259 0
M  V30 7347 H 746.999 1.93991 -0.647137 0
M  V30 7348 H 745.154 3.7188 1.08555 0
M  V30 7349 H 745.568 5.21667 -0.544409 0
M  V30 7350 H 747.042 5.39756 1.15619 0
M  V30 7351 H 747.519 3.91772 1.98523 0
M  V30 7352 H 748.125 4.23905 0.344188 0
M  V30 7353 N 746.441 0.193421 1.56409 0
M  V30 7354 C 747.687 -0.446449 1.97825 0
M  V30 7355 C 748.02 -1.61386 1.08019 0
M  V30 7356 O 747.295 -1.94053 0.131839 0
M  V30 7357 C 747.578 -0.908199 3.48459 0
M  V30 7358 C 747.431 0.260914 4.49043 0
M  V30 7359 C 748.75 -1.77428 4.0275 0
M  V30 7360 H 745.869 -0.160807 0.719243 0
M  V30 7361 H 748.511 0.284006 1.87865 0
M  V30 7362 H 746.661 -1.53062 3.57077 0
M  V30 7363 H 748.333 0.898548 4.52464 0
M  V30 7364 H 746.576 0.912949 4.24085 0
M  V30 7365 H 747.247 -0.104657 5.51901 0
M  V30 7366 H 749.723 -1.24936 3.96901 0
M  V30 7367 H 748.599 -2.06633 5.08521 0
M  V30 7368 H 748.86 -2.72788 3.47907 0
M  V30 7369 N 747.919 -1.57396 -0.0801906 0
M  V30 7370 C 749.144 -1.91437 -0.797909 0
M  V30 7371 C 749.569 -0.789075 -1.70749 0
M  V30 7372 O 748.927 0.25857 -1.79447 0
M  V30 7373 C 748.975 -3.24402 -1.57467 0
M  V30 7374 O 748.079 -3.13043 -2.68473 0
M  V30 7375 H 747.42 -0.627109 -0.218243 0
M  V30 7376 H 749.95 -2.04537 -0.050949 0
M  V30 7377 H 749.96 -3.58072 -1.95571 0
M  V30 7378 H 748.635 -4.05884 -0.907229 0
M  V30 7379 H 747.212 -2.90915 -2.33287 0
M  V30 7380 N 749.397 0.351382 -1.53633 0
M  V30 7381 C 750.643 1.09049 -1.71697 0
M  V30 7382 C 750.998 1.86563 -0.470314 0
M  V30 7383 O 750.291 1.83922 0.536954 0
M  V30 7384 C 750.485 2.06744 -2.91533 0
M  V30 7385 C 750.314 1.38832 -4.27733 0
M  V30 7386 C 749.084 1.13646 -4.92354 0
M  V30 7387 C 751.282 0.818602 -5.07743 0
M  V30 7388 N 749.264 0.422324 -6.12446 0
M  V30 7389 C 750.635 0.234602 -6.19556 0
M  V30 7390 C 752.69 0.718679 -4.92686 0
M  V30 7391 C 751.393 -0.439592 -7.17955 0
M  V30 7392 C 753.419 0.0582402 -5.91371 0
M  V30 7393 C 752.781 -0.514823 -7.02516 0
M  V30 7394 H 748.88 0.383697 -0.681396 0
M  V30 7395 H 751.464 0.375063 -1.91053 0
M  V30 7396 H 749.635 2.75586 -2.73691 0
M  V30 7397 H 751.367 2.73436 -2.98353 0
M  V30 7398 H 748.122 1.4215 -4.51764 0
M  V30 7399 H 748.546 0.0802092 -6.76952 0
M  V30 7400 H 753.188 1.14748 -4.06931 0
M  V30 7401 H 750.906 -0.880307 -8.03291 0
M  V30 7402 H 754.492 -0.0183382 -5.81797 0
M  V30 7403 H 753.372 -1.01777 -7.77567 0
M  V30 7404 N 750.875 1.45233 0.611969 0
M  V30 7405 C 752.286 1.4354 1.19387 0
M  V30 7406 C 752.637 0.160713 1.95541 0
M  V30 7407 O 751.762 -0.737954 2.03429 0
M  V30 7408 C 752.357 2.60045 2.17169 0
M  V30 7409 C 750.916 2.61486 2.70744 0
M  V30 7410 C 750.063 2.35708 1.46072 0
M  V30 7411 H 753.014 1.53536 0.401529 0
M  V30 7412 H 753.035 2.33893 3.00124 0
M  V30 7413 H 752.547 3.52803 1.61714 0
M  V30 7414 H 750.648 1.72721 3.30149 0
M  V30 7415 H 750.761 3.60572 3.15476 0
M  V30 7416 H 749.125 1.85178 1.74875 0
M  V30 7417 H 749.908 3.30606 0.924922 0
M  V30 7418 N 752.353 -0.854086 1.3245 0
M  V30 7419 C 753.285 -1.96932 1.17262 0
M  V30 7420 C 754.298 -1.62445 0.107469 0
M  V30 7421 O 755.487 -1.74904 0.356481 0
M  V30 7422 C 752.587 -3.29971 0.772817 0
M  V30 7423 C 751.76 -3.92695 1.92638 0
M  V30 7424 C 750.819 -5.04068 1.51003 0
M  V30 7425 O 749.845 -5.24032 2.22213 0
M  V30 7426 N 751.047 -5.79076 0.406371 0
M  V30 7427 H 753.812 -2.10503 2.13327 0
M  V30 7428 H 751.373 -1.02897 1.24995 0
M  V30 7429 H 753.365 -4.01883 0.476684 0
M  V30 7430 H 751.935 -3.1245 -0.0967 0
M  V30 7431 H 751.155 -3.13563 2.38897 0
M  V30 7432 H 752.443 -4.31337 2.69863 0
M  V30 7433 H 751.841 -5.65393 -0.186302 0
M  V30 7434 H 750.398 -6.51579 0.169846 0
M  V30 7435 N 753.831 -1.1567 -1.07043 0
M  V30 7436 C 755.242 -0.942408 -1.61169 0
M  V30 7437 C 755.593 0.515537 -1.89306 0
M  V30 7438 O 754.718 1.38726 -1.66084 0
M  V30 7439 C 755.313 -1.70431 -2.92812 0
M  V30 7440 C 753.872 -1.53521 -3.43669 0
M  V30 7441 C 753.019 -1.7179 -2.17678 0
M  V30 7442 H 755.97 -1.3065 -0.9009 0
M  V30 7443 H 755.991 -1.17566 -3.61882 0
M  V30 7444 H 755.503 -2.76538 -2.72302 0
M  V30 7445 H 753.604 -0.498224 -3.69254 0
M  V30 7446 H 753.717 -2.31422 -4.19501 0
M  V30 7447 H 752.081 -1.14468 -2.27529 0
M  V30 7448 H 752.864 -2.79269 -1.99659 0
M  V30 7449 N 755.309 1.25446 -0.953992 0
M  V30 7450 C 756.586 1.884 -0.525823 0
M  V30 7451 C 756.966 1.86079 0.996891 0
M  V30 7452 O 756.314 1.32389 1.8624 0
M  V30 7453 C 756.524 3.31154 -1.10172 0
M  V30 7454 C 757.872 4.07926 -1.17819 0
M  V30 7455 O 758.896 3.40273 -1.05323 0
M  V30 7456 O 757.755 5.28942 -1.37415 0
M  V30 7457 H 754.849 0.808629 -0.173345 0
M  V30 7458 H 757.395 1.33522 -1.04738 0
M  V30 7459 H 756.167 3.27271 -2.14499 0
M  V30 7460 H 755.79 3.93588 -0.56338 0
M  V30 7461 N 756.787 0.722489 1.40064 0
M  V30 7462 C 757.719 0.0349057 2.29173 0
M  V30 7463 C 758.732 -0.716571 1.46182 0
M  V30 7464 O 759.921 -0.562806 1.69395 0
M  V30 7465 C 757.021 -0.974839 3.24577 0
M  V30 7466 C 756.194 -0.287471 4.36454 0
M  V30 7467 C 755.253 -1.20356 5.12251 0
M  V30 7468 O 754.279 -0.685753 5.65054 0
M  V30 7469 N 755.481 -2.53422 5.22262 0
M  V30 7470 H 758.246 0.800058 2.88824 0
M  V30 7471 H 755.807 0.57068 1.51509 0
M  V30 7472 H 757.799 -1.59002 3.72157 0
M  V30 7473 H 756.369 -1.6413 2.66046 0
M  V30 7474 H 755.589 0.508008 3.90913 0
M  V30 7475 H 756.877 0.189382 5.08447 0
M  V30 7476 H 756.275 -2.97981 4.80857 0
M  V30 7477 H 754.832 -3.10067 5.73325 0
M  V30 7478 N 758.265 -1.50454 0.469181 0
M  V30 7479 C 759.493 -2.06729 -0.0842134 0
M  V30 7480 C 759.908 -1.33326 -1.33677 0
M  V30 7481 O 759.265 -0.401977 -1.78018 0
M  V30 7482 C 759.316 -3.59557 -0.374253 0
M  V30 7483 O 759.037 -4.30192 0.828622 0
M  V30 7484 C 760.538 -4.32449 -0.974824 0
M  V30 7485 H 757.758 -0.670971 0.006231 0
M  V30 7486 H 760.302 -1.93645 0.657415 0
M  V30 7487 H 758.457 -3.7245 -1.06581 0
M  V30 7488 H 758.871 -5.21371 0.572066 0
M  V30 7489 H 760.345 -5.40361 -1.12755 0
M  V30 7490 H 760.822 -3.92819 -1.96442 0
M  V30 7491 H 761.428 -4.24082 -0.321703 0
M  V30 7492 N 759.743 -0.201713 -1.56304 0
M  V30 7493 C 760.691 0.733133 -2.20744 0
M  V30 7494 C 761.685 1.2148 -1.18064 0
M  V30 7495 O 762.891 1.17692 -1.36193 0
M  V30 7496 H 759.266 0.254789 -0.707521 0
M  V30 7497 H 761.237 0.165996 -2.97938 0
M  V30 7498 C 759.986 1.93925 -2.88597 0
M  V30 7499 H 759.309 1.5777 -3.67353 0
M  V30 7500 H 760.749 2.57158 -3.37114 0
M  V30 7501 C 759.208 2.78219 -1.89989 0
M  V30 7502 O 759.738 3.76353 -1.40432 0
M  V30 7503 N 757.944 2.43847 -1.58072 0
M  V30 7504 H 757.491 1.64103 -1.98565 0
M  V30 7505 H 757.449 3.0053 -0.923524 0
M  V30 7506 N 761.222 1.57436 0.0718424 0
M  V30 7507 C 762.47 1.86878 0.769484 0
M  V30 7508 C 762.791 0.7937 1.78116 0
M  V30 7509 O 762.061 -0.177642 1.95093 0
M  V30 7510 H 760.641 0.689593 0.287177 0
M  V30 7511 H 763.303 1.94841 0.0479427 0
M  V30 7512 H 762.399 2.84387 1.28572 0
M  V30 7513 N 762.7 -0.34323 1.53817 0
M  V30 7514 C 763.648 -1.44176 1.82527 0
M  V30 7515 C 764.642 -1.54452 0.695772 0
M  V30 7516 O 765.848 -1.57072 0.879114 0
M  V30 7517 H 762.223 -0.480729 0.578277 0
M  V30 7518 H 764.194 -1.17176 2.74431 0
M  V30 7519 C 762.943 -2.80695 2.05197 0
M  V30 7520 H 762.266 -2.73554 2.91561 0
M  V30 7521 H 763.706 -3.56679 2.29251 0
M  V30 7522 C 762.165 -3.26322 0.837589 0
M  V30 7523 O 762.695 -4.01683 0.0371631 0
M  V30 7524 N 760.901 -2.83128 0.654724 0
M  V30 7525 H 760.448 -2.21965 1.30725 0
M  V30 7526 H 760.406 -3.14011 -0.156345 0
M  V30 7527 N 764.178 -1.45556 -0.604258 0
M  V30 7528 C 765.427 -1.49019 -1.35928 0
M  V30 7529 C 765.74 -0.137409 -1.95117 0
M  V30 7530 O 766.946 -0.0497032 -2.71455 0
M  V30 7531 C 765.402 -2.62477 -2.46239 0
M  V30 7532 C 765.01 -4.04082 -1.93447 0
M  V30 7533 C 766.754 -2.7519 -3.23219 0
M  V30 7534 C 764.661 -5.08917 -3.0126 0
M  V30 7535 H 763.591 -0.554518 -0.510907 0
M  V30 7536 H 766.242 -1.71705 -0.647262 0
M  V30 7537 H 764.624 -2.3308 -3.2014 0
M  V30 7538 H 765.798 -4.43173 -1.26232 0
M  V30 7539 H 764.113 -3.95849 -1.29201 0
M  V30 7540 H 766.71 -3.50683 -4.0364 0
M  V30 7541 H 767.053 -1.81941 -3.74437 0
M  V30 7542 H 767.586 -3.04129 -2.56418 0
M  V30 7543 H 764.325 -6.03886 -2.54955 0
M  V30 7544 H 763.845 -4.74393 -3.67031 0
M  V30 7545 H 765.524 -5.33814 -3.65584 0
M  V30 7546 N 765.656 0.84705 -1.32902 0
M  V30 7547 C 766.586 1.97166 -1.25091 0
M  V30 7548 C 767.567 1.69578 -0.133161 0
M  V30 7549 O 768.752 1.91519 -0.321591 0
M  V30 7550 C 765.882 3.33157 -0.981006 0
M  V30 7551 C 764.836 3.75119 -2.06082 0
M  V30 7552 C 764.162 5.08826 -1.64318 0
M  V30 7553 C 765.462 3.89774 -3.47669 0
M  V30 7554 H 767.156 2.03958 -2.19184 0
M  V30 7555 H 764.702 0.979907 -1.05517 0
M  V30 7556 H 766.655 4.11393 -0.912891 0
M  V30 7557 H 765.379 3.266 -0.00445559 0
M  V30 7558 H 764.038 2.9914 -2.11921 0
M  V30 7559 H 763.686 4.98732 -0.653876 0
M  V30 7560 H 763.386 5.37873 -2.36572 0
M  V30 7561 H 764.91 5.89546 -1.58958 0
M  V30 7562 H 766.324 4.58343 -3.44376 0
M  V30 7563 H 764.721 4.30248 -4.18338 0
M  V30 7564 H 765.791 2.92463 -3.86773 0
M  V30 7565 N 767.134 1.16236 1.06428 0
M  V30 7566 C 768.411 0.853294 1.76006 0
M  V30 7567 C 768.791 -0.649162 2.00871 0
M  V30 7568 O 768.139 -1.59653 1.63472 0
M  V30 7569 C 768.349 1.67448 3.06206 0
M  V30 7570 C 769.697 1.8866 3.80385 0
M  V30 7571 O 770.721 1.64303 3.16043 0
M  V30 7572 O 769.58 2.29518 4.95968 0
M  V30 7573 H 766.674 0.314737 0.764767 0
M  V30 7574 H 769.22 1.26865 1.12709 0
M  V30 7575 H 767.992 2.69411 2.83784 0
M  V30 7576 H 767.615 1.25608 3.77238 0
M  V30 7577 N 768.612 -1.24939 0.960631 0
M  V30 7578 C 769.842 -1.96595 0.635123 0
M  V30 7579 C 770.25 -1.71538 -0.798206 0
M  V30 7580 O 769.593 -0.991727 -1.5463 0
M  V30 7581 C 769.655 -3.49994 0.821248 0
M  V30 7582 C 769.319 -3.98738 2.23287 0
M  V30 7583 C 770.316 -4.08965 3.21004 0
M  V30 7584 C 768.001 -4.32247 2.55867 0
M  V30 7585 C 769.995 -4.52025 4.49391 0
M  V30 7586 C 767.682 -4.74991 3.84482 0
M  V30 7587 C 768.68 -4.84844 4.81056 0
M  V30 7588 O 768.368 -5.26638 6.07378 0
M  V30 7589 H 768.1 -0.633265 0.23654 0
M  V30 7590 H 770.654 -1.5991 1.28911 0
M  V30 7591 H 768.884 -3.86543 0.110105 0
M  V30 7592 H 770.573 -4.02859 0.495892 0
M  V30 7593 H 771.339 -3.83302 2.97161 0
M  V30 7594 H 767.218 -4.23801 1.81421 0
M  V30 7595 H 770.762 -4.5963 5.24773 0
M  V30 7596 H 766.659 -5.00101 4.08129 0
M  V30 7597 H 767.427 -5.44807 6.10842 0
M  V30 7598 N 770.09 -0.729906 -1.39679 0
M  V30 7599 C 771.022 -0.0470588 -2.29152 0
M  V30 7600 C 772.035 0.708808 -1.4656 0
M  V30 7601 O 773.224 0.553815 -1.69691 0
M  V30 7602 C 770.324 0.957612 -3.25089 0
M  V30 7603 C 769.497 0.264321 -4.36601 0
M  V30 7604 C 768.556 1.17638 -5.12882 0
M  V30 7605 O 767.582 0.655777 -5.6541 0
M  V30 7606 N 768.784 2.50649 -5.23598 0
M  V30 7607 H 771.549 -0.815364 -2.88395 0
M  V30 7608 H 769.11 -0.578707 -1.51204 0
M  V30 7609 H 771.102 1.57026 -3.72995 0
M  V30 7610 H 769.672 1.62716 -2.66912 0
M  V30 7611 H 768.892 -0.528732 -3.90638 0
M  V30 7612 H 770.18 -0.216344 -5.0834 0
M  V30 7613 H 769.578 2.95427 -4.82431 0
M  V30 7614 H 768.135 3.07022 -5.74961 0
M  V30 7615 N 771.568 1.50203 -0.477153 0
M  V30 7616 C 772.498 2.31517 0.303646 0
M  V30 7617 C 773.479 1.38696 0.984753 0
M  V30 7618 O 774.664 1.67615 0.980758 0
M  V30 7619 C 771.794 3.18598 1.38249 0
M  V30 7620 C 770.748 4.2002 0.822645 0
M  V30 7621 C 770.074 4.95878 2.00024 0
M  V30 7622 C 771.374 5.22023 -0.170185 0
M  V30 7623 H 773.068 2.97042 -0.375027 0
M  V30 7624 H 770.614 1.42848 -0.181802 0
M  V30 7625 H 772.567 3.74282 1.93625 0
M  V30 7626 H 771.291 2.5097 2.09002 0
M  V30 7627 H 769.95 3.65445 0.290813 0
M  V30 7628 H 769.598 4.24717 2.69489 0
M  V30 7629 H 769.298 5.64487 1.63183 0
M  V30 7630 H 770.822 5.54399 2.55878 0
M  V30 7631 H 772.236 5.72543 0.294606 0
M  V30 7632 H 770.633 5.98386 -0.453181 0
M  V30 7633 H 771.703 4.72396 -1.09408 0
M  V30 7634 N 773.046 0.209999 1.56195 0
M  V30 7635 C 774.462 -0.145598 1.58934 0
M  V30 7636 C 774.662 -1.59868 1.22656 0
M  V30 7637 O 773.718 -2.33689 0.956336 0
M  V30 7638 C 775.031 0.170243 3.00218 0
M  V30 7639 C 776.579 0.111548 3.12801 0
M  V30 7640 C 777.054 0.400904 4.56242 0
M  V30 7641 N 778.545 0.350058 4.61875 0
M  V30 7642 C 779.28 0.547598 5.70779 0
M  V30 7643 N 778.776 0.806291 6.88092 0
M  V30 7644 N 780.569 0.480827 5.6004 0
M  V30 7645 H 772.72 1.15804 1.78054 0
M  V30 7646 H 774.983 0.463326 0.827063 0
M  V30 7647 H 774.689 1.17833 3.31373 0
M  V30 7648 H 774.563 -0.520208 3.73596 0
M  V30 7649 H 776.95 -0.887162 2.81449 0
M  V30 7650 H 777.031 0.835302 2.41777 0
M  V30 7651 H 776.675 1.397 4.8831 0
M  V30 7652 H 776.605 -0.34391 5.25476 0
M  V30 7653 H 779.096 0.157334 3.77572 0
M  V30 7654 H 779.409 0.945433 7.66995 0
M  V30 7655 H 777.754 0.843355 6.89864 0
M  V30 7656 H 780.945 0.279037 4.67268 0
M  V30 7657 H 781.118 0.638189 6.4485 0
M  V30 7658 N 774.524 -1.57472 -0.0634922 0
M  V30 7659 C 775.754 -1.91608 -0.772645 0
M  V30 7660 C 776.162 -0.805019 -1.71219 0
M  V30 7661 O 775.505 0.229941 -1.82255 0
M  V30 7662 C 775.567 -3.21281 -1.61304 0
M  V30 7663 C 775.231 -4.49177 -0.841973 0
M  V30 7664 C 776.228 -5.19661 -0.157494 0
M  V30 7665 C 773.913 -4.9578 -0.80669 0
M  V30 7666 C 775.907 -6.35006 0.551948 0
M  V30 7667 C 773.594 -6.11028 -0.0934812 0
M  V30 7668 C 774.592 -6.80493 0.58463 0
M  V30 7669 O 774.28 -7.93542 1.28633 0
M  V30 7670 H 774.012 -0.637685 -0.224352 0
M  V30 7671 H 776.566 -2.05369 -0.0355279 0
M  V30 7672 H 774.796 -3.03752 -2.39315 0
M  V30 7673 H 776.485 -3.41003 -2.20162 0
M  V30 7674 H 777.251 -4.84681 -0.176006 0
M  V30 7675 H 773.13 -4.41579 -1.32397 0
M  V30 7676 H 776.674 -6.89161 1.0818 0
M  V30 7677 H 772.571 -6.45459 -0.0729258 0
M  V30 7678 H 773.339 -8.09708 1.19646 0
M  V30 7679 N 776.003 0.335068 -1.53997 0
M  V30 7680 C 777.233 1.0926 -1.75345 0
M  V30 7681 C 777.641 1.82568 -0.496545 0
M  V30 7682 O 776.984 1.75525 0.541897 0
M  V30 7683 C 777.046 2.14473 -2.88516 0
M  V30 7684 C 776.71 1.60665 -4.27827 0
M  V30 7685 C 777.707 1.05448 -5.09094 0
M  V30 7686 C 775.392 1.65255 -4.74337 0
M  V30 7687 C 777.386 0.555372 -6.34976 0
M  V30 7688 C 775.073 1.14956 -6.0019 0
M  V30 7689 C 776.071 0.601907 -6.80343 0
M  V30 7690 O 775.759 0.106445 -8.0383 0
M  V30 7691 H 775.491 0.331329 -0.589234 0
M  V30 7692 H 778.045 0.39042 -2.01655 0
M  V30 7693 H 776.275 2.88274 -2.5775 0
M  V30 7694 H 777.964 2.75857 -2.97755 0
M  V30 7695 H 778.73 1.01218 -4.74321 0
M  V30 7696 H 774.609 2.06822 -4.12002 0
M  V30 7697 H 778.153 0.127245 -6.97484 0
M  V30 7698 H 774.05 1.18891 -6.34457 0
M  V30 7699 H 774.818 0.222944 -8.18196 0
M  V30 7700 N 777.481 1.45874 0.596531 0
M  V30 7701 C 778.758 1.40942 1.35627 0
M  V30 7702 C 779.138 0.0857066 2.10926 0
M  V30 7703 O 778.486 -0.932544 2.08605 0
M  V30 7704 C 778.696 2.63027 2.29386 0
M  V30 7705 C 780.044 3.08588 2.91649 0
M  V30 7706 O 781.068 2.63478 2.39704 0
M  V30 7707 O 779.927 3.86902 3.85965 0
M  V30 7708 H 777.021 0.559838 0.608696 0
M  V30 7709 H 779.567 1.5802 0.618698 0
M  V30 7710 H 778.339 3.5094 1.7308 0
M  V30 7711 H 777.962 2.48338 3.10506 0
M  V30 7712 N 778.959 -0.83999 1.33349 0
M  V30 7713 C 779.891 -1.95678 1.19344 0
M  V30 7714 C 780.904 -1.62322 0.124692 0
M  V30 7715 O 782.093 -1.74516 0.375012 0
M  V30 7716 C 779.193 -3.29133 0.807771 0
M  V30 7717 C 778.366 -3.9063 1.96792 0
M  V30 7718 C 777.425 -5.02438 1.56341 0
M  V30 7719 O 776.451 -5.21646 2.27759 0
M  V30 7720 N 777.653 -5.78612 0.467767 0
M  V30 7721 H 780.418 -2.08229 2.15548 0
M  V30 7722 H 777.979 -1.01566 1.26079 0
M  V30 7723 H 779.971 -4.01355 0.519282 0
M  V30 7724 H 778.541 -3.12535 -0.063555 0
M  V30 7725 H 777.761 -3.11011 2.4221 0
M  V30 7726 H 779.049 -4.2845 2.74422 0
M  V30 7727 H 778.447 -5.65559 -0.126324 0
M  V30 7728 H 777.004 -6.51362 0.238945 0
M  V30 7729 N 780.437 -1.16799 -1.0581 0
M  V30 7730 C 781.4 -0.881396 -2.11575 0
M  V30 7731 C 782.4 0.12574 -1.60308 0
M  V30 7732 O 783.59 -0.105716 -1.73879 0
M  V30 7733 C 780.722 -0.319037 -3.39404 0
M  V30 7734 H 781.915 -1.81907 -2.38432 0
M  V30 7735 H 779.468 -0.977597 -1.21954 0
M  V30 7736 H 780.203 0.626082 -3.18199 0
M  V30 7737 H 779.988 -1.04481 -3.77923 0
M  V30 7738 H 781.478 -0.13663 -4.17376 0
M  V30 7739 N 781.915 1.24427 -0.967243 0
M  V30 7740 C 782.825 2.29109 -0.504592 0
M  V30 7741 C 783.841 1.68495 0.434224 0
M  V30 7742 O 785.017 1.99041 0.307379 0
M  V30 7743 C 782.082 3.46133 0.198273 0
M  V30 7744 C 781.143 4.22149 -0.780313 0
M  V30 7745 C 780.376 5.33585 -0.110896 0
M  V30 7746 O 780.599 5.59676 1.10088 0
M  V30 7747 O 779.533 5.96522 -0.802823 0
M  V30 7748 H 783.359 2.708 -1.37482 0
M  V30 7749 H 780.944 1.30111 -0.73426 0
M  V30 7750 H 782.826 4.17205 0.593124 0
M  V30 7751 H 781.501 3.0642 1.04347 0
M  V30 7752 H 780.408 3.53454 -1.22561 0
M  V30 7753 H 781.741 4.65677 -1.59392 0
M  V30 7754 N 783.393 0.737304 1.3929 0
M  V30 7755 C 784.67 0.212464 1.94443 0
M  V30 7756 C 785.05 -1.28621 1.67391 0
M  V30 7757 O 784.398 -2.0529 1.00342 0
M  V30 7758 C 784.608 0.548565 3.44662 0
M  V30 7759 C 785.956 0.499177 4.21656 0
M  V30 7760 O 786.98 0.485892 3.5287 0
M  V30 7761 O 785.839 0.495739 5.44247 0
M  V30 7762 H 782.933 0.0395457 0.826054 0
M  V30 7763 H 785.479 0.816319 1.48776 0
M  V30 7764 H 784.251 1.58426 3.57795 0
M  V30 7765 H 783.874 -0.0841399 3.97511 0
M  V30 7766 N 784.871 -1.49948 0.485112 0
M  V30 7767 C 785.781 -2.32587 -0.306697 0
M  V30 7768 C 786.797 -1.43598 -0.982632 0
M  V30 7769 O 787.973 -1.76638 -0.967519 0
M  V30 7770 C 785.038 -3.18638 -1.3664 0
M  V30 7771 C 784.099 -4.23462 -0.705589 0
M  V30 7772 C 783.332 -5.05401 -1.7148 0
M  V30 7773 O 783.555 -4.88618 -2.94293 0
M  V30 7774 O 782.489 -5.88157 -1.27889 0
M  V30 7775 H 786.315 -3.01447 0.369272 0
M  V30 7776 H 783.9 -1.47349 0.246709 0
M  V30 7777 H 785.782 -3.71992 -1.9799 0
M  V30 7778 H 784.457 -2.52491 -2.02559 0
M  V30 7779 H 783.364 -3.74063 -0.0527733 0
M  V30 7780 H 784.697 -4.92119 -0.0891187 0
M  V30 7781 N 786.349 -0.21828 -1.56081 0
M  V30 7782 C 787.574 0.422302 -2.03055 0
M  V30 7783 C 787.999 1.5279 -1.09713 0
M  V30 7784 O 787.357 1.81102 -0.0847187 0
M  V30 7785 C 787.405 0.934177 -3.48289 0
M  V30 7786 O 786.509 2.04574 -3.58083 0
M  V30 7787 H 785.85 0.0959764 -0.657027 0
M  V30 7788 H 788.38 -0.335958 -2.01823 0
M  V30 7789 H 788.39 1.24484 -3.88546 0
M  V30 7790 H 787.065 0.124963 -4.15712 0
M  V30 7791 H 785.642 1.74196 -3.29712 0
M  V30 7792 N 787.827 1.57504 0.0551401 0
M  V30 7793 C 788.777 2.0128 1.071 0
M  V30 7794 C 789.761 0.897592 1.33537 0
M  V30 7795 O 790.953 1.16151 1.33558 0
M  V30 7796 C 788.082 2.47414 2.37994 0
M  V30 7797 C 787.168 3.65703 2.14761 0
M  V30 7798 N 787.559 4.79323 1.61504 0
M  V30 7799 C 785.857 3.72574 2.45162 0
M  V30 7800 C 786.558 5.61089 1.53472 0
M  V30 7801 N 785.534 5.05426 2.00114 0
M  V30 7802 H 789.336 2.86558 0.652829 0
M  V30 7803 H 786.85 1.60274 0.26193 0
M  V30 7804 H 788.847 2.77023 3.11551 0
M  V30 7805 H 787.507 1.6353 2.80514 0
M  V30 7806 H 788.518 5.01284 1.30134 0
M  V30 7807 H 785.195 2.99439 2.90934 0
M  V30 7808 H 786.585 6.62328 1.13008 0
M  V30 7809 N 789.305 -0.326896 1.54172 0
M  V30 7810 C 790.53 -1.08924 1.76494 0
M  V30 7811 C 790.955 -1.81039 0.510523 0
M  V30 7812 O 790.313 -1.73141 -0.537756 0
M  V30 7813 C 790.361 -2.06558 2.95578 0
M  V30 7814 O 789.465 -3.14394 2.6689 0
M  V30 7815 H 788.806 -0.314216 0.584948 0
M  V30 7816 H 791.336 -0.372207 2.01186 0
M  V30 7817 H 791.346 -2.49487 3.22832 0
M  V30 7818 H 790.021 -1.53469 3.86549 0
M  V30 7819 H 788.598 -2.76164 2.50576 0
M  V30 7820 N 790.784 -1.46188 -0.588786 0
M  V30 7821 C 792.031 -1.51184 -1.34721 0
M  V30 7822 C 792.359 -0.161084 -1.93832 0
M  V30 7823 O 791.614 0.842557 -1.76634 0
M  V30 7824 C 791.913 -2.55364 -2.50048 0
M  V30 7825 C 791.579 -3.99553 -2.08969 0
M  V30 7826 C 790.241 -4.38811 -1.9748 0
M  V30 7827 C 792.593 -4.90156 -1.77191 0
M  V30 7828 C 789.921 -5.66544 -1.52463 0
M  V30 7829 C 792.273 -6.1832 -1.33654 0
M  V30 7830 C 790.937 -6.5649 -1.20738 0
M  V30 7831 H 790.207 -0.55322 -0.49298 0
M  V30 7832 H 792.854 -1.79634 -0.663627 0
M  V30 7833 H 791.159 -2.20552 -3.23827 0
M  V30 7834 H 792.856 -2.5646 -3.08268 0
M  V30 7835 H 789.446 -3.68518 -2.18843 0
M  V30 7836 H 793.63 -4.60549 -1.84955 0
M  V30 7837 H 788.886 -5.94895 -1.411 0
M  V30 7838 H 793.06 -6.87956 -1.08117 0
M  V30 7839 H 790.687 -7.55362 -0.856307 0
M  V30 7840 N 792.262 0.832906 -1.33792 0
M  V30 7841 C 793.49 1.62048 -1.28639 0
M  V30 7842 C 793.905 1.88269 0.141522 0
M  V30 7843 O 793.262 1.46706 1.08553 0
M  V30 7844 C 793.313 2.96722 -2.0649 0
M  V30 7845 O 793.034 2.7165 -3.43712 0
M  V30 7846 C 794.535 3.91144 -2.08617 0
M  V30 7847 H 791.755 0.504032 -0.442937 0
M  V30 7848 H 794.299 1.03704 -1.76255 0
M  V30 7849 H 792.454 3.51652 -1.62541 0
M  V30 7850 H 792.868 3.57453 -3.83833 0
M  V30 7851 H 794.342 4.82837 -2.67531 0
M  V30 7852 H 794.819 4.25766 -1.07796 0
M  V30 7853 H 795.425 3.42152 -2.52611 0
M  V30 7854 N 793.74 1.17359 1.05189 0
M  V30 7855 C 794.67 0.91365 2.14883 0
M  V30 7856 C 795.651 -0.144365 1.69486 0
M  V30 7857 O 796.836 0.00587861 1.94199 0
M  V30 7858 C 793.966 0.426196 3.44675 0
M  V30 7859 C 792.92 1.4234 4.03638 0
M  V30 7860 C 792.246 0.793902 5.28773 0
M  V30 7861 C 793.546 2.7966 4.41121 0
M  V30 7862 H 795.24 1.831 2.36885 0
M  V30 7863 H 792.786 0.881781 1.13845 0
M  V30 7864 H 794.739 0.231767 4.20762 0
M  V30 7865 H 793.463 -0.526693 3.22325 0
M  V30 7866 H 792.122 1.60457 3.2962 0
M  V30 7867 H 791.77 -0.165824 5.02727 0
M  V30 7868 H 791.47 1.45959 5.69183 0
M  V30 7869 H 792.994 0.609747 6.07548 0
M  V30 7870 H 794.408 2.6526 5.08242 0
M  V30 7871 H 792.805 3.42807 4.92548 0
M  V30 7872 H 793.875 3.34068 3.51464 0
M  V30 7873 N 795.218 -1.23913 0.973828 0
M  V30 7874 C 796.446 -1.96195 0.656891 0
M  V30 7875 C 796.861 -1.72166 -0.774876 0
M  V30 7876 O 796.218 -1.0091 -1.52064 0
M  V30 7877 C 796.269 -3.49342 0.929638 0
M  V30 7878 O 795.99 -3.72553 2.30512 0
M  V30 7879 C 797.491 -4.38833 0.627739 0
M  V30 7880 H 794.711 -0.624841 0.244572 0
M  V30 7881 H 797.255 -1.57579 1.30343 0
M  V30 7882 H 795.41 -3.85999 0.329216 0
M  V30 7883 H 795.824 -4.66893 2.3898 0
M  V30 7884 H 797.298 -5.45117 0.868991 0
M  V30 7885 H 797.775 -4.37009 -0.438104 0
M  V30 7886 H 798.381 -4.07773 1.20834 0
M  V30 7887 N 796.696 -0.74468 -1.38897 0
M  V30 7888 C 797.921 -0.306119 -2.05128 0
M  V30 7889 C 798.346 1.0541 -1.55789 0
M  V30 7890 O 797.704 1.66993 -0.705909 0
M  V30 7891 C 797.752 -0.328195 -3.59103 0
M  V30 7892 O 796.856 0.680876 -4.06741 0
M  V30 7893 H 796.197 -0.137209 -0.649669 0
M  V30 7894 H 798.727 -1.01331 -1.77745 0
M  V30 7895 H 798.737 -0.175956 -4.0762 0
M  V30 7896 H 797.412 -1.32067 -3.94374 0
M  V30 7897 H 795.989 0.49398 -3.69614 0
M  V30 7898 N 798.174 1.49689 -0.493057 0
M  V30 7899 C 799.084 2.32746 0.294358 0
M  V30 7900 C 800.1 1.44117 0.975003 0
M  V30 7901 O 801.276 1.77149 0.958138 0
M  V30 7902 C 798.341 3.19358 1.34949 0
M  V30 7903 C 797.402 4.2383 0.683122 0
M  V30 7904 C 796.635 5.06303 1.68798 0
M  V30 7905 O 796.858 4.90172 2.91698 0
M  V30 7906 O 795.792 5.88826 1.24768 0
M  V30 7907 H 799.618 3.01247 -0.385254 0
M  V30 7908 H 797.203 1.47216 -0.254519 0
M  V30 7909 H 799.085 3.73037 1.96014 0
M  V30 7910 H 797.76 2.53561 2.01217 0
M  V30 7911 H 796.667 3.74086 0.0329351 0
M  V30 7912 H 798 4.9216 0.0630192 0
M  V30 7913 N 799.652 0.226554 1.55963 0
M  V30 7914 C 800.88 -0.408507 2.02827 0
M  V30 7915 C 801.295 -1.52994 1.10627 0
M  V30 7916 O 800.652 -1.82126 0.116809 0
M  V30 7917 C 800.703 -0.93545 3.49187 0
M  V30 7918 O 800.424 0.141273 4.37872 0
M  V30 7919 C 801.925 -1.64325 4.11719 0
M  V30 7920 H 799.145 -0.099442 0.66359 0
M  V30 7921 H 801.689 0.344471 2.01578 0
M  V30 7922 H 799.844 -1.63868 3.51036 0
M  V30 7923 H 800.258 -0.25558 5.23877 0
M  V30 7924 H 801.732 -1.9639 5.15883 0
M  V30 7925 H 802.209 -2.55815 3.57009 0
M  V30 7926 H 802.815 -0.9851 4.13734 0
M  V30 7927 N 801.13 -1.57531 -0.0467866 0
M  V30 7928 C 802.078 -2.06455 -1.0714 0
M  V30 7929 C 803.072 -0.974744 -1.38546 0
M  V30 7930 O 804.278 -1.15974 -1.37659 0
M  V30 7931 H 800.653 -0.658607 -0.362962 0
M  V30 7932 H 802.624 -2.91613 -0.632813 0
M  V30 7933 C 801.373 -2.54481 -2.36927 0
M  V30 7934 H 800.696 -3.37946 -2.13617 0
M  V30 7935 H 802.136 -2.92442 -3.07007 0
M  V30 7936 C 800.595 -1.43836 -3.04652 0
M  V30 7937 O 801.125 -0.794531 -3.93764 0
M  V30 7938 N 799.331 -1.17727 -2.65686 0
M  V30 7939 H 798.878 -1.70265 -1.93307 0
M  V30 7940 H 798.836 -0.439051 -3.11319 0
M  V30 7941 N 802.608 0.318715 -1.54344 0
M  V30 7942 C 803.836 1.0755 -1.7675 0
M  V30 7943 C 804.251 1.81543 -0.518422 0
M  V30 7944 O 803.608 1.75198 0.511078 0
M  V30 7945 C 803.659 2.06983 -2.96378 0
M  V30 7946 O 803.38 1.35995 -4.16458 0
M  V30 7947 C 804.881 2.94841 -3.31034 0
M  V30 7948 H 802.101 0.319711 -0.589937 0
M  V30 7949 H 804.645 0.363369 -2.01246 0
M  V30 7950 H 802.8 2.73724 -2.74142 0
M  V30 7951 H 803.214 2.02623 -4.83781 0
M  V30 7952 H 804.688 3.60496 -4.18027 0
M  V30 7953 H 805.165 3.62199 -2.48412 0
M  V30 7954 H 805.771 2.33656 -3.55366 0
M  V30 7955 N 804.086 1.46499 0.581025 0
M  V30 7956 C 805.049 1.5677 1.672 0
M  V30 7957 C 806.049 0.444716 1.54528 0
M  V30 7958 O 807.239 0.709074 1.59116 0
M  V30 7959 C 804.371 1.4896 3.06633 0
M  V30 7960 H 805.564 2.54 1.5945 0
M  V30 7961 H 803.117 1.34334 0.799003 0
M  V30 7962 H 803.852 0.530168 3.19937 0
M  V30 7963 H 803.637 2.30439 3.17239 0
M  V30 7964 H 805.127 1.59237 3.86048 0
M  V30 7965 N 805.565 -0.825799 1.34232 0
M  V30 7966 C 806.793 -1.61363 1.29497 0
M  V30 7967 C 807.208 -1.88341 -0.131536 0
M  V30 7968 O 806.565 -1.47279 -1.07773 0
M  V30 7969 C 806.616 -2.95623 2.08061 0
M  V30 7970 O 806.337 -2.69824 3.45147 0
M  V30 7971 C 807.838 -3.90032 2.10688 0
M  V30 7972 H 805.058 -0.501676 0.445603 0
M  V30 7973 H 807.602 -1.02767 1.76803 0
M  V30 7974 H 805.757 -3.50785 1.64404 0
M  V30 7975 H 806.171 -3.55412 3.85723 0
M  V30 7976 H 807.645 -4.81411 2.70087 0
M  V30 7977 H 808.122 -4.25188 1.10052 0
M  V30 7978 H 808.728 -3.40807 2.54422 0
M  V30 7979 N 807.043 -1.17915 -1.04565 0
M  V30 7980 C 808.289 -0.972863 -1.77942 0
M  V30 7981 C 808.622 0.496753 -1.87739 0
M  V30 7982 O 807.897 1.3688 -1.38181 0
M  V30 7983 C 808.18 -1.62227 -3.21488 0
M  V30 7984 C 808.033 -3.16441 -3.19664 0
M  V30 7985 C 809.352 -1.33137 -4.19479 0
M  V30 7986 H 806.471 -0.354843 -0.645953 0
M  V30 7987 H 809.113 -1.45508 -1.22178 0
M  V30 7988 H 807.263 -1.21224 -3.69103 0
M  V30 7989 H 808.935 -3.66544 -2.80077 0
M  V30 7990 H 807.178 -3.48863 -2.57832 0
M  V30 7991 H 807.849 -3.57012 -4.21006 0
M  V30 7992 H 810.325 -1.68654 -3.80388 0
M  V30 7993 H 809.201 -1.81151 -5.18146 0
M  V30 7994 H 809.462 -0.253319 -4.41374 0
M  V30 7995 N 808.521 1.23394 -0.980386 0
M  V30 7996 C 809.749 1.95844 -0.667286 0
M  V30 7997 C 810.164 1.72574 0.765735 0
M  V30 7998 O 809.521 1.01715 1.51526 0
M  V30 7999 C 809.572 3.48844 -0.948151 0
M  V30 8000 O 809.293 3.71325 -2.32485 0
M  V30 8001 C 810.794 4.38494 -0.651002 0
M  V30 8002 H 808.014 0.623535 -0.247882 0
M  V30 8003 H 810.558 1.56885 -1.31176 0
M  V30 8004 H 808.713 3.85819 -0.349681 0
M  V30 8005 H 809.127 4.65619 -2.41452 0
M  V30 8006 H 810.601 5.44648 -0.897887 0
M  V30 8007 H 811.078 4.37236 0.414922 0
M  V30 8008 H 811.684 4.07127 -1.22995 0
M  V30 8009 N 809.999 0.752036 1.385 0
M  V30 8010 C 810.931 0.0835089 2.29048 0
M  V30 8011 C 811.944 -0.685402 1.47669 0
M  V30 8012 O 813.133 -0.526748 1.70551 0
M  V30 8013 C 810.233 -0.905772 3.26572 0
M  V30 8014 C 809.406 -0.194828 4.36966 0
M  V30 8015 C 808.465 -1.09464 5.14688 0
M  V30 8016 O 807.491 -0.565743 5.66381 0
M  V30 8017 N 808.693 -2.42287 5.2752 0
M  V30 8018 H 811.458 0.861142 2.87062 0
M  V30 8019 H 809.019 0.602689 1.50264 0
M  V30 8020 H 811.011 -1.51072 3.75446 0
M  V30 8021 H 809.581 -1.58449 2.69467 0
M  V30 8022 H 808.801 0.590812 3.89747 0
M  V30 8023 H 810.089 0.297189 5.07931 0
M  V30 8024 H 809.487 -2.87715 4.8707 0
M  V30 8025 H 808.044 -2.97836 5.79773 0
M  V30 8026 N 811.477 -1.49425 0.500989 0
M  V30 8027 C 812.407 -2.31971 -0.266775 0
M  V30 8028 C 813.388 -1.40245 -0.962563 0
M  V30 8029 O 814.573 -1.69154 -0.953968 0
M  V30 8030 C 811.703 -3.20757 -1.33163 0
M  V30 8031 C 810.657 -4.21275 -0.75572 0
M  V30 8032 C 809.983 -4.98997 -1.92109 0
M  V30 8033 C 811.283 -5.21686 0.253213 0
M  V30 8034 H 812.977 -2.96408 0.422237 0
M  V30 8035 H 810.523 -1.4254 0.204505 0
M  V30 8036 H 812.476 -3.77315 -1.87646 0
M  V30 8037 H 811.2 -2.54263 -2.04983 0
M  V30 8038 H 809.859 -3.65861 -0.232637 0
M  V30 8039 H 809.507 -4.28951 -2.62698 0
M  V30 8040 H 809.207 -5.67011 -1.54182 0
M  V30 8041 H 810.731 -5.584 -2.47026 0
M  V30 8042 H 812.145 -5.72939 -0.203483 0
M  V30 8043 H 810.542 -5.9759 0.548322 0
M  V30 8044 H 811.612 -4.70596 1.16909 0
M  V30 8045 N 812.955 -0.234822 -1.55841 0
M  V30 8046 C 814.18 0.400741 -2.03492 0
M  V30 8047 C 814.605 1.51618 -1.11327 0
M  V30 8048 O 813.963 1.81002 -0.103922 0
M  V30 8049 C 814.011 0.897184 -3.49261 0
M  V30 8050 O 813.115 2.00764 -3.60233 0
M  V30 8051 H 812.456 0.0890023 -0.658008 0
M  V30 8052 H 814.986 -0.357345 -2.01455 0
M  V30 8053 H 814.996 1.20356 -3.89844 0
M  V30 8054 H 813.671 0.0808639 -4.15821 0
M  V30 8055 H 812.248 1.70689 -3.31541 0
M  V30 8056 N 814.433 1.57553 0.0384317 0
M  V30 8057 C 815.844 1.77258 0.586211 0
M  V30 8058 C 816.195 0.864706 1.76117 0
M  V30 8059 O 815.32 0.057141 2.16325 0
M  V30 8060 C 815.915 3.21453 1.07021 0
M  V30 8061 C 814.474 3.42387 1.56358 0
M  V30 8062 C 813.621 2.72801 0.497508 0
M  V30 8063 H 816.572 1.57585 -0.187796 0
M  V30 8064 H 816.593 3.27451 1.93794 0
M  V30 8065 H 816.105 3.87505 0.214851 0
M  V30 8066 H 814.206 2.81497 2.44111 0
M  V30 8067 H 814.319 4.50968 1.61754 0
M  V30 8068 H 812.683 2.36305 0.95038 0
M  V30 8069 H 813.466 3.41529 -0.348234 0
M  V30 8070 N 815.911 -0.310526 1.54511 0
M  V30 8071 C 817.159 -1.04484 1.72996 0
M  V30 8072 C 817.48 -1.88118 0.513479 0
M  V30 8073 O 816.75 -1.90119 -0.472384 0
M  V30 8074 H 815.33 -0.388747 0.637875 0
M  V30 8075 H 817.992 -0.343811 1.91844 0
M  V30 8076 H 817.088 -1.70341 2.61515 0
M  V30 8077 N 817.389 -1.46805 -0.573248 0
M  V30 8078 C 818.339 -1.54497 -1.67674 0
M  V30 8079 C 819.323 -0.405117 -1.55716 0
M  V30 8080 O 820.515 -0.654097 -1.64471 0
M  V30 8081 C 817.644 -1.54717 -3.0646 0
M  V30 8082 C 816.73 -2.7403 -3.2368 0
M  V30 8083 N 817.121 -3.98871 -3.11023 0
M  V30 8084 C 815.419 -2.70453 -3.54642 0
M  V30 8085 C 816.12 -4.78689 -3.30502 0
M  V30 8086 N 815.096 -4.10727 -3.56096 0
M  V30 8087 H 818.898 -2.48809 -1.56433 0
M  V30 8088 H 816.412 -1.42576 -0.777554 0
M  V30 8089 H 818.409 -1.58316 -3.8567 0
M  V30 8090 H 817.069 -0.614886 -3.18825 0
M  V30 8091 H 818.08 -4.29976 -2.88688 0
M  V30 8092 H 814.757 -1.86291 -3.73633 0
M  V30 8093 H 816.147 -5.87615 -3.2582 0
M  V30 8094 N 818.867 0.818669 -1.34668 0
M  V30 8095 C 820.116 1.57017 -1.26604 0
M  V30 8096 C 820.429 1.94936 0.161036 0
M  V30 8097 O 821.635 2.69051 0.36386 0
M  V30 8098 C 820.091 2.83305 -2.2196 0
M  V30 8099 C 819.699 2.52671 -3.69948 0
M  V30 8100 C 821.443 3.61324 -2.22813 0
M  V30 8101 C 819.35 3.75178 -4.5716 0
M  V30 8102 H 818.28 0.589323 -0.470335 0
M  V30 8103 H 820.931 0.900956 -1.59859 0
M  V30 8104 H 819.313 3.51874 -1.81661 0
M  V30 8105 H 820.487 1.92186 -4.18809 0
M  V30 8106 H 818.802 1.8792 -3.71584 0
M  V30 8107 H 821.399 4.52294 -2.85192 0
M  V30 8108 H 821.742 3.97759 -1.22857 0
M  V30 8109 H 822.275 2.99703 -2.61578 0
M  V30 8110 H 819.014 3.43861 -5.58068 0
M  V30 8111 H 818.534 4.34931 -4.13031 0
M  V30 8112 H 820.213 4.42542 -4.71981 0
M  V30 8113 N 820.346 1.18468 1.03938 0
M  V30 8114 C 821.576 1.0043 1.80547 0
M  V30 8115 C 821.984 -0.450407 1.83761 0
M  V30 8116 O 821.327 -1.32463 1.27276 0
M  V30 8117 C 821.389 1.48437 3.27424 0
M  V30 8118 C 821.053 2.96372 3.47869 0
M  V30 8119 C 822.05 3.94217 3.38953 0
M  V30 8120 C 819.735 3.34831 3.74424 0
M  V30 8121 C 821.729 5.28517 3.56298 0
M  V30 8122 C 819.416 4.69294 3.91416 0
M  V30 8123 C 820.414 5.65946 3.82354 0
M  V30 8124 O 820.102 6.97974 3.98858 0
M  V30 8125 H 819.834 0.354853 0.575374 0
M  V30 8126 H 822.388 1.57473 1.31876 0
M  V30 8127 H 820.618 0.857601 3.7707 0
M  V30 8128 H 822.307 1.2677 3.85596 0
M  V30 8129 H 823.073 3.6585 3.184 0
M  V30 8130 H 818.952 2.60161 3.80575 0
M  V30 8131 H 822.496 6.03943 3.49141 0
M  V30 8132 H 818.393 4.97361 4.11463 0
M  V30 8133 H 819.161 7.04895 4.1601 0
M  V30 8134 N 821.824 -1.22873 0.986916 0
M  V30 8135 C 823.072 -1.91084 0.658121 0
M  V30 8136 C 823.393 -1.77304 -0.811675 0
M  V30 8137 O 822.663 -1.15649 -1.58121 0
M  V30 8138 H 821.243 -0.707251 0.240427 0
M  V30 8139 H 823.905 -1.49357 1.25213 0
M  V30 8140 H 823.001 -2.98373 0.915428 0
M  V30 8141 N 823.302 -0.75937 -1.38099 0
M  V30 8142 C 824.549 -0.318113 -1.99986 0
M  V30 8143 C 824.877 1.10184 -1.6028 0
M  V30 8144 O 824.132 1.77015 -0.834524 0
M  V30 8145 C 824.431 -0.394999 -3.55211 0
M  V30 8146 C 824.097 -1.77143 -4.14646 0
M  V30 8147 C 822.759 -2.14811 -4.30592 0
M  V30 8148 C 825.111 -2.67407 -4.47373 0
M  V30 8149 C 822.439 -3.42203 -4.76565 0
M  V30 8150 C 824.791 -3.94196 -4.94765 0
M  V30 8151 C 823.455 -4.31925 -5.08918 0
M  V30 8152 H 822.725 -0.116406 -0.7318 0
M  V30 8153 H 825.372 -0.97098 -1.65058 0
M  V30 8154 H 823.677 0.341426 -3.9031 0
M  V30 8155 H 825.374 -0.0350722 -4.00985 0
M  V30 8156 H 821.964 -1.46864 -4.02652 0
M  V30 8157 H 826.148 -2.39569 -4.3465 0
M  V30 8158 H 821.404 -3.71346 -4.85708 0
M  V30 8159 H 825.578 -4.64276 -5.19057 0
M  V30 8160 H 823.205 -5.30699 -5.443 0
M  V30 8161 N 824.78 1.49157 -0.508906 0
M  V30 8162 C 825.712 2.272 0.302115 0
M  V30 8163 C 826.725 1.3407 0.923529 0
M  V30 8164 O 827.914 1.5929 0.805532 0
M  V30 8165 C 825.014 3.06736 1.44105 0
M  V30 8166 C 824.187 4.27497 0.925477 0
M  V30 8167 C 823.246 4.89014 1.94297 0
M  V30 8168 O 822.272 5.48851 1.50834 0
M  V30 8169 N 823.474 4.7937 3.2739 0
M  V30 8170 H 826.239 2.97443 -0.367115 0
M  V30 8171 H 823.8 1.58248 -0.341933 0
M  V30 8172 H 825.792 3.44763 2.11944 0
M  V30 8173 H 824.362 2.3905 2.0143 0
M  V30 8174 H 823.582 3.94135 0.0717301 0
M  V30 8175 H 824.87 5.05714 0.55955 0
M  V30 8176 H 824.268 4.31869 3.65384 0
M  V30 8177 H 822.825 5.21559 3.90922 0
M  V30 8178 N 826.258 0.243083 1.55714 0
M  V30 8179 C 827.504 -0.383287 1.99145 0
M  V30 8180 C 827.837 -1.57868 1.13098 0
M  V30 8181 O 827.112 -1.93535 0.193509 0
M  V30 8182 C 827.395 -0.796879 3.51172 0
M  V30 8183 C 827.248 0.403642 4.47985 0
M  V30 8184 C 828.567 -1.64525 4.08191 0
M  V30 8185 H 825.686 -0.137843 0.723995 0
M  V30 8186 H 828.328 0.343631 1.86867 0
M  V30 8187 H 826.478 -1.41625 3.61766 0
M  V30 8188 H 828.15 1.04204 4.49376 0
M  V30 8189 H 826.393 1.04741 4.20965 0
M  V30 8190 H 827.064 0.0709794 5.51954 0
M  V30 8191 H 829.54 -1.12246 4.00674 0
M  V30 8192 H 828.416 -1.9035 5.14838 0
M  V30 8193 H 828.677 -2.61582 3.56409 0
M  V30 8194 N 827.736 -1.57571 -0.0300757 0
M  V30 8195 C 829.152 -1.54869 -0.385703 0
M  V30 8196 C 829.352 -0.969068 -1.76667 0
M  V30 8197 O 828.408 -0.589676 -2.45518 0
M  V30 8198 C 829.721 -2.99313 -0.288482 0
M  V30 8199 C 831.269 -3.10857 -0.365638 0
M  V30 8200 C 831.744 -4.5703 -0.297878 0
M  V30 8201 N 833.235 -4.61825 -0.356703 0
M  V30 8202 C 833.97 -5.72466 -0.327146 0
M  V30 8203 N 833.466 -6.92349 -0.249941 0
M  V30 8204 N 835.259 -5.60836 -0.376801 0
M  V30 8205 H 827.41 -1.936 0.87367 0
M  V30 8206 H 829.673 -0.887924 0.332106 0
M  V30 8207 H 829.379 -3.45443 0.66047 0
M  V30 8208 H 829.253 -3.61332 -1.08253 0
M  V30 8209 H 831.64 -2.64676 -1.30502 0
M  V30 8210 H 831.721 -2.51671 0.457744 0
M  V30 8211 H 831.365 -5.03879 0.637835 0
M  V30 8212 H 831.295 -5.14127 -1.13935 0
M  V30 8213 H 833.786 -3.75571 -0.418926 0
M  V30 8214 H 834.099 -7.7245 -0.23246 0
M  V30 8215 H 832.444 -6.94664 -0.216004 0
M  V30 8216 H 835.635 -4.66073 -0.435101 0
M  V30 8217 H 835.808 -6.47052 -0.350298 0
M  V30 8218 N 829.214 0.302327 -1.54673 0
M  V30 8219 C 830.177 1.35592 -1.8479 0
M  V30 8220 C 831.177 1.43743 -0.72073 0
M  V30 8221 O 832.367 1.43402 -0.989017 0
M  V30 8222 C 829.499 2.74091 -2.02699 0
M  V30 8223 H 830.692 1.10132 -2.78946 0
M  V30 8224 H 828.245 0.538926 -1.46715 0
M  V30 8225 H 828.98 3.04775 -1.10826 0
M  V30 8226 H 828.765 2.69565 -2.8474 0
M  V30 8227 H 830.255 3.50272 -2.27374 0
M  V30 8228 N 830.692 1.47107 0.565454 0
M  V30 8229 C 832.108 1.32443 0.890566 0
M  V30 8230 C 832.308 0.308735 1.99121 0
M  V30 8231 O 831.364 -0.28265 2.50913 0
M  V30 8232 C 832.677 2.71548 1.2916 0
M  V30 8233 C 834.225 2.7977 1.40349 0
M  V30 8234 C 834.7 4.19497 1.83811 0
M  V30 8235 N 836.191 4.21998 1.90975 0
M  V30 8236 C 836.926 5.2702 2.25916 0
M  V30 8237 N 836.422 6.42353 2.59527 0
M  V30 8238 N 838.215 5.14393 2.26619 0
M  V30 8239 H 830.366 2.11786 -0.161328 0
M  V30 8240 H 832.629 0.947952 -0.00950631 0
M  V30 8241 H 832.335 3.47265 0.556753 0
M  V30 8242 H 832.209 3.02782 2.24951 0
M  V30 8243 H 834.596 2.0433 2.12916 0
M  V30 8244 H 834.677 2.522 0.427655 0
M  V30 8245 H 834.321 4.95439 1.11816 0
M  V30 8246 H 834.251 4.44486 2.82382 0
M  V30 8247 H 836.742 3.38791 1.6742 0
M  V30 8248 H 837.055 7.18252 2.85191 0
M  V30 8249 H 835.4 6.45687 2.57126 0
M  V30 8250 H 838.591 4.2332 1.99794 0
M  V30 8251 H 838.764 5.96349 2.5352 0
M  V30 8252 N 832.17 -0.811516 1.35101 0
M  V30 8253 C 833.398 -1.59981 1.31201 0
M  V30 8254 C 833.813 -1.8847 -0.111552 0
M  V30 8255 O 833.17 -1.48414 -1.06205 0
M  V30 8256 C 833.221 -2.934 2.11184 0
M  V30 8257 O 832.942 -2.66148 3.4799 0
M  V30 8258 C 834.443 -3.87776 2.14813 0
M  V30 8259 H 831.663 -0.496921 0.450899 0
M  V30 8260 H 834.207 -1.00886 1.77883 0
M  V30 8261 H 832.362 -3.49022 1.68115 0
M  V30 8262 H 832.776 -3.51301 3.89471 0
M  V30 8263 H 834.25 -4.7852 2.75178 0
M  V30 8264 H 834.727 -4.23997 1.14556 0
M  V30 8265 H 835.333 -3.3809 2.58022 0
M  V30 8266 N 833.648 -1.19017 -1.03309 0
M  V30 8267 C 834.611 -0.926076 -2.09658 0
M  V30 8268 C 835.611 0.0917077 -1.60538 0
M  V30 8269 O 836.801 -0.142574 -1.73616 0
M  V30 8270 C 833.933 -0.390958 -3.38651 0
M  V30 8271 H 835.126 -1.86923 -2.3452 0
M  V30 8272 H 832.679 -1.00325 -1.19853 0
M  V30 8273 H 833.414 0.558446 -3.19456 0
M  V30 8274 H 833.199 -1.12474 -3.75622 0
M  V30 8275 H 834.689 -0.225131 -4.16993 0
M  V30 8276 N 835.127 1.22348 -0.993418 0
M  V30 8277 C 836.09 2.22522 -0.549251 0
M  V30 8278 C 837.09 1.56529 0.368164 0
M  V30 8279 O 838.28 1.73463 0.16005 0
M  V30 8280 C 835.412 3.40307 0.201037 0
M  V30 8281 H 836.605 2.63332 -1.43515 0
M  V30 8282 H 834.158 1.35407 -0.78068 0
M  V30 8283 H 834.893 3.0497 1.10289 0
M  V30 8284 H 834.678 3.8942 -0.457685 0
M  V30 8285 H 836.168 4.14597 0.499946 0
M  V30 8286 N 836.605 0.766683 1.37694 0
M  V30 8287 C 837.853 0.328065 1.9942 0
M  V30 8288 C 838.174 -1.09775 1.61166 0
M  V30 8289 O 837.444 -1.75288 0.874686 0
M  V30 8290 H 836.024 0.11831 0.737572 0
M  V30 8291 H 838.686 0.983686 1.68255 0
M  V30 8292 H 837.782 0.401647 3.09505 0
M  V30 8293 N 838.083 -1.48885 0.516809 0
M  V30 8294 C 839.033 -2.26363 -0.272704 0
M  V30 8295 C 840.017 -1.31891 -0.921604 0
M  V30 8296 O 841.209 -1.56514 -0.826589 0
M  V30 8297 C 838.338 -3.16614 -1.32705 0
M  V30 8298 C 837.424 -4.18554 -0.683598 0
M  V30 8299 N 837.815 -5.05308 0.223015 0
M  V30 8300 C 836.113 -4.35931 -0.942351 0
M  V30 8301 C 836.814 -5.7867 0.592918 0
M  V30 8302 N 835.79 -5.43583 -0.042912 0
M  V30 8303 H 839.592 -2.90811 0.424971 0
M  V30 8304 H 837.106 -1.5893 0.333941 0
M  V30 8305 H 839.103 -3.70766 -1.90625 0
M  V30 8306 H 837.763 -2.5372 -2.02624 0
M  V30 8307 H 838.774 -5.14473 0.594818 0
M  V30 8308 H 835.451 -3.84234 -1.6331 0
M  V30 8309 H 836.841 -6.58493 1.33556 0
M  V30 8310 N 839.561 -0.251338 -1.55583 0
M  V30 8311 C 840.809 0.371434 -1.98657 0
M  V30 8312 C 841.13 1.58143 -1.14087 0
M  V30 8313 O 840.4 1.94607 -0.224708 0
M  V30 8314 H 838.98 0.140225 -0.733721 0
M  V30 8315 H 841.642 -0.351157 -1.9171 0
M  V30 8316 H 840.738 0.677554 -3.04657 0
M  V30 8317 N 841.039 1.57585 0.0217189 0
M  V30 8318 C 842.45 1.7787 0.567377 0
M  V30 8319 C 842.801 0.883337 1.7519 0
M  V30 8320 O 841.926 0.0800819 2.16252 0
M  V30 8321 C 842.521 3.2257 1.03606 0
M  V30 8322 C 841.08 3.44026 1.52718 0
M  V30 8323 C 840.227 2.73313 0.468545 0
M  V30 8324 H 843.178 1.57377 -0.2045 0
M  V30 8325 H 843.199 3.29488 1.9031 0
M  V30 8326 H 842.711 3.87711 0.173739 0
M  V30 8327 H 840.812 2.8407 2.41111 0
M  V30 8328 H 840.925 4.52659 1.56962 0
M  V30 8329 H 839.289 2.37299 0.925263 0
M  V30 8330 H 840.072 3.41141 -0.384438 0
M  V30 8331 N 842.517 -0.29412 1.54831 0
M  V30 8332 C 843.747 -1.04572 1.7818 0
M  V30 8333 C 844.155 -1.81187 0.544776 0
M  V30 8334 O 843.498 -1.769 -0.495169 0
M  V30 8335 C 843.56 -2.06748 2.94101 0
M  V30 8336 C 843.224 -1.49265 4.31936 0
M  V30 8337 C 844.221 -0.919136 5.11711 0
M  V30 8338 C 841.906 -1.52621 4.78552 0
M  V30 8339 C 843.9 -0.386824 6.36225 0
M  V30 8340 C 841.587 -0.990031 6.03027 0
M  V30 8341 C 842.585 -0.421315 6.81699 0
M  V30 8342 O 842.273 0.106713 8.03829 0
M  V30 8343 H 842.005 -0.31559 0.597812 0
M  V30 8344 H 844.559 -0.336817 2.0262 0
M  V30 8345 H 842.789 -2.81339 2.65303 0
M  V30 8346 H 844.478 -2.67865 3.04964 0
M  V30 8347 H 845.244 -0.886062 4.76837 0
M  V30 8348 H 841.123 -1.95826 4.17341 0
M  V30 8349 H 844.667 0.0577248 6.97576 0
M  V30 8350 H 840.564 -1.02027 6.37386 0
M  V30 8351 H 841.332 -0.00593526 8.185 0
M  V30 8352 N 843.995 -1.47404 -0.557645 0
M  V30 8353 C 845.243 -1.53703 -1.31224 0
M  V30 8354 C 845.564 -0.200742 -1.93964 0
M  V30 8355 O 844.834 0.775253 -1.79907 0
M  V30 8356 H 843.414 -0.566171 -0.487299 0
M  V30 8357 H 846.076 -1.83699 -0.651195 0
M  V30 8358 H 845.172 -2.30335 -2.10599 0
M  V30 8359 N 845.473 0.80434 -1.35529 0
M  V30 8360 C 846.721 1.55845 -1.28673 0
M  V30 8361 C 847.042 1.94511 0.137976 0
M  V30 8362 O 846.312 1.63775 1.07492 0
M  V30 8363 H 844.892 0.577931 -0.473291 0
M  V30 8364 H 847.554 0.959293 -1.69657 0
M  V30 8365 H 846.65 2.47285 -1.90411 0
M  V30 8366 N 846.951 1.19563 1.02676 0
M  V30 8367 C 847.898 0.935291 2.11 0
M  V30 8368 C 848.868 -0.130685 1.65585 0
M  V30 8369 O 850.053 0.0119062 1.90796 0
M  V30 8370 C 847.193 0.482384 3.41712 0
M  V30 8371 C 846.306 1.61537 4.00662 0
M  V30 8372 C 845.441 1.11378 5.19392 0
M  V30 8373 C 844.48 2.22052 5.70403 0
M  V30 8374 N 843.617 1.73185 6.80405 0
M  V30 8375 H 848.457 1.86275 2.32606 0
M  V30 8376 H 845.994 0.928656 1.14081 0
M  V30 8377 H 847.952 0.20118 4.16715 0
M  V30 8378 H 846.582 -0.408086 3.2021 0
M  V30 8379 H 845.634 2.01173 3.22852 0
M  V30 8380 H 846.946 2.44912 4.34534 0
M  V30 8381 H 846.1 0.787935 6.01562 0
M  V30 8382 H 844.839 0.249789 4.8706 0
M  V30 8383 H 843.844 2.55465 4.86845 0
M  V30 8384 H 845.069 3.08911 6.04774 0
M  V30 8385 H 843.015 0.890973 6.49921 0
M  V30 8386 H 842.932 2.50148 7.13416 0
M  V30 8387 H 844.2 1.4357 7.66164 0
M  V30 8388 N 848.429 -1.21819 0.999893 0
M  V30 8389 C 849.675 -1.91035 0.680701 0
M  V30 8390 C 850.008 -1.77582 -0.786021 0
M  V30 8391 O 849.283 -1.14917 -1.56921 0
M  V30 8392 C 849.566 -3.43013 1.0961 0
M  V30 8393 C 849.419 -3.65481 2.6219 0
M  V30 8394 C 850.738 -4.35204 0.654616 0
M  V30 8395 H 847.857 -0.693748 0.248763 0
M  V30 8396 H 850.499 -1.43555 1.24466 0
M  V30 8397 H 848.649 -3.83581 0.616253 0
M  V30 8398 H 850.321 -3.34273 3.17899 0
M  V30 8399 H 848.564 -3.09522 3.03938 0
M  V30 8400 H 849.235 -4.71945 2.86307 0
M  V30 8401 H 851.711 -4.0219 1.06688 0
M  V30 8402 H 850.587 -5.40198 0.973492 0
M  V30 8403 H 850.848 -4.3986 -0.444458 0
M  V30 8404 N 849.908 -0.773975 -1.37286 0
M  V30 8405 C 851.138 -0.350249 -2.03609 0
M  V30 8406 C 851.546 1.03313 -1.58502 0
M  V30 8407 O 850.889 1.67118 -0.7627 0
M  V30 8408 C 850.951 -0.317215 -3.58098 0
M  V30 8409 C 850.615 -1.64556 -4.26345 0
M  V30 8410 C 851.612 -2.59839 -4.50311 0
M  V30 8411 C 849.297 -1.92061 -4.64131 0
M  V30 8412 C 851.291 -3.80833 -5.11122 0
M  V30 8413 C 848.978 -3.13325 -5.24663 0
M  V30 8414 C 849.976 -4.0753 -5.48095 0
M  V30 8415 O 849.664 -5.26658 -6.0736 0
M  V30 8416 H 849.396 -0.144456 -0.660385 0
M  V30 8417 H 851.95 -1.0496 -1.76557 0
M  V30 8418 H 850.18 0.438528 -3.84205 0
M  V30 8419 H 851.869 0.0797428 -4.05822 0
M  V30 8420 H 852.635 -2.39872 -4.21529 0
M  V30 8421 H 848.514 -1.19562 -4.45226 0
M  V30 8422 H 852.058 -4.54377 -5.29327 0
M  V30 8423 H 847.955 -3.33177 -5.52869 0
M  V30 8424 H 848.723 -5.27513 -6.25837 0
M  V30 8425 N 851.386 1.48609 -0.524698 0
M  V30 8426 C 852.633 2.02497 0.0113214 0
M  V30 8427 C 852.961 1.40229 1.34781 0
M  V30 8428 O 852.216 0.53557 1.88229 0
M  V30 8429 C 852.515 3.56906 0.187873 0
M  V30 8430 C 852.181 4.37932 -1.07359 0
M  V30 8431 C 850.843 4.59792 -1.41933 0
M  V30 8432 C 853.195 4.84902 -1.911 0
M  V30 8433 C 850.523 5.25868 -2.60154 0
M  V30 8434 C 852.875 5.52281 -3.08495 0
M  V30 8435 C 851.539 5.7238 -3.4342 0
M  V30 8436 H 850.809 0.740988 0.0041428 0
M  V30 8437 H 853.456 1.78651 -0.689652 0
M  V30 8438 H 851.761 3.79563 0.971572 0
M  V30 8439 H 853.458 3.96218 0.617443 0
M  V30 8440 H 850.048 4.21175 -0.794331 0
M  V30 8441 H 854.232 4.67821 -1.65701 0
M  V30 8442 H 849.488 5.39628 -2.87422 0
M  V30 8443 H 853.662 5.87645 -3.73692 0
M  V30 8444 H 851.289 6.23354 -4.35126 0
M  V30 8445 N 852.864 0.259585 1.55447 0
M  V30 8446 C 853.796 -0.667548 2.19263 0
M  V30 8447 C 854.809 -1.12925 1.17268 0
M  V30 8448 O 855.998 -1.05384 1.44071 0
M  V30 8449 C 853.098 -1.92066 2.7922 0
M  V30 8450 C 852.271 -1.60832 4.06758 0
M  V30 8451 C 851.33 -2.71231 4.50911 0
M  V30 8452 O 850.356 -2.38077 5.17019 0
M  V30 8453 N 851.558 -4.00984 4.19752 0
M  V30 8454 H 854.323 -0.121449 2.99454 0
M  V30 8455 H 851.884 0.0800519 1.61702 0
M  V30 8456 H 853.876 -2.65186 3.0571 0
M  V30 8457 H 852.446 -2.37621 2.03113 0
M  V30 8458 H 851.666 -0.711685 3.87722 0
M  V30 8459 H 852.954 -1.37445 4.89884 0
M  V30 8460 H 852.352 -4.30748 3.66706 0
M  V30 8461 H 850.909 -4.7053 4.51048 0
M  V30 8462 N 854.342 -1.57594 -0.0133615 0
M  V30 8463 C 855.57 -1.94251 -0.712328 0
M  V30 8464 C 855.985 -0.86063 -1.68043 0
M  V30 8465 O 855.342 0.161632 -1.81783 0
M  V30 8466 C 855.393 -3.30891 -1.45581 0
M  V30 8467 O 855.114 -4.34924 -0.526539 0
M  V30 8468 C 856.615 -3.81926 -2.2505 0
M  V30 8469 H 853.835 -0.640737 -0.199241 0
M  V30 8470 H 856.379 -2.04472 0.0337855 0
M  V30 8471 H 854.534 -3.22019 -2.15366 0
M  V30 8472 H 854.948 -5.1389 -1.04962 0
M  V30 8473 H 856.422 -4.79999 -2.72589 0
M  V30 8474 H 856.899 -3.13934 -3.07152 0
M  V30 8475 H 857.505 -3.93931 -1.60308 0
M  V30 8476 N 855.82 0.285905 -1.54985 0
M  V30 8477 C 856.75 1.35752 -1.89983 0
M  V30 8478 C 857.731 1.52163 -0.760295 0
M  V30 8479 O 858.916 1.65421 -1.01733 0
M  V30 8480 C 856.046 2.71925 -2.16042 0
M  V30 8481 C 855 2.70261 -3.31878 0
M  V30 8482 C 854.326 4.09864 -3.43388 0
M  V30 8483 C 855.626 2.30667 -4.68604 0
M  V30 8484 H 857.32 1.06709 -2.79738 0
M  V30 8485 H 854.866 0.511884 -1.34595 0
M  V30 8486 H 856.819 3.46992 -2.39113 0
M  V30 8487 H 855.543 3.02523 -1.23074 0
M  V30 8488 H 854.202 1.97651 -3.08755 0
M  V30 8489 H 853.85 4.37664 -2.47909 0
M  V30 8490 H 853.55 4.09648 -4.21262 0
M  V30 8491 H 855.074 4.86689 -3.68736 0
M  V30 8492 H 856.488 2.95453 -4.91305 0
M  V30 8493 H 854.885 2.41637 -5.49301 0
M  V30 8494 H 855.955 1.25793 -4.68299 0
M  V30 8495 N 857.298 1.47698 0.54982 0
M  V30 8496 C 858.709 1.48474 1.13191 0
M  V30 8497 C 859.06 0.243504 1.94683 0
M  V30 8498 O 858.185 -0.651009 2.06375 0
M  V30 8499 C 858.78 2.69022 2.05944 0
M  V30 8500 C 857.339 2.72733 2.5941 0
M  V30 8501 C 856.486 2.41691 1.35944 0
M  V30 8502 H 859.437 1.55101 0.336048 0
M  V30 8503 H 859.458 2.46412 2.89934 0
M  V30 8504 H 858.97 3.59345 1.46605 0
M  V30 8505 H 857.071 1.86568 3.22526 0
M  V30 8506 H 857.184 3.73628 2.99899 0
M  V30 8507 H 855.548 1.92428 1.66864 0
M  V30 8508 H 856.331 3.34231 0.783869 0
M  V30 8509 N 858.776 -0.797141 1.35954 0
M  V30 8510 C 859.708 -1.91782 1.25509 0
M  V30 8511 C 860.721 -1.61843 0.176271 0
M  V30 8512 O 861.91 -1.73235 0.430343 0
M  V30 8513 C 859.01 -3.26396 0.912073 0
M  V30 8514 C 858.183 -3.84171 2.0912 0
M  V30 8515 C 857.242 -4.9721 1.72246 0
M  V30 8516 O 856.268 -5.14136 2.44239 0
M  V30 8517 N 857.47 -5.76831 0.651611 0
M  V30 8518 H 860.235 -2.01266 2.22063 0
M  V30 8519 H 857.796 -0.975033 1.29247 0
M  V30 8520 H 859.788 -3.99499 0.646707 0
M  V30 8521 H 858.358 -3.12579 0.0359079 0
M  V30 8522 H 857.578 -3.03148 2.51982 0
M  V30 8523 H 858.866 -4.19503 2.87914 0
M  V30 8524 H 858.264 -5.65675 0.0536678 0
M  V30 8525 H 856.821 -6.50272 0.44605 0
M  V30 8526 N 860.254 -1.20106 -1.0204 0
M  V30 8527 C 861.502 -1.0069 -1.75231 0
M  V30 8528 C 861.823 0.462491 -1.89436 0
M  V30 8529 O 861.093 1.33455 -1.4341 0
M  V30 8530 H 859.673 -0.369576 -0.649171 0
M  V30 8531 H 862.335 -1.51149 -1.23044 0
M  V30 8532 H 861.431 -1.46205 -2.75736 0
M  V30 8533 N 861.732 1.21287 -1.00634 0
M  V30 8534 C 862.642 2.27388 -0.577226 0
M  V30 8535 C 863.658 1.69791 0.380399 0
M  V30 8536 O 864.834 1.99918 0.2439 0
M  V30 8537 C 861.899 3.46588 0.0880532 0
M  V30 8538 C 860.96 4.19453 -0.914222 0
M  V30 8539 C 860.193 5.32962 -0.280596 0
M  V30 8540 O 860.416 5.62895 0.922265 0
M  V30 8541 O 859.35 5.93666 -0.992196 0
M  V30 8542 H 863.176 2.66289 -1.46028 0
M  V30 8543 H 860.761 1.2771 -0.775283 0
M  V30 8544 H 862.643 4.18881 0.460094 0
M  V30 8545 H 861.318 3.09585 0.945461 0
M  V30 8546 H 860.225 3.49376 -1.33744 0
M  V30 8547 H 861.558 4.6037 -1.74126 0
M  V30 8548 N 863.21 0.781244 1.36873 0
M  V30 8549 C 864.14 0.188128 2.32741 0
M  V30 8550 C 865.121 -0.672326 1.56249 0
M  V30 8551 O 866.306 -0.607835 1.84442 0
M  V30 8552 C 863.436 -0.684341 3.40491 0
M  V30 8553 C 862.39 0.0755641 4.27933 0
M  V30 8554 C 861.716 -0.916968 5.26779 0
M  V30 8555 C 863.016 1.26006 5.06873 0
M  V30 8556 H 864.71 0.989016 2.82593 0
M  V30 8557 H 862.256 0.477038 1.35869 0
M  V30 8558 H 864.209 -1.10915 4.06541 0
M  V30 8559 H 862.933 -1.51785 2.89187 0
M  V30 8560 H 861.592 0.481258 3.63427 0
M  V30 8561 H 861.24 -1.74528 4.71751 0
M  V30 8562 H 860.94 -0.413 5.86147 0
M  V30 8563 H 862.464 -1.34052 5.95703 0
M  V30 8564 H 863.878 0.911425 5.66009 0
M  V30 8565 H 862.275 1.69676 5.75613 0
M  V30 8566 H 863.345 2.05948 4.38991 0
M  V30 8567 N 864.689 -1.48329 0.532571 0
M  V30 8568 C 865.914 -2.074 0.00147755 0
M  V30 8569 C 866.339 -1.38615 -1.27151 0
M  V30 8570 O 865.697 -0.452949 -1.75551 0
M  V30 8571 C 865.745 -3.60029 -0.202866 0
M  V30 8572 O 864.849 -3.92327 -1.27097 0
M  V30 8573 H 864.19 -0.662777 0.0402883 0
M  V30 8574 H 866.72 -1.90701 0.741224 0
M  V30 8575 H 866.73 -4.05783 -0.424722 0
M  V30 8576 H 865.405 -4.09496 0.727033 0
M  V30 8577 H 863.982 -3.58348 -1.03156 0
M  V30 8578 N 866.167 -0.267825 -1.55308 0
M  V30 8579 C 867.392 0.357487 -2.04296 0
M  V30 8580 C 867.817 1.49222 -1.14518 0
M  V30 8581 O 867.175 1.80741 -0.142292 0
M  V30 8582 C 867.223 0.822899 -3.51085 0
M  V30 8583 O 866.327 1.93078 -3.6441 0
M  V30 8584 H 865.668 0.075025 -0.659748 0
M  V30 8585 H 868.198 -0.399996 -2.00652 0
M  V30 8586 H 868.208 1.12059 -3.92309 0
M  V30 8587 H 866.883 -0.0073562 -4.15899 0
M  V30 8588 H 865.46 1.63618 -3.35087 0
M  V30 8589 N 867.645 1.57599 0.00500368 0
M  V30 8590 C 868.577 2.04949 1.02609 0
M  V30 8591 C 869.59 0.966507 1.31006 0
M  V30 8592 O 870.779 1.2434 1.2807 0
M  V30 8593 C 867.879 2.43023 2.36206 0
M  V30 8594 C 867.052 3.73993 2.26821 0
M  V30 8595 C 866.111 3.9899 3.43065 0
M  V30 8596 O 865.137 4.69725 3.21477 0
M  V30 8597 N 866.339 3.46496 4.65748 0
M  V30 8598 H 869.104 2.93167 0.622336 0
M  V30 8599 H 866.665 1.60752 0.192488 0
M  V30 8600 H 868.657 2.56863 3.12735 0
M  V30 8601 H 867.227 1.60349 2.68341 0
M  V30 8602 H 866.447 3.70277 1.35235 0
M  V30 8603 H 867.735 4.59865 2.17719 0
M  V30 8604 H 867.133 2.89206 4.86186 0
M  V30 8605 H 865.69 3.65675 5.3956 0
M  V30 8606 N 869.123 -0.277682 1.55134 0
M  V30 8607 C 870.053 -1.34742 1.90701 0
M  V30 8608 C 871.034 -1.51757 0.768354 0
M  V30 8609 O 872.219 -1.64879 1.02609 0
M  V30 8610 C 869.349 -2.70775 2.17481 0
M  V30 8611 C 868.303 -2.68497 3.33307 0
M  V30 8612 C 867.629 -4.08037 3.45557 0
M  V30 8613 C 868.929 -2.28178 4.69821 0
M  V30 8614 H 870.623 -1.05224 2.803 0
M  V30 8615 H 868.169 -0.504738 1.34864 0
M  V30 8616 H 870.122 -3.45719 2.40949 0
M  V30 8617 H 868.846 -3.01867 1.24676 0
M  V30 8618 H 867.505 -1.9601 3.09799 0
M  V30 8619 H 867.153 -4.36344 2.50226 0
M  V30 8620 H 866.853 -4.07409 4.23429 0
M  V30 8621 H 868.377 -4.84726 3.71312 0
M  V30 8622 H 869.791 -2.92843 4.92865 0
M  V30 8623 H 868.188 -2.3872 5.50575 0
M  V30 8624 H 869.258 -1.23308 4.6896 0
M  V30 8625 N 870.601 -1.47988 -0.541979 0
M  V30 8626 C 872.012 -1.49073 -1.12402 0
M  V30 8627 C 872.363 -0.253825 -1.94551 0
M  V30 8628 O 871.488 0.640056 -2.06718 0
M  V30 8629 C 872.083 -2.7011 -2.04514 0
M  V30 8630 C 870.642 -2.74105 -2.5796 0
M  V30 8631 C 869.789 -2.42409 -1.3466 0
M  V30 8632 H 872.74 -1.55277 -0.327818 0
M  V30 8633 H 872.761 -2.47946 -2.88623 0
M  V30 8634 H 872.273 -3.60117 -1.44697 0
M  V30 8635 H 870.374 -1.88276 -3.21532 0
M  V30 8636 H 870.487 -3.75213 -2.97913 0
M  V30 8637 H 868.851 -1.9331 -1.65841 0
M  V30 8638 H 869.634 -3.34642 -0.766133 0
M  V30 8639 N 872.079 0.78992 -1.36375 0
M  V30 8640 C 872.989 1.93386 -1.32812 0
M  V30 8641 C 874.005 1.72468 -0.230377 0
M  V30 8642 O 875.181 1.96014 -0.462657 0
M  V30 8643 C 872.246 3.2824 -1.11621 0
M  V30 8644 C 871.307 3.61939 -2.30865 0
M  V30 8645 C 870.54 4.90359 -2.10675 0
M  V30 8646 O 870.763 5.6005 -1.08168 0
M  V30 8647 O 869.697 5.22702 -2.9844 0
M  V30 8648 H 873.523 1.99342 -2.29121 0
M  V30 8649 H 871.108 0.9301 -1.16917 0
M  V30 8650 H 872.99 4.08939 -1.01719 0
M  V30 8651 H 871.665 3.23178 -0.183732 0
M  V30 8652 H 870.572 2.81549 -2.46335 0
M  V30 8653 H 871.905 3.71725 -3.22617 0
M  V30 8654 N 873.557 1.20646 1.01402 0
M  V30 8655 C 874.973 0.961866 1.27359 0
M  V30 8656 C 875.173 -0.357083 1.98311 0
M  V30 8657 O 874.229 -1.08498 2.28001 0
M  V30 8658 C 875.542 2.14627 2.10609 0
M  V30 8659 C 877.09 2.18753 2.23866 0
M  V30 8660 C 877.565 3.36686 3.10494 0
M  V30 8661 N 879.056 3.36716 3.18083 0
M  V30 8662 C 879.791 4.24615 3.85343 0
M  V30 8663 N 879.287 5.22697 4.54708 0
M  V30 8664 N 881.08 4.12449 3.81893 0
M  V30 8665 H 873.231 2.05481 0.537721 0
M  V30 8666 H 875.494 0.899292 0.299963 0
M  V30 8667 H 875.2 3.10159 1.65814 0
M  V30 8668 H 875.074 2.12935 3.11349 0
M  V30 8669 H 877.461 1.23782 2.67885 0
M  V30 8670 H 877.542 2.24492 1.22626 0
M  V30 8671 H 877.186 4.31945 2.67181 0
M  V30 8672 H 877.116 3.28185 4.11828 0
M  V30 8673 H 879.607 2.65728 2.68695 0
M  V30 8674 H 879.92 5.86087 5.03708 0
M  V30 8675 H 878.265 5.26631 4.53525 0
M  V30 8676 H 881.456 3.35091 3.26851 0
M  V30 8677 H 881.629 4.81162 4.34035 0
M  V30 8678 N 875.035 -1.20752 1.01276 0
M  V30 8679 C 875.965 -2.25658 0.600064 0
M  V30 8680 C 876.946 -1.65733 -0.38298 0
M  V30 8681 O 878.131 -1.92324 -0.269256 0
M  V30 8682 C 875.261 -3.47237 -0.0663197 0
M  V30 8683 C 874.215 -4.1973 0.83731 0
M  V30 8684 C 873.541 -5.34687 0.0369102 0
M  V30 8685 C 874.841 -4.76286 2.14357 0
M  V30 8686 H 876.535 -2.60432 1.477 0
M  V30 8687 H 874.081 -1.25187 0.711634 0
M  V30 8688 H 876.034 -4.19803 -0.366563 0
M  V30 8689 H 874.758 -3.11615 -0.977944 0
M  V30 8690 H 873.417 -3.49024 1.1215 0
M  V30 8691 H 873.065 -4.95309 -0.876244 0
M  V30 8692 H 872.765 -5.84119 0.63865 0
M  V30 8693 H 874.289 -6.10059 -0.256968 0
M  V30 8694 H 875.703 -5.40691 1.90595 0
M  V30 8695 H 874.1 -5.36139 2.69583 0
M  V30 8696 H 875.17 -3.9524 2.80916 0
M  V30 8697 N 876.513 -0.788492 -1.36457 0
M  V30 8698 C 877.738 -0.371224 -2.04051 0
M  V30 8699 C 878.163 1.004 -1.59064 0
M  V30 8700 O 877.521 1.64663 -0.758679 0
M  V30 8701 C 877.569 -0.442275 -3.57877 0
M  V30 8702 O 876.673 0.55113 -4.08701 0
M  V30 8703 H 876.014 -0.157808 -0.644975 0
M  V30 8704 H 878.544 -1.06935 -1.74431 0
M  V30 8705 H 878.554 -0.305548 -4.06854 0
M  V30 8706 H 877.229 -1.44547 -3.89973 0
M  V30 8707 H 875.806 0.37614 -3.70998 0
M  V30 8708 N 877.991 1.48044 -0.54043 0
M  V30 8709 C 878.921 2.32597 0.205178 0
M  V30 8710 C 879.902 1.42748 0.925041 0
M  V30 8711 O 881.087 1.71624 0.908784 0
M  V30 8712 C 878.217 3.24175 1.24612 0
M  V30 8713 C 877.171 4.23131 0.64376 0
M  V30 8714 C 876.497 5.03915 1.78812 0
M  V30 8715 C 877.797 5.20831 -0.39144 0
M  V30 8716 H 879.491 2.95184 -0.500676 0
M  V30 8717 H 877.037 1.41948 -0.242225 0
M  V30 8718 H 878.99 3.82158 1.77576 0
M  V30 8719 H 877.714 2.59608 1.98169 0
M  V30 8720 H 876.373 3.66349 0.135554 0
M  V30 8721 H 876.021 4.35765 2.51232 0
M  V30 8722 H 875.721 5.709 1.39094 0
M  V30 8723 H 877.245 5.64753 2.32134 0
M  V30 8724 H 878.659 5.73277 0.0515064 0
M  V30 8725 H 877.056 5.95926 -0.706569 0
M  V30 8726 H 878.126 4.6733 -1.29345 0
M  V30 8727 N 879.47 0.276058 1.55163 0
M  V30 8728 C 880.716 -0.340959 1.99913 0
M  V30 8729 C 881.049 -1.55434 1.16422 0
M  V30 8730 O 880.324 -1.93081 0.234517 0
M  V30 8731 C 880.607 -0.722211 3.52783 0
M  V30 8732 C 880.46 0.498575 4.47028 0
M  V30 8733 C 881.779 -1.5583 4.11589 0
M  V30 8734 H 878.898 -0.122455 0.726756 0
M  V30 8735 H 881.54 0.38319 1.86096 0
M  V30 8736 H 879.69 -1.33919 3.64689 0
M  V30 8737 H 881.362 1.13713 4.47065 0
M  V30 8738 H 879.605 1.13646 4.18649 0
M  V30 8739 H 880.276 0.188041 5.5168 0
M  V30 8740 H 882.752 -1.03722 4.02965 0
M  V30 8741 H 881.628 -1.79387 5.1876 0
M  V30 8742 H 881.889 -2.53963 3.61877 0
M  V30 8743 N 880.948 -1.576 0.00335426 0
M  V30 8744 C 882.197 -1.89892 -0.680001 0
M  V30 8745 C 882.51 -0.878731 -1.7475 0
M  V30 8746 O 883.716 -1.09199 -2.48572 0
M  V30 8747 C 882.172 -3.37098 -1.26066 0
M  V30 8748 C 881.78 -4.4742 -0.227807 0
M  V30 8749 C 883.524 -3.78495 -1.92202 0
M  V30 8750 C 881.431 -5.85706 -0.81865 0
M  V30 8751 H 880.361 -0.708578 -0.257746 0
M  V30 8752 H 883.012 -1.83387 0.0644472 0
M  V30 8753 H 881.394 -3.38451 -2.05589 0
M  V30 8754 H 882.568 -4.57589 0.54307 0
M  V30 8755 H 880.883 -4.15064 0.333297 0
M  V30 8756 H 883.48 -4.7915 -2.37318 0
M  V30 8757 H 883.823 -3.12187 -2.75399 0
M  V30 8758 H 884.356 -3.79456 -1.19408 0
M  V30 8759 H 881.095 -6.55495 -0.0253787 0
M  V30 8760 H 880.615 -5.79196 -1.55861 0
M  V30 8761 H 882.294 -6.33469 -1.31627 0
M  V30 8762 N 882.426 0.269451 -1.5528 0
M  V30 8763 C 883.674 0.998604 -1.75705 0
M  V30 8764 C 883.995 1.86691 -0.563175 0
M  V30 8765 O 883.265 1.91305 0.421811 0
M  V30 8766 H 881.845 0.371698 -0.647958 0
M  V30 8767 H 884.507 0.292826 -1.92688 0
M  V30 8768 H 883.603 1.63348 -2.6594 0
M  V30 8769 N 883.904 1.48273 0.534124 0
M  V30 8770 C 885.129 1.59988 1.31979 0
M  V30 8771 C 885.554 0.258824 1.86311 0
M  V30 8772 O 884.912 -0.768885 1.64188 0
M  V30 8773 C 884.96 2.64642 2.44943 0
M  V30 8774 O 884.064 2.21515 3.47858 0
M  V30 8775 H 883.405 0.536625 0.391063 0
M  V30 8776 H 885.935 1.94229 0.643135 0
M  V30 8777 H 885.945 2.85786 2.91187 0
M  V30 8778 H 884.62 3.62004 2.04758 0
M  V30 8779 H 883.197 2.10567 3.0776 0
M  V30 8780 N 885.382 -0.782676 1.36792 0
M  V30 8781 C 886.631 -1.53605 1.30723 0
M  V30 8782 C 886.944 -1.95294 -0.109296 0
M  V30 8783 O 888.15 -2.69921 -0.292398 0
M  V30 8784 C 886.606 -2.77321 2.29393 0
M  V30 8785 C 886.214 -2.42774 3.76517 0
M  V30 8786 C 887.958 -3.55289 2.32314 0
M  V30 8787 C 885.865 -3.62926 4.66947 0
M  V30 8788 H 884.795 -0.576646 0.485794 0
M  V30 8789 H 887.446 -0.858255 1.62192 0
M  V30 8790 H 885.828 -3.46934 1.90927 0
M  V30 8791 H 887.002 -1.81014 4.23758 0
M  V30 8792 H 885.317 -1.78002 3.76436 0
M  V30 8793 H 887.914 -4.44573 2.97083 0
M  V30 8794 H 888.257 -3.94361 1.3336 0
M  V30 8795 H 888.79 -2.92662 2.69432 0
M  V30 8796 H 885.529 -3.28944 5.66989 0
M  V30 8797 H 885.049 -4.23828 4.24418 0
M  V30 8798 H 886.728 -4.29873 4.83548 0
M  V30 8799 N 886.86 -1.21182 -1.00761 0
M  V30 8800 C 887.79 -0.992773 -2.11344 0
M  V30 8801 C 888.771 0.0813618 -1.69905 0
M  V30 8802 O 889.956 -0.0779503 -1.94043 0
M  V30 8803 C 887.086 -0.553826 -3.42856 0
M  V30 8804 C 886.04 -1.57223 -3.98077 0
M  V30 8805 C 885.366 -0.989605 -5.25463 0
M  V30 8806 C 886.666 -2.95839 -4.30438 0
M  V30 8807 H 888.36 -1.91766 -2.29927 0
M  V30 8808 H 885.906 -0.923426 -1.10494 0
M  V30 8809 H 887.859 -0.387771 -4.19612 0
M  V30 8810 H 886.583 0.406702 -3.24058 0
M  V30 8811 H 885.242 -1.7258 -3.23437 0
M  V30 8812 H 884.89 -0.0208743 -5.02996 0
M  V30 8813 H 884.59 -1.66984 -5.63374 0
M  V30 8814 H 886.114 -0.834815 -6.04866 0
M  V30 8815 H 887.528 -2.8394 -4.98047 0
M  V30 8816 H 885.925 -3.60851 -4.79486 0
M  V30 8817 H 886.995 -3.46882 -3.38823 0
M  V30 8818 N 888.338 1.20213 -1.01915 0
M  V30 8819 C 889.586 1.89272 -0.708552 0
M  V30 8820 C 889.907 1.79394 0.76438 0
M  V30 8821 O 889.177 1.198 1.54999 0
M  V30 8822 H 887.757 0.700628 -0.259094 0
M  V30 8823 H 890.419 1.45985 -1.29129 0
M  V30 8824 H 889.515 2.95841 -0.994215 0
M  V30 8825 N 889.816 0.795718 1.36037 0
M  V30 8826 C 890.779 0.204318 2.28287 0
M  V30 8827 C 891.779 -0.602017 1.49105 0
M  V30 8828 O 892.969 -0.422089 1.69009 0
M  V30 8829 C 890.101 -0.716431 3.33287 0
M  V30 8830 H 891.294 1.01781 2.821 0
M  V30 8831 H 888.847 0.565588 1.45708 0
M  V30 8832 H 889.582 -1.55403 2.84641 0
M  V30 8833 H 889.367 -0.140096 3.9185 0
M  V30 8834 H 890.857 -1.12488 4.02164 0
M  V30 8835 N 891.294 -1.47756 0.548274 0
M  V30 8836 C 892.224 -2.32702 -0.19284 0
M  V30 8837 C 893.205 -1.43237 -0.917457 0
M  V30 8838 O 894.39 -1.72103 -0.89967 0
M  V30 8839 C 891.52 -3.24831 -1.22891 0
M  V30 8840 C 890.474 -4.23466 -0.621312 0
M  V30 8841 C 889.8 -5.04856 -1.76137 0
M  V30 8842 C 891.1 -5.20616 0.419055 0
M  V30 8843 H 892.794 -2.94914 0.516323 0
M  V30 8844 H 890.34 -1.41818 0.24975 0
M  V30 8845 H 892.293 -3.83094 -1.75547 0
M  V30 8846 H 891.017 -2.60656 -1.9679 0
M  V30 8847 H 889.676 -3.66416 -0.116123 0
M  V30 8848 H 889.324 -4.37091 -2.48918 0
M  V30 8849 H 889.024 -5.71629 -1.36065 0
M  V30 8850 H 890.548 -5.65976 -2.29136 0
M  V30 8851 H 891.962 -5.73296 -0.0211034 0
M  V30 8852 H 890.359 -5.95543 0.738163 0
M  V30 8853 H 891.429 -4.66638 1.31822 0
M  V30 8854 N 892.772 -0.284283 -1.55015 0
M  V30 8855 C 893.735 0.586182 -2.21577 0
M  V30 8856 C 894.735 1.07427 -1.1965 0
M  V30 8857 O 895.925 0.972977 -1.44495 0
M  V30 8858 C 893.057 1.80973 -2.88897 0
M  V30 8859 H 894.25 0.00487253 -2.999 0
M  V30 8860 H 891.803 -0.0349696 -1.56261 0
M  V30 8861 H 892.538 2.43131 -2.14611 0
M  V30 8862 H 892.323 1.46757 -3.636 0
M  V30 8863 H 893.813 2.42853 -3.39724 0
M  V30 8864 N 894.251 1.57596 -0.0117121 0
M  V30 8865 C 895.498 1.91071 0.670667 0
M  V30 8866 C 895.826 0.886457 1.73125 0
M  V30 8867 O 895.081 -0.107135 1.95407 0
M  V30 8868 C 895.38 3.31296 1.34082 0
M  V30 8869 C 895.046 4.49011 0.412305 0
M  V30 8870 C 893.708 4.80945 0.156691 0
M  V30 8871 C 896.06 5.20709 -0.226294 0
M  V30 8872 C 893.388 5.81943 -0.745619 0
M  V30 8873 C 895.74 6.22668 -1.11655 0
M  V30 8874 C 894.404 6.53053 -1.38123 0
M  V30 8875 H 893.674 0.69918 0.245415 0
M  V30 8876 H 896.321 1.91373 -0.0697511 0
M  V30 8877 H 894.626 3.27174 2.15557 0
M  V30 8878 H 896.323 3.54461 1.87506 0
M  V30 8879 H 892.913 4.24067 0.621705 0
M  V30 8880 H 897.097 4.96282 -0.0418456 0
M  V30 8881 H 892.353 6.03839 -0.958566 0
M  V30 8882 H 896.527 6.77351 -1.61767 0
M  V30 8883 H 894.154 7.31132 -2.08208 0
M  V30 8884 N 895.729 -0.261212 1.5542 0
M  V30 8885 C 896.659 -1.32712 1.92119 0
M  V30 8886 C 897.64 -1.50934 0.784406 0
M  V30 8887 O 898.825 -1.63781 1.04352 0
M  V30 8888 C 895.955 -2.68453 2.20341 0
M  V30 8889 C 894.909 -2.64947 3.36136 0
M  V30 8890 C 894.235 -4.04349 3.49865 0
M  V30 8891 C 895.535 -2.23182 4.72215 0
M  V30 8892 H 897.229 -1.02245 2.81401 0
M  V30 8893 H 894.775 -0.490406 1.35392 0
M  V30 8894 H 896.728 -3.43144 2.44603 0
M  V30 8895 H 895.452 -3.00527 1.27871 0
M  V30 8896 H 894.111 -1.92714 3.11861 0
M  V30 8897 H 893.759 -4.33665 2.5484 0
M  V30 8898 H 893.459 -4.02895 4.27726 0
M  V30 8899 H 894.983 -4.80761 3.76432 0
M  V30 8900 H 896.397 -2.87599 4.95943 0
M  V30 8901 H 894.794 -2.32867 5.53076 0
M  V30 8902 H 895.864 -1.18327 4.70241 0
M  V30 8903 N 897.207 -1.48554 -0.526253 0
M  V30 8904 C 898.137 -1.66252 -1.63959 0
M  V30 8905 C 899.118 -0.511351 -1.62232 0
M  V30 8906 O 900.303 -0.744322 -1.7937 0
M  V30 8907 C 897.433 -1.70556 -3.02536 0
M  V30 8908 C 896.387 -2.8521 -3.19123 0
M  V30 8909 C 895.713 -2.74606 -4.58798 0
M  V30 8910 C 897.013 -4.26463 -3.0154 0
M  V30 8911 H 898.707 -2.59459 -1.49404 0
M  V30 8912 H 896.253 -1.24862 -0.717326 0
M  V30 8913 H 898.206 -1.81524 -3.80298 0
M  V30 8914 H 896.93 -0.739297 -3.18123 0
M  V30 8915 H 895.589 -2.73802 -2.43779 0
M  V30 8916 H 895.237 -1.75941 -4.71226 0
M  V30 8917 H 894.937 -3.51544 -4.70841 0
M  V30 8918 H 896.461 -2.87548 -5.38655 0
M  V30 8919 H 897.875 -4.38685 -3.69091 0
M  V30 8920 H 896.272 -5.04428 -3.25073 0
M  V30 8921 H 897.342 -4.42667 -1.97925 0
M  V30 8922 N 898.685 0.775411 -1.37205 0
M  V30 8923 C 899.615 1.90258 -1.35367 0
M  V30 8924 C 900.596 1.68634 -0.222864 0
M  V30 8925 O 901.781 1.89545 -0.422659 0
M  V30 8926 C 898.911 3.27488 -1.15623 0
M  V30 8927 C 897.865 3.63668 -2.25676 0
M  V30 8928 C 897.191 4.994 -1.91059 0
M  V30 8929 C 898.491 3.70797 -3.67841 0
M  V30 8930 H 900.185 1.92053 -2.29687 0
M  V30 8931 H 897.731 0.922597 -1.10563 0
M  V30 8932 H 899.684 4.05976 -1.12968 0
M  V30 8933 H 898.408 3.26117 -0.177573 0
M  V30 8934 H 897.067 2.87486 -2.2748 0
M  V30 8935 H 896.715 4.94565 -0.917324 0
M  V30 8936 H 896.415 5.24576 -2.64751 0
M  V30 8937 H 897.939 5.80291 -1.89985 0
M  V30 8938 H 899.353 4.39444 -3.68187 0
M  V30 8939 H 897.75 4.07468 -4.40556 0
M  V30 8940 H 898.82 2.71549 -4.01732 0
M  V30 8941 N 900.163 1.21714 1.00117 0
M  V30 8942 C 901.126 0.981338 2.07129 0
M  V30 8943 C 902.126 -0.0491116 1.60725 0
M  V30 8944 O 903.316 0.188555 1.73177 0
M  V30 8945 C 900.448 0.480608 3.37495 0
M  V30 8946 H 901.641 1.93075 2.29482 0
M  V30 8947 H 899.194 1.03467 1.17151 0
M  V30 8948 H 899.929 -0.473552 3.20824 0
M  V30 8949 H 899.714 1.22393 3.72508 0
M  V30 8950 H 901.204 0.33561 4.16249 0
M  V30 8951 N 901.641 -1.19671 1.02551 0
M  V30 8952 C 902.604 -2.20987 0.608055 0
M  V30 8953 C 903.604 -1.5745 -0.326534 0
M  V30 8954 O 904.794 -1.73827 -0.114003 0
M  V30 8955 C 901.926 -3.4072 -0.11074 0
M  V30 8956 H 903.119 -2.59434 1.50446 0
M  V30 8957 H 900.672 -1.3329 0.816307 0
M  V30 8958 H 901.407 -3.07787 -1.02165 0
M  V30 8959 H 901.192 -3.88069 0.560772 0
M  V30 8960 H 902.682 -4.15776 -0.389848 0
M  V30 8961 N 903.119 -0.802921 -1.35613 0
M  V30 8962 C 904.368 -0.378087 -1.98125 0
M  V30 8963 C 904.681 1.05953 -1.64418 0
M  V30 8964 O 905.887 1.58729 -2.20266 0
M  V30 8965 C 904.343 -0.625077 -3.5443 0
M  V30 8966 C 903.951 -2.07499 -3.97049 0
M  V30 8967 C 905.695 -0.265419 -4.23669 0
M  V30 8968 C 903.602 -2.26793 -5.46186 0
M  V30 8969 H 902.532 -0.137633 -0.741332 0
M  V30 8970 H 905.183 -0.986461 -1.54729 0
M  V30 8971 H 903.565 0.0531975 -3.95964 0
M  V30 8972 H 904.739 -2.79077 -3.66678 0
M  V30 8973 H 903.054 -2.39417 -3.40688 0
M  V30 8974 H 905.651 -0.387669 -5.33293 0
M  V30 8975 H 905.994 0.787994 -4.08774 0
M  V30 8976 H 906.527 -0.897464 -3.87544 0
M  V30 8977 H 903.266 -3.30566 -5.66045 0
M  V30 8978 H 902.786 -1.59735 -5.78139 0
M  V30 8979 H 904.465 -2.08165 -6.12598 0
M  V30 8980 N 904.597 1.47463 -0.556102 0
M  V30 8981 C 905.825 2.06868 -0.0364585 0
M  V30 8982 C 906.24 1.40893 1.25677 0
M  V30 8983 O 905.597 0.505083 1.75371 0
M  V30 8984 C 905.648 3.61128 0.163984 0
M  V30 8985 O 905.369 4.24629 -1.07803 0
M  V30 8986 C 906.87 4.37397 0.721036 0
M  V30 8987 H 904.09 0.669466 -0.0453399 0
M  V30 8988 H 906.634 1.89482 -0.769198 0
M  V30 8989 H 904.789 3.78031 0.84685 0
M  V30 8990 H 905.203 5.17149 -0.875067 0
M  V30 8991 H 906.677 5.46016 0.810584 0
M  V30 8992 H 907.154 4.03604 1.73206 0
M  V30 8993 H 907.76 4.25236 0.073904 0
M  V30 8994 N 906.075 0.2925 1.54862 0
M  V30 8995 C 907.321 -0.319736 2.00264 0
M  V30 8996 C 907.654 -1.5419 1.18064 0
M  V30 8997 O 906.929 -1.92821 0.254983 0
M  V30 8998 C 907.212 -0.684753 3.5353 0
M  V30 8999 C 907.065 0.545961 4.46474 0
M  V30 9000 C 908.384 -1.51456 4.13218 0
M  V30 9001 H 905.503 -0.11474 0.728014 0
M  V30 9002 H 908.145 0.402907 1.85679 0
M  V30 9003 H 906.295 -1.30044 3.66089 0
M  V30 9004 H 907.967 1.18448 4.45834 0
M  V30 9005 H 906.21 1.1808 4.1742 0
M  V30 9006 H 906.881 0.246544 5.51449 0
M  V30 9007 H 909.357 -0.994421 4.04043 0
M  V30 9008 H 908.233 -1.73875 5.20633 0
M  V30 9009 H 908.494 -2.5011 3.64551 0
M  V30 9010 N 907.553 -1.57587 0.0200696 0
M  V30 9011 C 908.483 -2.12702 -0.963333 0
M  V30 9012 C 909.464 -1.04094 -1.34531 0
M  V30 9013 O 910.649 -1.31881 -1.42552 0
M  V30 9014 C 907.779 -2.64673 -2.24868 0
M  V30 9015 C 906.733 -3.77987 -2.00772 0
M  V30 9016 C 906.059 -4.16351 -3.35494 0
M  V30 9017 C 907.359 -5.0444 -1.35416 0
M  V30 9018 H 909.053 -2.95121 -0.504363 0
M  V30 9019 H 906.599 -1.41966 -0.24116 0
M  V30 9020 H 908.552 -3.01862 -2.94036 0
M  V30 9021 H 907.276 -1.79403 -2.72914 0
M  V30 9022 H 905.935 -3.41223 -1.34025 0
M  V30 9023 H 905.583 -3.28075 -3.81282 0
M  V30 9024 H 905.283 -4.92705 -3.20181 0
M  V30 9025 H 906.807 -4.56115 -4.05945 0
M  V30 9026 H 908.221 -5.39273 -1.94571 0
M  V30 9027 H 906.618 -5.85732 -1.30529 0
M  V30 9028 H 907.688 -4.83803 -0.325923 0
M  V30 9029 N 909.032 0.252966 -1.55557 0
M  V30 9030 C 909.995 1.29645 -1.8901 0
M  V30 9031 C 910.995 1.41378 -0.766096 0
M  V30 9032 O 912.185 1.40183 -1.03414 0
M  V30 9033 C 909.317 2.67504 -2.11316 0
M  V30 9034 H 910.51 1.01202 -2.82309 0
M  V30 9035 H 908.063 0.491977 -1.48355 0
M  V30 9036 H 908.798 3.01095 -1.20466 0
M  V30 9037 H 908.583 2.6037 -2.93172 0
M  V30 9038 H 910.073 3.42861 -2.38403 0
M  V30 9039 N 910.51 1.48831 0.518367 0
M  V30 9040 C 911.756 1.57672 1.27543 0
M  V30 9041 C 912.089 0.254915 1.9252 0
M  V30 9042 O 911.364 -0.740107 1.79868 0
M  V30 9043 C 911.647 2.72345 2.35585 0
M  V30 9044 C 911.5 4.14267 1.75224 0
M  V30 9045 C 912.819 2.82726 3.37274 0
M  V30 9046 H 909.938 0.573926 0.462361 0
M  V30 9047 H 912.58 1.8105 0.576267 0
M  V30 9048 H 910.73 2.52543 2.95219 0
M  V30 9049 H 912.402 4.45539 1.19551 0
M  V30 9050 H 910.645 4.20724 1.05706 0
M  V30 9051 H 911.316 4.90345 2.53507 0
M  V30 9052 H 913.792 3.00699 2.8761 0
M  V30 9053 H 912.668 3.6467 4.10252 0
M  V30 9054 H 912.929 1.9136 3.9854 0
M  V30 9055 N 911.988 -0.768124 1.37614 0
M  V30 9056 C 913.234 -1.52907 1.33219 0
M  V30 9057 C 913.567 -1.94026 -0.0821218 0
M  V30 9058 O 912.842 -1.64345 -1.04023 0
M  V30 9059 C 913.125 -2.79164 2.27463 0
M  V30 9060 C 912.978 -2.44276 3.7769 0
M  V30 9061 C 914.297 -3.81115 2.20089 0
M  V30 9062 H 911.416 -0.554712 0.485246 0
M  V30 9063 H 914.058 -0.880911 1.68345 0
M  V30 9064 H 912.208 -3.34472 1.97639 0
M  V30 9065 H 913.88 -1.94855 4.18126 0
M  V30 9066 H 912.123 -1.76925 3.96081 0
M  V30 9067 H 912.794 -3.34544 4.39072 0
M  V30 9068 H 915.27 -3.35311 2.46386 0
M  V30 9069 H 914.146 -4.67174 2.88166 0
M  V30 9070 H 914.407 -4.25644 1.19498 0
M  V30 9071 N 913.466 -1.22244 -0.994698 0
M  V30 9072 C 914.713 -1.04591 -1.73398 0
M  V30 9073 C 915.041 0.419223 -1.89928 0
M  V30 9074 O 914.296 1.32714 -1.43824 0
M  V30 9075 C 914.595 -1.70014 -3.14372 0
M  V30 9076 C 914.261 -3.19903 -3.17762 0
M  V30 9077 C 912.923 -3.60803 -3.18394 0
M  V30 9078 C 915.275 -4.15851 -3.14194 0
M  V30 9079 C 912.603 -4.96135 -3.13157 0
M  V30 9080 C 914.955 -5.51157 -3.10498 0
M  V30 9081 C 913.619 -5.91439 -3.09445 0
M  V30 9082 H 912.889 -0.382725 -0.63451 0
M  V30 9083 H 915.536 -1.51981 -1.16508 0
M  V30 9084 H 913.841 -1.14945 -3.7456 0
M  V30 9085 H 915.538 -1.53848 -3.70313 0
M  V30 9086 H 912.128 -2.87336 -3.18019 0
M  V30 9087 H 916.312 -3.85272 -3.12857 0
M  V30 9088 H 911.568 -5.26578 -3.10685 0
M  V30 9089 H 915.742 -6.2523 -3.06692 0
M  V30 9090 H 913.369 -6.96271 -3.05141 0
M  V30 9091 N 914.944 1.19125 -1.03184 0
M  V30 9092 C 915.876 2.21914 -0.573294 0
M  V30 9093 C 916.889 1.5894 0.352397 0
M  V30 9094 O 918.078 1.77883 0.148318 0
M  V30 9095 C 915.178 3.38403 0.18355 0
M  V30 9096 C 914.351 4.3096 -0.747817 0
M  V30 9097 C 913.41 5.26188 -0.0358489 0
M  V30 9098 O 912.436 5.65321 -0.663388 0
M  V30 9099 N 913.638 5.67235 1.23387 0
M  V30 9100 H 916.403 2.61881 -1.45734 0
M  V30 9101 H 913.964 1.33821 -0.911231 0
M  V30 9102 H 915.956 3.99124 0.669468 0
M  V30 9103 H 914.526 2.97201 0.969043 0
M  V30 9104 H 913.746 3.67976 -1.41377 0
M  V30 9105 H 915.034 4.89708 -1.38071 0
M  V30 9106 H 914.432 5.37481 1.76439 0
M  V30 9107 H 912.989 6.30196 1.66423 0
M  V30 9108 N 916.422 0.810101 1.35185 0
M  V30 9109 C 917.838 0.494269 1.51754 0
M  V30 9110 C 918.038 -0.983907 1.75845 0
M  V30 9111 O 917.094 -1.76882 1.80191 0
M  V30 9112 C 918.407 1.34268 2.69059 0
M  V30 9113 C 919.955 1.33848 2.82938 0
M  V30 9114 C 920.43 2.17109 4.03271 0
M  V30 9115 N 921.921 2.14664 4.10456 0
M  V30 9116 C 922.656 2.75843 5.02691 0
M  V30 9117 N 922.152 3.45962 6.00235 0
M  V30 9118 N 923.945 2.65465 4.95464 0
M  V30 9119 H 916.096 1.76736 1.17805 0
M  V30 9120 H 918.359 0.752429 0.576676 0
M  V30 9121 H 918.065 2.39183 2.57845 0
M  V30 9122 H 917.939 0.998362 3.63748 0
M  V30 9123 H 920.326 0.29716 2.936 0
M  V30 9124 H 920.407 1.72269 1.89095 0
M  V30 9125 H 920.051 3.21283 3.93369 0
M  V30 9126 H 919.981 1.76046 4.96302 0
M  V30 9127 H 922.472 1.63648 3.40628 0
M  V30 9128 H 922.785 3.89922 6.67219 0
M  V30 9129 H 921.13 3.50067 6.00398 0
M  V30 9130 H 924.321 2.1027 4.18215 0
M  V30 9131 H 924.494 3.13433 5.67154 0
M  V30 9132 N 917.9 -1.47166 0.563914 0
M  V30 9133 C 918.847 -2.30097 -0.180013 0
M  V30 9134 C 919.817 -1.39473 -0.902019 0
M  V30 9135 O 921.002 -1.68432 -0.896396 0
M  V30 9136 C 918.142 -3.23573 -1.19978 0
M  V30 9137 C 917.255 -4.2929 -0.483149 0
M  V30 9138 C 916.39 -5.0991 -1.48879 0
M  V30 9139 C 915.429 -6.07395 -0.757513 0
M  V30 9140 N 914.566 -6.8095 -1.71031 0
M  V30 9141 H 919.406 -2.93189 0.53329 0
M  V30 9142 H 916.943 -1.4451 0.274814 0
M  V30 9143 H 918.901 -3.76196 -1.80368 0
M  V30 9144 H 917.531 -2.6233 -1.88103 0
M  V30 9145 H 916.583 -3.79671 0.235414 0
M  V30 9146 H 917.895 -4.9872 0.0894075 0
M  V30 9147 H 917.049 -5.66717 -2.16603 0
M  V30 9148 H 915.788 -4.40397 -2.09527 0
M  V30 9149 H 914.793 -5.4976 -0.0663841 0
M  V30 9150 H 916.018 -6.78919 -0.156685 0
M  V30 9151 H 913.964 -6.14162 -2.30524 0
M  V30 9152 H 913.881 -7.46574 -1.19007 0
M  V30 9153 H 915.149 -7.42326 -2.37849 0
M  V30 9154 N 919.378 -0.300708 -1.54705 0
M  V30 9155 C 920.794 0.0526874 -1.59513 0
M  V30 9156 C 920.994 1.52444 -1.31769 0
M  V30 9157 O 920.05 2.27716 -1.09096 0
M  V30 9158 C 921.363 -0.344989 -2.98714 0
M  V30 9159 C 922.911 -0.29373 -3.11619 0
M  V30 9160 C 923.386 -0.666225 -4.53129 0
M  V30 9161 N 924.877 -0.618749 -4.59049 0
M  V30 9162 C 925.612 -0.879447 -5.66616 0
M  V30 9163 N 925.108 -1.2061 -6.82221 0
M  V30 9164 N 926.901 -0.806528 -5.56284 0
M  V30 9165 H 919.052 -1.25988 -1.71 0
M  V30 9166 H 921.315 -0.510758 -0.798643 0
M  V30 9167 H 921.021 -1.36953 -3.2394 0
M  V30 9168 H 920.895 0.301507 -3.75993 0
M  V30 9169 H 923.282 0.72156 -2.86142 0
M  V30 9170 H 923.363 -0.974844 -2.36496 0
M  V30 9171 H 923.007 -1.67932 -4.79334 0
M  V30 9172 H 922.937 0.0369575 -5.26587 0
M  V30 9173 H 925.428 -0.377202 -3.76013 0
M  V30 9174 H 925.741 -1.391 -7.60178 0
M  V30 9175 H 924.086 -1.24413 -6.83774 0
M  V30 9176 H 927.277 -0.550993 -4.64846 0
M  V30 9177 H 927.45 -1.01307 -6.40032 0
M  V30 9178 N 920.856 1.57574 -0.0284266 0
M  V30 9179 C 922.272 1.56194 0.327958 0
M  V30 9180 C 922.472 1.03397 1.72949 0
M  V30 9181 O 921.528 0.680392 2.4316 0
M  V30 9182 C 922.841 3.00177 0.177196 0
M  V30 9183 C 924.389 3.12 0.250014 0
M  V30 9184 C 924.864 4.57821 0.128049 0
M  V30 9185 N 926.355 4.6283 0.185054 0
M  V30 9186 C 927.09 5.73286 0.114454 0
M  V30 9187 N 926.586 6.928 -0.00719225 0
M  V30 9188 N 928.379 5.61848 0.16839 0
M  V30 9189 H 920.53 1.90224 -0.944921 0
M  V30 9190 H 922.793 0.874987 -0.364832 0
M  V30 9191 H 922.499 3.42753 -0.788224 0
M  V30 9192 H 922.373 3.65101 0.94768 0
M  V30 9193 H 924.76 2.69337 1.20589 0
M  V30 9194 H 924.841 2.49799 -0.550835 0
M  V30 9195 H 924.485 5.01165 -0.824407 0
M  V30 9196 H 924.415 5.18001 0.947753 0
M  V30 9197 H 926.906 3.76867 0.279247 0
M  V30 9198 H 927.219 7.72781 -0.0543903 0
M  V30 9199 H 925.564 6.94987 -0.0419648 0
M  V30 9200 H 928.755 4.67367 0.261821 0
M  V30 9201 H 928.928 6.47907 0.109908 0
M  V30 9202 N 922.334 -0.244713 1.55689 0
M  V30 9203 C 923.582 -0.970525 1.77272 0
M  V30 9204 C 923.903 -1.85771 0.592804 0
M  V30 9205 O 923.173 -1.91952 -0.391323 0
M  V30 9206 H 921.753 -0.361342 0.653789 0
M  V30 9207 H 924.415 -0.262134 1.93129 0
M  V30 9208 H 923.511 -1.59096 2.68505 0
M  V30 9209 N 923.813 -1.49104 -0.510467 0
M  V30 9210 C 925.041 -1.61806 -1.28944 0
M  V30 9211 C 925.456 -0.285774 -1.86625 0
M  V30 9212 O 924.813 0.727551 -1.67371 0
M  V30 9213 C 924.864 -2.67966 -2.42645 0
M  V30 9214 O 924.585 -3.96026 -1.87337 0
M  V30 9215 C 926.086 -2.91286 -3.34166 0
M  V30 9216 H 923.306 -0.544999 -0.391429 0
M  V30 9217 H 925.85 -1.95071 -0.613805 0
M  V30 9218 H 924.005 -2.37505 -3.06056 0
M  V30 9219 H 924.419 -4.54427 -2.61909 0
M  V30 9220 H 925.893 -3.69323 -4.1025 0
M  V30 9221 H 926.37 -2.00842 -3.90588 0
M  V30 9222 H 926.976 -3.23127 -2.76531 0
M  V30 9223 N 925.291 0.760815 -1.38019 0
M  V30 9224 C 926.539 1.51673 -1.33566 0
M  V30 9225 C 926.86 1.94852 0.076024 0
M  V30 9226 O 926.13 1.67112 1.02227 0
M  V30 9227 H 924.71 0.562581 -0.491438 0
M  V30 9228 H 927.372 0.904832 -1.72623 0
M  V30 9229 H 926.468 2.41102 -1.98182 0
M  V30 9230 N 926.769 1.22769 0.988202 0
M  V30 9231 C 927.999 1.07998 1.76125 0
M  V30 9232 C 928.407 -0.372062 1.85506 0
M  V30 9233 O 927.75 -1.26946 1.3278 0
M  V30 9234 C 927.812 1.6219 3.20834 0
M  V30 9235 C 927.476 3.1086 3.34986 0
M  V30 9236 C 928.473 4.08239 3.21927 0
M  V30 9237 C 926.158 3.50411 3.59886 0
M  V30 9238 C 928.152 5.43154 3.33561 0
M  V30 9239 C 925.839 4.85473 3.71159 0
M  V30 9240 C 926.837 5.81653 3.58006 0
M  V30 9241 O 926.525 7.14263 3.68895 0
M  V30 9242 H 926.257 0.378937 0.559806 0
M  V30 9243 H 928.811 1.62925 1.25078 0
M  V30 9244 H 927.041 1.01676 3.73094 0
M  V30 9245 H 928.73 1.43011 3.79872 0
M  V30 9246 H 929.496 3.79025 3.02597 0
M  V30 9247 H 925.375 2.76068 3.69198 0
M  V30 9248 H 928.919 6.18207 3.23211 0
M  V30 9249 H 924.816 5.14365 3.89998 0
M  V30 9250 H 925.584 7.21906 3.85739 0
M  V30 9251 N 928.247 -1.18576 1.03814 0
M  V30 9252 C 929.475 -1.92437 0.759966 0
M  V30 9253 C 929.89 -1.76031 -0.682526 0
M  V30 9254 O 929.247 -1.08829 -1.46501 0
M  V30 9255 C 929.298 -3.43923 1.11351 0
M  V30 9256 O 929.019 -3.5981 2.49937 0
M  V30 9257 C 930.52 -4.34888 0.859472 0
M  V30 9258 H 927.74 -0.610998 0.277349 0
M  V30 9259 H 930.284 -1.50448 1.38512 0
M  V30 9260 H 928.439 -3.83711 0.533362 0
M  V30 9261 H 928.853 -4.53569 2.63393 0
M  V30 9262 H 930.327 -5.39744 1.15672 0
M  V30 9263 H 930.804 -4.38717 -0.205839 0
M  V30 9264 H 931.41 -4.00795 1.42279 0
M  V30 9265 N 929.725 -0.817259 -1.34754 0
M  V30 9266 C 930.635 -0.236946 -2.334 0
M  V30 9267 C 931.651 0.625685 -1.62361 0
M  V30 9268 O 932.827 0.534921 -1.94166 0
M  V30 9269 C 929.892 0.596215 -3.41535 0
M  V30 9270 C 928.953 -0.288154 -4.28332 0
M  V30 9271 C 928.186 0.505337 -5.31302 0
M  V30 9272 O 928.409 1.73912 -5.43241 0
M  V30 9273 O 927.343 -0.109374 -6.01801 0
M  V30 9274 H 931.169 -1.05327 -2.84851 0
M  V30 9275 H 928.754 -0.579275 -1.37713 0
M  V30 9276 H 930.636 1.07041 -4.07578 0
M  V30 9277 H 929.311 1.38997 -2.92338 0
M  V30 9278 H 928.218 -0.809724 -3.65232 0
M  V30 9279 H 929.551 -1.04612 -4.80955 0
M  V30 9280 N 931.203 1.46865 -0.571711 0
M  V30 9281 C 932.135 2.28277 0.205479 0
M  V30 9282 C 933.148 1.37866 0.865835 0
M  V30 9283 O 934.337 1.62564 0.737247 0
M  V30 9284 C 931.437 3.12572 1.30965 0
M  V30 9285 C 930.61 4.31038 0.743328 0
M  V30 9286 C 929.669 4.96815 1.73382 0
M  V30 9287 O 928.695 5.54755 1.2742 0
M  V30 9288 N 929.897 4.92825 3.06764 0
M  V30 9289 H 932.662 2.95618 -0.49294 0
M  V30 9290 H 930.223 1.56655 -0.408744 0
M  V30 9291 H 932.215 3.53442 1.97131 0
M  V30 9292 H 930.785 2.47378 1.91109 0
M  V30 9293 H 930.005 3.94084 -0.0955004 0
M  V30 9294 H 931.293 5.07632 0.344556 0
M  V30 9295 H 930.691 4.46978 3.46738 0
M  V30 9296 H 929.248 5.3767 3.68449 0
M  V30 9297 N 932.681 0.308908 1.54543 0
M  V30 9298 C 933.611 -0.556657 2.26768 0
M  V30 9299 C 934.592 -1.13145 1.27013 0
M  V30 9300 O 935.777 -1.15931 1.558 0
M  V30 9301 C 932.907 -1.72481 3.01443 0
M  V30 9302 C 931.861 -1.28001 4.08411 0
M  V30 9303 C 931.187 -2.53395 4.70845 0
M  V30 9304 C 932.487 -0.405497 5.20724 0
M  V30 9305 H 934.181 0.0457618 2.99365 0
M  V30 9306 H 931.727 0.0234495 1.43981 0
M  V30 9307 H 933.68 -2.3365 3.50693 0
M  V30 9308 H 932.404 -2.35359 2.26437 0
M  V30 9309 H 931.063 -0.69133 3.60022 0
M  V30 9310 H 930.711 -3.14604 3.92471 0
M  V30 9311 H 930.411 -2.2433 5.43093 0
M  V30 9312 H 931.935 -3.15352 5.22863 0
M  V30 9313 H 933.349 -0.923076 5.6582 0
M  V30 9314 H 931.746 -0.208282 5.99738 0
M  V30 9315 H 932.816 0.567412 4.81569 0
M  V30 9316 N 934.159 -1.57557 0.0367827 0
M  V30 9317 C 935.091 -2.07597 -0.971395 0
M  V30 9318 C 936.104 -1.0009 -1.28397 0
M  V30 9319 O 937.293 -1.27692 -1.24728 0
M  V30 9320 C 934.393 -2.492 -2.2968 0
M  V30 9321 C 933.566 -3.79875 -2.16826 0
M  V30 9322 C 932.625 -4.07946 -3.32366 0
M  V30 9323 O 931.651 -4.78083 -3.0891 0
M  V30 9324 N 932.853 -3.58722 -4.56397 0
M  V30 9325 H 935.618 -2.94714 -0.544389 0
M  V30 9326 H 933.179 -1.61205 -0.1498 0
M  V30 9327 H 935.171 -2.65065 -3.05815 0
M  V30 9328 H 933.741 -1.67407 -2.63995 0
M  V30 9329 H 932.961 -3.73732 -1.2537 0
M  V30 9330 H 934.249 -4.65476 -2.0545 0
M  V30 9331 H 933.647 -3.01994 -4.78347 0
M  V30 9332 H 932.204 -3.79852 -5.29675 0
M  V30 9333 N 935.637 0.236453 -1.55816 0
M  V30 9334 C 936.569 1.31602 -1.87653 0
M  V30 9335 C 937.582 1.43782 -0.763584 0
M  V30 9336 O 938.771 1.44945 -1.04178 0
M  V30 9337 C 935.871 2.69342 -2.05689 0
M  V30 9338 C 935.044 2.79298 -3.36617 0
M  V30 9339 C 934.103 3.97952 -3.44268 0
M  V30 9340 O 933.129 3.86989 -4.17406 0
M  V30 9341 N 934.331 5.11594 -2.74321 0
M  V30 9342 H 937.096 1.04623 -2.80845 0
M  V30 9343 H 934.657 0.426534 -1.5618 0
M  V30 9344 H 936.649 3.47074 -2.08138 0
M  V30 9345 H 935.219 2.88984 -1.19192 0
M  V30 9346 H 934.439 1.8816 -3.46395 0
M  V30 9347 H 935.727 2.82908 -4.22895 0
M  V30 9348 H 935.125 5.23394 -2.14651 0
M  V30 9349 H 933.682 5.87422 -2.8245 0
M  V30 9350 N 937.115 1.49373 0.502552 0
M  V30 9351 C 938.345 1.62252 1.27898 0
M  V30 9352 C 938.753 0.292555 1.86924 0
M  V30 9353 O 938.096 -0.731823 1.68493 0
M  V30 9354 C 938.158 2.63153 2.4493 0
M  V30 9355 C 937.822 4.07541 2.06784 0
M  V30 9356 C 938.819 4.94392 1.60849 0
M  V30 9357 C 936.504 4.53263 2.16466 0
M  V30 9358 C 938.498 6.25003 1.25098 0
M  V30 9359 C 936.185 5.83888 1.80327 0
M  V30 9360 C 937.183 6.69582 1.34718 0
M  V30 9361 O 936.871 7.97773 0.990661 0
M  V30 9362 H 936.603 0.54918 0.394179 0
M  V30 9363 H 939.157 1.96132 0.610031 0
M  V30 9364 H 937.387 2.2445 3.14895 0
M  V30 9365 H 939.076 2.65578 3.06957 0
M  V30 9366 H 939.842 4.60296 1.52816 0
M  V30 9367 H 935.721 3.86731 2.50919 0
M  V30 9368 H 939.265 6.91844 0.894269 0
M  V30 9369 H 935.162 6.17513 1.8801 0
M  V30 9370 H 935.93 8.1077 1.12227 0
M  V30 9371 N 938.594 -0.753485 1.38421 0
M  V30 9372 C 939.819 -1.54783 1.38047 0
M  V30 9373 C 940.244 -1.8808 -0.0276371 0
M  V30 9374 O 939.602 -1.5058 -1.00973 0
M  V30 9375 C 939.65 -2.82353 2.24297 0
M  V30 9376 O 938.754 -3.77509 1.66014 0
M  V30 9377 H 938.095 -0.468151 0.470883 0
M  V30 9378 H 940.625 -0.931144 1.82184 0
M  V30 9379 H 940.635 -3.31277 2.38159 0
M  V30 9380 H 939.31 -2.57449 3.26639 0
M  V30 9381 H 937.887 -3.36212 1.61294 0
M  V30 9382 N 940.072 -1.23292 -0.981677 0
M  V30 9383 C 941.297 -1.09176 -1.76339 0
M  V30 9384 C 941.722 0.352726 -1.84763 0
M  V30 9385 O 941.08 1.25509 -1.30832 0
M  V30 9386 C 941.128 -1.72046 -3.16911 0
M  V30 9387 O 940.232 -0.98174 -4.00544 0
M  V30 9388 H 939.573 -0.382755 -0.542581 0
M  V30 9389 H 942.103 -1.63319 -1.23239 0
M  V30 9390 H 942.113 -1.77232 -3.67495 0
M  V30 9391 H 940.788 -2.77154 -3.10095 0
M  V30 9392 H 939.365 -1.00672 -3.59054 0
M  V30 9393 N 941.55 1.18024 -1.04442 0
M  V30 9394 C 942.961 1.69749 -0.777312 0
M  V30 9395 C 943.312 1.83234 0.701399 0
M  V30 9396 O 942.437 1.51452 1.54568 0
M  V30 9397 C 943.032 3.08321 -1.40441 0
M  V30 9398 C 941.591 3.57243 -1.18553 0
M  V30 9399 C 940.738 2.33695 -1.49271 0
M  V30 9400 H 943.689 1.02647 -1.21035 0
M  V30 9401 H 943.71 3.71787 -0.809628 0
M  V30 9402 H 943.222 2.98474 -2.48062 0
M  V30 9403 H 941.323 3.72379 -0.128221 0
M  V30 9404 H 941.436 4.40451 -1.88519 0
M  V30 9405 H 939.8 2.37792 -0.912526 0
M  V30 9406 H 940.583 2.26464 -2.5801 0
M  V30 9407 N 943.028 0.824394 1.34319 0
M  V30 9408 C 944.276 0.41235 1.97849 0
M  V30 9409 C 944.597 -1.02841 1.65677 0
M  V30 9410 O 943.867 -1.71421 0.948245 0
M  V30 9411 H 942.447 0.149486 0.73189 0
M  V30 9412 H 945.109 1.05416 1.63931 0
M  V30 9413 H 944.205 0.532557 3.07523 0
M  V30 9414 N 944.506 -1.46559 0.579492 0
M  V30 9415 C 945.436 -2.33059 -0.143437 0
M  V30 9416 C 946.417 -1.4515 -0.886868 0
M  V30 9417 O 947.602 -1.73973 -0.862961 0
M  V30 9418 C 944.732 -3.27364 -1.15973 0
M  V30 9419 C 943.686 -4.24689 -0.531348 0
M  V30 9420 C 943.012 -5.08479 -1.65388 0
M  V30 9421 C 944.312 -5.1961 0.529391 0
M  V30 9422 H 946.006 -2.93753 0.578762 0
M  V30 9423 H 943.552 -1.41256 0.279775 0
M  V30 9424 H 945.505 -3.86732 -1.67382 0
M  V30 9425 H 944.229 -2.64771 -1.91217 0
M  V30 9426 H 942.888 -3.6658 -0.0383749 0
M  V30 9427 H 942.536 -4.42273 -2.3959 0
M  V30 9428 H 942.236 -5.74387 -1.23909 0
M  V30 9429 H 943.76 -5.70709 -2.17079 0
M  V30 9430 H 945.174 -5.73212 0.100506 0
M  V30 9431 H 943.571 -5.93843 0.86432 0
M  V30 9432 H 944.641 -4.63737 1.4169 0
M  V30 9433 N 945.984 -0.3171 -1.54377 0
M  V30 9434 C 947.232 0.286842 -2.00054 0
M  V30 9435 C 947.553 1.53161 -1.20692 0
M  V30 9436 O 946.823 1.93479 -0.307045 0
M  V30 9437 H 945.403 0.108979 -0.739008 0
M  V30 9438 H 948.065 -0.432152 -1.90049 0
M  V30 9439 H 947.161 0.547729 -3.07256 0
M  V30 9440 N 947.462 1.57535 -0.0451378 0
M  V30 9441 C 948.708 1.92736 0.630921 0
M  V30 9442 C 949.041 0.923265 1.70849 0
M  V30 9443 O 948.316 -0.0516512 1.94431 0
M  V30 9444 C 948.599 3.38348 1.23259 0
M  V30 9445 C 948.452 4.49503 0.16349 0
M  V30 9446 C 949.771 3.84233 2.14599 0
M  V30 9447 H 946.89 0.700884 0.227883 0
M  V30 9448 H 949.532 1.89706 -0.10567 0
M  V30 9449 H 947.682 3.41061 1.86037 0
M  V30 9450 H 949.354 4.58919 -0.46808 0
M  V30 9451 H 947.597 4.30802 -0.509166 0
M  V30 9452 H 948.268 5.48457 0.624382 0
M  V30 9453 H 950.744 3.83358 1.6179 0
M  V30 9454 H 949.62 4.86781 2.53644 0
M  V30 9455 H 949.881 3.20646 3.04366 0
M  V30 9456 N 948.94 -0.228186 1.55939 0
M  V30 9457 C 949.887 -1.28274 1.91871 0
M  V30 9458 C 950.857 -1.46906 0.775103 0
M  V30 9459 O 952.042 -1.60583 1.03042 0
M  V30 9460 C 949.182 -2.62945 2.23504 0
M  V30 9461 C 948.295 -2.52166 3.50766 0
M  V30 9462 C 947.43 -3.79316 3.71878 0
M  V30 9463 C 946.469 -3.63231 4.92676 0
M  V30 9464 N 945.606 -4.82315 5.10212 0
M  V30 9465 H 950.446 -0.96931 2.81795 0
M  V30 9466 H 947.983 -0.467331 1.39479 0
M  V30 9467 H 949.941 -3.41359 2.39854 0
M  V30 9468 H 948.571 -2.92397 1.36762 0
M  V30 9469 H 947.623 -1.65221 3.42646 0
M  V30 9470 H 948.935 -2.36199 4.39331 0
M  V30 9471 H 948.089 -4.66173 3.88288 0
M  V30 9472 H 946.828 -3.982 2.81581 0
M  V30 9473 H 945.833 -2.74757 4.76223 0
M  V30 9474 H 947.058 -3.45823 5.84451 0
M  V30 9475 H 945.004 -5.01526 4.22856 0
M  V30 9476 H 944.921 -4.6905 5.92898 0
M  V30 9477 H 946.189 -5.70618 5.31051 0
M  V30 9478 N 950.418 -1.49637 -0.494624 0
M  V30 9479 C 951.648 -1.62928 -1.27036 0
M  V30 9480 C 952.056 -0.302464 -1.86767 0
M  V30 9481 O 951.399 0.722878 -1.68879 0
M  V30 9482 C 951.461 -2.64449 -2.43531 0
M  V30 9483 C 951.125 -4.08632 -2.0462 0
M  V30 9484 C 952.122 -4.95238 -1.58225 0
M  V30 9485 C 949.807 -4.54405 -2.1406 0
M  V30 9486 C 951.801 -6.25658 -1.21782 0
M  V30 9487 C 949.488 -5.84836 -1.77228 0
M  V30 9488 C 950.486 -6.70287 -1.31165 0
M  V30 9489 O 950.174 -7.98287 -0.948339 0
M  V30 9490 H 949.906 -0.551263 -0.391261 0
M  V30 9491 H 952.46 -1.96453 -0.599621 0
M  V30 9492 H 950.69 -2.26117 -3.137 0
M  V30 9493 H 952.379 -2.67203 -3.05545 0
M  V30 9494 H 953.145 -4.611 -1.50373 0
M  V30 9495 H 949.024 -3.88056 -2.48865 0
M  V30 9496 H 952.568 -6.92309 -0.857566 0
M  V30 9497 H 948.465 -6.18502 -1.84732 0
M  V30 9498 H 949.233 -8.11353 -1.07925 0
M  V30 9499 N 951.896 0.746133 -1.38819 0
M  V30 9500 C 953.126 1.53316 -1.38484 0
M  V30 9501 C 953.534 1.89183 0.0253332 0
M  V30 9502 O 952.877 1.5382 1.00424 0
M  V30 9503 C 952.939 2.85623 -2.18311 0
M  V30 9504 C 952.603 2.72253 -3.67052 0
M  V30 9505 C 953.6 2.41547 -4.60381 0
M  V30 9506 C 951.285 2.89472 -4.10501 0
M  V30 9507 C 953.279 2.28226 -5.9514 0
M  V30 9508 C 950.966 2.7577 -5.45338 0
M  V30 9509 C 951.964 2.45191 -6.37472 0
M  V30 9510 O 951.652 2.31561 -7.69828 0
M  V30 9511 H 951.384 0.480763 -0.475229 0
M  V30 9512 H 953.938 0.93057 -1.83111 0
M  V30 9513 H 952.168 3.481 -1.68414 0
M  V30 9514 H 953.857 3.47178 -2.10291 0
M  V30 9515 H 954.623 2.27905 -4.28117 0
M  V30 9516 H 950.502 3.12269 -3.3913 0
M  V30 9517 H 954.046 2.04279 -6.6702 0
M  V30 9518 H 949.943 2.88987 -5.77197 0
M  V30 9519 H 950.711 2.46716 -7.80432 0
M  V30 9520 N 953.375 1.23811 0.975125 0
M  V30 9521 C 954.624 1.06741 1.71141 0
M  V30 9522 C 954.937 -0.394986 1.9157 0
M  V30 9523 O 956.143 -0.685723 2.62698 0
M  V30 9524 C 954.599 1.86168 3.08009 0
M  V30 9525 C 954.207 3.36771 2.95448 0
M  V30 9526 C 955.951 1.77604 3.85561 0
M  V30 9527 C 953.858 4.0857 4.2758 0
M  V30 9528 H 952.788 0.395819 0.64175 0
M  V30 9529 H 955.439 1.47825 1.0872 0
M  V30 9530 H 953.821 1.37893 3.71216 0
M  V30 9531 H 954.995 3.92571 2.41298 0
M  V30 9532 H 953.31 3.46205 2.31368 0
M  V30 9533 H 955.907 2.28556 4.83391 0
M  V30 9534 H 956.25 0.739837 4.09673 0
M  V30 9535 H 956.783 2.23519 3.29065 0
M  V30 9536 H 953.522 5.12518 4.08663 0
M  V30 9537 H 953.042 3.57556 4.81574 0
M  V30 9538 H 954.721 4.15157 4.9624 0
M  V30 9539 N 954.853 -1.17469 1.05066 0
M  V30 9540 C 956.13 -1.83625 0.673872 0
M  V30 9541 C 956.51 -1.93412 -0.845871 0
M  V30 9542 O 955.858 -1.4677 -1.75131 0
M  V30 9543 C 956.068 -3.21352 1.36139 0
M  V30 9544 C 957.416 -3.97274 1.49863 0
M  V30 9545 O 958.44 -3.30827 1.3203 0
M  V30 9546 O 957.299 -5.16349 1.79013 0
M  V30 9547 H 954.393 -0.792297 0.237055 0
M  V30 9548 H 956.939 -1.24776 1.15017 0
M  V30 9549 H 955.711 -3.0919 2.39827 0
M  V30 9550 H 955.334 -3.87867 0.874364 0
M  V30 9551 N 956.331 -0.831506 -1.3388 0
M  V30 9552 C 957.742 -0.481375 -1.80388 0
M  V30 9553 C 958.093 0.998993 -1.68863 0
M  V30 9554 O 957.218 1.77795 -1.2336 0
M  V30 9555 C 957.813 -0.86699 -3.27519 0
M  V30 9556 C 956.372 -0.569105 -3.72073 0
M  V30 9557 C 955.519 -1.07929 -2.55434 0
M  V30 9558 H 958.47 -1.02089 -1.21505 0
M  V30 9559 H 958.491 -0.174128 -3.80101 0
M  V30 9560 H 958.003 -1.94447 -3.35875 0
M  V30 9561 H 956.104 0.498607 -3.69249 0
M  V30 9562 H 956.217 -1.11918 -4.65845 0
M  V30 9563 H 954.581 -0.500465 -2.49735 0
M  V30 9564 H 955.364 -2.16339 -2.66556 0
M  V30 9565 N 957.809 1.4625 -0.587256 0
M  V30 9566 C 959.034 2.07252 -0.0784517 0
M  V30 9567 C 959.459 1.43239 1.21919 0
M  V30 9568 O 958.817 0.517791 1.73749 0
M  V30 9569 C 958.865 3.60534 0.0691037 0
M  V30 9570 O 957.969 3.96773 1.12448 0
M  V30 9571 H 957.31 0.660825 -0.064859 0
M  V30 9572 H 959.84 1.87819 -0.811491 0
M  V30 9573 H 959.85 4.0708 0.273826 0
M  V30 9574 H 958.525 4.06516 -0.878514 0
M  V30 9575 H 957.102 3.6193 0.897852 0
M  V30 9576 N 959.287 0.325282 1.54207 0
M  V30 9577 C 960.515 -0.27869 2.05014 0
M  V30 9578 C 960.93 -1.45649 1.20133 0
M  V30 9579 O 960.287 -1.81014 0.232398 0
M  V30 9580 C 960.338 -0.711486 3.54429 0
M  V30 9581 O 960.059 0.419458 4.36087 0
M  V30 9582 C 961.56 -1.37809 4.21336 0
M  V30 9583 H 958.78 -0.0570388 0.668571 0
M  V30 9584 H 961.324 0.47197 1.98979 0
M  V30 9585 H 959.479 -1.41212 3.60746 0
M  V30 9586 H 959.893 0.0781037 5.24442 0
M  V30 9587 H 961.367 -1.63184 5.27328 0
M  V30 9588 H 961.844 -2.32593 3.72555 0
M  V30 9589 H 962.45 -0.719987 4.19161 0
M  V30 9590 N 960.765 -1.57509 0.0534917 0
M  V30 9591 C 961.995 -1.96812 -0.628386 0
M  V30 9592 C 962.403 -0.929808 -1.64776 0
M  V30 9593 O 961.746 0.0941155 -1.83459 0
M  V30 9594 C 961.808 -3.32361 -1.37027 0
M  V30 9595 C 961.472 -4.54185 -0.506465 0
M  V30 9596 C 962.469 -5.19398 0.228412 0
M  V30 9597 C 960.154 -5.00398 -0.43671 0
M  V30 9598 C 962.148 -6.29162 1.02146 0
M  V30 9599 C 959.835 -6.10039 0.360022 0
M  V30 9600 C 960.833 -6.74282 1.08779 0
M  V30 9601 O 960.521 -7.81814 1.87142 0
M  V30 9602 H 960.253 -0.65257 -0.176432 0
M  V30 9603 H 962.807 -2.05067 0.116908 0
M  V30 9604 H 961.037 -3.20667 -2.16125 0
M  V30 9605 H 962.726 -3.56395 -1.94261 0
M  V30 9606 H 963.492 -4.84651 0.184003 0
M  V30 9607 H 959.371 -4.50183 -0.992772 0
M  V30 9608 H 962.915 -6.79238 1.59002 0
M  V30 9609 H 958.812 -6.44222 0.406061 0
M  V30 9610 H 959.58 -7.98602 1.79378 0
M  V30 9611 N 962.243 0.219913 -1.56058 0
M  V30 9612 C 963.153 1.29349 -1.95719 0
M  V30 9613 C 964.169 1.5119 -0.861248 0
M  V30 9614 O 965.345 1.64289 -1.16495 0
M  V30 9615 C 962.41 2.6229 -2.26726 0
M  V30 9616 C 961.471 2.48738 -3.49897 0
M  V30 9617 C 960.704 3.75339 -3.79416 0
M  V30 9618 O 960.927 4.78427 -3.10586 0
M  V30 9619 O 959.861 3.72352 -4.72903 0
M  V30 9620 H 963.687 0.986979 -2.87215 0
M  V30 9621 H 961.272 0.42291 -1.43289 0
M  V30 9622 H 963.154 3.408 -2.47857 0
M  V30 9623 H 961.829 2.92619 -1.38404 0
M  V30 9624 H 960.736 1.68422 -3.34043 0
M  V30 9625 H 962.069 2.23347 -4.38608 0
M  V30 9626 N 963.721 1.49897 0.486681 0
M  V30 9627 C 964.998 1.50614 1.24799 0
M  V30 9628 C 965.378 0.24193 2.09709 0
M  V30 9629 O 964.726 -0.775237 2.14947 0
M  V30 9630 C 964.936 2.79318 2.09243 0
M  V30 9631 C 966.284 3.29371 2.67955 0
M  V30 9632 O 967.308 2.80533 2.19499 0
M  V30 9633 O 966.167 4.14466 3.56202 0
M  V30 9634 H 963.261 0.603447 0.565491 0
M  V30 9635 H 965.807 1.62174 0.499778 0
M  V30 9636 H 964.579 3.62812 1.46572 0
M  V30 9637 H 964.202 2.70687 2.91229 0
M  V30 9638 N 965.199 -0.738761 1.39212 0
M  V30 9639 C 966.61 -1.31684 1.32348 0
M  V30 9640 C 966.961 -1.96195 -0.0139041 0
M  V30 9641 O 966.086 -1.96056 -0.916025 0
M  V30 9642 C 966.681 -2.39444 2.39691 0
M  V30 9643 C 965.24 -2.92935 2.36359 0
M  V30 9644 C 964.387 -1.66465 2.21776 0
M  V30 9645 H 967.338 -0.536543 1.49355 0
M  V30 9646 H 967.359 -3.19744 2.06262 0
M  V30 9647 H 966.871 -1.92463 3.37016 0
M  V30 9648 H 964.972 -3.44207 1.42662 0
M  V30 9649 H 965.085 -3.46306 3.31073 0
M  V30 9650 H 963.449 -1.90657 1.68884 0
M  V30 9651 H 964.232 -1.21541 3.21065 0
M  V30 9652 N 966.677 -1.24326 -0.968545 0
M  V30 9653 C 967.917 -1.09434 -1.72637 0
M  V30 9654 C 968.281 0.360781 -1.8858 0
M  V30 9655 O 969.482 0.631188 -2.61284 0
M  V30 9656 C 967.753 -1.81285 -3.08011 0
M  V30 9657 S 969.312 -1.82113 -3.99225 0
M  V30 9658 H 966.13 -0.391409 -0.593565 0
M  V30 9659 H 968.732 -1.57643 -1.15624 0
M  V30 9660 H 967.436 -2.86274 -2.94067 0
M  V30 9661 H 966.967 -1.33405 -3.7009 0
M  V30 9662 H 968.982 -0.888196 -4.88186 0
M  V30 9663 N 968.156 1.1691 -1.05688 0
M  V30 9664 C 969.088 2.20648 -0.620237 0
M  V30 9665 C 970.101 1.59652 0.318604 0
M  V30 9666 O 971.29 1.78157 0.110553 0
M  V30 9667 C 968.39 3.38716 0.111729 0
M  V30 9668 C 967.563 4.29277 -0.839062 0
M  V30 9669 C 966.622 5.25993 -0.147453 0
M  V30 9670 O 965.648 5.63787 -0.783151 0
M  V30 9671 N 966.85 5.69725 1.11327 0
M  V30 9672 H 969.615 2.58731 -1.51256 0
M  V30 9673 H 967.176 1.31858 -0.939412 0
M  V30 9674 H 969.168 4.00455 0.584657 0
M  V30 9675 H 967.738 2.99189 0.905784 0
M  V30 9676 H 966.958 3.64894 -1.4915 0
M  V30 9677 H 968.246 4.86669 -1.48428 0
M  V30 9678 H 967.644 5.41103 1.64999 0
M  V30 9679 H 966.201 6.33584 1.53018 0
M  V30 9680 N 969.634 0.838594 1.33437 0
M  V30 9681 C 970.597 0.276843 2.27522 0
M  V30 9682 C 971.597 -0.554275 1.50945 0
M  V30 9683 O 972.787 -0.368107 1.70266 0
M  V30 9684 C 969.919 -0.610036 3.35397 0
M  V30 9685 H 971.112 1.10705 2.78719 0
M  V30 9686 H 968.665 0.611657 1.43835 0
M  V30 9687 H 969.4 -1.46269 2.89441 0
M  V30 9688 H 969.185 -0.0153615 3.92097 0
M  V30 9689 H 970.675 -0.996368 4.05539 0
M  V30 9690 N 971.112 -1.45937 0.595003 0
M  V30 9691 C 972.361 -2.01529 0.0829531 0
M  V30 9692 C 972.674 -1.47071 -1.28955 0
M  V30 9693 O 973.88 -1.94561 -1.89363 0
M  V30 9694 C 972.336 -3.59767 0.0976597 0
M  V30 9695 C 971.944 -4.23223 1.46924 0
M  V30 9696 C 973.688 -4.22972 -0.359805 0
M  V30 9697 C 971.595 -5.73576 1.44101 0
M  V30 9698 H 970.525 -0.753508 0.0272425 0
M  V30 9699 H 973.176 -1.67541 0.748473 0
M  V30 9700 H 971.558 -3.90888 -0.634268 0
M  V30 9701 H 972.732 -4.03695 2.22187 0
M  V30 9702 H 971.047 -3.72161 1.86775 0
M  V30 9703 H 973.644 -5.33202 -0.39991 0
M  V30 9704 H 973.987 -3.92765 -1.37991 0
M  V30 9705 H 974.52 -3.96523 0.31845 0
M  V30 9706 H 971.259 -6.08462 2.43831 0
M  V30 9707 H 970.779 -5.95332 0.730767 0
M  V30 9708 H 972.458 -6.36531 1.1592 0
M  V30 9709 N 972.59 -0.333456 -1.54032 0
M  V30 9710 C 974.006 0.0188405 -1.59589 0
M  V30 9711 C 974.206 1.49615 -1.34972 0
M  V30 9712 O 973.262 2.2535 -1.13901 0
M  V30 9713 C 974.575 -0.408273 -2.97915 0
M  V30 9714 C 976.123 -0.359763 -3.10926 0
M  V30 9715 C 976.598 -0.76219 -4.51613 0
M  V30 9716 N 978.089 -0.715981 -4.57633 0
M  V30 9717 C 978.824 -0.999436 -5.64623 0
M  V30 9718 N 978.32 -1.35053 -6.79509 0
M  V30 9719 N 980.113 -0.924343 -5.54448 0
M  V30 9720 H 972.264 -1.29587 -1.68289 0
M  V30 9721 H 974.527 -0.527584 -0.787629 0
M  V30 9722 H 974.233 -1.43793 -3.20962 0
M  V30 9723 H 974.107 0.221685 -3.76548 0
M  V30 9724 H 976.494 0.660703 -2.87609 0
M  V30 9725 H 976.575 -1.02479 -2.34375 0
M  V30 9726 H 976.219 -1.78062 -4.75664 0
M  V30 9727 H 976.149 -0.0747478 -5.26547 0
M  V30 9728 H 978.64 -0.456875 -3.75128 0
M  V30 9729 H 978.953 -1.55194 -7.57057 0
M  V30 9730 H 977.298 -1.38889 -6.80981 0
M  V30 9731 H 980.489 -0.649469 -4.63573 0
M  V30 9732 H 980.662 -1.1486 -6.37739 0
M  V30 9733 N 974.068 1.57479 -0.061844 0
M  V30 9734 C 974.978 2.15645 0.923826 0
M  V30 9735 C 975.994 1.117 1.33413 0
M  V30 9736 O 977.17 1.4392 1.40887 0
M  V30 9737 C 974.235 2.69857 2.17665 0
M  V30 9738 C 973.296 3.88638 1.8237 0
M  V30 9739 C 972.529 4.40256 3.01679 0
M  V30 9740 O 972.752 3.90908 4.15388 0
M  V30 9741 O 971.686 5.31713 2.82073 0
M  V30 9742 H 975.512 3.0021 0.459094 0
M  V30 9743 H 973.097 1.48534 0.160665 0
M  V30 9744 H 974.979 3.04647 2.9115 0
M  V30 9745 H 973.654 1.88357 2.63255 0
M  V30 9746 H 972.561 3.58719 1.06167 0
M  V30 9747 H 973.894 4.71401 1.4157 0
M  V30 9748 N 975.546 -0.211634 1.56173 0
M  V30 9749 C 976.476 -1.26533 1.96244 0
M  V30 9750 C 977.457 -1.48362 0.832028 0
M  V30 9751 O 978.642 -1.60378 1.0951 0
M  V30 9752 C 975.772 -2.61307 2.2877 0
M  V30 9753 C 974.726 -2.54119 3.44395 0
M  V30 9754 C 974.052 -3.93014 3.62552 0
M  V30 9755 C 975.352 -2.08046 4.79076 0
M  V30 9756 H 977.046 -0.932407 2.84511 0
M  V30 9757 H 974.592 -0.447084 1.36884 0
M  V30 9758 H 976.545 -3.35188 2.55396 0
M  V30 9759 H 975.269 -2.96307 1.37367 0
M  V30 9760 H 973.928 -1.82694 3.17834 0
M  V30 9761 H 973.576 -4.25338 2.68508 0
M  V30 9762 H 973.276 -3.89083 4.40327 0
M  V30 9763 H 974.8 -4.68542 3.91537 0
M  V30 9764 H 976.214 -2.71676 5.04842 0
M  V30 9765 H 974.611 -2.15154 5.60204 0
M  V30 9766 H 975.681 -1.03306 4.73768 0
M  V30 9767 N 977.024 -1.50153 -0.478725 0
M  V30 9768 C 977.987 -1.67916 -1.56003 0
M  V30 9769 C 978.987 -0.550111 -1.51097 0
M  V30 9770 O 980.177 -0.817001 -1.53853 0
M  V30 9771 C 977.309 -1.6973 -2.95643 0
M  V30 9772 H 978.502 -2.6438 -1.41573 0
M  V30 9773 H 976.055 -1.39519 -0.704565 0
M  V30 9774 H 976.79 -0.749306 -3.15525 0
M  V30 9775 H 976.575 -2.51745 -3.00611 0
M  V30 9776 H 978.065 -1.85453 -3.74162 0
M  V30 9777 N 978.502 0.731368 -1.39602 0
M  V30 9778 C 979.918 1.03739 -1.21286 0
M  V30 9779 C 980.118 2.01353 -0.0769875 0
M  V30 9780 O 979.174 2.45978 0.570193 0
M  V30 9781 C 980.487 1.59621 -2.54837 0
M  V30 9782 C 982.035 1.71683 -2.61713 0
M  V30 9783 C 982.51 2.30973 -3.95494 0
M  V30 9784 N 984.001 2.38378 -3.97153 0
M  V30 9785 C 984.736 2.852 -4.97442 0
M  V30 9786 N 984.232 3.31891 -6.08129 0
M  V30 9787 N 986.025 2.84441 -4.84819 0
M  V30 9788 H 978.176 0.0840456 -2.12234 0
M  V30 9789 H 980.439 0.0999038 -0.942721 0
M  V30 9790 H 980.145 0.953608 -3.38525 0
M  V30 9791 H 980.019 2.58375 -2.74813 0
M  V30 9792 H 982.406 2.35064 -1.78406 0
M  V30 9793 H 982.487 0.715714 -2.45583 0
M  V30 9794 H 982.131 1.68219 -4.79234 0
M  V30 9795 H 982.061 3.31769 -4.08946 0
M  V30 9796 H 984.552 2.05382 -3.17217 0
M  V30 9797 H 984.865 3.66138 -6.8056 0
M  V30 9798 H 983.21 3.2989 -6.11717 0
M  V30 9799 H 986.401 2.4729 -3.97448 0
M  V30 9800 H 986.574 3.20616 -5.63124 0
M  V30 9801 N 979.98 1.24838 0.961938 0
M  V30 9802 C 980.89 1.06304 2.09133 0
M  V30 9803 C 981.906 0.00221475 1.74 0
M  V30 9804 O 983.082 0.201611 2.00388 0
M  V30 9805 C 980.147 0.676117 3.40043 0
M  V30 9806 C 979.208 1.81407 3.89089 0
M  V30 9807 C 978.441 1.44551 5.13752 0
M  V30 9808 O 978.664 0.337894 5.69398 0
M  V30 9809 O 977.598 2.27316 5.57325 0
M  V30 9810 H 981.424 2.01001 2.27667 0
M  V30 9811 H 979.009 1.0371 1.07539 0
M  V30 9812 H 980.891 0.472124 4.18747 0
M  V30 9813 H 979.566 -0.241667 3.22797 0
M  V30 9814 H 978.473 2.07286 3.11421 0
M  V30 9815 H 979.806 2.71083 4.10822 0
M  V30 9816 N 981.458 -1.16348 1.06306 0
M  V30 9817 C 982.704 -1.87158 0.781007 0
M  V30 9818 C 983.037 -1.81499 -0.690784 0
M  V30 9819 O 982.312 -1.23074 -1.50609 0
M  V30 9820 C 982.595 -3.3672 1.27639 0
M  V30 9821 C 982.448 -3.51069 2.81194 0
M  V30 9822 C 983.767 -4.31122 0.884388 0
M  V30 9823 H 980.886 -0.679586 0.285187 0
M  V30 9824 H 983.528 -1.36756 1.31901 0
M  V30 9825 H 981.678 -3.79775 0.818715 0
M  V30 9826 H 983.35 -3.16952 3.35171 0
M  V30 9827 H 981.593 -2.92976 3.19918 0
M  V30 9828 H 982.264 -4.56105 3.10921 0
M  V30 9829 H 984.74 -3.95969 1.27858 0
M  V30 9830 H 983.616 -5.34279 1.25847 0
M  V30 9831 H 983.877 -4.41598 -0.210673 0
M  V30 9832 N 982.937 -0.845659 -1.3299 0
M  V30 9833 C 984.214 -0.366306 -1.92139 0
M  V30 9834 C 984.594 1.14912 -1.77083 0
M  V30 9835 O 983.942 1.96667 -1.16338 0
M  V30 9836 C 984.152 -0.820716 -3.39213 0
M  V30 9837 C 985.5 -0.832667 -4.16355 0
M  V30 9838 O 986.524 -0.764764 -3.47893 0
M  V30 9839 O 985.383 -0.926658 -5.38586 0
M  V30 9840 H 982.477 -0.105063 -0.820299 0
M  V30 9841 H 985.023 -0.931962 -1.41819 0
M  V30 9842 H 983.795 -1.86357 -3.44074 0
M  V30 9843 H 983.418 -0.232009 -3.96923 0
M  V30 9844 N 984.415 1.45619 -0.602734 0
M  V30 9845 C 985.826 1.85814 -0.181636 0
M  V30 9846 C 986.177 1.5037 1.26029 0
M  V30 9847 O 985.302 0.928068 1.95489 0
M  V30 9848 C 985.897 3.37258 -0.322866 0
M  V30 9849 C 984.456 3.76375 0.043504 0
M  V30 9850 C 983.603 2.69585 -0.649561 0
M  V30 9851 H 986.554 1.36489 -0.809721 0
M  V30 9852 H 986.575 3.77874 0.446279 0
M  V30 9853 H 986.087 3.63024 -1.37241 0
M  V30 9854 H 984.188 3.56226 1.09241 0
M  V30 9855 H 984.301 4.77843 -0.346765 0
M  V30 9856 H 982.665 2.54549 -0.087706 0
M  V30 9857 H 983.448 2.98188 -1.70115 0
M  V30 9858 N 985.893 0.34162 1.53853 0
M  V30 9859 C 986.856 -0.503541 2.236 0
M  V30 9860 C 987.856 -1.02912 1.23554 0
M  V30 9861 O 989.046 -0.918678 1.48007 0
M  V30 9862 C 986.178 -1.70126 2.95415 0
M  V30 9863 H 987.371 0.106437 2.99711 0
M  V30 9864 H 984.924 0.0929408 1.56023 0
M  V30 9865 H 985.659 -2.34999 2.23486 0
M  V30 9866 H 985.444 -1.33161 3.68796 0
M  V30 9867 H 986.934 -2.30077 3.48503 0
M  V30 9868 N 987.371 -1.57444 0.0701946 0
M  V30 9869 C 988.601 -1.97467 -0.607476 0
M  V30 9870 C 989.009 -0.947232 -1.63781 0
M  V30 9871 O 988.352 0.074652 -1.83548 0
M  V30 9872 C 988.414 -3.33795 -1.33495 0
M  V30 9873 C 988.078 -4.54697 -0.458265 0
M  V30 9874 C 989.075 -5.19127 0.283488 0
M  V30 9875 C 986.76 -5.00833 -0.383612 0
M  V30 9876 C 988.754 -6.28043 1.08813 0
M  V30 9877 C 986.441 -6.09622 0.424705 0
M  V30 9878 C 987.439 -6.7309 1.15925 0
M  V30 9879 O 987.127 -7.79785 1.95423 0
M  V30 9880 H 986.859 -0.654405 -0.169501 0
M  V30 9881 H 989.413 -2.04931 0.138651 0
M  V30 9882 H 987.643 -3.22941 -2.12711 0
M  V30 9883 H 989.332 -3.58435 -1.9047 0
M  V30 9884 H 990.098 -4.84428 0.235397 0
M  V30 9885 H 985.977 -4.51211 -0.944968 0
M  V30 9886 H 989.521 -6.77513 1.66197 0
M  V30 9887 H 985.418 -6.43755 0.474366 0
M  V30 9888 H 986.186 -7.96655 1.87838 0
M  V30 9889 N 988.849 0.203349 -1.56283 0
M  V30 9890 C 990.098 0.92315 -1.79334 0
M  V30 9891 C 990.411 1.84765 -0.641977 0
M  V30 9892 O 991.617 2.60745 -0.756584 0
M  V30 9893 C 990.073 1.69184 -3.17655 0
M  V30 9894 C 989.681 0.812581 -4.40569 0
M  V30 9895 C 991.425 2.40177 -3.50022 0
M  V30 9896 C 989.332 1.57967 -5.69913 0
M  V30 9897 H 988.262 0.348442 -0.668659 0
M  V30 9898 H 990.913 0.1766 -1.82648 0
M  V30 9899 H 989.295 2.48197 -3.08568 0
M  V30 9900 H 990.469 0.0616956 -4.60759 0
M  V30 9901 H 988.784 0.21389 -4.1585 0
M  V30 9902 H 991.381 2.98103 -4.4389 0
M  V30 9903 H 991.724 3.13961 -2.73376 0
M  V30 9904 H 992.257 1.68138 -3.6052 0
M  V30 9905 H 988.996 0.884767 -6.49501 0
M  V30 9906 H 988.516 2.3047 -5.53754 0
M  V30 9907 H 990.195 2.13562 -6.10737 0
M  V30 9908 N 990.327 1.50405 0.470755 0
M  V30 9909 C 991.274 1.69293 1.56871 0
M  V30 9910 C 992.244 0.534248 1.57274 0
M  V30 9911 O 993.429 0.764855 1.74799 0
M  V30 9912 C 990.569 1.79338 2.94842 0
M  V30 9913 C 989.682 3.06709 3.04226 0
M  V30 9914 C 988.817 3.07548 4.33114 0
M  V30 9915 C 987.856 4.29372 4.36241 0
M  V30 9916 N 986.993 4.27949 5.56601 0
M  V30 9917 H 991.833 2.63029 1.40071 0
M  V30 9918 H 989.37 1.30386 0.681016 0
M  V30 9919 H 991.328 1.83143 3.74853 0
M  V30 9920 H 989.958 0.890411 3.10277 0
M  V30 9921 H 989.01 3.12374 2.17086 0
M  V30 9922 H 990.322 3.96684 3.02396 0
M  V30 9923 H 989.476 3.10084 5.21472 0
M  V30 9924 H 988.215 2.15404 4.37553 0
M  V30 9925 H 987.22 4.27048 3.4628 0
M  V30 9926 H 988.445 5.22743 4.33493 0
M  V30 9927 H 986.391 3.38658 5.61824 0
M  V30 9928 H 986.308 5.11692 5.56513 0
M  V30 9929 H 987.576 4.34631 6.47083 0
M  V30 9930 N 991.805 -0.723954 1.39988 0
M  V30 9931 C 993.054 -1.47922 1.3712 0
M  V30 9932 C 993.367 -1.95582 -0.0263665 0
M  V30 9933 O 994.573 -2.70918 -0.177652 0
M  V30 9934 C 993.029 -2.67342 2.40949 0
M  V30 9935 C 992.637 -2.26586 3.86475 0
M  V30 9936 C 994.381 -3.45116 2.47174 0
M  V30 9937 C 992.288 -3.42794 4.81919 0
M  V30 9938 H 991.218 -0.555522 0.509815 0
M  V30 9939 H 993.869 -0.788692 1.65686 0
M  V30 9940 H 992.251 -3.38524 2.0547 0
M  V30 9941 H 993.425 -1.62878 4.31054 0
M  V30 9942 H 991.74 -1.61876 3.83647 0
M  V30 9943 H 994.337 -4.31573 3.15672 0
M  V30 9944 H 994.68 -3.8835 1.49966 0
M  V30 9945 H 995.213 -2.80971 2.81602 0
M  V30 9946 H 991.952 -3.046 5.8043 0
M  V30 9947 H 991.472 -4.05445 4.42012 0
M  V30 9948 H 993.151 -4.08977 5.01345 0
M  V30 9949 N 993.283 -1.25346 -0.955304 0
M  V30 9950 C 994.193 -1.07412 -2.08566 0
M  V30 9951 C 995.209 -0.0114424 -1.73996 0
M  V30 9952 O 996.385 -0.212236 -2.00279 0
M  V30 9953 C 993.45 -0.694141 -3.3968 0
M  V30 9954 C 992.511 -1.83468 -3.88121 0
M  V30 9955 C 991.744 -1.47274 -5.12978 0
M  V30 9956 O 991.967 -0.368086 -5.69211 0
M  V30 9957 O 990.901 -2.30269 -5.56111 0
M  V30 9958 H 994.727 -2.02206 -2.26598 0
M  V30 9959 H 992.312 -1.04279 -1.06988 0
M  V30 9960 H 994.194 -0.494325 -4.18491 0
M  V30 9961 H 992.869 0.224545 -3.2292 0
M  V30 9962 H 991.776 -2.08935 -3.10318 0
M  V30 9963 H 993.109 -2.73258 -4.09379 0
M  V30 9964 N 994.761 1.15782 -1.06922 0
M  V30 9965 C 995.671 2.24008 -0.696948 0
M  V30 9966 C 996.687 1.71569 0.289862 0
M  V30 9967 O 997.863 2.00929 0.137585 0
M  V30 9968 C 994.928 3.46568 -0.0957895 0
M  V30 9969 C 993.989 4.14017 -1.13528 0
M  V30 9970 C 993.222 5.30725 -0.562713 0
M  V30 9971 O 993.445 5.66992 0.62259 0
M  V30 9972 O 992.379 5.87572 -1.30549 0
M  V30 9973 H 996.205 2.58174 -1.59938 0
M  V30 9974 H 993.79 1.2342 -0.841889 0
M  V30 9975 H 995.672 4.20731 0.237407 0
M  V30 9976 H 994.347 3.14161 0.780027 0
M  V30 9977 H 993.254 3.41795 -1.52076 0
M  V30 9978 H 994.587 4.50493 -1.98285 0
M  V30 9979 N 996.239 0.8527 1.3254 0
M  V30 9980 C 997.485 0.455798 1.97612 0
M  V30 9981 C 997.818 -0.985616 1.6733 0
M  V30 9982 O 997.093 -1.69129 0.960493 0
M  V30 9983 C 997.376 0.69312 3.53366 0
M  V30 9984 C 997.229 2.18281 3.93285 0
M  V30 9985 C 998.548 0.148236 4.3985 0
M  V30 9986 H 995.667 0.167078 0.717812 0
M  V30 9987 H 998.309 1.07076 1.56954 0
M  V30 9988 H 996.459 0.169677 3.88129 0
M  V30 9989 H 998.131 2.77218 3.68711 0
M  V30 9990 H 996.374 2.66206 3.42515 0
M  V30 9991 H 997.045 2.29957 5.01821 0
M  V30 9992 H 999.521 0.595834 4.11812 0
M  V30 9993 H 998.397 0.343873 5.47822 0
M  V30 9994 H 998.658 -0.948872 4.31797 0
M  V30 9995 N 997.718 -1.45297 0.610449 0
M  V30 9996 C 998.967 -2.0143 0.104323 0
M  V30 9997 C 999.28 -1.48431 -1.27388 0
M  V30 9998 O 1000.49 -1.96558 -1.87289 0
M  V30 9999 C 998.942 -3.59644 0.135812 0
M  V30 10000 C 998.55 -4.2164 1.51405 0
M  V30 10001 C 1000.29 -4.2333 -0.314922 0
M  V30 10002 C 998.201 -5.72015 1.50176 0
M  V30 10003 H 997.131 -0.753176 0.035233 0
M  V30 10004 H 999.782 -1.66738 0.7662 0
M  V30 10005 H 998.164 -3.91538 -0.592773 0
M  V30 10006 H 999.338 -4.01315 2.26457 0
M  V30 10007 H 997.653 -3.70159 1.90712 0
M  V30 10008 H 1000.25 -5.33597 -0.343335 0
M  V30 10009 H 1000.59 -3.94206 -1.33817 0
M  V30 10010 H 1001.13 -3.96163 0.360489 0
M  V30 10011 H 997.865 -6.05842 2.50271 0
M  V30 10012 H 997.385 -5.94523 0.793869 0
M  V30 10013 H 999.064 -6.35266 1.22665 0
M  V30 10014 N 999.196 -0.349774 -1.5367 0
M  V30 10015 C 1000.44 0.244343 -2.00617 0
M  V30 10016 C 1000.76 1.50567 -1.23914 0
M  V30 10017 O 1000.03 1.92784 -0.348016 0
M  V30 10018 H 998.615 0.0932792 -0.741153 0
M  V30 10019 H 1001.28 -0.472367 -1.89089 0
M  V30 10020 H 1000.37 0.482433 -3.08349 0
M  V30 10021 N 1000.67 1.57404 -0.0785433 0
M  V30 10022 C 1001.9 1.98074 0.597862 0
M  V30 10023 C 1002.32 0.95714 1.6274 0
M  V30 10024 O 1001.67 -0.0553728 1.82416 0
M  V30 10025 C 1001.72 3.38815 1.26041 0
M  V30 10026 O 1001.45 4.37254 0.27207 0
M  V30 10027 C 1002.95 3.94397 2.024 0
M  V30 10028 H 1000.17 0.651263 0.161546 0
M  V30 10029 H 1002.71 2.03927 -0.152941 0
M  V30 10030 H 1000.87 3.34028 1.96225 0
M  V30 10031 H 1001.28 5.19136 0.74822 0
M  V30 10032 H 1002.75 4.95075 2.4414 0
M  V30 10033 H 1003.23 3.31308 2.88326 0
M  V30 10034 H 1003.84 4.02607 1.37068 0
M  V30 10035 N 1002.15 -0.195058 1.56388 0
M  V30 10036 C 1003.4 -0.913636 1.8027 0
M  V30 10037 C 1003.72 -1.83791 0.651606 0
M  V30 10038 O 1002.99 -1.931 -0.330057 0
M  V30 10039 H 1001.57 -0.34036 0.664954 0
M  V30 10040 H 1004.23 -0.200559 1.93865 0
M  V30 10041 H 1003.33 -1.50473 2.7343 0
M  V30 10042 N 1003.63 -1.50653 -0.462772 0
M  V30 10043 C 1004.85 -1.66103 -1.24196 0
M  V30 10044 C 1005.28 -0.347421 -1.84864 0
M  V30 10045 O 1004.64 0.689673 -1.6767 0
M  V30 10046 C 1004.69 -2.76027 -2.32037 0
M  V30 10047 O 1003.79 -2.37859 -3.36893 0
M  V30 10048 H 1003.13 -0.554672 -0.365014 0
M  V30 10049 H 1005.66 -1.97076 -0.549734 0
M  V30 10050 H 1005.67 -2.99354 -2.77221 0
M  V30 10051 H 1004.35 -3.71361 -1.87253 0
M  V30 10052 H 1002.92 -2.2501 -2.97363 0
M  V30 10053 N 1005.11 0.71652 -1.4037 0
M  V30 10054 C 1006.36 1.47638 -1.38597 0
M  V30 10055 C 1006.68 1.94496 0.0120141 0
M  V30 10056 O 1005.94 1.68437 0.996373 0
M  V30 10057 C 1006.24 2.71777 -2.32103 0
M  V30 10058 C 1005.9 2.43689 -3.79376 0
M  V30 10059 C 1004.57 2.35739 -4.195 0
M  V30 10060 C 1006.92 2.20099 -4.72447 0
M  V30 10061 C 1004.25 2.02265 -5.50732 0
M  V30 10062 C 1006.6 1.88138 -6.03976 0
M  V30 10063 C 1005.26 1.78669 -6.43143 0
M  V30 10064 H 1004.53 0.540246 -0.507163 0
M  V30 10065 H 1007.18 0.820822 -1.73017 0
M  V30 10066 H 1005.48 3.42166 -1.90865 0
M  V30 10067 H 1007.18 3.29864 -2.28015 0
M  V30 10068 H 1003.77 2.50763 -3.47585 0
M  V30 10069 H 1007.95 2.25198 -4.42266 0
M  V30 10070 H 1003.21 1.93471 -5.79982 0
M  V30 10071 H 1007.38 1.68898 -6.75608 0
M  V30 10072 H 1005.01 1.52498 -7.44747 0
M  V30 10073 N 1006.59 1.25851 0.948643 0
M  V30 10074 C 1007.83 1.10735 1.69062 0
M  V30 10075 C 1008.16 -0.351257 1.9181 0
M  V30 10076 O 1007.43 -1.24867 1.50947 0
M  V30 10077 H 1006.01 0.406796 0.626519 0
M  V30 10078 H 1008.67 1.58066 1.14022 0
M  V30 10079 H 1007.76 1.62033 2.66743 0
M  V30 10080 N 1008.06 -1.15214 1.07534 0
M  V30 10081 C 1008.97 -2.23636 0.708818 0
M  V30 10082 C 1009.99 -1.7172 -0.280759 0
M  V30 10083 O 1011.17 -2.01 -0.126927 0
M  V30 10084 C 1008.23 -3.46512 0.114167 0
M  V30 10085 C 1007.29 -4.13409 1.15722 0
M  V30 10086 C 1006.53 -5.30419 0.59085 0
M  V30 10087 O 1006.75 -5.67314 -0.592512 0
M  V30 10088 O 1005.68 -5.86871 1.33663 0
M  V30 10089 H 1009.51 -2.57322 1.61305 0
M  V30 10090 H 1007.09 -1.22972 0.848422 0
M  V30 10091 H 1008.98 -4.20851 -0.215091 0
M  V30 10092 H 1007.65 -3.1457 -0.763356 0
M  V30 10093 H 1006.56 -3.40984 1.53886 0
M  V30 10094 H 1007.89 -4.49435 2.00671 0
M  V30 10095 N 1009.54 -0.859717 -1.32086 0
M  V30 10096 C 1010.79 -0.466271 -1.97367 0
M  V30 10097 C 1011.12 0.976728 -1.6785 0
M  V30 10098 O 1010.4 1.68618 -0.969449 0
M  V30 10099 C 1010.68 -0.711851 -3.52994 0
M  V30 10100 C 1010.53 -2.20364 -3.92122 0
M  V30 10101 C 1011.85 -0.17156 -4.39765 0
M  V30 10102 H 1008.97 -0.170883 -0.716916 0
M  V30 10103 H 1011.61 -1.07907 -1.56384 0
M  V30 10104 H 1009.76 -0.190258 -3.88034 0
M  V30 10105 H 1011.43 -2.7917 -3.67236 0
M  V30 10106 H 1009.68 -2.68019 -3.41099 0
M  V30 10107 H 1010.35 -2.32615 -5.00594 0
M  V30 10108 H 1012.82 -0.617665 -4.1149 0
M  V30 10109 H 1011.7 -0.372921 -5.47632 0
M  V30 10110 H 1011.96 0.925959 -4.32294 0
M  V30 10111 N 1011.02 1.44971 -0.618145 0
M  V30 10112 C 1012.44 1.57077 -0.282666 0
M  V30 10113 C 1012.64 1.60782 1.21456 0
M  V30 10114 O 1011.69 1.54382 1.99806 0
M  V30 10115 C 1013.01 2.84858 -0.963148 0
M  V30 10116 C 1014.55 2.9855 -0.940062 0
M  V30 10117 C 1015.03 4.29115 -1.60076 0
M  V30 10118 N 1016.52 4.35899 -1.56674 0
M  V30 10119 C 1017.25 5.35617 -2.04701 0
M  V30 10120 N 1016.75 6.41813 -2.6086 0
M  V30 10121 N 1018.54 5.27042 -1.95406 0
M  V30 10122 H 1010.69 1.4081 -1.59017 0
M  V30 10123 H 1012.96 0.673914 -0.666741 0
M  V30 10124 H 1012.66 2.88059 -2.0178 0
M  V30 10125 H 1012.54 3.73966 -0.492901 0
M  V30 10126 H 1014.92 2.94909 0.10607 0
M  V30 10127 H 1015.01 2.10825 -1.44868 0
M  V30 10128 H 1014.65 4.33514 -2.64627 0
M  V30 10129 H 1014.58 5.15675 -1.06708 0
M  V30 10130 H 1017.07 3.59766 -1.15659 0
M  V30 10131 H 1017.38 7.14166 -2.95273 0
M  V30 10132 H 1015.73 6.42534 -2.64905 0
M  V30 10133 H 1018.92 4.42987 -1.51263 0
M  V30 10134 H 1019.09 6.04604 -2.33147 0
M  V30 10135 N 1012.5 0.357919 1.53482 0
M  V30 10136 C 1013.43 -0.526753 2.23065 0
M  V30 10137 C 1014.44 -1.05239 1.24212 0
M  V30 10138 O 1015.63 -0.960078 1.50482 0
M  V30 10139 C 1012.73 -1.73919 2.9087 0
M  V30 10140 C 1011.91 -1.34638 4.16163 0
M  V30 10141 C 1010.96 -2.42005 4.67247 0
M  V30 10142 O 1009.99 -2.04714 5.31113 0
M  V30 10143 N 1011.19 -3.73478 4.44404 0
M  V30 10144 H 1013.96 0.0692386 2.9962 0
M  V30 10145 H 1011.52 0.182726 1.60866 0
M  V30 10146 H 1013.51 -2.45207 3.21956 0
M  V30 10147 H 1012.08 -2.24223 2.17814 0
M  V30 10148 H 1011.3 -0.463667 3.91464 0
M  V30 10149 H 1012.59 -1.06012 4.97633 0
M  V30 10150 H 1011.99 -4.06555 3.93357 0
M  V30 10151 H 1010.54 -4.40893 4.80059 0
M  V30 10152 N 1013.98 -1.5736 0.0868897 0
M  V30 10153 C 1015.22 -1.9367 -0.577598 0
M  V30 10154 C 1015.55 -0.968844 -1.69229 0
M  V30 10155 O 1014.82 -0.0195061 -1.9589 0
M  V30 10156 H 1013.4 -0.714983 -0.216353 0
M  V30 10157 H 1016.06 -1.94335 0.148294 0
M  V30 10158 H 1015.15 -2.95877 -0.993128 0
M  V30 10159 N 1015.45 0.186762 -1.56489 0
M  V30 10160 C 1016.87 0.537933 -1.50261 0
M  V30 10161 C 1017.07 1.85435 -0.788414 0
M  V30 10162 O 1016.13 2.50168 -0.342377 0
M  V30 10163 C 1017.44 0.584965 -2.94955 0
M  V30 10164 C 1018.99 0.673228 -3.05674 0
M  V30 10165 C 1019.46 0.751294 -4.51796 0
M  V30 10166 N 1020.95 0.814599 -4.55981 0
M  V30 10167 C 1021.69 0.895313 -5.66367 0
M  V30 10168 N 1021.18 0.937814 -6.86423 0
M  V30 10169 N 1022.98 0.933145 -5.543 0
M  V30 10170 H 1015.13 -0.676636 -2.01334 0
M  V30 10171 H 1017.39 -0.242079 -0.916571 0
M  V30 10172 H 1017.1 -0.313361 -3.50301 0
M  V30 10173 H 1016.97 1.4368 -3.48763 0
M  V30 10174 H 1019.36 1.56198 -2.50372 0
M  V30 10175 H 1019.44 -0.204976 -2.54977 0
M  V30 10176 H 1019.08 -0.133143 -5.07725 0
M  V30 10177 H 1019.01 1.64542 -5.00233 0
M  V30 10178 H 1021.5 0.790662 -3.69536 0
M  V30 10179 H 1021.82 1.00015 -7.66301 0
M  V30 10180 H 1020.16 0.906351 -6.89065 0
M  V30 10181 H 1023.35 0.896836 -4.59428 0
M  V30 10182 H 1023.53 0.992588 -6.40353 0
M  V30 10183 N 1016.93 1.50896 0.454776 0
M  V30 10184 C 1017.86 1.73885 1.5584 0
M  V30 10185 C 1018.84 0.588172 1.59607 0
M  V30 10186 O 1020.03 0.829054 1.75614 0
M  V30 10187 C 1017.16 1.84796 2.94054 0
M  V30 10188 C 1016.11 3.00111 3.05152 0
M  V30 10189 C 1015.44 2.96183 4.45174 0
M  V30 10190 C 1016.74 4.40365 2.80849 0
M  V30 10191 H 1018.43 2.66292 1.36854 0
M  V30 10192 H 1015.98 1.28142 0.656936 0
M  V30 10193 H 1017.93 1.99462 3.71204 0
M  V30 10194 H 1016.66 0.890235 3.14233 0
M  V30 10195 H 1015.31 2.85121 2.30438 0
M  V30 10196 H 1014.96 1.98224 4.62295 0
M  V30 10197 H 1014.66 3.73608 4.53532 0
M  V30 10198 H 1016.19 3.1292 5.24322 0
M  V30 10199 H 1017.6 4.55795 3.47741 0
M  V30 10200 H 1016 5.19363 3.00636 0
M  V30 10201 H 1017.07 4.51606 1.76579 0
M  V30 10202 N 1018.41 -0.709066 1.40748 0
M  V30 10203 C 1019.34 -1.83412 1.37451 0
M  V30 10204 C 1020.36 -1.60394 0.27884 0
M  V30 10205 O 1021.54 -1.70147 0.539642 0
M  V30 10206 C 1018.64 -3.19935 1.1178 0
M  V30 10207 C 1017.82 -3.70095 2.33128 0
M  V30 10208 C 1016.88 -4.85249 2.03518 0
M  V30 10209 O 1015.9 -4.97563 2.76442 0
M  V30 10210 N 1017.1 -5.7152 1.01714 0
M  V30 10211 H 1019.87 -1.86736 2.34414 0
M  V30 10212 H 1017.43 -0.890863 1.35186 0
M  V30 10213 H 1019.42 -3.94578 0.899464 0
M  V30 10214 H 1017.99 -3.11718 0.234624 0
M  V30 10215 H 1017.21 -2.8651 2.70751 0
M  V30 10216 H 1018.5 -4.00344 3.1401 0
M  V30 10217 H 1017.9 -5.64188 0.413307 0
M  V30 10218 H 1016.46 -6.46119 0.858696 0
M  V30 10219 N 1019.89 -1.26353 -0.941956 0
M  V30 10220 C 1021.3 -1.10774 -1.50287 0
M  V30 10221 C 1021.65 0.312229 -1.937 0
M  V30 10222 O 1020.78 1.20364 -1.79838 0
M  V30 10223 C 1021.37 -2.00473 -2.73123 0
M  V30 10224 C 1019.93 -1.89042 -3.25485 0
M  V30 10225 C 1019.08 -1.93869 -1.98267 0
M  V30 10226 H 1022.03 -1.39454 -0.757523 0
M  V30 10227 H 1022.05 -1.55216 -3.47402 0
M  V30 10228 H 1021.56 -3.03812 -2.41495 0
M  V30 10229 H 1019.66 -0.886341 -3.61904 0
M  V30 10230 H 1019.78 -2.74533 -3.92643 0
M  V30 10231 H 1018.14 -1.37912 -2.14132 0
M  V30 10232 H 1018.92 -2.98837 -1.68972 0
M  V30 10233 N 1021.37 1.14642 -1.08144 0
M  V30 10234 C 1022.78 1.37604 -0.808537 0
M  V30 10235 C 1022.98 1.92868 0.583452 0
M  V30 10236 O 1022.04 2.13964 1.34073 0
M  V30 10237 C 1023.35 2.3396 -1.889 0
M  V30 10238 C 1024.9 2.47605 -1.9147 0
M  V30 10239 C 1025.38 3.47258 -2.98623 0
M  V30 10240 N 1026.87 3.548 -2.97777 0
M  V30 10241 C 1027.6 4.31751 -3.77331 0
M  V30 10242 N 1027.1 5.11966 -4.66757 0
M  V30 10243 N 1028.89 4.2692 -3.65645 0
M  V30 10244 H 1021.04 0.771154 -1.97906 0
M  V30 10245 H 1023.3 0.401694 -0.858688 0
M  V30 10246 H 1023.01 2.00484 -2.88962 0
M  V30 10247 H 1022.88 3.33833 -1.756 0
M  V30 10248 H 1025.27 2.80375 -0.920548 0
M  V30 10249 H 1025.35 1.47702 -2.08848 0
M  V30 10250 H 1025 3.15223 -3.98243 0
M  V30 10251 H 1024.93 4.46935 -2.7849 0
M  V30 10252 H 1027.42 2.97553 -2.3296 0
M  V30 10253 H 1027.73 5.67951 -5.24072 0
M  V30 10254 H 1026.08 5.11245 -4.70801 0
M  V30 10255 H 1029.27 3.63322 -2.95152 0
M  V30 10256 H 1029.44 4.8664 -4.27885 0
M  V30 10257 N 1022.85 0.866709 1.31628 0
M  V30 10258 C 1024.09 0.475086 1.96437 0
M  V30 10259 C 1024.41 -0.975179 1.68865 0
M  V30 10260 O 1023.68 -1.68317 1.0023 0
M  V30 10261 H 1022.26 0.172695 0.726764 0
M  V30 10262 H 1024.93 1.10578 1.60494 0
M  V30 10263 H 1024.02 0.630123 3.05673 0
M  V30 10264 N 1024.32 -1.44642 0.625825 0
M  V30 10265 C 1025.74 -1.56925 0.290992 0
M  V30 10266 C 1025.94 -1.61424 -1.20601 0
M  V30 10267 O 1025 -1.55439 -1.98985 0
M  V30 10268 C 1026.31 -2.84343 0.978242 0
M  V30 10269 C 1027.86 -2.98047 0.955882 0
M  V30 10270 C 1028.33 -4.2826 1.62349 0
M  V30 10271 N 1029.82 -4.35062 1.58983 0
M  V30 10272 C 1030.56 -5.34524 2.07538 0
M  V30 10273 N 1030.05 -6.4042 2.6426 0
M  V30 10274 N 1031.85 -5.25998 1.98198 0
M  V30 10275 H 1024 -1.39965 1.59761 0
M  V30 10276 H 1026.26 -0.670368 0.670306 0
M  V30 10277 H 1025.97 -2.86985 2.03304 0
M  V30 10278 H 1025.84 -3.73699 0.512726 0
M  V30 10279 H 1028.23 -2.94961 -0.0904292 0
M  V30 10280 H 1028.31 -2.10053 1.45984 0
M  V30 10281 H 1027.95 -4.32105 2.66923 0
M  V30 10282 H 1027.88 -5.15102 1.09441 0
M  V30 10283 H 1030.37 -3.59147 1.17565 0
M  V30 10284 H 1030.69 -7.1259 2.99056 0
M  V30 10285 H 1029.03 -6.41121 2.68308 0
M  V30 10286 H 1032.22 -4.42178 1.5361 0
M  V30 10287 H 1032.4 -6.03359 2.3635 0
M  V30 10288 N 1025.8 -0.366053 -1.5329 0
M  V30 10289 C 1027.22 -0.0150149 -1.59593 0
M  V30 10290 C 1027.42 1.46719 -1.38116 0
M  V30 10291 O 1026.47 2.22884 -1.18656 0
M  V30 10292 C 1027.79 -0.471374 -2.96982 0
M  V30 10293 C 1029.33 -0.425634 -3.10092 0
M  V30 10294 C 1029.81 -0.857812 -4.49895 0
M  V30 10295 N 1031.3 -0.81289 -4.56011 0
M  V30 10296 C 1032.04 -1.11898 -5.62376 0
M  V30 10297 N 1031.53 -1.49436 -6.76491 0
M  V30 10298 N 1033.32 -1.04174 -5.52362 0
M  V30 10299 H 1025.48 -1.33127 -1.65502 0
M  V30 10300 H 1027.74 -0.544172 -0.776261 0
M  V30 10301 H 1027.44 -1.50569 -3.1784 0
M  V30 10302 H 1027.32 0.141764 -3.76934 0
M  V30 10303 H 1029.71 0.599548 -2.88945 0
M  V30 10304 H 1029.79 -1.07427 -2.32149 0
M  V30 10305 H 1029.43 -1.88111 -4.7178 0
M  V30 10306 H 1029.36 -0.186419 -5.2627 0
M  V30 10307 H 1031.85 -0.536343 -3.74075 0
M  V30 10308 H 1032.16 -1.71217 -7.53594 0
M  V30 10309 H 1030.51 -1.53302 -6.77882 0
M  V30 10310 H 1033.7 -0.747654 -4.62091 0
M  V30 10311 H 1033.87 -1.28362 -6.35159 0
M  V30 10312 N 1027.28 1.57312 -0.0952337 0
M  V30 10313 C 1028.19 2.17556 0.877877 0
M  V30 10314 C 1029.21 1.14505 1.31014 0
M  V30 10315 O 1030.38 1.46876 1.37802 0
M  V30 10316 C 1027.45 2.74413 2.11892 0
M  V30 10317 C 1026.51 3.92419 1.74085 0
M  V30 10318 C 1025.74 4.46556 2.92273 0
M  V30 10319 O 1025.96 3.99631 4.07002 0
M  V30 10320 O 1024.9 5.37576 2.70732 0
M  V30 10321 H 1028.72 3.01116 0.395312 0
M  V30 10322 H 1026.31 1.48841 0.129123 0
M  V30 10323 H 1028.19 3.10754 2.84622 0
M  V30 10324 H 1026.87 1.93899 2.59201 0
M  V30 10325 H 1025.77 3.6089 0.985346 0
M  V30 10326 H 1027.11 4.74298 1.31539 0
M  V30 10327 N 1028.76 -0.17846 1.56586 0
M  V30 10328 C 1029.69 -1.24547 1.92408 0
M  V30 10329 C 1030.7 -1.40849 0.816421 0
M  V30 10330 O 1031.89 -1.40979 1.09486 0
M  V30 10331 C 1028.99 -2.61523 2.15544 0
M  V30 10332 C 1028.16 -2.66613 3.46751 0
M  V30 10333 C 1027.22 -3.84901 3.588 0
M  V30 10334 O 1026.25 -3.71231 4.31482 0
M  V30 10335 N 1027.45 -5.0106 2.9312 0
M  V30 10336 H 1030.22 -0.941275 2.84535 0
M  V30 10337 H 1027.78 -0.368275 1.57656 0
M  V30 10338 H 1029.77 -3.3911 2.20876 0
M  V30 10339 H 1028.34 -2.84362 1.29835 0
M  V30 10340 H 1027.56 -1.75174 3.5314 0
M  V30 10341 H 1028.85 -2.67018 4.33104 0
M  V30 10342 H 1028.25 -5.15067 2.33928 0
M  V30 10343 H 1026.8 -5.76535 3.04057 0
M  V30 10344 N 1030.24 -1.51135 -0.446768 0
M  V30 10345 C 1031.46 -1.67129 -1.21965 0
M  V30 10346 C 1031.88 -0.36467 -1.85245 0
M  V30 10347 O 1031.24 0.655908 -1.70306 0
M  V30 10348 C 1031.29 -2.78016 -2.31061 0
M  V30 10349 O 1031.01 -4.03615 -1.70371 0
M  V30 10350 C 1032.51 -3.05197 -3.21511 0
M  V30 10351 H 1029.73 -0.561111 -0.367961 0
M  V30 10352 H 1032.27 -1.97499 -0.530517 0
M  V30 10353 H 1030.43 -2.50272 -2.95707 0
M  V30 10354 H 1030.84 -4.65126 -2.424 0
M  V30 10355 H 1032.32 -3.8639 -3.94216 0
M  V30 10356 H 1032.79 -2.17228 -3.81718 0
M  V30 10357 H 1033.4 -3.34565 -2.62577 0
M  V30 10358 N 1031.71 0.701592 -1.41122 0
M  V30 10359 C 1032.96 1.46376 -1.40363 0
M  V30 10360 C 1033.29 1.94197 -0.0105442 0
M  V30 10361 O 1032.57 1.69121 0.960637 0
M  V30 10362 C 1032.85 2.67994 -2.40523 0
M  V30 10363 C 1032.7 2.25977 -3.88914 0
M  V30 10364 C 1034.02 3.70181 -2.38022 0
M  V30 10365 H 1031.14 0.530929 -0.511159 0
M  V30 10366 H 1033.78 0.799588 -1.72356 0
M  V30 10367 H 1031.93 3.24661 -2.13372 0
M  V30 10368 H 1033.61 1.74684 -4.26946 0
M  V30 10369 H 1031.85 1.57826 -4.04071 0
M  V30 10370 H 1032.52 3.13215 -4.54533 0
M  V30 10371 H 1035 3.23174 -2.62103 0
M  V30 10372 H 1033.87 4.52894 -3.10127 0
M  V30 10373 H 1034.13 4.19458 -1.3967 0
M  V30 10374 N 1033.19 1.2685 0.935242 0
M  V30 10375 C 1034.15 1.08975 2.01636 0
M  V30 10376 C 1035.15 0.0361543 1.60759 0
M  V30 10377 O 1036.34 0.280087 1.71934 0
M  V30 10378 C 1033.48 0.658831 3.34473 0
M  V30 10379 H 1034.67 2.04968 2.18925 0
M  V30 10380 H 1032.22 1.09531 1.11501 0
M  V30 10381 H 1032.96 -0.302824 3.22883 0
M  V30 10382 H 1032.74 1.41967 3.65497 0
M  V30 10383 H 1034.23 0.555783 4.13885 0
M  V30 10384 N 1034.67 -1.14067 1.0875 0
M  V30 10385 C 1035.92 -1.84535 0.814235 0
M  V30 10386 C 1036.23 -1.84044 -0.662355 0
M  V30 10387 O 1037.44 -2.50336 -1.05091 0
M  V30 10388 C 1035.89 -3.31273 1.40663 0
M  V30 10389 C 1035.5 -3.40171 2.91526 0
M  V30 10390 C 1037.25 -4.0683 1.21201 0
M  V30 10391 C 1035.15 -4.81141 3.43885 0
M  V30 10392 H 1034.08 -0.691346 0.300926 0
M  V30 10393 H 1036.73 -1.28562 1.30935 0
M  V30 10394 H 1035.12 -3.87005 0.839215 0
M  V30 10395 H 1036.29 -2.94471 3.54434 0
M  V30 10396 H 1034.61 -2.78073 3.09942 0
M  V30 10397 H 1037.2 -5.10891 1.57781 0
M  V30 10398 H 1037.55 -4.16022 0.152092 0
M  V30 10399 H 1038.08 -3.57408 1.74655 0
M  V30 10400 H 1034.82 -4.77138 4.49466 0
M  V30 10401 H 1034.34 -5.27365 2.85738 0
M  V30 10402 H 1036.02 -5.50042 3.40681 0
M  V30 10403 N 1036.15 -0.873678 -1.31166 0
M  V30 10404 C 1037.08 -0.289389 -2.27366 0
M  V30 10405 C 1038.09 0.549667 -1.5324 0
M  V30 10406 O 1039.28 0.371056 -1.74601 0
M  V30 10407 C 1036.38 0.60807 -3.334 0
M  V30 10408 C 1035.56 -0.199379 -4.36945 0
M  V30 10409 C 1034.61 0.626798 -5.22454 0
M  V30 10410 O 1033.64 0.0535121 -5.69175 0
M  V30 10411 N 1034.84 1.93809 -5.47191 0
M  V30 10412 H 1037.61 -1.1161 -2.78143 0
M  V30 10413 H 1035.17 -0.735529 -1.44228 0
M  V30 10414 H 1037.16 1.16656 -3.87522 0
M  V30 10415 H 1035.73 1.33545 -2.82638 0
M  V30 10416 H 1034.95 -0.939316 -3.82845 0
M  V30 10417 H 1036.24 -0.75329 -5.03193 0
M  V30 10418 H 1035.64 2.42693 -5.10995 0
M  V30 10419 H 1034.19 2.44428 -6.04234 0
M  V30 10420 N 1037.63 1.44308 -0.633487 0
M  V30 10421 C 1038.59 2.2912 0.060376 0
M  V30 10422 C 1039.59 1.41166 0.769992 0
M  V30 10423 O 1040.78 1.63012 0.614224 0
M  V30 10424 C 1037.91 3.22798 1.0961 0
M  V30 10425 H 1039.1 2.91958 -0.685617 0
M  V30 10426 H 1036.66 1.51259 -0.393738 0
M  V30 10427 H 1037.39 2.64815 1.87199 0
M  V30 10428 H 1037.18 3.87618 0.591161 0
M  V30 10429 H 1038.67 3.86504 1.58127 0
M  V30 10430 N 1039.1 0.374177 1.53094 0
M  V30 10431 C 1040.03 -0.459976 2.28925 0
M  V30 10432 C 1041.02 -1.07656 1.31698 0
M  V30 10433 O 1042.2 -1.09219 1.60577 0
M  V30 10434 C 1039.33 -1.5954 3.08487 0
M  V30 10435 C 1038.28 -1.10563 4.13473 0
M  V30 10436 C 1037.61 -2.33196 4.81169 0
M  V30 10437 C 1038.91 -0.184275 5.21975 0
M  V30 10438 H 1040.6 0.172692 2.98902 0
M  V30 10439 H 1038.15 0.0844956 1.43752 0
M  V30 10440 H 1040.1 -2.18565 3.60288 0
M  V30 10441 H 1038.83 -2.25543 2.36216 0
M  V30 10442 H 1037.49 -0.53801 3.62631 0
M  V30 10443 H 1037.13 -2.97675 4.05461 0
M  V30 10444 H 1036.83 -2.01094 5.52119 0
M  V30 10445 H 1038.36 -2.92892 5.35767 0
M  V30 10446 H 1039.77 -0.682262 5.69226 0
M  V30 10447 H 1038.17 0.0462746 6.00082 0
M  V30 10448 H 1039.24 0.771152 4.78729 0
M  V30 10449 N 1040.58 -1.57259 0.103575 0
M  V30 10450 C 1041.83 -1.95744 -0.552781 0
M  V30 10451 C 1042.18 -0.985175 -1.65264 0
M  V30 10452 O 1041.48 -0.0125763 -1.91596 0
M  V30 10453 C 1041.67 -3.38549 -1.14538 0
M  V30 10454 C 1041.5 -4.49579 -0.104467 0
M  V30 10455 C 1040.27 -5.04273 0.321999 0
M  V30 10456 C 1042.47 -5.09909 0.670622 0
M  V30 10457 N 1040.45 -5.98866 1.3503 0
M  V30 10458 C 1041.82 -6.00299 1.55052 0
M  V30 10459 C 1043.88 -4.9262 0.723209 0
M  V30 10460 C 1042.58 -6.75254 2.4784 0
M  V30 10461 C 1044.6 -5.68243 1.63873 0
M  V30 10462 C 1043.97 -6.58306 2.50624 0
M  V30 10463 H 1040.07 -0.762769 -0.172359 0
M  V30 10464 H 1042.65 -1.93789 0.188113 0
M  V30 10465 H 1040.82 -3.41182 -1.85606 0
M  V30 10466 H 1042.55 -3.64194 -1.7648 0
M  V30 10467 H 1039.31 -4.73552 -0.0674026 0
M  V30 10468 H 1039.73 -6.50865 1.86291 0
M  V30 10469 H 1044.37 -4.22747 0.0666625 0
M  V30 10470 H 1042.09 -7.44383 3.14516 0
M  V30 10471 H 1045.68 -5.56876 1.68466 0
M  V30 10472 H 1044.56 -7.15799 3.20315 0
M  V30 10473 N 1042.06 0.170153 -1.56679 0
M  V30 10474 C 1043.02 1.19443 -1.95617 0
M  V30 10475 C 1044.02 1.37118 -0.83996 0
M  V30 10476 O 1045.21 1.34504 -1.10699 0
M  V30 10477 C 1042.35 2.55926 -2.25199 0
M  V30 10478 H 1043.54 0.86095 -2.87276 0
M  V30 10479 H 1041.09 0.412646 -1.50755 0
M  V30 10480 H 1041.83 2.94286 -1.36257 0
M  V30 10481 H 1041.61 2.44464 -3.06562 0
M  V30 10482 H 1043.1 3.29742 -2.56242 0
M  V30 10483 N 1043.54 1.5137 0.438746 0
M  V30 10484 C 1044.79 1.63645 1.18595 0
M  V30 10485 C 1045.11 0.354241 1.91755 0
M  V30 10486 O 1044.38 -0.629838 1.85499 0
M  V30 10487 H 1042.96 0.603103 0.440767 0
M  V30 10488 H 1045.62 1.88293 0.503159 0
M  V30 10489 H 1044.72 2.46342 1.9163 0
M  V30 10490 N 1045.02 -0.694098 1.41492 0
M  V30 10491 C 1046.26 -1.45127 1.4065 0
M  V30 10492 C 1046.59 -1.94993 0.0170289 0
M  V30 10493 O 1045.86 -1.71799 -0.941372 0
M  V30 10494 H 1044.44 -0.538493 0.51772 0
M  V30 10495 H 1047.1 -0.821441 1.76744 0
M  V30 10496 H 1046.19 -2.31372 2.0946 0
M  V30 10497 N 1046.49 -1.27344 -0.928501 0
M  V30 10498 C 1047.46 -1.10043 -2.01055 0
M  V30 10499 C 1048.46 -0.0446793 -1.60738 0
M  V30 10500 O 1049.65 -0.289202 -1.71783 0
M  V30 10501 C 1046.78 -0.676559 -3.34119 0
M  V30 10502 H 1047.97 -2.06126 -2.17835 0
M  V30 10503 H 1045.53 -1.10121 -1.10919 0
M  V30 10504 H 1046.26 0.285697 -3.23039 0
M  V30 10505 H 1046.05 -1.43903 -3.64739 0
M  V30 10506 H 1047.54 -0.577725 -4.13584 0
M  V30 10507 N 1047.97 1.13488 -1.09353 0
M  V30 10508 C 1048.88 2.2248 -0.744307 0
M  V30 10509 C 1049.9 1.72145 0.253404 0
M  V30 10510 O 1051.07 2.01176 0.0949339 0
M  V30 10511 C 1048.14 3.46286 -0.16928 0
M  V30 10512 C 1047.2 4.11516 -1.22284 0
M  V30 10513 C 1046.43 5.29412 -0.675161 0
M  V30 10514 O 1046.66 5.68185 0.502182 0
M  V30 10515 O 1045.59 5.8467 -1.42983 0
M  V30 10516 H 1049.42 2.54723 -1.65378 0
M  V30 10517 H 1047 1.21607 -0.867879 0
M  V30 10518 H 1048.88 4.2114 0.14811 0
M  V30 10519 H 1047.56 3.15745 0.713214 0
M  V30 10520 H 1046.47 3.38492 -1.59292 0
M  V30 10521 H 1047.8 4.46186 -2.07796 0
M  V30 10522 N 1049.45 0.880621 1.30701 0
M  V30 10523 C 1050.68 0.510909 2.01009 0
M  V30 10524 C 1051.1 -0.892041 1.65603 0
M  V30 10525 O 1050.46 -1.59045 0.870309 0
M  V30 10526 C 1050.51 0.687759 3.53981 0
M  V30 10527 O 1049.61 -0.268275 4.11526 0
M  V30 10528 H 1048.95 0.201864 0.632572 0
M  V30 10529 H 1051.48 1.18697 1.6665 0
M  V30 10530 H 1051.49 0.585095 4.03783 0
M  V30 10531 H 1050.17 1.71068 3.79089 0
M  V30 10532 H 1048.74 -0.119673 3.72708 0
M  V30 10533 N 1050.93 -1.4397 0.641131 0
M  V30 10534 C 1051.86 -2.33458 -0.04446 0
M  V30 10535 C 1052.84 -1.48781 -0.824507 0
M  V30 10536 O 1054.03 -1.77477 -0.788397 0
M  V30 10537 C 1051.16 -3.31989 -1.01984 0
M  V30 10538 C 1050.11 -4.2656 -0.350745 0
M  V30 10539 C 1049.44 -5.15036 -1.43673 0
M  V30 10540 C 1050.74 -5.16897 0.749299 0
M  V30 10541 H 1052.43 -2.91034 0.702832 0
M  V30 10542 H 1049.98 -1.39942 0.339435 0
M  V30 10543 H 1051.93 -3.93483 -1.50828 0
M  V30 10544 H 1050.65 -2.72643 -1.79815 0
M  V30 10545 H 1049.31 -3.66413 0.117139 0
M  V30 10546 H 1048.96 -4.52037 -2.20617 0
M  V30 10547 H 1048.66 -5.79125 -0.994358 0
M  V30 10548 H 1050.18 -5.79403 -1.92678 0
M  V30 10549 H 1051.6 -5.7227 0.343534 0
M  V30 10550 H 1049.99 -5.89643 1.11541 0
M  V30 10551 H 1051.06 -4.5731 1.61232 0
M  V30 10552 N 1052.41 -0.382291 -1.52893 0
M  V30 10553 C 1053.34 0.491199 -2.23875 0
M  V30 10554 C 1054.35 1.03249 -1.25871 0
M  V30 10555 O 1055.54 0.936016 -1.5199 0
M  V30 10556 C 1052.64 1.6927 -2.936 0
M  V30 10557 C 1051.81 1.28 -4.18252 0
M  V30 10558 C 1050.87 2.34541 -4.71038 0
M  V30 10559 O 1049.9 1.96239 -5.34302 0
M  V30 10560 N 1051.1 3.6636 -4.50289 0
M  V30 10561 H 1053.87 -0.116897 -2.99472 0
M  V30 10562 H 1051.43 -0.208296 -1.60554 0
M  V30 10563 H 1053.42 2.40054 -3.25816 0
M  V30 10564 H 1051.99 2.20729 -2.21354 0
M  V30 10565 H 1051.21 0.40133 -3.92152 0
M  V30 10566 H 1052.5 0.98082 -4.99257 0
M  V30 10567 H 1051.9 4.00245 -3.99775 0
M  V30 10568 H 1050.45 4.332 -4.87013 0
M  V30 10569 N 1053.89 1.57202 -0.111913 0
M  V30 10570 C 1054.82 2.10634 0.877983 0
M  V30 10571 C 1055.8 1.02098 1.26549 0
M  V30 10572 O 1056.98 1.29707 1.36779 0
M  V30 10573 C 1054.11 2.59721 2.174 0
M  V30 10574 C 1053.15 3.80074 1.93509 0
M  V30 10575 S 1053.99 5.22834 1.1578 0
M  V30 10576 C 1055.14 5.75284 2.46576 0
M  V30 10577 H 1055.38 2.94268 0.423483 0
M  V30 10578 H 1052.91 1.54065 0.101721 0
M  V30 10579 H 1054.87 2.88657 2.91868 0
M  V30 10580 H 1053.53 1.76281 2.59969 0
M  V30 10581 H 1052.72 4.12545 2.89522 0
M  V30 10582 H 1052.32 3.51718 1.27164 0
M  V30 10583 H 1054.61 5.84576 3.42457 0
M  V30 10584 H 1055.56 6.73493 2.1866 0
M  V30 10585 H 1055.97 5.03308 2.55619 0
M  V30 10586 N 1055.36 -0.161842 1.56767 0
M  V30 10587 C 1056.59 -0.892247 1.86672 0
M  V30 10588 C 1057.01 -1.75407 0.69841 0
M  V30 10589 O 1056.36 -1.7945 -0.332251 0
M  V30 10590 C 1056.41 -1.7612 3.15696 0
M  V30 10591 O 1056.14 -0.934131 4.28025 0
M  V30 10592 C 1057.64 -2.60046 3.59014 0
M  V30 10593 H 1054.86 -0.258747 0.619105 0
M  V30 10594 H 1057.4 -0.159089 2.0388 0
M  V30 10595 H 1055.56 -2.44759 3.00286 0
M  V30 10596 H 1055.97 -1.52931 5.01709 0
M  V30 10597 H 1057.44 -3.16618 4.5217 0
M  V30 10598 H 1057.92 -3.35374 2.83586 0
M  V30 10599 H 1058.53 -1.96724 3.77067 0
M  V30 10600 N 1056.84 -1.516 -0.430713 0
M  V30 10601 C 1058.09 -1.64596 -1.17959 0
M  V30 10602 C 1058.42 -0.365382 -1.91037 0
M  V30 10603 O 1057.67 0.650826 -1.84561 0
M  V30 10604 C 1057.97 -2.804 -2.21609 0
M  V30 10605 C 1057.64 -4.19431 -1.65495 0
M  V30 10606 C 1056.3 -4.57252 -1.49915 0
M  V30 10607 C 1058.65 -5.0616 -1.24304 0
M  V30 10608 C 1055.98 -5.79501 -0.916276 0
M  V30 10609 C 1058.33 -6.28995 -0.674437 0
M  V30 10610 C 1056.99 -6.65582 -0.505591 0
M  V30 10611 H 1056.26 -0.602301 -0.431642 0
M  V30 10612 H 1058.91 -1.8565 -0.469726 0
M  V30 10613 H 1057.22 -2.53595 -2.98658 0
M  V30 10614 H 1058.91 -2.87654 -2.79385 0
M  V30 10615 H 1055.5 -3.89615 -1.78599 0
M  V30 10616 H 1059.69 -4.77541 -1.35159 0
M  V30 10617 H 1054.94 -6.0649 -0.77328 0
M  V30 10618 H 1059.12 -6.95536 -0.346779 0
M  V30 10619 H 1056.74 -7.60182 -0.0518188 0
M  V30 10620 N 1058.32 0.686584 -1.41858 0
M  V30 10621 C 1059.25 1.81264 -1.47193 0
M  V30 10622 C 1060.23 1.66875 -0.329657 0
M  V30 10623 O 1061.42 1.86473 -0.542347 0
M  V30 10624 C 1058.55 3.19472 -1.36216 0
M  V30 10625 C 1057.5 3.4858 -2.48347 0
M  V30 10626 C 1056.83 4.86239 -2.22432 0
M  V30 10627 C 1058.13 3.46653 -3.90678 0
M  V30 10628 H 1059.82 1.77057 -2.41436 0
M  V30 10629 H 1057.37 0.850415 -1.16206 0
M  V30 10630 H 1059.32 3.97969 -1.38558 0
M  V30 10631 H 1058.04 3.24327 -0.384611 0
M  V30 10632 H 1056.7 2.72437 -2.45303 0
M  V30 10633 H 1056.35 4.8773 -1.22999 0
M  V30 10634 H 1056.05 5.06677 -2.97577 0
M  V30 10635 H 1057.57 5.67034 -2.26505 0
M  V30 10636 H 1058.99 4.15139 -3.95389 0
M  V30 10637 H 1057.38 3.78625 -4.65578 0
M  V30 10638 H 1058.45 2.45451 -4.18189 0
M  V30 10639 N 1059.8 1.27835 0.921735 0
M  V30 10640 C 1061.05 1.14296 1.66676 0
M  V30 10641 C 1061.37 -0.310493 1.92512 0
M  V30 10642 O 1060.64 -1.21637 1.53562 0
M  V30 10643 H 1059.22 0.419994 0.617749 0
M  V30 10644 H 1061.88 1.60449 1.10644 0
M  V30 10645 H 1060.97 1.67654 2.63246 0
M  V30 10646 N 1061.28 -1.12907 1.09954 0
M  V30 10647 C 1062.69 -1.363 0.830326 0
M  V30 10648 C 1062.89 -1.93772 -0.552694 0
M  V30 10649 O 1061.95 -2.1607 -1.30652 0
M  V30 10650 C 1063.26 -2.30925 1.92598 0
M  V30 10651 C 1064.81 -2.44528 1.95385 0
M  V30 10652 C 1065.28 -3.42464 3.0411 0
M  V30 10653 N 1066.77 -3.50018 3.03384 0
M  V30 10654 C 1067.51 -4.25693 3.84152 0
M  V30 10655 N 1067.01 -5.04476 4.74843 0
M  V30 10656 N 1068.8 -4.21049 3.7239 0
M  V30 10657 H 1060.95 -0.739571 1.99108 0
M  V30 10658 H 1063.21 -0.387983 0.86497 0
M  V30 10659 H 1062.92 -1.95861 2.92115 0
M  V30 10660 H 1062.79 -3.30997 1.80889 0
M  V30 10661 H 1065.18 -2.78875 0.965037 0
M  V30 10662 H 1065.26 -1.44361 2.11172 0
M  V30 10663 H 1064.9 -3.08847 4.03207 0
M  V30 10664 H 1064.83 -4.42448 2.85565 0
M  V30 10665 H 1067.33 -2.93809 2.37665 0
M  V30 10666 H 1067.64 -5.59541 5.33042 0
M  V30 10667 H 1065.98 -5.0369 4.78875 0
M  V30 10668 H 1069.17 -3.5858 3.00895 0
M  V30 10669 H 1069.35 -4.79771 4.35572 0
M  V30 10670 N 1062.75 -0.88754 -1.30232 0
M  V30 10671 C 1063.72 -0.361095 -2.26338 0
M  V30 10672 C 1064.72 0.497871 -1.52898 0
M  V30 10673 O 1065.91 0.30466 -1.71515 0
M  V30 10674 C 1063.04 0.485135 -3.3743 0
M  V30 10675 H 1064.23 -1.20973 -2.74419 0
M  V30 10676 H 1061.78 -0.664619 -1.41466 0
M  V30 10677 H 1062.52 1.35425 -2.9467 0
M  V30 10678 H 1062.3 -0.130173 -3.91884 0
M  V30 10679 H 1063.79 0.845169 -4.08958 0
M  V30 10680 N 1064.23 1.43628 -0.648757 0
M  V30 10681 C 1065.2 2.29172 0.0360713 0
M  V30 10682 C 1066.2 1.41974 0.754976 0
M  V30 10683 O 1067.39 1.63654 0.5969 0
M  V30 10684 C 1064.52 3.23942 1.0618 0
M  V30 10685 H 1065.71 2.91214 -0.716544 0
M  V30 10686 H 1063.26 1.50833 -0.409759 0
M  V30 10687 H 1064 2.66786 1.8438 0
M  V30 10688 H 1063.78 3.88223 0.550016 0
M  V30 10689 H 1065.27 3.8816 1.54019 0
M  V30 10690 N 1065.71 0.390394 1.52688 0
M  V30 10691 C 1066.96 -0.191729 2.01892 0
M  V30 10692 C 1067.29 -1.4637 1.27631 0
M  V30 10693 O 1066.56 -1.90809 0.377094 0
M  V30 10694 C 1066.85 -0.458535 3.57169 0
M  V30 10695 C 1066.7 0.828796 4.42098 0
M  V30 10696 C 1068.02 -1.2487 4.22014 0
M  V30 10697 H 1065.14 -0.0682091 0.733837 0
M  V30 10698 H 1067.78 0.520176 1.82741 0
M  V30 10699 H 1065.93 -1.06498 3.73618 0
M  V30 10700 H 1067.6 1.46562 4.37398 0
M  V30 10701 H 1065.85 1.44388 4.09066 0
M  V30 10702 H 1066.52 0.596746 5.48765 0
M  V30 10703 H 1068.99 -0.735452 4.09549 0
M  V30 10704 H 1067.87 -1.40412 5.30637 0
M  V30 10705 H 1068.13 -2.2642 3.79719 0
M  V30 10706 N 1067.19 -1.57141 0.120249 0
M  V30 10707 C 1068.12 -2.18398 -0.826112 0
M  V30 10708 C 1069.1 -1.12439 -1.27638 0
M  V30 10709 O 1070.28 -1.40679 -1.33877 0
M  V30 10710 C 1067.41 -2.78438 -2.0758 0
M  V30 10711 C 1066.37 -3.89991 -1.76327 0
M  V30 10712 C 1065.69 -4.36844 -3.08336 0
M  V30 10713 C 1066.99 -5.12031 -1.03062 0
M  V30 10714 H 1068.69 -2.97731 -0.315656 0
M  V30 10715 H 1066.23 -1.43213 -0.150387 0
M  V30 10716 H 1068.19 -3.19951 -2.74243 0
M  V30 10717 H 1066.91 -1.96396 -2.60953 0
M  V30 10718 H 1065.57 -3.49055 -1.12053 0
M  V30 10719 H 1065.22 -3.51659 -3.59646 0
M  V30 10720 H 1064.92 -5.1207 -2.88199 0
M  V30 10721 H 1066.44 -4.81009 -3.76116 0
M  V30 10722 H 1067.86 -5.50555 -1.59881 0
M  V30 10723 H 1066.25 -5.92848 -0.930146 0
M  V30 10724 H 1067.32 -4.84897 -0.017582 0
M  V30 10725 N 1068.67 0.153526 -1.5685 0
M  V30 10726 C 1069.91 0.865519 -1.82629 0
M  V30 10727 C 1070.24 1.81999 -0.700105 0
M  V30 10728 O 1069.51 1.93907 0.278744 0
M  V30 10729 H 1068.09 0.32261 -0.673745 0
M  V30 10730 H 1070.75 0.149088 -1.94329 0
M  V30 10731 H 1069.84 1.43171 -2.77324 0
M  V30 10732 N 1070.14 1.51827 0.422667 0
M  V30 10733 C 1071.08 1.70409 1.53275 0
M  V30 10734 C 1072.09 0.584584 1.51942 0
M  V30 10735 O 1073.28 0.859349 1.56453 0
M  V30 10736 C 1070.38 1.717 2.92185 0
M  V30 10737 C 1069.55 3.00472 3.17861 0
M  V30 10738 C 1068.61 2.93755 4.36571 0
M  V30 10739 O 1067.64 3.67682 4.3451 0
M  V30 10740 N 1068.84 2.10612 5.40946 0
M  V30 10741 H 1071.6 2.66176 1.37734 0
M  V30 10742 H 1069.16 1.49895 0.611799 0
M  V30 10743 H 1071.16 1.64756 3.69645 0
M  V30 10744 H 1069.73 0.834655 3.01251 0
M  V30 10745 H 1068.95 3.21171 2.28567 0
M  V30 10746 H 1070.23 3.85684 3.31851 0
M  V30 10747 H 1069.63 1.49954 5.45463 0
M  V30 10748 H 1068.19 2.09535 6.17202 0
M  V30 10749 N 1071.62 -0.679052 1.4222 0
M  V30 10750 C 1072.87 -1.43912 1.42463 0
M  V30 10751 C 1073.2 -1.9446 0.0395574 0
M  V30 10752 O 1072.45 -1.71019 -0.951365 0
M  V30 10753 C 1072.75 -2.65528 2.39227 0
M  V30 10754 C 1072.42 -2.33545 3.85704 0
M  V30 10755 C 1071.08 -2.24534 4.25603 0
M  V30 10756 C 1073.43 -2.07496 4.78116 0
M  V30 10757 C 1070.76 -1.87592 5.55901 0
M  V30 10758 C 1073.11 -1.72059 6.08752 0
M  V30 10759 C 1071.78 -1.61555 6.47654 0
M  V30 10760 H 1071.05 -0.52661 0.521309 0
M  V30 10761 H 1073.69 -0.774661 1.75132 0
M  V30 10762 H 1072 -3.36985 1.9987 0
M  V30 10763 H 1073.69 -3.23702 2.36681 0
M  V30 10764 H 1070.28 -2.4146 3.54112 0
M  V30 10765 H 1074.47 -2.13393 4.48082 0
M  V30 10766 H 1069.72 -1.78026 5.84908 0
M  V30 10767 H 1073.9 -1.50926 6.79849 0
M  V30 10768 H 1071.53 -1.32699 7.48529 0
M  V30 10769 N 1073.1 -1.28322 -0.914942 0
M  V30 10770 C 1074.03 -1.07947 -2.02188 0
M  V30 10771 C 1075.05 -0.0315743 -1.62769 0
M  V30 10772 O 1076.23 -0.274503 -1.76377 0
M  V30 10773 C 1073.33 -0.61805 -3.33217 0
M  V30 10774 C 1072.51 -1.74109 -4.01254 0
M  V30 10775 C 1071.57 -1.27325 -5.10563 0
M  V30 10776 O 1070.59 -1.97526 -5.33828 0
M  V30 10777 N 1071.79 -0.1358 -5.80341 0
M  V30 10778 H 1074.56 -2.03275 -2.20225 0
M  V30 10779 H 1072.12 -1.20059 -1.08616 0
M  V30 10780 H 1074.11 -0.288693 -4.03669 0
M  V30 10781 H 1072.68 0.242348 -3.11659 0
M  V30 10782 H 1071.9 -2.2401 -3.24366 0
M  V30 10783 H 1073.19 -2.49448 -4.43456 0
M  V30 10784 H 1072.59 0.449846 -5.63909 0
M  V30 10785 H 1071.15 0.134289 -6.51662 0
M  V30 10786 N 1074.58 1.12322 -1.10551 0
M  V30 10787 C 1075.53 2.16177 -0.724679 0
M  V30 10788 C 1076.51 1.58674 0.266739 0
M  V30 10789 O 1077.7 1.7684 0.0752872 0
M  V30 10790 C 1074.83 3.4293 -0.159413 0
M  V30 10791 C 1073.92 4.07413 -1.17794 0
M  V30 10792 N 1074.31 4.46889 -2.36905 0
M  V30 10793 C 1072.61 4.34209 -1.01874 0
M  V30 10794 C 1073.31 4.97291 -3.01789 0
M  V30 10795 N 1072.29 4.92871 -2.29302 0
M  V30 10796 H 1076.09 2.44466 -1.63136 0
M  V30 10797 H 1073.6 1.2924 -0.983407 0
M  V30 10798 H 1075.6 4.16693 0.131502 0
M  V30 10799 H 1074.26 3.16109 0.741975 0
M  V30 10800 H 1075.27 4.39219 -2.74422 0
M  V30 10801 H 1071.95 4.17141 -0.173013 0
M  V30 10802 H 1073.34 5.3754 -4.03114 0
M  V30 10803 N 1076.06 0.894434 1.2976 0
M  V30 10804 C 1077.47 0.566892 1.77885 0
M  V30 10805 C 1077.82 -0.917289 1.73437 0
M  V30 10806 O 1076.94 -1.71707 1.31703 0
M  V30 10807 C 1077.54 1.02227 3.2301 0
M  V30 10808 C 1076.1 0.745978 3.68934 0
M  V30 10809 C 1075.24 1.19993 2.49994 0
M  V30 10810 H 1078.2 1.0777 1.16496 0
M  V30 10811 H 1078.22 0.355281 3.78838 0
M  V30 10812 H 1077.73 2.1025 3.26215 0
M  V30 10813 H 1075.83 -0.321866 3.71207 0
M  V30 10814 H 1075.94 1.34017 4.59974 0
M  V30 10815 H 1074.31 0.619047 2.47063 0
M  V30 10816 H 1075.09 2.28811 2.55931 0
M  V30 10817 N 1077.53 -1.43282 0.656365 0
M  V30 10818 C 1078.48 -2.32556 -0.0452037 0
M  V30 10819 C 1079.48 -1.48789 -0.80982 0
M  V30 10820 O 1080.68 -1.64979 -0.719865 0
M  V30 10821 H 1077.06 -0.751258 -0.0334043 0
M  V30 10822 H 1079.03 -2.89448 0.725423 0
M  V30 10823 C 1077.78 -3.33138 -0.995706 0
M  V30 10824 H 1077.1 -3.97622 -0.416774 0
M  V30 10825 H 1078.54 -3.98231 -1.45562 0
M  V30 10826 C 1077 -2.63978 -2.09325 0
M  V30 10827 O 1077.53 -2.45769 -3.17743 0
M  V30 10828 N 1075.74 -2.23301 -1.8597 0
M  V30 10829 H 1075.28 -2.38312 -0.97802 0
M  V30 10830 H 1075.24 -1.77358 -2.59599 0
M  V30 10831 N 1079.01 -0.398486 -1.52479 0
M  V30 10832 C 1080.26 0.182046 -2.00877 0
M  V30 10833 C 1080.58 1.47128 -1.2889 0
M  V30 10834 O 1081.78 2.13242 -1.68048 0
M  V30 10835 C 1080.24 0.374978 -3.57941 0
M  V30 10836 C 1079.85 -0.901544 -4.38835 0
M  V30 10837 C 1081.59 0.911378 -4.14601 0
M  V30 10838 C 1079.5 -0.676385 -5.87519 0
M  V30 10839 H 1078.43 0.0718068 -0.750573 0
M  V30 10840 H 1081.08 -0.522297 -1.7591 0
M  V30 10841 H 1079.46 1.14139 -3.79194 0
M  V30 10842 H 1080.63 -1.67329 -4.29346 0
M  V30 10843 H 1078.95 -1.36357 -3.93441 0
M  V30 10844 H 1081.55 1.09569 -5.23353 0
M  V30 10845 H 1081.89 1.88306 -3.71277 0
M  V30 10846 H 1082.42 0.204296 -3.97275 0
M  V30 10847 H 1079.16 -1.61933 -6.35184 0
M  V30 10848 H 1078.68 0.0562542 -5.99774 0
M  V30 10849 H 1080.36 -0.314454 -6.46235 0
M  V30 10850 N 1080.49 1.57075 -0.12858 0
M  V30 10851 C 1081.42 2.18833 0.814519 0
M  V30 10852 C 1082.4 1.13114 1.2704 0
M  V30 10853 O 1083.59 1.41387 1.33129 0
M  V30 10854 C 1080.72 2.79535 2.06101 0
M  V30 10855 C 1079.67 3.9092 1.74257 0
M  V30 10856 C 1079 4.38473 3.06015 0
M  V30 10857 C 1080.3 5.1257 1.00345 0
M  V30 10858 H 1081.99 2.97895 0.299862 0
M  V30 10859 H 1079.54 1.4329 0.14279 0
M  V30 10860 H 1081.49 3.21401 2.72543 0
M  V30 10861 H 1080.21 1.97777 2.59907 0
M  V30 10862 H 1078.87 3.49645 1.102 0
M  V30 10863 H 1078.52 3.53561 3.57776 0
M  V30 10864 H 1078.22 5.13591 2.85479 0
M  V30 10865 H 1079.75 4.82997 3.7356 0
M  V30 10866 H 1081.16 5.51395 1.56959 0
M  V30 10867 H 1079.56 5.93333 0.898693 0
M  V30 10868 H 1080.63 4.84899 -0.0081335 0
M  V30 10869 N 1081.97 -0.145205 1.5693 0
M  V30 10870 C 1083.39 -0.497905 1.51635 0
M  V30 10871 C 1083.59 -1.8328 0.837301 0
M  V30 10872 O 1082.64 -2.49172 0.408584 0
M  V30 10873 C 1083.95 -0.506557 2.96403 0
M  V30 10874 C 1085.5 -0.591947 3.07352 0
M  V30 10875 C 1085.98 -0.631244 4.53629 0
M  V30 10876 N 1087.47 -0.693417 4.5798 0
M  V30 10877 C 1088.2 -0.744836 5.68542 0
M  V30 10878 N 1087.7 -0.755492 6.88668 0
M  V30 10879 N 1089.49 -0.785854 5.5658 0
M  V30 10880 H 1081.64 0.729779 1.99469 0
M  V30 10881 H 1083.91 0.266295 0.90983 0
M  V30 10882 H 1083.61 0.406127 3.49347 0
M  V30 10883 H 1083.49 -1.34383 3.5245 0
M  V30 10884 H 1085.87 -1.49505 2.54425 0
M  V30 10885 H 1085.95 0.272507 2.54344 0
M  V30 10886 H 1085.6 0.26771 5.07194 0
M  V30 10887 H 1085.53 -1.51221 5.0442 0
M  V30 10888 H 1088.02 -0.692408 3.71503 0
M  V30 10889 H 1088.33 -0.796624 7.68683 0
M  V30 10890 H 1086.68 -0.723339 6.91226 0
M  V30 10891 H 1089.87 -0.774712 4.61645 0
M  V30 10892 H 1090.04 -0.822461 6.42759 0
M  V30 10893 N 1083.45 -1.52049 -0.414609 0
M  V30 10894 C 1084.38 -1.77956 -1.51175 0
M  V30 10895 C 1085.36 -0.630282 -1.57992 0
M  V30 10896 O 1086.54 -0.875324 -1.73354 0
M  V30 10897 C 1083.67 -1.92527 -2.89051 0
M  V30 10898 C 1082.63 -3.08096 -2.97087 0
M  V30 10899 C 1081.95 -3.07882 -4.37164 0
M  V30 10900 C 1083.25 -4.47656 -2.69075 0
M  V30 10901 H 1084.95 -2.69827 -1.29746 0
M  V30 10902 H 1082.49 -1.29839 -0.62273 0
M  V30 10903 H 1084.45 -2.09234 -3.65786 0
M  V30 10904 H 1083.17 -0.973235 -3.11762 0
M  V30 10905 H 1081.83 -2.91131 -2.22797 0
M  V30 10906 H 1081.48 -2.10411 -4.56877 0
M  V30 10907 H 1081.18 -3.85501 -4.43467 0
M  V30 10908 H 1082.7 -3.26712 -5.15841 0
M  V30 10909 H 1084.12 -4.64855 -3.35534 0
M  V30 10910 H 1082.51 -5.27151 -2.8676 0
M  V30 10911 H 1083.58 -4.56129 -1.64544 0
M  V30 10912 N 1084.93 0.6715 -1.42579 0
M  V30 10913 C 1085.84 1.81435 -1.48723 0
M  V30 10914 C 1086.85 1.69895 -0.375716 0
M  V30 10915 O 1088.03 1.91388 -0.627115 0
M  V30 10916 C 1085.09 3.17599 -1.39038 0
M  V30 10917 C 1084.15 3.41071 -2.60709 0
M  V30 10918 C 1083.39 4.7074 -2.51476 0
M  V30 10919 O 1083.61 5.48868 -1.55243 0
M  V30 10920 O 1082.54 4.95528 -3.41666 0
M  V30 10921 H 1086.37 1.79206 -2.45191 0
M  V30 10922 H 1083.95 0.827666 -1.24379 0
M  V30 10923 H 1085.84 3.98847 -1.3601 0
M  V30 10924 H 1084.51 3.20458 -0.456966 0
M  V30 10925 H 1083.42 2.59659 -2.69311 0
M  V30 10926 H 1084.75 3.43045 -3.5296 0
M  V30 10927 N 1086.4 1.28806 0.908124 0
M  V30 10928 C 1087.65 1.16058 1.65454 0
M  V30 10929 C 1087.97 -0.290057 1.92831 0
M  V30 10930 O 1087.24 -1.20001 1.54843 0
M  V30 10931 H 1085.82 0.426522 0.61326 0
M  V30 10932 H 1088.48 1.61614 1.08936 0
M  V30 10933 H 1087.58 1.70437 2.61453 0
M  V30 10934 N 1087.88 -1.11734 1.11145 0
M  V30 10935 C 1089.13 -1.83677 0.859684 0
M  V30 10936 C 1089.46 -1.84265 -0.613182 0
M  V30 10937 O 1088.74 -1.29351 -1.45254 0
M  V30 10938 C 1089.02 -3.31003 1.41805 0
M  V30 10939 C 1088.87 -3.38827 2.95831 0
M  V30 10940 C 1090.19 -4.26984 1.06645 0
M  V30 10941 H 1087.31 -0.666879 0.313754 0
M  V30 10942 H 1089.95 -1.31038 1.37583 0
M  V30 10943 H 1088.1 -3.75961 0.979054 0
M  V30 10944 H 1089.77 -3.02451 3.48312 0
M  V30 10945 H 1088.02 -2.79143 3.32056 0
M  V30 10946 H 1088.69 -4.42508 3.29986 0
M  V30 10947 H 1091.16 -3.9019 1.44537 0
M  V30 10948 H 1090.04 -5.2846 1.48394 0
M  V30 10949 H 1090.3 -4.42094 -0.0231866 0
M  V30 10950 N 1089.36 -0.901303 -1.29284 0
M  V30 10951 C 1090.61 -0.528826 -1.95784 0
M  V30 10952 C 1090.94 0.922833 -1.70873 0
M  V30 10953 O 1090.21 1.65448 -1.0226 0
M  V30 10954 C 1090.5 -0.823793 -3.50551 0
M  V30 10955 C 1090.35 -2.32727 -3.84913 0
M  V30 10956 C 1091.67 -0.311382 -4.38997 0
M  V30 10957 H 1088.79 -0.193604 -0.711116 0
M  V30 10958 H 1091.43 -1.12828 -1.52872 0
M  V30 10959 H 1089.58 -0.313612 -3.87232 0
M  V30 10960 H 1091.25 -2.90712 -3.58168 0
M  V30 10961 H 1089.49 -2.78735 -3.32399 0
M  V30 10962 H 1090.17 -2.48423 -4.9294 0
M  V30 10963 H 1092.64 -0.748265 -4.09317 0
M  V30 10964 H 1091.52 -0.546957 -5.46168 0
M  V30 10965 H 1091.78 0.787959 -4.35021 0
M  V30 10966 N 1090.84 1.42931 -0.663954 0
M  V30 10967 C 1092.07 2.06028 -0.189808 0
M  V30 10968 C 1092.48 1.49827 1.14879 0
M  V30 10969 O 1091.84 0.633778 1.71142 0
M  V30 10970 C 1091.89 3.61349 -0.104343 0
M  V30 10971 O 1091.61 4.15463 -1.39004 0
M  V30 10972 C 1093.11 4.4154 0.394599 0
M  V30 10973 H 1090.33 0.664259 -0.0948744 0
M  V30 10974 H 1092.87 1.83255 -0.907632 0
M  V30 10975 H 1091.03 3.83271 0.564103 0
M  V30 10976 H 1091.44 5.09233 -1.25626 0
M  V30 10977 H 1092.92 5.50525 0.403329 0
M  V30 10978 H 1093.39 4.1534 1.4279 0
M  V30 10979 H 1094 4.24612 -0.241729 0
M  V30 10980 N 1092.32 0.406567 1.52266 0
M  V30 10981 C 1093.26 -0.420182 2.26943 0
M  V30 10982 C 1094.23 -1.04323 1.29251 0
M  V30 10983 O 1095.42 -1.06799 1.5811 0
M  V30 10984 C 1092.56 -1.5323 3.09216 0
M  V30 10985 C 1091.67 -0.930419 4.21862 0
M  V30 10986 C 1090.81 -2.01502 4.91498 0
M  V30 10987 C 1089.84 -1.38994 5.9611 0
M  V30 10988 N 1088.98 -2.41458 6.59274 0
M  V30 10989 H 1093.82 0.223066 2.97164 0
M  V30 10990 H 1091.36 0.121842 1.46595 0
M  V30 10991 H 1093.32 -2.18803 3.5522 0
M  V30 10992 H 1091.95 -2.14561 2.41171 0
M  V30 10993 H 1091 -0.163809 3.80047 0
M  V30 10994 H 1092.31 -0.433785 4.9691 0
M  V30 10995 H 1091.46 -2.74807 5.40894 0
M  V30 10996 H 1090.2 -2.5453 4.16012 0
M  V30 10997 H 1089.21 -0.642213 5.46036 0
M  V30 10998 H 1090.43 -0.867386 6.73538 0
M  V30 10999 H 1088.38 -2.93623 5.86619 0
M  V30 11000 H 1088.3 -1.96599 7.2999 0
M  V30 11001 H 1089.56 -3.14341 7.13309 0
M  V30 11002 N 1093.79 -1.57004 0.136909 0
M  V30 11003 C 1095.02 -2.00587 -0.527209 0
M  V30 11004 C 1095.44 -1.01628 -1.58283 0
M  V30 11005 O 1094.8 0.00946934 -1.81298 0
M  V30 11006 C 1094.85 -3.42967 -1.11384 0
M  V30 11007 O 1093.95 -3.46973 -2.22898 0
M  V30 11008 H 1093.3 -0.651155 -0.129976 0
M  V30 11009 H 1095.83 -2.03296 0.230667 0
M  V30 11010 H 1095.84 -3.81555 -1.44499 0
M  V30 11011 H 1094.51 -4.14502 -0.340736 0
M  V30 11012 H 1093.09 -3.20219 -1.91087 0
M  V30 11013 N 1095.27 0.136881 -1.57004 0
M  V30 11014 C 1096.69 0.489856 -1.51897 0
M  V30 11015 C 1096.89 1.82833 -0.847009 0
M  V30 11016 O 1095.94 2.48952 -0.421792 0
M  V30 11017 C 1097.26 0.490831 -2.96667 0
M  V30 11018 C 1098.81 0.575639 -3.07661 0
M  V30 11019 C 1099.28 0.607178 -4.53957 0
M  V30 11020 N 1100.77 0.66912 -4.58342 0
M  V30 11021 C 1101.51 0.714675 -5.68929 0
M  V30 11022 N 1101 0.718959 -6.89059 0
M  V30 11023 N 1102.8 0.756326 -5.56988 0
M  V30 11024 H 1094.95 -0.740347 -1.99079 0
M  V30 11025 H 1097.21 -0.271116 -0.908405 0
M  V30 11026 H 1096.92 -0.424648 -3.49127 0
M  V30 11027 H 1096.79 1.32512 -3.53158 0
M  V30 11028 H 1099.18 1.48154 -2.55215 0
M  V30 11029 H 1099.26 -0.285991 -2.54196 0
M  V30 11030 H 1098.9 -0.294604 -5.07045 0
M  V30 11031 H 1098.83 1.48544 -5.05215 0
M  V30 11032 H 1101.32 0.672697 -3.71864 0
M  V30 11033 H 1101.64 0.755848 -7.69095 0
M  V30 11034 H 1099.98 0.686671 -6.91599 0
M  V30 11035 H 1103.17 0.750219 -4.62049 0
M  V30 11036 H 1103.34 0.788363 -6.43186 0
M  V30 11037 N 1096.75 1.52266 0.40654 0
M  V30 11038 C 1098.16 1.58587 0.985241 0
M  V30 11039 C 1098.51 0.427955 1.91476 0
M  V30 11040 O 1097.64 -0.451341 2.11641 0
M  V30 11041 C 1098.23 2.87426 1.79365 0
M  V30 11042 C 1096.79 2.96217 2.32233 0
M  V30 11043 C 1095.94 2.53548 1.12288 0
M  V30 11044 H 1098.89 1.57598 0.186685 0
M  V30 11045 H 1098.91 2.72925 2.65127 0
M  V30 11046 H 1098.42 3.71682 1.11687 0
M  V30 11047 H 1096.52 2.1646 3.03275 0
M  V30 11048 H 1096.64 4.00511 2.62922 0
M  V30 11049 H 1095 2.07457 1.47763 0
M  V30 11050 H 1095.78 3.40181 0.461731 0
M  V30 11051 N 1098.23 -0.663929 1.42933 0
M  V30 11052 C 1099.16 -1.78899 1.50058 0
M  V30 11053 C 1100.14 -1.66329 0.356164 0
M  V30 11054 O 1101.32 -1.85587 0.571944 0
M  V30 11055 C 1098.45 -3.17265 1.41281 0
M  V30 11056 C 1097.41 -3.44584 2.53861 0
M  V30 11057 C 1096.73 -4.82638 2.3014 0
M  V30 11058 C 1098.03 -3.40394 3.96143 0
M  V30 11059 H 1099.73 -1.73194 2.44222 0
M  V30 11060 H 1097.27 -0.83182 1.17545 0
M  V30 11061 H 1099.23 -3.95715 1.44872 0
M  V30 11062 H 1097.95 -3.23675 0.43616 0
M  V30 11063 H 1096.61 -2.685 2.49606 0
M  V30 11064 H 1096.26 -4.85711 1.30743 0
M  V30 11065 H 1095.96 -5.01879 3.056 0
M  V30 11066 H 1097.48 -5.63359 2.35497 0
M  V30 11067 H 1098.9 -4.08796 4.01943 0
M  V30 11068 H 1097.29 -3.7117 4.71543 0
M  V30 11069 H 1098.36 -2.38767 4.22041 0
M  V30 11070 N 1099.71 -1.29285 -0.901281 0
M  V30 11071 C 1100.64 -1.08603 -2.007 0
M  V30 11072 C 1101.62 0.00162233 -1.626 0
M  V30 11073 O 1102.8 -0.148764 -1.87912 0
M  V30 11074 C 1099.93 -0.652972 -3.32346 0
M  V30 11075 C 1098.97 -1.73911 -3.89432 0
M  V30 11076 S 1099.81 -3.33797 -4.18736 0
M  V30 11077 C 1100.96 -2.92355 -5.53425 0
M  V30 11078 H 1101.2 -2.02216 -2.17936 0
M  V30 11079 H 1098.73 -1.13414 -1.04769 0
M  V30 11080 H 1100.69 -0.409825 -4.08449 0
M  V30 11081 H 1099.35 0.263527 -3.12993 0
M  V30 11082 H 1098.54 -1.388 -4.84511 0
M  V30 11083 H 1098.14 -1.93569 -3.20011 0
M  V30 11084 H 1100.44 -2.39301 -6.33831 0
M  V30 11085 H 1101.38 -3.86278 -5.9346 0
M  V30 11086 H 1101.79 -2.30697 -5.15208 0
M  V30 11087 N 1101.18 1.11143 -1.11736 0
M  V30 11088 C 1102.43 1.83219 -0.869413 0
M  V30 11089 C 1102.76 1.84588 0.603402 0
M  V30 11090 O 1102.04 1.30119 1.44566 0
M  V30 11091 C 1102.32 3.30247 -1.43559 0
M  V30 11092 C 1102.17 3.37253 -2.97624 0
M  V30 11093 C 1103.49 4.26412 -1.08907 0
M  V30 11094 H 1100.61 0.665205 -0.317286 0
M  V30 11095 H 1103.25 1.30307 -1.38275 0
M  V30 11096 H 1101.4 3.75437 -0.998978 0
M  V30 11097 H 1103.08 3.00599 -3.49911 0
M  V30 11098 H 1101.32 2.77378 -3.33532 0
M  V30 11099 H 1101.99 4.40752 -3.32328 0
M  V30 11100 H 1104.47 3.89418 -1.46604 0
M  V30 11101 H 1103.34 5.27666 -1.51195 0
M  V30 11102 H 1103.6 4.421 -0.000259009 0
M  V30 11103 N 1102.66 0.908147 1.28804 0
M  V30 11104 C 1103.59 0.409106 2.29888 0
M  V30 11105 C 1104.57 -0.520338 1.61946 0
M  V30 11106 O 1105.76 -0.429268 1.89396 0
M  V30 11107 C 1102.89 -0.35669 3.45463 0
M  V30 11108 C 1101.84 0.4831 4.25265 0
M  V30 11109 C 1101.17 -0.4107 5.3312 0
M  V30 11110 C 1102.47 1.73744 4.92555 0
M  V30 11111 H 1104.16 1.25386 2.7188 0
M  V30 11112 H 1101.71 0.604368 1.30703 0
M  V30 11113 H 1103.66 -0.71661 4.15262 0
M  V30 11114 H 1102.39 -1.2353 3.02337 0
M  V30 11115 H 1101.04 0.825464 3.57186 0
M  V30 11116 H 1100.69 -1.28769 4.86238 0
M  V30 11117 H 1100.39 0.14756 5.87415 0
M  V30 11118 H 1101.92 -0.766626 6.05768 0
M  V30 11119 H 1103.33 1.44676 5.54745 0
M  V30 11120 H 1101.73 2.23767 5.5682 0
M  V30 11121 H 1102.8 2.46853 4.17363 0
M  V30 11122 N 1104.14 -1.42577 0.671525 0
M  V30 11123 C 1105.37 -2.05924 0.200731 0
M  V30 11124 C 1105.78 -1.50434 -1.14083 0
M  V30 11125 O 1105.14 -0.642845 -1.70803 0
M  V30 11126 C 1105.19 -3.61289 0.123505 0
M  V30 11127 O 1104.91 -4.1472 1.41205 0
M  V30 11128 C 1106.41 -4.41743 -0.371178 0
M  V30 11129 H 1103.63 -0.663746 0.0983958 0
M  V30 11130 H 1106.18 -1.82771 0.917338 0
M  V30 11131 H 1104.33 -3.83565 -0.543769 0
M  V30 11132 H 1104.75 -5.0856 1.28325 0
M  V30 11133 H 1106.22 -5.50731 -0.374128 0
M  V30 11134 H 1106.7 -4.16092 -1.40585 0
M  V30 11135 H 1107.3 -4.24478 0.264244 0
M  V30 11136 N 1105.62 -0.414636 -1.52048 0
M  V30 11137 C 1106.53 0.414861 -2.30903 0
M  V30 11138 C 1107.54 1.04855 -1.38858 0
M  V30 11139 O 1108.72 1.04886 -1.71933 0
M  V30 11140 C 1105.79 1.51356 -3.11917 0
M  V30 11141 C 1104.85 0.902359 -4.19709 0
M  V30 11142 C 1104.08 1.9487 -4.96852 0
M  V30 11143 O 1104.3 3.16766 -4.74358 0
M  V30 11144 O 1103.24 1.55186 -5.8155 0
M  V30 11145 H 1107.06 -0.228251 -3.02841 0
M  V30 11146 H 1104.65 -0.177704 -1.48339 0
M  V30 11147 H 1106.53 2.15127 -3.62351 0
M  V30 11148 H 1105.2 2.14117 -2.42767 0
M  V30 11149 H 1104.11 0.22721 -3.73409 0
M  V30 11150 H 1105.44 0.318587 -4.91168 0
M  V30 11151 N 1107.1 1.56929 -0.145233 0
M  V30 11152 C 1108.34 1.96068 0.50632 0
M  V30 11153 C 1108.67 1.02999 1.64989 0
M  V30 11154 O 1107.93 0.0588581 1.95611 0
M  V30 11155 C 1108.23 3.41467 1.05522 0
M  V30 11156 C 1107.89 4.5089 0.0302827 0
M  V30 11157 C 1106.55 4.80542 -0.251475 0
M  V30 11158 C 1108.91 5.16917 -0.666783 0
M  V30 11159 C 1106.23 5.7353 -1.23614 0
M  V30 11160 C 1108.59 6.10965 -1.64025 0
M  V30 11161 C 1107.25 6.38998 -1.92973 0
M  V30 11162 H 1106.52 0.717464 0.185276 0
M  V30 11163 H 1109.17 1.90093 -0.23169 0
M  V30 11164 H 1107.47 3.44265 1.87053 0
M  V30 11165 H 1109.17 3.69077 1.5679 0
M  V30 11166 H 1105.76 4.2781 0.260069 0
M  V30 11167 H 1109.94 4.94142 -0.462297 0
M  V30 11168 H 1105.2 5.93543 -1.46687 0
M  V30 11169 H 1109.37 6.61204 -2.18591 0
M  V30 11170 H 1107 7.10855 -2.69423 0
M  V30 11171 N 1108.58 -0.128553 1.57075 0
M  V30 11172 C 1109.51 -1.18822 1.94825 0
M  V30 11173 C 1110.49 -1.40609 0.816571 0
M  V30 11174 O 1111.67 -1.5492 1.07388 0
M  V30 11175 C 1108.8 -2.54383 2.23623 0
M  V30 11176 C 1107.84 -2.4908 3.4621 0
M  V30 11177 S 1108.68 -1.93974 4.99133 0
M  V30 11178 C 1109.83 -3.31228 5.31074 0
M  V30 11179 H 1110.07 -0.866246 2.844 0
M  V30 11180 H 1107.6 -0.334927 1.50724 0
M  V30 11181 H 1109.56 -3.32386 2.40893 0
M  V30 11182 H 1108.22 -2.83761 1.34678 0
M  V30 11183 H 1107.41 -3.48915 3.63695 0
M  V30 11184 H 1107.01 -1.79193 3.28277 0
M  V30 11185 H 1109.3 -4.27407 5.25671 0
M  V30 11186 H 1110.25 -3.18578 6.32387 0
M  V30 11187 H 1110.66 -3.29215 4.5856 0
M  V30 11188 N 1110.05 -1.5248 -0.398459 0
M  V30 11189 C 1110.96 -1.79492 -1.51062 0
M  V30 11190 C 1111.98 -0.681101 -1.60116 0
M  V30 11191 O 1113.16 -0.967671 -1.7663 0
M  V30 11192 C 1110.22 -1.94958 -2.86692 0
M  V30 11193 C 1109.28 -3.1887 -2.87438 0
M  V30 11194 C 1108.51 -3.33588 -4.16599 0
M  V30 11195 O 1108.74 -2.53327 -5.11059 0
M  V30 11196 O 1107.67 -4.26795 -4.24416 0
M  V30 11197 H 1111.5 -2.73913 -1.31169 0
M  V30 11198 H 1109.08 -1.37455 -0.585372 0
M  V30 11199 H 1110.96 -2.06891 -3.67116 0
M  V30 11200 H 1109.64 -1.03726 -3.06631 0
M  V30 11201 H 1108.55 -3.12386 -2.0583 0
M  V30 11202 H 1109.88 -4.09917 -2.7245 0
M  V30 11203 N 1111.53 0.65634 -1.43283 0
M  V30 11204 C 1112.46 1.78101 -1.51004 0
M  V30 11205 C 1113.44 1.66138 -0.36498 0
M  V30 11206 O 1114.63 1.85281 -0.581778 0
M  V30 11207 C 1111.76 3.16511 -1.42961 0
M  V30 11208 C 1110.71 3.43233 -2.55685 0
M  V30 11209 C 1110.04 4.81411 -2.32696 0
M  V30 11210 C 1111.34 3.38288 -3.97943 0
M  V30 11211 H 1113.03 1.71896 -2.45137 0
M  V30 11212 H 1110.58 0.825575 -1.17984 0
M  V30 11213 H 1112.53 3.94941 -1.46968 0
M  V30 11214 H 1111.25 3.23439 -0.45332 0
M  V30 11215 H 1109.91 2.67173 -2.51026 0
M  V30 11216 H 1109.56 4.85011 -1.33317 0
M  V30 11217 H 1109.26 5.00251 -3.08257 0
M  V30 11218 H 1110.79 5.62102 -2.38481 0
M  V30 11219 H 1112.2 4.06659 -4.04106 0
M  V30 11220 H 1110.6 3.68664 -4.73505 0
M  V30 11221 H 1111.67 2.36525 -4.23301 0
M  V30 11222 N 1113.01 1.29761 0.894412 0
M  V30 11223 C 1114.26 1.17806 1.64214 0
M  V30 11224 C 1114.58 -0.269588 1.93127 0
M  V30 11225 O 1113.85 -1.18352 1.56107 0
M  V30 11226 H 1112.43 0.433002 0.608702 0
M  V30 11227 H 1115.09 1.6276 1.07216 0
M  V30 11228 H 1114.19 1.73201 2.5963 0
M  V30 11229 N 1114.49 -1.10549 1.12324 0
M  V30 11230 C 1115.9 -1.63991 0.892402 0
M  V30 11231 C 1116.25 -1.87631 -0.573506 0
M  V30 11232 O 1115.37 -1.6174 -1.43768 0
M  V30 11233 C 1115.97 -2.97914 1.61347 0
M  V30 11234 C 1114.53 -3.48227 1.42881 0
M  V30 11235 C 1113.68 -2.22857 1.65015 0
M  V30 11236 H 1116.63 -0.94065 1.27818 0
M  V30 11237 H 1116.65 -3.65326 1.06382 0
M  V30 11238 H 1116.16 -2.80677 2.68034 0
M  V30 11239 H 1114.26 -3.70611 0.384441 0
M  V30 11240 H 1114.37 -4.26419 2.18413 0
M  V30 11241 H 1112.74 -2.30941 1.07417 0
M  V30 11242 H 1113.52 -2.08152 2.72997 0
M  V30 11243 N 1115.97 -0.914965 -1.28321 0
M  V30 11244 C 1116.9 -0.421292 -2.29668 0
M  V30 11245 C 1117.88 0.511743 -1.6222 0
M  V30 11246 O 1119.06 0.419218 -1.89621 0
M  V30 11247 C 1116.19 0.338364 -3.45648 0
M  V30 11248 C 1115.15 -0.505646 -4.25003 0
M  V30 11249 C 1114.47 0.382421 -5.33331 0
M  V30 11250 C 1115.77 -1.76354 -4.91626 0
M  V30 11251 H 1117.47 -1.26826 -2.71211 0
M  V30 11252 H 1115.01 -0.611291 -1.30381 0
M  V30 11253 H 1116.96 0.694578 -4.15636 0
M  V30 11254 H 1115.69 1.21925 -3.02988 0
M  V30 11255 H 1114.35 -0.844395 -3.56743 0
M  V30 11256 H 1114 1.26189 -4.86914 0
M  V30 11257 H 1113.7 -0.17871 -5.87328 0
M  V30 11258 H 1115.22 0.73449 -6.06166 0
M  V30 11259 H 1116.63 -1.47616 -5.5397 0
M  V30 11260 H 1115.03 -2.26717 -5.55625 0
M  V30 11261 H 1116.1 -2.49063 -4.16048 0
M  V30 11262 N 1117.44 1.42219 -0.679077 0
M  V30 11263 C 1118.72 1.95155 -0.13188 0
M  V30 11264 C 1119.1 1.6193 1.35433 0
M  V30 11265 O 1118.45 0.917672 2.09263 0
M  V30 11266 C 1118.66 3.46635 -0.405578 0
M  V30 11267 C 1120.01 4.23359 -0.324394 0
M  V30 11268 O 1121.03 3.54578 -0.339564 0
M  V30 11269 O 1119.89 5.45831 -0.270268 0
M  V30 11270 H 1116.98 0.826983 -0.00535438 0
M  V30 11271 H 1119.53 1.52024 -0.754101 0
M  V30 11272 H 1118.3 3.6404 -1.43495 0
M  V30 11273 H 1117.92 3.96823 0.248439 0
M  V30 11274 N 1118.92 0.422693 1.51826 0
M  V30 11275 C 1120.15 -0.15017 2.06856 0
M  V30 11276 C 1120.57 -1.36946 1.28948 0
M  V30 11277 O 1119.93 -1.78393 0.32338 0
M  V30 11278 C 1119.98 -0.465563 3.57582 0
M  V30 11279 O 1119.08 -1.55442 3.81984 0
M  V30 11280 H 1118.42 -0.00827931 0.663948 0
M  V30 11281 H 1120.95 0.599806 1.95611 0
M  V30 11282 H 1120.96 -0.720279 4.01592 0
M  V30 11283 H 1119.64 0.425679 4.13716 0
M  V30 11284 H 1118.21 -1.29081 3.49846 0
M  V30 11285 N 1120.4 -1.5685 0.153553 0
M  V30 11286 C 1121.65 -1.96334 -0.495915 0
M  V30 11287 C 1121.97 -1.03873 -1.64441 0
M  V30 11288 O 1121.23 -0.069231 -1.95578 0
M  V30 11289 C 1121.53 -3.42022 -1.0371 0
M  V30 11290 C 1121.19 -4.509 -0.00637049 0
M  V30 11291 C 1119.86 -4.80402 0.276956 0
M  V30 11292 C 1122.21 -5.16556 0.694187 0
M  V30 11293 C 1119.54 -5.72866 1.26653 0
M  V30 11294 C 1121.89 -6.10087 1.67263 0
M  V30 11295 C 1120.55 -6.37965 1.96359 0
M  V30 11296 H 1119.82 -0.718436 -0.181468 0
M  V30 11297 H 1122.47 -1.89968 0.241768 0
M  V30 11298 H 1120.77 -3.45252 -1.85225 0
M  V30 11299 H 1122.47 -3.69903 -1.54831 0
M  V30 11300 H 1119.06 -4.27942 -0.237378 0
M  V30 11301 H 1123.25 -4.9389 0.488496 0
M  V30 11302 H 1118.5 -5.92756 1.49833 0
M  V30 11303 H 1122.68 -6.60036 2.22094 0
M  V30 11304 H 1120.3 -7.09416 2.73189 0
M  V30 11305 N 1121.88 0.120221 -1.57141 0
M  V30 11306 C 1122.81 1.14876 -2.03287 0
M  V30 11307 C 1123.79 1.43259 -0.917112 0
M  V30 11308 O 1124.97 1.53721 -1.18674 0
M  V30 11309 C 1122.1 2.47525 -2.43616 0
M  V30 11310 C 1121.06 2.33607 -3.58625 0
M  V30 11311 C 1120.38 3.71207 -3.84849 0
M  V30 11312 C 1121.68 1.79761 -4.90391 0
M  V30 11313 H 1123.38 0.764943 -2.89463 0
M  V30 11314 H 1120.92 0.366516 -1.39258 0
M  V30 11315 H 1122.88 3.19728 -2.74504 0
M  V30 11316 H 1121.6 2.87794 -1.54409 0
M  V30 11317 H 1120.26 1.63853 -3.27945 0
M  V30 11318 H 1119.91 4.0896 -2.9285 0
M  V30 11319 H 1119.61 3.62749 -4.62263 0
M  V30 11320 H 1121.13 4.44917 -4.18188 0
M  V30 11321 H 1122.55 2.4178 -5.19822 0
M  V30 11322 H 1120.94 1.82126 -5.71795 0
M  V30 11323 H 1122.01 0.755087 -4.78985 0
M  V30 11324 N 1123.36 1.52689 0.390367 0
M  V30 11325 C 1124.77 1.41909 0.730338 0
M  V30 11326 C 1124.97 0.538427 1.94173 0
M  V30 11327 O 1124.03 0.0113527 2.52497 0
M  V30 11328 C 1125.34 2.84737 0.966714 0
M  V30 11329 C 1126.89 2.94206 1.06827 0
M  V30 11330 C 1127.36 4.38042 1.33728 0
M  V30 11331 N 1128.86 4.4136 1.40553 0
M  V30 11332 C 1129.59 5.49735 1.63031 0
M  V30 11333 N 1129.09 6.68197 1.82988 0
M  V30 11334 N 1130.88 5.37276 1.65199 0
M  V30 11335 H 1123.03 2.08469 -0.406766 0
M  V30 11336 H 1125.29 0.940401 -0.11979 0
M  V30 11337 H 1125 3.51385 0.148725 0
M  V30 11338 H 1124.87 3.26909 1.88176 0
M  V30 11339 H 1127.26 2.27726 1.87683 0
M  V30 11340 H 1127.34 2.55463 0.131168 0
M  V30 11341 H 1126.99 5.05087 0.533832 0
M  V30 11342 H 1126.92 4.74336 2.28721 0
M  V30 11343 H 1129.41 3.55976 1.26844 0
M  V30 11344 H 1129.72 7.46567 1.99643 0
M  V30 11345 H 1128.06 6.71228 1.80215 0
M  V30 11346 H 1131.26 4.437 1.49158 0
M  V30 11347 H 1131.43 6.21806 1.82377 0
M  V30 11348 N 1124.83 -0.648732 1.43629 0
M  V30 11349 C 1125.77 -1.77417 1.45107 0
M  V30 11350 C 1126.78 -1.59067 0.346618 0
M  V30 11351 O 1127.97 -1.67705 0.611322 0
M  V30 11352 C 1125.07 -3.14906 1.25249 0
M  V30 11353 C 1124.24 -3.59874 2.48616 0
M  V30 11354 C 1123.3 -4.76181 2.23916 0
M  V30 11355 O 1122.33 -4.8539 2.97296 0
M  V30 11356 N 1123.53 -5.66691 1.25862 0
M  V30 11357 H 1126.29 -1.76626 2.42123 0
M  V30 11358 H 1123.85 -0.832725 1.38843 0
M  V30 11359 H 1125.85 -3.90408 1.06601 0
M  V30 11360 H 1124.42 -3.10443 0.366623 0
M  V30 11361 H 1123.64 -2.74768 2.82659 0
M  V30 11362 H 1124.92 -3.86665 3.30708 0
M  V30 11363 H 1124.32 -5.61927 0.652227 0
M  V30 11364 H 1122.88 -6.41895 1.13196 0
M  V30 11365 N 1126.31 -1.30234 -0.887518 0
M  V30 11366 C 1127.73 -1.0851 -1.17037 0
M  V30 11367 C 1127.93 0.155788 -2.00897 0
M  V30 11368 O 1126.98 0.850123 -2.37759 0
M  V30 11369 C 1128.3 -2.34723 -1.87951 0
M  V30 11370 C 1129.85 -2.40163 -2.00726 0
M  V30 11371 C 1130.32 -3.66211 -2.75051 0
M  V30 11372 N 1131.81 -3.67004 -2.82599 0
M  V30 11373 C 1132.55 -4.61224 -3.40676 0
M  V30 11374 N 1132.04 -5.65786 -3.99823 0
M  V30 11375 N 1133.84 -4.48772 -3.38467 0
M  V30 11376 H 1125.99 -2.09847 -0.328297 0
M  V30 11377 H 1128.25 -0.924904 -0.20798 0
M  V30 11378 H 1127.96 -3.25265 -1.33773 0
M  V30 11379 H 1127.83 -2.43175 -2.8835 0
M  V30 11380 H 1130.22 -1.50101 -2.54074 0
M  V30 11381 H 1130.3 -2.35688 -0.994218 0
M  V30 11382 H 1129.94 -4.56631 -2.22376 0
M  V30 11383 H 1129.87 -3.67947 -3.76726 0
M  V30 11384 H 1132.36 -2.91409 -2.40602 0
M  V30 11385 H 1132.68 -6.33783 -4.42197 0
M  V30 11386 H 1131.02 -5.69581 -3.9825 0
M  V30 11387 H 1134.21 -3.6627 -2.91485 0
M  V30 11388 H 1134.38 -5.22382 -3.83433 0
M  V30 11389 N 1127.79 1.09952 -1.12909 0
M  V30 11390 C 1128.7 2.19999 -0.81471 0
M  V30 11391 C 1129.72 1.72864 0.19851 0
M  V30 11392 O 1130.89 2.01376 0.0308832 0
M  V30 11393 C 1127.96 3.45573 -0.279363 0
M  V30 11394 C 1127.02 4.07417 -1.35314 0
M  V30 11395 C 1126.25 5.26996 -0.843247 0
M  V30 11396 O 1126.47 5.69495 0.321164 0
M  V30 11397 O 1125.41 5.79826 -1.61511 0
M  V30 11398 H 1129.23 2.49333 -1.73398 0
M  V30 11399 H 1126.82 1.18784 -0.906128 0
M  V30 11400 H 1128.7 4.21398 0.0140531 0
M  V30 11401 H 1127.38 3.17854 0.612401 0
M  V30 11402 H 1126.28 3.33253 -1.6998 0
M  V30 11403 H 1127.62 4.39349 -2.21885 0
M  V30 11404 N 1129.27 0.921757 1.27833 0
M  V30 11405 C 1130.52 0.557974 1.94245 0
M  V30 11406 C 1130.84 -0.90268 1.72849 0
M  V30 11407 O 1130.11 -1.63915 1.07279 0
M  V30 11408 H 1128.69 0.203364 0.718785 0
M  V30 11409 H 1131.35 1.17286 1.5566 0
M  V30 11410 H 1130.45 0.759202 3.02725 0
M  V30 11411 N 1130.75 -1.41857 0.686609 0
M  V30 11412 C 1131.68 -2.29188 -0.0234289 0
M  V30 11413 C 1132.69 -1.44311 -0.753541 0
M  V30 11414 O 1133.88 -1.67908 -0.605734 0
M  V30 11415 C 1130.98 -3.21991 -1.05713 0
M  V30 11416 C 1130.15 -4.35581 -0.398453 0
M  V30 11417 C 1129.21 -5.09022 -1.33354 0
M  V30 11418 O 1128.24 -5.63126 -0.829334 0
M  V30 11419 N 1129.44 -5.15643 -2.66632 0
M  V30 11420 H 1132.21 -2.90766 0.726295 0
M  V30 11421 H 1129.77 -1.52912 0.531937 0
M  V30 11422 H 1131.76 -3.6799 -1.68421 0
M  V30 11423 H 1130.33 -2.61782 -1.70847 0
M  V30 11424 H 1129.55 -3.92079 0.408358 0
M  V30 11425 H 1130.84 -5.08765 0.0599239 0
M  V30 11426 H 1130.23 -4.73118 -3.10122 0
M  V30 11427 H 1128.79 -5.65248 -3.24558 0
M  V30 11428 N 1132.22 -0.430739 -1.51599 0
M  V30 11429 C 1133.47 0.137929 -2.0203 0
M  V30 11430 C 1133.8 1.43287 -1.31526 0
M  V30 11431 O 1133.05 1.9121 -0.416814 0
M  V30 11432 C 1133.35 0.410694 -3.55032 0
M  V30 11433 C 1133.02 -0.797634 -4.43789 0
M  V30 11434 C 1131.68 -1.12902 -4.67768 0
M  V30 11435 C 1134.03 -1.60403 -4.95904 0
M  V30 11436 C 1131.36 -2.2676 -5.41107 0
M  V30 11437 C 1133.71 -2.73354 -5.70491 0
M  V30 11438 C 1132.38 -3.06955 -5.92735 0
M  V30 11439 H 1131.65 0.0504718 -0.739279 0
M  V30 11440 H 1134.29 -0.576585 -1.82614 0
M  V30 11441 H 1132.6 1.20703 -3.72744 0
M  V30 11442 H 1134.3 0.864006 -3.91581 0
M  V30 11443 H 1130.89 -0.529397 -4.25318 0
M  V30 11444 H 1135.07 -1.36122 -4.77268 0
M  V30 11445 H 1130.33 -2.53114 -5.56546 0
M  V30 11446 H 1134.5 -3.36213 -6.09864 0
M  V30 11447 H 1132.13 -3.95293 -6.49344 0
M  V30 11448 N 1133.7 1.56767 -0.161869 0
M  V30 11449 C 1134.93 2.01401 0.49523 0
M  V30 11450 C 1135.35 1.04133 1.56646 0
M  V30 11451 O 1134.71 0.0193747 1.8129 0
M  V30 11452 C 1134.76 3.44695 1.05913 0
M  V30 11453 O 1133.86 3.50475 2.1735 0
M  V30 11454 H 1133.2 0.65314 0.1196 0
M  V30 11455 H 1135.73 2.02903 -0.26298 0
M  V30 11456 H 1135.74 3.83805 1.3841 0
M  V30 11457 H 1134.42 4.14991 0.274749 0
M  V30 11458 H 1133 3.23218 1.85969 0
M  V30 11459 N 1135.18 -0.111886 1.57202 0
M  V30 11460 C 1136.41 -0.836317 1.89791 0
M  V30 11461 C 1136.83 -1.72304 0.754513 0
M  V30 11462 O 1136.19 -1.78889 -0.294672 0
M  V30 11463 C 1136.24 -1.63971 3.21164 0
M  V30 11464 O 1135.34 -2.74726 3.0757 0
M  V30 11465 H 1134.68 -0.230833 0.622585 0
M  V30 11466 H 1137.21 -0.0921478 2.04392 0
M  V30 11467 H 1137.22 -2.02746 3.54059 0
M  V30 11468 H 1135.9 -0.98882 4.03974 0
M  V30 11469 H 1134.47 -2.39101 2.86156 0
M  V30 11470 N 1136.66 -1.52894 -0.382264 0
M  V30 11471 C 1137.59 -1.81122 -1.47367 0
M  V30 11472 C 1138.57 -0.663653 -1.56619 0
M  V30 11473 O 1139.75 -0.911898 -1.71459 0
M  V30 11474 C 1136.88 -1.98615 -2.84902 0
M  V30 11475 C 1135.84 -3.14328 -2.90485 0
M  V30 11476 C 1135.16 -3.17086 -4.30535 0
M  V30 11477 C 1136.46 -4.53263 -2.59519 0
M  V30 11478 H 1138.16 -2.72518 -1.23993 0
M  V30 11479 H 1135.7 -1.3113 -0.595049 0
M  V30 11480 H 1137.66 -2.16946 -3.61265 0
M  V30 11481 H 1136.38 -1.03915 -3.09628 0
M  V30 11482 H 1135.04 -2.95791 -2.16572 0
M  V30 11483 H 1134.69 -2.20055 -4.52311 0
M  V30 11484 H 1134.39 -3.94821 -4.3519 0
M  V30 11485 H 1135.91 -3.3758 -5.08795 0
M  V30 11486 H 1137.33 -4.71867 -3.25598 0
M  V30 11487 H 1135.72 -5.33115 -2.75514 0
M  V30 11488 H 1136.79 -4.59516 -1.54831 0
M  V30 11489 N 1138.14 0.641106 -1.43971 0
M  V30 11490 C 1139.07 1.76645 -1.46046 0
M  V30 11491 C 1140.08 1.58881 -0.355049 0
M  V30 11492 O 1141.27 1.67379 -0.620207 0
M  V30 11493 C 1138.37 3.14237 -1.26918 0
M  V30 11494 C 1137.54 3.5855 -2.50521 0
M  V30 11495 C 1136.6 4.74986 -2.26438 0
M  V30 11496 O 1135.63 4.83807 -2.99866 0
M  V30 11497 N 1136.83 5.66016 -1.28866 0
M  V30 11498 H 1139.6 1.75339 -2.43056 0
M  V30 11499 H 1137.16 0.82535 -1.39282 0
M  V30 11500 H 1139.15 3.89837 -1.0867 0
M  V30 11501 H 1137.72 3.10244 -0.383082 0
M  V30 11502 H 1136.94 2.73265 -2.84112 0
M  V30 11503 H 1138.23 3.84906 -3.32754 0
M  V30 11504 H 1137.63 5.61574 -0.682018 0
M  V30 11505 H 1136.18 6.41286 -1.16599 0
M  V30 11506 N 1139.62 1.30703 0.880598 0
M  V30 11507 C 1140.55 1.20033 2.00286 0
M  V30 11508 C 1141.53 0.0899614 1.69862 0
M  V30 11509 O 1142.71 0.272747 1.92275 0
M  V30 11510 C 1139.84 0.895902 3.35546 0
M  V30 11511 C 1138.8 1.96468 3.80242 0
M  V30 11512 C 1138.12 1.51316 5.12843 0
M  V30 11513 C 1139.42 3.37637 3.98496 0
M  V30 11514 H 1141.12 2.13922 2.0947 0
M  V30 11515 H 1138.66 1.02989 1.00644 0
M  V30 11516 H 1140.61 0.807899 4.13583 0
M  V30 11517 H 1139.34 -0.0786636 3.26505 0
M  V30 11518 H 1138 2.0424 3.04437 0
M  V30 11519 H 1137.65 0.52674 5.00234 0
M  V30 11520 H 1137.35 2.22807 5.43719 0
M  V30 11521 H 1138.87 1.43903 5.93401 0
M  V30 11522 H 1140.28 3.326 4.66959 0
M  V30 11523 H 1138.68 4.07253 4.40755 0
M  V30 11524 H 1139.75 3.79205 3.02211 0
M  V30 11525 N 1141.09 -1.09351 1.1349 0
M  V30 11526 C 1142.34 -1.81812 0.898452 0
M  V30 11527 C 1142.67 -1.85525 -0.573959 0
M  V30 11528 O 1141.95 -1.32403 -1.42477 0
M  V30 11529 C 1142.23 -3.27921 1.48794 0
M  V30 11530 C 1142.08 -3.32476 3.02952 0
M  V30 11531 C 1143.4 -4.24625 1.15678 0
M  V30 11532 H 1140.52 -0.660074 0.327829 0
M  V30 11533 H 1143.16 -1.28091 1.40331 0
M  V30 11534 H 1141.31 -3.738 1.05858 0
M  V30 11535 H 1142.99 -2.94994 3.54649 0
M  V30 11536 H 1141.23 -2.72037 3.37903 0
M  V30 11537 H 1141.9 -4.35409 3.39298 0
M  V30 11538 H 1144.38 -3.87036 1.52781 0
M  V30 11539 H 1143.25 -5.25194 1.59571 0
M  V30 11540 H 1143.51 -4.42044 0.0705933 0
M  V30 11541 N 1142.57 -0.928524 -1.27343 0
M  V30 11542 C 1143.53 -0.43292 -2.25074 0
M  V30 11543 C 1144.53 0.448976 -1.54405 0
M  V30 11544 O 1145.72 0.249939 -1.72398 0
M  V30 11545 C 1142.86 0.377539 -3.38803 0
M  V30 11546 H 1144.05 -1.29642 -2.70431 0
M  V30 11547 H 1141.6 -0.709289 -1.3928 0
M  V30 11548 H 1142.34 1.25982 -2.98829 0
M  V30 11549 H 1142.12 -0.254782 -3.91271 0
M  V30 11550 H 1143.61 0.714634 -4.1144 0
M  V30 11551 N 1144.05 1.41491 -0.694123 0
M  V30 11552 C 1144.98 2.28189 0.0226347 0
M  V30 11553 C 1145.96 1.42152 0.7894 0
M  V30 11554 O 1147.14 1.71581 0.780519 0
M  V30 11555 C 1144.27 3.22357 1.03942 0
M  V30 11556 C 1143.32 4.24927 0.365994 0
M  V30 11557 S 1144.15 5.28043 -0.890562 0
M  V30 11558 C 1145.31 6.25776 0.124665 0
M  V30 11559 H 1145.54 2.88631 -0.712698 0
M  V30 11560 H 1143.07 1.46607 -0.484344 0
M  V30 11561 H 1145.03 3.77143 1.62091 0
M  V30 11562 H 1143.69 2.61013 1.74732 0
M  V30 11563 H 1142.88 4.9108 1.13388 0
M  V30 11564 H 1142.49 3.73729 -0.142389 0
M  V30 11565 H 1144.78 6.70398 0.978393 0
M  V30 11566 H 1145.72 7.06312 -0.502901 0
M  V30 11567 H 1146.13 5.62466 0.478792 0
M  V30 11568 N 1145.53 0.438773 1.51369 0
M  V30 11569 C 1146.46 -0.407771 2.25543 0
M  V30 11570 C 1147.47 -0.985065 1.29616 0
M  V30 11571 O 1148.66 -0.878961 1.55359 0
M  V30 11572 C 1145.76 -1.58257 2.9968 0
M  V30 11573 C 1144.93 -1.12389 4.22714 0
M  V30 11574 C 1143.99 -2.16897 4.79418 0
M  V30 11575 O 1143.02 -1.76273 5.41218 0
M  V30 11576 N 1144.22 -3.49396 4.63576 0
M  V30 11577 H 1146.99 0.227963 2.98832 0
M  V30 11578 H 1144.55 0.267741 1.59671 0
M  V30 11579 H 1146.54 -2.27796 3.34501 0
M  V30 11580 H 1145.11 -2.12362 2.29393 0
M  V30 11581 H 1144.33 -0.255509 3.93371 0
M  V30 11582 H 1145.62 -0.794848 5.02553 0
M  V30 11583 H 1145.02 -3.85132 4.14355 0
M  V30 11584 H 1143.57 -4.14826 5.02755 0
M  V30 11585 N 1147.01 -1.56678 0.170181 0
M  V30 11586 C 1148.42 -1.58512 -0.185999 0
M  V30 11587 C 1148.62 -1.18548 -1.62937 0
M  V30 11588 O 1147.68 -0.896554 -2.36047 0
M  V30 11589 C 1148.99 -3.00554 0.0937842 0
M  V30 11590 C 1150.54 -3.12984 0.0319057 0
M  V30 11591 C 1151.01 -4.57115 0.284664 0
M  V30 11592 N 1152.5 -4.62617 0.2324 0
M  V30 11593 C 1153.24 -5.71988 0.40216 0
M  V30 11594 N 1152.74 -6.89921 0.630915 0
M  V30 11595 N 1154.53 -5.61082 0.338144 0
M  V30 11596 H 1146.68 -1.80944 1.11235 0
M  V30 11597 H 1148.94 -0.838586 0.442128 0
M  V30 11598 H 1148.65 -3.34265 1.09362 0
M  V30 11599 H 1148.52 -3.72151 -0.615118 0
M  V30 11600 H 1150.91 -2.791 -0.958502 0
M  V30 11601 H 1150.99 -2.43825 0.773501 0
M  V30 11602 H 1150.63 -4.91707 1.27227 0
M  V30 11603 H 1150.56 -5.2443 -0.477529 0
M  V30 11604 H 1153.06 -3.7785 0.0611933 0
M  V30 11605 H 1153.37 -7.69153 0.749931 0
M  V30 11606 H 1151.71 -6.91787 0.667516 0
M  V30 11607 H 1154.9 -4.67826 0.16003 0
M  V30 11608 H 1155.08 -6.46265 0.473872 0
M  V30 11609 N 1148.48 0.103547 -1.57259 0
M  V30 11610 C 1149.73 0.806979 -1.8529 0
M  V30 11611 C 1150.05 1.79679 -0.757653 0
M  V30 11612 O 1149.32 1.94695 0.216913 0
M  V30 11613 H 1147.9 0.301012 -0.683667 0
M  V30 11614 H 1150.56 0.0871886 -1.94705 0
M  V30 11615 H 1149.66 1.34275 -2.81738 0
M  V30 11616 N 1149.96 1.53094 0.37415 0
M  V30 11617 C 1151.21 1.69111 1.11934 0
M  V30 11618 C 1151.54 0.437252 1.89213 0
M  V30 11619 O 1150.82 -0.565298 1.86104 0
M  V30 11620 C 1151.1 2.93559 2.08554 0
M  V30 11621 C 1150.95 4.29082 1.3494 0
M  V30 11622 C 1152.27 3.13586 3.08791 0
M  V30 11623 H 1149.39 0.615383 0.405553 0
M  V30 11624 H 1152.03 1.85719 0.401078 0
M  V30 11625 H 1150.18 2.79531 2.69805 0
M  V30 11626 H 1151.85 4.54906 0.765402 0
M  V30 11627 H 1150.1 4.28884 0.651238 0
M  V30 11628 H 1150.77 5.12275 2.05616 0
M  V30 11629 H 1153.24 3.26743 2.57639 0
M  V30 11630 H 1152.12 4.02112 3.73627 0
M  V30 11631 H 1152.38 2.28475 3.78486 0
M  V30 11632 N 1151.44 -0.633461 1.44309 0
M  V30 11633 C 1152.4 -1.72743 1.50641 0
M  V30 11634 C 1153.4 -1.56031 0.388718 0
M  V30 11635 O 1154.59 -1.61568 0.651251 0
M  V30 11636 C 1151.72 -3.11804 1.37809 0
M  V30 11637 H 1152.92 -1.68503 2.48086 0
M  V30 11638 H 1150.47 -0.846912 1.31366 0
M  V30 11639 H 1151.21 -3.2164 0.414483 0
M  V30 11640 H 1150.99 -3.2534 2.18852 0
M  V30 11641 H 1152.48 -3.91538 1.45216 0
M  V30 11642 N 1152.92 -1.31168 -0.873655 0
M  V30 11643 C 1153.88 -1.18471 -1.96207 0
M  V30 11644 C 1154.88 -0.112814 -1.60404 0
M  V30 11645 O 1156.07 -0.3618 -1.70401 0
M  V30 11646 C 1153.2 -0.817662 -3.30949 0
M  V30 11647 H 1154.4 -2.1518 -2.08896 0
M  V30 11648 H 1151.95 -1.14727 -1.06149 0
M  V30 11649 H 1152.68 0.148428 -3.2396 0
M  V30 11650 H 1152.47 -1.59244 -3.58307 0
M  V30 11651 H 1153.96 -0.75262 -4.10762 0
M  V30 11652 N 1154.4 1.08748 -1.14068 0
M  V30 11653 C 1155.36 2.1375 -0.827266 0
M  V30 11654 C 1156.36 1.59936 0.166496 0
M  V30 11655 O 1157.55 1.74092 -0.0614305 0
M  V30 11656 C 1154.68 3.40106 -0.232557 0
M  V30 11657 H 1155.87 2.42985 -1.7578 0
M  V30 11658 H 1153.43 1.24402 -0.946244 0
M  V30 11659 H 1154.16 3.16503 0.706859 0
M  V30 11660 H 1153.95 3.8046 -0.948293 0
M  V30 11661 H 1155.44 4.17589 -0.0303662 0
M  V30 11662 N 1155.87 0.935264 1.26849 0
M  V30 11663 C 1156.81 0.384563 2.24936 0
M  V30 11664 C 1157.79 -0.523311 1.53949 0
M  V30 11665 O 1158.97 -0.462103 1.82748 0
M  V30 11666 C 1156.1 -0.448043 3.35723 0
M  V30 11667 C 1155.14 0.397466 4.24644 0
M  V30 11668 S 1155.98 1.81773 5.03705 0
M  V30 11669 C 1157.13 0.99302 6.17972 0
M  V30 11670 H 1157.36 1.21588 2.713 0
M  V30 11671 H 1154.9 0.737966 1.35622 0
M  V30 11672 H 1156.86 -0.922541 3.99999 0
M  V30 11673 H 1155.52 -1.25397 2.87983 0
M  V30 11674 H 1154.71 -0.240176 5.03427 0
M  V30 11675 H 1154.31 0.806423 3.65202 0
M  V30 11676 H 1156.6 0.232526 6.77101 0
M  V30 11677 H 1157.55 1.75412 6.86029 0
M  V30 11678 H 1157.95 0.531692 5.6199 0
M  V30 11679 N 1157.35 -1.41121 0.701616 0
M  V30 11680 C 1158.28 -2.292 0.000880842 0
M  V30 11681 C 1159.3 -1.45102 -0.738192 0
M  V30 11682 O 1160.49 -1.68541 -0.587891 0
M  V30 11683 C 1157.59 -3.23094 -1.02292 0
M  V30 11684 C 1156.76 -4.35979 -0.352231 0
M  V30 11685 C 1155.82 -5.10408 -1.27947 0
M  V30 11686 O 1154.84 -5.63974 -0.769561 0
M  V30 11687 N 1156.05 -5.18442 -2.61147 0
M  V30 11688 H 1158.81 -2.8998 0.757094 0
M  V30 11689 H 1156.37 -1.52339 0.548126 0
M  V30 11690 H 1158.36 -3.69755 -1.64509 0
M  V30 11691 H 1156.93 -2.6358 -1.68061 0
M  V30 11692 H 1156.15 -3.91624 0.44992 0
M  V30 11693 H 1157.44 -5.08673 0.113882 0
M  V30 11694 H 1156.84 -4.76381 -3.05087 0
M  V30 11695 H 1155.4 -5.68659 -3.18544 0
M  V30 11696 N 1158.83 -0.446794 -1.51134 0
M  V30 11697 C 1160.06 0.114727 -2.06281 0
M  V30 11698 C 1160.47 1.36192 -1.31333 0
M  V30 11699 O 1159.81 1.79956 -0.368982 0
M  V30 11700 C 1159.87 0.492968 -3.56104 0
M  V30 11701 C 1159.54 -0.648755 -4.52372 0
M  V30 11702 C 1160.53 -1.52369 -4.97071 0
M  V30 11703 C 1158.22 -0.832177 -4.95359 0
M  V30 11704 C 1160.21 -2.56667 -5.83439 0
M  V30 11705 C 1157.9 -1.87841 -5.81514 0
M  V30 11706 C 1158.9 -2.74404 -6.25453 0
M  V30 11707 O 1158.59 -3.7723 -7.09896 0
M  V30 11708 H 1158.32 0.007138 -0.675962 0
M  V30 11709 H 1160.87 -0.627452 -1.95582 0
M  V30 11710 H 1159.1 1.28799 -3.6462 0
M  V30 11711 H 1160.79 0.986739 -3.93724 0
M  V30 11712 H 1161.56 -1.39356 -4.64548 0
M  V30 11713 H 1157.44 -0.167954 -4.60694 0
M  V30 11714 H 1160.98 -3.24264 -6.17656 0
M  V30 11715 H 1156.88 -2.00871 -6.1345 0
M  V30 11716 H 1157.65 -3.73924 -7.28095 0
M  V30 11717 N 1160.31 1.56586 -0.178487 0
M  V30 11718 C 1161.24 2.21313 0.744486 0
M  V30 11719 C 1162.22 1.17098 1.23377 0
M  V30 11720 O 1163.4 1.45551 1.28563 0
M  V30 11721 C 1160.53 2.8595 1.97103 0
M  V30 11722 C 1159.49 3.96266 1.61732 0
M  V30 11723 C 1158.81 4.47987 2.91911 0
M  V30 11724 C 1160.11 5.15503 0.839868 0
M  V30 11725 H 1161.81 2.98698 0.204938 0
M  V30 11726 H 1159.35 1.43672 0.0971306 0
M  V30 11727 H 1161.31 3.29909 2.6218 0
M  V30 11728 H 1160.03 2.05946 2.53484 0
M  V30 11729 H 1158.69 3.52974 0.990208 0
M  V30 11730 H 1158.34 3.64765 3.46346 0
M  V30 11731 H 1158.04 5.22413 2.68995 0
M  V30 11732 H 1159.56 4.94637 3.58004 0
M  V30 11733 H 1160.98 5.5611 1.39337 0
M  V30 11734 H 1159.37 5.95891 0.709473 0
M  V30 11735 H 1160.44 4.84628 -0.162396 0
M  V30 11736 N 1161.79 -0.095206 1.57312 0
M  V30 11737 C 1163.01 -0.81614 1.90667 0
M  V30 11738 C 1163.44 -1.71494 0.772746 0
M  V30 11739 O 1162.79 -1.79192 -0.275682 0
M  V30 11740 C 1162.84 -1.60555 3.22885 0
M  V30 11741 O 1161.95 -2.71448 3.10467 0
M  V30 11742 H 1161.29 -0.224217 0.624998 0
M  V30 11743 H 1163.82 -0.070464 2.04479 0
M  V30 11744 H 1163.83 -1.98979 3.5619 0
M  V30 11745 H 1162.5 -0.945918 4.05 0
M  V30 11746 H 1161.08 -2.36053 2.88675 0
M  V30 11747 N 1163.26 -1.53291 -0.366026 0
M  V30 11748 C 1164.49 -1.73665 -1.13381 0
M  V30 11749 C 1164.91 -0.464284 -1.8228 0
M  V30 11750 O 1164.27 0.581645 -1.71717 0
M  V30 11751 C 1164.32 -2.90225 -2.14013 0
M  V30 11752 O 1163.42 -2.58803 -3.21084 0
M  V30 11753 H 1162.77 -0.576762 -0.329 0
M  V30 11754 H 1165.3 -2.00174 -0.423287 0
M  V30 11755 H 1165.31 -3.16378 -2.57622 0
M  V30 11756 H 1163.98 -3.82518 -1.63257 0
M  V30 11757 H 1162.56 -2.43466 -2.82451 0
M  V30 11758 N 1164.74 0.6258 -1.44643 0
M  V30 11759 C 1165.99 1.38525 -1.47706 0
M  V30 11760 C 1166.32 1.94179 -0.111703 0
M  V30 11761 O 1165.57 1.74432 0.887237 0
M  V30 11762 C 1165.87 2.56466 -2.48917 0
M  V30 11763 C 1165.54 2.19069 -3.94106 0
M  V30 11764 C 1164.2 2.08583 -4.33643 0
M  V30 11765 C 1166.55 1.89608 -4.85488 0
M  V30 11766 C 1163.88 1.66831 -5.6248 0
M  V30 11767 C 1166.23 1.49347 -6.14718 0
M  V30 11768 C 1164.9 1.37406 -6.53204 0
M  V30 11769 H 1164.17 0.506899 -0.540494 0
M  V30 11770 H 1166.81 0.709128 -1.77887 0
M  V30 11771 H 1165.12 3.29335 -2.12239 0
M  V30 11772 H 1166.81 3.14695 -2.48532 0
M  V30 11773 H 1163.4 2.28151 -3.62829 0
M  V30 11774 H 1167.59 1.96616 -4.55693 0
M  V30 11775 H 1162.84 1.56195 -5.91112 0
M  V30 11776 H 1167.02 1.2559 -6.84982 0
M  V30 11777 H 1164.65 1.04826 -7.52938 0
M  V30 11778 N 1166.22 1.31629 0.866686 0
M  V30 11779 C 1167.18 1.1951 1.95576 0
M  V30 11780 C 1168.18 0.121319 1.60342 0
M  V30 11781 O 1169.37 0.370832 1.70207 0
M  V30 11782 C 1166.51 0.835201 3.30511 0
M  V30 11783 H 1167.7 2.16285 2.07752 0
M  V30 11784 H 1165.25 1.15288 1.05539 0
M  V30 11785 H 1165.99 -0.131245 3.24034 0
M  V30 11786 H 1165.77 1.61142 3.57457 0
M  V30 11787 H 1167.26 0.774393 4.10357 0
M  V30 11788 N 1167.7 -1.08142 1.14644 0
M  V30 11789 C 1168.95 -1.80582 0.916327 0
M  V30 11790 C 1169.27 -1.86355 -0.556969 0
M  V30 11791 O 1168.53 -1.33736 -1.42875 0
M  V30 11792 C 1168.83 -3.25962 1.46573 0
M  V30 11793 C 1168.49 -3.40302 2.95814 0
M  V30 11794 C 1167.16 -3.43922 3.36557 0
M  V30 11795 C 1169.51 -3.43758 3.91765 0
M  V30 11796 C 1166.84 -3.48594 4.7191 0
M  V30 11797 C 1169.19 -3.49965 5.26979 0
M  V30 11798 C 1167.85 -3.5186 5.67231 0
M  V30 11799 H 1167.12 -0.660795 0.335308 0
M  V30 11800 H 1169.77 -1.27309 1.43055 0
M  V30 11801 H 1168.07 -3.81961 0.872507 0
M  V30 11802 H 1169.77 -3.80571 1.2636 0
M  V30 11803 H 1166.36 -3.38176 2.63315 0
M  V30 11804 H 1170.55 -3.40189 3.61366 0
M  V30 11805 H 1165.8 -3.48355 5.02453 0
M  V30 11806 H 1169.98 -3.51585 6.01133 0
M  V30 11807 H 1167.6 -3.55233 6.72097 0
M  V30 11808 N 1169.18 -0.941978 -1.26351 0
M  V30 11809 C 1170.42 -0.590845 -1.94002 0
M  V30 11810 C 1170.76 0.868004 -1.73722 0
M  V30 11811 O 1170.03 1.62111 -1.07472 0
M  V30 11812 C 1170.31 -0.934901 -3.47752 0
M  V30 11813 C 1170.17 -2.44855 -3.77314 0
M  V30 11814 C 1171.49 -0.450888 -4.37784 0
M  V30 11815 H 1168.61 -0.21613 -0.704597 0
M  V30 11816 H 1171.25 -1.17634 -1.49205 0
M  V30 11817 H 1169.4 -0.436648 -3.86038 0
M  V30 11818 H 1171.07 -3.01959 -3.48738 0
M  V30 11819 H 1169.31 -2.89169 -3.23363 0
M  V30 11820 H 1169.98 -2.6398 -4.84787 0
M  V30 11821 H 1172.46 -0.878107 -4.06729 0
M  V30 11822 H 1171.34 -0.720439 -5.44152 0
M  V30 11823 H 1171.6 0.649162 -4.37308 0
M  V30 11824 N 1170.66 1.40747 -0.709091 0
M  V30 11825 C 1171.61 2.27982 -0.0289269 0
M  V30 11826 C 1172.59 1.42917 0.739164 0
M  V30 11827 O 1173.78 1.66067 0.612433 0
M  V30 11828 C 1170.91 3.31378 0.896856 0
M  V30 11829 C 1170 4.23918 0.124296 0
M  V30 11830 N 1170.39 4.97925 -0.889043 0
M  V30 11831 C 1168.69 4.44562 0.357808 0
M  V30 11832 C 1169.39 5.65754 -1.35268 0
M  V30 11833 N 1168.36 5.3938 -0.676047 0
M  V30 11834 H 1172.16 2.82641 -0.805676 0
M  V30 11835 H 1169.68 1.5312 -0.541105 0
M  V30 11836 H 1171.68 3.92712 1.39939 0
M  V30 11837 H 1170.34 2.78279 1.67305 0
M  V30 11838 H 1171.35 5.02095 -1.2697 0
M  V30 11839 H 1168.02 4.02451 1.11084 0
M  V30 11840 H 1169.41 6.35058 -2.19432 0
M  V30 11841 N 1172.13 0.454803 1.50895 0
M  V30 11842 C 1173.55 0.108037 1.59234 0
M  V30 11843 C 1173.75 -1.38416 1.46435 0
M  V30 11844 O 1172.81 -2.15586 1.31449 0
M  V30 11845 C 1174.12 0.643721 2.93729 0
M  V30 11846 C 1175.67 0.605703 3.07083 0
M  V30 11847 C 1176.14 1.11865 4.44128 0
M  V30 11848 N 1177.63 1.07738 4.50496 0
M  V30 11849 C 1178.37 1.44495 5.54895 0
M  V30 11850 N 1177.86 1.88624 6.66628 0
M  V30 11851 N 1179.66 1.36201 5.45349 0
M  V30 11852 H 1171.81 1.4255 1.57459 0
M  V30 11853 H 1174.07 0.588504 0.743214 0
M  V30 11854 H 1173.78 1.68844 3.0852 0
M  V30 11855 H 1173.65 0.0782404 3.77119 0
M  V30 11856 H 1176.04 -0.430065 2.91949 0
M  V30 11857 H 1176.12 1.2078 2.2549 0
M  V30 11858 H 1175.76 2.15297 4.6001 0
M  V30 11859 H 1175.69 0.492933 5.24288 0
M  V30 11860 H 1178.18 0.753526 3.70311 0
M  V30 11861 H 1178.5 2.14863 7.4233 0
M  V30 11862 H 1176.84 1.92564 6.6779 0
M  V30 11863 H 1180.03 1.01579 4.56946 0
M  V30 11864 H 1180.21 1.65175 6.26595 0
M  V30 11865 N 1173.61 -1.56489 0.186789 0
M  V30 11866 C 1174.84 -2.02163 -0.463126 0
M  V30 11867 C 1175.26 -1.06612 -1.54969 0
M  V30 11868 O 1174.62 -0.0482139 -1.81236 0
M  V30 11869 C 1174.67 -3.46337 -1.00416 0
M  V30 11870 O 1173.77 -3.53889 -2.11747 0
M  V30 11871 H 1173.11 -0.65496 -0.109194 0
M  V30 11872 H 1175.64 -2.02459 0.295227 0
M  V30 11873 H 1175.65 -3.85959 -1.32287 0
M  V30 11874 H 1174.33 -4.15376 -0.208693 0
M  V30 11875 H 1172.9 -3.26136 -1.80803 0
M  V30 11876 N 1175.09 0.086862 -1.5736 0
M  V30 11877 C 1176.02 1.10538 -2.05678 0
M  V30 11878 C 1177 1.41281 -0.947293 0
M  V30 11879 O 1178.19 1.51169 -1.21908 0
M  V30 11880 C 1175.32 2.42302 -2.48812 0
M  V30 11881 C 1174.27 2.25948 -3.63499 0
M  V30 11882 C 1173.6 3.62961 -3.92637 0
M  V30 11883 C 1174.9 1.69319 -4.94094 0
M  V30 11884 H 1176.59 0.703371 -2.91021 0
M  V30 11885 H 1174.14 0.336895 -1.40004 0
M  V30 11886 H 1176.09 3.13833 -2.81224 0
M  V30 11887 H 1174.81 2.84454 -1.60479 0
M  V30 11888 H 1173.47 1.5686 -3.31347 0
M  V30 11889 H 1173.12 4.02656 -3.01459 0
M  V30 11890 H 1172.82 3.52862 -4.69853 0
M  V30 11891 H 1174.34 4.35946 -4.27531 0
M  V30 11892 H 1175.76 2.30699 -5.24834 0
M  V30 11893 H 1174.15 1.69957 -5.7553 0
M  V30 11894 H 1175.22 0.653318 -4.80479 0
M  V30 11895 N 1176.57 1.53483 0.357892 0
M  V30 11896 C 1177.79 1.74264 1.12458 0
M  V30 11897 C 1178.22 0.473944 1.82031 0
M  V30 11898 O 1177.58 -0.57253 1.72023 0
M  V30 11899 C 1177.62 2.91356 2.12471 0
M  V30 11900 O 1176.73 2.60502 3.19707 0
M  V30 11901 H 1176.07 0.578499 0.325937 0
M  V30 11902 H 1178.6 2.00395 0.412666 0
M  V30 11903 H 1178.61 3.1774 2.5594 0
M  V30 11904 H 1177.28 3.83378 1.61226 0
M  V30 11905 H 1175.86 2.44961 2.81156 0
M  V30 11906 N 1178.05 -0.61812 1.44973 0
M  V30 11907 C 1179.01 -1.71135 1.52465 0
M  V30 11908 C 1180.01 -1.5561 0.405246 0
M  V30 11909 O 1181.2 -1.60869 0.668351 0
M  V30 11910 C 1178.33 -3.10324 1.41108 0
M  V30 11911 H 1179.52 -1.65862 2.49859 0
M  V30 11912 H 1177.08 -0.832932 1.32257 0
M  V30 11913 H 1177.81 -3.21183 0.448574 0
M  V30 11914 H 1177.6 -3.23001 2.2229 0
M  V30 11915 H 1179.09 -3.89976 1.49361 0
M  V30 11916 N 1179.52 -1.32087 -0.859693 0
M  V30 11917 C 1180.47 -1.17188 -1.95578 0
M  V30 11918 C 1181.46 -0.0801302 -1.607 0
M  V30 11919 O 1182.65 -0.306118 -1.74333 0
M  V30 11920 C 1179.78 -0.891916 -3.31511 0
M  V30 11921 C 1178.86 -2.02513 -3.72625 0
M  V30 11922 N 1179.26 -3.27321 -3.85609 0
M  V30 11923 C 1177.55 -1.92717 -4.02214 0
M  V30 11924 C 1178.25 -4.01513 -4.20906 0
M  V30 11925 N 1177.23 -3.29767 -4.32151 0
M  V30 11926 H 1181.03 -2.11816 -2.03743 0
M  V30 11927 H 1178.55 -1.23794 -1.05114 0
M  V30 11928 H 1180.54 -0.766143 -4.098 0
M  V30 11929 H 1179.2 0.0460349 -3.24667 0
M  V30 11930 H 1180.21 -3.62317 -3.70063 0
M  V30 11931 H 1176.89 -1.06452 -4.03701 0
M  V30 11932 H 1178.28 -5.09116 -4.38463 0
M  V30 11933 N 1181 1.07532 -1.15215 0
M  V30 11934 C 1182.23 1.84356 -0.950139 0
M  V30 11935 C 1182.65 1.81429 0.496502 0
M  V30 11936 O 1182.01 1.20589 1.35381 0
M  V30 11937 C 1182.06 3.29425 -1.46669 0
M  V30 11938 O 1181.16 4.07008 -0.664674 0
M  V30 11939 H 1180.5 0.570921 -0.339036 0
M  V30 11940 H 1183.03 1.35665 -1.53154 0
M  V30 11941 H 1183.04 3.8026 -1.47873 0
M  V30 11942 H 1181.72 3.3087 -2.51988 0
M  V30 11943 H 1180.29 3.65841 -0.72211 0
M  V30 11944 N 1182.48 0.948665 1.2585 0
M  V30 11945 C 1183.73 0.601125 1.93686 0
M  V30 11946 C 1184.06 -0.858779 1.7418 0
M  V30 11947 O 1183.33 -1.61539 1.0833 0
M  V30 11948 C 1183.62 0.95333 3.47252 0
M  V30 11949 C 1183.47 2.46853 3.7601 0
M  V30 11950 C 1184.79 0.474098 4.37539 0
M  V30 11951 H 1181.91 0.219864 0.703441 0
M  V30 11952 H 1184.55 1.18424 1.48579 0
M  V30 11953 H 1182.7 0.457114 3.85801 0
M  V30 11954 H 1184.37 3.03804 3.47132 0
M  V30 11955 H 1182.62 2.9088 3.21825 0
M  V30 11956 H 1183.29 2.66547 4.83381 0
M  V30 11957 H 1185.76 0.899664 4.06258 0
M  V30 11958 H 1184.64 0.749287 5.43762 0
M  V30 11959 H 1184.9 -0.625961 4.37646 0
M  V30 11960 N 1183.96 -1.40369 0.716545 0
M  V30 11961 C 1184.89 -2.33365 0.0793533 0
M  V30 11962 C 1185.87 -1.52943 -0.744482 0
M  V30 11963 O 1187.05 -1.81406 -0.693212 0
M  V30 11964 C 1184.18 -3.36928 -0.842429 0
M  V30 11965 C 1183.14 -4.2782 -0.124142 0
M  V30 11966 C 1182.46 -5.21928 -1.1617 0
M  V30 11967 C 1183.76 -5.12199 1.02224 0
M  V30 11968 H 1185.46 -2.86899 0.856115 0
M  V30 11969 H 1183 -1.37946 0.413138 0
M  V30 11970 H 1184.96 -4.00925 -1.29759 0
M  V30 11971 H 1183.68 -2.81791 -1.6511 0
M  V30 11972 H 1182.34 -3.65277 0.311201 0
M  V30 11973 H 1181.99 -4.63096 -1.96345 0
M  V30 11974 H 1181.69 -5.83582 -0.685978 0
M  V30 11975 H 1183.21 -5.88802 -1.61694 0
M  V30 11976 H 1184.63 -5.69644 0.646399 0
M  V30 11977 H 1183.02 -5.82901 1.4264 0
M  V30 11978 H 1184.09 -4.4812 1.85246 0
M  V30 11979 N 1185.44 -0.462799 -1.50652 0
M  V30 11980 C 1186.68 0.0951853 -2.02576 0
M  V30 11981 C 1187.02 1.40113 -1.34469 0
M  V30 11982 O 1186.29 1.88793 -0.467702 0
M  V30 11983 C 1186.57 0.287603 -3.5895 0
M  V30 11984 C 1186.43 -1.03878 -4.37641 0
M  V30 11985 C 1187.75 1.04593 -4.27491 0
M  V30 11986 H 1184.86 0.0331191 -0.736255 0
M  V30 11987 H 1187.51 -0.606772 -1.80051 0
M  V30 11988 H 1185.66 0.885514 -3.78274 0
M  V30 11989 H 1187.33 -1.67263 -4.29908 0
M  V30 11990 H 1185.57 -1.6374 -4.01711 0
M  V30 11991 H 1186.24 -0.857889 -5.45293 0
M  V30 11992 H 1188.72 0.539213 -4.12591 0
M  V30 11993 H 1187.59 1.14935 -5.36732 0
M  V30 11994 H 1187.86 2.08045 -3.90089 0
M  V30 11995 N 1186.91 1.56388 -0.195085 0
M  V30 11996 C 1187.86 2.20431 0.742484 0
M  V30 11997 C 1188.86 1.17548 1.21979 0
M  V30 11998 O 1190.06 1.35693 1.18269 0
M  V30 11999 H 1186.44 0.706435 0.257786 0
M  V30 12000 H 1188.41 2.97865 0.178624 0
M  V30 12001 C 1187.16 2.87772 1.95147 0
M  V30 12002 H 1186.48 3.66681 1.59326 0
M  V30 12003 H 1187.92 3.36021 2.58585 0
M  V30 12004 C 1186.38 1.88807 2.79022 0
M  V30 12005 O 1186.91 1.38836 3.76945 0
M  V30 12006 N 1185.12 1.57037 2.44515 0
M  V30 12007 H 1184.66 1.97868 1.64943 0
M  V30 12008 H 1184.62 0.910776 3.00919 0
M  V30 12009 N 1188.39 -0.0785156 1.57404 0
M  V30 12010 C 1189.62 -0.795871 1.91522 0
M  V30 12011 C 1190.04 -1.70665 0.790892 0
M  V30 12012 O 1189.4 -1.79474 -0.25666 0
M  V30 12013 C 1189.45 -1.57121 3.24569 0
M  V30 12014 O 1188.55 -2.6814 3.13328 0
M  V30 12015 H 1187.89 -0.217575 0.627341 0
M  V30 12016 H 1190.42 -0.0487724 2.04542 0
M  V30 12017 H 1190.43 -1.9519 3.5828 0
M  V30 12018 H 1189.11 -0.902909 4.05981 0
M  V30 12019 H 1187.69 -2.32978 2.91163 0
M  V30 12020 N 1189.87 -1.5367 -0.349747 0
M  V30 12021 C 1190.82 -1.77604 -1.42972 0
M  V30 12022 C 1191.8 -0.631036 -1.48009 0
M  V30 12023 O 1193 -0.890228 -1.52983 0
M  V30 12024 C 1190.13 -1.98354 -2.80198 0
M  V30 12025 C 1189.21 -3.18901 -2.79576 0
M  V30 12026 N 1189.6 -4.40497 -2.48589 0
M  V30 12027 C 1187.9 -3.19945 -3.10727 0
M  V30 12028 C 1188.6 -5.22318 -2.56045 0
M  V30 12029 N 1187.58 -4.5889 -2.91412 0
M  V30 12030 H 1191.38 -2.69215 -1.17901 0
M  V30 12031 H 1188.89 -1.5251 -0.558062 0
M  V30 12032 H 1190.89 -2.13632 -3.58004 0
M  V30 12033 H 1189.55 -1.07981 -3.06219 0
M  V30 12034 H 1190.56 -4.67955 -2.21898 0
M  V30 12035 H 1187.24 -2.39519 -3.41961 0
M  V30 12036 H 1188.63 -6.29352 -2.35299 0
M  V30 12037 N 1191.35 0.610423 -1.45298 0
M  V30 12038 C 1192.28 1.73207 -1.56594 0
M  V30 12039 C 1193.26 1.64893 -0.417651 0
M  V30 12040 O 1194.44 1.83336 -0.64043 0
M  V30 12041 C 1191.57 3.11803 -1.52959 0
M  V30 12042 C 1190.53 3.34925 -2.66475 0
M  V30 12043 C 1189.85 4.73764 -2.47894 0
M  V30 12044 C 1191.15 3.25456 -4.08504 0
M  V30 12045 H 1192.85 1.6401 -2.50482 0
M  V30 12046 H 1190.39 0.787621 -1.20551 0
M  V30 12047 H 1192.35 3.90065 -1.59458 0
M  V30 12048 H 1191.07 3.21833 -0.55599 0
M  V30 12049 H 1189.73 2.59051 -2.59399 0
M  V30 12050 H 1189.38 4.80524 -1.4868 0
M  V30 12051 H 1189.08 4.90191 -3.24016 0
M  V30 12052 H 1190.6 5.54231 -2.56243 0
M  V30 12053 H 1192.02 3.93597 -4.16839 0
M  V30 12054 H 1190.41 3.53414 -4.84994 0
M  V30 12055 H 1191.48 2.22939 -4.30612 0
M  V30 12056 N 1192.83 1.32541 0.852676 0
M  V30 12057 C 1194.07 1.23397 1.60938 0
M  V30 12058 C 1194.41 -0.203294 1.93133 0
M  V30 12059 O 1193.68 -1.14097 1.57519 0
M  V30 12060 C 1193.96 2.0956 2.92842 0
M  V30 12061 C 1193.82 3.61675 2.67416 0
M  V30 12062 C 1195.14 1.95825 3.94133 0
M  V30 12063 H 1192.25 0.449608 0.583971 0
M  V30 12064 H 1194.9 1.62507 0.98446 0
M  V30 12065 H 1193.05 1.76336 3.46176 0
M  V30 12066 H 1194.72 4.05122 2.20621 0
M  V30 12067 H 1192.96 3.84242 2.01347 0
M  V30 12068 H 1193.63 4.17292 3.61347 0
M  V30 12069 H 1196.11 2.24935 3.50062 0
M  V30 12070 H 1194.98 2.58387 4.8428 0
M  V30 12071 H 1195.25 0.926466 4.32284 0
M  V30 12072 N 1194.3 -1.0692 1.15784 0
M  V30 12073 C 1195.54 -1.8119 0.946018 0
M  V30 12074 C 1195.91 -1.84899 -0.517338 0
M  V30 12075 O 1197.11 -2.55085 -0.847643 0
M  V30 12076 C 1195.38 -3.22102 1.54871 0
M  V30 12077 S 1196.94 -4.13065 1.48063 0
M  V30 12078 H 1193.76 -0.62424 0.340361 0
M  V30 12079 H 1196.36 -1.28411 1.47414 0
M  V30 12080 H 1195.06 -3.16994 2.60659 0
M  V30 12081 H 1194.59 -3.79956 1.01965 0
M  V30 12082 H 1196.61 -4.93907 0.476517 0
M  V30 12083 N 1195.78 -0.955326 -1.25345 0
M  V30 12084 C 1196.73 -0.474888 -2.25862 0
M  V30 12085 C 1197.7 0.472996 -1.59223 0
M  V30 12086 O 1198.88 0.386094 -1.86853 0
M  V30 12087 C 1196.02 0.240554 -3.44261 0
M  V30 12088 C 1195.14 -0.74465 -4.25534 0
M  V30 12089 C 1194.27 -0.00657513 -5.312 0
M  V30 12090 C 1193.31 -0.982666 -6.04161 0
M  V30 12091 N 1192.45 -0.275418 -7.0156 0
M  V30 12092 H 1197.29 -1.33693 -2.66327 0
M  V30 12093 H 1194.83 -0.670439 -1.30933 0
M  V30 12094 H 1196.78 0.671933 -4.11753 0
M  V30 12095 H 1195.41 1.06664 -3.04668 0
M  V30 12096 H 1194.47 -1.29451 -3.57696 0
M  V30 12097 H 1195.78 -1.48948 -4.76042 0
M  V30 12098 H 1194.93 0.483404 -6.04771 0
M  V30 12099 H 1193.67 0.771035 -4.81567 0
M  V30 12100 H 1192.68 -1.48364 -5.29404 0
M  V30 12101 H 1193.9 -1.76052 -6.55883 0
M  V30 12102 H 1191.85 0.483441 -6.54216 0
M  V30 12103 H 1191.76 -0.959324 -7.49889 0
M  V30 12104 H 1193.03 0.193002 -7.79261 0
M  V30 12105 N 1197.26 1.39987 -0.723979 0
M  V30 12106 C 1198.51 2.01028 -0.267511 0
M  V30 12107 C 1198.84 1.57295 1.13894 0
M  V30 12108 O 1198.12 0.796805 1.7743 0
M  V30 12109 C 1198.4 3.58326 -0.356971 0
M  V30 12110 C 1198.25 4.12109 -1.8024 0
M  V30 12111 C 1199.57 4.39289 0.267003 0
M  V30 12112 H 1196.69 0.730364 -0.0986775 0
M  V30 12113 H 1199.33 1.66348 -0.91806 0
M  V30 12114 H 1197.48 3.88001 0.196908 0
M  V30 12115 H 1199.15 3.93199 -2.41231 0
M  V30 12116 H 1197.4 3.66082 -2.32737 0
M  V30 12117 H 1198.07 5.21261 -1.81634 0
M  V30 12118 H 1200.54 4.15595 -0.20503 0
M  V30 12119 H 1199.42 5.48624 0.174004 0
M  V30 12120 H 1199.68 4.20931 1.35164 0
M  V30 12121 N 1198.74 0.470782 1.50404 0
M  V30 12122 C 1199.7 -0.312227 2.27063 0
M  V30 12123 C 1200.7 -0.920709 1.31832 0
M  V30 12124 O 1201.89 -0.789937 1.5526 0
M  V30 12125 C 1199.02 -1.44477 3.0877 0
M  V30 12126 H 1200.22 0.36006 2.97731 0
M  V30 12127 H 1197.77 0.224837 1.54674 0
M  V30 12128 H 1198.51 -2.15212 2.42599 0
M  V30 12129 H 1198.29 -1.01426 3.78755 0
M  V30 12130 H 1199.78 -1.99713 3.66749 0
M  V30 12131 N 1200.22 -1.56282 0.203376 0
M  V30 12132 C 1201.63 -1.58871 -0.152335 0
M  V30 12133 C 1201.83 -1.21978 -1.60386 0
M  V30 12134 O 1200.89 -0.946422 -2.34092 0
M  V30 12135 C 1202.2 -3.00287 0.157515 0
M  V30 12136 C 1203.75 -3.12846 0.098287 0
M  V30 12137 C 1204.23 -4.56408 0.38156 0
M  V30 12138 N 1205.72 -4.6202 0.330475 0
M  V30 12139 C 1206.45 -5.71006 0.523397 0
M  V30 12140 N 1205.95 -6.88428 0.777115 0
M  V30 12141 N 1207.74 -5.60238 0.457082 0
M  V30 12142 H 1199.89 -1.78543 1.15048 0
M  V30 12143 H 1202.15 -0.829019 0.459816 0
M  V30 12144 H 1201.86 -3.3187 1.16427 0
M  V30 12145 H 1201.73 -3.73372 -0.536041 0
M  V30 12146 H 1204.12 -2.8107 -0.899085 0
M  V30 12147 H 1204.2 -2.42129 0.825045 0
M  V30 12148 H 1203.85 -4.88897 1.37629 0
M  V30 12149 H 1203.78 -5.25325 -0.366182 0
M  V30 12150 H 1206.27 -3.77636 0.141327 0
M  V30 12151 H 1206.58 -7.67389 0.912911 0
M  V30 12152 H 1204.93 -6.90215 0.814104 0
M  V30 12153 H 1208.12 -4.67382 0.259226 0
M  V30 12154 H 1208.29 -6.45114 0.610848 0
M  V30 12155 N 1201.7 0.070167 -1.57444 0
M  V30 12156 C 1202.63 1.08351 -2.06839 0
M  V30 12157 C 1203.61 1.40269 -0.962224 0
M  V30 12158 O 1204.79 1.49867 -1.23505 0
M  V30 12159 C 1201.92 2.39649 -2.51368 0
M  V30 12160 C 1200.88 2.22079 -3.65875 0
M  V30 12161 C 1200.2 3.58776 -3.96464 0
M  V30 12162 C 1201.5 1.64069 -4.95862 0
M  V30 12163 H 1203.2 0.672465 -2.9175 0
M  V30 12164 H 1200.74 0.322027 -1.40353 0
M  V30 12165 H 1202.69 3.10833 -2.84537 0
M  V30 12166 H 1201.42 2.82736 -1.63487 0
M  V30 12167 H 1200.08 1.53337 -3.32992 0
M  V30 12168 H 1199.73 3.99436 -3.05712 0
M  V30 12169 H 1199.43 3.47859 -4.7357 0
M  V30 12170 H 1200.95 4.31387 -4.32131 0
M  V30 12171 H 1202.36 2.2512 -5.27251 0
M  V30 12172 H 1200.76 1.63843 -5.773 0
M  V30 12173 H 1201.83 0.60232 -4.81145 0
M  V30 12174 N 1203.17 1.53854 0.341593 0
M  V30 12175 C 1204.42 1.70856 1.07948 0
M  V30 12176 C 1204.74 0.475474 1.89114 0
M  V30 12177 O 1204.01 -0.510592 1.89129 0
M  V30 12178 H 1202.59 0.629914 0.401519 0
M  V30 12179 H 1205.25 1.91112 0.382393 0
M  V30 12180 H 1204.35 2.5803 1.75575 0
M  V30 12181 N 1204.65 -0.602709 1.4562 0
M  V30 12182 C 1205.6 -1.70753 1.51088 0
M  V30 12183 C 1206.59 -1.56501 0.373662 0
M  V30 12184 O 1207.78 -1.65755 0.620828 0
M  V30 12185 C 1204.91 -3.09515 1.48511 0
M  V30 12186 C 1203.99 -3.29135 2.67453 0
M  V30 12187 N 1204.38 -3.18996 3.92524 0
M  V30 12188 C 1202.68 -3.60019 2.63253 0
M  V30 12189 C 1203.38 -3.40079 4.71933 0
M  V30 12190 N 1202.36 -3.64299 4.03469 0
M  V30 12191 H 1206.16 -1.61414 2.45607 0
M  V30 12192 H 1203.67 -0.806122 1.4098 0
M  V30 12193 H 1205.67 -3.88782 1.50513 0
M  V30 12194 H 1204.33 -3.19999 0.550526 0
M  V30 12195 H 1205.34 -2.97292 4.24073 0
M  V30 12196 H 1202.02 -3.77311 1.78725 0
M  V30 12197 H 1203.41 -3.37593 5.80931 0
M  V30 12198 N 1206.13 -1.32992 -0.845635 0
M  V30 12199 C 1207.35 -1.27231 -1.6379 0
M  V30 12200 C 1207.78 0.155141 -1.87459 0
M  V30 12201 O 1207.14 1.10953 -1.43384 0
M  V30 12202 C 1207.19 -2.04629 -2.96916 0
M  V30 12203 O 1206.29 -1.40027 -3.879 0
M  V30 12204 H 1205.63 -0.438045 -0.499011 0
M  V30 12205 H 1208.16 -1.75448 -1.05257 0
M  V30 12206 H 1208.17 -2.15141 -3.46667 0
M  V30 12207 H 1206.85 -3.08425 -2.79011 0
M  V30 12208 H 1205.42 -1.38118 -3.46378 0
M  V30 12209 N 1207.61 1.06304 -1.1635 0
M  V30 12210 C 1209.02 1.60566 -0.952652 0
M  V30 12211 C 1209.37 1.8963 0.503473 0
M  V30 12212 O 1208.49 1.66964 1.37666 0
M  V30 12213 C 1209.09 2.9172 -1.72292 0
M  V30 12214 C 1207.65 3.42684 -1.55707 0
M  V30 12215 C 1206.8 2.16579 -1.73172 0
M  V30 12216 H 1209.75 0.892563 -1.31221 0
M  V30 12217 H 1209.77 3.61126 -1.19868 0
M  V30 12218 H 1209.28 2.70535 -2.78267 0
M  V30 12219 H 1207.38 3.68929 -0.521726 0
M  V30 12220 H 1207.49 4.18018 -2.34088 0
M  V30 12221 H 1205.86 2.26795 -1.15914 0
M  V30 12222 H 1206.64 1.97877 -2.80535 0
M  V30 12223 N 1209.09 0.96196 1.24836 0
M  V30 12224 C 1210.02 0.445329 2.24832 0
M  V30 12225 C 1211.03 -0.442797 1.56663 0
M  V30 12226 O 1212.22 -0.249896 1.76742 0
M  V30 12227 C 1209.32 -0.376953 3.36797 0
M  V30 12228 C 1208.49 0.499908 4.34534 0
M  V30 12229 C 1207.55 -0.265402 5.2553 0
M  V30 12230 O 1206.58 0.338707 5.68191 0
M  V30 12231 N 1207.78 -1.55654 5.59243 0
M  V30 12232 H 1210.54 1.30505 2.69793 0
M  V30 12233 H 1208.11 0.833137 1.38818 0
M  V30 12234 H 1210.1 -0.896831 3.94638 0
M  V30 12235 H 1208.67 -1.13757 2.91167 0
M  V30 12236 H 1207.89 1.20082 3.75465 0
M  V30 12237 H 1209.18 1.09814 4.96808 0
M  V30 12238 H 1208.57 -2.06916 5.265 0
M  V30 12239 H 1207.13 -2.02223 6.19636 0
M  V30 12240 N 1210.56 -1.39601 0.731392 0
M  V30 12241 C 1211.81 -2.0019 0.277208 0
M  V30 12242 C 1212.13 -1.5832 -1.13841 0
M  V30 12243 O 1211.4 -0.829793 -1.77458 0
M  V30 12244 H 1209.98 -0.740344 0.0995006 0
M  V30 12245 H 1212.64 -1.70704 0.940547 0
M  V30 12246 H 1211.74 -3.10427 0.322749 0
M  V30 12247 N 1212.04 -0.478751 -1.50152 0
M  V30 12248 C 1213.45 -0.0254907 -1.86683 0
M  V30 12249 C 1213.8 1.38171 -1.39295 0
M  V30 12250 O 1212.93 2.0257 -0.761207 0
M  V30 12251 C 1213.52 -0.0394819 -3.38777 0
M  V30 12252 C 1212.08 0.35834 -3.7469 0
M  V30 12253 C 1211.23 -0.421667 -2.74075 0
M  V30 12254 H 1214.18 -0.692653 -1.42787 0
M  V30 12255 H 1214.2 0.760957 -3.72813 0
M  V30 12256 H 1213.71 -1.06378 -3.73236 0
M  V30 12257 H 1211.82 1.38671 -3.45834 0
M  V30 12258 H 1211.93 0.0543589 -4.79069 0
M  V30 12259 H 1210.29 0.125634 -2.5439 0
M  V30 12260 H 1211.08 -1.44562 -3.11379 0
M  V30 12261 N 1213.52 1.56172 -0.211661 0
M  V30 12262 C 1214.75 2.02874 0.430905 0
M  V30 12263 C 1215.17 1.09064 1.53254 0
M  V30 12264 O 1214.53 0.0770408 1.81136 0
M  V30 12265 C 1214.58 3.4789 0.948933 0
M  V30 12266 O 1213.68 3.57213 2.0609 0
M  V30 12267 H 1213.02 0.656614 0.0987607 0
M  V30 12268 H 1215.55 2.01964 -0.327399 0
M  V30 12269 H 1215.56 3.88015 1.2613 0
M  V30 12270 H 1214.24 4.15656 0.142584 0
M  V30 12271 H 1212.81 3.28971 1.75592 0
M  V30 12272 N 1215 -0.0618163 1.57479 0
M  V30 12273 C 1216.24 -0.764296 1.89573 0
M  V30 12274 C 1216.6 -1.74235 0.806605 0
M  V30 12275 O 1217.8 -2.49067 1.0109 0
M  V30 12276 C 1216.07 -1.44503 3.26885 0
M  V30 12277 S 1217.63 -2.1812 3.80748 0
M  V30 12278 H 1214.45 -0.253946 0.664103 0
M  V30 12279 H 1217.05 -0.0200064 1.9549 0
M  V30 12280 H 1215.76 -0.719525 4.04043 0
M  V30 12281 H 1215.29 -2.22855 3.2419 0
M  V30 12282 H 1217.3 -3.44793 3.56837 0
M  V30 12283 N 1216.48 -1.54033 -0.333429 0
M  V30 12284 C 1217.41 -1.85719 -1.4153 0
M  V30 12285 C 1218.39 -0.713144 -1.54429 0
M  V30 12286 O 1219.57 -0.965984 -1.68471 0
M  V30 12287 C 1216.7 -2.07578 -2.78439 0
M  V30 12288 C 1215.66 -3.23411 -2.80338 0
M  V30 12289 C 1214.98 -3.30622 -4.2023 0
M  V30 12290 C 1216.28 -4.6129 -2.44968 0
M  V30 12291 H 1217.98 -2.76325 -1.15261 0
M  V30 12292 H 1215.52 -1.32957 -0.55303 0
M  V30 12293 H 1217.48 -2.28329 -3.5418 0
M  V30 12294 H 1216.2 -1.13713 -3.06165 0
M  V30 12295 H 1214.86 -3.02531 -2.07052 0
M  V30 12296 H 1214.51 -2.34333 -4.45081 0
M  V30 12297 H 1214.21 -4.08466 -4.22409 0
M  V30 12298 H 1215.73 -3.53596 -4.97798 0
M  V30 12299 H 1217.14 -4.81987 -3.10421 0
M  V30 12300 H 1215.54 -5.41611 -2.58414 0
M  V30 12301 H 1216.61 -4.6421 -1.40134 0
M  V30 12302 N 1217.95 0.594978 -1.45938 0
M  V30 12303 C 1218.88 1.71536 -1.58422 0
M  V30 12304 C 1219.87 1.64441 -0.435116 0
M  V30 12305 O 1221.05 1.82647 -0.659839 0
M  V30 12306 C 1218.18 3.10163 -1.56257 0
M  V30 12307 C 1217.13 3.3208 -2.70013 0
M  V30 12308 C 1216.46 4.71108 -2.52905 0
M  V30 12309 C 1217.76 3.21105 -4.11933 0
M  V30 12310 H 1219.45 1.61344 -2.52207 0
M  V30 12311 H 1217 0.774791 -1.2138 0
M  V30 12312 H 1218.95 3.88352 -1.63587 0
M  V30 12313 H 1217.68 3.21225 -0.590093 0
M  V30 12314 H 1216.34 2.56286 -2.62132 0
M  V30 12315 H 1215.98 4.7892 -1.53768 0
M  V30 12316 H 1215.68 4.86727 -3.29197 0
M  V30 12317 H 1217.21 5.51482 -2.62107 0
M  V30 12318 H 1218.62 3.89153 -4.2099 0
M  V30 12319 H 1217.02 3.4825 -4.88715 0
M  V30 12320 H 1218.09 2.18359 -4.32952 0
M  V30 12321 N 1219.43 1.33438 0.838571 0
M  V30 12322 C 1220.85 1.12779 1.12929 0
M  V30 12323 C 1221.05 -0.0811188 2.01337 0
M  V30 12324 O 1220.1 -0.761294 2.4075 0
M  V30 12325 C 1221.42 2.41537 1.7911 0
M  V30 12326 C 1222.97 2.47447 1.91674 0
M  V30 12327 C 1223.44 3.76167 2.6127 0
M  V30 12328 N 1224.93 3.7724 2.68783 0
M  V30 12329 C 1225.67 4.7355 3.23323 0
M  V30 12330 N 1225.16 5.80235 3.78549 0
M  V30 12331 N 1226.96 4.61025 3.21578 0
M  V30 12332 H 1219.11 2.10921 0.250187 0
M  V30 12333 H 1221.37 0.931986 0.17351 0
M  V30 12334 H 1221.08 3.30006 1.21609 0
M  V30 12335 H 1220.95 2.53709 2.79127 0
M  V30 12336 H 1223.34 1.59427 2.48328 0
M  V30 12337 H 1223.42 2.39216 0.906058 0
M  V30 12338 H 1223.06 4.64569 2.05275 0
M  V30 12339 H 1222.99 3.81675 3.62811 0
M  V30 12340 H 1225.48 3.00138 2.29621 0
M  V30 12341 H 1225.8 6.49759 4.1837 0
M  V30 12342 H 1224.14 5.83969 3.76836 0
M  V30 12343 H 1227.33 3.76836 2.77691 0
M  V30 12344 H 1227.5 5.36253 3.63781 0
M  V30 12345 N 1220.91 -1.05686 1.16912 0
M  V30 12346 C 1222.16 -1.79006 0.965835 0
M  V30 12347 C 1222.51 -1.85774 -0.500593 0
M  V30 12348 O 1221.8 -1.34282 -1.3667 0
M  V30 12349 C 1222 -3.22779 1.53455 0
M  V30 12350 C 1221.83 -3.30023 3.05474 0
M  V30 12351 C 1220.6 -3.396 3.74166 0
M  V30 12352 C 1222.8 -3.19376 4.03117 0
M  V30 12353 N 1220.78 -3.35923 5.13838 0
M  V30 12354 C 1222.15 -3.23013 5.2921 0
M  V30 12355 C 1224.2 -3.03304 3.94856 0
M  V30 12356 C 1222.91 -3.12228 6.48002 0
M  V30 12357 C 1224.93 -2.93859 5.13226 0
M  V30 12358 C 1224.29 -2.98124 6.38202 0
M  V30 12359 H 1220.39 -0.667577 0.407266 0
M  V30 12360 H 1222.98 -1.26025 1.48411 0
M  V30 12361 H 1221.15 -3.74143 1.04268 0
M  V30 12362 H 1222.88 -3.8431 1.26839 0
M  V30 12363 H 1219.64 -3.44654 3.24824 0
M  V30 12364 H 1220.06 -3.37567 5.86837 0
M  V30 12365 H 1224.7 -2.98848 2.99081 0
M  V30 12366 H 1222.42 -3.15439 7.43992 0
M  V30 12367 H 1226.01 -2.82501 5.0861 0
M  V30 12368 H 1224.89 -2.90882 7.28256 0
M  V30 12369 N 1222.39 -0.968567 -1.24324 0
M  V30 12370 C 1223.35 -0.504307 -2.23583 0
M  V30 12371 C 1224.35 0.399626 -1.55755 0
M  V30 12372 O 1225.54 0.194966 -1.73106 0
M  V30 12373 C 1222.67 0.26956 -3.39833 0
M  V30 12374 H 1223.87 -1.3818 -2.6617 0
M  V30 12375 H 1221.42 -0.753241 -1.36952 0
M  V30 12376 H 1222.15 1.16411 -3.02686 0
M  V30 12377 H 1221.94 -0.379133 -3.90263 0
M  V30 12378 H 1223.43 0.583376 -4.13505 0
M  V30 12379 N 1223.87 1.39211 -0.738786 0
M  V30 12380 C 1224.83 2.28937 -0.109746 0
M  V30 12381 C 1225.83 1.46488 0.663157 0
M  V30 12382 O 1227.02 1.67119 0.491614 0
M  V30 12383 C 1224.15 3.30039 0.853633 0
M  V30 12384 H 1225.34 2.86068 -0.900295 0
M  V30 12385 H 1222.9 1.47922 -0.504853 0
M  V30 12386 H 1223.63 2.77971 1.6704 0
M  V30 12387 H 1223.42 3.90935 0.302007 0
M  V30 12388 H 1224.91 3.97169 1.29022 0
M  V30 12389 N 1225.34 0.486708 1.49896 0
M  V30 12390 C 1226.76 0.0353906 1.86666 0
M  V30 12391 C 1227.11 -1.3743 1.40026 0
M  V30 12392 O 1226.23 -2.02163 0.77194 0
M  V30 12393 C 1226.83 0.0574475 3.38751 0
M  V30 12394 C 1225.39 -0.338464 3.74875 0
M  V30 12395 C 1224.53 0.436196 2.73848 0
M  V30 12396 H 1227.48 0.700215 1.42417 0
M  V30 12397 H 1227.5 -0.741175 3.73212 0
M  V30 12398 H 1227.02 1.08356 3.72667 0
M  V30 12399 H 1225.12 -1.36835 3.46565 0
M  V30 12400 H 1225.23 -0.0289519 4.79091 0
M  V30 12401 H 1223.59 -0.112141 2.54453 0
M  V30 12402 H 1224.38 1.46212 3.10608 0
M  V30 12403 N 1226.82 -1.56058 0.219941 0
M  V30 12404 C 1227.73 -2.23844 -0.70222 0
M  V30 12405 C 1228.75 -1.24554 -1.215 0
M  V30 12406 O 1229.93 -1.57362 -1.25695 0
M  V30 12407 C 1226.99 -2.90384 -1.89416 0
M  V30 12408 C 1226.05 -4.05012 -1.42351 0
M  V30 12409 C 1225.28 -4.68369 -2.55863 0
M  V30 12410 O 1225.51 -4.3071 -3.73958 0
M  V30 12411 O 1224.44 -5.5739 -2.27157 0
M  V30 12412 H 1228.27 -3.03305 -0.15478 0
M  V30 12413 H 1225.85 -1.49396 -0.010438 0
M  V30 12414 H 1227.73 -3.32389 -2.59028 0
M  V30 12415 H 1226.41 -2.13883 -2.42973 0
M  V30 12416 H 1225.32 -3.67579 -0.695448 0
M  V30 12417 H 1226.65 -4.83251 -0.934332 0
M  V30 12418 N 1228.3 0.053464 -1.57509 0
M  V30 12419 C 1229.55 0.750212 -1.88414 0
M  V30 12420 C 1229.88 1.76288 -0.814619 0
M  V30 12421 O 1229.16 1.93728 0.173136 0
M  V30 12422 C 1229.44 1.44176 -3.29978 0
M  V30 12423 C 1229.29 0.444263 -4.47601 0
M  V30 12424 C 1230.61 2.38207 -3.70061 0
M  V30 12425 H 1227.73 0.271266 -0.685262 0
M  V30 12426 H 1230.37 0.0131676 -1.89995 0
M  V30 12427 H 1228.52 2.07001 -3.2876 0
M  V30 12428 H 1230.19 -0.180182 -4.60948 0
M  V30 12429 H 1228.44 -0.238771 -4.33142 0
M  V30 12430 H 1229.11 0.966134 -5.43479 0
M  V30 12431 H 1231.58 1.85446 -3.7249 0
M  V30 12432 H 1230.46 2.83588 -4.69967 0
M  V30 12433 H 1230.72 3.23821 -3.00985 0
M  V30 12434 N 1229.78 1.54207 0.325255 0
M  V30 12435 C 1231.03 1.71544 1.06091 0
M  V30 12436 C 1231.34 0.495137 1.89229 0
M  V30 12437 O 1232.55 0.54982 2.65874 0
M  V30 12438 C 1231 3.03412 1.93569 0
M  V30 12439 C 1230.61 4.32842 1.1555 0
M  V30 12440 C 1232.36 3.30113 2.66881 0
M  V30 12441 C 1230.26 5.55773 2.02164 0
M  V30 12442 H 1229.19 0.639281 0.399795 0
M  V30 12443 H 1231.84 1.80701 0.319261 0
M  V30 12444 H 1230.23 2.88158 2.71626 0
M  V30 12445 H 1231.4 4.58857 0.42276 0
M  V30 12446 H 1229.71 4.12893 0.539277 0
M  V30 12447 H 1232.31 4.19151 3.31988 0
M  V30 12448 H 1232.65 2.47918 3.34428 0
M  V30 12449 H 1233.19 3.46227 1.95887 0
M  V30 12450 H 1229.93 6.40565 1.39128 0
M  V30 12451 H 1229.45 5.3398 2.73177 0
M  V30 12452 H 1231.13 5.92113 2.60789 0
M  V30 12453 N 1231.26 -0.58723 1.46251 0
M  V30 12454 C 1232.22 -1.67863 1.5606 0
M  V30 12455 C 1233.22 -1.54715 0.438162 0
M  V30 12456 O 1234.41 -1.59415 0.702323 0
M  V30 12457 C 1231.54 -3.07262 1.47659 0
M  V30 12458 H 1232.74 -1.60525 2.53321 0
M  V30 12459 H 1230.29 -0.804691 1.33994 0
M  V30 12460 H 1231.02 -3.20159 0.5166 0
M  V30 12461 H 1230.81 -3.18213 2.29092 0
M  V30 12462 H 1232.3 -3.8672 1.57599 0
M  V30 12463 N 1232.74 -1.33881 -0.831482 0
M  V30 12464 C 1233.69 -1.2131 -1.93049 0
M  V30 12465 C 1234.67 -0.114199 -1.60494 0
M  V30 12466 O 1235.86 -0.343027 -1.73644 0
M  V30 12467 C 1232.99 -0.962034 -3.29545 0
M  V30 12468 C 1232.08 -2.10372 -3.68245 0
M  V30 12469 N 1232.47 -3.35427 -3.78579 0
M  V30 12470 C 1230.77 -2.01206 -3.98036 0
M  V30 12471 C 1231.47 -4.10351 -4.12295 0
M  V30 12472 N 1230.44 -3.3886 -4.25059 0
M  V30 12473 H 1234.24 -2.1609 -1.99204 0
M  V30 12474 H 1231.76 -1.25995 -1.02464 0
M  V30 12475 H 1233.76 -0.852895 -4.08082 0
M  V30 12476 H 1232.42 -0.0228423 -3.24692 0
M  V30 12477 H 1233.43 -3.70085 -3.62295 0
M  V30 12478 H 1230.1 -1.14991 -4.01352 0
M  V30 12479 H 1231.49 -5.18302 -4.27566 0
M  V30 12480 N 1234.21 1.05064 -1.1747 0
M  V30 12481 C 1235.46 1.77737 -0.961979 0
M  V30 12482 C 1235.78 1.88198 0.510551 0
M  V30 12483 O 1235.05 1.39968 1.37062 0
M  V30 12484 H 1233.63 0.658366 -0.352935 0
M  V30 12485 H 1236.29 1.26851 -1.47969 0
M  V30 12486 H 1235.39 2.79368 -1.39141 0
M  V30 12487 N 1235.69 0.975146 1.23809 0
M  V30 12488 C 1236.64 0.510761 2.25077 0
M  V30 12489 C 1237.61 -0.447605 1.59955 0
M  V30 12490 O 1238.79 -0.356318 1.87443 0
M  V30 12491 C 1235.93 -0.185755 3.446 0
M  V30 12492 C 1235.05 0.812254 4.24295 0
M  V30 12493 C 1234.18 0.0910835 5.31122 0
M  V30 12494 C 1233.22 1.07866 6.02521 0
M  V30 12495 N 1232.36 0.386995 7.01033 0
M  V30 12496 H 1237.2 1.37913 2.64166 0
M  V30 12497 H 1234.73 0.691184 1.2985 0
M  V30 12498 H 1236.69 -0.606341 4.1277 0
M  V30 12499 H 1235.32 -1.01803 3.06327 0
M  V30 12500 H 1234.37 1.35125 3.55592 0
M  V30 12501 H 1235.69 1.56502 4.73612 0
M  V30 12502 H 1234.84 -0.387129 6.05464 0
M  V30 12503 H 1233.58 -0.694324 4.82732 0
M  V30 12504 H 1232.58 1.56767 5.26976 0
M  V30 12505 H 1233.81 1.86464 6.52999 0
M  V30 12506 H 1231.76 -0.3793 6.54903 0
M  V30 12507 H 1231.67 1.0785 7.48268 0
M  V30 12508 H 1232.94 -0.0690036 7.79469 0
M  V30 12509 N 1237.17 -1.38817 0.746158 0
M  V30 12510 C 1238.12 -2.27825 0.089362 0
M  V30 12511 C 1239.1 -1.44826 -0.701013 0
M  V30 12512 O 1240.3 -1.67632 -0.568188 0
M  V30 12513 C 1237.42 -3.33639 -0.808682 0
M  V30 12514 C 1236.51 -4.24098 -0.0118582 0
M  V30 12515 N 1236.9 -4.95393 1.02075 0
M  V30 12516 C 1235.2 -4.45355 -0.239815 0
M  V30 12517 C 1235.9 -5.61969 1.5022 0
M  V30 12518 N 1234.88 -5.37398 0.818816 0
M  V30 12519 H 1238.68 -2.80406 0.88033 0
M  V30 12520 H 1236.19 -1.51632 0.581512 0
M  V30 12521 H 1238.19 -3.96284 -1.29478 0
M  V30 12522 H 1236.85 -2.82617 -1.59868 0
M  V30 12523 H 1237.86 -4.98552 1.40237 0
M  V30 12524 H 1234.54 -4.05255 -1.00374 0
M  V30 12525 H 1235.93 -6.29017 2.36192 0
M  V30 12526 N 1238.65 -0.49465 -1.49636 0
M  V30 12527 C 1239.88 0.0491129 -2.06842 0
M  V30 12528 C 1240.29 1.31395 -1.35576 0
M  V30 12529 O 1239.65 1.7731 -0.432135 0
M  V30 12530 C 1239.7 0.313171 -3.60141 0
M  V30 12531 O 1239.42 -0.90152 -4.28724 0
M  V30 12532 C 1240.92 0.901284 -4.34041 0
M  V30 12533 H 1238.14 -0.0176186 -0.670769 0
M  V30 12534 H 1240.68 -0.690188 -1.92501 0
M  V30 12535 H 1238.84 1.00244 -3.74206 0
M  V30 12536 H 1239.25 -0.660477 -5.20325 0
M  V30 12537 H 1240.73 1.03567 -5.42197 0
M  V30 12538 H 1241.2 1.89746 -3.96097 0
M  V30 12539 H 1241.81 0.249677 -4.24566 0
M  V30 12540 N 1240.13 1.55939 -0.228214 0
M  V30 12541 C 1241.35 2.0287 0.406348 0
M  V30 12542 C 1241.77 1.1079 1.52876 0
M  V30 12543 O 1241.13 0.118747 1.82113 0
M  V30 12544 C 1241.18 3.49286 0.931734 0
M  V30 12545 O 1240.9 4.37857 -0.145933 0
M  V30 12546 C 1242.4 4.11893 1.63887 0
M  V30 12547 H 1239.62 0.663696 0.0987358 0
M  V30 12548 H 1242.16 2.01541 -0.346616 0
M  V30 12549 H 1240.32 3.5121 1.63494 0
M  V30 12550 H 1240.73 5.23904 0.250005 0
M  V30 12551 H 1242.21 5.16091 1.95841 0
M  V30 12552 H 1242.68 3.57281 2.55435 0
M  V30 12553 H 1243.29 4.13839 0.980697 0
M  V30 12554 N 1241.6 -0.0451101 1.57535 0
M  V30 12555 C 1242.83 -0.755068 1.93167 0
M  V30 12556 C 1243.25 -1.68949 0.826915 0
M  V30 12557 O 1242.61 -1.79978 -0.218534 0
M  V30 12558 C 1242.66 -1.50201 3.27829 0
M  V30 12559 O 1241.76 -2.61434 3.18945 0
M  V30 12560 H 1241.11 -0.204219 0.631815 0
M  V30 12561 H 1243.64 -0.00537504 2.04599 0
M  V30 12562 H 1243.65 -1.87547 3.6234 0
M  V30 12563 H 1242.32 -0.816591 4.07805 0
M  V30 12564 H 1240.9 -2.26749 2.96039 0
M  V30 12565 N 1243.08 -1.54377 -0.317073 0
M  V30 12566 C 1244.31 -1.77184 -1.07798 0
M  V30 12567 C 1244.73 -0.52204 -1.80711 0
M  V30 12568 O 1244.09 0.52672 -1.7348 0
M  V30 12569 C 1244.14 -2.96887 -2.04671 0
M  V30 12570 O 1243.24 -2.68887 -3.12688 0
M  V30 12571 H 1242.58 -0.586937 -0.310485 0
M  V30 12572 H 1245.11 -2.01419 -0.35939 0
M  V30 12573 H 1245.12 -3.24414 -2.47426 0
M  V30 12574 H 1243.8 -3.87518 -1.51005 0
M  V30 12575 H 1242.38 -2.52329 -2.74562 0
M  V30 12576 N 1244.56 0.579466 -1.4656 0
M  V30 12577 C 1245.84 1.33973 -1.42515 0
M  V30 12578 C 1246.22 2.10812 -0.110317 0
M  V30 12579 O 1245.57 2.09679 0.908135 0
M  V30 12580 C 1245.78 2.26301 -2.65686 0
M  V30 12581 C 1247.12 2.88027 -3.1197 0
M  V30 12582 O 1248.15 2.36612 -2.66257 0
M  V30 12583 O 1247.01 3.81423 -3.9138 0
M  V30 12584 H 1244.1 0.602121 -0.566903 0
M  V30 12585 H 1246.65 0.600214 -1.58731 0
M  V30 12586 H 1245.42 1.68973 -3.52936 0
M  V30 12587 H 1245.04 3.07586 -2.51945 0
M  V30 12588 N 1246.04 1.3432 0.824371 0
M  V30 12589 C 1247.28 1.26783 1.58284 0
M  V30 12590 C 1247.62 -0.162282 1.93521 0
M  V30 12591 O 1246.89 -1.1073 1.59903 0
M  V30 12592 C 1247.18 2.15725 2.88331 0
M  V30 12593 C 1247.03 3.67266 2.59684 0
M  V30 12594 C 1248.35 2.04141 3.8989 0
M  V30 12595 H 1245.47 0.461893 0.574303 0
M  V30 12596 H 1248.11 1.64558 0.949769 0
M  V30 12597 H 1246.26 1.83639 3.42358 0
M  V30 12598 H 1247.93 4.09711 2.11978 0
M  V30 12599 H 1246.17 3.88426 1.93151 0
M  V30 12600 H 1246.84 4.24863 3.52414 0
M  V30 12601 H 1249.32 2.3231 3.45212 0
M  V30 12602 H 1248.2 2.68601 4.7869 0
M  V30 12603 H 1248.46 1.01795 4.30221 0
M  V30 12604 N 1247.52 -1.0444 1.18026 0
M  V30 12605 C 1248.76 -1.77972 0.984767 0
M  V30 12606 C 1249.12 -1.86294 -0.480861 0
M  V30 12607 O 1248.41 -1.35724 -1.35239 0
M  V30 12608 C 1248.6 -3.21134 1.56869 0
M  V30 12609 C 1248.43 -3.26765 3.08958 0
M  V30 12610 C 1247.2 -3.35612 3.77747 0
M  V30 12611 C 1249.4 -3.15083 4.06482 0
M  V30 12612 N 1247.38 -3.30454 5.17372 0
M  V30 12613 C 1248.75 -3.17382 5.32606 0
M  V30 12614 C 1250.81 -2.99099 3.98051 0
M  V30 12615 C 1249.51 -3.05338 6.51277 0
M  V30 12616 C 1251.54 -2.88399 5.16314 0
M  V30 12617 C 1250.9 -2.91338 6.41328 0
M  V30 12618 H 1247 -0.66322 0.414323 0
M  V30 12619 H 1249.58 -1.24444 1.49739 0
M  V30 12620 H 1247.75 -3.73016 1.0823 0
M  V30 12621 H 1249.49 -3.82943 1.30908 0
M  V30 12622 H 1246.24 -3.41189 3.28462 0
M  V30 12623 H 1246.67 -3.31324 5.90384 0
M  V30 12624 H 1251.31 -2.95659 3.02234 0
M  V30 12625 H 1249.03 -3.07531 7.47296 0
M  V30 12626 H 1252.61 -2.77091 5.11578 0
M  V30 12627 H 1251.49 -2.83141 7.31301 0
M  V30 12628 N 1248.99 -0.981699 -1.2329 0
M  V30 12629 C 1250.22 -0.669025 -1.96313 0
M  V30 12630 C 1250.64 0.757624 -1.72168 0
M  V30 12631 O 1250 1.51626 -0.993942 0
M  V30 12632 C 1250.05 -0.966875 -3.47396 0
M  V30 12633 O 1249.15 -0.0595933 -4.12357 0
M  V30 12634 H 1248.5 -0.251493 -0.61453 0
M  V30 12635 H 1251.03 -1.31564 -1.56691 0
M  V30 12636 H 1251.04 -0.904112 -3.97857 0
M  V30 12637 H 1249.71 -2.00651 -3.64296 0
M  V30 12638 H 1248.29 -0.176878 -3.7248 0
M  V30 12639 N 1250.47 1.3842 -0.753509 0
M  V30 12640 C 1251.72 2.00119 -0.309633 0
M  V30 12641 C 1252.05 1.59811 1.10863 0
M  V30 12642 O 1251.3 0.827013 1.77367 0
M  V30 12643 C 1251.6 3.55375 -0.379937 0
M  V30 12644 C 1251.27 4.15393 -1.75384 0
M  V30 12645 C 1249.93 4.31499 -2.12984 0
M  V30 12646 C 1252.28 4.48503 -2.65508 0
M  V30 12647 C 1249.61 4.78011 -3.4018 0
M  V30 12648 C 1251.96 4.96431 -3.92095 0
M  V30 12649 C 1250.63 5.10744 -4.29764 0
M  V30 12650 H 1249.9 0.732286 -0.113303 0
M  V30 12651 H 1252.54 1.65468 -0.963975 0
M  V30 12652 H 1250.85 3.90161 0.357969 0
M  V30 12653 H 1252.54 4.00996 -0.0180738 0
M  V30 12654 H 1249.13 4.03271 -1.45156 0
M  V30 12655 H 1253.32 4.35661 -2.37724 0
M  V30 12656 H 1248.57 4.87277 -3.69284 0
M  V30 12657 H 1252.75 5.21021 -4.62072 0
M  V30 12658 H 1250.38 5.46545 -5.28387 0
M  V30 12659 N 1251.95 0.502579 1.49372 0
M  V30 12660 C 1253.2 -0.0412993 2.02058 0
M  V30 12661 C 1253.52 -1.37338 1.38431 0
M  V30 12662 O 1252.79 -1.88305 0.540175 0
M  V30 12663 H 1251.37 -0.0182522 0.746777 0
M  V30 12664 H 1254.03 0.660179 1.83378 0
M  V30 12665 H 1253.13 -0.169812 3.11638 0
M  V30 12666 N 1253.43 -1.55816 0.23648 0
M  V30 12667 C 1254.68 -1.97862 -0.391579 0
M  V30 12668 C 1254.99 -1.1276 -1.59827 0
M  V30 12669 O 1256.2 -1.44772 -2.29681 0
M  V30 12670 C 1254.65 -3.5204 -0.748065 0
M  V30 12671 C 1254.26 -4.45867 0.436643 0
M  V30 12672 C 1256 -4.02766 -1.3409 0
M  V30 12673 C 1253.91 -5.91373 0.0568909 0
M  V30 12674 H 1252.84 -0.738913 -0.150078 0
M  V30 12675 H 1255.49 -1.80415 0.335052 0
M  V30 12676 H 1253.87 -3.65143 -1.53254 0
M  V30 12677 H 1255.05 -4.44519 1.21408 0
M  V30 12678 H 1253.36 -4.05565 0.943702 0
M  V30 12679 H 1255.96 -5.08987 -1.63817 0
M  V30 12680 H 1256.3 -3.49496 -2.26182 0
M  V30 12681 H 1256.84 -3.92946 -0.619548 0
M  V30 12682 H 1253.58 -6.48657 0.944682 0
M  V30 12683 H 1253.1 -5.95881 -0.684557 0
M  V30 12684 H 1254.77 -6.45972 -0.364586 0
M  V30 12685 N 1254.91 0.036755 -1.57557 0
M  V30 12686 C 1255.84 1.03939 -2.09091 0
M  V30 12687 C 1256.82 1.38196 -0.991761 0
M  V30 12688 O 1258 1.47214 -1.26656 0
M  V30 12689 C 1255.13 2.34263 -2.56394 0
M  V30 12690 C 1254.09 2.14269 -3.70504 0
M  V30 12691 C 1253.41 3.50286 -4.03985 0
M  V30 12692 C 1254.71 1.53514 -4.9923 0
M  V30 12693 H 1256.41 0.610429 -2.93111 0
M  V30 12694 H 1253.95 0.292183 -1.41005 0
M  V30 12695 H 1255.91 3.04727 -2.91066 0
M  V30 12696 H 1254.63 2.79205 -1.69447 0
M  V30 12697 H 1253.29 1.46239 -3.36169 0
M  V30 12698 H 1252.94 3.92861 -3.14116 0
M  V30 12699 H 1252.64 3.37735 -4.80842 0
M  V30 12700 H 1254.16 4.22124 -4.41184 0
M  V30 12701 H 1255.57 2.13885 -5.31908 0
M  V30 12702 H 1253.97 1.51561 -5.80646 0
M  V30 12703 H 1255.04 0.500126 -4.82314 0
M  V30 12704 N 1256.39 1.54543 0.308881 0
M  V30 12705 C 1257.32 1.79818 1.40502 0
M  V30 12706 C 1258.3 0.648927 1.4909 0
M  V30 12707 O 1259.48 0.888009 1.66273 0
M  V30 12708 C 1256.61 1.92787 2.7848 0
M  V30 12709 C 1255.65 3.15167 2.87353 0
M  V30 12710 S 1256.49 4.73427 2.50255 0
M  V30 12711 C 1257.64 4.89321 3.90276 0
M  V30 12712 H 1257.88 2.7251 1.18852 0
M  V30 12713 H 1255.41 1.45854 0.506551 0
M  V30 12714 H 1257.37 2.00944 3.57955 0
M  V30 12715 H 1256.03 1.01047 2.97403 0
M  V30 12716 H 1255.22 3.2102 3.88538 0
M  V30 12717 H 1254.82 3.05416 2.15864 0
M  V30 12718 H 1257.11 4.7286 4.8519 0
M  V30 12719 H 1258.06 5.91418 3.89398 0
M  V30 12720 H 1258.47 4.17524 3.79913 0
M  V30 12721 N 1257.86 -0.571685 1.46866 0
M  V30 12722 C 1259.11 -1.32924 1.53957 0
M  V30 12723 C 1259.46 -1.91428 0.1932 0
M  V30 12724 O 1258.76 -1.74125 -0.799447 0
M  V30 12725 C 1258.95 -2.47051 2.58264 0
M  V30 12726 C 1258.78 -1.99729 4.02913 0
M  V30 12727 C 1257.55 -1.84236 4.70516 0
M  V30 12728 C 1259.75 -1.55035 4.90376 0
M  V30 12729 N 1257.73 -1.31101 5.99738 0
M  V30 12730 C 1259.1 -1.13566 6.0951 0
M  V30 12731 C 1261.16 -1.42953 4.76937 0
M  V30 12732 C 1259.86 -0.612183 7.1669 0
M  V30 12733 C 1261.89 -0.92008 5.84199 0
M  V30 12734 C 1261.25 -0.515239 7.02513 0
M  V30 12735 H 1257.35 -0.47897 0.618152 0
M  V30 12736 H 1259.93 -0.649687 1.83541 0
M  V30 12737 H 1258.1 -3.12555 2.30573 0
M  V30 12738 H 1259.83 -3.14025 2.55285 0
M  V30 12739 H 1256.59 -2.06516 4.26202 0
M  V30 12740 H 1257.01 -1.06663 6.68545 0
M  V30 12741 H 1261.65 -1.72869 3.85845 0
M  V30 12742 H 1259.37 -0.300634 8.07541 0
M  V30 12743 H 1262.96 -0.830357 5.75844 0
M  V30 12744 H 1261.84 -0.127122 7.84097 0
M  V30 12745 N 1259.34 -1.34755 -0.817236 0
M  V30 12746 C 1260.25 -1.28888 -1.96023 0
M  V30 12747 C 1261.27 -0.195582 -1.72897 0
M  V30 12748 O 1262.44 -0.423071 -1.96906 0
M  V30 12749 C 1259.51 -1.04985 -3.30423 0
M  V30 12750 C 1258.57 -2.23526 -3.66517 0
M  V30 12751 C 1257.8 -2.00753 -4.94504 0
M  V30 12752 O 1258.03 -0.968622 -5.62116 0
M  V30 12753 O 1256.96 -2.87848 -5.28608 0
M  V30 12754 H 1260.79 -2.25059 -2.03917 0
M  V30 12755 H 1258.37 -1.15019 -0.953467 0
M  V30 12756 H 1260.25 -0.934589 -4.10906 0
M  V30 12757 H 1258.93 -0.118582 -3.23483 0
M  V30 12758 H 1257.83 -2.40613 -2.86455 0
M  V30 12759 H 1259.17 -3.15062 -3.78149 0
M  V30 12760 N 1260.82 1.03812 -1.18578 0
M  V30 12761 C 1262.07 1.77319 -0.984173 0
M  V30 12762 C 1262.4 1.88052 0.484789 0
M  V30 12763 O 1261.67 1.3905 1.35998 0
M  V30 12764 C 1261.96 3.20448 -1.6427 0
M  V30 12765 C 1261.81 3.17643 -3.1847 0
M  V30 12766 C 1263.13 4.18623 -1.35805 0
M  V30 12767 H 1260.25 0.643681 -0.358949 0
M  V30 12768 H 1262.89 1.21249 -1.46283 0
M  V30 12769 H 1261.04 3.68324 -1.23572 0
M  V30 12770 H 1262.71 2.77738 -3.6832 0
M  V30 12771 H 1260.95 2.55606 -3.50497 0
M  V30 12772 H 1261.63 4.18724 -3.59686 0
M  V30 12773 H 1264.1 3.79306 -1.71073 0
M  V30 12774 H 1262.98 5.16982 -1.84446 0
M  V30 12775 H 1263.24 4.41203 -0.281418 0
M  V30 12776 N 1262.3 0.988223 1.22768 0
M  V30 12777 C 1263.23 0.47962 2.23103 0
M  V30 12778 C 1264.21 -0.457546 1.5603 0
M  V30 12779 O 1265.39 -0.384178 1.84544 0
M  V30 12780 C 1262.52 -0.305248 3.37322 0
M  V30 12781 C 1261.57 0.577215 4.22576 0
M  V30 12782 S 1262.4 2.02974 4.95542 0
M  V30 12783 C 1263.55 1.25423 6.13205 0
M  V30 12784 H 1263.79 1.32985 2.65899 0
M  V30 12785 H 1261.32 0.794824 1.3237 0
M  V30 12786 H 1263.28 -0.752057 4.03552 0
M  V30 12787 H 1261.94 -1.1307 2.93043 0
M  V30 12788 H 1261.13 -0.0264391 5.03993 0
M  V30 12789 H 1260.73 0.960593 3.61453 0
M  V30 12790 H 1263.03 0.519499 6.75505 0
M  V30 12791 H 1263.97 2.04351 6.77972 0
M  V30 12792 H 1264.38 0.769573 5.5923 0
M  V30 12793 N 1263.78 -1.38018 0.760839 0
M  V30 12794 C 1265 -2.04757 0.330038 0
M  V30 12795 C 1265.43 -1.57009 -1.03585 0
M  V30 12796 O 1264.78 -0.725349 -1.66158 0
M  V30 12797 C 1264.83 -3.58696 0.370082 0
M  V30 12798 O 1263.94 -4.07507 -0.633361 0
M  V30 12799 H 1263.28 -0.648023 0.144782 0
M  V30 12800 H 1265.81 -1.7655 1.03399 0
M  V30 12801 H 1265.82 -4.07387 0.223515 0
M  V30 12802 H 1264.49 -3.92806 1.36661 0
M  V30 12803 H 1263.07 -3.70165 -0.45081 0
M  V30 12804 N 1265.25 -0.510493 -1.49103 0
M  V30 12805 C 1266.48 0.0271324 -2.06582 0
M  V30 12806 C 1266.89 1.30499 -1.36991 0
M  V30 12807 O 1266.23 1.78229 -0.444976 0
M  V30 12808 C 1266.3 0.341488 -3.57874 0
M  V30 12809 C 1265.96 -0.840037 -4.49213 0
M  V30 12810 C 1266.96 -1.73315 -4.90161 0
M  V30 12811 C 1264.64 -1.04153 -4.91383 0
M  V30 12812 C 1266.64 -2.81182 -5.72028 0
M  V30 12813 C 1264.32 -2.12336 -5.73024 0
M  V30 12814 C 1265.32 -3.00684 -6.13252 0
M  V30 12815 O 1265.01 -4.06999 -6.93258 0
M  V30 12816 H 1264.74 -0.0215383 -0.675657 0
M  V30 12817 H 1267.3 -0.709841 -1.92744 0
M  V30 12818 H 1265.53 1.13218 -3.69755 0
M  V30 12819 H 1267.21 0.818859 -3.97554 0
M  V30 12820 H 1267.98 -1.58934 -4.58219 0
M  V30 12821 H 1263.86 -0.363199 -4.59567 0
M  V30 12822 H 1267.4 -3.50169 -6.03347 0
M  V30 12823 H 1263.3 -2.26708 -6.04379 0
M  V30 12824 H 1264.07 -4.04469 -7.11581 0
M  V30 12825 N 1266.73 1.55688 -0.24474 0
M  V30 12826 C 1267.98 1.98498 0.379852 0
M  V30 12827 C 1268.3 1.13416 1.58625 0
M  V30 12828 O 1267.57 0.216456 1.947 0
M  V30 12829 H 1266.15 0.73312 0.143334 0
M  V30 12830 H 1268.81 1.91858 -0.343027 0
M  V30 12831 H 1267.91 3.04367 0.690463 0
M  V30 12832 N 1268.21 -0.0283989 1.57574 0
M  V30 12833 C 1269.12 -1.04575 2.10003 0
M  V30 12834 C 1270.14 -1.39588 1.03881 0
M  V30 12835 O 1271.31 -1.48894 1.35619 0
M  V30 12836 C 1268.38 -2.32755 2.56955 0
M  V30 12837 C 1267.44 -2.04317 3.77562 0
M  V30 12838 C 1266.67 -3.26385 4.22266 0
M  V30 12839 O 1266.89 -4.37082 3.66491 0
M  V30 12840 O 1265.83 -3.12046 5.14695 0
M  V30 12841 H 1269.65 -0.630183 2.9709 0
M  V30 12842 H 1267.24 -0.245423 1.4737 0
M  V30 12843 H 1269.12 -3.08111 2.87482 0
M  V30 12844 H 1267.8 -2.73605 1.72979 0
M  V30 12845 H 1266.7 -1.26527 3.52054 0
M  V30 12846 H 1268.04 -1.68321 4.62524 0
M  V30 12847 N 1269.69 -1.54705 -0.300681 0
M  V30 12848 C 1271.1 -1.45926 -0.646359 0
M  V30 12849 C 1271.3 -0.65072 -1.90704 0
M  V30 12850 O 1270.36 -0.158547 -2.52002 0
M  V30 12851 C 1271.67 -2.89889 -0.799059 0
M  V30 12852 C 1273.22 -2.99934 -0.894923 0
M  V30 12853 C 1273.7 -4.45093 -1.07962 0
M  V30 12854 N 1275.19 -4.48804 -1.14581 0
M  V30 12855 C 1275.92 -5.58305 -1.30702 0
M  V30 12856 N 1275.42 -6.77729 -1.43719 0
M  V30 12857 N 1277.21 -5.45994 -1.33593 0
M  V30 12858 H 1269.36 -2.05742 0.527617 0
M  V30 12859 H 1271.62 -0.931817 0.174415 0
M  V30 12860 H 1271.33 -3.51655 0.0563954 0
M  V30 12861 H 1271.2 -3.37325 -1.68796 0
M  V30 12862 H 1273.59 -2.38281 -1.74086 0
M  V30 12863 H 1273.67 -2.55794 0.0179973 0
M  V30 12864 H 1273.32 -5.0734 -0.238444 0
M  V30 12865 H 1273.25 -4.86864 -2.00677 0
M  V30 12866 H 1275.74 -3.62766 -1.05874 0
M  V30 12867 H 1276.05 -7.56937 -1.55776 0
M  V30 12868 H 1274.4 -6.80594 -1.40774 0
M  V30 12869 H 1277.59 -4.51641 -1.23035 0
M  V30 12870 H 1277.76 -6.31381 -1.45813 0
M  V30 12871 N 1271.17 0.563888 -1.47167 0
M  V30 12872 C 1272.58 1.14603 -1.47388 0
M  V30 12873 C 1272.93 1.94907 -0.224916 0
M  V30 12874 O 1272.05 2.05745 0.670672 0
M  V30 12875 C 1272.65 2.08501 -2.67044 0
M  V30 12876 C 1271.21 2.62 -2.70246 0
M  V30 12877 C 1270.35 1.38244 -2.40383 0
M  V30 12878 H 1273.31 0.350833 -1.54774 0
M  V30 12879 H 1273.33 2.92272 -2.43634 0
M  V30 12880 H 1272.84 1.50027 -3.57929 0
M  V30 12881 H 1270.94 3.24292 -1.83482 0
M  V30 12882 H 1271.05 3.0345 -3.70749 0
M  V30 12883 H 1269.42 1.68692 -1.90827 0
M  V30 12884 H 1270.2 0.815726 -3.33468 0
M  V30 12885 N 1272.64 1.35187 0.810078 0
M  V30 12886 C 1273.87 1.31181 1.59609 0
M  V30 12887 C 1274.28 -0.113556 1.88859 0
M  V30 12888 O 1273.63 -1.07491 1.48968 0
M  V30 12889 C 1273.69 2.04749 2.95496 0
M  V30 12890 C 1273.35 3.53952 2.89079 0
M  V30 12891 C 1274.35 4.48612 2.6276 0
M  V30 12892 C 1272.03 3.96551 3.08306 0
M  V30 12893 C 1274.03 5.83846 2.5574 0
M  V30 12894 C 1271.71 5.31881 3.00909 0
M  V30 12895 C 1272.71 6.2534 2.74661 0
M  V30 12896 O 1272.4 7.58188 2.6722 0
M  V30 12897 H 1272.13 0.452285 0.502408 0
M  V30 12898 H 1274.69 1.78571 1.01497 0
M  V30 12899 H 1272.92 1.51992 3.55577 0
M  V30 12900 H 1274.61 1.93866 3.5661 0
M  V30 12901 H 1275.37 4.1702 2.47628 0
M  V30 12902 H 1271.25 3.24194 3.27749 0
M  V30 12903 H 1274.79 6.56765 2.35172 0
M  V30 12904 H 1270.69 5.63088 3.15598 0
M  V30 12905 H 1271.46 7.68073 2.82853 0
M  V30 12906 N 1274.12 -1.03182 1.19127 0
M  V30 12907 C 1275.37 -1.76917 1.00359 0
M  V30 12908 C 1275.72 -1.86794 -0.461075 0
M  V30 12909 O 1275.02 -1.37151 -1.33791 0
M  V30 12910 C 1275.21 -3.19452 1.60267 0
M  V30 12911 C 1275.04 -3.2347 3.12406 0
M  V30 12912 C 1273.81 -3.31587 3.81285 0
M  V30 12913 C 1276.01 -3.10754 4.09801 0
M  V30 12914 N 1273.99 -3.24948 5.20848 0
M  V30 12915 C 1275.36 -3.11715 5.35942 0
M  V30 12916 C 1277.42 -2.9486 4.01201 0
M  V30 12917 C 1276.12 -2.98413 6.54479 0
M  V30 12918 C 1278.14 -2.82907 5.19344 0
M  V30 12919 C 1277.51 -2.8452 6.44382 0
M  V30 12920 H 1273.61 -0.658788 0.421334 0
M  V30 12921 H 1276.19 -1.22849 1.51051 0
M  V30 12922 H 1274.36 -3.71847 1.1218 0
M  V30 12923 H 1276.09 -3.81533 1.34963 0
M  V30 12924 H 1272.85 -3.37686 3.32062 0
M  V30 12925 H 1273.27 -3.25043 5.93865 0
M  V30 12926 H 1277.91 -2.92437 3.05353 0
M  V30 12927 H 1275.63 -2.99587 7.50515 0
M  V30 12928 H 1279.22 -2.71649 5.14488 0
M  V30 12929 H 1278.1 -2.75369 7.34263 0
M  V30 12930 N 1275.6 -0.99472 -1.22242 0
M  V30 12931 C 1276.88 -0.587481 -1.86569 0
M  V30 12932 C 1277.26 0.935174 -1.89256 0
M  V30 12933 O 1276.61 1.81787 -1.3844 0
M  V30 12934 C 1276.82 -1.21001 -3.27353 0
M  V30 12935 C 1278.16 -1.31167 -4.03832 0
M  V30 12936 O 1279.19 -1.16454 -3.36626 0
M  V30 12937 O 1278.05 -1.54731 -5.24138 0
M  V30 12938 H 1275.14 -0.199838 -0.802492 0
M  V30 12939 H 1277.69 -1.09071 -1.30006 0
M  V30 12940 H 1276.46 -2.25143 -3.20041 0
M  V30 12941 H 1276.08 -0.692479 -3.91523 0
M  V30 12942 N 1277.08 1.37613 -0.768148 0
M  V30 12943 C 1278.01 2.27988 -0.098355 0
M  V30 12944 C 1278.99 1.46137 0.712939 0
M  V30 12945 O 1280.17 1.75477 0.68847 0
M  V30 12946 C 1277.3 3.27413 0.867086 0
M  V30 12947 C 1276.35 4.26269 0.140235 0
M  V30 12948 S 1277.18 5.2258 -1.16921 0
M  V30 12949 C 1278.34 6.25557 -0.207221 0
M  V30 12950 H 1278.57 2.84447 -0.864693 0
M  V30 12951 H 1276.1 1.43833 -0.561376 0
M  V30 12952 H 1278.06 3.85205 1.41872 0
M  V30 12953 H 1276.72 2.69908 1.6065 0
M  V30 12954 H 1275.91 4.964 0.871977 0
M  V30 12955 H 1275.52 3.72449 -0.340294 0
M  V30 12956 H 1277.81 6.74642 0.621654 0
M  V30 12957 H 1278.75 7.02653 -0.876595 0
M  V30 12958 H 1279.16 5.64213 0.179968 0
M  V30 12959 N 1278.56 0.518393 1.4883 0
M  V30 12960 C 1279.78 -0.0183131 2.07392 0
M  V30 12961 C 1280.21 -1.28468 1.37396 0
M  V30 12962 O 1279.56 -1.75975 0.436177 0
M  V30 12963 C 1279.61 -0.237211 3.59819 0
M  V30 12964 O 1278.72 -1.30835 3.91096 0
M  V30 12965 H 1278.06 0.0339621 0.663131 0
M  V30 12966 H 1280.59 0.722993 1.914 0
M  V30 12967 H 1280.6 -0.463424 4.0536 0
M  V30 12968 H 1279.27 0.687925 4.10171 0
M  V30 12969 H 1277.85 -1.06571 3.57347 0
M  V30 12970 N 1280.03 -1.55556 0.252993 0
M  V30 12971 C 1280.94 -2.25283 -0.654581 0
M  V30 12972 C 1281.96 -1.27103 -1.18831 0
M  V30 12973 O 1283.14 -1.59993 -1.22329 0
M  V30 12974 C 1280.2 -2.94336 -1.83214 0
M  V30 12975 C 1279.26 -4.0794 -1.33728 0
M  V30 12976 C 1278.5 -4.73691 -2.45871 0
M  V30 12977 O 1278.72 -4.38545 -3.64738 0
M  V30 12978 O 1277.65 -5.62083 -2.15283 0
M  V30 12979 H 1281.48 -3.03565 -0.0904091 0
M  V30 12980 H 1279.06 -1.49385 0.0212535 0
M  V30 12981 H 1280.95 -3.37808 -2.5192 0
M  V30 12982 H 1279.62 -2.18989 -2.38381 0
M  V30 12983 H 1278.53 -3.68971 -0.617323 0
M  V30 12984 H 1279.86 -4.85124 -0.831617 0
M  V30 12985 N 1281.51 0.0200419 -1.57587 0
M  V30 12986 C 1282.44 1.0456 -2.0396 0
M  V30 12987 C 1283.46 1.31922 -0.953962 0
M  V30 12988 O 1284.65 1.2925 -1.23112 0
M  V30 12989 C 1281.75 2.38514 -2.40758 0
M  V30 12990 C 1280.92 2.3038 -3.71812 0
M  V30 12991 C 1279.98 3.46856 -3.95698 0
M  V30 12992 O 1279 3.25944 -4.66636 0
M  V30 12993 N 1280.21 4.69033 -3.42036 0
M  V30 12994 H 1282.97 0.650282 -2.9256 0
M  V30 12995 H 1280.53 0.207818 -1.60561 0
M  V30 12996 H 1282.52 3.15172 -2.53868 0
M  V30 12997 H 1281.09 2.69859 -1.57781 0
M  V30 12998 H 1280.31 1.38762 -3.6897 0
M  V30 12999 H 1281.6 2.22097 -4.57767 0
M  V30 13000 H 1281 4.88923 -2.84553 0
M  V30 13001 H 1279.56 5.43025 -3.6051 0
M  V30 13002 N 1282.99 1.54862 0.292472 0
M  V30 13003 C 1283.9 1.89472 1.38339 0
M  V30 13004 C 1284.92 0.789783 1.55043 0
M  V30 13005 O 1286.09 1.08705 1.69544 0
M  V30 13006 C 1283.16 2.14244 2.72581 0
M  V30 13007 C 1282.22 3.37913 2.64789 0
M  V30 13008 C 1281.45 3.61494 3.92629 0
M  V30 13009 O 1281.67 2.87931 4.92394 0
M  V30 13010 O 1280.61 4.55019 3.94007 0
M  V30 13011 H 1284.43 2.82298 1.11989 0
M  V30 13012 H 1282.02 1.41161 0.489291 0
M  V30 13013 H 1283.9 2.31689 3.51991 0
M  V30 13014 H 1282.58 1.24603 2.98757 0
M  V30 13015 H 1281.48 3.25823 1.83821 0
M  V30 13016 H 1282.82 4.27711 2.43565 0
M  V30 13017 N 1284.47 -0.556076 1.47464 0
M  V30 13018 C 1285.71 -1.31515 1.54375 0
M  V30 13019 C 1286.05 -1.93106 0.205837 0
M  V30 13020 O 1285.32 -1.77927 -0.785643 0
M  V30 13021 C 1285.61 -2.4244 2.66261 0
M  V30 13022 C 1285.46 -1.8571 4.09673 0
M  V30 13023 C 1286.78 -3.4436 2.74051 0
M  V30 13024 H 1283.9 -0.476817 0.561974 0
M  V30 13025 H 1286.54 -0.622157 1.79525 0
M  V30 13026 H 1284.69 -3.01551 2.44948 0
M  V30 13027 H 1286.36 -1.30851 4.42353 0
M  V30 13028 H 1284.6 -1.16379 4.17898 0
M  V30 13029 H 1285.27 -2.65904 4.83735 0
M  V30 13030 H 1287.75 -2.95169 2.93282 0
M  V30 13031 H 1286.63 -4.194 3.54111 0
M  V30 13032 H 1286.89 -4.03281 1.81155 0
M  V30 13033 N 1285.95 -1.35615 -0.802897 0
M  V30 13034 C 1286.88 -1.31506 -1.92947 0
M  V30 13035 C 1287.86 -0.188843 -1.69048 0
M  V30 13036 O 1289.04 -0.384384 -1.90358 0
M  V30 13037 C 1286.17 -1.09001 -3.29752 0
M  V30 13038 C 1285.13 -2.18303 -3.68141 0
M  V30 13039 C 1284.45 -1.80959 -5.03148 0
M  V30 13040 C 1285.75 -3.60296 -3.78132 0
M  V30 13041 H 1287.45 -2.25771 -1.96642 0
M  V30 13042 H 1284.99 -1.08682 -0.944685 0
M  V30 13043 H 1286.95 -1.04766 -4.08169 0
M  V30 13044 H 1285.67 -0.111832 -3.26408 0
M  V30 13045 H 1284.33 -2.21642 -2.92011 0
M  V30 13046 H 1283.98 -0.817495 -4.96312 0
M  V30 13047 H 1283.68 -2.54129 -5.29804 0
M  V30 13048 H 1285.2 -1.78255 -5.84001 0
M  V30 13049 H 1286.62 -3.59259 -4.46773 0
M  V30 13050 H 1285.01 -4.32258 -4.16261 0
M  V30 13051 H 1286.08 -3.9618 -2.79588 0
M  V30 13052 N 1287.43 1.02549 -1.19673 0
M  V30 13053 C 1288.37 2.13015 -0.934209 0
M  V30 13054 C 1289.37 1.69035 0.111208 0
M  V30 13055 O 1290.57 1.79959 -0.0383449 0
M  V30 13056 H 1286.95 0.696015 -0.284722 0
M  V30 13057 H 1288.92 2.32346 -1.87238 0
M  V30 13058 C 1287.67 3.44185 -0.493124 0
M  V30 13059 H 1286.99 3.78447 -1.28911 0
M  V30 13060 H 1288.43 4.22565 -0.348577 0
M  V30 13061 C 1286.89 3.27427 0.793277 0
M  V30 13062 O 1287.42 3.56362 1.85388 0
M  V30 13063 N 1285.63 2.80706 0.751837 0
M  V30 13064 H 1285.17 2.57359 -0.111517 0
M  V30 13065 H 1285.13 2.69874 1.61292 0
M  V30 13066 N 1288.9 1.00119 1.21713 0
M  V30 13067 C 1289.87 0.563409 2.22167 0
M  V30 13068 C 1290.87 -0.35819 1.5676 0
M  V30 13069 O 1292.06 -0.149001 1.73562 0
M  V30 13070 C 1289.19 -0.179365 3.40428 0
M  V30 13071 H 1290.38 1.45189 2.62412 0
M  V30 13072 H 1287.93 0.789286 1.34907 0
M  V30 13073 H 1288.67 -1.08345 3.05666 0
M  V30 13074 H 1288.45 0.482471 3.8912 0
M  V30 13075 H 1289.94 -0.473537 4.14906 0
M  V30 13076 N 1290.38 -1.37203 0.775435 0
M  V30 13077 C 1291.63 -1.98846 0.338093 0
M  V30 13078 C 1291.94 -1.6225 -1.09244 0
M  V30 13079 O 1293.15 -2.17024 -1.63135 0
M  V30 13080 C 1291.61 -3.55618 0.553541 0
M  V30 13081 C 1291.21 -4.01149 1.99457 0
M  V30 13082 C 1292.96 -4.24118 0.180006 0
M  V30 13083 C 1290.86 -5.50644 2.15742 0
M  V30 13084 H 1289.79 -0.743955 0.122669 0
M  V30 13085 H 1292.45 -1.56685 0.955087 0
M  V30 13086 H 1290.83 -3.95777 -0.132964 0
M  V30 13087 H 1292 -3.72226 2.71633 0
M  V30 13088 H 1290.32 -3.45443 2.32504 0
M  V30 13089 H 1292.91 -5.33966 0.280145 0
M  V30 13090 H 1293.26 -4.07104 -0.870192 0
M  V30 13091 H 1293.79 -3.89274 0.819201 0
M  V30 13092 H 1290.53 -5.7259 3.19094 0
M  V30 13093 H 1290.05 -5.8124 1.48054 0
M  V30 13094 H 1291.73 -6.16668 1.95781 0
M  V30 13095 N 1291.86 -0.526279 -1.48553 0
M  V30 13096 C 1292.77 0.24244 -2.33344 0
M  V30 13097 C 1293.79 0.942658 -1.46253 0
M  V30 13098 O 1294.96 0.91844 -1.79239 0
M  V30 13099 C 1292.03 1.27801 -3.22285 0
M  V30 13100 C 1291.09 0.588543 -4.25247 0
M  V30 13101 C 1290.32 1.57478 -5.09938 0
M  V30 13102 O 1290.54 2.80707 -4.96548 0
M  V30 13103 O 1289.48 1.11621 -5.9146 0
M  V30 13104 H 1293.3 -0.452262 -3.00314 0
M  V30 13105 H 1290.89 -0.287249 -1.46613 0
M  V30 13106 H 1292.77 1.87656 -3.7731 0
M  V30 13107 H 1291.45 1.95519 -2.57981 0
M  V30 13108 H 1290.35 -0.0504022 -3.74066 0
M  V30 13109 H 1291.69 -0.046627 -4.92178 0
M  V30 13110 N 1293.34 1.5542 -0.261239 0
M  V30 13111 C 1294.27 2.19334 0.665214 0
M  V30 13112 C 1295.28 1.17388 1.128 0
M  V30 13113 O 1296.47 1.44183 1.0523 0
M  V30 13114 C 1293.57 2.79425 1.91768 0
M  V30 13115 C 1292.74 4.06929 1.60399 0
M  V30 13116 C 1291.8 4.51199 2.70751 0
M  V30 13117 O 1290.83 5.17272 2.37526 0
M  V30 13118 N 1292.03 4.20179 4.00537 0
M  V30 13119 H 1294.8 2.99467 0.118262 0
M  V30 13120 H 1292.36 1.61693 -0.0817727 0
M  V30 13121 H 1294.35 3.05992 2.64861 0
M  V30 13122 H 1292.92 2.03366 2.37405 0
M  V30 13123 H 1292.14 3.87798 0.707559 0
M  V30 13124 H 1293.43 4.9003 1.36924 0
M  V30 13125 H 1292.83 3.67164 4.30357 0
M  V30 13126 H 1291.38 4.51549 4.7005 0
M  V30 13127 N 1294.82 -0.0116844 1.57596 0
M  V30 13128 C 1295.73 -1.02342 2.111 0
M  V30 13129 C 1296.74 -1.38478 1.05355 0
M  V30 13130 O 1297.92 -1.47447 1.37191 0
M  V30 13131 C 1294.98 -2.30016 2.5941 0
M  V30 13132 C 1294.04 -2.003 3.79708 0
M  V30 13133 C 1293.28 -3.21888 4.25704 0
M  V30 13134 O 1293.5 -4.33171 3.71106 0
M  V30 13135 O 1292.43 -3.0657 5.17975 0
M  V30 13136 H 1296.26 -0.598637 2.97742 0
M  V30 13137 H 1293.84 -0.229779 1.47622 0
M  V30 13138 H 1295.73 -3.05044 2.90733 0
M  V30 13139 H 1294.4 -2.71755 1.75871 0
M  V30 13140 H 1293.31 -1.22785 3.53376 0
M  V30 13141 H 1294.64 -1.63406 4.64284 0
M  V30 13142 N 1296.29 -1.55015 -0.284256 0
M  V30 13143 C 1297.54 -1.7509 -1.01733 0
M  V30 13144 C 1297.87 -0.545803 -1.86685 0
M  V30 13145 O 1297.12 0.471951 -1.89924 0
M  V30 13146 C 1297.42 -3.00246 -1.93874 0
M  V30 13147 C 1297.09 -4.33295 -1.24764 0
M  V30 13148 C 1295.75 -4.69459 -1.0565 0
M  V30 13149 C 1298.1 -5.15704 -0.754939 0
M  V30 13150 C 1295.43 -5.85596 -0.35976 0
M  V30 13151 C 1297.78 -6.32559 -0.0718473 0
M  V30 13152 C 1296.45 -6.67371 0.131104 0
M  V30 13153 H 1295.72 -0.6407 -0.372269 0
M  V30 13154 H 1298.36 -1.89282 -0.290638 0
M  V30 13155 H 1296.67 -2.80907 -2.73127 0
M  V30 13156 H 1298.37 -3.12974 -2.50696 0
M  V30 13157 H 1294.96 -4.04865 -1.4065 0
M  V30 13158 H 1299.14 -4.8825 -0.89027 0
M  V30 13159 H 1294.4 -6.11099 -0.19169 0
M  V30 13160 H 1298.57 -6.95675 0.317743 0
M  V30 13161 H 1296.2 -7.57215 0.672977 0
M  V30 13162 N 1297.77 0.548248 -1.47757 0
M  V30 13163 C 1299.19 0.875048 -1.33473 0
M  V30 13164 C 1299.39 1.98747 -0.331952 0
M  V30 13165 O 1298.44 2.51226 0.253348 0
M  V30 13166 C 1299.76 1.25982 -2.73037 0
M  V30 13167 C 1301.3 1.37074 -2.81389 0
M  V30 13168 C 1301.78 1.78902 -4.21613 0
M  V30 13169 N 1303.27 1.86037 -4.24198 0
M  V30 13170 C 1304.01 2.1975 -5.2962 0
M  V30 13171 N 1303.5 2.52013 -6.45338 0
M  V30 13172 N 1305.29 2.206 -5.17003 0
M  V30 13173 H 1297.45 -0.186033 -2.11584 0
M  V30 13174 H 1299.71 -0.0205687 -0.947777 0
M  V30 13175 H 1299.41 0.516188 -3.47891 0
M  V30 13176 H 1299.29 2.21402 -3.05387 0
M  V30 13177 H 1301.68 2.10517 -2.06801 0
M  V30 13178 H 1301.76 0.398193 -2.52682 0
M  V30 13179 H 1301.4 1.06026 -4.9671 0
M  V30 13180 H 1301.33 2.77176 -4.47751 0
M  V30 13181 H 1303.82 1.63455 -3.40721 0
M  V30 13182 H 1304.13 2.7679 -7.21531 0
M  V30 13183 H 1302.48 2.49573 -6.48643 0
M  V30 13184 H 1305.67 1.9484 -4.25623 0
M  V30 13185 H 1305.84 2.46543 -5.99267 0
M  V30 13186 N 1299.25 1.36039 0.795694 0
M  V30 13187 C 1300.18 1.32528 1.92246 0
M  V30 13188 C 1301.16 0.197805 1.68946 0
M  V30 13189 O 1302.35 0.394474 1.90151 0
M  V30 13190 C 1299.48 1.10748 3.29169 0
M  V30 13191 C 1298.43 2.20253 3.66978 0
M  V30 13192 C 1297.76 1.83624 5.02181 0
M  V30 13193 C 1299.06 3.62296 3.76216 0
M  V30 13194 H 1300.75 2.2681 1.95442 0
M  V30 13195 H 1298.3 1.09181 0.938908 0
M  V30 13196 H 1300.25 1.06929 4.07608 0
M  V30 13197 H 1298.97 0.129141 3.26345 0
M  V30 13198 H 1297.63 2.23187 2.90832 0
M  V30 13199 H 1297.28 0.843804 4.95872 0
M  V30 13200 H 1296.98 2.56935 5.28449 0
M  V30 13201 H 1298.5 1.81349 5.83048 0
M  V30 13202 H 1299.92 3.61623 4.44861 0
M  V30 13203 H 1298.31 4.34459 4.13963 0
M  V30 13204 H 1299.38 3.97657 2.77483 0
M  V30 13205 N 1300.73 -1.01913 1.20215 0
M  V30 13206 C 1302.14 -1.5692 1.01159 0
M  V30 13207 C 1302.49 -1.91368 -0.432746 0
M  V30 13208 O 1301.62 -1.71959 -1.31374 0
M  V30 13209 C 1302.21 -2.85125 1.83001 0
M  V30 13210 C 1300.77 -3.36669 1.68318 0
M  V30 13211 C 1299.92 -2.10003 1.81091 0
M  V30 13212 H 1302.87 -0.843246 1.34443 0
M  V30 13213 H 1302.89 -3.56428 1.33188 0
M  V30 13214 H 1302.4 -2.60021 2.88116 0
M  V30 13215 H 1300.5 -3.66739 0.658292 0
M  V30 13216 H 1300.61 -4.09042 2.49442 0
M  V30 13217 H 1298.98 -2.22337 1.24252 0
M  V30 13218 H 1299.76 -1.87329 2.87685 0
M  V30 13219 N 1302.21 -1.00763 -1.2118 0
M  V30 13220 C 1303.62 -0.724746 -1.72059 0
M  V30 13221 C 1303.97 0.757413 -1.80991 0
M  V30 13222 O 1303.09 1.59152 -1.46627 0
M  V30 13223 C 1303.69 -1.30893 -3.12494 0
M  V30 13224 C 1302.25 -1.07511 -3.60719 0
M  V30 13225 C 1301.39 -1.42014 -2.38175 0
M  V30 13226 H 1304.35 -1.17821 -1.0632 0
M  V30 13227 H 1304.37 -0.694919 -3.741 0
M  V30 13228 H 1303.88 -2.38767 -3.05961 0
M  V30 13229 H 1301.98 -0.0136518 -3.72597 0
M  V30 13230 H 1302.09 -1.74885 -4.4604 0
M  V30 13231 H 1300.46 -0.838972 -2.40486 0
M  V30 13232 H 1301.24 -2.50924 -2.34291 0
M  V30 13233 N 1303.68 1.3679 -0.7827 0
M  V30 13234 C 1305.1 1.82006 -0.41603 0
M  V30 13235 C 1305.45 1.65151 1.05922 0
M  V30 13236 O 1304.57 1.1687 1.82127 0
M  V30 13237 C 1305.17 3.30432 -0.748353 0
M  V30 13238 C 1303.73 3.73883 -0.4346 0
M  V30 13239 C 1302.87 2.59159 -0.986505 0
M  V30 13240 H 1305.82 1.25107 -0.976423 0
M  V30 13241 H 1305.84 3.80482 -0.036985 0
M  V30 13242 H 1305.36 3.42667 -1.82212 0
M  V30 13243 H 1303.46 3.67211 0.631401 0
M  V30 13244 H 1303.57 4.69577 -0.950511 0
M  V30 13245 H 1301.93 2.51377 -0.410108 0
M  V30 13246 H 1302.72 2.74182 -2.06589 0
M  V30 13247 N 1305.16 0.53415 1.48272 0
M  V30 13248 C 1306.57 0.0947592 1.86459 0
M  V30 13249 C 1306.92 -1.32906 1.44328 0
M  V30 13250 O 1306.05 -1.99605 0.835866 0
M  V30 13251 C 1306.64 0.16519 3.38397 0
M  V30 13252 C 1305.2 -0.219029 3.75762 0
M  V30 13253 C 1304.35 0.523097 2.72321 0
M  V30 13254 H 1307.3 0.74517 1.40117 0
M  V30 13255 H 1307.32 -0.622065 3.75381 0
M  V30 13256 H 1306.83 1.20157 3.69031 0
M  V30 13257 H 1304.94 -1.2574 3.50742 0
M  V30 13258 H 1305.05 0.123482 4.78941 0
M  V30 13259 H 1303.41 -0.0311323 2.54681 0
M  V30 13260 H 1304.2 1.56019 3.05799 0
M  V30 13261 N 1306.64 -1.55279 0.269478 0
M  V30 13262 C 1307.89 -1.99077 -0.348224 0
M  V30 13263 C 1308.21 -1.15925 -1.568 0
M  V30 13264 O 1307.48 -0.247404 -1.94331 0
M  V30 13265 H 1306.06 -0.735307 -0.131653 0
M  V30 13266 H 1308.72 -1.91288 0.373506 0
M  V30 13267 H 1307.82 -3.05427 -0.641953 0
M  V30 13268 N 1308.12 0.00332656 -1.576 0
M  V30 13269 C 1309.36 0.69341 -1.92279 0
M  V30 13270 C 1309.72 1.71121 -0.870715 0
M  V30 13271 O 1310.92 2.45143 -1.10265 0
M  V30 13272 C 1309.19 1.32272 -3.32022 0
M  V30 13273 S 1310.75 2.03838 -3.88581 0
M  V30 13274 H 1307.57 0.229123 -0.67307 0
M  V30 13275 H 1310.17 -0.0525621 -1.95429 0
M  V30 13276 H 1308.88 0.569071 -4.06435 0
M  V30 13277 H 1308.41 2.10669 -3.32238 0
M  V30 13278 H 1310.42 3.31311 -3.69388 0
M  V30 13279 N 1309.6 1.55164 0.276031 0
M  V30 13280 C 1311.01 1.66367 0.847293 0
M  V30 13281 C 1311.36 0.588692 1.8716 0
M  V30 13282 O 1310.48 -0.27035 2.14705 0
M  V30 13283 C 1311.08 3.01593 1.5436 0
M  V30 13284 C 1309.64 3.14833 2.06293 0
M  V30 13285 C 1308.78 2.62152 0.903959 0
M  V30 13286 H 1311.74 1.58613 0.0524478 0
M  V30 13287 H 1311.76 2.94412 2.41043 0
M  V30 13288 H 1311.27 3.7981 0.797849 0
M  V30 13289 H 1309.37 2.41384 2.83839 0
M  V30 13290 H 1309.48 4.21353 2.28032 0
M  V30 13291 H 1307.85 2.19233 1.29649 0
M  V30 13292 H 1308.63 3.4287 0.171765 0
M  V30 13293 N 1311.07 -0.540404 1.48045 0
M  V30 13294 C 1312.49 -1.12243 1.49192 0
M  V30 13295 C 1312.84 -1.94524 0.255895 0
M  V30 13296 O 1311.96 -2.06786 -0.637855 0
M  V30 13297 C 1312.56 -2.04227 2.70327 0
M  V30 13298 C 1311.12 -2.57668 2.7438 0
M  V30 13299 C 1310.26 -1.34402 2.42552 0
M  V30 13300 H 1313.21 -0.326165 1.55312 0
M  V30 13301 H 1313.23 -2.88359 2.48253 0
M  V30 13302 H 1312.75 -1.44314 3.60271 0
M  V30 13303 H 1310.85 -3.21331 1.88618 0
M  V30 13304 H 1310.96 -2.97514 3.7553 0
M  V30 13305 H 1309.32 -1.65635 1.93487 0
M  V30 13306 H 1310.11 -0.762571 3.34723 0
M  V30 13307 N 1312.55 -1.36459 -0.788468 0
M  V30 13308 C 1313.8 -1.30483 -1.54333 0
M  V30 13309 C 1314.12 0.115266 -1.94659 0
M  V30 13310 O 1313.39 1.05573 -1.65019 0
M  V30 13311 H 1311.97 -0.480004 -0.572368 0
M  V30 13312 H 1314.63 -1.70765 -0.939428 0
M  V30 13313 H 1313.73 -1.93284 -2.45046 0
M  V30 13314 N 1314.03 1.01274 -1.20754 0
M  V30 13315 C 1314.96 2.11763 -0.983805 0
M  V30 13316 C 1315.94 1.69869 0.0885635 0
M  V30 13317 O 1317.13 1.94075 -0.0697239 0
M  V30 13318 C 1314.26 3.43087 -0.539287 0
M  V30 13319 C 1313.21 3.9874 -1.55534 0
M  V30 13320 C 1312.54 5.25877 -0.967322 0
M  V30 13321 C 1313.84 4.31688 -2.94012 0
M  V30 13322 H 1315.53 2.30737 -1.90789 0
M  V30 13323 H 1313.08 1.10884 -0.918734 0
M  V30 13324 H 1315.03 4.19773 -0.369979 0
M  V30 13325 H 1313.75 3.23883 0.420435 0
M  V30 13326 H 1312.41 3.24166 -1.71207 0
M  V30 13327 H 1312.06 5.03 0.000448307 0
M  V30 13328 H 1311.76 5.64077 -1.64594 0
M  V30 13329 H 1313.28 6.05215 -0.809167 0
M  V30 13330 H 1314.7 4.99246 -2.81827 0
M  V30 13331 H 1313.1 4.81011 -3.58815 0
M  V30 13332 H 1314.17 3.4029 -3.45442 0
M  V30 13333 N 1315.51 1.01404 1.20644 0
M  V30 13334 C 1316.46 0.552956 2.21193 0
M  V30 13335 C 1317.44 -0.390324 1.56094 0
M  V30 13336 O 1318.64 -0.213705 1.75705 0
M  V30 13337 C 1315.76 -0.10995 3.43124 0
M  V30 13338 C 1314.85 0.854886 4.15394 0
M  V30 13339 N 1315.24 2.01137 4.64088 0
M  V30 13340 C 1313.54 0.675168 4.4086 0
M  V30 13341 C 1314.24 2.6187 5.19422 0
M  V30 13342 N 1313.22 1.89952 5.09332 0
M  V30 13343 H 1317.02 1.43467 2.56504 0
M  V30 13344 H 1314.53 0.87905 1.36552 0
M  V30 13345 H 1316.53 -0.457802 4.14379 0
M  V30 13346 H 1315.19 -0.987534 3.09318 0
M  V30 13347 H 1316.2 2.3914 4.59383 0
M  V30 13348 H 1312.88 -0.154577 4.17214 0
M  V30 13349 H 1314.27 3.59727 5.67491 0
M  V30 13350 N 1316.99 -1.36373 0.789944 0
M  V30 13351 C 1317.92 -2.32616 0.202944 0
M  V30 13352 C 1318.9 -1.56674 -0.662364 0
M  V30 13353 O 1320.08 -1.84826 -0.596078 0
M  V30 13354 C 1317.21 -3.4092 -0.662646 0
M  V30 13355 C 1316.17 -4.27877 0.102811 0
M  V30 13356 C 1315.49 -5.27352 -0.883407 0
M  V30 13357 C 1316.79 -5.0606 1.29231 0
M  V30 13358 H 1318.49 -2.81958 1.00699 0
M  V30 13359 H 1316.03 -1.35562 0.48568 0
M  V30 13360 H 1317.99 -4.07239 -1.08324 0
M  V30 13361 H 1316.71 -2.90147 -1.4994 0
M  V30 13362 H 1315.37 -3.63114 0.504389 0
M  V30 13363 H 1315.02 -4.72853 -1.71521 0
M  V30 13364 H 1314.72 -5.86398 -0.375669 0
M  V30 13365 H 1316.24 -5.96545 -1.30256 0
M  V30 13366 H 1317.66 -5.65417 0.947446 0
M  V30 13367 H 1316.05 -5.74521 1.73338 0
M  V30 13368 H 1317.12 -4.37671 2.08739 0
M  V30 13369 N 1318.47 -0.542005 -1.47987 0
M  V30 13370 C 1319.4 0.202703 -2.32618 0
M  V30 13371 C 1320.38 0.923521 -1.42846 0
M  V30 13372 O 1321.56 0.906957 -1.7172 0
M  V30 13373 C 1318.69 1.24267 -3.24307 0
M  V30 13374 C 1317.65 0.639257 -4.23199 0
M  V30 13375 C 1316.97 1.78275 -5.04105 0
M  V30 13376 C 1318.27 -0.396982 -5.20789 0
M  V30 13377 H 1319.97 -0.503817 -2.95131 0
M  V30 13378 H 1317.51 -0.243736 -1.41922 0
M  V30 13379 H 1319.46 1.7717 -3.82347 0
M  V30 13380 H 1318.19 1.97893 -2.59819 0
M  V30 13381 H 1316.85 0.131655 -3.66364 0
M  V30 13382 H 1316.5 2.50768 -4.36032 0
M  V30 13383 H 1316.2 1.38487 -5.71047 0
M  V30 13384 H 1317.72 2.31533 -5.65 0
M  V30 13385 H 1319.13 0.0454057 -5.73282 0
M  V30 13386 H 1317.53 -0.712911 -5.9585 0
M  V30 13387 H 1318.6 -1.29843 -4.67193 0
M  V30 13388 N 1319.94 1.55134 -0.277709 0
M  V30 13389 C 1320.88 2.18745 0.650058 0
M  V30 13390 C 1321.85 1.14922 1.15029 0
M  V30 13391 O 1323.04 1.43458 1.22278 0
M  V30 13392 C 1320.17 2.81277 1.88683 0
M  V30 13393 C 1319.21 3.98425 1.52185 0
M  V30 13394 S 1320.04 5.32153 0.597782 0
M  V30 13395 C 1321.2 5.98155 1.84287 0
M  V30 13396 H 1321.43 2.97098 0.109571 0
M  V30 13397 H 1318.97 1.54276 -0.0619536 0
M  V30 13398 H 1320.92 3.17934 2.59669 0
M  V30 13399 H 1319.59 2.02813 2.39845 0
M  V30 13400 H 1318.78 4.40877 2.4422 0
M  V30 13401 H 1318.38 3.63203 0.892146 0
M  V30 13402 H 1320.67 6.17546 2.78646 0
M  V30 13403 H 1321.62 6.92857 1.46131 0
M  V30 13404 H 1322.02 5.27541 2.00899 0
M  V30 13405 N 1321.42 0.00503138 1.57599 0
M  V30 13406 C 1322.35 -0.983586 2.11773 0
M  V30 13407 C 1323.33 -1.35518 1.02805 0
M  V30 13408 O 1324.52 -1.43804 1.30514 0
M  V30 13409 C 1321.65 -2.27383 2.62515 0
M  V30 13410 C 1320.6 -2.0437 3.76054 0
M  V30 13411 C 1319.93 -3.39451 4.1313 0
M  V30 13412 C 1321.23 -1.40223 5.03125 0
M  V30 13413 H 1322.92 -0.532501 2.94627 0
M  V30 13414 H 1320.47 -0.254696 1.4173 0
M  V30 13415 H 1322.42 -2.96903 2.99043 0
M  V30 13416 H 1321.14 -2.74614 1.7679 0
M  V30 13417 H 1319.8 -1.37275 3.39928 0
M  V30 13418 H 1319.45 -3.84395 3.24422 0
M  V30 13419 H 1319.15 -3.24868 4.89627 0
M  V30 13420 H 1320.68 -4.10279 4.52221 0
M  V30 13421 H 1322.09 -1.99708 5.37392 0
M  V30 13422 H 1320.49 -1.36112 5.8446 0
M  V30 13423 H 1321.56 -0.372073 4.8347 0
M  V30 13424 N 1322.9 -1.55308 -0.267798 0
M  V30 13425 C 1324.18 -1.66881 -1.02029 0
M  V30 13426 C 1324.56 -0.538708 -2.04111 0
M  V30 13427 O 1323.9 0.460575 -2.2381 0
M  V30 13428 C 1324.11 -3.06318 -1.67243 0
M  V30 13429 C 1325.46 -3.64237 -2.18212 0
M  V30 13430 O 1326.49 -3.08984 -1.77221 0
M  V30 13431 O 1325.35 -4.61055 -2.93413 0
M  V30 13432 H 1322.44 -0.677967 -0.473593 0
M  V30 13433 H 1324.99 -1.67646 -0.263242 0
M  V30 13434 H 1323.76 -3.80015 -0.932985 0
M  V30 13435 H 1323.38 -3.09475 -2.49622 0
M  V30 13436 N 1324.38 0.532545 -1.4833 0
M  V30 13437 C 1325.61 1.31331 -1.59874 0
M  V30 13438 C 1326.02 1.87028 -0.258037 0
M  V30 13439 O 1325.38 1.66272 0.752317 0
M  V30 13440 C 1325.43 2.46596 -2.64334 0
M  V30 13441 O 1325.15 1.93195 -3.93201 0
M  V30 13442 C 1326.65 3.38454 -2.86294 0
M  V30 13443 H 1323.87 0.399476 -0.539129 0
M  V30 13444 H 1326.41 0.642696 -1.94138 0
M  V30 13445 H 1324.57 3.09548 -2.32936 0
M  V30 13446 H 1324.98 2.68627 -4.50489 0
M  V30 13447 H 1326.46 4.15687 -3.63192 0
M  V30 13448 H 1326.93 3.93526 -1.95022 0
M  V30 13449 H 1327.54 2.81297 -3.18986 0
M  V30 13450 N 1325.86 1.36875 0.78122 0
M  V30 13451 C 1327.1 1.32761 1.54097 0
M  V30 13452 C 1327.46 -0.0900914 1.92189 0
M  V30 13453 O 1326.75 -1.04655 1.60492 0
M  V30 13454 C 1326.94 2.19173 2.82309 0
M  V30 13455 C 1326.77 3.69203 2.56747 0
M  V30 13456 C 1325.54 4.38349 2.51353 0
M  V30 13457 C 1327.74 4.62283 2.25386 0
M  V30 13458 N 1325.72 5.73974 2.17776 0
M  V30 13459 C 1327.09 5.86216 2.01867 0
M  V30 13460 C 1329.15 4.50764 2.11462 0
M  V30 13461 C 1327.85 6.99923 1.65832 0
M  V30 13462 C 1329.88 5.64346 1.76825 0
M  V30 13463 C 1329.24 6.87324 1.5416 0
M  V30 13464 H 1325.34 0.541089 0.564577 0
M  V30 13465 H 1327.92 1.72006 0.912249 0
M  V30 13466 H 1326.09 1.82159 3.43034 0
M  V30 13467 H 1327.83 2.06388 3.48118 0
M  V30 13468 H 1324.58 3.91243 2.66882 0
M  V30 13469 H 1325 6.45624 2.03711 0
M  V30 13470 H 1329.65 3.56266 2.27672 0
M  V30 13471 H 1327.36 7.94364 1.4836 0
M  V30 13472 H 1330.95 5.574 1.66723 0
M  V30 13473 H 1329.83 7.73724 1.27753 0
M  V30 13474 N 1327.33 -1.00632 1.21289 0
M  V30 13475 C 1328.27 -2.0954 0.928753 0
M  V30 13476 C 1329.28 -1.62565 -0.0875212 0
M  V30 13477 O 1330.47 -1.77912 0.144808 0
M  V30 13478 C 1327.57 -3.36844 0.37276 0
M  V30 13479 C 1326.74 -4.1291 1.44305 0
M  V30 13480 C 1325.8 -5.18506 0.896534 0
M  V30 13481 O 1324.83 -5.46841 1.57966 0
M  V30 13482 N 1326.03 -5.79781 -0.288888 0
M  V30 13483 H 1328.79 -2.34499 1.86629 0
M  V30 13484 H 1326.35 -1.17104 1.11796 0
M  V30 13485 H 1328.35 -4.04699 -0.00722737 0
M  V30 13486 H 1326.92 -3.09053 -0.469572 0
M  V30 13487 H 1326.14 -3.39876 1.99694 0
M  V30 13488 H 1327.42 -4.60508 2.16356 0
M  V30 13489 H 1326.82 -5.5911 -0.860951 0
M  V30 13490 H 1325.38 -6.48936 -0.6104 0
M  V30 13491 N 1328.81 -1.02043 -1.20104 0
M  V30 13492 C 1329.76 -0.593945 -2.23027 0
M  V30 13493 C 1330.73 0.387931 -1.61506 0
M  V30 13494 O 1331.91 0.286504 -1.88637 0
M  V30 13495 C 1329.05 0.0577309 -3.45052 0
M  V30 13496 C 1328.17 -0.969169 -4.20988 0
M  V30 13497 C 1327.3 -0.288143 -5.30418 0
M  V30 13498 C 1326.34 -1.30154 -5.98102 0
M  V30 13499 N 1325.48 -0.646912 -6.99113 0
M  V30 13500 H 1330.32 -1.47623 -2.58866 0
M  V30 13501 H 1327.85 -0.738901 -1.27195 0
M  V30 13502 H 1329.81 0.452726 -4.14736 0
M  V30 13503 H 1328.44 0.90364 -3.09894 0
M  V30 13504 H 1327.49 -1.48229 -3.50332 0
M  V30 13505 H 1328.81 -1.73972 -4.67477 0
M  V30 13506 H 1327.96 0.162149 -6.06483 0
M  V30 13507 H 1326.7 0.514683 -4.84977 0
M  V30 13508 H 1325.7 -1.76218 -5.20795 0
M  V30 13509 H 1326.93 -2.10571 -6.45629 0
M  V30 13510 H 1324.88 0.135976 -6.55859 0
M  V30 13511 H 1324.79 -1.35548 -7.43749 0
M  V30 13512 H 1326.06 -0.220339 -7.79189 0
M  V30 13513 N 1330.29 1.35952 -0.797165 0
M  V30 13514 C 1331.57 1.93335 -0.2968 0
M  V30 13515 C 1331.95 1.72825 1.21222 0
M  V30 13516 O 1331.3 1.09172 2.00733 0
M  V30 13517 C 1331.51 3.41951 -0.697894 0
M  V30 13518 C 1332.85 4.19087 -0.682026 0
M  V30 13519 O 1333.88 3.50424 -0.638849 0
M  V30 13520 O 1332.74 5.41577 -0.73189 0
M  V30 13521 H 1329.83 0.823554 -0.0754223 0
M  V30 13522 H 1332.38 1.45086 -0.88023 0
M  V30 13523 H 1331.15 3.50569 -1.73831 0
M  V30 13524 H 1330.77 3.97501 -0.088764 0
M  V30 13525 N 1331.77 0.549846 1.47697 0
M  V30 13526 C 1333.18 0.209085 1.58225 0
M  V30 13527 C 1333.38 -1.28823 1.54941 0
M  V30 13528 O 1332.44 -2.0679 1.44893 0
M  V30 13529 C 1333.75 0.829219 2.89041 0
M  V30 13530 C 1335.3 0.79977 3.0261 0
M  V30 13531 C 1335.78 1.39884 4.36115 0
M  V30 13532 N 1337.27 1.36169 4.42733 0
M  V30 13533 C 1338 1.79492 5.44583 0
M  V30 13534 N 1337.5 2.30637 6.53283 0
M  V30 13535 N 1339.29 1.70608 5.35583 0
M  V30 13536 H 1331.44 1.52275 1.48074 0
M  V30 13537 H 1333.71 0.634579 0.704283 0
M  V30 13538 H 1333.41 1.88122 2.97158 0
M  V30 13539 H 1333.29 0.317916 3.75858 0
M  V30 13540 H 1335.67 -0.243525 2.94093 0
M  V30 13541 H 1335.75 1.34875 2.17353 0
M  V30 13542 H 1335.4 2.44116 4.45387 0
M  V30 13543 H 1335.33 0.825362 5.20092 0
M  V30 13544 H 1337.82 0.987505 3.64769 0
M  V30 13545 H 1338.13 2.61637 7.27163 0
M  V30 13546 H 1336.48 2.34643 6.54192 0
M  V30 13547 H 1339.67 1.30434 4.4956 0
M  V30 13548 H 1339.84 2.0469 6.14822 0
M  V30 13549 N 1333.25 -1.54984 0.285932 0
M  V30 13550 C 1334.21 -2.2164 -0.583824 0
M  V30 13551 C 1335.21 -1.19764 -1.073 0
M  V30 13552 O 1336.4 -1.44598 -0.971439 0
M  V30 13553 C 1333.53 -2.8909 -1.80665 0
M  V30 13554 H 1334.72 -2.999 -0.00168109 0
M  V30 13555 H 1332.28 -1.56257 0.0366325 0
M  V30 13556 H 1333.01 -2.14869 -2.42903 0
M  V30 13557 H 1332.8 -3.63756 -1.4637 0
M  V30 13558 H 1334.29 -3.39982 -2.42491 0
M  V30 13559 N 1334.72 -0.0133892 -1.57594 0
M  V30 13560 C 1336.14 0.342848 -1.55874 0
M  V30 13561 C 1336.34 1.73928 -1.01742 0
M  V30 13562 O 1335.4 2.43798 -0.657158 0
M  V30 13563 C 1336.71 0.205831 -2.99995 0
M  V30 13564 C 1338.26 0.279774 -3.11747 0
M  V30 13565 C 1338.73 0.171729 -4.57678 0
M  V30 13566 N 1340.22 0.22921 -4.62633 0
M  V30 13567 C 1340.96 0.169153 -5.7315 0
M  V30 13568 N 1340.45 0.0589166 -6.92775 0
M  V30 13569 N 1342.25 0.221995 -5.61661 0
M  V30 13570 H 1334.4 -0.926727 -1.91117 0
M  V30 13571 H 1336.66 -0.356466 -0.878428 0
M  V30 13572 H 1336.37 -0.755482 -3.4349 0
M  V30 13573 H 1336.24 0.982476 -3.6418 0
M  V30 13574 H 1338.63 1.23154 -2.68174 0
M  V30 13575 H 1338.71 -0.526974 -2.50313 0
M  V30 13576 H 1338.35 -0.776547 -5.01928 0
M  V30 13577 H 1338.28 0.997138 -5.17073 0
M  V30 13578 H 1340.77 0.315196 -3.76583 0
M  V30 13579 H 1341.09 0.0193526 -7.72798 0
M  V30 13580 H 1339.43 0.0243543 -6.94996 0
M  V30 13581 H 1342.62 0.306406 -4.67096 0
M  V30 13582 H 1342.8 0.171727 -6.47772 0
M  V30 13583 N 1336.2 1.55448 0.259558 0
M  V30 13584 C 1337.62 1.47588 0.607442 0
M  V30 13585 C 1337.82 0.701053 1.88911 0
M  V30 13586 O 1336.87 0.225305 2.51493 0
M  V30 13587 C 1338.19 2.91905 0.72192 0
M  V30 13588 C 1339.74 3.02201 0.815087 0
M  V30 13589 C 1340.21 4.47799 0.961231 0
M  V30 13590 N 1341.7 4.51684 1.02642 0
M  V30 13591 C 1342.44 5.61574 1.15854 0
M  V30 13592 N 1341.93 6.81301 1.257 0
M  V30 13593 N 1343.73 5.49344 1.1907 0
M  V30 13594 H 1335.88 2.04271 -0.581981 0
M  V30 13595 H 1338.14 0.926865 -0.199059 0
M  V30 13596 H 1337.85 3.51382 -0.149611 0
M  V30 13597 H 1337.72 3.41681 1.59793 0
M  V30 13598 H 1340.11 2.42813 1.67708 0
M  V30 13599 H 1340.19 2.55656 -0.0858102 0
M  V30 13600 H 1339.83 5.07794 0.103848 0
M  V30 13601 H 1339.76 4.92013 1.87698 0
M  V30 13602 H 1342.25 3.65446 0.962184 0
M  V30 13603 H 1342.57 7.60801 1.35652 0
M  V30 13604 H 1340.91 6.84087 1.2268 0
M  V30 13605 H 1344.1 4.54745 1.11018 0
M  V30 13606 H 1344.27 6.35025 1.29022 0
M  V30 13607 N 1337.68 -0.524672 1.4861 0
M  V30 13608 C 1339.09 -1.10655 1.50374 0
M  V30 13609 C 1339.44 -1.94242 0.276512 0
M  V30 13610 O 1338.57 -2.07451 -0.615887 0
M  V30 13611 C 1339.16 -2.01348 2.72478 0
M  V30 13612 C 1337.72 -2.54743 2.77097 0
M  V30 13613 C 1336.87 -1.31822 2.43964 0
M  V30 13614 H 1339.82 -0.309674 1.55649 0
M  V30 13615 H 1339.84 -2.85709 2.51297 0
M  V30 13616 H 1339.35 -1.40485 3.61781 0
M  V30 13617 H 1337.45 -3.19313 1.92016 0
M  V30 13618 H 1337.57 -2.93514 3.78664 0
M  V30 13619 H 1335.93 -1.63574 1.95233 0
M  V30 13620 H 1336.71 -0.727026 3.35513 0
M  V30 13621 N 1339.16 -1.37287 -0.77395 0
M  V30 13622 C 1340.11 -1.29389 -1.8773 0
M  V30 13623 C 1341.09 -0.182167 -1.59865 0
M  V30 13624 O 1342.28 -0.416367 -1.72033 0
M  V30 13625 C 1339.41 -1.10094 -3.25168 0
M  V30 13626 C 1338.5 -2.25801 -3.58991 0
M  V30 13627 N 1338.89 -3.51182 -3.64012 0
M  V30 13628 C 1337.19 -2.17907 -3.89144 0
M  V30 13629 C 1337.89 -4.27468 -3.9452 0
M  V30 13630 N 1336.87 -3.56583 -4.10304 0
M  V30 13631 H 1340.67 -2.24344 -1.8986 0
M  V30 13632 H 1338.18 -1.30228 -0.970282 0
M  V30 13633 H 1340.18 -1.02521 -4.04098 0
M  V30 13634 H 1338.84 -0.160535 -3.24303 0
M  V30 13635 H 1339.85 -3.85118 -3.46272 0
M  V30 13636 H 1336.53 -1.3191 -3.96113 0
M  V30 13637 H 1337.92 -5.3597 -4.05198 0
M  V30 13638 N 1340.64 0.999871 -1.21821 0
M  V30 13639 C 1341.88 1.7384 -1.03855 0
M  V30 13640 C 1342.21 1.89749 0.42727 0
M  V30 13641 O 1341.47 1.43261 1.33323 0
M  V30 13642 C 1341.77 3.1509 -1.6868 0
M  V30 13643 C 1341.43 3.19115 -3.18554 0
M  V30 13644 C 1340.09 3.19921 -3.5945 0
M  V30 13645 C 1342.45 3.15954 -4.14515 0
M  V30 13646 C 1339.77 3.15257 -4.94803 0
M  V30 13647 C 1342.13 3.12831 -5.49836 0
M  V30 13648 C 1340.79 3.11949 -5.90122 0
M  V30 13649 H 1340.06 0.636126 -0.380032 0
M  V30 13650 H 1342.71 1.17151 -1.51485 0
M  V30 13651 H 1341.01 3.75044 -1.13356 0
M  V30 13652 H 1342.71 3.70962 -1.52277 0
M  V30 13653 H 1339.3 3.19234 -2.85986 0
M  V30 13654 H 1343.48 3.14487 -3.83942 0
M  V30 13655 H 1338.74 3.12915 -5.25256 0
M  V30 13656 H 1342.91 3.09339 -6.23925 0
M  V30 13657 H 1340.54 3.0809 -6.94971 0
M  V30 13658 N 1342.11 1.02678 1.19562 0
M  V30 13659 C 1343.39 0.63674 1.84946 0
M  V30 13660 C 1343.77 -0.884667 1.91669 0
M  V30 13661 O 1343.12 -1.78053 1.43211 0
M  V30 13662 C 1343.33 1.29637 3.2403 0
M  V30 13663 C 1344.68 1.41828 4.00212 0
M  V30 13664 O 1345.7 1.25338 3.3342 0
M  V30 13665 O 1344.56 1.68573 5.19851 0
M  V30 13666 H 1341.65 0.221044 0.796912 0
M  V30 13667 H 1344.2 1.1248 1.27068 0
M  V30 13668 H 1342.97 2.33549 3.1396 0
M  V30 13669 H 1342.6 0.796041 3.8955 0
M  V30 13670 N 1343.59 -1.35528 0.804364 0
M  V30 13671 C 1344.52 -2.28562 0.170893 0
M  V30 13672 C 1345.54 -1.50178 -0.628526 0
M  V30 13673 O 1346.73 -1.72438 -0.461252 0
M  V30 13674 C 1343.83 -3.29792 -0.780434 0
M  V30 13675 C 1343 -4.37391 -0.0278619 0
M  V30 13676 C 1342.06 -5.18492 -0.897341 0
M  V30 13677 O 1341.08 -5.68128 -0.349098 0
M  V30 13678 N 1342.29 -5.36385 -2.21971 0
M  V30 13679 H 1345.05 -2.83565 0.970108 0
M  V30 13680 H 1342.61 -1.47854 0.659617 0
M  V30 13681 H 1344.6 -3.80939 -1.36628 0
M  V30 13682 H 1343.17 -2.7532 -1.48046 0
M  V30 13683 H 1342.39 -3.87208 0.739178 0
M  V30 13684 H 1343.68 -5.06426 0.490889 0
M  V30 13685 H 1343.08 -4.97699 -2.6891 0
M  V30 13686 H 1341.64 -5.90721 -2.75485 0
M  V30 13687 N 1345.07 -0.557671 -1.47404 0
M  V30 13688 C 1346 0.178019 -2.3282 0
M  V30 13689 C 1346.98 0.908318 -1.43818 0
M  V30 13690 O 1348.17 0.888693 -1.72673 0
M  V30 13691 C 1345.3 1.2082 -3.25607 0
M  V30 13692 C 1344.25 0.594335 -4.23853 0
M  V30 13693 C 1343.58 1.72919 -5.05968 0
M  V30 13694 C 1344.88 -0.452196 -5.20339 0
M  V30 13695 H 1346.57 -0.535091 -2.9458 0
M  V30 13696 H 1344.12 -0.258775 -1.41656 0
M  V30 13697 H 1346.07 1.73104 -3.84204 0
M  V30 13698 H 1344.79 1.95126 -2.61903 0
M  V30 13699 H 1343.45 0.0927898 -3.66483 0
M  V30 13700 H 1343.1 2.4613 -4.38668 0
M  V30 13701 H 1342.8 1.32422 -5.72484 0
M  V30 13702 H 1344.33 2.25527 -5.67424 0
M  V30 13703 H 1345.74 -0.0154011 -5.73298 0
M  V30 13704 H 1344.14 -0.776068 -5.95061 0
M  V30 13705 H 1345.21 -1.34791 -4.65789 0
M  V30 13706 N 1346.55 1.54831 -0.294147 0
M  V30 13707 C 1347.8 2.00298 0.317605 0
M  V30 13708 C 1348.13 1.18228 1.54064 0
M  V30 13709 O 1347.4 0.257034 1.92794 0
M  V30 13710 C 1347.69 3.53602 0.680991 0
M  V30 13711 C 1347.54 4.46416 -0.550711 0
M  V30 13712 C 1348.86 4.13379 1.51016 0
M  V30 13713 H 1345.98 0.728135 0.113965 0
M  V30 13714 H 1348.62 1.85636 -0.404883 0
M  V30 13715 H 1346.77 3.66227 1.29654 0
M  V30 13716 H 1348.44 4.45707 -1.18922 0
M  V30 13717 H 1346.68 4.17294 -1.18524 0
M  V30 13718 H 1347.36 5.51423 -0.252412 0
M  V30 13719 H 1349.83 4.04148 0.99012 0
M  V30 13720 H 1348.71 5.20818 1.73321 0
M  V30 13721 H 1348.97 3.64817 2.49722 0
M  V30 13722 N 1348.03 0.0217466 1.57585 0
M  V30 13723 C 1348.99 -0.947546 2.08696 0
M  V30 13724 C 1349.99 -1.25879 1.00055 0
M  V30 13725 O 1351.18 -1.20035 1.26242 0
M  V30 13726 C 1348.31 -2.26624 2.54665 0
M  V30 13727 H 1349.51 -0.505016 2.95617 0
M  V30 13728 H 1347.06 -0.226152 1.54655 0
M  V30 13729 H 1347.79 -2.75521 1.71052 0
M  V30 13730 H 1347.58 -2.05347 3.34028 0
M  V30 13731 H 1349.07 -2.96114 2.94459 0
M  V30 13732 N 1349.51 -1.55583 -0.251311 0
M  V30 13733 C 1350.47 -1.89148 -1.29443 0
M  V30 13734 C 1351.47 -0.7676 -1.41296 0
M  V30 13735 O 1352.66 -1.03563 -1.40073 0
M  V30 13736 C 1349.79 -2.11601 -2.67279 0
M  V30 13737 H 1350.98 -2.82416 -1.00901 0
M  V30 13738 H 1348.54 -1.48407 -0.490398 0
M  V30 13739 H 1349.27 -1.20787 -3.00967 0
M  V30 13740 H 1349.06 -2.93449 -2.60058 0
M  V30 13741 H 1350.55 -2.38768 -3.42607 0
M  V30 13742 N 1350.98 0.516783 -1.48886 0
M  V30 13743 C 1352.23 1.27187 -1.57574 0
M  V30 13744 C 1352.56 1.92815 -0.255432 0
M  V30 13745 O 1351.81 1.80533 0.755403 0
M  V30 13746 C 1352.11 2.37296 -2.67256 0
M  V30 13747 C 1351.78 1.89232 -4.0927 0
M  V30 13748 C 1350.44 1.75842 -4.47921 0
M  V30 13749 C 1352.79 1.53073 -4.98215 0
M  V30 13750 C 1350.12 1.24648 -5.73306 0
M  V30 13751 C 1352.47 1.03337 -6.24103 0
M  V30 13752 C 1351.14 0.885744 -6.61597 0
M  V30 13753 H 1350.41 0.46541 -0.576606 0
M  V30 13754 H 1353.05 0.575223 -1.82657 0
M  V30 13755 H 1351.36 3.12685 -2.36084 0
M  V30 13756 H 1353.06 2.95393 -2.7119 0
M  V30 13757 H 1349.65 2.00608 -3.78754 0
M  V30 13758 H 1353.83 1.62272 -4.69022 0
M  V30 13759 H 1349.09 1.11917 -6.0107 0
M  V30 13760 H 1353.26 0.744338 -6.92411 0
M  V30 13761 H 1350.89 0.486866 -7.58639 0
M  V30 13762 N 1352.46 1.37696 0.766659 0
M  V30 13763 C 1353.74 1.23715 1.51506 0
M  V30 13764 C 1354.12 -0.167091 2.10438 0
M  V30 13765 O 1353.47 -1.17526 1.95959 0
M  V30 13766 C 1353.68 2.33715 2.59188 0
M  V30 13767 C 1355.02 2.71504 3.26451 0
M  V30 13768 O 1356.05 2.32929 2.69486 0
M  V30 13769 O 1354.91 3.37981 4.29454 0
M  V30 13770 H 1352 0.483046 0.671264 0
M  V30 13771 H 1354.55 1.49489 0.803188 0
M  V30 13772 H 1353.32 3.27729 2.13797 0
M  V30 13773 H 1352.94 2.09433 3.3797 0
M  V30 13774 N 1353.94 -0.993397 1.22349 0
M  V30 13775 C 1354.89 -2.0834 0.993123 0
M  V30 13776 C 1355.86 -1.65883 -0.0849717 0
M  V30 13777 O 1357.04 -1.90691 0.0645176 0
M  V30 13778 C 1354.18 -3.40252 0.576434 0
M  V30 13779 C 1353.29 -3.96055 1.72524 0
M  V30 13780 C 1352.43 -5.16123 1.25659 0
M  V30 13781 C 1351.47 -5.64062 2.37698 0
M  V30 13782 N 1350.61 -6.7537 1.91883 0
M  V30 13783 H 1355.45 -2.27381 1.92619 0
M  V30 13784 H 1352.98 -1.11476 0.959763 0
M  V30 13785 H 1354.94 -4.16001 0.316021 0
M  V30 13786 H 1353.57 -3.21214 -0.319626 0
M  V30 13787 H 1352.62 -3.17182 2.1 0
M  V30 13788 H 1353.93 -4.27614 2.56802 0
M  V30 13789 H 1353.09 -5.9916 0.953528 0
M  V30 13790 H 1351.83 -4.86186 0.384011 0
M  V30 13791 H 1350.83 -4.79614 2.68794 0
M  V30 13792 H 1352.06 -5.96025 3.25471 0
M  V30 13793 H 1350 -6.47217 1.06986 0
M  V30 13794 H 1349.92 -7.06246 2.69727 0
M  V30 13795 H 1351.19 -7.61914 1.64644 0
M  V30 13796 N 1355.42 -1.03311 -1.19015 0
M  V30 13797 C 1356.35 -0.562092 -2.21169 0
M  V30 13798 C 1357.33 0.399321 -1.5762 0
M  V30 13799 O 1358.51 0.315421 -1.85842 0
M  V30 13800 C 1355.64 0.179843 -3.38222 0
M  V30 13801 C 1354.69 -0.733653 -4.20143 0
M  V30 13802 S 1355.52 -2.21226 -4.87667 0
M  V30 13803 C 1356.67 -1.48095 -6.08127 0
M  V30 13804 H 1356.91 -1.42762 -2.6078 0
M  V30 13805 H 1354.44 -0.843405 -1.29329 0
M  V30 13806 H 1356.4 0.601764 -4.06065 0
M  V30 13807 H 1355.06 1.02116 -2.97037 0
M  V30 13808 H 1354.25 -0.160633 -5.03744 0
M  V30 13809 H 1353.85 -1.09408 -3.57639 0
M  V30 13810 H 1356.15 -0.76985 -6.73112 0
M  V30 13811 H 1357.09 -2.29372 -6.69921 0
M  V30 13812 H 1357.5 -0.976597 -5.55988 0
M  V30 13813 N 1356.9 1.35099 -0.81154 0
M  V30 13814 C 1358.14 1.9788 -0.390695 0
M  V30 13815 C 1358.46 1.6509 1.04903 0
M  V30 13816 O 1359.66 2.21273 1.57324 0
M  V30 13817 C 1358.12 3.54025 -0.647632 0
M  V30 13818 C 1357.73 3.9572 -2.10023 0
M  V30 13819 C 1359.47 4.23492 -0.29239 0
M  V30 13820 C 1357.38 5.44731 -2.30266 0
M  V30 13821 H 1356.31 0.740441 -0.14235 0
M  V30 13822 H 1358.96 1.54098 -0.996294 0
M  V30 13823 H 1357.34 3.9599 0.0279838 0
M  V30 13824 H 1358.52 3.64893 -2.81407 0
M  V30 13825 H 1356.83 3.39157 -2.41581 0
M  V30 13826 H 1359.43 5.33035 -0.421618 0
M  V30 13827 H 1359.77 4.09268 0.76195 0
M  V30 13828 H 1360.3 3.86965 -0.922122 0
M  V30 13829 H 1357.04 5.63928 -3.34163 0
M  V30 13830 H 1356.56 5.7711 -1.63413 0
M  V30 13831 H 1358.24 6.1126 -2.12062 0
M  V30 13832 N 1358.37 0.56548 1.47106 0
M  V30 13833 C 1359.79 0.225855 1.57994 0
M  V30 13834 C 1359.99 -1.27173 1.56299 0
M  V30 13835 O 1359.05 -2.05242 1.47078 0
M  V30 13836 C 1360.36 0.859829 2.88145 0
M  V30 13837 C 1361.91 0.831821 3.01744 0
M  V30 13838 C 1362.38 1.44502 4.34607 0
M  V30 13839 N 1363.87 1.40857 4.41263 0
M  V30 13840 C 1364.61 1.85258 5.42648 0
M  V30 13841 N 1364.1 2.37553 6.508 0
M  V30 13842 N 1365.9 1.76279 5.33744 0
M  V30 13843 H 1358.05 1.53837 1.46451 0
M  V30 13844 H 1360.31 0.642013 0.697512 0
M  V30 13845 H 1360.02 1.91264 2.95146 0
M  V30 13846 H 1359.89 0.357762 3.755 0
M  V30 13847 H 1362.28 -0.212319 2.94335 0
M  V30 13848 H 1362.36 1.37173 2.1591 0
M  V30 13849 H 1362 2.48827 4.42773 0
M  V30 13850 H 1361.93 0.880479 5.19187 0
M  V30 13851 H 1364.42 1.02614 3.63702 0
M  V30 13852 H 1364.74 2.69335 7.24347 0
M  V30 13853 H 1363.08 2.41569 6.51667 0
M  V30 13854 H 1366.27 1.35195 4.48152 0
M  V30 13855 H 1366.45 2.11199 6.12616 0
M  V30 13856 N 1359.85 -1.54672 0.302354 0
M  V30 13857 C 1360.8 -2.2357 -0.573141 0
M  V30 13858 C 1361.77 -1.21878 -1.12849 0
M  V30 13859 O 1362.95 -1.50502 -1.17277 0
M  V30 13860 C 1360.09 -2.98111 -1.7385 0
M  V30 13861 C 1359.21 -4.14579 -1.21441 0
M  V30 13862 C 1358.34 -4.76699 -2.34374 0
M  V30 13863 C 1357.38 -5.8531 -1.79106 0
M  V30 13864 N 1356.52 -6.41379 -2.85618 0
M  V30 13865 H 1361.36 -2.97993 0.0209969 0
M  V30 13866 H 1358.9 -1.47083 0.0221318 0
M  V30 13867 H 1360.85 -3.39561 -2.42392 0
M  V30 13868 H 1359.48 -2.26063 -2.30425 0
M  V30 13869 H 1358.54 -3.78061 -0.421204 0
M  V30 13870 H 1359.85 -4.92824 -0.769821 0
M  V30 13871 H 1359 -5.21009 -3.10861 0
M  V30 13872 H 1357.74 -3.9779 -2.8216 0
M  V30 13873 H 1356.75 -5.40423 -1.01109 0
M  V30 13874 H 1357.97 -6.66104 -1.32222 0
M  V30 13875 H 1355.92 -5.65352 -3.32735 0
M  V30 13876 H 1355.83 -7.14974 -2.45659 0
M  V30 13877 H 1357.1 -6.90346 -3.61998 0
M  V30 13878 N 1361.33 -0.0301034 -1.57571 0
M  V30 13879 C 1362.74 0.508591 -1.79639 0
M  V30 13880 C 1363.09 1.72191 -0.940458 0
M  V30 13881 O 1362.22 2.15872 -0.151138 0
M  V30 13882 C 1362.81 0.929446 -3.25802 0
M  V30 13883 C 1361.37 1.41325 -3.48861 0
M  V30 13884 C 1360.52 0.378433 -2.74706 0
M  V30 13885 H 1363.47 -0.256131 -1.56619 0
M  V30 13886 H 1363.49 1.79374 -3.35567 0
M  V30 13887 H 1363 0.0461738 -3.88073 0
M  V30 13888 H 1361.1 2.31641 -2.91844 0
M  V30 13889 H 1361.22 1.41995 -4.57574 0
M  V30 13890 H 1359.58 0.846744 -2.40213 0
M  V30 13891 H 1360.36 -0.49639 -3.39692 0
M  V30 13892 N 1362.81 1.55714 0.243056 0
M  V30 13893 C 1364.09 1.68483 0.993614 0
M  V30 13894 C 1364.47 0.571112 2.03228 0
M  V30 13895 O 1363.81 -0.42491 2.24515 0
M  V30 13896 C 1364.02 3.0894 1.62349 0
M  V30 13897 C 1365.37 3.67663 2.12389 0
M  V30 13898 O 1366.4 3.11764 1.72283 0
M  V30 13899 O 1365.25 4.65664 2.8604 0
M  V30 13900 H 1362.35 0.685415 0.462747 0
M  V30 13901 H 1364.89 1.68043 0.236538 0
M  V30 13902 H 1363.67 3.81451 0.87241 0
M  V30 13903 H 1363.29 3.13407 2.44667 0
M  V30 13904 N 1364.29 -0.50888 1.49158 0
M  V30 13905 C 1365.51 -1.28771 1.61943 0
M  V30 13906 C 1365.93 -1.86594 0.287759 0
M  V30 13907 O 1365.29 -1.67448 -0.725769 0
M  V30 13908 C 1365.34 -2.4236 2.68224 0
M  V30 13909 O 1365.06 -1.86915 3.96225 0
M  V30 13910 C 1366.56 -3.33856 2.91642 0
M  V30 13911 H 1363.78 -0.390849 0.545416 0
M  V30 13912 H 1366.32 -0.611729 1.95136 0
M  V30 13913 H 1364.48 -3.05803 2.37831 0
M  V30 13914 H 1364.89 -2.61426 4.54705 0
M  V30 13915 H 1366.37 -4.09856 3.69759 0
M  V30 13916 H 1366.84 -3.90374 2.01258 0
M  V30 13917 H 1367.45 -2.76187 3.23421 0
M  V30 13918 N 1365.76 -1.381 -0.759346 0
M  V30 13919 C 1366.69 -1.37578 -1.88665 0
M  V30 13920 C 1367.68 -0.242529 -1.68362 0
M  V30 13921 O 1368.86 -0.444751 -1.89039 0
M  V30 13922 C 1365.99 -1.19437 -3.26117 0
M  V30 13923 C 1364.94 -2.29905 -3.61009 0
M  V30 13924 C 1364.27 -1.96874 -4.97136 0
M  V30 13925 C 1365.57 -3.72143 -3.66479 0
M  V30 13926 H 1367.26 -2.31912 -1.89359 0
M  V30 13927 H 1364.81 -1.11632 -0.909631 0
M  V30 13928 H 1366.76 -1.17698 -4.0463 0
M  V30 13929 H 1365.49 -0.21562 -3.25887 0
M  V30 13930 H 1364.15 -2.3082 -2.84812 0
M  V30 13931 H 1363.79 -0.974979 -4.9346 0
M  V30 13932 H 1363.49 -2.70855 -5.21451 0
M  V30 13933 H 1365.02 -1.96744 -5.78035 0
M  V30 13934 H 1366.43 -3.73291 -4.35117 0
M  V30 13935 H 1364.83 -4.45282 -4.02299 0
M  V30 13936 H 1365.9 -4.04874 -2.66843 0
M  V30 13937 N 1367.24 0.986894 -1.22875 0
M  V30 13938 C 1368.17 2.08035 -0.961971 0
M  V30 13939 C 1369.19 1.62683 0.0616475 0
M  V30 13940 O 1370.38 1.77659 -0.173094 0
M  V30 13941 C 1367.48 3.36208 -0.426302 0
M  V30 13942 C 1366.65 4.10562 -1.50856 0
M  V30 13943 C 1365.71 5.17014 -0.97891 0
M  V30 13944 O 1364.73 5.44259 -1.66645 0
M  V30 13945 N 1365.94 5.80167 0.196613 0
M  V30 13946 H 1368.7 2.315 -1.90336 0
M  V30 13947 H 1366.26 1.1531 -1.13645 0
M  V30 13948 H 1368.25 4.0466 -0.0571577 0
M  V30 13949 H 1366.82 3.09761 0.420345 0
M  V30 13950 H 1366.04 3.36656 -2.05076 0
M  V30 13951 H 1367.33 4.57007 -2.23655 0
M  V30 13952 H 1366.73 5.60409 0.771892 0
M  V30 13953 H 1365.29 6.49825 0.507083 0
M  V30 13954 N 1368.72 1.0394 1.18466 0
M  V30 13955 C 1369.68 0.633804 2.20262 0
M  V30 13956 C 1370.68 -0.308136 1.5782 0
M  V30 13957 O 1371.87 -0.0937087 1.73948 0
M  V30 13958 C 1369.01 -0.0709693 3.40826 0
M  V30 13959 H 1370.2 1.53463 2.57661 0
M  V30 13960 H 1367.75 0.831806 1.32328 0
M  V30 13961 H 1368.49 -0.985659 3.08958 0
M  V30 13962 H 1368.27 0.606023 3.87388 0
M  V30 13963 H 1369.76 -0.341298 4.16203 0
M  V30 13964 N 1370.2 -1.34667 0.818693 0
M  V30 13965 C 1371.45 -1.98022 0.40396 0
M  V30 13966 C 1371.77 -1.65239 -1.03542 0
M  V30 13967 O 1371.04 -0.94097 -1.71821 0
M  V30 13968 H 1369.62 -0.732517 0.146382 0
M  V30 13969 H 1372.28 -1.64377 1.0472 0
M  V30 13970 H 1371.38 -3.07746 0.519516 0
M  V30 13971 N 1371.68 -0.573274 -1.46804 0
M  V30 13972 C 1372.92 -0.0551522 -2.02025 0
M  V30 13973 C 1373.25 1.30577 -1.44826 0
M  V30 13974 O 1372.52 1.85514 -0.629403 0
M  V30 13975 H 1371.1 -0.0173982 -0.746797 0
M  V30 13976 H 1373.76 -0.746919 -1.8002 0
M  V30 13977 H 1372.85 0.0209326 -3.12093 0
M  V30 13978 N 1373.15 1.5451 -0.310553 0
M  V30 13979 C 1374.43 1.92452 0.34951 0
M  V30 13980 C 1374.81 1.23881 1.70929 0
M  V30 13981 O 1374.16 0.377898 2.25353 0
M  V30 13982 C 1374.37 3.46026 0.454675 0
M  V30 13983 C 1375.72 4.18432 0.721071 0
M  V30 13984 O 1376.74 3.52112 0.538112 0
M  V30 13985 O 1375.6 5.3586 1.07314 0
M  V30 13986 H 1372.69 0.803168 0.197103 0
M  V30 13987 H 1375.24 1.65852 -0.359313 0
M  V30 13988 H 1374.01 3.88081 -0.500853 0
M  V30 13989 H 1373.64 3.7869 1.21159 0
M  V30 13990 N 1374.63 0.0384594 1.57553 0
M  V30 13991 C 1376.04 -0.499057 1.79906 0
M  V30 13992 C 1376.4 -1.7169 0.949577 0
M  V30 13993 O 1375.52 -2.15788 0.162584 0
M  V30 13994 C 1376.12 -0.912155 3.2629 0
M  V30 13995 C 1374.67 -1.39473 3.49606 0
M  V30 13996 C 1373.82 -0.363859 2.74902 0
M  V30 13997 H 1376.77 0.264433 1.56481 0
M  V30 13998 H 1376.79 -1.77592 3.36513 0
M  V30 13999 H 1376.31 -0.0255928 3.88092 0
M  V30 14000 H 1374.41 -2.3009 2.93068 0
M  V30 14001 H 1374.52 -1.39566 4.58321 0
M  V30 14002 H 1372.88 -0.833993 2.40659 0
M  V30 14003 H 1373.67 0.514398 3.39424 0
M  V30 14004 N 1376.11 -1.55841 -0.234795 0
M  V30 14005 C 1377.36 -1.77886 -0.959217 0
M  V30 14006 C 1377.68 -0.604621 -1.8539 0
M  V30 14007 O 1376.95 0.379092 -1.92197 0
M  V30 14008 H 1375.53 -0.656077 -0.357172 0
M  V30 14009 H 1378.19 -1.93292 -0.249831 0
M  V30 14010 H 1377.29 -2.69512 -1.57383 0
M  V30 14011 N 1377.59 0.500963 -1.49426 0
M  V30 14012 C 1378.5 1.62889 -1.68833 0
M  V30 14013 C 1379.52 1.64367 -0.570932 0
M  V30 14014 O 1380.69 1.82786 -0.845641 0
M  V30 14015 C 1377.76 2.99255 -1.75063 0
M  V30 14016 C 1376.82 3.08404 -2.9864 0
M  V30 14017 C 1376.05 4.38266 -3.04564 0
M  V30 14018 O 1376.27 5.27065 -2.1808 0
M  V30 14019 O 1375.21 4.52387 -3.97026 0
M  V30 14020 H 1379.03 1.49446 -2.64385 0
M  V30 14021 H 1376.62 0.677254 -1.33168 0
M  V30 14022 H 1378.5 3.80303 -1.81515 0
M  V30 14023 H 1377.18 3.1296 -0.826896 0
M  V30 14024 H 1376.08 2.26544 -2.97706 0
M  V30 14025 H 1377.42 2.99626 -3.90494 0
M  V30 14026 N 1379.07 1.38501 0.752011 0
M  V30 14027 C 1380.48 1.19733 1.05529 0
M  V30 14028 C 1380.68 0.047088 2.01445 0
M  V30 14029 O 1379.74 -0.606645 2.45104 0
M  V30 14030 C 1381.05 2.52439 1.63386 0
M  V30 14031 C 1382.6 2.59136 1.7555 0
M  V30 14032 C 1383.08 3.92022 2.36819 0
M  V30 14033 N 1384.57 3.9357 2.44248 0
M  V30 14034 C 1385.3 4.93154 2.92553 0
M  V30 14035 N 1384.8 6.03135 3.40882 0
M  V30 14036 N 1386.59 4.80543 2.91607 0
M  V30 14037 H 1378.74 2.12085 0.115543 0
M  V30 14038 H 1381 0.941134 0.113888 0
M  V30 14039 H 1380.71 3.37072 1.00376 0
M  V30 14040 H 1380.58 2.70947 2.62427 0
M  V30 14041 H 1382.97 1.74897 2.37687 0
M  V30 14042 H 1383.05 2.44494 0.752092 0
M  V30 14043 H 1382.7 4.76684 1.75314 0
M  V30 14044 H 1382.63 4.03976 3.37803 0
M  V30 14045 H 1385.12 3.14133 2.10068 0
M  V30 14046 H 1385.43 6.7505 3.76201 0
M  V30 14047 H 1383.78 6.06752 3.38935 0
M  V30 14048 H 1386.97 3.93733 2.53163 0
M  V30 14049 H 1387.14 5.58303 3.28941 0
M  V30 14050 N 1380.55 -0.980364 1.23396 0
M  V30 14051 C 1381.96 -1.53622 1.061 0
M  V30 14052 C 1382.31 -1.92648 -0.371645 0
M  V30 14053 O 1381.43 -1.76051 -1.25837 0
M  V30 14054 C 1382.03 -2.79159 1.91979 0
M  V30 14055 C 1380.59 -3.31144 1.78943 0
M  V30 14056 C 1379.73 -2.04135 1.87681 0
M  V30 14057 H 1382.68 -0.800047 1.37058 0
M  V30 14058 H 1382.71 -3.52011 1.4446 0
M  V30 14059 H 1382.22 -2.50723 2.96242 0
M  V30 14060 H 1380.32 -3.64459 0.774634 0
M  V30 14061 H 1380.43 -4.009 2.62329 0
M  V30 14062 H 1378.8 -2.18271 1.31262 0
M  V30 14063 H 1379.58 -1.78081 2.93499 0
M  V30 14064 N 1382.02 -1.04567 -1.17913 0
M  V30 14065 C 1383.25 -0.772146 -1.92491 0
M  V30 14066 C 1383.67 0.665297 -1.75942 0
M  V30 14067 O 1383.03 1.46144 -1.07292 0
M  V30 14068 C 1383.08 -1.14966 -3.41782 0
M  V30 14069 O 1382.18 -0.278091 -4.11461 0
M  V30 14070 H 1381.52 -0.283715 -0.600335 0
M  V30 14071 H 1384.05 -1.39685 -1.49496 0
M  V30 14072 H 1384.06 -1.11374 -3.92505 0
M  V30 14073 H 1382.74 -2.1968 -3.53148 0
M  V30 14074 H 1381.32 -0.374073 -3.71019 0
M  V30 14075 N 1383.5 1.34231 -0.825823 0
M  V30 14076 C 1384.43 2.28261 -0.207234 0
M  V30 14077 C 1385.45 1.51159 0.604554 0
M  V30 14078 O 1386.64 1.7315 0.43376 0
M  V30 14079 C 1383.74 3.30991 0.727868 0
M  V30 14080 C 1382.91 4.3738 -0.0417267 0
M  V30 14081 C 1381.97 5.19854 0.81474 0
M  V30 14082 O 1380.99 5.68612 0.25867 0
M  V30 14083 N 1382.2 5.39849 2.1341 0
M  V30 14084 H 1384.96 2.81986 -1.0151 0
M  V30 14085 H 1382.52 1.46785 -0.683056 0
M  V30 14086 H 1384.51 3.83065 1.3055 0
M  V30 14087 H 1383.08 2.7764 1.43647 0
M  V30 14088 H 1382.3 3.85983 -0.800686 0
M  V30 14089 H 1383.59 5.05581 -0.571395 0
M  V30 14090 H 1382.99 5.01914 2.60958 0
M  V30 14091 H 1381.55 5.95029 2.66052 0
M  V30 14092 N 1384.98 0.581051 1.46498 0
M  V30 14093 C 1385.94 -0.142937 2.28754 0
M  V30 14094 C 1386.94 -0.820383 1.38298 0
M  V30 14095 O 1388.13 -0.672592 1.60692 0
M  V30 14096 C 1385.26 -1.21176 3.18637 0
M  V30 14097 H 1386.46 0.579918 2.9424 0
M  V30 14098 H 1384.01 0.338951 1.52581 0
M  V30 14099 H 1384.75 -1.96624 2.57894 0
M  V30 14100 H 1384.53 -0.730517 3.85235 0
M  V30 14101 H 1386.02 -1.71958 3.80552 0
M  V30 14102 N 1386.46 -1.54343 0.318742 0
M  V30 14103 C 1387.39 -2.27118 -0.542206 0
M  V30 14104 C 1388.37 -1.27731 -1.12334 0
M  V30 14105 O 1389.55 -1.56535 -1.14937 0
M  V30 14106 C 1386.68 -3.02535 -1.70558 0
M  V30 14107 C 1385.64 -4.09218 -1.25398 0
M  V30 14108 C 1384.96 -4.72449 -2.50391 0
M  V30 14109 C 1386.26 -5.20971 -0.372332 0
M  V30 14110 H 1387.96 -2.9933 0.0648226 0
M  V30 14111 H 1385.5 -1.43963 0.0326168 0
M  V30 14112 H 1387.46 -3.52174 -2.31412 0
M  V30 14113 H 1386.18 -2.27931 -2.33912 0
M  V30 14114 H 1384.84 -3.60455 -0.668392 0
M  V30 14115 H 1384.49 -3.94466 -3.12099 0
M  V30 14116 H 1384.19 -5.4451 -2.20868 0
M  V30 14117 H 1385.71 -5.2486 -3.12016 0
M  V30 14118 H 1387.13 -5.66396 -0.887029 0
M  V30 14119 H 1385.52 -5.99859 -0.17009 0
M  V30 14120 H 1386.59 -4.81198 0.598064 0
M  V30 14121 N 1387.94 -0.0468143 -1.5753 0
M  V30 14122 C 1388.87 0.927092 -2.14306 0
M  V30 14123 C 1389.85 1.32745 -1.06362 0
M  V30 14124 O 1391.03 1.40293 -1.34281 0
M  V30 14125 C 1388.16 2.20343 -2.68452 0
M  V30 14126 C 1387.12 1.94328 -3.81341 0
M  V30 14127 C 1386.44 3.28379 -4.21985 0
M  V30 14128 C 1387.74 1.26835 -5.06666 0
M  V30 14129 H 1389.44 0.454199 -2.95935 0
M  V30 14130 H 1386.98 0.217029 -1.42355 0
M  V30 14131 H 1388.93 2.8887 -3.0681 0
M  V30 14132 H 1387.66 2.6983 -1.84009 0
M  V30 14133 H 1386.32 1.28214 -3.43448 0
M  V30 14134 H 1385.97 3.75658 -3.34499 0
M  V30 14135 H 1385.67 3.11772 -4.98068 0
M  V30 14136 H 1387.19 3.98145 -4.6294 0
M  V30 14137 H 1388.6 1.85389 -5.42498 0
M  V30 14138 H 1387 1.20569 -5.87863 0
M  V30 14139 H 1388.07 0.243759 -4.84287 0
M  V30 14140 N 1389.41 1.55964 0.226527 0
M  V30 14141 C 1390.64 1.82823 0.968673 0
M  V30 14142 C 1391.06 0.625281 1.78145 0
M  V30 14143 O 1390.41 -0.40617 1.77923 0
M  V30 14144 C 1390.47 3.08143 1.89024 0
M  V30 14145 O 1390.19 4.23797 1.11032 0
M  V30 14146 C 1391.69 3.47954 2.74669 0
M  V30 14147 H 1388.91 0.607876 0.284126 0
M  V30 14148 H 1391.45 2.03048 0.243258 0
M  V30 14149 H 1389.61 2.89908 2.56967 0
M  V30 14150 H 1390.02 4.94957 1.73546 0
M  V30 14151 H 1391.49 4.38691 3.35044 0
M  V30 14152 H 1391.97 2.69476 3.46813 0
M  V30 14153 H 1392.58 3.6861 2.12147 0
M  V30 14154 N 1390.89 -0.493031 1.4969 0
M  V30 14155 C 1392.3 -1.0744 1.52688 0
M  V30 14156 C 1392.65 -1.93612 0.317652 0
M  V30 14157 O 1391.78 -2.0871 -0.571745 0
M  V30 14158 C 1392.37 -1.95523 2.76688 0
M  V30 14159 C 1390.93 -2.48808 2.82438 0
M  V30 14160 C 1390.08 -1.26617 2.46705 0
M  V30 14161 H 1393.03 -0.276589 1.56271 0
M  V30 14162 H 1393.05 -2.80315 2.57301 0
M  V30 14163 H 1392.56 -1.32779 3.6468 0
M  V30 14164 H 1390.67 -3.15168 1.98746 0
M  V30 14165 H 1390.78 -2.85416 3.84805 0
M  V30 14166 H 1389.14 -1.59396 1.98658 0
M  V30 14167 H 1389.93 -0.655695 3.3698 0
M  V30 14168 N 1392.37 -1.38898 -0.744656 0
M  V30 14169 C 1393.62 -1.35795 -1.50623 0
M  V30 14170 C 1393.95 0.0491775 -1.94138 0
M  V30 14171 O 1393.22 1.01219 -1.66087 0
M  V30 14172 C 1393.51 -2.32168 -2.75263 0
M  V30 14173 C 1393.36 -3.81781 -2.3783 0
M  V30 14174 C 1394.68 -2.26526 -3.77325 0
M  V30 14175 H 1391.8 -0.494591 -0.546396 0
M  V30 14176 H 1394.44 -1.69816 -0.852211 0
M  V30 14177 H 1392.59 -2.03287 -3.31069 0
M  V30 14178 H 1394.26 -4.21373 -1.8773 0
M  V30 14179 H 1392.51 -3.99027 -1.70176 0
M  V30 14180 H 1393.18 -4.44687 -3.27044 0
M  V30 14181 H 1395.65 -2.52041 -3.31081 0
M  V30 14182 H 1394.53 -2.96053 -4.62216 0
M  V30 14183 H 1394.79 -1.26705 -4.23554 0
M  V30 14184 N 1393.85 0.973806 -1.23914 0
M  V30 14185 C 1394.81 2.04892 -1.02723 0
M  V30 14186 C 1395.81 1.60795 0.0132972 0
M  V30 14187 O 1397 1.72714 -0.227084 0
M  V30 14188 C 1394.13 3.36341 -0.555667 0
M  V30 14189 H 1395.33 2.25124 -1.98139 0
M  V30 14190 H 1392.88 1.14817 -1.06051 0
M  V30 14191 H 1393.61 3.21799 0.40197 0
M  V30 14192 H 1393.4 3.69689 -1.30661 0
M  V30 14193 H 1394.89 4.15398 -0.428248 0
M  V30 14194 N 1395.33 1.05191 1.17357 0
M  V30 14195 C 1396.26 0.673931 2.23563 0
M  V30 14196 C 1397.24 -0.328284 1.66902 0
M  V30 14197 O 1398.42 -0.205878 1.93106 0
M  V30 14198 C 1395.55 0.0478801 3.47267 0
M  V30 14199 C 1394.51 0.974855 4.1675 0
M  V30 14200 C 1393.83 0.212684 5.34277 0
M  V30 14201 C 1395.13 2.299 4.68981 0
M  V30 14202 H 1396.83 1.56183 2.55436 0
M  V30 14203 H 1394.37 0.752408 1.2278 0
M  V30 14204 H 1396.33 -0.228343 4.20781 0
M  V30 14205 H 1395.05 -0.874963 3.14662 0
M  V30 14206 H 1393.71 1.23564 3.45148 0
M  V30 14207 H 1393.36 -0.712924 4.97922 0
M  V30 14208 H 1393.06 0.830351 5.81703 0
M  V30 14209 H 1394.58 -0.056255 6.10574 0
M  V30 14210 H 1395.99 2.08269 5.34132 0
M  V30 14211 H 1394.39 2.87064 5.26986 0
M  V30 14212 H 1395.46 2.93759 3.8579 0
M  V30 14213 N 1396.8 -1.33791 0.83293 0
M  V30 14214 C 1398.08 -1.9248 0.347955 0
M  V30 14215 C 1398.46 -1.75978 -1.16597 0
M  V30 14216 O 1397.81 -1.14456 -1.97768 0
M  V30 14217 C 1398.02 -3.3998 0.78831 0
M  V30 14218 C 1399.37 -4.17131 0.7929 0
M  V30 14219 O 1400.39 -3.48607 0.731533 0
M  V30 14220 O 1399.25 -5.39446 0.875223 0
M  V30 14221 H 1396.34 -0.821264 0.0972309 0
M  V30 14222 H 1398.89 -1.42702 0.918387 0
M  V30 14223 H 1397.66 -3.45836 1.83065 0
M  V30 14224 H 1397.29 -3.97126 0.194123 0
M  V30 14225 N 1398.28 -0.588812 -1.46187 0
M  V30 14226 C 1399.53 -0.076728 -2.02355 0
M  V30 14227 C 1399.86 1.28557 -1.45956 0
M  V30 14228 O 1399.11 1.85722 -0.616899 0
M  V30 14229 C 1399.41 0.0325249 -3.57385 0
M  V30 14230 C 1399.08 -1.26298 -4.32851 0
M  V30 14231 C 1397.74 -1.61789 -4.53186 0
M  V30 14232 C 1400.09 -2.12001 -4.76136 0
M  V30 14233 C 1397.42 -2.82771 -5.1406 0
M  V30 14234 C 1399.77 -3.32214 -5.38346 0
M  V30 14235 C 1398.44 -3.6798 -5.56908 0
M  V30 14236 H 1397.71 -0.0280768 -0.740468 0
M  V30 14237 H 1400.35 -0.766671 -1.75483 0
M  V30 14238 H 1398.66 0.805632 -3.83428 0
M  V30 14239 H 1400.35 0.444597 -3.98528 0
M  V30 14240 H 1396.94 -0.976692 -4.17323 0
M  V30 14241 H 1401.13 -1.85884 -4.60175 0
M  V30 14242 H 1396.38 -3.10611 -5.26622 0
M  V30 14243 H 1400.56 -3.98888 -5.70843 0
M  V30 14244 H 1398.19 -4.61815 -6.03846 0
M  V30 14245 N 1399.76 1.54172 -0.326923 0
M  V30 14246 C 1401.17 1.86009 0.160446 0
M  V30 14247 C 1401.52 1.24851 1.51349 0
M  V30 14248 O 1400.65 0.555804 2.09141 0
M  V30 14249 C 1401.24 3.37488 0.297909 0
M  V30 14250 C 1399.8 3.69263 0.7295 0
M  V30 14251 C 1398.95 2.76911 -0.146778 0
M  V30 14252 H 1401.9 1.48972 -0.547093 0
M  V30 14253 H 1401.92 3.63388 1.12825 0
M  V30 14254 H 1401.43 3.81971 -0.687007 0
M  V30 14255 H 1399.53 3.30314 1.72404 0
M  V30 14256 H 1399.65 4.76149 0.53092 0
M  V30 14257 H 1398.01 2.51876 0.378212 0
M  V30 14258 H 1398.79 3.24221 -1.12852 0
M  V30 14259 N 1401.24 0.0551678 1.57503 0
M  V30 14260 C 1402.48 -0.621569 1.9472 0
M  V30 14261 C 1402.84 -1.67772 0.933626 0
M  V30 14262 O 1404.04 -2.40882 1.19287 0
M  V30 14263 C 1402.31 -1.19858 3.36703 0
M  V30 14264 S 1403.87 -1.89276 3.95879 0
M  V30 14265 H 1400.69 -0.203985 0.68111 0
M  V30 14266 H 1403.29 0.125058 1.951 0
M  V30 14267 H 1402 -0.417833 4.08267 0
M  V30 14268 H 1401.53 -1.98193 3.39828 0
M  V30 14269 H 1403.54 -3.17373 3.8143 0
M  V30 14270 N 1402.72 -1.56081 -0.218252 0
M  V30 14271 C 1403.65 -1.95706 -1.27364 0
M  V30 14272 C 1404.63 -0.825731 -1.48713 0
M  V30 14273 O 1405.81 -1.08829 -1.60841 0
M  V30 14274 C 1402.94 -2.2766 -2.62275 0
M  V30 14275 C 1401.9 -3.43314 -2.55576 0
M  V30 14276 C 1401.22 -3.60883 -3.94547 0
M  V30 14277 C 1402.52 -4.7819 -2.10075 0
M  V30 14278 H 1404.22 -2.84113 -0.944459 0
M  V30 14279 H 1401.76 -1.36693 -0.452882 0
M  V30 14280 H 1403.72 -2.53973 -3.36268 0
M  V30 14281 H 1402.44 -1.3611 -2.96887 0
M  V30 14282 H 1401.1 -3.17056 -1.8404 0
M  V30 14283 H 1400.75 -2.66703 -4.26472 0
M  V30 14284 H 1400.45 -4.38674 -3.90946 0
M  V30 14285 H 1401.97 -3.89547 -4.70197 0
M  V30 14286 H 1403.38 -5.03686 -2.73813 0
M  V30 14287 H 1401.78 -5.59287 -2.17527 0
M  V30 14288 H 1402.85 -4.73325 -1.05314 0
M  V30 14289 N 1404.2 0.485086 -1.49949 0
M  V30 14290 C 1405.47 1.24639 -1.50747 0
M  V30 14291 C 1405.85 2.09683 -0.244162 0
M  V30 14292 O 1405.2 2.1503 0.772949 0
M  V30 14293 C 1405.41 2.08946 -2.7954 0
M  V30 14294 C 1406.76 2.67604 -3.29656 0
M  V30 14295 O 1407.78 2.192 -2.80766 0
M  V30 14296 O 1406.64 3.55761 -4.14845 0
M  V30 14297 H 1403.74 0.564849 -0.604049 0
M  V30 14298 H 1406.28 0.498052 -1.62227 0
M  V30 14299 H 1405.05 1.46185 -3.62968 0
M  V30 14300 H 1404.68 2.90941 -2.70997 0
M  V30 14301 N 1405.67 1.39291 0.737279 0
M  V30 14302 C 1406.9 1.39844 1.53162 0
M  V30 14303 C 1407.32 -0.00568546 1.88099 0
M  V30 14304 O 1406.68 -0.992085 1.51748 0
M  V30 14305 C 1406.73 2.27577 2.79716 0
M  V30 14306 O 1405.83 1.70408 3.75546 0
M  V30 14307 H 1405.17 0.476314 0.462624 0
M  V30 14308 H 1407.7 1.83258 0.909819 0
M  V30 14309 H 1407.71 2.42009 3.28475 0
M  V30 14310 H 1406.39 3.29621 2.53619 0
M  V30 14311 H 1404.97 1.65206 3.34307 0
M  V30 14312 N 1407.15 -0.967221 1.24429 0
M  V30 14313 C 1408.56 -1.52488 1.07723 0
M  V30 14314 C 1408.91 -1.93031 -0.351191 0
M  V30 14315 O 1408.04 -1.77376 -1.23963 0
M  V30 14316 C 1408.63 -2.77107 1.94929 0
M  V30 14317 C 1407.19 -3.29227 1.82446 0
M  V30 14318 C 1406.34 -2.02133 1.89835 0
M  V30 14319 H 1409.29 -0.785465 1.37899 0
M  V30 14320 H 1409.31 -3.50459 1.48186 0
M  V30 14321 H 1408.82 -2.47567 2.98885 0
M  V30 14322 H 1406.92 -3.63617 0.813246 0
M  V30 14323 H 1407.04 -3.98095 2.66566 0
M  V30 14324 H 1405.4 -2.16867 1.3357 0
M  V30 14325 H 1406.18 -1.74958 2.95372 0
M  V30 14326 N 1408.63 -1.05812 -1.16797 0
M  V30 14327 C 1409.56 -0.622584 -2.20582 0
M  V30 14328 C 1410.57 0.316905 -1.59686 0
M  V30 14329 O 1411.76 0.108657 -1.78169 0
M  V30 14330 C 1408.86 0.108124 -3.38727 0
M  V30 14331 C 1408.04 -0.84363 -4.29187 0
M  V30 14332 C 1407.1 -0.15305 -5.25977 0
M  V30 14333 O 1406.12 -0.78915 -5.63703 0
M  V30 14334 N 1407.32 1.10721 -5.69843 0
M  V30 14335 H 1410.09 -1.51532 -2.5857 0
M  V30 14336 H 1407.65 -0.940815 -1.31758 0
M  V30 14337 H 1409.64 0.580395 -4.00517 0
M  V30 14338 H 1408.21 0.902599 -2.99286 0
M  V30 14339 H 1407.43 -1.49538 -3.64735 0
M  V30 14340 H 1408.72 -1.48946 -4.86511 0
M  V30 14341 H 1408.12 1.64423 -5.41278 0
M  V30 14342 H 1406.67 1.52344 -6.33746 0
M  V30 14343 N 1410.11 1.33347 -0.840014 0
M  V30 14344 C 1411.07 2.27492 -0.279264 0
M  V30 14345 C 1412.07 1.51004 0.552669 0
M  V30 14346 O 1413.26 1.70305 0.366295 0
M  V30 14347 C 1410.39 3.35462 0.606466 0
M  V30 14348 H 1411.59 2.78601 -1.11001 0
M  V30 14349 H 1409.14 1.4377 -0.613187 0
M  V30 14350 H 1409.87 2.89596 1.45961 0
M  V30 14351 H 1409.66 3.92098 0.0111889 0
M  V30 14352 H 1411.15 4.05645 0.992052 0
M  V30 14353 N 1411.59 0.596556 1.45873 0
M  V30 14354 C 1412.83 0.0959747 2.03173 0
M  V30 14355 C 1413.19 -1.25529 1.45809 0
M  V30 14356 O 1412.48 -1.81324 0.619052 0
M  V30 14357 C 1412.67 -0.0135714 3.57397 0
M  V30 14358 C 1412.5 1.32553 4.29721 0
M  V30 14359 C 1411.27 1.90333 4.68083 0
M  V30 14360 C 1413.47 2.25185 4.62381 0
M  V30 14361 N 1411.45 3.17838 5.25216 0
M  V30 14362 C 1412.82 3.37283 5.20231 0
M  V30 14363 C 1414.88 2.24694 4.44316 0
M  V30 14364 C 1413.58 4.49041 5.61921 0
M  V30 14365 C 1415.61 3.35491 4.87031 0
M  V30 14366 C 1414.97 4.46311 5.44964 0
M  V30 14367 H 1411.07 0.0782275 0.778077 0
M  V30 14368 H 1413.65 0.792492 1.77842 0
M  V30 14369 H 1411.82 -0.679285 3.82414 0
M  V30 14370 H 1413.56 -0.519803 4.01348 0
M  V30 14371 H 1410.31 1.43665 4.51284 0
M  V30 14372 H 1410.73 3.82935 5.58292 0
M  V30 14373 H 1415.38 1.40282 3.98849 0
M  V30 14374 H 1413.09 5.34186 6.06359 0
M  V30 14375 H 1416.68 3.36246 4.74795 0
M  V30 14376 H 1415.56 5.30629 5.77411 0
M  V30 14377 N 1413.06 -1.53996 0.335095 0
M  V30 14378 C 1413.99 -2.2768 -0.518087 0
M  V30 14379 C 1414.97 -1.28915 -1.10972 0
M  V30 14380 O 1416.16 -1.57745 -1.1327 0
M  V30 14381 C 1413.29 -3.04327 -1.67339 0
M  V30 14382 C 1412.24 -4.10525 -1.2105 0
M  V30 14383 C 1411.57 -4.75078 -2.45366 0
M  V30 14384 C 1412.87 -5.21337 -0.317055 0
M  V30 14385 H 1414.56 -2.99244 0.0965669 0
M  V30 14386 H 1412.11 -1.4392 0.0478842 0
M  V30 14387 H 1414.06 -3.54608 -2.27664 0
M  V30 14388 H 1412.79 -2.30399 -2.31481 0
M  V30 14389 H 1411.45 -3.61144 -0.630124 0
M  V30 14390 H 1411.09 -3.97754 -3.07897 0
M  V30 14391 H 1410.79 -5.46822 -2.1508 0
M  V30 14392 H 1412.32 -5.2814 -3.06432 0
M  V30 14393 H 1413.73 -5.67305 -0.826905 0
M  V30 14394 H 1412.13 -6.00006 -0.106458 0
M  V30 14395 H 1413.2 -4.80536 0.649068 0
M  V30 14396 N 1414.54 -0.0635198 -1.57472 0
M  V30 14397 C 1415.77 0.620205 -1.9791 0
M  V30 14398 C 1416.19 1.62851 -0.941335 0
M  V30 14399 O 1415.55 1.81056 0.0940313 0
M  V30 14400 C 1415.6 1.27261 -3.37397 0
M  V30 14401 O 1414.7 2.38841 -3.36197 0
M  V30 14402 H 1414.04 0.16021 -0.644382 0
M  V30 14403 H 1416.57 -0.135582 -2.0415 0
M  V30 14404 H 1416.58 1.6214 -3.74399 0
M  V30 14405 H 1415.26 0.533723 -4.12461 0
M  V30 14406 H 1413.83 2.05817 -3.10956 0
M  V30 14407 N 1416.02 1.56195 0.209972 0
M  V30 14408 C 1416.98 1.92514 1.24383 0
M  V30 14409 C 1417.98 0.804793 1.39211 0
M  V30 14410 O 1419.17 1.0724 1.37278 0
M  V30 14411 C 1416.3 2.18613 2.61574 0
M  V30 14412 H 1417.5 2.84992 0.933781 0
M  V30 14413 H 1415.05 1.49656 0.450878 0
M  V30 14414 H 1415.79 1.28724 2.97659 0
M  V30 14415 H 1415.57 3.00241 2.52186 0
M  V30 14416 H 1417.06 2.47767 3.36156 0
M  V30 14417 N 1417.5 -0.477127 1.50204 0
M  V30 14418 C 1418.75 -1.22639 1.60133 0
M  V30 14419 C 1419.06 -1.93218 0.304333 0
M  V30 14420 O 1420.27 -2.70027 0.282457 0
M  V30 14421 C 1418.72 -2.22807 2.82639 0
M  V30 14422 C 1418.33 -1.58059 4.19191 0
M  V30 14423 C 1420.07 -2.98413 3.01911 0
M  V30 14424 C 1417.98 -2.56478 5.32891 0
M  V30 14425 H 1416.91 -0.461439 0.596314 0
M  V30 14426 H 1419.56 -0.497533 1.76626 0
M  V30 14427 H 1417.94 -2.98959 2.59692 0
M  V30 14428 H 1419.12 -0.877374 4.5237 0
M  V30 14429 H 1417.43 -0.947563 4.05475 0
M  V30 14430 H 1420.03 -3.72059 3.84026 0
M  V30 14431 H 1420.37 -3.57444 2.134 0
M  V30 14432 H 1420.91 -2.29375 3.25011 0
M  V30 14433 H 1417.64 -2.02194 6.23536 0
M  V30 14434 H 1417.16 -3.24969 5.04138 0
M  V30 14435 H 1418.84 -3.18429 5.63216 0
M  V30 14436 N 1418.98 -1.3968 -0.729882 0
M  V30 14437 C 1420.22 -1.36911 -1.4866 0
M  V30 14438 C 1420.55 0.0326011 -1.94973 0
M  V30 14439 O 1419.82 0.984789 -1.69348 0
M  V30 14440 H 1418.4 -0.503848 -0.551495 0
M  V30 14441 H 1421.06 -1.74596 -0.866155 0
M  V30 14442 H 1420.15 -2.03504 -2.36628 0
M  V30 14443 N 1420.45 0.960609 -1.2494 0
M  V30 14444 C 1421.38 2.074 -1.07274 0
M  V30 14445 C 1422.37 1.70092 0.0164365 0
M  V30 14446 O 1423.55 1.93604 -0.151975 0
M  V30 14447 C 1420.68 3.40491 -0.684317 0
M  V30 14448 C 1419.63 3.91784 -1.72306 0
M  V30 14449 C 1418.96 5.21301 -1.18949 0
M  V30 14450 C 1420.26 4.18829 -3.12056 0
M  V30 14451 H 1421.95 2.22438 -2.00404 0
M  V30 14452 H 1419.5 1.06888 -0.964937 0
M  V30 14453 H 1421.45 4.17826 -0.547686 0
M  V30 14454 H 1420.18 3.25374 0.282687 0
M  V30 14455 H 1418.84 3.16613 -1.84802 0
M  V30 14456 H 1418.48 5.02549 -0.212892 0
M  V30 14457 H 1418.18 5.56588 -1.8837 0
M  V30 14458 H 1419.71 6.01238 -1.06513 0
M  V30 14459 H 1421.12 4.86844 -3.02748 0
M  V30 14460 H 1419.52 4.6536 -3.78894 0
M  V30 14461 H 1420.59 3.25333 -3.59564 0
M  V30 14462 N 1421.93 1.0643 1.16234 0
M  V30 14463 C 1422.84 0.687446 2.24302 0
M  V30 14464 C 1423.86 -0.297132 1.71444 0
M  V30 14465 O 1425.03 -0.146101 2.00869 0
M  V30 14466 C 1422.1 0.0810973 3.46605 0
M  V30 14467 C 1421.16 1.11772 4.14494 0
M  V30 14468 C 1420.39 0.54021 5.30959 0
M  V30 14469 O 1420.62 -0.646619 5.66723 0
M  V30 14470 O 1419.55 1.28057 5.8812 0
M  V30 14471 H 1423.38 1.58842 2.58849 0
M  V30 14472 H 1420.96 0.836649 1.23776 0
M  V30 14473 H 1422.84 -0.25524 4.20626 0
M  V30 14474 H 1421.52 -0.793338 3.13828 0
M  V30 14475 H 1420.43 1.50626 3.42436 0
M  V30 14476 H 1421.76 1.96373 4.5133 0
M  V30 14477 N 1423.41 -1.329 0.847073 0
M  V30 14478 C 1424.65 -1.99318 0.45294 0
M  V30 14479 C 1425.01 -1.65606 -0.971536 0
M  V30 14480 O 1426.22 -2.25054 -1.46983 0
M  V30 14481 C 1424.49 -3.50938 0.67656 0
M  V30 14482 S 1426.05 -4.37161 0.378869 0
M  V30 14483 H 1422.86 -0.690376 0.170008 0
M  V30 14484 H 1425.47 -1.61744 1.09814 0
M  V30 14485 H 1424.17 -3.72963 1.71252 0
M  V30 14486 H 1423.7 -3.93396 0.0175049 0
M  V30 14487 H 1425.72 -4.89739 -0.79813 0
M  V30 14488 N 1424.89 -0.604284 -1.45555 0
M  V30 14489 C 1426.12 -0.104301 -2.06337 0
M  V30 14490 C 1426.53 1.21523 -1.45013 0
M  V30 14491 O 1425.87 1.75039 -0.557422 0
M  V30 14492 C 1425.93 0.113202 -3.59322 0
M  V30 14493 C 1425.6 -1.12402 -4.42961 0
M  V30 14494 C 1426.59 -2.04136 -4.78147 0
M  V30 14495 C 1424.28 -1.35192 -4.83765 0
M  V30 14496 C 1426.27 -3.16991 -5.52988 0
M  V30 14497 C 1423.96 -2.48348 -5.5836 0
M  V30 14498 C 1424.96 -3.39076 -5.92888 0
M  V30 14499 O 1424.64 -4.50264 -6.65971 0
M  V30 14500 H 1424.38 -0.0644639 -0.672919 0
M  V30 14501 H 1426.93 -0.830982 -1.8784 0
M  V30 14502 H 1425.16 0.894739 -3.76206 0
M  V30 14503 H 1426.85 0.564372 -4.01957 0
M  V30 14504 H 1427.62 -1.87753 -4.47184 0
M  V30 14505 H 1423.49 -0.654731 -4.56327 0
M  V30 14506 H 1427.04 -3.87831 -5.79856 0
M  V30 14507 H 1422.94 -2.64686 -5.88737 0
M  V30 14508 H 1423.7 -4.48904 -6.84418 0
M  V30 14509 N 1426.37 1.53816 -0.343257 0
M  V30 14510 C 1427.3 2.22552 0.548015 0
M  V30 14511 C 1428.31 1.23202 1.06419 0
M  V30 14512 O 1429.5 1.49559 0.974394 0
M  V30 14513 C 1426.6 2.89197 1.76687 0
M  V30 14514 C 1425.77 4.14859 1.38603 0
M  V30 14515 C 1424.83 4.64917 2.46453 0
M  V30 14516 O 1423.86 5.29135 2.09773 0
M  V30 14517 N 1425.06 4.4082 3.77701 0
M  V30 14518 H 1427.83 2.99672 -0.040645 0
M  V30 14519 H 1425.39 1.61033 -0.167368 0
M  V30 14520 H 1427.38 3.19601 2.48268 0
M  V30 14521 H 1425.95 2.15664 2.26291 0
M  V30 14522 H 1425.17 3.91003 0.501001 0
M  V30 14523 H 1426.46 4.96599 1.10756 0
M  V30 14524 H 1425.85 3.8946 4.1029 0
M  V30 14525 H 1424.41 4.7583 4.45453 0
M  V30 14526 N 1427.84 0.0718701 1.57436 0
M  V30 14527 C 1429.12 -0.638233 1.84894 0
M  V30 14528 C 1429.5 -1.87786 0.964343 0
M  V30 14529 O 1428.85 -2.28479 0.0306523 0
M  V30 14530 C 1429.06 -0.975817 3.3508 0
M  V30 14531 C 1430.41 -1.34927 4.02591 0
M  V30 14532 O 1431.43 -1.06754 3.39826 0
M  V30 14533 O 1430.29 -1.87589 5.13296 0
M  V30 14534 H 1427.38 -0.317 0.763832 0
M  V30 14535 H 1429.93 0.102807 1.69388 0
M  V30 14536 H 1428.7 -0.0953948 3.91184 0
M  V30 14537 H 1428.33 -1.77362 3.55849 0
M  V30 14538 N 1429.32 -1.56304 -0.201686 0
M  V30 14539 C 1430.27 -1.94901 -1.26949 0
M  V30 14540 C 1431.26 -0.833574 -1.47472 0
M  V30 14541 O 1432.47 -1.01854 -1.48411 0
M  V30 14542 H 1428.85 -0.619663 -0.426053 0
M  V30 14543 H 1430.82 -2.83964 -0.9169 0
M  V30 14544 C 1429.57 -2.29913 -2.60835 0
M  V30 14545 H 1428.89 -3.15268 -2.45858 0
M  V30 14546 H 1430.33 -2.60789 -3.34313 0
M  V30 14547 C 1428.79 -1.13136 -3.17335 0
M  V30 14548 O 1429.32 -0.402915 -3.99674 0
M  V30 14549 N 1427.52 -0.909912 -2.75987 0
M  V30 14550 H 1427.07 -1.50402 -2.09134 0
M  V30 14551 H 1427.03 -0.130348 -3.1413 0
M  V30 14552 N 1430.8 0.469154 -1.50455 0
M  V30 14553 C 1432.05 1.22109 -1.61541 0
M  V30 14554 C 1432.38 1.91905 -0.316646 0
M  V30 14555 O 1431.63 1.82845 0.697585 0
M  V30 14556 C 1431.93 2.28673 -2.7467 0
M  V30 14557 C 1431.6 1.76115 -4.15083 0
M  V30 14558 C 1430.26 1.61503 -4.53288 0
M  V30 14559 C 1432.61 1.37145 -5.02833 0
M  V30 14560 C 1429.94 1.06346 -5.76981 0
M  V30 14561 C 1432.29 0.834294 -6.27074 0
M  V30 14562 C 1430.95 0.674814 -6.6408 0
M  V30 14563 H 1430.22 0.44683 -0.591121 0
M  V30 14564 H 1432.87 0.516821 -1.84394 0
M  V30 14565 H 1431.18 3.05015 -2.45912 0
M  V30 14566 H 1432.87 2.86615 -2.80451 0
M  V30 14567 H 1429.46 1.88457 -3.84944 0
M  V30 14568 H 1433.65 1.47268 -4.73947 0
M  V30 14569 H 1428.9 0.927377 -6.04326 0
M  V30 14570 H 1433.08 0.523676 -6.94428 0
M  V30 14571 H 1430.7 0.245264 -7.59804 0
M  V30 14572 N 1432.28 1.40065 0.722464 0
M  V30 14573 C 1433.5 1.4146 1.5167 0
M  V30 14574 C 1433.93 0.0142653 1.88095 0
M  V30 14575 O 1433.29 -0.975934 1.52791 0
M  V30 14576 C 1433.33 2.30531 2.77287 0
M  V30 14577 O 1432.44 1.74382 3.73717 0
M  V30 14578 H 1431.78 0.481194 0.457546 0
M  V30 14579 H 1434.31 1.84213 0.890331 0
M  V30 14580 H 1434.32 2.45479 3.25889 0
M  V30 14581 H 1432.99 3.32292 2.50109 0
M  V30 14582 H 1431.57 1.68743 3.32536 0
M  V30 14583 N 1433.76 -0.95397 1.25448 0
M  V30 14584 C 1434.7 -2.05075 1.0589 0
M  V30 14585 C 1435.67 -1.66069 -0.0321545 0
M  V30 14586 O 1436.86 -1.90389 0.125152 0
M  V30 14587 C 1434 -3.38246 0.684391 0
M  V30 14588 C 1433.11 -3.90366 1.85037 0
M  V30 14589 C 1432.25 -5.11864 1.42016 0
M  V30 14590 C 1431.29 -5.56214 2.55523 0
M  V30 14591 N 1430.42 -6.68924 2.13272 0
M  V30 14592 H 1435.26 -2.21137 1.99755 0
M  V30 14593 H 1432.8 -1.08366 0.994742 0
M  V30 14594 H 1434.76 -4.14785 0.448209 0
M  V30 14595 H 1433.39 -3.22068 -0.217273 0
M  V30 14596 H 1432.44 -3.1034 2.19984 0
M  V30 14597 H 1433.75 -4.19228 2.70276 0
M  V30 14598 H 1432.91 -5.95823 1.14366 0
M  V30 14599 H 1431.65 -4.84718 0.538492 0
M  V30 14600 H 1430.65 -4.7082 2.83916 0
M  V30 14601 H 1431.88 -5.85368 3.44268 0
M  V30 14602 H 1429.82 -6.43486 1.27523 0
M  V30 14603 H 1429.74 -6.97307 2.92059 0
M  V30 14604 H 1431.01 -7.5629 1.88801 0
M  V30 14605 N 1435.24 -1.07045 -1.15668 0
M  V30 14606 C 1436.48 -0.791735 -1.86381 0
M  V30 14607 C 1436.81 0.682084 -1.82148 0
M  V30 14608 O 1436.07 1.51617 -1.23737 0
M  V30 14609 C 1436.36 -1.24127 -3.35153 0
M  V30 14610 C 1436.03 -2.72051 -3.59582 0
M  V30 14611 C 1434.69 -3.12455 -3.65958 0
M  V30 14612 C 1437.04 -3.67547 -3.69538 0
M  V30 14613 C 1434.37 -4.4718 -3.79799 0
M  V30 14614 C 1436.72 -5.02029 -3.84902 0
M  V30 14615 C 1435.39 -5.42059 -3.89523 0
M  V30 14616 H 1434.66 -0.289717 -0.682016 0
M  V30 14617 H 1437.31 -1.34091 -1.36718 0
M  V30 14618 H 1435.61 -0.611428 -3.87 0
M  V30 14619 H 1437.31 -1.00256 -3.88265 0
M  V30 14620 H 1433.9 -2.39771 -3.55257 0
M  V30 14621 H 1438.08 -3.3746 -3.63915 0
M  V30 14622 H 1433.34 -4.77668 -3.81632 0
M  V30 14623 H 1437.51 -5.75902 -3.91548 0
M  V30 14624 H 1435.14 -6.46455 -4 0
M  V30 14625 N 1436.71 1.32449 -0.85411 0
M  V30 14626 C 1437.96 1.96881 -0.45632 0
M  V30 14627 C 1438.28 1.67926 0.991248 0
M  V30 14628 O 1437.55 0.986195 1.69266 0
M  V30 14629 H 1436.13 0.728378 -0.165752 0
M  V30 14630 H 1438.79 1.61542 -1.09042 0
M  V30 14631 H 1437.89 3.0626 -0.600927 0
M  V30 14632 N 1438.19 0.611994 1.45232 0
M  V30 14633 C 1439.12 -0.0914869 2.33321 0
M  V30 14634 C 1440.1 -0.854315 1.4709 0
M  V30 14635 O 1441.29 -0.823994 1.75852 0
M  V30 14636 C 1438.42 -1.08652 3.29867 0
M  V30 14637 C 1437.37 -0.436615 4.25767 0
M  V30 14638 C 1436.7 -1.54021 5.12037 0
M  V30 14639 C 1438 0.645005 5.18302 0
M  V30 14640 H 1439.69 0.644053 2.92391 0
M  V30 14641 H 1437.24 0.311171 1.40598 0
M  V30 14642 H 1439.19 -1.58726 3.90364 0
M  V30 14643 H 1437.91 -1.85271 2.68965 0
M  V30 14644 H 1436.57 0.0432918 3.66574 0
M  V30 14645 H 1436.22 -2.29679 4.475 0
M  V30 14646 H 1435.92 -1.11084 5.77005 0
M  V30 14647 H 1437.45 -2.04313 5.75403 0
M  V30 14648 H 1438.86 0.228166 5.72846 0
M  V30 14649 H 1437.26 0.996387 5.9177 0
M  V30 14650 H 1438.33 1.51985 4.60466 0
M  V30 14651 N 1439.67 -1.53632 0.351409 0
M  V30 14652 C 1440.91 -2.02951 -0.242935 0
M  V30 14653 C 1441.27 -1.23346 -1.47138 0
M  V30 14654 O 1442.47 -1.62602 -2.14042 0
M  V30 14655 C 1440.75 -3.53272 -0.541633 0
M  V30 14656 S 1442.3 -4.24485 -1.11167 0
M  V30 14657 H 1439.12 -0.707367 -0.071784 0
M  V30 14658 H 1441.72 -1.89234 0.490993 0
M  V30 14659 H 1440.43 -4.08817 0.360137 0
M  V30 14660 H 1439.96 -3.71124 -1.30502 0
M  V30 14661 H 1441.97 -4.34469 -2.39689 0
M  V30 14662 N 1441.15 -0.0802183 -1.57396 0
M  V30 14663 C 1442.38 0.595754 -1.98137 0
M  V30 14664 C 1442.79 1.62638 -0.958871 0
M  V30 14665 O 1442.15 1.82422 0.0534316 0
M  V30 14666 C 1442.2 1.2568 -3.38949 0
M  V30 14667 O 1441.92 0.267417 -4.37283 0
M  V30 14668 C 1443.42 2.0198 -3.94612 0
M  V30 14669 H 1440.64 0.160853 -0.651435 0
M  V30 14670 H 1443.18 -0.155111 -2.03911 0
M  V30 14671 H 1441.34 1.9587 -3.34236 0
M  V30 14672 H 1441.75 0.742695 -5.19215 0
M  V30 14673 H 1443.23 2.43613 -4.95335 0
M  V30 14674 H 1443.7 2.87973 -3.31614 0
M  V30 14675 H 1444.31 1.36639 -4.02753 0
M  V30 14676 N 1442.63 1.56409 0.193394 0
M  V30 14677 C 1443.87 1.80724 0.913521 0
M  V30 14678 C 1444.2 0.653718 1.83185 0
M  V30 14679 O 1443.46 -0.360417 1.92353 0
M  V30 14680 C 1443.75 3.11039 1.76039 0
M  V30 14681 C 1443.42 4.39832 0.992892 0
M  V30 14682 C 1442.08 4.7482 0.780991 0
M  V30 14683 C 1444.43 5.19228 0.452985 0
M  V30 14684 C 1441.76 5.86697 0.0177286 0
M  V30 14685 C 1444.11 6.31902 -0.297075 0
M  V30 14686 C 1442.78 6.65472 -0.519977 0
M  V30 14687 H 1442.05 0.661315 0.334281 0
M  V30 14688 H 1444.7 1.90654 0.179786 0
M  V30 14689 H 1443 2.96353 2.56285 0
M  V30 14690 H 1444.7 3.27058 2.32022 0
M  V30 14691 H 1441.29 4.12376 1.16806 0
M  V30 14692 H 1445.47 4.9261 0.604092 0
M  V30 14693 H 1440.73 6.11178 -0.164925 0
M  V30 14694 H 1444.9 6.92639 -0.7228 0
M  V30 14695 H 1442.53 7.52004 -1.11331 0
M  V30 14696 N 1444.1 -0.461169 1.50702 0
M  V30 14697 C 1445.33 -1.24019 1.66235 0
M  V30 14698 C 1445.75 -1.84827 0.349388 0
M  V30 14699 O 1445.11 -1.67743 -0.687888 0
M  V30 14700 C 1445.16 -2.31743 2.76274 0
M  V30 14701 O 1444.26 -3.3664 2.38217 0
M  V30 14702 H 1443.6 -0.364424 0.55506 0
M  V30 14703 H 1446.13 -0.547636 1.97135 0
M  V30 14704 H 1446.14 -2.76902 2.99649 0
M  V30 14705 H 1444.82 -1.86858 3.7156 0
M  V30 14706 H 1443.4 -2.97123 2.25327 0
M  V30 14707 N 1445.58 -1.40446 -0.715026 0
M  V30 14708 C 1446.86 -1.29253 -1.4681 0
M  V30 14709 C 1447.24 0.0888738 -2.10913 0
M  V30 14710 O 1446.59 1.10172 -2.00186 0
M  V30 14711 C 1446.8 -2.43173 -2.50335 0
M  V30 14712 C 1448.14 -2.83433 -3.1615 0
M  V30 14713 O 1449.17 -2.4277 -2.60655 0
M  V30 14714 O 1448.03 -3.53687 -4.16615 0
M  V30 14715 H 1445.12 -0.507627 -0.652873 0
M  V30 14716 H 1447.67 -1.52367 -0.747153 0
M  V30 14717 H 1446.44 -3.35438 -2.01486 0
M  V30 14718 H 1446.06 -2.21832 -3.29964 0
M  V30 14719 N 1447.06 0.947303 -1.25952 0
M  V30 14720 C 1448.31 1.6953 -1.11299 0
M  V30 14721 C 1448.64 1.9113 0.343961 0
M  V30 14722 O 1447.91 1.48755 1.25309 0
M  V30 14723 C 1448.2 3.0738 -1.87588 0
M  V30 14724 C 1448.05 2.93145 -3.41154 0
M  V30 14725 C 1449.37 4.07396 -1.66483 0
M  V30 14726 H 1446.49 0.615281 -0.405707 0
M  V30 14727 H 1449.13 1.10064 -1.54874 0
M  V30 14728 H 1447.28 3.58143 -1.50553 0
M  V30 14729 H 1448.95 2.49651 -3.87907 0
M  V30 14730 H 1447.19 2.28902 -3.68492 0
M  V30 14731 H 1447.87 3.9089 -3.89755 0
M  V30 14732 H 1450.34 3.65572 -1.98738 0
M  V30 14733 H 1449.22 5.01876 -2.22287 0
M  V30 14734 H 1449.48 4.379 -0.607916 0
M  V30 14735 N 1448.54 1.07657 1.15099 0
M  V30 14736 C 1449.5 0.703558 2.18135 0
M  V30 14737 C 1450.5 -0.257771 1.5872 0
M  V30 14738 O 1451.69 -0.0383211 1.74158 0
M  V30 14739 C 1448.82 0.0374978 3.40879 0
M  V30 14740 H 1450.02 1.61583 2.52648 0
M  V30 14741 H 1447.57 0.873484 1.29615 0
M  V30 14742 H 1448.3 -0.886868 3.11938 0
M  V30 14743 H 1448.09 0.728961 3.85264 0
M  V30 14744 H 1449.58 -0.208714 4.17078 0
M  V30 14745 N 1450.02 -1.31994 0.861122 0
M  V30 14746 C 1450.95 -2.27632 0.267681 0
M  V30 14747 C 1451.96 -1.52709 -0.564265 0
M  V30 14748 O 1453.15 -1.74239 -0.3877 0
M  V30 14749 C 1450.25 -3.32805 -0.639856 0
M  V30 14750 C 1449.42 -4.37116 0.157676 0
M  V30 14751 C 1448.48 -5.21832 -0.676624 0
M  V30 14752 O 1447.51 -5.69098 -0.107822 0
M  V30 14753 N 1448.71 -5.45317 -1.99022 0
M  V30 14754 H 1451.48 -2.79195 1.0895 0
M  V30 14755 H 1449.04 -1.44923 0.721733 0
M  V30 14756 H 1451.03 -3.86391 -1.20348 0
M  V30 14757 H 1449.6 -2.81351 -1.36236 0
M  V30 14758 H 1448.82 -3.83724 0.902741 0
M  V30 14759 H 1450.11 -5.03889 0.70524 0
M  V30 14760 H 1449.5 -5.08656 -2.47558 0
M  V30 14761 H 1448.06 -6.01874 -2.50182 0
M  V30 14762 N 1451.49 -0.619688 -1.44906 0
M  V30 14763 C 1452.42 0.0791121 -2.33366 0
M  V30 14764 C 1453.41 0.846503 -1.47541 0
M  V30 14765 O 1454.59 0.814657 -1.76287 0
M  V30 14766 C 1451.72 1.06901 -3.30438 0
M  V30 14767 C 1450.67 0.41403 -4.25993 0
M  V30 14768 C 1450 1.51303 -5.12846 0
M  V30 14769 C 1451.3 -0.672483 -5.17953 0
M  V30 14770 H 1452.99 -0.659551 -2.92045 0
M  V30 14771 H 1450.54 -0.318623 -1.40431 0
M  V30 14772 H 1452.49 1.56653 -3.912 0
M  V30 14773 H 1451.22 1.83842 -2.69944 0
M  V30 14774 H 1449.88 -0.0627315 -3.66546 0
M  V30 14775 H 1449.52 2.27303 -4.48712 0
M  V30 14776 H 1449.22 1.08022 -5.77586 0
M  V30 14777 H 1450.75 2.01258 -5.76479 0
M  V30 14778 H 1452.16 -0.258542 -5.72717 0
M  V30 14779 H 1450.56 -1.02776 -5.91234 0
M  V30 14780 H 1451.63 -1.54425 -4.59653 0
M  V30 14781 N 1452.97 1.53444 -0.359552 0
M  V30 14782 C 1454.2 2.06058 0.235576 0
M  V30 14783 C 1454.62 1.23175 1.42161 0
M  V30 14784 O 1453.98 0.249338 1.79577 0
M  V30 14785 C 1454.03 3.55351 0.613025 0
M  V30 14786 O 1453.13 3.75229 1.71104 0
M  V30 14787 H 1452.47 0.663038 0.0357266 0
M  V30 14788 H 1455 1.97923 -0.518408 0
M  V30 14789 H 1455.01 3.9827 0.885722 0
M  V30 14790 H 1453.69 4.15122 -0.254243 0
M  V30 14791 H 1452.27 3.4421 1.43437 0
M  V30 14792 N 1454.45 0.0885642 1.57351 0
M  V30 14793 C 1455.38 -0.869946 2.16689 0
M  V30 14794 C 1456.36 -1.29878 1.09844 0
M  V30 14795 O 1457.55 -1.36684 1.37954 0
M  V30 14796 C 1454.68 -2.13148 2.74199 0
M  V30 14797 C 1453.63 -1.84149 3.86359 0
M  V30 14798 C 1452.96 -3.17075 4.30543 0
M  V30 14799 C 1454.26 -1.13357 5.09851 0
M  V30 14800 H 1455.95 -0.375578 2.97035 0
M  V30 14801 H 1453.5 -0.17921 1.42881 0
M  V30 14802 H 1455.45 -2.80634 3.14361 0
M  V30 14803 H 1454.17 -2.64856 1.91098 0
M  V30 14804 H 1452.83 -1.19063 3.46727 0
M  V30 14805 H 1452.48 -3.66658 3.44342 0
M  V30 14806 H 1452.18 -2.98457 5.06159 0
M  V30 14807 H 1453.7 -3.85731 4.73333 0
M  V30 14808 H 1455.12 -1.70941 5.47222 0
M  V30 14809 H 1453.52 -1.0494 5.90853 0
M  V30 14810 H 1454.59 -0.115273 4.84763 0
M  V30 14811 N 1455.93 -1.56509 -0.185096 0
M  V30 14812 C 1456.84 -1.98552 -1.24958 0
M  V30 14813 C 1457.85 -0.894713 -1.49234 0
M  V30 14814 O 1459.03 -1.20126 -1.61653 0
M  V30 14815 C 1456.1 -2.32513 -2.57175 0
M  V30 14816 C 1455.16 -3.55351 -2.40882 0
M  V30 14817 C 1454.39 -3.87683 -3.66794 0
M  V30 14818 O 1454.61 -3.21167 -4.7139 0
M  V30 14819 O 1453.55 -4.8108 -3.61726 0
M  V30 14820 H 1457.37 -2.89342 -0.922756 0
M  V30 14821 H 1454.96 -1.44196 -0.390887 0
M  V30 14822 H 1456.84 -2.55387 -3.35195 0
M  V30 14823 H 1455.51 -1.44888 -2.89464 0
M  V30 14824 H 1454.42 -3.37712 -1.60939 0
M  V30 14825 H 1455.75 -4.43474 -2.13522 0
M  V30 14826 N 1457.41 0.45317 -1.50944 0
M  V30 14827 C 1458.68 1.21413 -1.53357 0
M  V30 14828 C 1459.06 2.09118 -0.288584 0
M  V30 14829 O 1458.41 2.16621 0.727164 0
M  V30 14830 C 1458.62 2.02969 -2.83909 0
M  V30 14831 C 1459.97 2.60551 -3.35258 0
M  V30 14832 O 1460.99 2.13196 -2.85353 0
M  V30 14833 O 1459.85 3.46881 -4.22298 0
M  V30 14834 H 1456.95 0.551909 -0.615894 0
M  V30 14835 H 1459.49 0.463529 -1.63247 0
M  V30 14836 H 1458.26 1.38453 -3.65987 0
M  V30 14837 H 1457.89 2.85127 -2.77107 0
M  V30 14838 N 1458.88 1.40823 0.707568 0
M  V30 14839 C 1459.81 1.44485 1.83429 0
M  V30 14840 C 1460.8 0.304848 1.67346 0
M  V30 14841 O 1461.98 0.514605 1.87258 0
M  V30 14842 C 1459.11 1.31458 3.21459 0
M  V30 14843 C 1458.06 2.43145 3.52228 0
M  V30 14844 C 1457.39 2.15189 4.89487 0
M  V30 14845 C 1458.69 3.85489 3.52414 0
M  V30 14846 H 1460.38 2.38781 1.80622 0
M  V30 14847 H 1457.93 1.14931 0.867572 0
M  V30 14848 H 1459.88 1.32635 3.99983 0
M  V30 14849 H 1458.61 0.336422 3.24863 0
M  V30 14850 H 1457.27 2.41231 2.76049 0
M  V30 14851 H 1456.91 1.15745 4.89502 0
M  V30 14852 H 1456.61 2.90022 5.11039 0
M  V30 14853 H 1458.14 2.18062 5.70334 0
M  V30 14854 H 1459.55 3.89183 4.20963 0
M  V30 14855 H 1457.95 4.59906 3.85495 0
M  V30 14856 H 1459.02 4.14499 2.51632 0
M  V30 14857 N 1460.36 -0.94061 1.26453 0
M  V30 14858 C 1461.77 -1.50169 1.10934 0
M  V30 14859 C 1462.12 -1.93733 -0.310167 0
M  V30 14860 O 1461.25 -1.79966 -1.20172 0
M  V30 14861 C 1461.84 -2.7291 2.00763 0
M  V30 14862 C 1460.4 -3.25283 1.89388 0
M  V30 14863 C 1459.55 -1.98061 1.9408 0
M  V30 14864 H 1462.5 -0.756038 1.39534 0
M  V30 14865 H 1462.52 -3.47237 1.55586 0
M  V30 14866 H 1462.03 -2.41172 3.04069 0
M  V30 14867 H 1460.14 -3.6181 0.890192 0
M  V30 14868 H 1460.25 -3.92351 2.7495 0
M  V30 14869 H 1458.61 -2.13985 1.3814 0
M  V30 14870 H 1459.4 -1.68654 2.99016 0
M  V30 14871 N 1461.84 -1.08266 -1.14527 0
M  V30 14872 C 1462.8 -0.715117 -2.17758 0
M  V30 14873 C 1463.8 0.24935 -1.58855 0
M  V30 14874 O 1464.99 0.0290846 -1.74176 0
M  V30 14875 C 1462.13 -0.055575 -3.40855 0
M  V30 14876 H 1463.32 -1.62921 -2.51787 0
M  V30 14877 H 1460.87 -0.880346 -1.2915 0
M  V30 14878 H 1461.61 0.870312 -3.12404 0
M  V30 14879 H 1461.39 -0.749382 -3.84872 0
M  V30 14880 H 1462.88 0.186592 -4.17183 0
M  V30 14881 N 1463.32 1.31536 -0.86811 0
M  V30 14882 C 1464.25 2.31037 -0.33822 0
M  V30 14883 C 1465.23 1.60269 0.569892 0
M  V30 14884 O 1466.42 1.87987 0.487305 0
M  V30 14885 C 1463.55 3.44203 0.462753 0
M  V30 14886 C 1462.5 4.26549 -0.3521 0
M  V30 14887 C 1461.83 5.31605 0.574443 0
M  V30 14888 C 1463.13 4.97665 -1.58516 0
M  V30 14889 H 1464.82 2.75607 -1.16967 0
M  V30 14890 H 1462.37 1.325 -0.56389 0
M  V30 14891 H 1464.32 4.12862 0.843967 0
M  V30 14892 H 1463.04 2.98396 1.32769 0
M  V30 14893 H 1461.7 3.59555 -0.715237 0
M  V30 14894 H 1461.35 4.82048 1.43661 0
M  V30 14895 H 1461.05 5.87591 0.0331436 0
M  V30 14896 H 1462.57 6.03124 0.952541 0
M  V30 14897 H 1463.99 5.58931 -1.27549 0
M  V30 14898 H 1462.38 5.63437 -2.06539 0
M  V30 14899 H 1463.45 4.24756 -2.33902 0
M  V30 14900 N 1464.8 0.627364 1.44575 0
M  V30 14901 C 1466.05 0.130094 2.01681 0
M  V30 14902 C 1466.37 -1.25112 1.49572 0
M  V30 14903 O 1465.64 -1.8305 0.697822 0
M  V30 14904 H 1464.22 0.0451032 0.745637 0
M  V30 14905 H 1466.88 0.813218 1.77124 0
M  V30 14906 H 1465.97 0.0949131 3.11956 0
M  V30 14907 N 1466.28 -1.53251 0.367684 0
M  V30 14908 C 1467.52 -2.00469 -0.222481 0
M  V30 14909 C 1467.84 -1.259 -1.49695 0
M  V30 14910 O 1469.04 -1.63717 -2.16585 0
M  V30 14911 C 1467.5 -3.57113 -0.447018 0
M  V30 14912 C 1467.11 -4.40562 0.812946 0
M  V30 14913 C 1468.85 -4.12681 -0.994725 0
M  V30 14914 C 1466.76 -5.88763 0.557877 0
M  V30 14915 H 1465.69 -0.748974 -0.0869144 0
M  V30 14916 H 1468.34 -1.76927 0.48675 0
M  V30 14917 H 1466.72 -3.76818 -1.21756 0
M  V30 14918 H 1467.9 -4.3263 1.58644 0
M  V30 14919 H 1466.21 -3.96108 1.28403 0
M  V30 14920 H 1468.81 -5.2104 -1.20091 0
M  V30 14921 H 1469.15 -3.67408 -1.95748 0
M  V30 14922 H 1469.68 -3.96783 -0.284295 0
M  V30 14923 H 1466.42 -6.38317 1.49102 0
M  V30 14924 H 1465.94 -5.99539 -0.177082 0
M  V30 14925 H 1467.62 -6.46738 0.18419 0
M  V30 14926 N 1467.75 -0.0969077 -1.57302 0
M  V30 14927 C 1468.98 0.574705 -1.98758 0
M  V30 14928 C 1469.4 1.61612 -0.976067 0
M  V30 14929 O 1468.75 1.82468 0.0340803 0
M  V30 14930 C 1468.8 1.22078 -3.40263 0
M  V30 14931 O 1468.53 0.221022 -4.37542 0
M  V30 14932 C 1470.03 1.97783 -3.96732 0
M  V30 14933 H 1467.25 0.153934 -0.653104 0
M  V30 14934 H 1469.79 -0.17673 -2.03735 0
M  V30 14935 H 1467.95 1.92314 -3.36295 0
M  V30 14936 H 1468.36 0.687583 -5.19974 0
M  V30 14937 H 1469.83 2.38346 -4.97891 0
M  V30 14938 H 1470.31 2.8444 -3.3465 0
M  V30 14939 H 1470.92 1.3236 -4.04179 0
M  V30 14940 N 1469.23 1.56605 0.176793 0
M  V30 14941 C 1470.16 1.99014 1.2213 0
M  V30 14942 C 1471.14 0.86487 1.46472 0
M  V30 14943 O 1472.33 1.13055 1.57899 0
M  V30 14944 C 1469.46 2.34534 2.56146 0
M  V30 14945 C 1468.41 3.4997 2.46384 0
M  V30 14946 C 1467.74 3.71217 3.8484 0
M  V30 14947 C 1469.04 4.83592 1.97323 0
M  V30 14948 H 1470.73 2.86517 0.8688 0
M  V30 14949 H 1468.28 1.37846 0.416481 0
M  V30 14950 H 1470.23 2.62799 3.29416 0
M  V30 14951 H 1468.95 1.43933 2.93174 0
M  V30 14952 H 1467.61 3.21824 1.75569 0
M  V30 14953 H 1467.26 2.77916 4.19251 0
M  V30 14954 H 1466.96 4.48885 3.79178 0
M  V30 14955 H 1468.49 4.01877 4.59704 0
M  V30 14956 H 1469.9 5.10768 2.60363 0
M  V30 14957 H 1468.3 5.64858 2.02622 0
M  V30 14958 H 1469.37 4.75951 0.927275 0
M  V30 14959 N 1470.71 -0.445159 1.51182 0
M  V30 14960 C 1471.67 -1.52224 1.71349 0
M  V30 14961 C 1472.67 -1.49834 0.583632 0
M  V30 14962 O 1473.86 -1.51995 0.85107 0
M  V30 14963 C 1470.99 -2.91789 1.76273 0
M  V30 14964 H 1472.19 -1.35649 2.67468 0
M  V30 14965 H 1469.74 -0.673312 1.41054 0
M  V30 14966 H 1470.48 -3.13777 0.819405 0
M  V30 14967 H 1470.26 -2.94928 2.58379 0
M  V30 14968 H 1471.75 -3.69938 1.93741 0
M  V30 14969 N 1472.19 -1.41197 -0.700089 0
M  V30 14970 C 1473.44 -1.40034 -1.45722 0
M  V30 14971 C 1473.76 -0.00876281 -1.94998 0
M  V30 14972 O 1473.03 0.948647 -1.71399 0
M  V30 14973 H 1471.61 -0.515433 -0.540683 0
M  V30 14974 H 1474.27 -1.76394 -0.828926 0
M  V30 14975 H 1473.36 -2.08477 -2.32258 0
M  V30 14976 N 1473.67 0.933891 -1.2695 0
M  V30 14977 C 1474.62 2.01966 -1.05801 0
M  V30 14978 C 1475.6 1.60896 0.0119868 0
M  V30 14979 O 1476.79 1.75799 -0.205827 0
M  V30 14980 C 1473.92 3.36073 -0.700695 0
M  V30 14981 C 1473.01 3.83606 -1.80852 0
M  V30 14982 N 1473.4 4.03713 -3.04712 0
M  V30 14983 C 1471.7 4.12586 -1.69378 0
M  V30 14984 C 1472.4 4.43199 -3.76762 0
M  V30 14985 N 1471.37 4.50319 -3.0449 0
M  V30 14986 H 1475.17 2.15534 -1.99806 0
M  V30 14987 H 1472.69 1.12027 -1.17574 0
M  V30 14988 H 1474.69 4.13513 -0.530316 0
M  V30 14989 H 1473.35 3.23872 0.231801 0
M  V30 14990 H 1474.36 3.90196 -3.4054 0
M  V30 14991 H 1471.03 4.09132 -0.831695 0
M  V30 14992 H 1472.42 4.66887 -4.83184 0
M  V30 14993 N 1475.14 1.08871 1.13951 0
M  V30 14994 C 1476.08 0.680849 2.18854 0
M  V30 14995 C 1477.09 -0.274456 1.6047 0
M  V30 14996 O 1478.28 -0.0613804 1.78394 0
M  V30 14997 C 1475.38 -0.0182788 3.38895 0
M  V30 14998 C 1474.55 0.957125 4.268 0
M  V30 14999 C 1473.61 0.29245 5.25387 0
M  V30 15000 O 1472.64 0.938329 5.61413 0
M  V30 15001 N 1473.84 -0.955738 5.72578 0
M  V30 15002 H 1476.6 1.58334 2.54461 0
M  V30 15003 H 1474.16 0.975417 1.29218 0
M  V30 15004 H 1476.16 -0.474001 4.01915 0
M  V30 15005 H 1474.73 -0.822932 3.01574 0
M  V30 15006 H 1473.95 1.59156 3.60642 0
M  V30 15007 H 1475.23 1.61792 4.82391 0
M  V30 15008 H 1474.63 -1.50014 5.45447 0
M  V30 15009 H 1473.19 -1.35488 6.37563 0
M  V30 15010 N 1476.62 -1.31073 0.875073 0
M  V30 15011 C 1477.57 -2.28389 0.332718 0
M  V30 15012 C 1478.54 -1.55954 -0.571639 0
M  V30 15013 O 1479.72 -1.84073 -0.502185 0
M  V30 15014 C 1476.86 -3.42083 -0.455364 0
M  V30 15015 C 1475.98 -4.29358 0.477088 0
M  V30 15016 C 1475.11 -5.30201 -0.325619 0
M  V30 15017 C 1474.15 -6.09123 0.602935 0
M  V30 15018 N 1473.29 -7.01909 -0.163836 0
M  V30 15019 H 1478.13 -2.74166 1.16777 0
M  V30 15020 H 1475.66 -1.3487 0.587248 0
M  V30 15021 H 1477.62 -4.06746 -0.928104 0
M  V30 15022 H 1476.25 -2.97402 -1.25507 0
M  V30 15023 H 1475.3 -3.65091 1.06829 0
M  V30 15024 H 1476.62 -4.84425 1.18887 0
M  V30 15025 H 1475.77 -6.00565 -0.860647 0
M  V30 15026 H 1474.51 -4.75802 -1.07067 0
M  V30 15027 H 1473.51 -5.37645 1.14968 0
M  V30 15028 H 1474.74 -6.65609 1.34692 0
M  V30 15029 H 1472.69 -6.49913 -0.891604 0
M  V30 15030 H 1472.6 -7.5442 0.48851 0
M  V30 15031 H 1473.87 -7.76529 -0.679929 0
M  V30 15032 N 1478.1 -0.635022 -1.4424 0
M  V30 15033 C 1479.05 0.0675707 -2.30701 0
M  V30 15034 C 1480.02 0.832919 -1.43707 0
M  V30 15035 O 1481.2 0.813177 -1.72604 0
M  V30 15036 C 1478.34 1.04053 -3.2904 0
M  V30 15037 C 1477.46 0.273191 -4.31135 0
M  V30 15038 C 1476.59 1.23831 -5.16565 0
M  V30 15039 C 1475.63 0.460359 -6.10366 0
M  V30 15040 N 1474.77 1.37614 -6.88481 0
M  V30 15041 H 1479.61 -0.675656 -2.90239 0
M  V30 15042 H 1477.14 -0.344971 -1.42998 0
M  V30 15043 H 1479.1 1.61805 -3.84545 0
M  V30 15044 H 1477.73 1.75084 -2.71193 0
M  V30 15045 H 1476.78 -0.420315 -3.78071 0
M  V30 15046 H 1478.1 -0.332548 -4.9769 0
M  V30 15047 H 1477.25 1.88704 -5.76607 0
M  V30 15048 H 1475.99 1.87797 -4.50093 0
M  V30 15049 H 1474.99 -0.201836 -5.49429 0
M  V30 15050 H 1476.22 -0.174639 -6.78875 0
M  V30 15051 H 1474.16 2.00294 -6.24675 0
M  V30 15052 H 1474.08 0.82452 -7.5149 0
M  V30 15053 H 1475.35 2.01359 -7.53044 0
M  V30 15054 N 1479.58 1.53054 -0.375806 0
M  V30 15055 C 1480.51 2.28973 0.45754 0
M  V30 15056 C 1481.49 1.31812 1.07516 0
M  V30 15057 O 1482.67 1.60693 1.09048 0
M  V30 15058 C 1479.8 3.08657 1.59212 0
M  V30 15059 C 1478.76 4.1359 1.10123 0
M  V30 15060 C 1478.08 4.81417 2.32684 0
M  V30 15061 C 1479.38 5.21994 0.17872 0
M  V30 15062 H 1481.08 2.98883 -0.175872 0
M  V30 15063 H 1478.62 1.43743 -0.0860253 0
M  V30 15064 H 1480.58 3.6052 2.18182 0
M  V30 15065 H 1479.3 2.36456 2.25291 0
M  V30 15066 H 1477.96 3.62688 0.534151 0
M  V30 15067 H 1477.61 4.05778 2.97243 0
M  V30 15068 H 1477.31 5.52332 2.00506 0
M  V30 15069 H 1478.83 5.36079 2.92322 0
M  V30 15070 H 1480.25 5.69298 0.676204 0
M  V30 15071 H 1478.64 6.00077 -0.0526605 0
M  V30 15072 H 1479.71 4.78646 -0.776246 0
M  V30 15073 N 1481.06 0.105248 1.57248 0
M  V30 15074 C 1481.99 -0.846915 2.176 0
M  V30 15075 C 1482.97 -1.28706 1.11216 0
M  V30 15076 O 1484.15 -1.35213 1.39396 0
M  V30 15077 C 1481.28 -2.10228 2.76445 0
M  V30 15078 C 1480.24 -1.80041 3.8829 0
M  V30 15079 C 1479.56 -3.12491 4.33882 0
M  V30 15080 C 1480.86 -1.07943 5.11024 0
M  V30 15081 H 1482.56 -0.344052 2.97417 0
M  V30 15082 H 1480.1 -0.164045 1.43063 0
M  V30 15083 H 1482.06 -2.77284 3.17319 0
M  V30 15084 H 1480.78 -2.62815 1.93897 0
M  V30 15085 H 1479.44 -1.15379 3.4797 0
M  V30 15086 H 1479.09 -3.62985 3.48211 0
M  V30 15087 H 1478.79 -2.93072 5.09296 0
M  V30 15088 H 1480.31 -3.80688 4.77398 0
M  V30 15089 H 1481.72 -1.65127 5.49004 0
M  V30 15090 H 1480.12 -0.986674 5.91933 0
M  V30 15091 H 1481.19 -0.0638511 4.84858 0
M  V30 15092 N 1482.53 -1.56697 -0.168486 0
M  V30 15093 C 1483.48 -1.93039 -1.21325 0
M  V30 15094 C 1484.47 -0.799039 -1.39657 0
M  V30 15095 O 1485.66 -1.06226 -1.41581 0
M  V30 15096 C 1482.79 -2.29622 -2.55203 0
M  V30 15097 C 1481.88 -3.49278 -2.40553 0
M  V30 15098 N 1482.27 -4.6644 -1.95622 0
M  V30 15099 C 1480.56 -3.53941 -2.71371 0
M  V30 15100 C 1481.27 -5.48572 -1.93502 0
M  V30 15101 N 1480.24 -4.89693 -2.36012 0
M  V30 15102 H 1484.04 -2.81109 -0.857611 0
M  V30 15103 H 1481.56 -1.5797 -0.376734 0
M  V30 15104 H 1483.55 -2.53854 -3.30702 0
M  V30 15105 H 1482.21 -1.42893 -2.91568 0
M  V30 15106 H 1483.23 -4.90604 -1.65916 0
M  V30 15107 H 1479.9 -2.77697 -3.11754 0
M  V30 15108 H 1481.29 -6.52464 -1.60438 0
M  V30 15109 N 1484.01 0.437135 -1.51416 0
M  V30 15110 C 1484.96 1.52903 -1.69129 0
M  V30 15111 C 1485.95 1.51379 -0.54528 0
M  V30 15112 O 1487.14 1.57828 -0.8012 0
M  V30 15113 C 1484.27 2.91092 -1.8199 0
M  V30 15114 C 1483.35 2.97372 -3.02375 0
M  V30 15115 N 1483.74 2.73395 -4.25545 0
M  V30 15116 C 1482.04 3.28532 -3.01634 0
M  V30 15117 C 1482.74 2.85523 -5.06805 0
M  V30 15118 N 1481.72 3.17201 -4.41457 0
M  V30 15119 H 1485.52 1.33118 -2.62025 0
M  V30 15120 H 1483.04 0.644444 -1.49066 0
M  V30 15121 H 1485.03 3.69645 -1.9279 0
M  V30 15122 H 1483.69 3.11898 -0.902757 0
M  V30 15123 H 1484.7 2.4832 -4.54486 0
M  V30 15124 H 1481.38 3.5511 -2.19552 0
M  V30 15125 H 1482.77 2.70938 -6.14852 0
M  V30 15126 N 1485.49 1.41566 0.692592 0
M  V30 15127 C 1486.74 1.40381 1.44831 0
M  V30 15128 C 1487.05 0.0172068 1.95592 0
M  V30 15129 O 1488.26 -0.11726 2.71247 0
M  V30 15130 C 1486.71 2.46844 2.61908 0
M  V30 15131 C 1486.32 3.91426 2.17921 0
M  V30 15132 C 1488.07 2.548 3.39525 0
M  V30 15133 C 1485.97 4.89436 3.31974 0
M  V30 15134 H 1484.9 0.522062 0.544028 0
M  V30 15135 H 1487.55 1.67402 0.751589 0
M  V30 15136 H 1485.94 2.12959 3.33863 0
M  V30 15137 H 1487.11 4.34575 1.53236 0
M  V30 15138 H 1485.43 3.87158 1.5329 0
M  V30 15139 H 1488.02 3.25207 4.24434 0
M  V30 15140 H 1488.37 1.58579 3.84913 0
M  V30 15141 H 1488.9 2.87791 2.74629 0
M  V30 15142 H 1485.64 5.87071 2.91595 0
M  V30 15143 H 1485.16 4.50933 3.95499 0
M  V30 15144 H 1486.84 5.10331 3.97708 0
M  V30 15145 N 1486.97 -0.927146 1.27443 0
M  V30 15146 C 1487.9 -2.03209 1.06013 0
M  V30 15147 C 1488.91 -1.62792 0.016041 0
M  V30 15148 O 1490.1 -1.76631 0.25766 0
M  V30 15149 C 1487.2 -3.33791 0.586225 0
M  V30 15150 C 1486.38 -4.02897 1.70273 0
M  V30 15151 C 1485.43 -5.11755 1.22447 0
M  V30 15152 O 1484.46 -5.35688 1.92423 0
M  V30 15153 N 1485.66 -5.80444 0.0804162 0
M  V30 15154 H 1488.43 -2.22155 2.01165 0
M  V30 15155 H 1485.99 -1.09757 1.19017 0
M  V30 15156 H 1487.98 -4.03926 0.250161 0
M  V30 15157 H 1486.55 -3.11414 -0.272076 0
M  V30 15158 H 1485.77 -3.26489 2.20905 0
M  V30 15159 H 1487.06 -4.45816 2.45205 0
M  V30 15160 H 1486.46 -5.63454 -0.503635 0
M  V30 15161 H 1485.01 -6.51504 -0.196466 0
M  V30 15162 N 1488.45 -1.09474 -1.13372 0
M  V30 15163 C 1489.38 -0.756441 -2.20908 0
M  V30 15164 C 1490.36 0.266113 -1.68006 0
M  V30 15165 O 1491.54 0.134067 -1.93737 0
M  V30 15166 C 1488.67 -0.176733 -3.4685 0
M  V30 15167 C 1487.63 -1.12886 -4.12845 0
M  V30 15168 C 1486.95 -0.410831 -5.33119 0
M  V30 15169 C 1488.25 -2.47148 -4.60125 0
M  V30 15170 H 1489.95 -1.65555 -2.49463 0
M  V30 15171 H 1487.49 -0.797458 -1.19902 0
M  V30 15172 H 1489.45 0.0720151 -4.21338 0
M  V30 15173 H 1488.17 0.757576 -3.17692 0
M  V30 15174 H 1486.83 -1.36289 -3.40325 0
M  V30 15175 H 1486.48 0.527632 -5.00225 0
M  V30 15176 H 1486.18 -1.04567 -5.78221 0
M  V30 15177 H 1487.7 -0.170394 -6.10362 0
M  V30 15178 H 1489.11 -2.27949 -5.26034 0
M  V30 15179 H 1487.51 -3.06425 -5.15969 0
M  V30 15180 H 1488.58 -3.07874 -3.74622 0
M  V30 15181 N 1489.92 1.30607 -0.882012 0
M  V30 15182 C 1490.85 2.30666 -0.362706 0
M  V30 15183 C 1491.84 1.60865 0.552861 0
M  V30 15184 O 1493.02 1.88493 0.467339 0
M  V30 15185 C 1490.15 3.44675 0.42622 0
M  V30 15186 C 1489.1 4.26152 -0.397322 0
M  V30 15187 C 1488.43 5.32185 0.518027 0
M  V30 15188 C 1489.73 4.95955 -1.63785 0
M  V30 15189 H 1491.42 2.74351 -1.19883 0
M  V30 15190 H 1488.97 1.31895 -0.577912 0
M  V30 15191 H 1490.92 4.13734 0.80013 0
M  V30 15192 H 1489.65 2.99787 1.29597 0
M  V30 15193 H 1488.31 3.58776 -0.753332 0
M  V30 15194 H 1487.95 4.83545 1.3854 0
M  V30 15195 H 1487.65 5.87593 -0.0291802 0
M  V30 15196 H 1489.18 6.04101 0.888518 0
M  V30 15197 H 1490.59 5.57547 -1.3347 0
M  V30 15198 H 1488.99 5.61215 -2.12504 0
M  V30 15199 H 1490.06 4.22252 -2.38394 0
M  V30 15200 N 1491.4 0.642663 1.43901 0
M  V30 15201 C 1492.33 -0.0938945 2.29008 0
M  V30 15202 C 1493.35 -0.797561 1.41925 0
M  V30 15203 O 1494.54 -0.65708 1.65966 0
M  V30 15204 C 1491.64 -1.15564 3.18588 0
M  V30 15205 C 1490.81 -0.532208 4.3415 0
M  V30 15206 C 1489.87 -1.48943 5.0468 0
M  V30 15207 O 1488.89 -1.00211 5.60309 0
M  V30 15208 N 1490.1 -2.82362 5.072 0
M  V30 15209 H 1492.86 0.636539 2.92862 0
M  V30 15210 H 1490.42 0.484665 1.54475 0
M  V30 15211 H 1492.41 -1.79658 3.62636 0
M  V30 15212 H 1490.98 -1.78816 2.56405 0
M  V30 15213 H 1490.2 0.287598 3.93149 0
M  V30 15214 H 1491.49 -0.0965526 5.08708 0
M  V30 15215 H 1490.89 -3.24524 4.63358 0
M  V30 15216 H 1489.45 -3.41786 5.55001 0
M  V30 15217 N 1492.88 -1.52852 0.383918 0
M  V30 15218 C 1493.81 -2.23927 -0.488816 0
M  V30 15219 C 1494.83 -1.2598 -1.03115 0
M  V30 15220 O 1496.02 -1.5209 -0.934398 0
M  V30 15221 C 1493.12 -2.9378 -1.68957 0
M  V30 15222 C 1492.29 -4.18388 -1.27555 0
M  V30 15223 C 1491.35 -4.71287 -2.3404 0
M  V30 15224 O 1490.37 -5.34511 -1.9567 0
M  V30 15225 N 1491.58 -4.50679 -3.65881 0
M  V30 15226 H 1494.34 -2.99459 0.120084 0
M  V30 15227 H 1491.9 -1.60532 0.210004 0
M  V30 15228 H 1493.89 -3.26071 -2.39707 0
M  V30 15229 H 1492.46 -2.21588 -2.20493 0
M  V30 15230 H 1491.68 -3.92194 -0.397157 0
M  V30 15231 H 1492.97 -4.99361 -0.975506 0
M  V30 15232 H 1492.37 -4.00201 -3.9982 0
M  V30 15233 H 1490.93 -4.87473 -4.32681 0
M  V30 15234 N 1494.36 -0.113586 -1.5719 0
M  V30 15235 C 1495.31 0.849646 -2.11577 0
M  V30 15236 C 1496.29 1.23174 -1.03523 0
M  V30 15237 O 1497.49 1.20373 -1.29766 0
M  V30 15238 C 1494.61 2.10175 -2.71443 0
M  V30 15239 C 1493.7 1.74427 -3.8657 0
M  V30 15240 N 1494.09 1.09326 -4.93843 0
M  V30 15241 C 1492.39 2.03919 -3.96652 0
M  V30 15242 C 1493.09 0.925979 -5.74283 0
M  V30 15243 N 1492.07 1.44924 -5.23925 0
M  V30 15244 H 1495.87 0.342685 -2.91895 0
M  V30 15245 H 1493.38 0.0890561 -1.62156 0
M  V30 15246 H 1495.38 2.80144 -3.08747 0
M  V30 15247 H 1494.04 2.6142 -1.92587 0
M  V30 15248 H 1495.05 0.757883 -5.12325 0
M  V30 15249 H 1491.73 2.57249 -3.2883 0
M  V30 15250 H 1493.12 0.415406 -6.70615 0
M  V30 15251 N 1495.84 1.56784 0.160173 0
M  V30 15252 C 1496.77 2.00298 1.20012 0
M  V30 15253 C 1497.75 0.880356 1.45546 0
M  V30 15254 O 1498.93 1.14724 1.56691 0
M  V30 15255 C 1496.06 2.37238 2.53645 0
M  V30 15256 C 1495.02 3.52563 2.42658 0
M  V30 15257 C 1494.34 3.75278 3.80881 0
M  V30 15258 C 1495.64 4.85657 1.92183 0
M  V30 15259 H 1497.34 2.87423 0.838362 0
M  V30 15260 H 1494.88 1.3828 0.401838 0
M  V30 15261 H 1496.84 2.66278 3.2661 0
M  V30 15262 H 1495.56 1.47035 2.9163 0
M  V30 15263 H 1494.22 3.23669 1.72146 0
M  V30 15264 H 1493.87 2.82347 4.1628 0
M  V30 15265 H 1493.57 4.52882 3.74396 0
M  V30 15266 H 1495.09 4.0673 4.55415 0
M  V30 15267 H 1496.51 5.13501 2.54931 0
M  V30 15268 H 1494.9 5.66975 1.96619 0
M  V30 15269 H 1495.97 4.76908 0.876742 0
M  V30 15270 N 1497.32 -0.429099 1.51646 0
M  V30 15271 C 1498.73 -0.766217 1.40005 0
M  V30 15272 C 1498.93 -1.95481 0.488837 0
M  V30 15273 O 1497.99 -2.52445 -0.0529101 0
M  V30 15274 C 1499.3 -1.03886 2.82185 0
M  V30 15275 C 1500.85 -1.1428 2.91392 0
M  V30 15276 C 1501.32 -1.44833 4.34497 0
M  V30 15277 N 1502.81 -1.5174 4.37641 0
M  V30 15278 C 1503.55 -1.76968 5.45408 0
M  V30 15279 N 1503.05 -1.99934 6.63324 0
M  V30 15280 N 1504.84 -1.78819 5.32898 0
M  V30 15281 H 1496.99 0.35358 2.09436 0
M  V30 15282 H 1499.25 0.0958189 0.943145 0
M  V30 15283 H 1498.96 -0.238103 3.50893 0
M  V30 15284 H 1498.83 -1.96434 3.22015 0
M  V30 15285 H 1501.22 -1.93418 2.22876 0
M  V30 15286 H 1501.3 -0.19614 2.55047 0
M  V30 15287 H 1500.94 -0.662201 5.03565 0
M  V30 15288 H 1500.87 -2.40718 4.68361 0
M  V30 15289 H 1503.37 -1.35862 3.52633 0
M  V30 15290 H 1503.68 -2.18578 7.41245 0
M  V30 15291 H 1502.02 -1.97239 6.66425 0
M  V30 15292 H 1505.21 -1.60402 4.3976 0
M  V30 15293 H 1505.39 -1.98142 6.16963 0
M  V30 15294 N 1498.79 -1.41931 -0.685074 0
M  V30 15295 C 1499.73 -1.40545 -1.81052 0
M  V30 15296 C 1500.74 -0.306024 -1.59898 0
M  V30 15297 O 1501.93 -0.568444 -1.69207 0
M  V30 15298 C 1499.03 -1.17194 -3.17992 0
M  V30 15299 C 1498.2 -2.39376 -3.66084 0
M  V30 15300 C 1497.26 -2.11725 -4.81725 0
M  V30 15301 O 1496.29 -2.84847 -4.92799 0
M  V30 15302 N 1497.49 -1.11399 -5.69711 0
M  V30 15303 H 1500.25 -2.37549 -1.8273 0
M  V30 15304 H 1497.81 -1.36679 -0.86779 0
M  V30 15305 H 1499.81 -0.966307 -3.92994 0
M  V30 15306 H 1498.38 -0.287499 -3.11275 0
M  V30 15307 H 1497.6 -2.75575 -2.81873 0
M  V30 15308 H 1498.88 -3.2076 -3.94956 0
M  V30 15309 H 1498.28 -0.509008 -5.63405 0
M  V30 15310 H 1496.84 -0.968239 -6.44568 0
M  V30 15311 N 1500.27 0.920374 -1.27933 0
M  V30 15312 C 1501.2 2.02644 -1.07089 0
M  V30 15313 C 1502.22 1.62781 -0.024674 0
M  V30 15314 O 1503.41 1.76491 -0.267023 0
M  V30 15315 C 1500.51 3.33476 -0.603919 0
M  V30 15316 C 1499.68 4.01988 -1.72407 0
M  V30 15317 C 1498.74 5.11098 -1.25159 0
M  V30 15318 O 1497.76 5.3466 -1.95261 0
M  V30 15319 N 1498.97 5.80393 -0.111197 0
M  V30 15320 H 1501.73 2.21085 -2.0234 0
M  V30 15321 H 1499.29 1.09124 -1.19597 0
M  V30 15322 H 1501.28 4.03788 -0.271579 0
M  V30 15323 H 1499.85 3.11554 0.255557 0
M  V30 15324 H 1499.07 3.25312 -2.22633 0
M  V30 15325 H 1500.36 4.4451 -2.47566 0
M  V30 15326 H 1499.76 5.63713 0.473746 0
M  V30 15327 H 1498.32 6.51599 0.161912 0
M  V30 15328 N 1501.75 1.10074 1.1279 0
M  V30 15329 C 1503 0.839212 1.83852 0
M  V30 15330 C 1503.32 -0.637023 1.84301 0
M  V30 15331 O 1502.59 -1.46239 1.30349 0
M  V30 15332 H 1501.17 0.307468 0.680788 0
M  V30 15333 H 1503.83 1.39025 1.36595 0
M  V30 15334 H 1502.93 1.19872 2.88162 0
M  V30 15335 N 1503.23 -1.30138 0.888926 0
M  V30 15336 C 1504.45 -2.00679 0.523697 0
M  V30 15337 C 1504.88 -1.66167 -0.881479 0
M  V30 15338 O 1504.24 -0.880418 -1.58488 0
M  V30 15339 C 1504.28 -3.53535 0.710284 0
M  V30 15340 O 1503.39 -4.11689 -0.242066 0
M  V30 15341 H 1502.73 -0.631273 0.205888 0
M  V30 15342 H 1505.26 -1.65891 1.19756 0
M  V30 15343 H 1505.27 -4.03402 0.610794 0
M  V30 15344 H 1503.94 -3.77992 1.73478 0
M  V30 15345 H 1502.52 -3.72777 -0.0959393 0
M  V30 15346 N 1504.71 -0.650285 -1.43559 0
M  V30 15347 C 1505.95 -0.162725 -2.02146 0
M  V30 15348 C 1506.28 1.21911 -1.51166 0
M  V30 15349 O 1505.56 1.81329 -0.703563 0
M  V30 15350 C 1505.84 -0.170356 -3.59697 0
M  V30 15351 C 1505.7 -1.5859 -4.20915 0
M  V30 15352 C 1507.01 0.494831 -4.37309 0
M  V30 15353 H 1504.13 -0.0606055 -0.734504 0
M  V30 15354 H 1506.78 -0.830411 -1.70892 0
M  V30 15355 H 1504.93 0.39819 -3.86454 0
M  V30 15356 H 1506.6 -2.20481 -4.05199 0
M  V30 15357 H 1504.84 -2.13407 -3.77677 0
M  V30 15358 H 1505.51 -1.54312 -5.29992 0
M  V30 15359 H 1507.99 0.0111281 -4.16099 0
M  V30 15360 H 1506.86 0.458753 -5.4698 0
M  V30 15361 H 1507.12 1.56846 -4.13342 0
M  V30 15362 N 1506.18 1.52647 -0.392018 0
M  V30 15363 C 1507.09 2.30261 0.449093 0
M  V30 15364 C 1508.11 1.37286 1.06905 0
M  V30 15365 O 1509.29 1.70357 1.07427 0
M  V30 15366 C 1506.35 3.09636 1.55969 0
M  V30 15367 C 1505.41 4.18324 0.964566 0
M  V30 15368 C 1504.64 4.93904 2.02224 0
M  V30 15369 O 1504.87 4.69603 3.23773 0
M  V30 15370 O 1503.8 5.79183 1.63802 0
M  V30 15371 H 1507.63 3.03147 -0.183269 0
M  V30 15372 H 1505.21 1.48587 -0.155664 0
M  V30 15373 H 1507.09 3.59118 2.20482 0
M  V30 15374 H 1505.77 2.39561 2.17697 0
M  V30 15375 H 1504.68 3.73031 0.282618 0
M  V30 15376 H 1506.01 4.90641 0.391466 0
M  V30 15377 N 1507.66 0.121921 1.57128 0
M  V30 15378 C 1508.91 -0.536164 1.95584 0
M  V30 15379 C 1509.24 -1.66143 1.0055 0
M  V30 15380 O 1508.52 -1.94452 0.0432427 0
M  V30 15381 C 1508.8 -1.0661 3.43957 0
M  V30 15382 C 1508.65 0.0559458 4.49765 0
M  V30 15383 C 1509.97 -1.95603 3.94243 0
M  V30 15384 H 1507.09 -0.193427 0.711165 0
M  V30 15385 H 1509.73 0.198072 1.88965 0
M  V30 15386 H 1507.88 -1.69181 3.49729 0
M  V30 15387 H 1509.55 0.691357 4.5609 0
M  V30 15388 H 1507.8 0.71868 4.27805 0
M  V30 15389 H 1508.47 -0.356133 5.5085 0
M  V30 15390 H 1510.94 -1.42899 3.90793 0
M  V30 15391 H 1509.82 -2.29599 4.98573 0
M  V30 15392 H 1510.08 -2.88364 3.3511 0
M  V30 15393 O 1509.18 -1.61491 -0.0173858 0
M  V30 15394 H 1509.87 -1.82947 -0.636397 0
M  V30 END ATOM
M  V30 BEGIN BOND
M  V30 END BOND
M  V30 END CTAB
M  END
$$$$
