drugbank_target|O15123 Angiopoietin-2 (DB15303)
 OpenBabel12092121283D

  0  0  0     0  0            999 V3000
M  V30 BEGIN CTAB
M  V30 COUNTS 7891 7964 0 0 0
M  V30 BEGIN ATOM
M  V30 1 H -0.908 1.98254 -0.117106 0
M  V30 2 N 0 1.576 0 0
M  V30 3 C 0.933 2.03868 1.02534 0
M  V30 4 C 1.911 0.928543 1.3348 0
M  V30 5 O 3.095 1.19667 1.45644 0
M  V30 6 C 0.222 2.43627 2.35294 0
M  V30 7 C -0.732 3.65373 2.2001 0
M  V30 8 S 0.101 5.13292 1.52614 0
M  V30 9 C 1.257 5.56322 2.86805 0
M  V30 10 H 1.49 2.90518 0.631377 0
M  V30 11 H -0.977 1.52953 0.210867 0
M  V30 12 H 0.981 2.67203 3.11629 0
M  V30 13 H -0.358 1.57376 2.7183 0
M  V30 14 H -1.165 3.90944 3.18086 0
M  V30 15 H -1.563 3.418 1.51819 0
M  V30 16 H 0.729 5.58782 3.83104 0
M  V30 17 H 1.672 6.56266 2.65933 0
M  V30 18 H 2.08 4.83886 2.90714 0
M  V30 19 N 1.4781 -0.272755 1.55222 0
M  V30 20 C 2.7241 -1.00172 1.77023 0
M  V30 21 C 3.0791 -1.83928 0.564633 0
M  V30 22 O 2.3721 -1.86416 -0.442674 0
M  V30 23 C 2.5661 -1.91642 3.01675 0
M  V30 24 C 2.3951 -1.16888 4.34243 0
M  V30 25 C 1.1651 -0.884464 4.97499 0
M  V30 26 C 3.3631 -0.55919 5.11251 0
M  V30 27 N 1.3451 -0.11015 6.13801 0
M  V30 28 C 2.7161 0.0809469 6.19947 0
M  V30 29 C 4.7711 -0.467058 4.95705 0
M  V30 30 C 3.4741 0.804335 7.14789 0
M  V30 31 C 5.5001 0.242739 5.90902 0
M  V30 32 C 4.8621 0.871613 6.98987 0
M  V30 33 H 0.9611 -0.348529 0.700037 0
M  V30 34 H 3.5451 -0.277365 1.92714 0
M  V30 35 H 1.7161 -2.61303 2.87359 0
M  V30 36 H 3.4481 -2.57901 3.1188 0
M  V30 37 H 0.2031 -1.18979 4.58411 0
M  V30 38 H 0.6271 0.264344 6.76484 0
M  V30 39 H 5.2691 -0.93894 4.12242 0
M  V30 40 H 2.9871 1.2879 7.97771 0
M  V30 41 H 6.5731 0.314347 5.8095 0
M  V30 42 H 5.4531 1.4121 7.71381 0
M  V30 43 N 2.9562 -1.48159 -0.537278 0
M  V30 44 C 3.8882 -1.58218 -1.65831 0
M  V30 45 C 4.9012 -0.466948 -1.5596 0
M  V30 46 O 6.0902 -0.73747 -1.62553 0
M  V30 47 C 3.1902 -1.48906 -3.04434 0
M  V30 48 C 2.3632 -2.75343 -3.3986 0
M  V30 49 C 1.4222 -2.59588 -4.57712 0
M  V30 50 O 0.4482 -3.33457 -4.61297 0
M  V30 51 N 1.6502 -1.68724 -5.55439 0
M  V30 52 H 4.4152 -2.54891 -1.57641 0
M  V30 53 H 1.9762 -1.4479 -0.724386 0
M  V30 54 H 3.9682 -1.36072 -3.81139 0
M  V30 55 H 2.5382 -0.602368 -3.06741 0
M  V30 56 H 1.7582 -3.02795 -2.52406 0
M  V30 57 H 3.0462 -3.5924 -3.60311 0
M  V30 58 H 2.4442 -1.07898 -5.55315 0
M  V30 59 H 1.0012 -1.61832 -6.3139 0
M  V30 60 N 4.4343 0.785586 -1.36625 0
M  V30 61 C 5.6833 1.53883 -1.30396 0
M  V30 62 C 5.9963 1.95271 0.113452 0
M  V30 63 O 7.2023 2.69858 0.298142 0
M  V30 64 C 5.6583 2.77808 -2.28802 0
M  V30 65 C 5.2663 2.43574 -3.75999 0
M  V30 66 C 7.0103 3.55783 -2.31558 0
M  V30 67 C 4.9173 3.63919 -4.66173 0
M  V30 68 H 3.8473 0.577678 -0.484566 0
M  V30 69 H 6.4983 0.861705 -1.62009 0
M  V30 70 H 4.8803 3.47339 -1.90188 0
M  V30 71 H 6.0543 1.81916 -4.23371 0
M  V30 72 H 4.3693 1.78803 -3.76056 0
M  V30 73 H 6.9663 4.45205 -2.96137 0
M  V30 74 H 7.3093 3.94644 -1.3252 0
M  V30 75 H 7.8423 2.93235 -2.68809 0
M  V30 76 H 4.5813 3.3015 -5.66287 0
M  V30 77 H 4.1013 4.2473 -4.23515 0
M  V30 78 H 5.7803 4.30901 -4.82632 0
M  V30 79 N 5.9124 1.20967 1.01018 0
M  V30 80 C 7.1584 1.02526 1.74975 0
M  V30 81 C 7.4914 -0.4408 1.89131 0
M  V30 82 O 6.7664 -1.32718 1.42184 0
M  V30 83 C 7.0494 1.71699 3.1653 0
M  V30 84 C 6.9024 3.25791 3.10129 0
M  V30 85 C 8.2214 1.45531 4.15342 0
M  V30 86 H 5.3404 0.373863 0.635134 0
M  V30 87 H 7.9824 1.49071 1.17805 0
M  V30 88 H 6.1324 1.32128 3.65341 0
M  V30 89 H 7.8044 3.74697 2.69072 0
M  V30 90 H 6.0474 3.56363 2.47362 0
M  V30 91 H 6.7184 3.69353 4.10222 0
M  V30 92 H 9.1944 1.79872 3.75213 0
M  V30 93 H 8.0704 1.96453 5.1254 0
M  V30 94 H 8.3314 0.384237 4.40427 0
M  V30 95 N 7.3905 -1.2043 1.01659 0
M  V30 96 C 8.6375 -1.89797 0.705917 0
M  V30 97 C 8.9655 -1.78848 -0.764439 0
M  V30 98 O 8.2205 -1.16694 -1.57102 0
M  V30 99 C 8.5195 -3.40464 1.08714 0
M  V30 100 C 8.1855 -3.71614 2.5537 0
M  V30 101 C 6.8475 -3.79826 2.95441 0
M  V30 102 C 9.1995 -3.85915 3.50313 0
M  V30 103 C 6.5275 -3.99797 4.29394 0
M  V30 104 C 8.8795 -4.07396 4.83954 0
M  V30 105 C 7.5435 -4.13837 5.23732 0
M  V30 106 H 6.8135 -0.694518 0.258313 0
M  V30 107 H 9.4605 -1.42691 1.27717 0
M  V30 108 H 7.7655 -3.89385 0.434309 0
M  V30 109 H 9.4625 -3.92433 0.824461 0
M  V30 110 H 6.0525 -3.65822 2.23321 0
M  V30 111 H 10.2365 -3.78926 3.20513 0
M  V30 112 H 5.4925 -4.03018 4.59768 0
M  V30 113 H 9.6665 -4.17404 5.57447 0
M  V30 114 H 7.2935 -4.29064 6.27541 0
M  V30 115 N 8.8686 -0.792821 -1.36206 0
M  V30 116 C 10.1156 -0.366786 -1.99151 0
M  V30 117 C 10.4436 1.06243 -1.62919 0
M  V30 118 O 9.6986 1.74927 -0.877442 0
M  V30 119 C 9.9976 -0.481501 -3.54142 0
M  V30 120 C 9.6636 -1.87202 -4.10203 0
M  V30 121 C 8.3256 -2.25248 -4.25226 0
M  V30 122 C 10.6776 -2.78237 -4.40719 0
M  V30 123 C 8.0056 -3.53723 -4.68078 0
M  V30 124 C 10.3576 -4.06144 -4.85005 0
M  V30 125 C 9.0216 -4.44207 -4.98234 0
M  V30 126 H 8.2916 -0.134217 -0.728743 0
M  V30 127 H 10.9386 -1.01094 -1.62641 0
M  V30 128 H 9.2436 0.246146 -3.91026 0
M  V30 129 H 10.9406 -0.132844 -4.0078 0
M  V30 130 H 7.5306 -1.56639 -3.98951 0
M  V30 131 H 11.7146 -2.50097 -4.28679 0
M  V30 132 H 6.9706 -3.8308 -4.76508 0
M  V30 133 H 11.1446 -4.76796 -5.07581 0
M  V30 134 H 8.7716 -5.43814 -5.31197 0
M  V30 135 N 10.3467 1.47872 -0.545128 0
M  V30 136 C 11.5747 2.06889 -0.021084 0
M  V30 137 C 11.9897 1.39955 1.2672 0
M  V30 138 O 11.3467 0.492036 1.75742 0
M  V30 139 C 11.3977 3.60996 0.190817 0
M  V30 140 O 11.1187 4.25419 -1.04644 0
M  V30 141 C 12.6197 4.36849 0.753521 0
M  V30 142 H 9.8397 0.669785 -0.0403635 0
M  V30 143 H 12.3837 1.90049 -0.755095 0
M  V30 144 H 10.5387 3.77391 0.87492 0
M  V30 145 H 10.9527 5.17785 -0.836611 0
M  V30 146 H 12.4267 5.45399 0.851139 0
M  V30 147 H 12.9037 4.02306 1.762 0
M  V30 148 H 13.5097 4.25169 0.105503 0
M  V30 149 N 11.8248 0.280983 1.55075 0
M  V30 150 C 12.7548 -0.597469 2.25727 0
M  V30 151 C 13.7358 -1.15417 1.24952 0
M  V30 152 O 14.9208 -1.18722 1.53684 0
M  V30 153 C 12.0508 -1.7789 2.98283 0
M  V30 154 C 11.0048 -1.35347 4.06036 0
M  V30 155 C 10.3308 -2.61846 4.66198 0
M  V30 156 C 11.6308 -0.499354 5.19907 0
M  V30 157 H 13.3248 -0.00824265 2.99399 0
M  V30 158 H 10.8708 -0.0025244 1.44 0
M  V30 159 H 12.8238 -2.39937 3.46422 0
M  V30 160 H 11.5478 -2.39405 2.22155 0
M  V30 161 H 10.2068 -0.756156 3.58717 0
M  V30 162 H 9.8548 -3.21632 3.86732 0
M  V30 163 H 9.5548 -2.3409 5.38958 0
M  V30 164 H 11.0788 -3.24732 5.1709 0
M  V30 165 H 12.4928 -1.02498 5.64063 0
M  V30 166 H 10.8898 -0.316424 5.99265 0
M  V30 167 H 11.9598 0.480459 4.82514 0
M  V30 168 N 13.3029 -1.57598 0.00835791 0
M  V30 169 C 14.5279 -1.95617 -0.689103 0
M  V30 170 C 14.9529 -0.883753 -1.66046 0
M  V30 171 O 14.3109 0.157352 -1.80616 0
M  V30 172 C 14.3589 -3.32736 -1.38994 0
M  V30 173 O 13.4629 -3.27631 -2.50463 0
M  V30 174 H 12.8039 -0.638379 -0.182668 0
M  V30 175 H 15.3339 -2.045 0.064036 0
M  V30 176 H 15.3439 -3.68494 -1.75147 0
M  V30 177 H 14.0189 -4.1034 -0.677778 0
M  V30 178 H 12.5959 -3.03561 -2.16576 0
M  V30 179 N 14.781 0.264519 -1.55364 0
M  V30 180 C 16.021 1.00254 -1.78125 0
M  V30 181 C 16.385 1.83187 -0.575017 0
M  V30 182 O 17.586 2.60029 -0.681042 0
M  V30 183 C 15.857 1.85478 -3.05504 0
M  V30 184 S 17.416 2.6543 -3.49417 0
M  V30 185 H 14.234 0.337522 -0.625779 0
M  V30 186 H 16.836 0.272111 -1.93597 0
M  V30 187 H 15.54 1.23491 -3.9138 0
M  V30 188 H 15.071 2.62827 -2.92721 0
M  V30 189 H 17.086 3.87958 -3.09359 0
M  V30 190 N 16.2591 1.48442 0.529413 0
M  V30 191 C 17.5361 1.46978 1.29062 0
M  V30 192 C 17.9161 0.181769 2.10316 0
M  V30 193 O 17.2641 -0.836481 2.12639 0
M  V30 194 C 17.4741 2.7321 2.17157 0
M  V30 195 C 18.8221 3.21562 2.77278 0
M  V30 196 O 19.8461 2.74131 2.27444 0
M  V30 197 O 18.7051 4.04094 3.67927 0
M  V30 198 H 15.7991 0.587003 0.582543 0
M  V30 199 H 18.3451 1.60676 0.546021 0
M  V30 200 H 17.1171 3.58465 1.56903 0
M  V30 201 H 16.7401 2.62235 2.98862 0
M  V30 202 N 17.7372 -0.778329 1.37039 0
M  V30 203 C 18.6672 -1.90546 1.34962 0
M  V30 204 C 19.6482 -1.68681 0.219274 0
M  V30 205 O 20.8332 -1.89634 0.418624 0
M  V30 206 C 17.9632 -3.27734 1.14925 0
M  V30 207 C 16.9172 -3.64147 2.24902 0
M  V30 208 C 16.2432 -4.99806 1.89996 0
M  V30 209 C 17.5432 -3.71579 3.67051 0
M  V30 210 H 19.2372 -1.92541 2.29277 0
M  V30 211 H 16.7832 -0.924948 1.10366 0
M  V30 212 H 18.7362 -4.06215 1.12104 0
M  V30 213 H 17.4602 -3.26154 0.170631 0
M  V30 214 H 16.1192 -2.8797 2.26868 0
M  V30 215 H 15.7672 -4.94759 0.906796 0
M  V30 216 H 15.4672 -5.25139 2.63634 0
M  V30 217 H 16.9912 -5.80694 1.88749 0
M  V30 218 H 18.4052 -4.40227 3.67251 0
M  V30 219 H 16.8022 -4.08405 4.39688 0
M  V30 220 H 17.8722 -2.72404 4.01154 0
M  V30 221 N 19.2153 -1.21501 -1.00376 0
M  V30 222 C 20.4613 -1.03452 -1.74429 0
M  V30 223 C 20.7943 0.430764 -1.89362 0
M  V30 224 O 20.0693 1.31962 -1.42886 0
M  V30 225 C 20.3523 -1.73375 -3.15615 0
M  V30 226 C 20.2053 -3.27431 -3.08397 0
M  V30 227 C 21.5243 -1.47732 -4.14564 0
M  V30 228 H 18.6433 -0.377226 -0.633143 0
M  V30 229 H 21.2853 -1.49693 -1.17013 0
M  V30 230 H 19.4353 -1.34064 -3.64636 0
M  V30 231 H 21.1073 -3.76119 -2.67081 0
M  V30 232 H 19.3503 -3.5767 -2.45468 0
M  V30 233 H 20.0213 -3.71524 -4.08258 0
M  V30 234 H 22.4973 -1.8186 -3.74254 0
M  V30 235 H 21.3733 -1.99169 -5.11491 0
M  V30 236 H 21.6343 -0.407589 -4.40217 0
M  V30 237 N 20.6934 1.19889 -1.02296 0
M  V30 238 C 21.6234 2.25141 -0.619174 0
M  V30 239 C 22.6044 1.66051 0.368915 0
M  V30 240 O 23.7894 1.92546 0.252941 0
M  V30 241 C 20.9194 3.4728 0.0368783 0
M  V30 242 C 19.8734 4.19005 -0.872865 0
M  V30 243 C 19.1994 5.34637 -0.0822402 0
M  V30 244 C 20.4994 4.74452 -2.18387 0
M  V30 245 H 22.1934 2.59171 -1.49903 0
M  V30 246 H 19.7394 1.24579 -0.722222 0
M  V30 247 H 21.6924 4.20098 0.330958 0
M  V30 248 H 20.4164 3.12433 0.95149 0
M  V30 249 H 19.0754 3.48061 -1.15105 0
M  V30 250 H 18.7234 4.96034 0.83422 0
M  V30 251 H 18.4234 5.83557 -0.688149 0
M  V30 252 H 19.9474 6.10255 0.205238 0
M  V30 253 H 21.3614 5.39055 -1.95172 0
M  V30 254 H 19.7584 5.33834 -2.74119 0
M  V30 255 H 20.8284 3.92844 -2.84257 0
M  V30 256 N 22.1715 0.800033 1.35784 0
M  V30 257 C 23.1345 0.211565 2.28221 0
M  V30 258 C 24.1345 -0.59728 1.49296 0
M  V30 259 O 25.3245 -0.416721 1.69142 0
M  V30 260 C 22.4565 -0.705846 3.33513 0
M  V30 261 H 23.6495 1.02677 2.81776 0
M  V30 262 H 21.2025 0.570211 1.45528 0
M  V30 263 H 21.9375 -1.54498 2.85133 0
M  V30 264 H 21.7225 -0.127655 3.91892 0
M  V30 265 H 23.2125 -1.11211 4.02519 0
M  V30 266 N 23.6496 -1.47581 0.552962 0
M  V30 267 C 24.6126 -2.28439 -0.186605 0
M  V30 268 C 25.6126 -1.36706 -0.84665 0
M  V30 269 O 26.8026 -1.59378 -0.703164 0
M  V30 270 C 23.9346 -3.16264 -1.2724 0
M  V30 271 H 25.1276 -2.95294 0.523609 0
M  V30 272 H 22.6806 -1.532 0.309745 0
M  V30 273 H 23.4156 -2.54091 -2.01514 0
M  V30 274 H 23.2006 -3.83769 -0.803968 0
M  V30 275 H 24.6906 -3.77198 -1.79196 0
M  V30 276 N 25.1277 -0.289203 -1.54924 0
M  V30 277 C 26.0907 0.579144 -2.21762 0
M  V30 278 C 27.0907 1.07047 -1.1999 0
M  V30 279 O 28.2807 0.968384 -1.44803 0
M  V30 280 C 25.4127 1.80055 -2.8947 0
M  V30 281 H 26.6057 -0.00464908 -2.999 0
M  V30 282 H 24.1587 -0.0399306 -1.56249 0
M  V30 283 H 24.8937 2.42449 -2.15381 0
M  V30 284 H 24.6787 1.45602 -3.64064 0
M  V30 285 H 26.1687 2.41773 -3.40493 0
M  V30 286 N 26.6058 1.57591 -0.0167156 0
M  V30 287 C 27.8358 1.95292 0.674149 0
M  V30 288 C 28.2438 0.891097 1.66901 0
M  V30 289 O 27.5868 -0.136908 1.83189 0
M  V30 290 C 27.6488 3.29072 1.44747 0
M  V30 291 C 27.3128 4.52879 0.612331 0
M  V30 292 C 28.3098 5.1979 -0.107126 0
M  V30 293 C 25.9948 4.99242 0.553381 0
M  V30 294 C 27.9888 6.31375 -0.874339 0
M  V30 295 C 25.6758 6.10713 -0.217546 0
M  V30 296 C 26.6738 6.76637 -0.930123 0
M  V30 297 O 26.3618 7.85969 -1.68844 0
M  V30 298 H 26.0938 0.648275 0.191615 0
M  V30 299 H 28.6478 2.05284 -0.0690148 0
M  V30 300 H 26.8778 3.15535 2.2355 0
M  V30 301 H 28.5668 3.51764 2.02526 0
M  V30 302 H 29.3328 4.84948 -0.0708392 0
M  V30 303 H 25.2118 4.47744 1.09757 0
M  V30 304 H 28.7558 6.82764 -1.43106 0
M  V30 305 H 24.6528 6.44994 -0.255593 0
M  V30 306 H 25.4208 8.02571 -1.6069 0
M  V30 307 N 28.0839 -0.256276 1.55502 0
M  V30 308 C 29.0319 -1.33694 1.90338 0
M  V30 309 C 30.0259 -1.50299 0.781441 0
M  V30 310 O 31.2319 -1.51885 0.965966 0
M  V30 311 H 27.6069 -0.447483 0.60437 0
M  V30 312 H 29.5779 -1.01574 2.8058 0
M  V30 313 C 28.3269 -2.68724 2.20642 0
M  V30 314 H 27.6499 -2.56743 3.06469 0
M  V30 315 H 29.0899 -3.43237 2.48926 0
M  V30 316 C 27.5489 -3.21101 1.01959 0
M  V30 317 O 28.0789 -4.0084 0.262762 0
M  V30 318 N 26.2849 -2.79003 0.812746 0
M  V30 319 H 25.8319 -2.14271 1.42989 0
M  V30 320 H 25.7899 -3.14393 0.0203076 0
M  V30 321 N 29.562 -1.4872 -0.521534 0
M  V30 322 C 30.51 -1.64328 -1.64618 0
M  V30 323 C 31.504 -0.50953 -1.61555 0
M  V30 324 O 32.71 -0.688525 -1.66311 0
M  V30 325 H 29.085 -0.517805 -0.545328 0
M  V30 326 H 31.056 -2.58767 -1.48601 0
M  V30 327 C 29.805 -1.70805 -3.02855 0
M  V30 328 H 29.128 -2.5741 -3.05909 0
M  V30 329 H 30.568 -1.85766 -3.81139 0
M  V30 330 C 29.027 -0.448479 -3.33902 0
M  V30 331 O 29.557 0.434928 -3.99339 0
M  V30 332 N 27.763 -0.317616 -2.88859 0
M  V30 333 H 27.31 -1.03748 -2.35784 0
M  V30 334 H 27.268 0.524113 -3.10001 0
M  V30 335 N 31.0401 0.771051 -1.3745 0
M  V30 336 C 32.2871 1.52963 -1.32697 0
M  V30 337 C 32.6151 1.94299 0.0883274 0
M  V30 338 O 31.8701 1.64397 1.0617 0
M  V30 339 C 32.1691 2.80676 -2.2126 0
M  V30 340 C 31.8351 2.58389 -3.69521 0
M  V30 341 C 30.4971 2.52019 -4.09927 0
M  V30 342 C 32.8491 2.38469 -4.63446 0
M  V30 343 C 30.1771 2.23721 -5.42371 0
M  V30 344 C 32.5291 2.11694 -5.96128 0
M  V30 345 C 31.1931 2.03769 -6.35637 0
M  V30 346 H 30.4631 0.559732 -0.485573 0
M  V30 347 H 33.1101 0.888083 -1.69662 0
M  V30 348 H 31.4151 3.49392 -1.77291 0
M  V30 349 H 33.1121 3.38557 -2.14895 0
M  V30 350 H 29.7021 2.6421 -3.37478 0
M  V30 351 H 33.8861 2.4238 -4.33089 0
M  V30 352 H 29.1421 2.16081 -5.71943 0
M  V30 353 H 33.3161 1.9528 -6.6846 0
M  V30 354 H 30.9431 1.81606 -7.38189 0
M  V30 355 N 32.5182 1.22032 0.997298 0
M  V30 356 C 33.9342 0.979326 1.26021 0
M  V30 357 C 34.1342 -0.32972 1.98784 0
M  V30 358 O 33.1902 -1.05345 2.29475 0
M  V30 359 C 34.5032 2.17509 2.07631 0
M  V30 360 C 36.0512 2.21817 2.2083 0
M  V30 361 C 36.5262 3.40933 3.05825 0
M  V30 362 N 38.0172 3.41067 3.13412 0
M  V30 363 C 38.7522 4.29885 3.79455 0
M  V30 364 N 38.2482 5.28914 4.47462 0
M  V30 365 N 40.0412 4.17673 3.76173 0
M  V30 366 H 32.1922 2.06202 0.509352 0
M  V30 367 H 34.4552 0.90334 0.287541 0
M  V30 368 H 34.1612 3.12415 1.61524 0
M  V30 369 H 34.0352 2.17206 3.08385 0
M  V30 370 H 36.4222 1.27462 2.66153 0
M  V30 371 H 36.5032 2.2616 1.1952 0
M  V30 372 H 36.1472 4.35586 2.61203 0
M  V30 373 H 36.0772 3.33829 4.07266 0
M  V30 374 H 38.5682 2.69406 2.65007 0
M  V30 375 H 38.8812 5.92973 4.95583 0
M  V30 376 H 37.2262 5.32831 4.46224 0
M  V30 377 H 40.4172 3.39564 3.22202 0
M  V30 378 H 40.5902 4.87098 4.27363 0
M  V30 379 N 33.9963 -1.19345 1.0293 0
M  V30 380 C 34.9433 -2.2258 0.610464 0
M  V30 381 C 35.9133 -1.6179 -0.375946 0
M  V30 382 O 37.0983 -1.88844 -0.272511 0
M  V30 383 C 34.2383 -3.45085 -0.0321473 0
M  V30 384 C 33.3513 -4.20258 1.00035 0
M  V30 385 C 32.4863 -5.3019 0.32746 0
M  V30 386 C 31.5253 -5.97121 1.34584 0
M  V30 387 N 30.6623 -6.98615 0.698726 0
M  V30 388 H 35.5023 -2.57764 1.49538 0
M  V30 389 H 33.0393 -1.26644 0.748311 0
M  V30 390 H 34.9973 -4.15061 -0.421966 0
M  V30 391 H 33.6273 -3.10555 -0.88064 0
M  V30 392 H 32.6793 -3.49223 1.50823 0
M  V30 393 H 33.9913 -4.66175 1.77433 0
M  V30 394 H 33.1453 -6.06587 -0.11718 0
M  V30 395 H 31.8843 -4.85345 -0.478713 0
M  V30 396 H 30.8893 -5.19474 1.80074 0
M  V30 397 H 32.1143 -6.4405 2.15352 0
M  V30 398 H 30.0603 -6.55942 -0.0873471 0
M  V30 399 H 29.9773 -7.42724 1.41058 0
M  V30 400 H 31.2453 -7.79004 0.278102 0
M  V30 401 N 35.4744 -0.807222 -1.35358 0
M  V30 402 C 36.6994 -0.399309 -2.0352 0
M  V30 403 C 37.1244 0.981986 -1.60433 0
M  V30 404 O 36.4824 1.63601 -0.781299 0
M  V30 405 C 36.5304 -0.491552 -3.57234 0
M  V30 406 O 35.6344 0.494754 -4.09421 0
M  V30 407 H 34.9754 -0.166682 -0.642739 0
M  V30 408 H 37.5054 -1.09328 -1.72941 0
M  V30 409 H 37.5154 -0.361588 -4.06395 0
M  V30 410 H 36.1904 -1.49907 -3.87944 0
M  V30 411 H 34.7674 0.324977 -3.71481 0
M  V30 412 N 36.9525 1.47285 -0.560781 0
M  V30 413 C 37.8855 2.27009 0.232821 0
M  V30 414 C 38.8635 1.34273 0.917039 0
M  V30 415 O 40.0475 1.63659 0.935315 0
M  V30 416 C 37.1745 3.11406 1.33206 0
M  V30 417 C 36.2205 4.19746 0.756019 0
M  V30 418 S 37.0535 5.34003 -0.400165 0
M  V30 419 C 38.2095 6.21964 0.700805 0
M  V30 420 H 38.4425 2.93971 -0.443683 0
M  V30 421 H 35.9755 1.50446 -0.347181 0
M  V30 422 H 37.9335 3.60601 1.96156 0
M  V30 423 H 36.5945 2.438 1.98041 0
M  V30 424 H 35.7875 4.78541 1.5816 0
M  V30 425 H 35.3895 3.73451 0.202619 0
M  V30 426 H 37.6815 6.58529 1.59202 0
M  V30 427 H 38.6245 7.07941 0.150126 0
M  V30 428 H 39.0325 5.5566 0.995083 0
M  V30 429 N 38.4306 0.297415 1.54768 0
M  V30 430 C 39.7076 -0.365847 1.92148 0
M  V30 431 C 40.0876 -1.71975 1.22424 0
M  V30 432 O 39.4356 -2.25666 0.358739 0
M  V30 433 C 39.6456 -0.484056 3.45627 0
M  V30 434 C 40.9936 -0.756594 4.17805 0
M  V30 435 O 42.0176 -0.568007 3.51642 0
M  V30 436 O 40.8766 -1.11863 5.34929 0
M  V30 437 H 37.9706 -0.203919 0.801465 0
M  V30 438 H 40.5166 0.34521 1.66152 0
M  V30 439 H 39.2886 0.467865 3.88493 0
M  V30 440 H 38.9116 -1.24372 3.77647 0
M  V30 441 N 39.9087 -1.5758 0.0250728 0
M  V30 442 C 41.1337 -1.96337 -0.668317 0
M  V30 443 C 41.5587 -0.901314 -1.651 0
M  V30 444 O 40.9167 0.138187 -1.80773 0
M  V30 445 C 40.9647 -3.34191 -1.35457 0
M  V30 446 O 40.0687 -3.30269 -2.46974 0
M  V30 447 H 39.4097 -0.640281 -0.175887 0
M  V30 448 H 41.9397 -2.0442 0.0857224 0
M  V30 449 H 41.9497 -3.70331 -1.71228 0
M  V30 450 H 40.6247 -4.11036 -0.634218 0
M  V30 451 H 39.2017 -3.05841 -2.13344 0
M  V30 452 N 41.3868 0.248026 -1.55636 0
M  V30 453 C 42.6358 0.974134 -1.76617 0
M  V30 454 C 42.9488 1.86528 -0.588796 0
M  V30 455 O 44.1548 2.62805 -0.681594 0
M  V30 456 C 42.6108 1.78213 -3.12679 0
M  V30 457 C 42.2188 0.93843 -4.38061 0
M  V30 458 C 43.9628 2.50104 -3.42999 0
M  V30 459 C 41.8698 1.74225 -5.65155 0
M  V30 460 H 40.7998 0.36745 -0.658405 0
M  V30 461 H 43.4508 0.22884 -1.82067 0
M  V30 462 H 41.8328 2.56933 -3.01333 0
M  V30 463 H 43.0068 0.193635 -4.60393 0
M  V30 464 H 41.3218 0.332905 -4.15067 0
M  V30 465 H 43.9188 3.10694 -4.3517 0
M  V30 466 H 44.2618 3.21662 -2.64271 0
M  V30 467 H 44.7948 1.78395 -3.55556 0
M  V30 468 H 41.5338 1.07043 -6.46701 0
M  V30 469 H 41.0538 2.46235 -5.46926 0
M  V30 470 H 42.7328 2.30967 -6.0437 0
M  V30 471 N 42.8649 1.48995 0.513639 0
M  V30 472 C 44.1129 1.57531 1.26604 0
M  V30 473 C 44.4339 0.258236 1.93283 0
M  V30 474 O 43.7039 -0.721502 1.8213 0
M  V30 475 H 42.2839 0.580387 0.470276 0
M  V30 476 H 44.9459 1.85552 0.596373 0
M  V30 477 H 44.0419 2.36486 2.03669 0
M  V30 478 N 44.343 -0.763751 1.37857 0
M  V30 479 C 45.29 -1.87726 1.34267 0
M  V30 480 C 46.26 -1.64807 0.206879 0
M  V30 481 O 47.445 -1.86613 0.397508 0
M  V30 482 C 44.585 -3.24896 1.16346 0
M  V30 483 C 43.698 -3.59716 2.39225 0
M  V30 484 C 42.833 -4.86137 2.14114 0
M  V30 485 C 41.872 -5.13711 3.32817 0
M  V30 486 N 41.009 -6.31323 3.07206 0
M  V30 487 H 45.849 -1.90129 2.29466 0
M  V30 488 H 43.386 -0.929433 1.14017 0
M  V30 489 H 45.344 -4.04036 1.03975 0
M  V30 490 H 43.974 -3.21847 0.247909 0
M  V30 491 H 43.026 -2.75498 2.62307 0
M  V30 492 H 44.338 -3.76027 3.27728 0
M  V30 493 H 43.492 -5.73198 1.9882 0
M  V30 494 H 42.231 -4.71945 1.22961 0
M  V30 495 H 41.236 -4.25123 3.48641 0
M  V30 496 H 42.461 -5.29807 4.24832 0
M  V30 497 H 40.407 -6.18474 2.1869 0
M  V30 498 H 40.324 -6.48087 3.89254 0
M  V30 499 H 41.592 -7.213 2.95546 0
M  V30 500 N 45.8211 -1.22559 -0.990812 0
M  V30 501 C 46.7681 -0.997519 -2.0813 0
M  V30 502 C 47.7381 0.0814702 -1.659 0
M  V30 503 O 48.9231 -0.0685424 -1.90677 0
M  V30 504 C 46.0631 -0.583615 -3.40129 0
M  V30 505 C 45.1761 -1.7336 -3.9569 0
M  V30 506 C 44.3111 -1.26748 -5.15857 0
M  V30 507 C 43.3501 -2.38888 -5.63559 0
M  V30 508 N 42.4871 -1.93308 -6.74964 0
M  V30 509 H 47.3271 -1.93099 -2.26973 0
M  V30 510 H 44.8641 -0.962114 -1.11273 0
M  V30 511 H 46.8221 -0.324801 -4.15934 0
M  V30 512 H 45.4521 0.312845 -3.2128 0
M  V30 513 H 44.5041 -2.10669 -3.16738 0
M  V30 514 H 45.8161 -2.57704 -4.27071 0
M  V30 515 H 44.9701 -0.966173 -5.98957 0
M  V30 516 H 43.7091 -0.394272 -4.86104 0
M  V30 517 H 42.7141 -2.69805 -4.79046 0
M  V30 518 H 43.9391 -3.26728 -5.95336 0
M  V30 519 H 41.8851 -1.08352 -6.4699 0
M  V30 520 H 41.8021 -2.71217 -7.05675 0
M  V30 521 H 43.0701 -1.66252 -7.61564 0
M  V30 522 N 47.2992 1.18797 -1.03562 0
M  V30 523 C 48.2312 2.21731 -0.580337 0
M  V30 524 C 49.2442 1.59051 0.347349 0
M  V30 525 O 50.4332 1.77929 0.142669 0
M  V30 526 C 47.5332 3.38459 0.172805 0
M  V30 527 C 46.7062 4.3072 -0.761496 0
M  V30 528 C 45.7652 5.26174 -0.0525547 0
M  V30 529 O 44.7912 5.65108 -0.681333 0
M  V30 530 N 45.9932 5.67624 1.21586 0
M  V30 531 H 48.7582 2.61417 -1.46565 0
M  V30 532 H 46.3192 1.33531 -0.915476 0
M  V30 533 H 48.3112 3.99335 0.656793 0
M  V30 534 H 46.8812 2.97507 0.959602 0
M  V30 535 H 46.1012 3.67525 -1.42544 0
M  V30 536 H 47.3892 4.89267 -1.39626 0
M  V30 537 H 46.7872 5.38038 1.74732 0
M  V30 538 H 45.3442 6.30721 1.64421 0
M  V30 539 N 48.7773 0.814389 1.34928 0
M  V30 540 C 50.0073 0.41054 2.0248 0
M  V30 541 C 50.4153 -0.985625 1.61499 0
M  V30 542 O 49.7583 -1.64781 0.811976 0
M  V30 543 C 49.8203 0.423384 3.56998 0
M  V30 544 C 49.4843 1.77141 4.21272 0
M  V30 545 C 50.4813 2.73093 4.42398 0
M  V30 546 C 48.1663 2.05755 4.58225 0
M  V30 547 C 50.1603 3.95838 4.9959 0
M  V30 548 C 47.8473 3.28762 5.1513 0
M  V30 549 C 48.8453 4.23621 5.35755 0
M  V30 550 O 48.5333 5.44456 5.91458 0
M  V30 551 H 48.2653 0.163997 0.655806 0
M  V30 552 H 50.8193 1.10155 1.73364 0
M  V30 553 H 49.0493 -0.324276 3.85338 0
M  V30 554 H 50.7383 0.0407683 4.0588 0
M  V30 555 H 51.5043 2.5228 4.14222 0
M  V30 556 H 47.3833 1.32727 4.4148 0
M  V30 557 H 50.9273 4.69891 5.15605 0
M  V30 558 H 46.8243 3.49443 5.42734 0
M  V30 559 H 47.5923 5.4586 6.09901 0
M  V30 560 N 50.2554 -1.46986 0.568584 0
M  V30 561 C 51.1874 -2.28233 -0.210337 0
M  V30 562 C 52.2004 -1.37682 -0.868767 0
M  V30 563 O 53.3894 -1.62406 -0.740705 0
M  V30 564 C 50.4894 -3.12293 -1.3163 0
M  V30 565 C 49.6624 -4.30878 -0.7525 0
M  V30 566 C 48.7214 -4.96445 -1.74439 0
M  V30 567 O 47.7474 -5.54482 -1.286 0
M  V30 568 N 48.9494 -4.92171 -3.07812 0
M  V30 569 H 51.7144 -2.95723 0.486648 0
M  V30 570 H 49.2754 -1.56742 0.405409 0
M  V30 571 H 51.2674 -3.53022 -1.97883 0
M  V30 572 H 49.8374 -2.46971 -1.91636 0
M  V30 573 H 49.0574 -3.94104 0.0871128 0
M  V30 574 H 50.3454 -5.07558 -0.35536 0
M  V30 575 H 49.7434 -4.46239 -3.47688 0
M  V30 576 H 48.3004 -5.36884 -3.69592 0
M  V30 577 N 51.7335 -0.305618 -1.54608 0
M  V30 578 C 52.9795 0.302746 -2.00528 0
M  V30 579 C 53.3125 1.53184 -1.19367 0
M  V30 580 O 52.5875 1.92598 -0.271321 0
M  V30 581 C 52.8705 0.654756 -3.54097 0
M  V30 582 C 52.7235 -0.583793 -4.45995 0
M  V30 583 C 54.0425 1.47947 -4.14487 0
M  V30 584 H 51.1615 0.108564 -0.72896 0
M  V30 585 H 53.8035 -0.418634 -1.85331 0
M  V30 586 H 51.9535 1.26935 -3.67178 0
M  V30 587 H 53.6255 -1.22224 -4.44814 0
M  V30 588 H 51.8685 -1.21615 -4.16404 0
M  V30 589 H 52.5395 -0.293287 -5.5122 0
M  V30 590 H 55.0155 0.96013 -4.04871 0
M  V30 591 H 53.8915 1.69454 -5.22088 0
M  V30 592 H 54.1525 2.47011 -3.66658 0
M  V30 593 N 53.2116 1.57565 -0.0334293 0
M  V30 594 C 54.1436 2.0739 0.975811 0
M  V30 595 C 55.1566 0.998166 1.2861 0
M  V30 596 O 56.3456 1.27426 1.25 0
M  V30 597 C 53.4456 2.4871 2.30209 0
M  V30 598 C 52.6186 3.79413 2.17634 0
M  V30 599 C 51.6776 4.07237 3.33233 0
M  V30 600 O 50.7036 4.77425 3.09927 0
M  V30 601 N 51.9056 3.5775 4.5716 0
M  V30 602 H 54.6706 2.94598 0.55066 0
M  V30 603 H 52.2316 1.61173 0.15323 0
M  V30 604 H 54.2236 2.64413 3.06378 0
M  V30 605 H 52.7936 1.66845 2.64351 0
M  V30 606 H 52.0136 3.73465 1.26165 0
M  V30 607 H 53.3016 4.65038 2.0644 0
M  V30 608 H 52.6996 3.00976 4.78989 0
M  V30 609 H 51.2566 3.78724 5.30482 0
M  V30 610 N 54.6897 -0.239769 1.55765 0
M  V30 611 C 55.6397 -1.30002 1.87306 0
M  V30 612 C 56.6237 -1.43156 0.73452 0
M  V30 613 O 57.8157 -1.46277 0.99659 0
M  V30 614 C 54.9447 -2.65409 2.17745 0
M  V30 615 C 54.0307 -2.56231 3.37945 0
M  V30 616 N 54.4217 -2.16689 4.57033 0
M  V30 617 C 52.7197 -2.87229 3.41197 0
M  V30 618 C 53.4207 -2.18318 5.39177 0
M  V30 619 N 52.3967 -2.58098 4.78421 0
M  V30 620 H 56.1987 -0.984912 2.76906 0
M  V30 621 H 53.7127 -0.448381 1.56087 0
M  V30 622 H 55.7097 -3.41934 2.38509 0
M  V30 623 H 54.3697 -2.97781 1.29448 0
M  V30 624 H 55.3807 -1.88116 4.82528 0
M  V30 625 H 52.0577 -3.24094 2.63191 0
M  V30 626 H 53.4477 -1.90025 6.44469 0
M  V30 627 N 56.1678 -1.49265 -0.50573 0
M  V30 628 C 57.4158 -1.582 -1.25766 0
M  V30 629 C 57.7368 -0.268482 -1.93143 0
M  V30 630 O 57.0068 0.711833 -1.8251 0
M  V30 631 H 55.5868 -0.582873 -0.467191 0
M  V30 632 H 58.2488 -1.85865 -0.586525 0
M  V30 633 H 57.3448 -2.37563 -2.02412 0
M  V30 634 N 57.6459 0.756429 -1.3826 0
M  V30 635 C 58.8709 1.55077 -1.37717 0
M  V30 636 C 59.2959 1.88073 0.03164 0
M  V30 637 O 58.6539 1.50364 1.01293 0
M  V30 638 C 58.7019 2.8283 -2.23695 0
M  V30 639 O 57.8059 3.77862 -1.6521 0
M  V30 640 H 57.1469 0.469152 -0.469885 0
M  V30 641 H 59.6769 0.935019 -1.81985 0
M  V30 642 H 59.6869 3.31783 -2.37453 0
M  V30 643 H 58.3619 2.58144 -3.2609 0
M  V30 644 H 56.9389 3.36555 -1.60578 0
M  V30 645 N 59.124 1.23083 0.984299 0
M  V30 646 C 60.364 1.07226 1.74017 0
M  V30 647 C 60.728 -0.384766 1.88105 0
M  V30 648 O 61.929 -0.664411 2.60459 0
M  V30 649 C 60.2 1.77348 3.10294 0
M  V30 650 S 61.759 1.77014 4.01512 0
M  V30 651 H 58.577 0.383819 0.598502 0
M  V30 652 H 61.179 1.56158 1.17622 0
M  V30 653 H 59.883 2.82506 2.97689 0
M  V30 654 H 59.414 1.28682 3.71759 0
M  V30 655 H 61.429 0.825956 4.89277 0
M  V30 656 N 60.6021 -1.18246 1.0419 0
M  V30 657 C 61.8271 -1.92736 0.765996 0
M  V30 658 C 62.2521 -1.75728 -0.67091 0
M  V30 659 O 61.6101 -1.06825 -1.46486 0
M  V30 660 C 61.6581 -3.42148 1.13875 0
M  V30 661 O 60.7621 -4.11548 0.264954 0
M  V30 662 H 60.1031 -0.601238 0.281797 0
M  V30 663 H 62.6331 -1.49942 1.39207 0
M  V30 664 H 62.6431 -3.92858 1.1012 0
M  V30 665 H 61.3181 -3.53848 2.18551 0
M  V30 666 H 59.8951 -3.71137 0.362226 0
M  V30 667 N 62.0802 -0.821533 -1.34494 0
M  V30 668 C 63.3102 -0.421272 -2.02259 0
M  V30 669 C 63.7182 0.977047 -1.6202 0
M  V30 670 O 63.0612 1.64348 -0.820703 0
M  V30 671 C 63.1232 -0.44231 -3.56769 0
M  V30 672 C 62.7872 -1.79372 -4.20327 0
M  V30 673 C 63.7842 -2.75435 -4.40944 0
M  V30 674 C 61.4692 -2.08182 -4.57127 0
M  V30 675 C 63.4632 -3.98482 -4.97484 0
M  V30 676 C 61.1502 -3.31489 -5.13379 0
M  V30 677 C 62.1482 -4.26457 -5.33501 0
M  V30 678 O 61.8362 -5.47585 -5.88562 0
M  V30 679 H 61.5682 -0.167473 -0.654927 0
M  V30 680 H 64.1222 -1.11073 -1.72777 0
M  V30 681 H 62.3522 0.303836 -3.85505 0
M  V30 682 H 64.0412 -0.0622925 -4.05852 0
M  V30 683 H 64.8072 -2.54473 -4.12878 0
M  V30 684 H 60.6862 -1.35066 -4.4077 0
M  V30 685 H 64.2302 -4.72618 -5.13106 0
M  V30 686 H 60.1272 -3.52316 -5.40873 0
M  V30 687 H 60.8952 -5.49086 -6.06998 0
M  V30 688 N 63.5583 1.46682 -0.576371 0
M  V30 689 C 64.7863 2.06798 -0.0649635 0
M  V30 690 C 65.2013 1.42612 1.23723 0
M  V30 691 O 64.5583 0.529203 1.74659 0
M  V30 692 C 64.6093 3.6132 0.114202 0
M  V30 693 O 64.3303 4.23104 -1.13644 0
M  V30 694 C 65.8313 4.38349 0.66069 0
M  V30 695 H 63.0513 0.668778 -0.0545616 0
M  V30 696 H 65.5953 1.88404 -0.795237 0
M  V30 697 H 63.7503 3.79162 0.794673 0
M  V30 698 H 64.1643 5.15894 -0.946253 0
M  V30 699 H 65.6383 5.47081 0.73526 0
M  V30 700 H 66.1153 4.05953 1.67627 0
M  V30 701 H 66.7213 4.25297 0.0152951 0
M  V30 702 N 65.0364 0.313813 1.54444 0
M  V30 703 C 66.2834 -0.291675 2.00388 0
M  V30 704 C 66.6114 -1.52904 1.2021 0
M  V30 705 O 65.8664 -1.93833 0.269707 0
M  V30 706 C 66.1654 -0.680386 3.50864 0
M  V30 707 C 65.8314 0.456699 4.48581 0
M  V30 708 C 64.4934 0.768824 4.75018 0
M  V30 709 C 66.8454 1.22098 5.06697 0
M  V30 710 C 64.1734 1.84812 5.56831 0
M  V30 711 C 66.5254 2.29029 5.89685 0
M  V30 712 C 65.1894 2.60834 6.14428 0
M  V30 713 H 64.4594 -0.106732 0.733273 0
M  V30 714 H 67.1064 0.43557 1.86481 0
M  V30 715 H 65.4114 -1.48791 3.62448 0
M  V30 716 H 67.1084 -1.16026 3.83847 0
M  V30 717 H 63.6984 0.203337 4.28117 0
M  V30 718 H 67.8824 0.993096 4.86263 0
M  V30 719 H 63.1384 2.09912 5.74236 0
M  V30 720 H 67.3124 2.887 6.33739 0
M  V30 721 H 64.9394 3.44596 6.77612 0
M  V30 722 N 66.5145 -1.57545 0.0417849 0
M  V30 723 C 67.4445 -2.14009 -0.933929 0
M  V30 724 C 68.4255 -1.05938 -1.33083 0
M  V30 725 O 69.6105 -1.33833 -1.40721 0
M  V30 726 C 66.7405 -2.67747 -2.21199 0
M  V30 727 C 65.6945 -3.80718 -1.95544 0
M  V30 728 C 65.0205 -4.20935 -3.29724 0
M  V30 729 C 66.3205 -5.06258 -1.28452 0
M  V30 730 H 68.0145 -2.95788 -0.463645 0
M  V30 731 H 65.5605 -1.42285 -0.221573 0
M  V30 732 H 67.5135 -3.05886 -2.89848 0
M  V30 733 H 66.2375 -1.83147 -2.70416 0
M  V30 734 H 64.8965 -3.43037 -1.2931 0
M  V30 735 H 64.5445 -3.33298 -3.76724 0
M  V30 736 H 64.2445 -4.9707 -3.13361 0
M  V30 737 H 65.7685 -4.61666 -3.9962 0
M  V30 738 H 67.1825 -5.41903 -1.8712 0
M  V30 739 H 65.5795 -5.87475 -1.22445 0
M  V30 740 H 66.6495 -4.84207 -0.259219 0
M  V30 741 N 67.9926 0.231505 -1.5589 0
M  V30 742 C 68.9226 1.29022 -1.94617 0
M  V30 743 C 69.9036 1.4941 -0.813067 0
M  V30 744 O 71.0886 1.6176 -1.07459 0
M  V30 745 C 68.2186 2.64199 -2.25424 0
M  V30 746 C 67.1726 2.58484 -3.41131 0
M  V30 747 C 66.4986 3.97599 -3.57518 0
M  V30 748 C 67.7986 2.1413 -4.76388 0
M  V30 749 H 69.4926 0.968563 -2.83301 0
M  V30 750 H 67.0386 0.464479 -1.36303 0
M  V30 751 H 68.9916 3.38413 -2.51107 0
M  V30 752 H 67.7156 2.98032 -1.33583 0
M  V30 753 H 66.3746 1.86727 -3.15481 0
M  V30 754 H 66.0226 4.28723 -2.6307 0
M  V30 755 H 65.7226 3.94659 -4.35337 0
M  V30 756 H 67.2466 4.7349 -3.85538 0
M  V30 757 H 68.6606 2.78083 -5.01341 0
M  V30 758 H 67.0576 2.2227 -5.57419 0
M  V30 759 H 68.1276 1.09331 -4.72414 0
M  V30 760 N 69.4707 1.49531 0.497807 0
M  V30 761 C 70.8817 1.52344 1.07927 0
M  V30 762 C 71.2327 0.311469 1.93712 0
M  V30 763 O 70.3577 -0.578405 2.08527 0
M  V30 764 C 70.9527 2.76062 1.96405 0
M  V30 765 C 69.5117 2.81643 2.49709 0
M  V30 766 C 68.6587 2.46299 1.27404 0
M  V30 767 H 71.6097 1.56182 0.281576 0
M  V30 768 H 71.6307 2.56405 2.81135 0
M  V30 769 H 71.1427 3.64254 1.33943 0
M  V30 770 H 69.2437 1.97739 3.15801 0
M  V30 771 H 69.3567 3.83891 2.86643 0
M  V30 772 H 67.7207 1.98148 1.60029 0
M  V30 773 H 68.5037 3.36769 0.66645 0
M  V30 774 N 70.9488 -0.749086 1.3866 0
M  V30 775 C 71.8588 -1.89358 1.38494 0
M  V30 776 C 72.8748 -1.71708 0.281476 0
M  V30 777 O 74.0508 -1.94554 0.520643 0
M  V30 778 C 71.1158 -3.24782 1.21316 0
M  V30 779 C 70.1768 -3.54926 2.41508 0
M  V30 780 C 69.4098 -4.83888 2.2514 0
M  V30 781 O 69.6328 -5.56592 1.24746 0
M  V30 782 O 68.5668 -5.13612 3.13826 0
M  V30 783 H 72.3928 -1.92452 2.34938 0
M  V30 784 H 69.9778 -0.894981 1.19626 0
M  V30 785 H 71.8598 -4.05739 1.13814 0
M  V30 786 H 70.5348 -3.2249 0.279592 0
M  V30 787 H 69.4418 -2.74112 2.54585 0
M  V30 788 H 70.7748 -3.61983 3.3351 0
M  V30 789 N 72.4269 -1.23603 -0.977757 0
M  V30 790 C 73.3599 -0.962772 -2.06896 0
M  V30 791 C 74.3379 0.0998743 -1.62293 0
M  V30 792 O 75.5219 -0.0349421 -1.88468 0
M  V30 793 C 72.6489 -0.45095 -3.35685 0
M  V30 794 C 71.6949 -1.50061 -3.99229 0
M  V30 795 S 72.5279 -3.07884 -4.38142 0
M  V30 796 C 73.6839 -2.58378 -5.7008 0
M  V30 797 H 73.9169 -1.88677 -2.29757 0
M  V30 798 H 71.4499 -1.06876 -1.11431 0
M  V30 799 H 73.4079 -0.162261 -4.10179 0
M  V30 800 H 72.0689 0.452179 -3.10828 0
M  V30 801 H 71.2619 -1.09269 -4.92013 0
M  V30 802 H 70.8639 -1.73878 -3.31123 0
M  V30 803 H 73.1559 -2.00563 -6.47133 0
M  V30 804 H 74.0989 -3.49711 -6.15717 0
M  V30 805 H 74.5069 -1.99143 -5.28207 0
M  V30 806 N 73.905 1.17692 -1.04816 0
M  V30 807 C 75.182 1.83768 -0.669963 0
M  V30 808 C 75.562 1.93232 0.849986 0
M  V30 809 O 74.91 1.46397 1.75443 0
M  V30 810 C 75.12 3.21641 -1.35455 0
M  V30 811 C 76.468 3.97592 -1.49017 0
M  V30 812 O 77.492 3.31107 -1.31326 0
M  V30 813 O 76.351 5.16729 -1.77914 0
M  V30 814 H 73.445 0.792799 -0.235368 0
M  V30 815 H 75.991 1.25021 -1.14751 0
M  V30 816 H 74.763 3.097 -2.39168 0
M  V30 817 H 74.386 3.88052 -0.866107 0
M  V30 818 N 75.3831 0.828654 1.34056 0
M  V30 819 C 76.3311 0.242973 2.31327 0
M  V30 820 C 77.3251 -0.61944 1.57668 0
M  V30 821 O 78.5311 -0.51014 1.7262 0
M  V30 822 H 74.9061 0.059834 0.749616 0
M  V30 823 H 76.8771 1.07809 2.78244 0
M  V30 824 C 75.6261 -0.575733 3.429 0
M  V30 825 H 74.9491 0.0785582 3.99723 0
M  V30 826 H 76.3891 -0.951547 4.13185 0
M  V30 827 C 74.8481 -1.75044 2.87856 0
M  V30 828 O 75.3781 -2.84882 2.83205 0
M  V30 829 N 73.5841 -1.56903 2.44602 0
M  V30 830 H 73.1311 -0.675547 2.48584 0
M  V30 831 H 73.0891 -2.35652 2.08124 0
M  V30 832 N 76.8612 -1.46375 0.584142 0
M  V30 833 C 78.1012 -2.0427 0.0729695 0
M  V30 834 C 78.4652 -1.44563 -1.26355 0
M  V30 835 O 79.6662 -1.93667 -1.86405 0
M  V30 836 C 77.9372 -3.57399 0.00967464 0
M  V30 837 S 79.4962 -4.36551 -0.443714 0
M  V30 838 H 76.3142 -0.709975 0.0381673 0
M  V30 839 H 78.9162 -1.79398 0.776962 0
M  V30 840 H 77.6202 -3.98372 0.986319 0
M  V30 841 H 77.1512 -3.8681 -0.717044 0
M  V30 842 H 79.1662 -4.66237 -1.69816 0
M  V30 843 N 78.3393 -0.321999 -1.54275 0
M  V30 844 C 79.7553 0.0306999 -1.5957 0
M  V30 845 C 79.9553 1.50614 -1.33857 0
M  V30 846 O 79.0113 2.2619 -1.12223 0
M  V30 847 C 80.3243 -0.386122 -2.98211 0
M  V30 848 C 81.8723 -0.336647 -3.11184 0
M  V30 849 C 82.3473 -0.728607 -4.52167 0
M  V30 850 N 83.8383 -0.681952 -4.58152 0
M  V30 851 C 84.5733 -0.957449 -5.6535 0
M  V30 852 N 84.0693 -1.3 -6.80494 0
M  V30 853 N 85.8623 -0.883113 -5.55119 0
M  V30 854 H 78.0133 -1.28332 -1.69247 0
M  V30 855 H 80.2763 -0.521716 -0.791528 0
M  V30 856 H 79.9823 -1.41404 -3.22022 0
M  V30 857 H 79.8563 0.249662 -3.76373 0
M  V30 858 H 82.2433 0.682058 -2.8711 0
M  V30 859 H 82.3243 -1.00734 -2.3513 0
M  V30 860 H 81.9683 -1.74522 -4.76974 0
M  V30 861 H 81.8983 -0.0356152 -5.26588 0
M  V30 862 H 84.3893 -0.428985 -3.75457 0
M  V30 863 H 84.7023 -1.49563 -7.58189 0
M  V30 864 H 83.0473 -1.33824 -6.81994 0
M  V30 865 H 86.2383 -0.615001 -4.64042 0
M  V30 866 H 86.4113 -1.10118 -6.38575 0
M  V30 867 N 79.8174 1.5752 -0.0501392 0
M  V30 868 C 81.0424 1.97376 0.636997 0
M  V30 869 C 81.4674 0.927466 1.63645 0
M  V30 870 O 80.8254 -0.10941 1.8097 0
M  V30 871 C 80.8734 3.36304 1.30123 0
M  V30 872 O 79.9774 3.34156 2.41689 0
M  V30 873 H 79.3184 0.642998 0.165679 0
M  V30 874 H 81.8484 2.04258 -0.118233 0
M  V30 875 H 81.8584 3.73008 1.65315 0
M  V30 876 H 80.5334 4.11993 0.568746 0
M  V30 877 H 79.1104 3.09196 2.08451 0
M  V30 878 N 81.2955 -0.223234 1.56011 0
M  V30 879 C 82.5205 -0.968978 1.83373 0
M  V30 880 C 82.9455 -1.77227 0.630254 0
M  V30 881 O 82.3035 -1.76345 -0.420959 0
M  V30 882 C 82.3515 -1.86363 3.08709 0
M  V30 883 O 81.4555 -2.95873 2.87285 0
M  V30 884 H 80.7965 -0.274461 0.604622 0
M  V30 885 H 83.3265 -0.237056 2.03222 0
M  V30 886 H 83.3365 -2.27376 3.38768 0
M  V30 887 H 82.0115 -1.27319 3.95933 0
M  V30 888 H 80.5885 -2.58818 2.68454 0
M  V30 889 N 82.7736 -1.49793 -0.48987 0
M  V30 890 C 83.9986 -1.63836 -1.27172 0
M  V30 891 C 84.4236 -0.31402 -1.8546 0
M  V30 892 O 83.7816 0.719803 -1.66399 0
M  V30 893 C 83.8296 -2.71797 -2.36978 0
M  V30 894 O 82.9336 -2.31744 -3.41128 0
M  V30 895 H 82.2746 -0.547997 -0.37496 0
M  V30 896 H 84.8046 -1.96053 -0.585191 0
M  V30 897 H 84.8146 -2.94305 -2.82575 0
M  V30 898 H 83.4896 -3.67923 -1.93921 0
M  V30 899 H 82.0666 -2.1961 -3.01373 0
M  V30 900 N 84.2517 0.741722 -1.39055 0
M  V30 901 C 85.4767 1.53607 -1.39354 0
M  V30 902 C 85.9017 1.88096 0.0116905 0
M  V30 903 O 85.2597 1.5143 0.996924 0
M  V30 904 C 85.3077 2.80441 -2.26682 0
M  V30 905 O 84.4117 3.76088 -1.69208 0
M  V30 906 H 83.7527 0.464142 -0.474835 0
M  V30 907 H 86.2827 0.915665 -1.82967 0
M  V30 908 H 86.2927 3.29246 -2.40959 0
M  V30 909 H 84.9677 2.5467 -3.2881 0
M  V30 910 H 83.5447 3.34833 -1.64138 0
M  V30 911 N 85.7298 1.2412 0.971189 0
M  V30 912 C 87.1408 1.07236 1.52831 0
M  V30 913 C 87.4918 -0.357352 1.92918 0
M  V30 914 O 86.6168 -1.24528 1.76979 0
M  V30 915 C 87.2118 1.94043 2.77728 0
M  V30 916 C 85.7708 1.81394 3.29808 0
M  V30 917 C 84.9178 1.89189 2.02738 0
M  V30 918 H 87.8688 1.37648 0.789864 0
M  V30 919 H 87.8898 1.47066 3.5093 0
M  V30 920 H 87.4018 2.98093 2.4852 0
M  V30 921 H 85.5028 0.801634 3.63874 0
M  V30 922 H 85.6158 2.65294 3.98944 0
M  V30 923 H 83.9798 1.32877 2.17292 0
M  V30 924 H 84.7628 2.94812 1.759 0
M  V30 925 N 87.2079 -1.17134 1.05439 0
M  V30 926 C 88.4379 -1.91094 0.785274 0
M  V30 927 C 88.8459 -1.77198 -0.663142 0
M  V30 928 O 88.1889 -1.10835 -1.46497 0
M  V30 929 C 88.2509 -3.42594 1.08949 0
M  V30 930 C 87.9149 -3.80274 2.53458 0
M  V30 931 C 88.9119 -3.82912 3.51673 0
M  V30 932 C 86.5969 -4.11162 2.88532 0
M  V30 933 C 88.5909 -4.15913 4.83006 0
M  V30 934 C 86.2779 -4.43831 4.20068 0
M  V30 935 C 87.2759 -4.46185 5.17115 0
M  V30 936 O 86.9639 -4.78083 6.46291 0
M  V30 937 H 86.6959 -0.613073 0.284811 0
M  V30 938 H 89.2499 -1.49461 1.40893 0
M  V30 939 H 87.4799 -3.84534 0.408741 0
M  V30 940 H 89.1689 -3.97817 0.805991 0
M  V30 941 H 89.9349 -3.5917 3.25917 0
M  V30 942 H 85.8139 -4.085 2.13656 0
M  V30 943 H 89.3579 -4.17665 5.5875 0
M  V30 944 H 85.2549 -4.67037 4.45586 0
M  V30 945 H 86.0229 -4.9593 6.51149 0
M  V30 946 N 88.686 -0.835752 -1.33615 0
M  V30 947 C 89.932 -0.430596 -1.98176 0
M  V30 948 C 90.265 1.00684 -1.66061 0
M  V30 949 O 89.54 1.70339 -0.938877 0
M  V30 950 C 89.823 -0.648065 -3.5422 0
M  V30 951 C 89.676 -2.13255 -3.96033 0
M  V30 952 C 90.995 -0.0922113 -4.40003 0
M  V30 953 H 88.114 -0.157924 -0.719881 0
M  V30 954 H 90.756 -1.05069 -1.58305 0
M  V30 955 H 88.906 -0.120237 -3.88314 0
M  V30 956 H 90.578 -2.725 -3.72211 0
M  V30 957 H 88.821 -2.61823 -3.45878 0
M  V30 958 H 89.492 -2.23547 -5.04708 0
M  V30 959 H 91.968 -0.543343 -4.12537 0
M  V30 960 H 90.844 -0.274083 -5.48215 0
M  V30 961 H 91.105 1.00378 -4.30554 0
M  V30 962 N 90.1641 1.46063 -0.591896 0
M  V30 963 C 91.3891 2.07226 -0.0850314 0
M  V30 964 C 91.8141 1.43625 1.21463 0
M  V30 965 O 91.1721 0.523305 1.73583 0
M  V30 966 C 91.2201 3.60554 0.0576567 0
M  V30 967 O 90.3241 3.97128 1.11188 0
M  V30 968 H 89.6651 0.660615 -0.0669568 0
M  V30 969 H 92.1951 1.8756 -0.81745 0
M  V30 970 H 92.2051 4.07165 0.2609 0
M  V30 971 H 90.8801 4.06235 -0.891416 0
M  V30 972 H 89.4571 3.62213 0.886356 0
M  V30 973 N 91.6422 0.330177 1.54103 0
M  V30 974 C 92.5902 -0.548226 2.26047 0
M  V30 975 C 93.5842 -1.11309 1.27698 0
M  V30 976 O 94.7902 -1.06036 1.45452 0
M  V30 977 H 91.1652 -0.195456 0.726155 0
M  V30 978 H 93.1362 0.0807567 2.98291 0
M  V30 979 C 91.8852 -1.69415 3.03634 0
M  V30 980 H 91.2082 -1.26876 3.79134 0
M  V30 981 H 92.6482 -2.28423 3.5721 0
M  V30 982 C 91.1072 -2.61569 2.12328 0
M  V30 983 O 91.6372 -3.63462 1.7105 0
M  V30 984 N 89.8432 -2.29952 1.77681 0
M  V30 985 H 89.3902 -1.47134 2.11446 0
M  V30 986 H 89.3482 -2.91871 1.16869 0
M  V30 987 N 93.1203 -1.57491 0.0584922 0
M  V30 988 C 94.0833 -2.1085 -0.898617 0
M  V30 989 C 95.0833 -1.02964 -1.23511 0
M  V30 990 O 96.2733 -1.29007 -1.17059 0
M  V30 991 C 93.4053 -2.59881 -2.20623 0
M  V30 992 H 94.5983 -2.96715 -0.435936 0
M  V30 993 H 92.1513 -1.55141 -0.190023 0
M  V30 994 H 92.8863 -1.77431 -2.71457 0
M  V30 995 H 92.6713 -3.38727 -1.97501 0
M  V30 996 H 94.1613 -3.01285 -2.89166 0
M  V30 997 N 94.5984 0.214957 -1.56127 0
M  V30 998 C 95.8444 0.939762 -1.79712 0
M  V30 999 C 96.1774 1.83723 -0.629247 0
M  V30 1000 O 95.4524 1.90925 0.371197 0
M  V30 1001 C 95.7354 1.77306 -3.13424 0
M  V30 1002 C 95.5884 0.90164 -4.40671 0
M  V30 1003 C 96.9074 2.74956 -3.43638 0
M  V30 1004 H 94.0264 0.340214 -0.653776 0
M  V30 1005 H 96.6684 0.20824 -1.88855 0
M  V30 1006 H 94.8184 2.39673 -3.0576 0
M  V30 1007 H 96.4904 0.294206 -4.60361 0
M  V30 1008 H 94.7334 0.207368 -4.33304 0
M  V30 1009 H 95.4044 1.51923 -5.30682 0
M  V30 1010 H 97.8804 2.22724 -3.51473 0
M  V30 1011 H 96.7564 3.30358 -4.38355 0
M  V30 1012 H 97.0174 3.53023 -2.66134 0
M  V30 1013 N 96.0765 1.50051 0.48192 0
M  V30 1014 C 97.0085 1.64263 1.59844 0
M  V30 1015 C 98.0215 0.52451 1.54119 0
M  V30 1016 O 99.2105 0.797293 1.59704 0
M  V30 1017 C 96.3105 1.60102 2.98698 0
M  V30 1018 C 95.4835 2.87767 3.29407 0
M  V30 1019 C 94.5425 2.76397 4.47762 0
M  V30 1020 O 93.5685 3.50348 4.48603 0
M  V30 1021 N 94.7705 1.89222 5.48794 0
M  V30 1022 H 97.5355 2.60566 1.48073 0
M  V30 1023 H 95.0965 1.47379 0.670149 0
M  V30 1024 H 97.0885 1.50123 3.75826 0
M  V30 1025 H 95.6585 0.715798 3.04294 0
M  V30 1026 H 94.8785 3.11954 2.40994 0
M  V30 1027 H 96.1665 3.72365 3.4673 0
M  V30 1028 H 95.5645 1.28434 5.50928 0
M  V30 1029 H 94.1215 1.85154 6.24949 0
M  V30 1030 N 97.5546 -0.734337 1.39446 0
M  V30 1031 C 98.9706 -1.03997 1.21065 0
M  V30 1032 C 99.1706 -2.01369 0.0727019 0
M  V30 1033 O 98.2266 -2.45856 -0.575426 0
M  V30 1034 C 99.5396 -1.60163 2.54496 0
M  V30 1035 C 101.088 -1.7224 2.61347 0
M  V30 1036 C 101.563 -2.31814 3.95002 0
M  V30 1037 N 103.054 -2.39223 3.96644 0
M  V30 1038 C 103.789 -2.86258 4.96834 0
M  V30 1039 N 103.285 -3.33184 6.07421 0
M  V30 1040 N 105.078 -2.85473 4.84213 0
M  V30 1041 H 97.2286 -0.0885624 2.12215 0
M  V30 1042 H 99.4916 -0.10191 0.942506 0
M  V30 1043 H 99.1976 -0.960811 3.38321 0
M  V30 1044 H 99.0716 -2.5896 2.74262 0
M  V30 1045 H 101.459 -2.35443 1.77906 0
M  V30 1046 H 101.54 -0.720939 2.4543 0
M  V30 1047 H 101.184 -1.69238 4.78875 0
M  V30 1048 H 101.114 -3.32638 4.08239 0
M  V30 1049 H 103.605 -2.06057 3.16779 0
M  V30 1050 H 103.918 -3.67586 6.7978 0
M  V30 1051 H 102.263 -3.31191 6.11013 0
M  V30 1052 H 105.454 -2.48136 3.96921 0
M  V30 1053 H 105.627 -3.21814 5.62441 0
M  V30 1054 N 99.0327 -1.24633 -0.964593 0
M  V30 1055 C 100.31 -0.995809 -1.68354 0
M  V30 1056 C 100.69 0.480964 -2.05548 0
M  V30 1057 O 100.038 1.45599 -1.76105 0
M  V30 1058 C 100.248 -1.92177 -2.91323 0
M  V30 1059 C 101.596 -2.19446 -3.63495 0
M  V30 1060 O 102.62 -1.89855 -3.01386 0
M  V30 1061 O 101.479 -2.69714 -4.75307 0
M  V30 1062 H 98.5727 -0.376854 -0.736146 0
M  V30 1063 H 101.119 -1.35745 -1.0184 0
M  V30 1064 H 99.8907 -2.91938 -2.60553 0
M  V30 1065 H 99.5137 -1.56349 -3.65569 0
M  V30 1066 N 100.511 1.16574 -1.06058 0
M  V30 1067 C 101.474 2.19085 -0.673392 0
M  V30 1068 C 102.474 1.5835 0.279648 0
M  V30 1069 O 103.664 1.74088 0.0623488 0
M  V30 1070 C 100.796 3.40899 0.00954234 0
M  V30 1071 H 101.989 2.54853 -1.58081 0
M  V30 1072 H 99.5418 1.30808 -0.855516 0
M  V30 1073 H 100.277 3.10684 0.929826 0
M  V30 1074 H 100.062 3.86233 -0.67573 0
M  V30 1075 H 101.552 4.1675 0.266245 0
M  V30 1076 N 101.989 0.842826 1.3317 0
M  V30 1077 C 103.4 0.496651 1.79973 0
M  V30 1078 C 103.751 -0.984641 1.69703 0
M  V30 1079 O 102.876 -1.76743 1.24863 0
M  V30 1080 C 103.471 0.894727 3.26772 0
M  V30 1081 C 102.03 0.600629 3.71577 0
M  V30 1082 C 101.177 1.10091 2.5451 0
M  V30 1083 H 104.128 1.03116 1.20635 0
M  V30 1084 H 104.149 0.206347 3.7994 0
M  V30 1085 H 103.661 1.97287 3.34215 0
M  V30 1086 H 101.762 -0.467284 3.69658 0
M  V30 1087 H 101.875 1.15863 4.64879 0
M  V30 1088 H 100.239 0.52162 2.49301 0
M  V30 1089 H 101.022 2.18591 2.64713 0
M  V30 1090 N 103.467 -1.45747 0.599634 0
M  V30 1091 C 104.397 -2.33235 -0.111306 0
M  V30 1092 C 105.378 -1.46359 -0.866781 0
M  V30 1093 O 106.563 -1.75146 -0.838904 0
M  V30 1094 C 103.693 -3.28932 -1.11451 0
M  V30 1095 C 102.647 -4.25381 -0.472772 0
M  V30 1096 C 101.973 -5.1071 -1.58365 0
M  V30 1097 C 103.273 -5.18831 0.600948 0
M  V30 1098 H 104.967 -2.92927 0.61919 0
M  V30 1099 H 102.513 -1.40857 0.299215 0
M  V30 1100 H 104.466 -3.89002 -1.62036 0
M  V30 1101 H 103.19 -2.67381 -1.8755 0
M  V30 1102 H 101.849 -3.66598 0.0121472 0
M  V30 1103 H 101.497 -4.45533 -2.33473 0
M  V30 1104 H 101.197 -5.7604 -1.15982 0
M  V30 1105 H 102.721 -5.73647 -2.09194 0
M  V30 1106 H 104.135 -5.73019 0.179491 0
M  V30 1107 H 102.532 -5.92595 0.946076 0
M  V30 1108 H 103.602 -4.6174 1.48068 0
M  V30 1109 N 104.945 -0.338344 -1.53925 0
M  V30 1110 C 105.855 0.529421 -2.28548 0
M  V30 1111 C 106.871 1.11645 -1.3346 0
M  V30 1112 O 108.047 1.13325 -1.66492 0
M  V30 1113 C 105.112 1.66713 -3.03987 0
M  V30 1114 C 104.173 1.11041 -4.14691 0
M  V30 1115 C 103.406 2.19389 -4.86522 0
M  V30 1116 O 103.629 3.40013 -4.57982 0
M  V30 1117 O 102.563 1.83976 -5.73094 0
M  V30 1118 H 106.389 -0.0770399 -3.03602 0
M  V30 1119 H 103.974 -0.103555 -1.49041 0
M  V30 1120 H 105.856 2.32918 -3.5118 0
M  V30 1121 H 104.531 2.25949 -2.31794 0
M  V30 1122 H 103.438 0.413024 -3.71813 0
M  V30 1123 H 104.771 0.562975 -4.8897 0
M  V30 1124 N 106.423 1.57458 -0.0668435 0
M  V30 1125 C 107.653 1.97337 0.611677 0
M  V30 1126 C 108.061 0.943744 1.63982 0
M  V30 1127 O 107.404 -0.0785584 1.83532 0
M  V30 1128 C 107.466 3.33511 1.34205 0
M  V30 1129 C 107.13 4.54598 0.467941 0
M  V30 1130 C 108.127 5.19186 -0.272439 0
M  V30 1131 C 105.812 5.0075 0.39427 0
M  V30 1132 C 107.806 6.28274 -1.07476 0
M  V30 1133 C 105.493 6.09711 -0.411729 0
M  V30 1134 C 106.491 6.73335 -1.14492 0
M  V30 1135 O 106.179 7.80199 -1.93763 0
M  V30 1136 H 105.911 0.654042 0.170893 0
M  V30 1137 H 108.465 2.04961 -0.134289 0
M  V30 1138 H 106.695 3.22487 2.13398 0
M  V30 1139 H 108.384 3.58029 1.91233 0
M  V30 1140 H 109.15 4.84477 -0.225086 0
M  V30 1141 H 105.029 4.51009 0.954569 0
M  V30 1142 H 108.573 6.77866 -1.64755 0
M  V30 1143 H 104.47 6.43854 -0.460664 0
M  V30 1144 H 105.238 7.97053 -1.86142 0
M  V30 1145 N 107.901 -0.206675 1.56239 0
M  V30 1146 C 109.178 -0.954051 1.70755 0
M  V30 1147 C 109.558 -2.01841 0.618353 0
M  V30 1148 O 108.906 -2.25444 -0.372434 0
M  V30 1149 C 109.116 -1.551 3.12642 0
M  V30 1150 C 110.464 -2.03757 3.72516 0
M  V30 1151 O 111.488 -1.64965 3.15698 0
M  V30 1152 O 110.347 -2.75103 4.72208 0
M  V30 1153 H 107.441 -0.446636 0.696021 0
M  V30 1154 H 109.987 -0.197283 1.68549 0
M  V30 1155 H 108.759 -0.783212 3.83382 0
M  V30 1156 H 108.382 -2.37291 3.19028 0
M  V30 1157 N 109.379 -1.50304 -0.473955 0
M  V30 1158 C 110.656 -1.51667 -1.23518 0
M  V30 1159 C 111.036 -0.259701 -2.09496 0
M  V30 1160 O 110.384 0.756986 -2.15597 0
M  V30 1161 C 110.594 -2.81082 -2.06868 0
M  V30 1162 C 111.942 -3.31631 -2.65153 0
M  V30 1163 O 112.966 -2.82384 -2.17113 0
M  V30 1164 O 111.825 -4.17471 -3.52675 0
M  V30 1165 H 108.919 -0.60822 -0.560355 0
M  V30 1166 H 111.465 -1.62592 -0.486011 0
M  V30 1167 H 110.237 -3.64041 -1.4349 0
M  V30 1168 H 109.86 -2.73146 -2.88924 0
M  V30 1169 N 110.857 0.726932 -1.39834 0
M  V30 1170 C 112.082 1.52121 -1.40976 0
M  V30 1171 C 112.507 1.88098 -0.00826029 0
M  V30 1172 O 111.865 1.52479 0.980807 0
M  V30 1173 C 111.913 2.78021 -2.29644 0
M  V30 1174 O 111.017 3.74272 -1.73188 0
M  V30 1175 H 110.358 0.45908 -0.479731 0
M  V30 1176 H 112.888 0.896207 -1.83927 0
M  V30 1177 H 112.898 3.26671 -2.44438 0
M  V30 1178 H 111.573 2.51169 -3.31492 0
M  V30 1179 H 110.15 3.33073 -1.6768 0
M  V30 1180 N 112.336 1.25143 0.95797 0
M  V30 1181 C 113.582 1.09855 1.70469 0
M  V30 1182 C 113.915 -0.360187 1.90831 0
M  V30 1183 O 113.19 -1.26568 1.47685 0
M  V30 1184 C 113.473 1.8497 3.08963 0
M  V30 1185 C 113.326 3.38652 2.96032 0
M  V30 1186 C 114.645 1.63016 4.08795 0
M  V30 1187 H 111.764 0.400465 0.618706 0
M  V30 1188 H 114.406 1.53933 1.11376 0
M  V30 1189 H 112.556 1.47505 3.59409 0
M  V30 1190 H 114.228 3.85772 2.52938 0
M  V30 1191 H 112.471 3.66534 2.32025 0
M  V30 1192 H 113.142 3.8642 3.94187 0
M  V30 1193 H 115.618 1.95625 3.67247 0
M  V30 1194 H 114.494 2.18015 5.03747 0
M  V30 1195 H 114.755 0.570692 4.38401 0
M  V30 1196 N 113.814 -1.1601 1.06675 0
M  V30 1197 C 114.746 -2.20115 0.638921 0
M  V30 1198 C 115.759 -1.59916 -0.305057 0
M  V30 1199 O 116.948 -1.78245 -0.0954446 0
M  V30 1200 C 114.048 -3.38798 -0.0830083 0
M  V30 1201 C 113.221 -4.2855 0.875426 0
M  V30 1202 C 112.28 -5.25849 0.192042 0
M  V30 1203 O 111.306 -5.63102 0.830921 0
M  V30 1204 N 112.508 -5.70648 -1.06493 0
M  V30 1205 H 115.273 -2.57439 1.53444 0
M  V30 1206 H 112.834 -1.31057 0.950557 0
M  V30 1207 H 114.826 -4.00936 -0.550685 0
M  V30 1208 H 113.396 -2.99947 -0.880386 0
M  V30 1209 H 112.616 -3.63617 1.52238 0
M  V30 1210 H 113.904 -4.85393 1.52548 0
M  V30 1211 H 113.302 -5.42482 -1.60405 0
M  V30 1212 H 111.859 -6.34859 -1.47641 0
M  V30 1213 N 115.292 -0.849877 -1.32721 0
M  V30 1214 C 116.708 -0.539102 -1.50219 0
M  V30 1215 C 116.908 0.931271 -1.78689 0
M  V30 1216 O 115.964 1.71455 -1.85363 0
M  V30 1217 C 117.277 -1.42196 -2.64954 0
M  V30 1218 C 118.825 -1.42189 -2.78839 0
M  V30 1219 C 119.3 -2.28985 -3.96648 0
M  V30 1220 N 120.791 -2.26754 -4.03902 0
M  V30 1221 C 121.526 -2.90644 -4.94281 0
M  V30 1222 N 121.022 -3.63629 -5.897 0
M  V30 1223 N 122.815 -2.80057 -4.87365 0
M  V30 1224 H 114.966 -1.80156 -1.12506 0
M  V30 1225 H 117.229 -0.769217 -0.554085 0
M  V30 1226 H 116.935 -2.46733 -2.50631 0
M  V30 1227 H 116.809 -1.10591 -3.60624 0
M  V30 1228 H 119.196 -0.38419 -2.92588 0
M  V30 1229 H 119.277 -1.77807 -1.83898 0
M  V30 1230 H 118.921 -3.32819 -3.83658 0
M  V30 1231 H 118.851 -1.90702 -4.90857 0
M  V30 1232 H 121.342 -1.73688 -3.3562 0
M  V30 1233 H 121.655 -4.09558 -6.55349 0
M  V30 1234 H 120 -3.67737 -5.89741 0
M  V30 1235 H 123.191 -2.22593 -4.11789 0
M  V30 1236 H 123.364 -3.30132 -5.57599 0
M  V30 1237 N 116.77 1.45427 -0.607355 0
M  V30 1238 C 117.7 2.3329 0.0989352 0
M  V30 1239 C 118.681 1.46816 0.859007 0
M  V30 1240 O 119.866 1.75588 0.829604 0
M  V30 1241 C 116.996 3.29518 1.09705 0
M  V30 1242 C 115.95 4.25626 0.450206 0
M  V30 1243 C 115.276 5.11542 1.55655 0
M  V30 1244 C 116.576 5.18505 -0.628455 0
M  V30 1245 H 118.27 2.92595 -0.634716 0
M  V30 1246 H 115.816 1.40696 -0.306681 0
M  V30 1247 H 117.769 3.89855 1.59971 0
M  V30 1248 H 116.493 2.68372 1.86129 0
M  V30 1249 H 115.152 3.66586 -0.0315886 0
M  V30 1250 H 114.8 4.46765 2.31107 0
M  V30 1251 H 114.5 5.76647 1.12925 0
M  V30 1252 H 116.024 5.74748 2.06148 0
M  V30 1253 H 117.438 5.72916 -0.209877 0
M  V30 1254 H 115.835 5.92085 -0.977489 0
M  V30 1255 H 116.905 4.60948 -1.50514 0
M  V30 1256 N 118.248 0.346503 1.53744 0
M  V30 1257 C 119.18 -0.543316 2.22667 0
M  V30 1258 C 120.193 -1.06159 1.23427 0
M  V30 1259 O 121.382 -0.971235 1.49764 0
M  V30 1260 C 118.482 -1.76076 2.89569 0
M  V30 1261 C 117.655 -1.37727 4.15151 0
M  V30 1262 C 116.714 -2.45471 4.65436 0
M  V30 1263 O 115.74 -2.08655 5.29577 0
M  V30 1264 N 116.942 -3.7677 4.41616 0
M  V30 1265 H 119.707 0.0469703 2.99663 0
M  V30 1266 H 117.268 0.170766 1.60997 0
M  V30 1267 H 119.26 -2.47593 3.20125 0
M  V30 1268 H 117.83 -2.25835 2.16142 0
M  V30 1269 H 117.05 -0.492746 3.91108 0
M  V30 1270 H 118.338 -1.09708 4.96832 0
M  V30 1271 H 117.736 -4.09467 3.90325 0
M  V30 1272 H 116.293 -4.44448 4.7677 0
M  V30 1273 N 119.726 -1.57421 0.075193 0
M  V30 1274 C 120.972 -1.93905 -0.594025 0
M  V30 1275 C 121.305 -0.955701 -1.69056 0
M  V30 1276 O 120.58 0.0145373 -1.94495 0
M  V30 1277 C 120.863 -3.40638 -1.1678 0
M  V30 1278 C 120.716 -4.49733 -0.0776792 0
M  V30 1279 C 122.035 -3.88259 -2.07228 0
M  V30 1280 H 119.154 -0.705105 -0.214466 0
M  V30 1281 H 121.796 -1.8947 0.141854 0
M  V30 1282 H 119.946 -3.44549 -1.79494 0
M  V30 1283 H 121.618 -4.57942 0.555573 0
M  V30 1284 H 119.861 -4.29751 0.591286 0
M  V30 1285 H 120.532 -5.49549 -0.519603 0
M  V30 1286 H 123.008 -3.86376 -1.54445 0
M  V30 1287 H 121.884 -4.91533 -2.44308 0
M  V30 1288 H 122.145 -3.26396 -2.98191 0
M  V30 1289 N 121.204 0.198386 -1.56346 0
M  V30 1290 C 122.134 1.24865 -1.9731 0
M  V30 1291 C 123.115 1.47651 -0.844576 0
M  V30 1292 O 124.3 1.59444 -1.10866 0
M  V30 1293 C 121.43 2.59358 -2.30977 0
M  V30 1294 C 120.384 2.5119 -3.46537 0
M  V30 1295 C 119.71 3.89926 -3.65871 0
M  V30 1296 C 121.01 2.03977 -4.80823 0
M  V30 1297 H 122.704 0.908252 -2.85291 0
M  V30 1298 H 120.25 0.435462 -1.37258 0
M  V30 1299 H 122.203 3.33011 -2.58228 0
M  V30 1300 H 120.927 2.95132 -1.39874 0
M  V30 1301 H 119.586 1.79993 -3.19371 0
M  V30 1302 H 119.234 4.23046 -2.72105 0
M  V30 1303 H 118.934 3.85336 -4.4361 0
M  V30 1304 H 120.458 4.65205 -3.95495 0
M  V30 1305 H 121.872 2.67386 -5.07127 0
M  V30 1306 H 120.269 2.10397 -5.62008 0
M  V30 1307 H 121.339 0.992861 -4.74626 0
M  V30 1308 N 122.682 1.50554 0.465978 0
M  V30 1309 C 123.592 1.72585 1.58907 0
M  V30 1310 C 124.608 0.60911 1.6299 0
M  V30 1311 O 125.784 0.88804 1.80765 0
M  V30 1312 C 122.849 1.81995 2.95091 0
M  V30 1313 C 121.91 3.05751 3.01355 0
M  V30 1314 C 121.143 3.14702 4.31043 0
M  V30 1315 O 121.366 2.30313 5.21835 0
M  V30 1316 O 120.3 4.07468 4.43005 0
M  V30 1317 H 124.126 2.67799 1.43239 0
M  V30 1318 H 121.711 1.34711 0.646013 0
M  V30 1319 H 123.593 1.90335 3.75966 0
M  V30 1320 H 122.268 0.899659 3.10947 0
M  V30 1321 H 121.175 3.02908 2.19539 0
M  V30 1322 H 122.508 3.97375 2.90437 0
M  V30 1323 N 124.16 -0.719506 1.40217 0
M  V30 1324 C 125.108 -1.85493 1.40339 0
M  V30 1325 C 126.102 -1.66995 0.284415 0
M  V30 1326 O 127.308 -1.74148 0.455252 0
M  V30 1327 H 123.683 -0.610857 0.438586 0
M  V30 1328 H 125.654 -1.82506 2.36081 0
M  V30 1329 C 124.403 -3.23321 1.27901 0
M  V30 1330 H 123.726 -3.38159 2.1328 0
M  V30 1331 H 125.166 -4.02914 1.32045 0
M  V30 1332 C 123.625 -3.36898 -0.0111355 0
M  V30 1333 O 124.155 -3.89674 -0.975538 0
M  V30 1334 N 122.361 -2.90492 -0.0793393 0
M  V30 1335 H 121.908 -2.47731 0.706183 0
M  V30 1336 H 121.866 -2.99955 -0.942038 0
M  V30 1337 N 125.638 -1.25649 -0.95132 0
M  V30 1338 C 126.887 -1.09988 -1.69073 0
M  V30 1339 C 127.2 0.358355 -1.92289 0
M  V30 1340 O 128.406 0.635466 -2.63958 0
M  V30 1341 C 126.862 -1.92012 -3.044 0
M  V30 1342 C 126.47 -3.42347 -2.88968 0
M  V30 1343 C 128.214 -1.8493 -3.82101 0
M  V30 1344 C 126.121 -4.16655 -4.19705 0
M  V30 1345 H 125.051 -0.407993 -0.63408 0
M  V30 1346 H 127.702 -1.49873 -1.05879 0
M  V30 1347 H 126.084 -1.44952 -3.68517 0
M  V30 1348 H 127.258 -3.97104 -2.33762 0
M  V30 1349 H 125.573 -3.50557 -2.24719 0
M  V30 1350 H 128.17 -2.37739 -4.78941 0
M  V30 1351 H 128.513 -0.817883 -4.08187 0
M  V30 1352 H 129.046 -2.29758 -3.2474 0
M  V30 1353 H 125.785 -5.20224 -3.98807 0
M  V30 1354 H 125.305 -3.66681 -4.74663 0
M  V30 1355 H 126.984 -4.24551 -4.88227 0
M  V30 1356 N 127.117 1.15442 -1.07289 0
M  V30 1357 C 128.05 2.19135 -0.636798 0
M  V30 1358 C 129.028 1.58884 0.34562 0
M  V30 1359 O 130.212 1.86805 0.252195 0
M  V30 1360 C 127.339 3.38638 0.0650014 0
M  V30 1361 C 126.385 4.17412 -0.87576 0
M  V30 1362 S 127.218 4.79882 -2.37642 0
M  V30 1363 C 128.374 6.02753 -1.6864 0
M  V30 1364 H 128.607 2.55787 -1.51526 0
M  V30 1365 H 126.14 1.26394 -0.886793 0
M  V30 1366 H 128.098 4.07873 0.463664 0
M  V30 1367 H 126.759 3.00331 0.919801 0
M  V30 1368 H 125.952 5.02909 -0.33143 0
M  V30 1369 H 125.554 3.53722 -1.21478 0
M  V30 1370 H 127.846 6.70113 -0.997753 0
M  V30 1371 H 128.789 6.61754 -2.51967 0
M  V30 1372 H 129.197 5.52355 -1.16465 0
M  V30 1373 N 128.595 0.856903 1.32268 0
M  V30 1374 C 129.505 0.306131 2.32594 0
M  V30 1375 C 130.521 -0.577209 1.64147 0
M  V30 1376 O 131.697 -0.477043 1.95669 0
M  V30 1377 C 128.762 -0.494561 3.43154 0
M  V30 1378 C 127.823 0.415186 4.27288 0
M  V30 1379 C 127.056 -0.347387 5.32568 0
M  V30 1380 O 127.279 -1.57708 5.48165 0
M  V30 1381 O 126.213 0.287982 6.01211 0
M  V30 1382 H 130.039 1.13737 2.81598 0
M  V30 1383 H 127.624 0.619902 1.35932 0
M  V30 1384 H 129.506 -0.948944 4.10576 0
M  V30 1385 H 128.181 -1.30257 2.96336 0
M  V30 1386 H 127.088 0.917793 3.62667 0
M  V30 1387 H 128.421 1.18844 4.77637 0
M  V30 1388 N 130.073 -1.45103 0.615059 0
M  V30 1389 C 131.021 -2.32331 -0.111791 0
M  V30 1390 C 132.015 -1.46409 -0.852102 0
M  V30 1391 O 133.221 -1.62849 -0.766821 0
M  V30 1392 H 129.596 -0.749993 -0.0549072 0
M  V30 1393 H 131.567 -2.91407 0.642225 0
M  V30 1394 C 130.316 -3.3015 -1.09071 0
M  V30 1395 H 129.639 -3.96265 -0.530485 0
M  V30 1396 H 131.079 -3.93898 -1.56908 0
M  V30 1397 C 129.538 -2.57875 -2.168 0
M  V30 1398 O 130.068 -2.36567 -3.24652 0
M  V30 1399 N 128.274 -2.17884 -1.92289 0
M  V30 1400 H 127.821 -2.35413 -1.04587 0
M  V30 1401 H 127.779 -1.6985 -2.64572 0
M  V30 1402 N 131.551 -0.354651 -1.53558 0
M  V30 1403 C 132.499 0.512195 -2.26891 0
M  V30 1404 C 133.493 1.09263 -1.29452 0
M  V30 1405 O 134.699 1.03709 -1.47121 0
M  V30 1406 H 131.074 0.183878 -0.729173 0
M  V30 1407 H 133.045 -0.128202 -2.98124 0
M  V30 1408 C 131.794 1.64563 -3.06291 0
M  V30 1409 H 131.117 1.20829 -3.81104 0
M  V30 1410 H 132.557 2.22711 -3.60799 0
M  V30 1411 C 131.016 2.58158 -2.16462 0
M  V30 1412 O 131.546 3.60695 -1.76811 0
M  V30 1413 N 129.752 2.27096 -1.81317 0
M  V30 1414 H 129.299 1.43751 -2.1376 0
M  V30 1415 H 129.257 2.89975 -1.21498 0
M  V30 1416 N 133.029 1.57378 -0.0835403 0
M  V30 1417 C 134.257 1.98263 0.59157 0
M  V30 1418 C 134.672 0.962302 1.62435 0
M  V30 1419 O 134.029 -0.049581 1.82433 0
M  V30 1420 C 134.08 3.39214 1.24965 0
M  V30 1421 O 133.801 4.37339 0.258186 0
M  V30 1422 C 135.302 3.95038 2.01147 0
M  V30 1423 H 132.522 0.651773 0.159477 0
M  V30 1424 H 135.066 2.03878 -0.159415 0
M  V30 1425 H 133.221 3.34649 1.95164 0
M  V30 1426 H 133.635 5.19371 0.731734 0
M  V30 1427 H 135.109 4.95848 2.42567 0
M  V30 1428 H 135.586 3.32222 2.87272 0
M  V30 1429 H 136.192 4.0304 1.35789 0
M  V30 1430 N 134.507 -0.190092 1.56449 0
M  V30 1431 C 135.439 -1.25973 1.91477 0
M  V30 1432 C 136.452 -1.41452 0.805931 0
M  V30 1433 O 137.641 -1.41789 1.08435 0
M  V30 1434 C 134.741 -2.63117 2.13594 0
M  V30 1435 C 133.914 -2.69182 3.4476 0
M  V30 1436 C 132.973 -3.87557 3.5593 0
M  V30 1437 O 131.999 -3.74427 4.28711 0
M  V30 1438 N 133.201 -5.03224 2.89388 0
M  V30 1439 H 135.966 -0.962394 2.83828 0
M  V30 1440 H 133.527 -0.379981 1.57378 0
M  V30 1441 H 135.519 -3.40742 2.1835 0
M  V30 1442 H 134.089 -2.85319 1.27719 0
M  V30 1443 H 133.309 -1.77793 3.51828 0
M  V30 1444 H 134.597 -2.70229 4.31107 0
M  V30 1445 H 133.995 -5.16791 2.30094 0
M  V30 1446 H 132.552 -5.78778 2.99764 0
M  V30 1447 N 135.985 -1.50799 -0.457987 0
M  V30 1448 C 137.231 -1.63648 -1.20792 0
M  V30 1449 C 137.586 -0.338662 -1.89396 0
M  V30 1450 O 136.879 0.664291 -1.79716 0
M  V30 1451 C 137.073 -2.76358 -2.2663 0
M  V30 1452 C 136.902 -4.16974 -1.68411 0
M  V30 1453 C 135.672 -4.83199 -1.47807 0
M  V30 1454 C 137.87 -5.00774 -1.17176 0
M  V30 1455 N 135.852 -6.07991 -0.849692 0
M  V30 1456 C 137.223 -6.16397 -0.667403 0
M  V30 1457 C 139.278 -4.86452 -1.06155 0
M  V30 1458 C 137.981 -7.19272 -0.0636908 0
M  V30 1459 C 140.007 -5.89515 -0.471759 0
M  V30 1460 C 139.369 -7.04397 0.0221557 0
M  V30 1461 H 135.468 -0.652888 -0.43042 0
M  V30 1462 H 138.052 -1.87962 -0.507785 0
M  V30 1463 H 136.223 -2.53744 -2.94056 0
M  V30 1464 H 137.955 -2.78496 -2.93636 0
M  V30 1465 H 134.71 -4.40714 -1.73403 0
M  V30 1466 H 135.134 -6.74733 -0.553537 0
M  V30 1467 H 139.776 -3.97907 -1.42932 0
M  V30 1468 H 137.494 -8.07481 0.316253 0
M  V30 1469 H 141.08 -5.805 -0.388671 0
M  V30 1470 H 139.96 -7.82782 0.471375 0
M  V30 1471 N 137.463 0.71206 -1.40597 0
M  V30 1472 C 138.393 1.83889 -1.43899 0
M  V30 1473 C 139.374 1.67442 -0.299504 0
M  V30 1474 O 140.559 1.87421 -0.508624 0
M  V30 1475 C 137.689 3.21877 -1.30431 0
M  V30 1476 C 136.643 3.53002 -2.42019 0
M  V30 1477 C 135.969 4.90172 -2.13626 0
M  V30 1478 C 137.269 3.53643 -3.84362 0
M  V30 1479 H 138.963 1.81383 -2.38203 0
M  V30 1480 H 136.509 0.871237 -1.14654 0
M  V30 1481 H 138.462 4.00404 -1.31357 0
M  V30 1482 H 137.186 3.24968 -0.326049 0
M  V30 1483 H 135.845 2.76818 -2.40349 0
M  V30 1484 H 135.493 4.89869 -1.14182 0
M  V30 1485 H 135.193 5.11962 -2.88389 0
M  V30 1486 H 136.717 5.71028 -2.1624 0
M  V30 1487 H 138.131 4.22203 -3.87837 0
M  V30 1488 H 136.528 3.86961 -4.58673 0
M  V30 1489 H 137.598 2.52954 -4.13693 0
M  V30 1490 N 138.941 1.26152 0.944643 0
M  V30 1491 C 139.874 1.01729 2.04271 0
M  V30 1492 C 140.852 -0.0568101 1.62501 0
M  V30 1493 O 142.036 0.0848987 1.88309 0
M  V30 1494 C 139.163 0.539792 3.34371 0
M  V30 1495 C 138.209 1.60593 3.9511 0
M  V30 1496 S 139.042 3.19392 4.29825 0
M  V30 1497 C 140.198 2.73402 5.63029 0
M  V30 1498 H 140.431 1.94703 2.24673 0
M  V30 1499 H 137.964 1.09793 1.08558 0
M  V30 1500 H 139.922 0.270956 4.09605 0
M  V30 1501 H 138.583 -0.369609 3.11918 0
M  V30 1502 H 137.776 1.22275 4.88943 0
M  V30 1503 H 137.378 1.82596 3.26397 0
M  V30 1504 H 139.67 2.1765 6.41588 0
M  V30 1505 H 140.613 3.65913 6.06229 0
M  V30 1506 H 141.021 2.13077 5.22741 0
M  V30 1507 N 140.419 -1.14872 1.07899 0
M  V30 1508 C 141.366 -2.19791 0.704319 0
M  V30 1509 C 142.336 -1.63238 -0.306987 0
M  V30 1510 O 143.521 -1.8983 -0.192171 0
M  V30 1511 C 140.661 -3.44911 0.114244 0
M  V30 1512 C 139.774 -4.15637 1.1777 0
M  V30 1513 C 138.909 -5.28324 0.552037 0
M  V30 1514 C 137.948 -5.90875 1.59789 0
M  V30 1515 N 137.085 -6.95022 0.994404 0
M  V30 1516 H 141.925 -2.5119 1.60336 0
M  V30 1517 H 139.462 -1.23356 0.801352 0
M  V30 1518 H 141.42 -4.16477 -0.245544 0
M  V30 1519 H 140.05 -3.14011 -0.74813 0
M  V30 1520 H 139.102 -3.42512 1.65499 0
M  V30 1521 H 140.414 -4.5823 1.97046 0
M  V30 1522 H 139.568 -6.06538 0.1402 0
M  V30 1523 H 138.307 -4.86939 -0.272431 0
M  V30 1524 H 137.312 -5.11369 2.01945 0
M  V30 1525 H 138.537 -6.34337 2.42474 0
M  V30 1526 H 136.483 -6.55722 0.190939 0
M  V30 1527 H 136.4 -7.36073 1.72432 0
M  V30 1528 H 137.668 -7.77123 0.608253 0
M  V30 1529 N 141.898 -0.863906 -1.31812 0
M  V30 1530 C 142.828 -0.330843 -2.31144 0
M  V30 1531 C 143.809 0.575005 -1.60087 0
M  V30 1532 O 144.994 0.493304 -1.8783 0
M  V30 1533 C 142.124 0.47374 -3.44054 0
M  V30 1534 C 141.078 -0.338481 -4.26659 0
M  V30 1535 C 140.404 0.591412 -5.31419 0
M  V30 1536 C 141.704 -1.56926 -4.98168 0
M  V30 1537 H 143.398 -1.16086 -2.75979 0
M  V30 1538 H 140.944 -0.559657 -1.32679 0
M  V30 1539 H 142.897 0.857143 -4.12591 0
M  V30 1540 H 141.621 1.33721 -2.9797 0
M  V30 1541 H 140.28 -0.703754 -3.59782 0
M  V30 1542 H 139.928 1.45199 -4.81587 0
M  V30 1543 H 139.628 0.0519022 -5.87577 0
M  V30 1544 H 141.152 0.97179 -6.02817 0
M  V30 1545 H 142.566 -1.25764 -5.59336 0
M  V30 1546 H 140.963 -2.04739 -5.64094 0
M  V30 1547 H 142.033 -2.32544 -4.25501 0
M  V30 1548 N 143.376 1.44774 -0.622745 0
M  V30 1549 C 144.286 2.34433 0.0886031 0
M  V30 1550 C 145.302 1.52131 0.844529 0
M  V30 1551 O 146.478 1.84886 0.798691 0
M  V30 1552 C 143.543 3.29986 1.0635 0
M  V30 1553 C 142.604 4.28195 0.307873 0
M  V30 1554 C 141.837 5.19183 1.23633 0
M  V30 1555 O 142.06 5.13918 2.47476 0
M  V30 1556 O 140.994 5.97515 0.725189 0
M  V30 1557 H 144.82 2.96693 -0.648599 0
M  V30 1558 H 142.405 1.44408 -0.382957 0
M  V30 1559 H 144.287 3.88825 1.6246 0
M  V30 1560 H 142.962 2.70269 1.78146 0
M  V30 1561 H 141.869 3.72927 -0.296064 0
M  V30 1562 H 143.202 4.90808 -0.3699 0
M  V30 1563 N 144.854 0.36279 1.53368 0
M  V30 1564 C 145.802 -0.500155 2.27159 0
M  V30 1565 C 146.796 -1.08575 1.3003 0
M  V30 1566 O 148.002 -1.02927 1.47668 0
M  V30 1567 H 144.377 -0.180009 0.730138 0
M  V30 1568 H 146.348 0.14401 2.98052 0
M  V30 1569 C 145.097 -1.62937 3.07159 0
M  V30 1570 H 144.42 -1.18806 3.8174 0
M  V30 1571 H 145.86 -2.20795 3.61975 0
M  V30 1572 C 144.319 -2.57007 2.17829 0
M  V30 1573 O 144.849 -3.59752 1.78721 0
M  V30 1574 N 143.055 -2.26131 1.82518 0
M  V30 1575 H 142.602 -1.42616 2.14519 0
M  V30 1576 H 142.56 -2.89327 1.23034 0
M  V30 1577 N 146.332 -1.57332 0.0918853 0
M  V30 1578 C 147.562 -1.98286 -0.580205 0
M  V30 1579 C 147.97 -0.969713 -1.6246 0
M  V30 1580 O 147.313 0.0493501 -1.83634 0
M  V30 1581 C 147.375 -3.35603 -1.28882 0
M  V30 1582 C 147.039 -4.55285 -0.395559 0
M  V30 1583 C 148.036 -5.18687 0.355002 0
M  V30 1584 C 145.721 -5.01314 -0.314556 0
M  V30 1585 C 147.715 -6.26484 1.17458 0
M  V30 1586 C 145.402 -6.08979 0.508677 0
M  V30 1587 C 146.4 -6.71429 1.2519 0
M  V30 1588 O 146.088 -7.77018 2.06151 0
M  V30 1589 H 145.82 -0.656678 -0.160466 0
M  V30 1590 H 148.374 -2.04721 0.16688 0
M  V30 1591 H 146.604 -3.25842 -2.08241 0
M  V30 1592 H 148.293 -3.61026 -1.85512 0
M  V30 1593 H 149.059 -4.84058 0.302134 0
M  V30 1594 H 144.938 -4.5247 -0.882697 0
M  V30 1595 H 148.482 -6.75159 1.75518 0
M  V30 1596 H 144.379 -6.4304 0.563037 0
M  V30 1597 H 145.147 -7.93991 1.98799 0
M  V30 1598 N 147.81 0.181792 -1.56548 0
M  V30 1599 C 149.059 0.898348 -1.8059 0
M  V30 1600 C 149.372 1.83862 -0.667379 0
M  V30 1601 O 150.578 2.59678 -0.792446 0
M  V30 1602 C 149.034 1.64791 -3.19956 0
M  V30 1603 C 148.642 0.751789 -4.41647 0
M  V30 1604 C 150.386 2.35331 -3.53298 0
M  V30 1605 C 148.293 1.50098 -5.72035 0
M  V30 1606 H 147.223 0.339194 -0.673397 0
M  V30 1607 H 149.874 0.151413 -1.82874 0
M  V30 1608 H 148.256 2.43921 -3.11959 0
M  V30 1609 H 149.43 -0.0018076 -4.608 0
M  V30 1610 H 147.745 0.156562 -4.16106 0
M  V30 1611 H 150.342 2.91958 -4.47956 0
M  V30 1612 H 150.685 3.10164 -2.77676 0
M  V30 1613 H 151.218 1.63154 -3.62803 0
M  V30 1614 H 147.957 0.795175 -6.50659 0
M  V30 1615 H 147.477 2.22817 -5.56878 0
M  V30 1616 H 149.156 2.05125 -6.13622 0
M  V30 1617 N 149.288 1.51039 0.449983 0
M  V30 1618 C 150.22 1.67617 1.56324 0
M  V30 1619 C 151.233 0.557083 1.52972 0
M  V30 1620 O 152.422 0.830989 1.57977 0
M  V30 1621 C 149.522 1.66402 2.95235 0
M  V30 1622 C 148.695 2.9469 3.23229 0
M  V30 1623 C 147.754 2.85832 4.41799 0
M  V30 1624 O 146.78 3.59785 4.41071 0
M  V30 1625 N 147.982 2.00821 5.44657 0
M  V30 1626 H 150.747 2.63648 1.42512 0
M  V30 1627 H 148.308 1.48767 0.638737 0
M  V30 1628 H 150.3 1.58062 3.72557 0
M  V30 1629 H 148.87 0.780182 3.02708 0
M  V30 1630 H 148.09 3.16996 2.34323 0
M  V30 1631 H 149.378 3.79636 3.38754 0
M  V30 1632 H 148.776 1.40091 5.48079 0
M  V30 1633 H 147.333 1.98368 6.20881 0
M  V30 1634 N 150.766 -0.704594 1.40972 0
M  V30 1635 C 152.043 -1.45847 1.30338 0
M  V30 1636 C 152.423 -2.10973 -0.0732344 0
M  V30 1637 O 151.771 -2.00997 -1.08685 0
M  V30 1638 C 151.981 -2.48525 2.45023 0
M  V30 1639 C 153.329 -3.1404 2.8577 0
M  V30 1640 O 154.353 -2.58848 2.44696 0
M  V30 1641 O 153.212 -4.13981 3.56766 0
M  V30 1642 H 150.306 -0.649092 0.512454 0
M  V30 1643 H 152.852 -0.735836 1.52917 0
M  V30 1644 H 151.624 -1.98994 3.36923 0
M  V30 1645 H 151.247 -3.2831 2.24272 0
M  V30 1646 N 152.244 -1.26651 -0.937939 0
M  V30 1647 C 153.192 -1.08308 -2.05845 0
M  V30 1648 C 154.186 -0.0090757 -1.69398 0
M  V30 1649 O 155.392 -0.166007 -1.79233 0
M  V30 1650 H 151.767 -0.333416 -0.674046 0
M  V30 1651 H 153.738 -2.03261 -2.18467 0
M  V30 1652 C 152.487 -0.736229 -3.39816 0
M  V30 1653 H 151.81 -1.55453 -3.6834 0
M  V30 1654 H 153.25 -0.64769 -4.19024 0
M  V30 1655 C 151.709 0.558824 -3.32233 0
M  V30 1656 O 152.239 1.59621 -3.68624 0
M  V30 1657 N 150.445 0.550657 -2.85335 0
M  V30 1658 H 149.992 -0.293943 -2.55917 0
M  V30 1659 H 149.95 1.41726 -2.80644 0
M  V30 1660 N 153.722 1.14298 -1.08507 0
M  V30 1661 C 154.655 2.18447 -0.660004 0
M  V30 1662 C 155.633 1.59242 0.328749 0
M  V30 1663 O 156.817 1.87062 0.232367 0
M  V30 1664 C 153.944 3.38688 0.0290807 0
M  V30 1665 C 152.99 4.1646 -0.919982 0
M  V30 1666 S 153.823 4.77334 -2.42718 0
M  V30 1667 C 154.979 6.00931 -1.75024 0
M  V30 1668 H 155.212 2.54166 -1.54231 0
M  V30 1669 H 152.745 1.25446 -0.900149 0
M  V30 1670 H 154.703 4.08342 0.420378 0
M  V30 1671 H 153.364 3.01289 0.887895 0
M  V30 1672 H 152.557 5.02529 -0.384751 0
M  V30 1673 H 152.159 3.52414 -1.25223 0
M  V30 1674 H 154.451 6.69017 -1.06877 0
M  V30 1675 H 155.394 6.59044 -2.58971 0
M  V30 1676 H 155.802 5.51089 -1.22317 0
M  V30 1677 N 155.201 0.870884 1.31352 0
M  V30 1678 C 156.148 0.325425 2.28494 0
M  V30 1679 C 157.118 -0.576615 1.5577 0
M  V30 1680 O 158.303 -0.508059 1.83911 0
M  V30 1681 C 155.443 -0.466283 3.41935 0
M  V30 1682 C 154.556 0.463378 4.29508 0
M  V30 1683 C 153.691 -0.342544 5.30094 0
M  V30 1684 C 152.73 0.583486 6.09313 0
M  V30 1685 N 151.867 -0.186244 7.01853 0
M  V30 1686 H 156.707 1.15901 2.74538 0
M  V30 1687 H 154.244 0.58294 1.35056 0
M  V30 1688 H 156.202 -0.941085 4.06447 0
M  V30 1689 H 154.832 -1.26456 2.97 0
M  V30 1690 H 153.884 1.05663 3.65431 0
M  V30 1691 H 155.196 1.1734 4.84802 0
M  V30 1692 H 154.35 -0.879816 6.00287 0
M  V30 1693 H 153.089 -1.08585 4.75458 0
M  V30 1694 H 152.094 1.13251 5.3801 0
M  V30 1695 H 153.319 1.32566 6.66035 0
M  V30 1696 H 151.265 -0.912348 6.49625 0
M  V30 1697 H 151.182 0.464422 7.54572 0
M  V30 1698 H 152.45 -0.704716 7.76308 0
M  V30 1699 N 156.679 -1.44442 0.630414 0
M  V30 1700 C 157.626 -2.30678 -0.0749355 0
M  V30 1701 C 158.596 -1.4344 -0.837502 0
M  V30 1702 O 159.781 -1.72343 -0.818684 0
M  V30 1703 C 156.921 -3.28706 -1.05103 0
M  V30 1704 C 156.034 -4.31046 -0.286954 0
M  V30 1705 C 155.169 -5.16167 -1.2548 0
M  V30 1706 C 154.208 -6.10216 -0.479843 0
M  V30 1707 N 153.345 -6.88039 -1.39811 0
M  V30 1708 H 158.185 -2.90454 0.666386 0
M  V30 1709 H 155.722 -1.43107 0.340404 0
M  V30 1710 H 157.68 -3.84027 -1.63031 0
M  V30 1711 H 156.31 -2.70632 -1.75949 0
M  V30 1712 H 155.362 -3.78203 0.408243 0
M  V30 1713 H 156.674 -4.97794 0.316657 0
M  V30 1714 H 155.828 -5.76002 -1.90544 0
M  V30 1715 H 154.567 -4.49491 -1.89233 0
M  V30 1716 H 153.572 -5.49491 0.184295 0
M  V30 1717 H 154.797 -6.78928 0.152965 0
M  V30 1718 H 152.743 -6.24032 -2.02287 0
M  V30 1719 H 152.66 -7.51223 -0.848508 0
M  V30 1720 H 153.928 -7.52397 -2.03762 0
M  V30 1721 N 158.157 -0.370918 -1.53173 0
M  V30 1722 C 159.067 0.480823 -2.2962 0
M  V30 1723 C 160.083 1.08789 -1.35798 0
M  V30 1724 O 161.259 1.09768 -1.68858 0
M  V30 1725 C 158.324 1.60227 -3.07454 0
M  V30 1726 C 157.385 1.0222 -4.16953 0
M  V30 1727 C 156.618 2.0902 -4.91066 0
M  V30 1728 O 156.841 3.30222 -4.65091 0
M  V30 1729 O 155.775 1.71778 -5.76867 0
M  V30 1730 H 159.601 -0.141421 -3.03371 0
M  V30 1731 H 157.186 -0.135146 -1.48787 0
M  V30 1732 H 159.068 2.25417 -3.56041 0
M  V30 1733 H 157.743 2.20982 -2.36535 0
M  V30 1734 H 156.65 0.334064 -3.72605 0
M  V30 1735 H 157.983 0.459131 -4.90054 0
M  V30 1736 N 159.635 1.57281 -0.100228 0
M  V30 1737 C 160.568 2.09976 0.893612 0
M  V30 1738 C 161.546 1.01155 1.27304 0
M  V30 1739 O 162.73 1.28687 1.37739 0
M  V30 1740 C 159.857 2.58098 2.19324 0
M  V30 1741 C 158.903 3.78626 1.96328 0
M  V30 1742 S 159.736 5.21959 1.19662 0
M  V30 1743 C 160.892 5.73435 2.50844 0
M  V30 1744 H 161.125 2.93946 0.44534 0
M  V30 1745 H 158.658 1.53985 0.113167 0
M  V30 1746 H 160.616 2.8648 2.94005 0
M  V30 1747 H 159.277 1.74344 2.61272 0
M  V30 1748 H 158.47 4.10382 2.92579 0
M  V30 1749 H 158.072 3.50763 1.29775 0
M  V30 1750 H 160.364 5.82015 3.46792 0
M  V30 1751 H 161.307 6.7185 2.23659 0
M  V30 1752 H 161.715 5.01395 2.59352 0
M  V30 1753 N 161.113 -0.173488 1.56642 0
M  V30 1754 C 162.359 -0.891784 1.8214 0
M  V30 1755 C 162.692 -1.8199 0.677736 0
M  V30 1756 O 161.967 -1.91842 -0.320446 0
M  V30 1757 C 162.25 -1.68933 3.18015 0
M  V30 1758 C 162.103 -0.784487 4.42906 0
M  V30 1759 C 163.422 -2.65748 3.50808 0
M  V30 1760 H 160.541 -0.322761 0.662567 0
M  V30 1761 H 163.183 -0.158095 1.89341 0
M  V30 1762 H 161.333 -2.31482 3.12007 0
M  V30 1763 H 163.005 -0.172046 4.60979 0
M  V30 1764 H 161.248 -0.0924117 4.33702 0
M  V30 1765 H 161.919 -1.37799 5.34524 0
M  V30 1766 H 164.395 -2.13327 3.57255 0
M  V30 1767 H 163.271 -3.18619 4.4696 0
M  V30 1768 H 163.532 -3.45842 2.75401 0
M  V30 1769 N 162.591 -1.51276 -0.441967 0
M  V30 1770 C 163.501 -1.75092 -1.56141 0
M  V30 1771 C 164.517 -0.634963 -1.62001 0
M  V30 1772 O 165.693 -0.916686 -1.79329 0
M  V30 1773 C 162.758 -1.86666 -2.92158 0
M  V30 1774 C 161.819 -3.10506 -2.96453 0
M  V30 1775 C 161.052 -3.21519 -4.25982 0
M  V30 1776 O 161.275 -2.38586 -5.18105 0
M  V30 1777 O 160.209 -4.14465 -4.36466 0
M  V30 1778 H 164.035 -2.70044 -1.38961 0
M  V30 1779 H 161.62 -1.35722 -0.624499 0
M  V30 1780 H 163.502 -1.96292 -3.72891 0
M  V30 1781 H 162.177 -0.949014 -3.09476 0
M  V30 1782 H 161.084 -3.06363 -2.14692 0
M  V30 1783 H 162.417 -4.01945 -2.84079 0
M  V30 1784 N 164.069 0.697108 -1.41344 0
M  V30 1785 C 165.318 1.45279 -1.39918 0
M  V30 1786 C 165.631 1.95597 -0.0109624 0
M  V30 1787 O 166.837 2.71208 0.125919 0
M  V30 1788 C 165.293 2.62695 -2.46007 0
M  V30 1789 C 164.901 2.19169 -3.90729 0
M  V30 1790 C 166.645 3.40336 -2.53715 0
M  V30 1791 C 164.552 3.33535 -4.88373 0
M  V30 1792 H 163.482 0.545692 -0.520323 0
M  V30 1793 H 166.133 0.756929 -1.67161 0
M  V30 1794 H 164.515 3.34541 -2.11892 0
M  V30 1795 H 165.689 1.54623 -4.34083 0
M  V30 1796 H 164.004 1.54525 -3.86666 0
M  V30 1797 H 166.601 4.2547 -3.2385 0
M  V30 1798 H 166.944 3.85418 -1.5735 0
M  V30 1799 H 167.477 2.75546 -2.86913 0
M  V30 1800 H 164.216 2.93468 -5.86137 0
M  V30 1801 H 163.736 3.96936 -4.49668 0
M  V30 1802 H 165.415 3.99335 -5.09059 0
M  V30 1803 N 165.547 1.27147 0.931209 0
M  V30 1804 C 166.479 1.05364 2.03546 0
M  V30 1805 C 167.492 0.0108438 1.62796 0
M  V30 1806 O 168.681 0.25202 1.76712 0
M  V30 1807 C 165.781 0.575566 3.33977 0
M  V30 1808 C 164.954 1.68985 4.03439 0
M  V30 1809 C 164.013 1.20813 5.12143 0
M  V30 1810 O 163.039 1.90712 5.363 0
M  V30 1811 N 164.241 0.0618851 5.80467 0
M  V30 1812 H 167.006 2.00454 2.22796 0
M  V30 1813 H 164.567 1.18666 1.10136 0
M  V30 1814 H 166.559 0.237264 4.04004 0
M  V30 1815 H 165.129 -0.282016 3.11325 0
M  V30 1816 H 164.349 2.19861 3.27192 0
M  V30 1817 H 165.637 2.4378 4.46597 0
M  V30 1818 H 165.035 -0.521621 5.6329 0
M  V30 1819 H 163.592 -0.217264 6.51438 0
M  V30 1820 N 167.025 -1.13721 1.09112 0
M  V30 1821 C 167.957 -2.1871 0.685467 0
M  V30 1822 C 168.97 -1.60527 -0.271068 0
M  V30 1823 O 170.159 -1.78407 -0.0576148 0
M  V30 1824 C 167.259 -3.38898 -0.0111255 0
M  V30 1825 C 166.432 -4.26597 0.966131 0
M  V30 1826 C 165.491 -5.25324 0.303539 0
M  V30 1827 O 164.517 -5.61213 0.950177 0
M  V30 1828 N 165.719 -5.72779 -0.943651 0
M  V30 1829 H 168.484 -2.54126 1.58871 0
M  V30 1830 H 166.045 -1.29012 0.978143 0
M  V30 1831 H 168.037 -4.02014 -0.465517 0
M  V30 1832 H 166.607 -3.01747 -0.816565 0
M  V30 1833 H 165.827 -3.60306 1.59917 0
M  V30 1834 H 167.115 -4.82048 1.6281 0
M  V30 1835 H 166.513 -5.45762 -1.48862 0
M  V30 1836 H 165.07 -6.37847 -1.34142 0
M  V30 1837 N 168.503 -0.877838 -1.30888 0
M  V30 1838 C 169.451 -0.328662 -2.30266 0
M  V30 1839 C 170.445 0.560496 -1.59859 0
M  V30 1840 O 171.651 0.445722 -1.74394 0
M  V30 1841 H 168.026 -0.0876142 -0.746879 0
M  V30 1842 H 169.997 -1.18061 -2.74051 0
M  V30 1843 C 168.746 0.448071 -3.44801 0
M  V30 1844 H 168.069 -0.226859 -3.99156 0
M  V30 1845 H 169.509 0.797541 -4.16432 0
M  V30 1846 C 167.968 1.64239 -2.94155 0
M  V30 1847 O 168.498 2.74175 -2.93583 0
M  V30 1848 N 166.704 1.47716 -2.50256 0
M  V30 1849 H 166.251 0.582821 -2.5092 0
M  V30 1850 H 166.209 2.27765 -2.16727 0
M  V30 1851 N 169.982 1.44106 -0.638065 0
M  V30 1852 C 170.945 2.29138 0.0531013 0
M  V30 1853 C 171.945 1.41409 0.765506 0
M  V30 1854 O 173.135 1.63206 0.609046 0
M  V30 1855 C 170.267 3.23144 1.08584 0
M  V30 1856 H 171.46 2.91739 -0.694883 0
M  V30 1857 H 169.013 1.51134 -0.398538 0
M  V30 1858 H 169.748 2.65408 1.86357 0
M  V30 1859 H 169.533 3.87804 0.578852 0
M  V30 1860 H 171.023 3.87004 1.56899 0
M  V30 1861 N 171.46 0.379036 1.52974 0
M  V30 1862 C 172.706 -0.206727 2.01744 0
M  V30 1863 C 173.039 -1.47314 1.26539 0
M  V30 1864 O 172.314 -1.91084 0.362903 0
M  V30 1865 C 172.597 -0.485066 3.56818 0
M  V30 1866 C 172.45 0.795919 4.42702 0
M  V30 1867 C 173.769 -1.28003 4.21074 0
M  V30 1868 H 170.888 -0.0736607 0.73331 0
M  V30 1869 H 173.53 0.506581 1.83122 0
M  V30 1870 H 171.68 -1.09272 3.72816 0
M  V30 1871 H 173.352 1.43307 4.38476 0
M  V30 1872 H 171.595 1.41344 4.10127 0
M  V30 1873 H 172.266 0.555947 5.49193 0
M  V30 1874 H 174.742 -0.765867 4.08991 0
M  V30 1875 H 173.618 -1.44352 5.29579 0
M  V30 1876 H 173.879 -2.29236 3.78026 0
M  V30 1877 N 172.938 -1.57226 0.108567 0
M  V30 1878 C 173.87 -2.11809 -0.875752 0
M  V30 1879 C 174.883 -1.05839 -1.23701 0
M  V30 1880 O 176.072 -1.33245 -1.18778 0
M  V30 1881 C 173.172 -2.59411 -2.18081 0
M  V30 1882 C 172.345 -3.89364 -1.99284 0
M  V30 1883 C 171.404 -4.22672 -3.13424 0
M  V30 1884 O 170.43 -4.91668 -2.86795 0
M  V30 1885 N 171.632 -3.79154 -4.3957 0
M  V30 1886 H 174.397 -2.9689 -0.409477 0
M  V30 1887 H 171.958 -1.61721 -0.076158 0
M  V30 1888 H 173.95 -2.7873 -2.93414 0
M  V30 1889 H 172.52 -1.79268 -2.5609 0
M  V30 1890 H 171.74 -3.79059 -1.08203 0
M  V30 1891 H 173.028 -4.74358 -1.84017 0
M  V30 1892 H 172.426 -3.23486 -4.64083 0
M  V30 1893 H 170.983 -4.03602 -5.11809 0
M  V30 1894 N 174.416 0.165178 -1.56732 0
M  V30 1895 C 175.364 1.22369 -1.97809 0
M  V30 1896 C 176.358 1.45488 -0.867741 0
M  V30 1897 O 177.564 1.45995 -1.05288 0
M  V30 1898 H 173.939 0.411486 -0.629431 0
M  V30 1899 H 175.91 0.850425 -2.86025 0
M  V30 1900 C 174.659 2.55403 -2.35934 0
M  V30 1901 H 173.982 2.38438 -3.20916 0
M  V30 1902 H 175.422 3.2814 -2.68514 0
M  V30 1903 C 173.881 3.14611 -1.20506 0
M  V30 1904 O 174.411 3.98626 -0.496016 0
M  V30 1905 N 172.617 2.7379 -0.97403 0
M  V30 1906 H 172.164 2.0557 -1.55238 0
M  V30 1907 H 172.122 3.1374 -0.203573 0
M  V30 1908 N 175.894 1.51508 0.433938 0
M  V30 1909 C 176.826 1.69266 1.54537 0
M  V30 1910 C 177.839 0.573276 1.52373 0
M  V30 1911 O 179.028 0.847698 1.57087 0
M  V30 1912 C 176.128 1.69524 2.93453 0
M  V30 1913 C 175.301 2.98101 3.20085 0
M  V30 1914 C 174.36 2.90502 4.38742 0
M  V30 1915 O 173.386 3.64442 4.3723 0
M  V30 1916 N 174.588 2.06586 5.42496 0
M  V30 1917 H 177.353 2.65145 1.39708 0
M  V30 1918 H 174.914 1.49437 0.622922 0
M  V30 1919 H 176.906 1.62004 3.70859 0
M  V30 1920 H 175.476 0.812245 3.01863 0
M  V30 1921 H 174.696 3.19464 2.30947 0
M  V30 1922 H 175.984 3.83207 3.34708 0
M  V30 1923 H 175.382 1.45896 5.46563 0
M  V30 1924 H 173.939 2.04943 6.18742 0
M  V30 1925 N 177.372 -0.689602 1.41712 0
M  V30 1926 C 178.6 -1.47827 1.44758 0
M  V30 1927 C 179.015 -1.88721 0.0545703 0
M  V30 1928 O 178.372 -1.57176 -0.927463 0
M  V30 1929 C 178.423 -2.73698 2.3616 0
M  V30 1930 O 178.144 -2.34524 3.7004 0
M  V30 1931 C 179.645 -3.67389 2.48072 0
M  V30 1932 H 176.865 -0.455357 0.49284 0
M  V30 1933 H 179.409 -0.848574 1.86063 0
M  V30 1934 H 177.564 -3.32891 1.98148 0
M  V30 1935 H 177.978 -3.15701 4.18847 0
M  V30 1936 H 179.452 -4.52475 3.16181 0
M  V30 1937 H 179.929 -4.12284 1.51388 0
M  V30 1938 H 180.535 -3.14097 2.86746 0
M  V30 1939 N 178.85 -1.27639 -0.924453 0
M  V30 1940 C 179.813 -1.10681 -2.00705 0
M  V30 1941 C 180.813 -0.0497823 -1.60723 0
M  V30 1942 O 182.003 -0.294654 -1.7169 0
M  V30 1943 C 179.135 -0.687164 -3.33902 0
M  V30 1944 H 180.328 -2.06817 -2.17179 0
M  V30 1945 H 177.881 -1.10473 -1.10569 0
M  V30 1946 H 178.616 0.275439 -3.23128 0
M  V30 1947 H 178.401 -1.45061 -3.6428 0
M  V30 1948 H 179.891 -0.590853 -4.13399 0
M  V30 1949 N 180.328 1.1314 -1.09713 0
M  V30 1950 C 181.574 1.84757 -0.836224 0
M  V30 1951 C 181.907 1.8347 0.636598 0
M  V30 1952 O 181.182 1.27491 1.46889 0
M  V30 1953 C 181.465 3.32782 -1.37578 0
M  V30 1954 C 181.318 3.42567 -2.91493 0
M  V30 1955 C 182.637 4.28307 -1.01198 0
M  V30 1956 H 179.756 0.67082 -0.305236 0
M  V30 1957 H 182.398 1.3278 -1.35903 0
M  V30 1958 H 180.548 3.77177 -0.931097 0
M  V30 1959 H 182.22 3.06862 -3.44432 0
M  V30 1960 H 180.463 2.83349 -3.28475 0
M  V30 1961 H 181.134 4.46674 -3.24324 0
M  V30 1962 H 183.61 3.91999 -1.39556 0
M  V30 1963 H 182.486 5.30307 -1.41653 0
M  V30 1964 H 182.747 4.42029 0.0794833 0
M  V30 1965 N 181.806 0.884767 1.30421 0
M  V30 1966 C 182.739 0.295999 2.26272 0
M  V30 1967 C 183.717 -0.58332 1.51777 0
M  V30 1968 O 184.901 -0.53346 1.80794 0
M  V30 1969 C 182.028 -0.57944 3.33707 0
M  V30 1970 C 181.074 0.230525 4.25877 0
M  V30 1971 S 181.907 1.61867 5.1045 0
M  V30 1972 C 183.063 0.749756 6.21393 0
M  V30 1973 H 183.296 1.10848 2.75862 0
M  V30 1974 H 180.829 0.684178 1.38414 0
M  V30 1975 H 182.787 -1.07879 3.96071 0
M  V30 1976 H 181.448 -1.36601 2.82841 0
M  V30 1977 H 180.641 -0.437542 5.02097 0
M  V30 1978 H 180.243 0.662493 3.68086 0
M  V30 1979 H 182.535 -0.0333547 6.77492 0
M  V30 1980 H 183.478 1.48356 6.92384 0
M  V30 1981 H 183.886 0.310751 5.63644 0
M  V30 1982 N 183.284 -1.43765 0.645699 0
M  V30 1983 C 184.533 -2.01116 0.153412 0
M  V30 1984 C 184.846 -1.51493 -1.23731 0
M  V30 1985 O 186.052 -2.01067 -1.8244 0
M  V30 1986 C 184.508 -3.59206 0.223473 0
M  V30 1987 C 184.116 -4.17823 1.61642 0
M  V30 1988 C 185.86 -4.23972 -0.211597 0
M  V30 1989 C 183.767 -5.68183 1.64081 0
M  V30 1990 H 182.697 -0.752093 0.0535891 0
M  V30 1991 H 185.348 -1.6482 0.806633 0
M  V30 1992 H 183.73 -3.92867 -0.497118 0
M  V30 1993 H 184.904 -3.95674 2.36176 0
M  V30 1994 H 183.219 -3.65399 1.99681 0
M  V30 1995 H 185.816 -5.34275 -0.213112 0
M  V30 1996 H 186.159 -3.97352 -1.24165 0
M  V30 1997 H 186.692 -3.95166 0.456988 0
M  V30 1998 H 183.431 -5.99559 2.64971 0
M  V30 1999 H 182.951 -5.9241 0.938611 0
M  V30 2000 H 184.63 -6.32085 1.3812 0
M  V30 2001 N 184.763 -0.387143 -1.52771 0
M  V30 2002 C 185.673 0.456442 -2.30117 0
M  V30 2003 C 186.689 1.07342 -1.36944 0
M  V30 2004 O 187.865 1.07971 -1.70013 0
M  V30 2005 C 184.93 1.56957 -3.09136 0
M  V30 2006 C 183.991 0.977916 -4.18014 0
M  V30 2007 C 183.224 2.038 -4.93256 0
M  V30 2008 O 183.447 3.25271 -4.68567 0
M  V30 2009 O 182.381 1.6565 -5.78657 0
M  V30 2010 H 186.207 -0.17359 -3.03203 0
M  V30 2011 H 183.792 -0.150919 -1.48636 0
M  V30 2012 H 185.674 2.21628 -3.58412 0
M  V30 2013 H 184.349 2.18461 -2.38865 0
M  V30 2014 H 183.256 0.294525 -3.72939 0
M  V30 2015 H 184.589 0.407128 -4.90513 0
M  V30 2016 N 186.241 1.57166 -0.116904 0
M  V30 2017 C 187.49 1.94298 0.541407 0
M  V30 2018 C 187.803 1.00236 1.67964 0
M  V30 2019 O 189.009 1.26826 2.40057 0
M  V30 2020 C 187.465 3.45306 1.01449 0
M  V30 2021 C 187.073 4.47899 -0.0951738 0
M  V30 2022 C 188.817 3.91361 1.6443 0
M  V30 2023 C 186.724 5.90083 0.394491 0
M  V30 2024 H 185.654 0.725308 0.206019 0
M  V30 2025 H 188.305 1.82446 -0.196419 0
M  V30 2026 H 186.687 3.52385 1.80667 0
M  V30 2027 H 187.861 4.52486 -0.871374 0
M  V30 2028 H 186.176 4.11583 -0.631505 0
M  V30 2029 H 188.773 4.95004 2.02176 0
M  V30 2030 H 189.116 3.3122 2.52189 0
M  V30 2031 H 189.649 3.87073 0.917559 0
M  V30 2032 H 186.388 6.53974 -0.447004 0
M  V30 2033 H 185.908 5.88921 1.13722 0
M  V30 2034 H 187.587 6.41307 0.856399 0
M  V30 2035 N 187.719 -0.156864 1.56817 0
M  V30 2036 C 188.967 -0.869404 1.82444 0
M  V30 2037 C 189.288 -1.82147 0.69623 0
M  V30 2038 O 188.558 -1.93847 -0.28287 0
M  V30 2039 H 187.138 -0.324043 0.673056 0
M  V30 2040 H 189.8 -0.153224 1.94297 0
M  V30 2041 H 188.896 -1.43761 2.77019 0
M  V30 2042 N 189.197 -1.51736 -0.425897 0
M  V30 2043 C 190.425 -1.68794 -1.1965 0
M  V30 2044 C 190.84 -0.390164 -1.84725 0
M  V30 2045 O 190.197 0.632376 -1.71194 0
M  V30 2046 C 190.248 -2.81174 -2.27208 0
M  V30 2047 O 189.969 -4.05925 -1.64793 0
M  V30 2048 C 191.47 -3.09599 -3.17275 0
M  V30 2049 H 188.69 -0.566128 -0.360194 0
M  V30 2050 H 191.234 -1.98211 -0.503249 0
M  V30 2051 H 189.389 -2.54324 -2.9223 0
M  V30 2052 H 189.803 -4.68423 -2.35967 0
M  V30 2053 H 191.277 -3.91786 -3.88854 0
M  V30 2054 H 191.754 -2.22468 -3.78688 0
M  V30 2055 H 192.36 -3.38151 -2.57941 0
M  V30 2056 N 190.675 0.682077 -1.42076 0
M  V30 2057 C 191.623 1.81707 -1.45208 0
M  V30 2058 C 192.617 1.66183 -0.328591 0
M  V30 2059 O 193.823 1.7288 -0.501264 0
M  V30 2060 H 190.198 0.599014 -0.454628 0
M  V30 2061 H 192.169 1.76183 -2.40836 0
M  V30 2062 C 190.918 3.19816 -1.36428 0
M  V30 2063 H 190.241 3.32385 -2.22171 0
M  V30 2064 H 191.681 3.99272 -1.42681 0
M  V30 2065 C 190.14 3.36809 -0.078191 0
M  V30 2066 O 190.67 3.92124 0.87188 0
M  V30 2067 N 188.876 2.906 0.00229266 0
M  V30 2068 H 188.423 2.45772 -0.771616 0
M  V30 2069 H 188.381 3.02347 0.862179 0
M  V30 2070 N 192.153 1.28127 0.917671 0
M  V30 2071 C 193.083 1.14248 2.03641 0
M  V30 2072 C 194.064 0.0412748 1.7005 0
M  V30 2073 O 195.249 0.217566 1.92977 0
M  V30 2074 C 192.379 0.799431 3.37974 0
M  V30 2075 C 191.333 1.85497 3.85713 0
M  V30 2076 C 190.659 1.36565 5.16966 0
M  V30 2077 C 191.959 3.26085 4.08002 0
M  V30 2078 H 193.653 2.07835 2.15511 0
M  V30 2079 H 191.199 1.00064 1.03553 0
M  V30 2080 H 193.152 0.689114 4.15727 0
M  V30 2081 H 191.876 -0.172145 3.26146 0
M  V30 2082 H 190.535 1.95437 3.10161 0
M  V30 2083 H 190.183 0.383253 5.01538 0
M  V30 2084 H 189.883 2.07143 5.49878 0
M  V30 2085 H 191.407 1.26848 5.97279 0
M  V30 2086 H 192.821 3.19089 4.76293 0
M  V30 2087 H 191.218 3.94462 4.52238 0
M  V30 2088 H 192.288 3.70394 3.12948 0
M  V30 2089 N 193.631 -1.12557 1.10312 0
M  V30 2090 C 194.561 -2.20341 0.772798 0
M  V30 2091 C 195.542 -1.68198 -0.25365 0
M  V30 2092 O 196.727 -1.93831 -0.119699 0
M  V30 2093 C 193.857 -3.46709 0.202443 0
M  V30 2094 C 192.811 -4.11996 1.15943 0
M  V30 2095 C 192.137 -5.328 0.450345 0
M  V30 2096 C 193.437 -4.5828 2.50552 0
M  V30 2097 H 195.131 -2.48229 1.674 0
M  V30 2098 H 192.677 -1.19308 0.806326 0
M  V30 2099 H 194.63 -4.2138 -0.0407752 0
M  V30 2100 H 193.354 -3.18245 -0.734001 0
M  V30 2101 H 192.013 -3.39305 1.38808 0
M  V30 2102 H 191.661 -5.00602 -0.490531 0
M  V30 2103 H 191.361 -5.7743 1.08851 0
M  V30 2104 H 192.885 -6.10219 0.215642 0
M  V30 2105 H 194.299 -5.2433 2.31843 0
M  V30 2106 H 192.696 -5.13683 3.10242 0
M  V30 2107 H 193.766 -3.72329 3.10643 0
M  V30 2108 N 195.109 -0.891671 -1.2995 0
M  V30 2109 C 196.057 -0.353066 -2.29905 0
M  V30 2110 C 197.051 0.543509 -1.60444 0
M  V30 2111 O 198.257 0.4272 -1.74857 0
M  V30 2112 H 194.632 -0.095531 -0.745907 0
M  V30 2113 H 196.603 -1.20961 -2.72784 0
M  V30 2114 C 195.352 0.411475 -3.45257 0
M  V30 2115 H 194.675 -0.269182 -3.98893 0
M  V30 2116 H 196.115 0.753328 -4.17254 0
M  V30 2117 C 194.574 1.6111 -2.9588 0
M  V30 2118 O 195.104 2.71045 -2.96475 0
M  V30 2119 N 193.31 1.45054 -2.51809 0
M  V30 2120 H 192.857 0.556175 -2.51524 0
M  V30 2121 H 192.815 2.25453 -2.1913 0
M  V30 2122 N 196.587 1.43421 -0.653314 0
M  V30 2123 C 197.519 2.29071 0.0769134 0
M  V30 2124 C 198.532 1.42513 0.787017 0
M  V30 2125 O 199.721 1.66449 0.644757 0
M  V30 2126 C 196.821 3.19436 1.13199 0
M  V30 2127 C 195.994 4.34533 0.500006 0
M  V30 2128 C 195.053 5.05771 1.45198 0
M  V30 2129 O 194.079 5.61037 0.960538 0
M  V30 2130 N 195.281 5.0928 2.78594 0
M  V30 2131 H 198.046 2.92382 -0.658235 0
M  V30 2132 H 195.607 1.54112 -0.496104 0
M  V30 2133 H 197.599 3.63958 1.76964 0
M  V30 2134 H 196.169 2.57724 1.7691 0
M  V30 2135 H 195.389 3.92925 -0.316738 0
M  V30 2136 H 196.677 5.08766 0.0588345 0
M  V30 2137 H 196.075 4.65751 3.2108 0
M  V30 2138 H 194.632 5.57519 3.37662 0
M  V30 2139 N 198.065 0.39524 1.52563 0
M  V30 2140 C 199.293 -0.184943 2.06072 0
M  V30 2141 C 199.708 -1.40021 1.26647 0
M  V30 2142 O 199.065 -1.79767 0.314672 0
M  V30 2143 C 199.116 -0.549179 3.57304 0
M  V30 2144 O 198.837 0.617813 4.33722 0
M  V30 2145 C 200.338 -1.18459 4.2718 0
M  V30 2146 H 197.558 -0.0265025 0.670476 0
M  V30 2147 H 200.102 0.562184 1.96621 0
M  V30 2148 H 198.257 -1.2462 3.66809 0
M  V30 2149 H 198.671 0.317091 5.23541 0
M  V30 2150 H 200.145 -1.38976 5.34219 0
M  V30 2151 H 200.622 -2.15368 3.82771 0
M  V30 2152 H 201.228 -0.528163 4.22008 0
M  V30 2153 N 199.544 -1.57102 0.125237 0
M  V30 2154 C 200.507 -2.14471 -0.80838 0
M  V30 2155 C 201.507 -1.0811 -1.19033 0
M  V30 2156 O 202.697 -1.33856 -1.11482 0
M  V30 2157 C 199.829 -2.69005 -2.09402 0
M  V30 2158 H 201.022 -2.98297 -0.309696 0
M  V30 2159 H 198.575 -1.55807 -0.124051 0
M  V30 2160 H 199.31 -1.88785 -2.63687 0
M  V30 2161 H 199.095 -3.46799 -1.82957 0
M  V30 2162 H 200.585 -3.13278 -2.76128 0
M  V30 2163 N 201.022 0.148545 -1.56898 0
M  V30 2164 C 201.932 1.20293 -2.01412 0
M  V30 2165 C 202.948 1.47107 -0.929273 0
M  V30 2166 O 204.124 1.58807 -1.23863 0
M  V30 2167 C 201.189 2.51682 -2.38447 0
M  V30 2168 C 200.25 2.32529 -3.60872 0
M  V30 2169 C 199.483 3.57653 -3.96132 0
M  V30 2170 O 199.706 4.63771 -3.32073 0
M  V30 2171 O 198.64 3.50408 -4.89385 0
M  V30 2172 H 202.466 0.855025 -2.91416 0
M  V30 2173 H 200.051 0.357151 -1.45068 0
M  V30 2174 H 201.933 3.29147 -2.63135 0
M  V30 2175 H 200.608 2.86006 -1.51599 0
M  V30 2176 H 199.515 1.53019 -3.41373 0
M  V30 2177 H 200.848 2.03121 -4.48333 0
M  V30 2178 N 202.5 1.5196 0.417844 0
M  V30 2179 C 203.432 1.70895 1.52733 0
M  V30 2180 C 204.445 0.589405 1.51756 0
M  V30 2181 O 205.634 0.864312 1.56179 0
M  V30 2182 C 202.734 1.72627 2.91639 0
M  V30 2183 C 201.907 3.01479 3.16905 0
M  V30 2184 C 200.966 2.95139 4.35637 0
M  V30 2185 O 199.992 3.69059 4.3334 0
M  V30 2186 N 201.194 2.12328 5.40275 0
M  V30 2187 H 203.959 2.66612 1.36888 0
M  V30 2188 H 201.52 1.50089 0.607037 0
M  V30 2189 H 203.512 1.65928 3.6912 0
M  V30 2190 H 202.082 0.844216 3.00985 0
M  V30 2191 H 201.302 3.21895 2.27546 0
M  V30 2192 H 202.59 3.86736 3.30625 0
M  V30 2193 H 201.988 1.51685 5.44985 0
M  V30 2194 H 200.545 2.11494 6.16534 0
M  V30 2195 N 203.978 -0.674533 1.42435 0
M  V30 2196 C 205.206 -1.46283 1.46317 0
M  V30 2197 C 205.621 -1.88653 0.0745836 0
M  V30 2198 O 204.978 -1.58151 -0.91074 0
M  V30 2199 C 205.029 -2.71178 2.3905 0
M  V30 2200 O 204.75 -2.30586 3.72507 0
M  V30 2201 C 206.251 -3.64738 2.51955 0
M  V30 2202 H 203.471 -0.450104 0.497642 0
M  V30 2203 H 206.015 -0.828792 1.86953 0
M  V30 2204 H 204.17 -3.3077 2.01667 0
M  V30 2205 H 204.584 -3.11241 4.22172 0
M  V30 2206 H 206.058 -4.49096 3.20962 0
M  V30 2207 H 206.535 -4.10656 1.55752 0
M  V30 2208 H 207.141 -3.11038 2.90061 0
M  V30 2209 N 205.456 -1.28612 -0.910864 0
M  V30 2210 C 206.872 -1.06381 -1.18976 0
M  V30 2211 C 207.072 0.191998 -2.00583 0
M  V30 2212 O 206.128 0.892869 -2.36187 0
M  V30 2213 C 207.441 -2.31295 -1.92154 0
M  V30 2214 C 208.989 -2.36503 -2.05025 0
M  V30 2215 C 209.464 -3.61191 -2.81612 0
M  V30 2216 N 210.955 -3.61847 -2.89172 0
M  V30 2217 C 211.69 -4.55004 -3.4894 0
M  V30 2218 N 211.186 -5.58482 -4.09963 0
M  V30 2219 N 212.979 -4.42594 -3.46506 0
M  V30 2220 H 205.13 -2.09221 -0.366094 0
M  V30 2221 H 207.393 -0.921003 -0.224629 0
M  V30 2222 H 207.099 -3.228 -1.39618 0
M  V30 2223 H 206.973 -2.37934 -2.9269 0
M  V30 2224 H 209.36 -1.45494 -2.5674 0
M  V30 2225 H 209.441 -2.33857 -1.03657 0
M  V30 2226 H 209.085 -4.52545 -2.30576 0
M  V30 2227 H 209.015 -3.61092 -3.83302 0
M  V30 2228 H 211.506 -2.87022 -2.45819 0
M  V30 2229 H 211.819 -6.25704 -4.53557 0
M  V30 2230 H 210.164 -5.62305 -4.08459 0
M  V30 2231 H 213.355 -3.60953 -2.98045 0
M  V30 2232 H 213.528 -5.15381 -3.92793 0
M  V30 2233 N 206.934 1.1197 -1.10907 0
M  V30 2234 C 207.881 2.17846 -0.762345 0
M  V30 2235 C 208.851 1.63995 0.263599 0
M  V30 2236 O 210.036 1.90273 0.141773 0
M  V30 2237 C 207.176 3.44487 -0.205651 0
M  V30 2238 C 206.289 4.12369 -1.28748 0
M  V30 2239 C 205.424 5.26674 -0.691919 0
M  V30 2240 C 204.463 5.86431 -1.75399 0
M  V30 2241 N 203.6 6.92142 -1.17833 0
M  V30 2242 H 208.44 2.46851 -1.6694 0
M  V30 2243 H 205.977 1.21188 -0.833776 0
M  V30 2244 H 207.935 4.16981 0.135037 0
M  V30 2245 H 206.565 3.15884 0.664613 0
M  V30 2246 H 205.617 3.38003 -1.74522 0
M  V30 2247 H 206.929 4.52844 -2.09125 0
M  V30 2248 H 206.083 6.05953 -0.300963 0
M  V30 2249 H 204.822 4.8749 0.143232 0
M  V30 2250 H 203.827 5.05835 -2.15432 0
M  V30 2251 H 205.052 6.27685 -2.59208 0
M  V30 2252 H 202.998 6.54985 -0.364725 0
M  V30 2253 H 202.915 7.31242 -1.91887 0
M  V30 2254 H 204.183 7.75237 -0.81408 0
M  V30 2255 N 208.412 0.89855 1.29475 0
M  V30 2256 C 209.342 0.39201 2.30186 0
M  V30 2257 C 210.323 -0.532359 1.61555 0
M  V30 2258 O 211.508 -0.443331 1.89072 0
M  V30 2259 C 208.638 -0.382353 3.45189 0
M  V30 2260 C 207.592 0.451483 4.25612 0
M  V30 2261 C 206.918 -0.450307 5.328 0
M  V30 2262 C 208.218 1.70079 4.93832 0
M  V30 2263 H 209.912 1.23362 2.72804 0
M  V30 2264 H 207.458 0.594638 1.31149 0
M  V30 2265 H 209.411 -0.747451 4.14718 0
M  V30 2266 H 208.135 -1.25774 3.01411 0
M  V30 2267 H 206.794 0.798897 3.57789 0
M  V30 2268 H 206.442 -1.32379 4.85268 0
M  V30 2269 H 206.142 0.103902 5.87508 0
M  V30 2270 H 207.666 -0.811623 6.05182 0
M  V30 2271 H 209.08 1.40549 5.55805 0
M  V30 2272 H 207.477 2.19623 5.58467 0
M  V30 2273 H 208.547 2.43744 4.19186 0
M  V30 2274 N 209.89 -1.43072 0.660911 0
M  V30 2275 C 211.118 -2.06067 0.185422 0
M  V30 2276 C 211.533 -1.49582 -1.15198 0
M  V30 2277 O 210.89 -0.630134 -1.71276 0
M  V30 2278 C 210.941 -3.61371 0.0966523 0
M  V30 2279 O 210.662 -4.15758 1.38119 0
M  V30 2280 C 212.163 -4.41455 -0.403996 0
M  V30 2281 H 209.383 -0.664459 0.0934604 0
M  V30 2282 H 211.927 -1.83447 0.90373 0
M  V30 2283 H 210.082 -3.8315 -0.572259 0
M  V30 2284 H 210.496 -5.09499 1.24542 0
M  V30 2285 H 211.97 -5.50437 -0.415045 0
M  V30 2286 H 212.447 -4.15036 -1.43674 0
M  V30 2287 H 213.053 -4.24663 0.232691 0
M  V30 2288 N 211.368 -0.403325 -1.52352 0
M  V30 2289 C 212.645 0.232611 -1.94212 0
M  V30 2290 C 213.025 1.63133 -1.33981 0
M  V30 2291 O 212.373 2.22659 -0.513344 0
M  V30 2292 C 212.583 0.244811 -3.4814 0
M  V30 2293 C 213.931 0.46698 -4.22024 0
M  V30 2294 O 214.955 0.324419 -3.5472 0
M  V30 2295 O 213.814 0.74747 -5.41364 0
M  V30 2296 H 210.908 0.148223 -0.813609 0
M  V30 2297 H 213.454 -0.458848 -1.63379 0
M  V30 2298 H 212.226 -0.734378 -3.84347 0
M  V30 2299 H 211.849 0.980611 -3.85318 0
M  V30 2300 N 212.846 1.57033 -0.133567 0
M  V30 2301 C 214.092 1.95976 0.521649 0
M  V30 2302 C 214.425 1.01779 1.65393 0
M  V30 2303 O 213.7 0.0576581 1.94415 0
M  V30 2304 C 213.983 3.44738 1.04057 0
M  V30 2305 C 213.836 4.49711 -0.0892897 0
M  V30 2306 C 215.155 3.95682 1.92675 0
M  V30 2307 H 212.274 0.712579 0.188149 0
M  V30 2308 H 214.916 1.88813 -0.212076 0
M  V30 2309 H 213.066 3.50973 1.66583 0
M  V30 2310 H 214.738 4.55565 -0.725152 0
M  V30 2311 H 212.981 4.27261 -0.750378 0
M  V30 2312 H 213.652 5.51099 0.315284 0
M  V30 2313 H 216.128 3.91841 1.39998 0
M  V30 2314 H 215.004 5.00262 2.25897 0
M  V30 2315 H 215.265 3.37239 2.85872 0
M  V30 2316 N 214.325 -0.140222 1.56975 0
M  V30 2317 C 215.235 -1.19223 2.02047 0
M  V30 2318 C 216.251 -1.46612 0.937062 0
M  V30 2319 O 217.427 -1.58148 1.24704 0
M  V30 2320 C 214.492 -2.50414 2.39778 0
M  V30 2321 C 213.553 -2.30612 3.621 0
M  V30 2322 C 212.786 -3.55547 3.98023 0
M  V30 2323 O 213.009 -4.62004 3.34528 0
M  V30 2324 O 211.943 -3.47808 4.91237 0
M  V30 2325 H 215.769 -0.839559 2.91865 0
M  V30 2326 H 213.354 -0.349453 1.45256 0
M  V30 2327 H 215.236 -3.27747 2.64877 0
M  V30 2328 H 213.911 -2.85198 1.53114 0
M  V30 2329 H 212.818 -1.51207 3.4218 0
M  V30 2330 H 214.151 -2.00741 4.49404 0
M  V30 2331 N 215.803 -1.52179 -0.40978 0
M  V30 2332 C 216.766 -1.74853 -1.48186 0
M  V30 2333 C 217.766 -0.618417 -1.48433 0
M  V30 2334 O 218.956 -0.886286 -1.49969 0
M  V30 2335 C 216.088 -1.8303 -2.87598 0
M  V30 2336 H 217.281 -2.70559 -1.29374 0
M  V30 2337 H 214.834 -1.42586 -0.640233 0
M  V30 2338 H 215.569 -0.89236 -3.11781 0
M  V30 2339 H 215.354 -2.65187 -2.88822 0
M  V30 2340 H 216.844 -2.02316 -3.65319 0
M  V30 2341 N 217.281 0.66697 -1.42791 0
M  V30 2342 C 218.213 1.7925 -1.42836 0
M  V30 2343 C 219.226 1.59496 -0.326333 0
M  V30 2344 O 220.415 1.6847 -0.589916 0
M  V30 2345 C 217.515 3.16476 -1.21229 0
M  V30 2346 C 216.688 3.63011 -2.44013 0
M  V30 2347 C 215.747 4.78993 -2.17834 0
M  V30 2348 O 214.773 4.89137 -2.91091 0
M  V30 2349 N 215.975 5.68248 -1.18635 0
M  V30 2350 H 218.74 1.79695 -2.39854 0
M  V30 2351 H 216.301 0.850338 -1.37771 0
M  V30 2352 H 218.293 3.91734 -1.01621 0
M  V30 2353 H 216.863 3.10884 -0.32706 0
M  V30 2354 H 216.083 2.78346 -2.79137 0
M  V30 2355 H 217.371 3.90845 -3.25757 0
M  V30 2356 H 216.769 5.62712 -0.580615 0
M  V30 2357 H 215.326 6.43285 -1.05013 0
M  V30 2358 N 218.759 1.29093 0.90403 0
M  V30 2359 C 220.005 1.16986 1.65656 0
M  V30 2360 C 220.338 -0.278925 1.92186 0
M  V30 2361 O 219.613 -1.2019 1.5292 0
M  V30 2362 C 219.896 1.97908 3.0084 0
M  V30 2363 C 219.749 3.50903 2.81403 0
M  V30 2364 C 221.068 1.80208 4.01513 0
M  V30 2365 H 218.187 0.426346 0.601164 0
M  V30 2366 H 220.829 1.58518 1.04747 0
M  V30 2367 H 218.979 1.62616 3.52829 0
M  V30 2368 H 220.651 3.96153 2.36348 0
M  V30 2369 H 218.894 3.76045 2.1627 0
M  V30 2370 H 219.565 4.02791 3.77443 0
M  V30 2371 H 222.041 2.11025 3.58619 0
M  V30 2372 H 220.917 2.39184 4.94047 0
M  V30 2373 H 221.178 0.756119 4.35586 0
M  V30 2374 N 220.237 -1.11381 1.11499 0
M  V30 2375 C 221.167 -2.19509 0.796125 0
M  V30 2376 C 222.148 -1.68458 -0.235796 0
M  V30 2377 O 223.333 -1.93947 -0.0991344 0
M  V30 2378 C 220.463 -3.46475 0.239205 0
M  V30 2379 C 219.417 -4.10744 1.20307 0
M  V30 2380 C 218.743 -5.32293 0.50683 0
M  V30 2381 C 220.043 -4.55597 2.55399 0
M  V30 2382 H 221.737 -2.46439 1.70024 0
M  V30 2383 H 219.283 -1.18446 0.818935 0
M  V30 2384 H 221.236 -4.214 0.00392006 0
M  V30 2385 H 219.96 -3.19006 -0.700206 0
M  V30 2386 H 218.619 -3.37813 1.42399 0
M  V30 2387 H 218.267 -5.01095 -0.437408 0
M  V30 2388 H 217.967 -5.76243 1.1497 0
M  V30 2389 H 219.491 -6.09956 0.280351 0
M  V30 2390 H 220.905 -5.21841 2.37391 0
M  V30 2391 H 219.302 -5.10363 3.15673 0
M  V30 2392 H 220.372 -3.69013 3.14575 0
M  V30 2393 N 221.715 -0.905404 -1.28997 0
M  V30 2394 C 222.663 -0.377431 -2.29517 0
M  V30 2395 C 223.657 0.526461 -1.61012 0
M  V30 2396 O 224.863 0.40863 -1.753 0
M  V30 2397 H 221.238 -0.103437 -0.744852 0
M  V30 2398 H 223.209 -1.23848 -2.71485 0
M  V30 2399 C 221.958 0.374833 -3.45674 0
M  V30 2400 H 221.281 -0.311474 -3.98585 0
M  V30 2401 H 222.721 0.70903 -4.1803 0
M  V30 2402 C 221.18 1.57963 -2.97572 0
M  V30 2403 O 221.71 2.67886 -2.99333 0
M  V30 2404 N 219.916 1.42375 -2.53333 0
M  V30 2405 H 219.463 0.529466 -2.521 0
M  V30 2406 H 219.421 2.23117 -2.21509 0
M  V30 2407 N 223.193 1.4272 -0.668489 0
M  V30 2408 C 224.125 2.2914 0.052613 0
M  V30 2409 C 225.138 1.43339 0.771857 0
M  V30 2410 O 226.327 1.67123 0.627067 0
M  V30 2411 C 223.427 3.20618 1.09804 0
M  V30 2412 C 222.6 4.35039 0.45389 0
M  V30 2413 C 221.659 5.07282 1.39825 0
M  V30 2414 O 220.685 5.62024 0.900978 0
M  V30 2415 N 221.887 5.12206 2.73176 0
M  V30 2416 H 224.652 2.91668 -0.689209 0
M  V30 2417 H 222.213 1.53577 -0.512422 0
M  V30 2418 H 224.205 3.65815 1.73094 0
M  V30 2419 H 222.775 2.59585 1.74167 0
M  V30 2420 H 221.995 3.92567 -0.358396 0
M  V30 2421 H 223.283 5.088 0.00486972 0
M  V30 2422 H 222.681 4.6913 3.16122 0
M  V30 2423 H 221.238 5.61069 3.31729 0
M  V30 2424 N 224.671 0.411399 1.52136 0
M  V30 2425 C 225.899 -0.163076 2.06256 0
M  V30 2426 C 226.314 -1.3867 1.28125 0
M  V30 2427 O 225.671 -1.79423 0.333721 0
M  V30 2428 C 225.722 -0.511252 3.57867 0
M  V30 2429 O 225.443 0.66378 4.33042 0
M  V30 2430 C 226.944 -1.13921 4.28412 0
M  V30 2431 H 224.164 -0.0193897 0.67072 0
M  V30 2432 H 226.708 0.583007 1.96013 0
M  V30 2433 H 224.863 -1.20723 3.6811 0
M  V30 2434 H 225.277 0.372601 5.23175 0
M  V30 2435 H 226.751 -1.33302 5.35663 0
M  V30 2436 H 227.228 -2.11296 3.85033 0
M  V30 2437 H 227.834 -0.483373 4.22544 0
M  V30 2438 N 226.149 -1.5696 0.141893 0
M  V30 2439 C 227.377 -2.00322 -0.517579 0
M  V30 2440 C 227.792 -1.02193 -1.58752 0
M  V30 2441 O 227.149 -0.0181619 -1.82491 0
M  V30 2442 C 227.2 -3.43618 -1.12289 0
M  V30 2443 O 226.921 -4.37995 -0.0956929 0
M  V30 2444 C 228.422 -4.02231 -1.86347 0
M  V30 2445 H 225.642 -0.657243 -0.135177 0
M  V30 2446 H 228.186 -2.03146 0.234973 0
M  V30 2447 H 226.341 -3.41662 -1.82609 0
M  V30 2448 H 226.755 -5.21729 -0.538469 0
M  V30 2449 H 228.229 -5.04509 -2.23997 0
M  V30 2450 H 228.706 -3.42655 -2.74744 0
M  V30 2451 H 229.312 -4.07802 -1.20737 0
M  V30 2452 N 227.627 0.131896 -1.57047 0
M  V30 2453 C 229.043 0.485031 -1.52051 0
M  V30 2454 C 229.243 1.82563 -0.85281 0
M  V30 2455 O 228.299 2.48817 -0.429694 0
M  V30 2456 C 229.612 0.481409 -2.96821 0
M  V30 2457 C 231.16 0.565868 -3.07842 0
M  V30 2458 C 231.635 0.592762 -4.54148 0
M  V30 2459 N 233.126 0.654564 -4.58552 0
M  V30 2460 C 233.861 0.696608 -5.69153 0
M  V30 2461 N 233.357 0.697078 -6.89284 0
M  V30 2462 N 235.15 0.738639 -5.57226 0
M  V30 2463 H 227.301 -0.746664 -1.98843 0
M  V30 2464 H 229.564 -0.273999 -0.90754 0
M  V30 2465 H 229.27 -0.435731 -3.4899 0
M  V30 2466 H 229.144 1.3139 -3.53577 0
M  V30 2467 H 231.531 1.47343 -2.55684 0
M  V30 2468 H 231.612 -0.29406 -2.54104 0
M  V30 2469 H 231.256 -0.310701 -5.06949 0
M  V30 2470 H 231.186 1.46939 -5.05684 0
M  V30 2471 H 233.677 0.660887 -3.72076 0
M  V30 2472 H 233.99 0.731426 -7.69331 0
M  V30 2473 H 232.335 0.66471 -6.91814 0
M  V30 2474 H 235.526 0.735545 -4.62285 0
M  V30 2475 H 235.699 0.767938 -6.43434 0
M  V30 2476 N 229.106 1.52395 0.401703 0
M  V30 2477 C 230.036 1.79231 1.49661 0
M  V30 2478 C 231.017 0.643654 1.57452 0
M  V30 2479 O 232.202 0.889989 1.72606 0
M  V30 2480 C 229.332 1.94971 2.87409 0
M  V30 2481 C 228.286 3.10604 2.94465 0
M  V30 2482 C 227.612 3.11577 4.34538 0
M  V30 2483 C 228.912 4.49921 2.6527 0
M  V30 2484 H 230.606 2.70917 1.27454 0
M  V30 2485 H 228.152 1.30362 0.6117 0
M  V30 2486 H 230.105 2.12328 3.63999 0
M  V30 2487 H 228.829 0.999632 3.10926 0
M  V30 2488 H 227.488 2.93009 2.20321 0
M  V30 2489 H 227.136 2.14277 4.55076 0
M  V30 2490 H 226.836 3.89247 4.40183 0
M  V30 2491 H 228.36 3.31073 5.13053 0
M  V30 2492 H 229.774 4.67683 3.31581 0
M  V30 2493 H 228.171 5.29564 2.82281 0
M  V30 2494 H 229.241 4.57507 1.60671 0
M  V30 2495 N 230.584 -0.659388 1.43143 0
M  V30 2496 C 231.494 -1.80167 1.50256 0
M  V30 2497 C 232.51 -1.69571 0.390106 0
M  V30 2498 O 233.686 -1.90849 0.643319 0
M  V30 2499 C 230.751 -3.16409 1.41725 0
M  V30 2500 C 229.812 -3.38848 2.63591 0
M  V30 2501 C 229.045 -4.68591 2.55458 0
M  V30 2502 O 229.268 -5.47532 1.59891 0
M  V30 2503 O 228.202 -4.92614 3.45854 0
M  V30 2504 H 232.028 -1.77121 2.46702 0
M  V30 2505 H 229.613 -0.817092 1.25076 0
M  V30 2506 H 231.495 -3.9768 1.39387 0
M  V30 2507 H 230.17 -3.20059 0.484118 0
M  V30 2508 H 229.077 -2.57366 2.71502 0
M  V30 2509 H 230.41 -3.4004 3.55856 0
M  V30 2510 N 232.062 -1.29571 -0.897171 0
M  V30 2511 C 232.992 -1.17473 -2.01798 0
M  V30 2512 C 233.973 -0.068323 -1.69963 0
M  V30 2513 O 235.158 -0.248239 -1.92607 0
M  V30 2514 C 232.288 -0.853099 -3.36659 0
M  V30 2515 C 231.242 -1.9161 -3.82713 0
M  V30 2516 C 230.568 -1.44773 -5.14728 0
M  V30 2517 C 231.868 -3.32535 -4.02763 0
M  V30 2518 H 233.562 -2.11237 -2.12177 0
M  V30 2519 H 231.108 -1.01699 -1.01948 0
M  V30 2520 H 233.061 -0.755165 -4.14578 0
M  V30 2521 H 231.785 0.120236 -3.26379 0
M  V30 2522 H 230.444 -2.00346 -3.07013 0
M  V30 2523 H 230.092 -0.462995 -5.00865 0
M  V30 2524 H 229.792 -2.15865 -5.46513 0
M  V30 2525 H 231.316 -1.36334 -5.95185 0
M  V30 2526 H 232.73 -3.26626 -4.71156 0
M  V30 2527 H 231.127 -4.01607 -4.45905 0
M  V30 2528 H 232.197 -3.75326 -3.07016 0
M  V30 2529 N 233.54 1.10788 -1.12088 0
M  V30 2530 C 234.472 2.16816 -0.743213 0
M  V30 2531 C 235.485 1.6119 0.228412 0
M  V30 2532 O 236.674 1.78497 0.0102931 0
M  V30 2533 C 233.774 3.38809 -0.0787313 0
M  V30 2534 C 232.947 4.23885 -1.0789 0
M  V30 2535 C 232.006 5.24334 -0.442713 0
M  V30 2536 O 231.032 5.58497 -1.09864 0
M  V30 2537 N 232.234 5.75079 0.791457 0
M  V30 2538 H 234.999 2.49825 -1.65552 0
M  V30 2539 H 232.56 1.26373 -1.012 0
M  V30 2540 H 234.552 4.03107 0.358766 0
M  V30 2541 H 233.122 3.03805 0.736275 0
M  V30 2542 H 232.342 3.55939 -1.69414 0
M  V30 2543 H 233.63 4.77562 -1.75533 0
M  V30 2544 H 233.028 5.49517 1.3434 0
M  V30 2545 H 231.585 6.4118 1.17183 0
M  V30 2546 N 235.018 0.912232 1.28515 0
M  V30 2547 C 235.948 0.416403 2.29757 0
M  V30 2548 C 236.929 -0.515194 1.6211 0
M  V30 2549 O 238.114 -0.423253 1.89532 0
M  V30 2550 C 235.244 -0.34572 3.45575 0
M  V30 2551 C 234.198 0.496599 4.25109 0
M  V30 2552 C 233.524 -0.393771 5.33248 0
M  V30 2553 C 234.824 1.75307 4.92001 0
M  V30 2554 H 236.518 1.26249 2.7148 0
M  V30 2555 H 234.064 0.608515 1.30511 0
M  V30 2556 H 236.017 -0.703422 4.15488 0
M  V30 2557 H 234.741 -1.2257 3.02728 0
M  V30 2558 H 233.4 0.8368 3.56922 0
M  V30 2559 H 233.048 -1.27225 4.86644 0
M  V30 2560 H 232.748 0.166209 5.87365 0
M  V30 2561 H 234.272 -0.747389 6.06009 0
M  V30 2562 H 235.686 1.46437 5.54283 0
M  V30 2563 H 234.083 2.25534 5.56106 0
M  V30 2564 H 235.153 2.48176 4.16577 0
M  V30 2565 N 236.496 -1.42363 0.676048 0
M  V30 2566 C 237.426 -2.33497 0.0124832 0
M  V30 2567 C 238.407 -1.50748 -0.787981 0
M  V30 2568 O 239.592 -1.79346 -0.744884 0
M  V30 2569 C 236.722 -3.34377 -0.938582 0
M  V30 2570 C 235.676 -4.27289 -0.246622 0
M  V30 2571 C 235.002 -5.18386 -1.31071 0
M  V30 2572 C 236.302 -5.14916 0.875125 0
M  V30 2573 H 237.996 -2.89233 0.773593 0
M  V30 2574 H 235.542 -1.39073 0.37346 0
M  V30 2575 H 237.495 -3.97044 -1.41188 0
M  V30 2576 H 236.219 -2.76947 -1.73113 0
M  V30 2577 H 234.878 -3.66018 0.206456 0
M  V30 2578 H 234.526 -4.57282 -2.09528 0
M  V30 2579 H 234.226 -5.81378 -0.852839 0
M  V30 2580 H 235.75 -5.83929 -1.78492 0
M  V30 2581 H 237.164 -5.71262 0.482983 0
M  V30 2582 H 235.561 -5.86747 1.25887 0
M  V30 2583 H 236.631 -4.53242 1.72335 0
M  V30 2584 N 237.974 -0.419461 -1.51915 0
M  V30 2585 C 238.884 0.407528 -2.31033 0
M  V30 2586 C 239.9 1.04413 -1.3919 0
M  V30 2587 O 241.076 1.0434 -1.72265 0
M  V30 2588 C 238.141 1.50365 -3.12396 0
M  V30 2589 C 237.202 0.889029 -4.19994 0
M  V30 2590 C 236.435 1.93291 -4.97468 0
M  V30 2591 O 236.658 3.15259 -4.75361 0
M  V30 2592 O 235.592 1.53339 -5.8204 0
M  V30 2593 H 239.418 -0.237865 -3.02767 0
M  V30 2594 H 237.003 -0.182413 -1.48282 0
M  V30 2595 H 238.885 2.13975 -3.63032 0
M  V30 2596 H 237.56 2.13345 -2.43445 0
M  V30 2597 H 236.467 0.215353 -3.7348 0
M  V30 2598 H 237.8 0.302991 -4.91267 0
M  V30 2599 N 239.452 1.56882 -0.150215 0
M  V30 2600 C 240.402 2.13501 0.800071 0
M  V30 2601 C 241.386 1.06368 1.20726 0
M  V30 2602 O 242.578 1.32538 1.17314 0
M  V30 2603 C 239.707 2.76271 2.03787 0
M  V30 2604 C 238.793 3.90533 1.65364 0
M  V30 2605 N 239.184 4.96259 0.977794 0
M  V30 2606 C 237.482 4.013 1.94613 0
M  V30 2607 C 238.183 5.76286 0.791794 0
M  V30 2608 N 237.159 5.27163 1.32666 0
M  V30 2609 H 240.961 2.92615 0.274517 0
M  V30 2610 H 238.475 1.62319 0.0512144 0
M  V30 2611 H 240.472 3.15197 2.72867 0
M  V30 2612 H 239.132 1.98631 2.56857 0
M  V30 2613 H 240.143 5.13953 0.638193 0
M  V30 2614 H 236.82 3.3474 2.4951 0
M  V30 2615 H 238.21 6.71401 0.258894 0
M  V30 2616 N 240.93 -0.123565 1.57115 0
M  V30 2617 C 242.155 -0.850398 1.89164 0
M  V30 2618 C 242.58 -1.7286 0.741688 0
M  V30 2619 O 241.938 -1.78665 -0.307958 0
M  V30 2620 C 241.986 -1.66353 3.19936 0
M  V30 2621 O 241.09 -2.77004 3.0552 0
M  V30 2622 H 240.431 -0.235454 0.620852 0
M  V30 2623 H 242.961 -0.107335 2.04318 0
M  V30 2624 H 242.971 -2.05372 3.52543 0
M  V30 2625 H 241.646 -1.01881 4.03228 0
M  V30 2626 H 240.223 -2.41221 2.84371 0
M  V30 2627 N 242.408 -1.52605 -0.393616 0
M  V30 2628 C 243.338 -1.80022 -1.48709 0
M  V30 2629 C 244.319 -0.651995 -1.57108 0
M  V30 2630 O 245.504 -0.89913 -1.72132 0
M  V30 2631 C 242.634 -1.96492 -2.86371 0
M  V30 2632 C 241.588 -3.12161 -2.92813 0
M  V30 2633 C 240.914 -3.13877 -4.3288 0
M  V30 2634 C 242.214 -4.51322 -2.6288 0
M  V30 2635 H 243.908 -2.71589 -1.26015 0
M  V30 2636 H 241.454 -1.30684 -0.604778 0
M  V30 2637 H 243.407 -2.14255 -3.62867 0
M  V30 2638 H 242.131 -1.01611 -3.10391 0
M  V30 2639 H 240.79 -2.94173 -2.18764 0
M  V30 2640 H 240.438 -2.16687 -4.53933 0
M  V30 2641 H 240.138 -3.91576 -4.38112 0
M  V30 2642 H 241.662 -3.33789 -5.1129 0
M  V30 2643 H 243.076 -4.69435 -3.29096 0
M  V30 2644 H 241.473 -5.31053 -2.79468 0
M  V30 2645 H 242.543 -4.58353 -1.58242 0
M  V30 2646 N 243.887 0.651787 -1.4349 0
M  V30 2647 C 245.112 1.44434 -1.48841 0
M  V30 2648 C 245.537 1.8779 -0.107955 0
M  V30 2649 O 244.895 1.57464 0.898602 0
M  V30 2650 C 244.943 2.65458 -2.44059 0
M  V30 2651 O 244.047 3.64566 -1.92784 0
M  V30 2652 H 243.388 0.433005 -0.503391 0
M  V30 2653 H 245.918 0.797451 -1.88419 0
M  V30 2654 H 245.928 3.13255 -2.6141 0
M  V30 2655 H 244.603 2.33244 -3.4434 0
M  V30 2656 H 243.18 3.23716 -1.851 0
M  V30 2657 N 245.365 1.30045 0.890287 0
M  V30 2658 C 246.593 1.21472 1.67487 0
M  V30 2659 C 247.008 -0.223241 1.87476 0
M  V30 2660 O 246.365 -1.14828 1.41847 0
M  V30 2661 C 246.416 1.93394 3.05419 0
M  V30 2662 O 246.137 3.31576 2.86337 0
M  V30 2663 C 247.638 1.91414 3.99844 0
M  V30 2664 H 244.858 0.420604 0.522813 0
M  V30 2665 H 247.402 1.7158 1.11268 0
M  V30 2666 H 245.557 1.47099 3.58386 0
M  V30 2667 H 245.971 3.67929 3.73802 0
M  V30 2668 H 247.445 2.46285 4.94012 0
M  V30 2669 H 247.922 0.891833 4.3005 0
M  V30 2670 H 248.528 2.37496 3.52811 0
M  V30 2671 N 246.843 -1.10192 1.12674 0
M  V30 2672 C 247.791 -2.18694 0.792196 0
M  V30 2673 C 248.785 -1.67938 -0.222058 0
M  V30 2674 O 249.991 -1.79822 -0.0800074 0
M  V30 2675 H 246.366 -0.713223 0.238364 0
M  V30 2676 H 248.337 -2.44149 1.71564 0
M  V30 2677 C 247.086 -3.46682 0.265859 0
M  V30 2678 H 246.409 -3.86101 1.03761 0
M  V30 2679 H 247.849 -4.23942 0.0701128 0
M  V30 2680 C 246.308 -3.21506 -1.00675 0
M  V30 2681 O 246.838 -3.43408 -2.08408 0
M  V30 2682 N 245.044 -2.75158 -0.934692 0
M  V30 2683 H 244.591 -2.57535 -0.0578604 0
M  V30 2684 H 244.549 -2.58691 -1.7868 0
M  V30 2685 N 248.321 -0.919034 -1.28029 0
M  V30 2686 C 249.268 -0.410005 -2.27129 0
M  V30 2687 C 250.238 0.518405 -1.57803 0
M  V30 2688 O 251.423 0.439451 -1.8567 0
M  V30 2689 C 248.563 0.339054 -3.4343 0
M  V30 2690 C 247.676 -0.622468 -4.27492 0
M  V30 2691 C 246.811 0.145567 -5.31001 0
M  V30 2692 C 245.85 -0.809226 -6.06727 0
M  V30 2693 N 244.987 -0.0743728 -7.02061 0
M  V30 2694 H 249.827 -1.26011 -2.70047 0
M  V30 2695 H 247.364 -0.632663 -1.328 0
M  V30 2696 H 249.322 0.789586 -4.0966 0
M  V30 2697 H 247.952 1.15346 -3.01488 0
M  V30 2698 H 247.004 -1.19153 -3.61257 0
M  V30 2699 H 248.316 -1.35252 -4.80113 0
M  V30 2700 H 247.47 0.656417 -6.03139 0
M  V30 2701 H 246.209 0.908643 -4.79161 0
M  V30 2702 H 245.214 -1.3314 -5.33436 0
M  V30 2703 H 246.439 -1.57194 -6.60656 0
M  V30 2704 H 244.385 0.670616 -6.52563 0
M  V30 2705 H 244.302 -0.744157 -7.52329 0
M  V30 2706 H 245.57 0.416109 -7.78389 0
M  V30 2707 N 249.799 1.42003 -0.683588 0
M  V30 2708 C 250.729 2.33487 -0.024866 0
M  V30 2709 C 251.71 1.51163 0.779975 0
M  V30 2710 O 252.895 1.79739 0.735362 0
M  V30 2711 C 250.025 3.3487 0.920836 0
M  V30 2712 C 248.979 4.27414 0.223958 0
M  V30 2713 C 248.305 5.19074 1.2832 0
M  V30 2714 C 249.605 5.14445 -0.90242 0
M  V30 2715 H 251.299 2.88819 -0.788921 0
M  V30 2716 H 248.845 1.38873 -0.38083 0
M  V30 2717 H 250.798 3.97787 1.39081 0
M  V30 2718 H 249.522 2.77861 1.71642 0
M  V30 2719 H 248.181 3.65904 -0.225864 0
M  V30 2720 H 247.829 4.58387 2.071 0
M  V30 2721 H 247.529 5.81822 0.821995 0
M  V30 2722 H 249.053 5.84867 1.75392 0
M  V30 2723 H 250.467 5.70998 -0.513272 0
M  V30 2724 H 248.864 5.86072 -1.28997 0
M  V30 2725 H 249.934 4.52322 -1.74737 0
M  V30 2726 N 251.277 0.427512 1.51691 0
M  V30 2727 C 252.187 -0.39527 2.31246 0
M  V30 2728 C 253.203 -1.03674 1.39742 0
M  V30 2729 O 254.379 -1.03425 1.72816 0
M  V30 2730 C 251.444 -1.48706 3.13189 0
M  V30 2731 C 250.505 -0.866743 4.20459 0
M  V30 2732 C 249.738 -1.90651 4.98486 0
M  V30 2733 O 249.961 -3.12733 4.77026 0
M  V30 2734 O 248.895 -1.5025 5.82845 0
M  V30 2735 H 252.721 0.253918 3.02637 0
M  V30 2736 H 250.306 0.190274 1.48183 0
M  V30 2737 H 252.188 -2.12047 3.64162 0
M  V30 2738 H 250.863 -2.12051 2.44573 0
M  V30 2739 H 249.77 -0.195544 3.73589 0
M  V30 2740 H 251.103 -0.276934 4.9142 0
M  V30 2741 N 252.755 -1.56801 0.158532 0
M  V30 2742 C 253.702 -2.17337 -0.776729 0
M  V30 2743 C 254.672 -1.1096 -1.23601 0
M  V30 2744 O 255.857 -1.39054 -1.30647 0
M  V30 2745 C 252.997 -2.80822 -2.00582 0
M  V30 2746 C 252.11 -4.01624 -1.59129 0
M  V30 2747 C 251.245 -4.53072 -2.77306 0
M  V30 2748 C 250.284 -5.66314 -2.32282 0
M  V30 2749 N 249.421 -6.12329 -3.43508 0
M  V30 2750 H 254.261 -2.96918 -0.253701 0
M  V30 2751 H 251.798 -1.46661 -0.113504 0
M  V30 2752 H 253.756 -3.15779 -2.72652 0
M  V30 2753 H 252.386 -2.03866 -2.50277 0
M  V30 2754 H 251.438 -3.72571 -0.767806 0
M  V30 2755 H 252.75 -4.83633 -1.2207 0
M  V30 2756 H 251.904 -4.90145 -3.57551 0
M  V30 2757 H 250.643 -3.70095 -3.17617 0
M  V30 2758 H 249.648 -5.28806 -1.5048 0
M  V30 2759 H 250.873 -6.51085 -1.93043 0
M  V30 2760 H 248.819 -5.32284 -3.83418 0
M  V30 2761 H 248.736 -6.89293 -3.105 0
M  V30 2762 H 250.004 -6.5405 -4.24075 0
M  V30 2763 N 254.233 0.115231 -1.57178 0
M  V30 2764 C 255.165 1.16694 -1.97269 0
M  V30 2765 C 256.178 1.37445 -0.872502 0
M  V30 2766 O 257.367 1.36454 -1.15077 0
M  V30 2767 C 254.467 2.52627 -2.25905 0
M  V30 2768 C 253.64 2.52427 -3.57211 0
M  V30 2769 C 252.699 3.70134 -3.74016 0
M  V30 2770 O 251.725 3.53546 -4.46087 0
M  V30 2771 N 252.927 4.88844 -3.13068 0
M  V30 2772 H 255.692 0.82588 -2.88096 0
M  V30 2773 H 253.253 0.304461 -1.59011 0
M  V30 2774 H 255.245 3.29937 -2.34359 0
M  V30 2775 H 253.815 2.789 -1.41186 0
M  V30 2776 H 253.035 1.60805 -3.5991 0
M  V30 2777 H 254.323 2.49353 -4.43509 0
M  V30 2778 H 253.721 5.05225 -2.54489 0
M  V30 2779 H 252.278 5.63817 -3.27037 0
M  V30 2780 N 255.711 1.52812 0.385517 0
M  V30 2781 C 256.96 1.67249 1.12741 0
M  V30 2782 C 257.273 0.4205 1.91027 0
M  V30 2783 O 258.479 0.445064 2.67827 0
M  V30 2784 C 256.935 2.95583 2.05326 0
M  V30 2785 C 256.543 4.27974 1.32447 0
M  V30 2786 C 258.287 3.19386 2.7963 0
M  V30 2787 C 256.194 5.47412 2.23818 0
M  V30 2788 H 255.124 0.6231 0.424573 0
M  V30 2789 H 257.775 1.79309 0.389924 0
M  V30 2790 H 256.157 2.77277 2.82725 0
M  V30 2791 H 257.331 4.56844 0.602495 0
M  V30 2792 H 255.646 4.10459 0.700885 0
M  V30 2793 H 258.243 4.05801 3.48181 0
M  V30 2794 H 258.586 2.34604 3.43899 0
M  V30 2795 H 259.119 3.38274 2.09322 0
M  V30 2796 H 255.858 6.34612 1.64157 0
M  V30 2797 H 255.378 5.22849 2.93921 0
M  V30 2798 H 257.057 5.81423 2.83824 0
M  V30 2799 N 257.189 -0.644168 1.43834 0
M  V30 2800 C 258.119 -1.76814 1.52509 0
M  V30 2801 C 259.1 -1.65823 0.379052 0
M  V30 2802 O 260.285 -1.84781 0.597466 0
M  V30 2803 C 257.415 -3.15288 1.4564 0
M  V30 2804 C 256.369 -3.41053 2.58586 0
M  V30 2805 C 255.695 -4.79421 2.36769 0
M  V30 2806 C 256.995 -3.34902 4.00797 0
M  V30 2807 H 258.689 -1.69812 2.46586 0
M  V30 2808 H 256.235 -0.815542 1.1868 0
M  V30 2809 H 258.188 -3.93681 1.50311 0
M  V30 2810 H 256.912 -3.23043 0.480725 0
M  V30 2811 H 255.571 -2.65035 2.53282 0
M  V30 2812 H 255.219 -4.83863 1.37424 0
M  V30 2813 H 254.919 -4.9762 3.12487 0
M  V30 2814 H 256.443 -5.6006 2.43238 0
M  V30 2815 H 257.857 -4.03218 4.07539 0
M  V30 2816 H 256.254 -3.64637 4.76613 0
M  V30 2817 H 257.324 -2.32928 4.25291 0
M  V30 2818 N 258.668 -1.30515 -0.883378 0
M  V30 2819 C 259.945 -1.10086 -1.6168 0
M  V30 2820 C 260.325 0.349269 -2.08191 0
M  V30 2821 O 259.673 1.34105 -1.85008 0
M  V30 2822 C 259.883 -2.10315 -2.78511 0
M  V30 2823 C 261.231 -2.42119 -3.48803 0
M  V30 2824 O 262.255 -2.08638 -2.88702 0
M  V30 2825 O 261.114 -2.99396 -4.57192 0
M  V30 2826 H 258.208 -0.422907 -0.710689 0
M  V30 2827 H 260.754 -1.41947 -0.930015 0
M  V30 2828 H 259.526 -3.07917 -2.41459 0
M  V30 2829 H 259.149 -1.79282 -3.54886 0
M  V30 2830 N 260.146 1.09593 -1.13257 0
M  V30 2831 C 261.078 2.16015 -0.766167 0
M  V30 2832 C 262.091 1.61423 0.211303 0
M  V30 2833 O 263.28 1.78498 -0.00863946 0
M  V30 2834 C 260.38 3.38706 -0.114662 0
M  V30 2835 C 259.553 4.22717 -1.12379 0
M  V30 2836 C 258.612 5.23835 -0.498301 0
M  V30 2837 O 257.638 5.573 -1.15781 0
M  V30 2838 N 258.84 5.75886 0.730417 0
M  V30 2839 H 261.605 2.48055 -1.68193 0
M  V30 2840 H 259.166 1.25292 -1.02535 0
M  V30 2841 H 261.158 4.03464 0.315991 0
M  V30 2842 H 259.728 3.04569 0.704011 0
M  V30 2843 H 258.948 3.54122 -1.73179 0
M  V30 2844 H 260.236 4.75673 -1.80589 0
M  V30 2845 H 259.634 5.50911 1.28504 0
M  V30 2846 H 258.191 6.42387 1.10376 0
M  V30 2847 N 261.624 0.925811 1.2754 0
M  V30 2848 C 262.852 0.581509 1.9856 0
M  V30 2849 C 263.267 -0.840041 1.69082 0
M  V30 2850 O 262.624 -1.55805 0.950312 0
M  V30 2851 C 262.675 0.795589 3.52637 0
M  V30 2852 O 262.396 2.16121 3.81082 0
M  V30 2853 C 263.897 0.459744 4.4091 0
M  V30 2854 H 261.117 0.220538 0.633722 0
M  V30 2855 H 263.661 1.24232 1.6244 0
M  V30 2856 H 261.816 0.18161 3.86974 0
M  V30 2857 H 262.23 2.2098 4.75676 0
M  V30 2858 H 263.704 0.660244 5.48037 0
M  V30 2859 H 264.181 -0.604625 4.35018 0
M  V30 2860 H 264.787 1.05178 4.12089 0
M  V30 2861 N 263.102 -1.41638 0.69111 0
M  V30 2862 C 264.327 -2.06148 0.227583 0
M  V30 2863 C 264.752 -1.51652 -1.11281 0
M  V30 2864 O 264.11 -0.64164 -1.69566 0
M  V30 2865 C 264.158 -3.60095 0.190858 0
M  V30 2866 O 263.262 -4.03845 -0.835664 0
M  V30 2867 H 262.603 -0.654434 0.112306 0
M  V30 2868 H 265.133 -1.81484 0.944714 0
M  V30 2869 H 265.143 -4.07995 0.020207 0
M  V30 2870 H 263.818 -3.99129 1.16915 0
M  V30 2871 H 262.395 -3.67458 -0.63473 0
M  V30 2872 N 264.58 -0.43555 -1.51462 0
M  V30 2873 C 265.49 0.383001 -2.31453 0
M  V30 2874 C 266.506 1.02931 -1.4029 0
M  V30 2875 O 267.682 1.02507 -1.73362 0
M  V30 2876 C 264.747 1.47043 -3.13973 0
M  V30 2877 C 263.808 0.844433 -4.20913 0
M  V30 2878 C 263.041 1.88004 -4.9949 0
M  V30 2879 O 263.264 3.10199 -4.78678 0
M  V30 2880 O 262.198 1.47157 -5.83634 0
M  V30 2881 H 266.024 -0.269964 -3.02498 0
M  V30 2882 H 263.609 -0.19813 -1.4808 0
M  V30 2883 H 265.491 2.10113 -3.65281 0
M  V30 2884 H 264.166 2.10751 -2.45695 0
M  V30 2885 H 263.073 0.175729 -3.73687 0
M  V30 2886 H 264.406 0.250869 -4.9156 0
M  V30 2887 N 266.058 1.56714 -0.166846 0
M  V30 2888 C 267.307 1.95922 0.479318 0
M  V30 2889 C 267.62 1.05529 1.6469 0
M  V30 2890 O 268.826 1.34399 2.35901 0
M  V30 2891 C 267.282 3.48359 0.90412 0
M  V30 2892 C 266.89 4.47369 -0.237621 0
M  V30 2893 C 268.634 3.96394 1.51896 0
M  V30 2894 C 266.541 5.91039 0.206561 0
M  V30 2895 H 265.471 0.731495 0.18284 0
M  V30 2896 H 268.122 1.81728 -0.254363 0
M  V30 2897 H 266.504 3.57955 1.69365 0
M  V30 2898 H 267.678 4.49485 -1.01489 0
M  V30 2899 H 265.993 4.09366 -0.762128 0
M  V30 2900 H 268.59 5.01186 1.86325 0
M  V30 2901 H 268.933 3.39075 2.41524 0
M  V30 2902 H 269.466 3.89796 0.79395 0
M  V30 2903 H 266.205 6.52221 -0.654834 0
M  V30 2904 H 265.725 5.9224 0.949282 0
M  V30 2905 H 267.404 6.43707 0.651939 0
M  V30 2906 N 267.536 -0.106894 1.57237 0
M  V30 2907 C 268.484 -1.14944 2.02215 0
M  V30 2908 C 269.478 -1.42167 0.92114 0
M  V30 2909 O 270.684 -1.41987 1.10634 0
M  V30 2910 H 267.059 -0.387841 0.64427 0
M  V30 2911 H 269.03 -0.743683 2.88984 0
M  V30 2912 C 267.779 -2.4647 2.4525 0
M  V30 2913 H 267.102 -2.26363 3.29545 0
M  V30 2914 H 268.542 -3.17948 2.80508 0
M  V30 2915 C 267.001 -3.09921 1.321 0
M  V30 2916 O 267.531 -3.9651 0.643622 0
M  V30 2917 N 265.737 -2.69986 1.07497 0
M  V30 2918 H 265.284 -1.99667 1.62761 0
M  V30 2919 H 265.242 -3.12769 0.319876 0
M  V30 2920 N 269.014 -1.53014 -0.377408 0
M  V30 2921 C 269.961 -1.78616 -1.46168 0
M  V30 2922 C 270.931 -0.629917 -1.53692 0
M  V30 2923 O 272.116 -0.870861 -1.69766 0
M  V30 2924 C 269.256 -1.97123 -2.8326 0
M  V30 2925 C 268.369 -3.24831 -2.84796 0
M  V30 2926 C 267.504 -3.33591 -4.13389 0
M  V30 2927 C 266.543 -4.55377 -4.09021 0
M  V30 2928 N 265.68 -4.61355 -5.29241 0
M  V30 2929 H 270.52 -2.71142 -1.23637 0
M  V30 2930 H 268.057 -1.34326 -0.599577 0
M  V30 2931 H 270.015 -2.05839 -3.62886 0
M  V30 2932 H 268.645 -1.07946 -3.04216 0
M  V30 2933 H 267.697 -3.25128 -1.97474 0
M  V30 2934 H 269.009 -4.14523 -2.77439 0
M  V30 2935 H 268.163 -3.41554 -5.01424 0
M  V30 2936 H 266.902 -2.41894 -4.23484 0
M  V30 2937 H 265.907 -4.47527 -3.19373 0
M  V30 2938 H 267.132 -5.48402 -4.00539 0
M  V30 2939 H 265.078 -3.72554 -5.39944 0
M  V30 2940 H 264.995 -5.44935 -5.24006 0
M  V30 2941 H 266.263 -4.73586 -6.19141 0
M  V30 2942 N 270.492 0.636531 -1.44174 0
M  V30 2943 C 271.422 1.76003 -1.53444 0
M  V30 2944 C 272.403 1.65619 -0.387841 0
M  V30 2945 O 273.588 1.84461 -0.607257 0
M  V30 2946 C 270.718 3.14511 -1.4731 0
M  V30 2947 C 269.672 3.39677 -2.60391 0
M  V30 2948 C 268.998 4.78159 -2.39308 0
M  V30 2949 C 270.298 3.32772 -4.02567 0
M  V30 2950 H 271.992 1.68501 -2.47483 0
M  V30 2951 H 269.538 0.809237 -1.19111 0
M  V30 2952 H 271.491 3.92878 -1.52397 0
M  V30 2953 H 270.215 3.22783 -0.49785 0
M  V30 2954 H 268.874 2.63688 -2.54684 0
M  V30 2955 H 268.522 4.83128 -1.39988 0
M  V30 2956 H 268.222 4.95956 -3.15122 0
M  V30 2957 H 269.746 5.58762 -2.46205 0
M  V30 2958 H 271.16 4.01051 -4.09672 0
M  V30 2959 H 269.557 3.62104 -4.7854 0
M  V30 2960 H 270.627 2.30669 -4.2652 0
M  V30 2961 N 271.97 1.30982 0.876444 0
M  V30 2962 C 272.902 1.13902 1.98894 0
M  V30 2963 C 273.915 0.0798815 1.62604 0
M  V30 2964 O 275.104 0.326743 1.75484 0
M  V30 2965 C 272.204 0.716699 3.31235 0
M  V30 2966 C 271.377 1.85945 3.95908 0
M  V30 2967 C 270.436 1.42426 5.06558 0
M  V30 2968 O 269.462 2.13287 5.27729 0
M  V30 2969 N 270.664 0.308025 5.79682 0
M  V30 2970 H 273.429 2.09724 2.14094 0
M  V30 2971 H 270.99 1.2323 1.05004 0
M  V30 2972 H 272.982 0.408403 4.02634 0
M  V30 2973 H 271.552 -0.149719 3.12241 0
M  V30 2974 H 270.772 2.33541 3.17573 0
M  V30 2975 H 272.06 2.62503 4.35855 0
M  V30 2976 H 271.458 -0.282241 5.64995 0
M  V30 2977 H 270.015 0.0592282 6.51773 0
M  V30 2978 N 273.449 -1.08991 1.13837 0
M  V30 2979 C 274.726 -1.77863 0.813876 0
M  V30 2980 C 275.106 -1.99375 -0.693746 0
M  V30 2981 O 274.454 -1.59875 -1.63255 0
M  V30 2982 C 274.664 -3.0986 1.60586 0
M  V30 2983 C 276.012 -3.84493 1.8014 0
M  V30 2984 O 277.036 -3.19624 1.57222 0
M  V30 2985 O 275.895 -5.00957 2.18413 0
M  V30 2986 H 272.989 -0.771589 0.297624 0
M  V30 2987 H 275.535 -1.15507 1.24323 0
M  V30 2988 H 274.307 -2.89715 2.63022 0
M  V30 2989 H 273.93 -3.79942 1.17173 0
M  V30 2990 N 274.927 -0.932562 -1.27047 0
M  V30 2991 C 275.874 -0.434072 -2.26681 0
M  V30 2992 C 276.844 0.501639 -1.58344 0
M  V30 2993 O 278.029 0.419734 -1.86126 0
M  V30 2994 C 275.169 0.30261 -3.43771 0
M  V30 2995 C 274.282 -0.667774 -4.26808 0
M  V30 2996 C 273.417 0.0892393 -5.31125 0
M  V30 2997 C 272.456 -0.873532 -6.05835 0
M  V30 2998 N 271.593 -0.148832 -7.01942 0
M  V30 2999 H 276.433 -1.28868 -2.68695 0
M  V30 3000 H 273.97 -0.646713 -1.32121 0
M  V30 3001 H 275.928 0.746092 -4.10474 0
M  V30 3002 H 274.558 1.12142 -3.02695 0
M  V30 3003 H 273.61 -1.22978 -3.59973 0
M  V30 3004 H 274.922 -1.40337 -4.78651 0
M  V30 3005 H 274.076 0.592409 -6.03801 0
M  V30 3006 H 272.815 0.85777 -4.80097 0
M  V30 3007 H 271.82 -1.38791 -5.31994 0
M  V30 3008 H 273.045 -1.64193 -6.58952 0
M  V30 3009 H 270.991 0.601365 -6.53238 0
M  V30 3010 H 270.908 -0.82391 -7.51497 0
M  V30 3011 H 272.176 0.333527 -7.78786 0
M  V30 3012 N 276.405 1.4127 -0.698611 0
M  V30 3013 C 277.353 2.32588 -0.023855 0
M  V30 3014 C 278.347 1.51128 0.765292 0
M  V30 3015 O 279.553 1.67043 0.670571 0
M  V30 3016 H 275.928 0.751918 0.0110871 0
M  V30 3017 H 277.899 2.87167 -0.811031 0
M  V30 3018 C 276.648 3.35947 0.896369 0
M  V30 3019 H 275.971 3.98684 0.298548 0
M  V30 3020 H 277.411 4.02376 1.33676 0
M  V30 3021 C 275.87 2.70076 2.01396 0
M  V30 3022 O 276.4 2.55093 3.10307 0
M  V30 3023 N 274.606 2.28724 1.79259 0
M  V30 3024 H 274.153 2.4111 0.906841 0
M  V30 3025 H 274.111 1.84986 2.54219 0
M  V30 3026 N 277.883 0.443576 1.51229 0
M  V30 3027 C 279.108 -0.121648 2.07043 0
M  V30 3028 C 279.533 -1.35156 1.30823 0
M  V30 3029 O 278.891 -1.7793 0.347934 0
M  V30 3030 C 278.939 -0.41624 3.5819 0
M  V30 3031 O 278.043 -1.50163 3.8409 0
M  V30 3032 H 277.384 0.000871367 0.663999 0
M  V30 3033 H 279.914 0.626706 1.94765 0
M  V30 3034 H 279.924 -0.664867 4.02546 0
M  V30 3035 H 278.599 0.482653 4.1309 0
M  V30 3036 H 277.176 -1.24248 3.51592 0
M  V30 3037 N 279.361 -1.56624 0.175154 0
M  V30 3038 C 280.608 -1.96999 -0.468811 0
M  V30 3039 C 280.936 -1.06129 -1.62994 0
M  V30 3040 O 280.191 -0.0961771 -1.95464 0
M  V30 3041 C 280.49 -3.43419 -0.989864 0
M  V30 3042 C 280.156 -4.50866 0.0557687 0
M  V30 3043 C 278.818 -4.79975 0.343134 0
M  V30 3044 C 281.17 -5.15551 0.765308 0
M  V30 3045 C 278.498 -5.71066 1.34536 0
M  V30 3046 C 280.85 -6.07724 1.75654 0
M  V30 3047 C 279.514 -6.35199 2.05132 0
M  V30 3048 H 278.784 -0.720869 -0.17155 0
M  V30 3049 H 281.431 -1.89616 0.267924 0
M  V30 3050 H 279.736 -3.47772 -1.80449 0
M  V30 3051 H 281.433 -3.72002 -1.49719 0
M  V30 3052 H 278.023 -4.28229 -0.178381 0
M  V30 3053 H 282.207 -4.9317 0.556513 0
M  V30 3054 H 277.463 -5.90635 1.57988 0
M  V30 3055 H 281.637 -6.56912 2.31169 0
M  V30 3056 H 279.264 -7.05584 2.8294 0
M  V30 3057 N 280.839 0.0985539 -1.57292 0
M  V30 3058 C 281.769 1.12064 -2.04851 0
M  V30 3059 C 282.75 1.41981 -0.936767 0
M  V30 3060 O 283.935 1.52071 -1.20781 0
M  V30 3061 C 281.065 2.44144 -2.47004 0
M  V30 3062 C 280.019 2.28643 -3.6181 0
M  V30 3063 C 279.345 3.65869 -3.89929 0
M  V30 3064 C 280.645 1.72986 -4.92822 0
M  V30 3065 H 282.339 0.724979 -2.9049 0
M  V30 3066 H 279.885 0.34729 -1.39749 0
M  V30 3067 H 281.838 3.15914 -2.78884 0
M  V30 3068 H 280.562 2.85639 -1.5836 0
M  V30 3069 H 279.221 1.59318 -3.30172 0
M  V30 3070 H 278.869 4.04885 -2.98458 0
M  V30 3071 H 278.569 3.56344 -4.67218 0
M  V30 3072 H 280.093 4.39112 -4.2428 0
M  V30 3073 H 281.507 2.34593 -5.23105 0
M  V30 3074 H 279.904 1.74229 -5.74251 0
M  V30 3075 H 280.974 0.689007 -4.7998 0
M  V30 3076 N 282.317 1.53212 0.369288 0
M  V30 3077 C 283.227 1.82342 1.47609 0
M  V30 3078 C 284.243 0.711532 1.58787 0
M  V30 3079 O 285.419 1.0012 1.74751 0
M  V30 3080 C 282.484 2.00393 2.8292 0
M  V30 3081 C 281.545 3.24297 2.81301 0
M  V30 3082 C 280.778 3.41478 4.10157 0
M  V30 3083 O 281.001 2.63033 5.06132 0
M  V30 3084 O 279.935 4.34817 4.16194 0
M  V30 3085 H 283.761 2.76366 1.25918 0
M  V30 3086 H 281.346 1.38547 0.559034 0
M  V30 3087 H 283.228 2.13859 3.63101 0
M  V30 3088 H 281.903 1.09559 3.04596 0
M  V30 3089 H 280.81 3.16257 1.99831 0
M  V30 3090 H 282.143 4.15041 2.64578 0
M  V30 3091 N 283.795 -0.628877 1.44509 0
M  V30 3092 C 284.742 -1.74074 1.51549 0
M  V30 3093 C 285.712 -1.62084 0.363021 0
M  V30 3094 O 286.897 -1.81975 0.573567 0
M  V30 3095 C 284.037 -3.12328 1.46784 0
M  V30 3096 C 283.15 -3.35277 2.72422 0
M  V30 3097 C 282.285 -4.63515 2.59475 0
M  V30 3098 C 281.324 -4.7965 3.80266 0
M  V30 3099 N 280.461 -5.99168 3.65981 0
M  V30 3100 H 285.301 -1.67392 2.46544 0
M  V30 3101 H 282.838 -0.816527 1.22357 0
M  V30 3102 H 284.796 -3.92286 1.42012 0
M  V30 3103 H 283.426 -3.18018 0.553544 0
M  V30 3104 H 282.478 -2.49242 2.87372 0
M  V30 3105 H 283.79 -3.43078 3.62076 0
M  V30 3106 H 282.944 -5.51638 2.52548 0
M  V30 3107 H 281.683 -4.58076 1.67384 0
M  V30 3108 H 280.688 -3.89957 3.87574 0
M  V30 3109 H 281.913 -4.86902 4.73395 0
M  V30 3110 H 279.859 -5.94814 2.76644 0
M  V30 3111 H 279.776 -6.08035 4.49254 0
M  V30 3112 H 281.044 -6.89846 3.6295 0
M  V30 3113 N 285.273 -1.31445 -0.869486 0
M  V30 3114 C 286.22 -1.19135 -1.97675 0
M  V30 3115 C 287.19 -0.0770266 -1.65921 0
M  V30 3116 O 288.375 -0.249972 -1.89155 0
M  V30 3117 C 285.515 -0.905149 -3.33018 0
M  V30 3118 C 284.628 -2.10285 -3.77365 0
M  V30 3119 C 283.763 -1.75339 -5.01427 0
M  V30 3120 C 282.802 -2.91515 -5.38224 0
M  V30 3121 N 281.939 -2.56762 -6.53466 0
M  V30 3122 H 286.779 -2.13853 -2.07535 0
M  V30 3123 H 284.316 -1.06379 -1.01597 0
M  V30 3124 H 286.274 -0.719765 -4.10944 0
M  V30 3125 H 284.904 0.00519624 -3.228 0
M  V30 3126 H 283.956 -2.39899 -2.95216 0
M  V30 3127 H 285.268 -2.97237 -4.00564 0
M  V30 3128 H 284.422 -1.53266 -5.87022 0
M  V30 3129 H 283.161 -0.855801 -4.80133 0
M  V30 3130 H 282.166 -3.14237 -4.51149 0
M  V30 3131 H 283.391 -3.81985 -5.61484 0
M  V30 3132 H 281.337 -1.69526 -6.33717 0
M  V30 3133 H 281.254 -3.37243 -6.76612 0
M  V30 3134 H 282.522 -2.38083 -7.42251 0
M  V30 3135 N 286.751 1.08385 -1.14413 0
M  V30 3136 C 287.997 1.81044 -0.913834 0
M  V30 3137 C 288.33 1.86004 0.558209 0
M  V30 3138 O 287.605 1.33606 1.4135 0
M  V30 3139 C 287.888 3.26648 -1.51569 0
M  V30 3140 C 287.741 3.29895 -3.0576 0
M  V30 3141 C 289.06 4.23629 -1.19273 0
M  V30 3142 H 286.179 0.65727 -0.333414 0
M  V30 3143 H 288.821 1.26896 -1.41412 0
M  V30 3144 H 286.971 3.72889 -1.09023 0
M  V30 3145 H 288.643 2.91977 -3.57137 0
M  V30 3146 H 286.886 2.69163 -3.40197 0
M  V30 3147 H 287.557 4.32516 -3.42977 0
M  V30 3148 H 290.033 3.85727 -1.56057 0
M  V30 3149 H 288.909 5.23822 -1.64017 0
M  V30 3150 H 289.17 4.41968 -0.108068 0
M  V30 3151 N 288.23 0.939286 1.26551 0
M  V30 3152 C 289.16 0.465044 2.28822 0
M  V30 3153 C 290.141 -0.480692 1.63167 0
M  V30 3154 O 291.326 -0.382955 1.90387 0
M  V30 3155 C 288.456 -0.27234 3.46231 0
M  V30 3156 C 287.41 0.58666 4.2396 0
M  V30 3157 C 286.736 -0.280573 5.33963 0
M  V30 3158 C 288.036 1.85704 4.88171 0
M  V30 3159 H 289.73 1.31979 2.68741 0
M  V30 3160 H 287.276 0.636061 1.29191 0
M  V30 3161 H 289.229 -0.615133 4.16886 0
M  V30 3162 H 287.953 -1.16121 3.0526 0
M  V30 3163 H 286.612 0.91232 3.55067 0
M  V30 3164 H 286.26 -1.16874 4.89234 0
M  V30 3165 H 285.96 0.29076 5.8688 0
M  V30 3166 H 287.484 -0.618678 6.07458 0
M  V30 3167 H 288.898 1.58161 5.51052 0
M  V30 3168 H 287.295 2.37279 5.51197 0
M  V30 3169 H 288.365 2.56957 4.11219 0
M  V30 3170 N 289.708 -1.40897 0.706093 0
M  V30 3171 C 290.671 -2.29131 0.0562841 0
M  V30 3172 C 291.671 -1.44901 -0.697166 0
M  V30 3173 O 292.861 -1.65926 -0.530484 0
M  V30 3174 C 289.993 -3.27957 -0.93043 0
M  V30 3175 H 291.186 -2.88091 0.833284 0
M  V30 3176 H 288.739 -1.4906 0.470192 0
M  V30 3177 H 289.474 -2.73997 -1.73482 0
M  V30 3178 H 289.259 -3.90124 -0.393166 0
M  V30 3179 H 290.749 -3.94049 -1.38256 0
M  V30 3180 N 291.186 -0.45159 -1.50991 0
M  V30 3181 C 292.119 0.398179 -2.24699 0
M  V30 3182 C 293.097 1.01276 -1.27208 0
M  V30 3183 O 294.281 1.05247 -1.56382 0
M  V30 3184 C 291.408 1.55618 -3.00833 0
M  V30 3185 C 290.454 1.0609 -4.13095 0
M  V30 3186 S 291.287 -0.00865136 -5.35499 0
M  V30 3187 C 292.443 1.15369 -6.15175 0
M  V30 3188 H 292.676 -0.227555 -2.96428 0
M  V30 3189 H 290.209 -0.236251 -1.52582 0
M  V30 3190 H 292.167 2.21997 -3.45293 0
M  V30 3191 H 290.828 2.15337 -2.28667 0
M  V30 3192 H 290.021 1.92726 -4.65696 0
M  V30 3193 H 289.623 0.47513 -3.7097 0
M  V30 3194 H 291.915 2.06925 -6.45126 0
M  V30 3195 H 292.858 0.667344 -7.04948 0
M  V30 3196 H 293.266 1.3987 -5.46897 0
M  V30 3197 N 292.664 1.56529 -0.183458 0
M  V30 3198 C 293.574 2.22144 0.754272 0
M  V30 3199 C 294.59 1.21684 1.24374 0
M  V30 3200 O 295.766 1.54385 1.29333 0
M  V30 3201 C 292.831 2.85884 1.96141 0
M  V30 3202 C 291.892 4.01579 1.51765 0
M  V30 3203 C 291.125 4.6227 2.66725 0
M  V30 3204 O 291.348 4.21865 3.83909 0
M  V30 3205 O 290.282 5.51936 2.40104 0
M  V30 3206 H 294.108 3.02861 0.225527 0
M  V30 3207 H 291.693 1.49331 0.0453032 0
M  V30 3208 H 293.575 3.26253 2.66715 0
M  V30 3209 H 292.25 2.08154 2.47899 0
M  V30 3210 H 291.157 3.65856 0.781049 0
M  V30 3211 H 292.49 4.80938 1.04686 0
M  V30 3212 N 294.142 -0.090211 1.57342 0
M  V30 3213 C 295.419 -0.824761 1.77361 0
M  V30 3214 C 295.799 -1.96698 0.76637 0
M  V30 3215 O 295.147 -2.27586 -0.204179 0
M  V30 3216 C 295.357 -1.31481 3.23286 0
M  V30 3217 C 296.705 -1.75563 3.86604 0
M  V30 3218 O 297.729 -1.41093 3.27065 0
M  V30 3219 O 296.588 -2.39317 4.91314 0
M  V30 3220 H 293.682 -0.393776 0.727234 0
M  V30 3221 H 296.228 -0.0717138 1.69548 0
M  V30 3222 H 295 -0.496671 3.88135 0
M  V30 3223 H 294.623 -2.12973 3.35751 0
M  V30 3224 N 295.62 -1.53406 -0.361157 0
M  V30 3225 C 296.567 -1.80156 -1.44265 0
M  V30 3226 C 297.537 -0.646183 -1.53015 0
M  V30 3227 O 298.722 -0.888818 -1.68833 0
M  V30 3228 C 295.862 -2.00116 -2.81154 0
M  V30 3229 C 294.975 -3.27833 -2.81335 0
M  V30 3230 C 294.11 -3.37957 -4.09828 0
M  V30 3231 C 293.149 -4.59689 -4.04168 0
M  V30 3232 N 292.286 -4.66942 -5.24318 0
M  V30 3233 H 297.126 -2.72438 -1.20754 0
M  V30 3234 H 294.663 -1.34954 -0.585296 0
M  V30 3235 H 296.621 -2.09677 -3.60682 0
M  V30 3236 H 295.251 -1.11167 -3.03054 0
M  V30 3237 H 294.303 -3.27204 -1.94014 0
M  V30 3238 H 295.615 -4.17442 -2.73027 0
M  V30 3239 H 294.769 -3.46853 -4.97773 0
M  V30 3240 H 293.508 -2.46372 -4.20894 0
M  V30 3241 H 292.513 -4.50889 -3.14609 0
M  V30 3242 H 293.738 -5.5262 -3.947 0
M  V30 3243 H 291.684 -3.7826 -5.35962 0
M  V30 3244 H 291.601 -5.50462 -5.18197 0
M  V30 3245 H 292.869 -4.80127 -6.14084 0
M  V30 3246 N 297.098 0.621204 -1.44841 0
M  V30 3247 C 298.048 1.72663 -1.48901 0
M  V30 3248 C 299.032 1.56964 -0.353702 0
M  V30 3249 O 300.224 1.66532 -0.599669 0
M  V30 3250 C 297.353 3.11381 -1.44557 0
M  V30 3251 C 296.439 3.32514 -2.6324 0
M  V30 3252 N 296.83 3.23969 -3.8843 0
M  V30 3253 C 295.128 3.63343 -2.58647 0
M  V30 3254 C 295.829 3.46062 -4.67564 0
M  V30 3255 N 294.805 3.69407 -3.98797 0
M  V30 3256 H 298.607 1.64529 -2.43531 0
M  V30 3257 H 296.121 0.82401 -1.39942 0
M  V30 3258 H 298.118 3.90667 -1.4555 0
M  V30 3259 H 296.778 3.20674 -0.509731 0
M  V30 3260 H 297.789 3.02669 -4.20252 0
M  V30 3261 H 294.466 3.79556 -1.73906 0
M  V30 3262 H 295.856 3.44963 -5.76585 0
M  V30 3263 N 298.576 1.31904 0.862503 0
M  V30 3264 C 299.825 1.21373 1.61094 0
M  V30 3265 C 300.138 -0.22504 1.94301 0
M  V30 3266 O 301.344 -0.452121 2.67709 0
M  V30 3267 C 299.8 2.12525 2.9045 0
M  V30 3268 C 299.408 3.61441 2.64697 0
M  V30 3269 C 301.152 2.10813 3.68454 0
M  V30 3270 C 299.059 4.44578 3.90006 0
M  V30 3271 H 297.989 0.450705 0.604468 0
M  V30 3272 H 300.64 1.56811 0.953027 0
M  V30 3273 H 299.022 1.69994 3.57656 0
M  V30 3274 H 300.196 4.12264 2.05851 0
M  V30 3275 H 298.511 3.65205 2.00036 0
M  V30 3276 H 301.108 2.70167 4.61426 0
M  V30 3277 H 301.451 1.09713 4.01583 0
M  V30 3278 H 301.984 2.51583 3.08141 0
M  V30 3279 H 298.723 5.46461 3.62023 0
M  V30 3280 H 298.243 3.98508 4.48276 0
M  V30 3281 H 299.922 4.57176 4.5782 0
M  V30 3282 N 300.054 -1.07777 1.14986 0
M  V30 3283 C 301.303 -1.79669 0.916617 0
M  V30 3284 C 301.616 -1.87474 -0.557917 0
M  V30 3285 O 302.822 -2.55845 -0.908617 0
M  V30 3286 C 301.278 -3.22848 1.59051 0
M  V30 3287 C 300.886 -3.23257 3.10176 0
M  V30 3288 C 302.63 -3.99379 1.43864 0
M  V30 3289 C 300.537 -4.61063 3.70372 0
M  V30 3290 H 299.467 -0.673349 0.33929 0
M  V30 3291 H 302.118 -1.21003 1.37951 0
M  V30 3292 H 300.5 -3.8168 1.0553 0
M  V30 3293 H 301.674 -2.74095 3.70417 0
M  V30 3294 H 299.989 -2.60222 3.25074 0
M  V30 3295 H 302.586 -5.0122 1.86232 0
M  V30 3296 H 302.929 -4.14511 0.385564 0
M  V30 3297 H 303.462 -3.47032 1.94457 0
M  V30 3298 H 300.201 -4.51135 4.7556 0
M  V30 3299 H 299.721 -5.1048 3.14913 0
M  V30 3300 H 301.4 -5.30034 3.71043 0
M  V30 3301 N 301.532 -0.945985 -1.26051 0
M  V30 3302 C 302.464 -0.416662 -2.25381 0
M  V30 3303 C 303.477 0.462712 -1.56086 0
M  V30 3304 O 304.666 0.272383 -1.7641 0
M  V30 3305 C 301.766 0.419812 -3.3629 0
M  V30 3306 C 300.939 -0.444531 -4.35135 0
M  V30 3307 C 299.998 0.332305 -5.2515 0
M  V30 3308 O 299.024 -0.266324 -5.68577 0
M  V30 3309 N 300.226 1.62763 -5.57215 0
M  V30 3310 H 302.991 -1.27059 -2.71433 0
M  V30 3311 H 300.552 -0.815392 -1.39868 0
M  V30 3312 H 302.544 0.947013 -3.93464 0
M  V30 3313 H 301.114 1.17456 -2.89694 0
M  V30 3314 H 300.334 -1.15291 -3.76964 0
M  V30 3315 H 301.622 -1.03478 -4.98166 0
M  V30 3316 H 301.02 2.13603 -5.23823 0
M  V30 3317 H 299.577 2.10097 -6.17011 0
M  V30 3318 N 303.011 1.40521 -0.713556 0
M  V30 3319 C 303.941 2.33381 -0.0743864 0
M  V30 3320 C 304.922 1.52784 0.747735 0
M  V30 3321 O 306.107 1.81258 0.697071 0
M  V30 3322 C 303.237 3.36748 0.849598 0
M  V30 3323 C 302.191 4.27793 0.133247 0
M  V30 3324 C 301.517 5.21679 1.17281 0
M  V30 3325 C 302.817 5.12415 -1.01134 0
M  V30 3326 H 304.511 2.87081 -0.850007 0
M  V30 3327 H 302.057 1.38034 -0.410201 0
M  V30 3328 H 304.01 4.00648 1.30612 0
M  V30 3329 H 302.734 2.81439 1.65709 0
M  V30 3330 H 301.393 3.65342 -0.303426 0
M  V30 3331 H 301.041 4.62677 1.9733 0
M  V30 3332 H 300.741 5.83435 0.698397 0
M  V30 3333 H 302.265 5.88456 1.62947 0
M  V30 3334 H 303.679 5.69781 -0.634274 0
M  V30 3335 H 302.076 5.83203 -1.41399 0
M  V30 3336 H 303.146 4.48514 -1.84292 0
M  V30 3337 N 304.489 0.459591 1.5075 0
M  V30 3338 C 305.421 -0.37665 2.26084 0
M  V30 3339 C 306.434 -0.967109 1.30961 0
M  V30 3340 O 307.623 -0.857468 1.56556 0
M  V30 3341 C 304.723 -1.54112 3.01832 0
M  V30 3342 C 303.896 -1.06553 4.24223 0
M  V30 3343 C 302.955 -2.1027 4.82362 0
M  V30 3344 O 301.981 -1.68798 5.43595 0
M  V30 3345 N 303.183 -3.42974 4.68347 0
M  V30 3346 H 305.948 0.269124 2.98489 0
M  V30 3347 H 303.509 0.28972 1.59287 0
M  V30 3348 H 305.501 -2.23165 3.37608 0
M  V30 3349 H 304.071 -2.0918 2.32298 0
M  V30 3350 H 303.291 -0.201274 3.93686 0
M  V30 3351 H 304.579 -0.725516 5.03601 0
M  V30 3352 H 303.977 -3.79385 4.19623 0
M  V30 3353 H 302.534 -4.07858 5.08424 0
M  V30 3354 N 305.967 -1.56429 0.191757 0
M  V30 3355 C 307.192 -2.02309 -0.456706 0
M  V30 3356 C 307.617 -1.07103 -1.5463 0
M  V30 3357 O 306.975 -0.0539677 -1.8122 0
M  V30 3358 C 307.023 -3.46654 -0.993159 0
M  V30 3359 O 306.127 -3.54559 -2.10622 0
M  V30 3360 H 305.468 -0.655303 -0.107114 0
M  V30 3361 H 307.998 -2.02364 0.301653 0
M  V30 3362 H 308.008 -3.86377 -1.31061 0
M  V30 3363 H 306.683 -4.1544 -0.195504 0
M  V30 3364 H 305.26 -3.26708 -1.79767 0
M  V30 3365 N 307.445 0.0818655 -1.57387 0
M  V30 3366 C 308.694 0.781681 -1.85937 0
M  V30 3367 C 309.007 1.79246 -0.782957 0
M  V30 3368 O 310.213 2.54112 -0.955987 0
M  V30 3369 C 308.669 1.44109 -3.29789 0
M  V30 3370 C 308.277 0.469396 -4.45534 0
M  V30 3371 C 310.021 2.12386 -3.67549 0
M  V30 3372 C 307.928 1.13415 -5.80423 0
M  V30 3373 H 306.858 0.295682 -0.693605 0
M  V30 3374 H 309.509 0.0348051 -1.83467 0
M  V30 3375 H 307.891 2.23588 -3.2684 0
M  V30 3376 H 309.065 -0.294856 -4.59856 0
M  V30 3377 H 307.38 -0.108383 -4.16259 0
M  V30 3378 H 309.977 2.62878 -4.65617 0
M  V30 3379 H 310.32 2.91877 -2.96839 0
M  V30 3380 H 310.853 1.39751 -3.72444 0
M  V30 3381 H 307.592 0.379771 -6.54399 0
M  V30 3382 H 307.112 1.8695 -5.69921 0
M  V30 3383 H 308.791 1.65686 -6.25426 0
M  V30 3384 N 308.923 1.53595 0.353017 0
M  V30 3385 C 309.87 1.80919 1.43308 0
M  V30 3386 C 310.84 0.654288 1.5267 0
M  V30 3387 O 312.025 0.897759 1.6836 0
M  V30 3388 C 309.165 2.01605 2.80089 0
M  V30 3389 C 308.278 3.29321 2.79593 0
M  V30 3390 C 307.413 3.40125 4.0803 0
M  V30 3391 C 306.452 4.61826 4.01725 0
M  V30 3392 N 305.589 4.69716 5.21834 0
M  V30 3393 H 310.429 2.73074 1.19308 0
M  V30 3394 H 307.966 1.35263 0.578131 0
M  V30 3395 H 309.924 2.11586 3.59565 0
M  V30 3396 H 308.554 1.12772 3.0246 0
M  V30 3397 H 307.606 3.28229 1.92276 0
M  V30 3398 H 308.918 4.18884 2.70809 0
M  V30 3399 H 308.072 3.49488 4.95927 0
M  V30 3400 H 306.811 2.48601 4.19582 0
M  V30 3401 H 305.816 4.52552 3.12213 0
M  V30 3402 H 307.041 5.54705 3.91764 0
M  V30 3403 H 304.987 3.81097 5.33948 0
M  V30 3404 H 304.904 5.53202 5.1527 0
M  V30 3405 H 306.172 4.83376 6.11529 0
M  V30 3406 N 310.401 -0.613514 1.45168 0
M  V30 3407 C 311.311 -1.75296 1.55912 0
M  V30 3408 C 312.327 -1.68244 0.443856 0
M  V30 3409 O 313.503 -1.88706 0.70371 0
M  V30 3410 C 310.568 -3.1174 1.5172 0
M  V30 3411 C 309.629 -3.30291 2.74238 0
M  V30 3412 C 308.862 -4.60226 2.70236 0
M  V30 3413 O 309.085 -5.42168 1.77229 0
M  V30 3414 O 308.019 -4.81361 3.61352 0
M  V30 3415 H 311.845 -1.69183 2.52212 0
M  V30 3416 H 309.43 -0.776886 1.27612 0
M  V30 3417 H 311.312 -3.93044 1.51968 0
M  V30 3418 H 309.987 -3.18357 0.585697 0
M  V30 3419 H 308.894 -2.48598 2.79553 0
M  V30 3420 H 310.227 -3.28547 3.66494 0
M  V30 3421 N 311.879 -1.3236 -0.855495 0
M  V30 3422 C 312.789 -1.23221 -1.99634 0
M  V30 3423 C 313.805 -0.145983 -1.73387 0
M  V30 3424 O 314.981 -0.366502 -1.98037 0
M  V30 3425 C 312.046 -0.954782 -3.33294 0
M  V30 3426 C 311.107 -2.12937 -3.72769 0
M  V30 3427 C 310.34 -1.86508 -5.00051 0
M  V30 3428 O 310.563 -0.807231 -5.64659 0
M  V30 3429 O 309.497 -2.72591 -5.36636 0
M  V30 3430 H 313.323 -2.19126 -2.1028 0
M  V30 3431 H 310.908 -1.12241 -0.986018 0
M  V30 3432 H 312.79 -0.816519 -4.13414 0
M  V30 3433 H 311.465 -0.0258854 -3.2369 0
M  V30 3434 H 310.372 -2.3231 -2.93228 0
M  V30 3435 H 311.705 -3.04102 -3.87018 0
M  V30 3436 N 313.357 1.07166 -1.15556 0
M  V30 3437 C 314.304 2.14417 -0.854055 0
M  V30 3438 C 315.274 1.64965 0.193806 0
M  V30 3439 O 316.459 1.90703 0.0609443 0
M  V30 3440 C 313.599 3.43304 -0.351574 0
M  V30 3441 C 312.712 4.06537 -1.46123 0
M  V30 3442 C 311.847 5.23266 -0.914677 0
M  V30 3443 C 310.886 5.78464 -2.00114 0
M  V30 3444 N 310.023 6.86521 -1.47083 0
M  V30 3445 H 314.863 2.39548 -1.77259 0
M  V30 3446 H 312.4 1.17543 -0.884425 0
M  V30 3447 H 314.358 4.17179 -0.0419409 0
M  V30 3448 H 312.988 3.18419 0.530037 0
M  V30 3449 H 312.04 3.30297 -1.88701 0
M  V30 3450 H 313.352 4.43567 -2.28144 0
M  V30 3451 H 312.506 6.04131 -0.557698 0
M  V30 3452 H 311.245 4.87658 -0.0636583 0
M  V30 3453 H 310.25 4.96243 -2.36692 0
M  V30 3454 H 311.475 6.16126 -2.85597 0
M  V30 3455 H 309.421 6.52849 -0.642198 0
M  V30 3456 H 309.338 7.22446 -2.22729 0
M  V30 3457 H 310.606 7.71087 -1.14215 0
M  V30 3458 N 314.835 0.952656 1.25548 0
M  V30 3459 C 316.112 0.523818 1.88456 0
M  V30 3460 C 316.492 -0.998871 1.85973 0
M  V30 3461 O 315.84 -1.86381 1.3219 0
M  V30 3462 C 316.05 1.0982 3.31271 0
M  V30 3463 C 317.398 1.17385 4.08051 0
M  V30 3464 O 318.422 1.04961 3.40384 0
M  V30 3465 O 317.281 1.36852 5.29088 0
M  V30 3466 H 314.375 0.172485 0.808813 0
M  V30 3467 H 316.921 1.04596 1.33633 0
M  V30 3468 H 315.693 2.1415 3.27499 0
M  V30 3469 H 315.316 0.559191 3.93648 0
M  V30 3470 N 316.313 -1.40141 0.720998 0
M  V30 3471 C 317.245 -2.29177 0.0324669 0
M  V30 3472 C 318.258 -1.46105 -0.718126 0
M  V30 3473 O 319.447 -1.69335 -0.564608 0
M  V30 3474 C 316.547 -3.24473 -0.978292 0
M  V30 3475 C 315.72 -4.36423 -0.292115 0
M  V30 3476 C 314.779 -5.12122 -1.20901 0
M  V30 3477 O 313.805 -5.64981 -0.691766 0
M  V30 3478 N 315.007 -5.21992 -2.53978 0
M  V30 3479 H 317.772 -2.88909 0.796984 0
M  V30 3480 H 315.333 -1.51569 0.569068 0
M  V30 3481 H 317.325 -3.71987 -1.59398 0
M  V30 3482 H 315.895 -2.65871 -1.64413 0
M  V30 3483 H 315.115 -3.90967 0.503847 0
M  V30 3484 H 316.403 -5.08467 0.183971 0
M  V30 3485 H 315.801 -4.8054 -2.98493 0
M  V30 3486 H 314.358 -5.72995 -3.10677 0
M  V30 3487 N 317.792 -0.46758 -1.50504 0
M  V30 3488 C 318.722 0.318381 -2.31319 0
M  V30 3489 C 319.703 0.993564 -1.38066 0
M  V30 3490 O 320.888 0.991411 -1.66987 0
M  V30 3491 C 318.018 1.40275 -3.17711 0
M  V30 3492 C 316.972 0.849373 -4.19487 0
M  V30 3493 C 316.298 2.03177 -4.94594 0
M  V30 3494 C 317.598 -0.136942 -5.2212 0
M  V30 3495 H 319.292 -0.356106 -2.97275 0
M  V30 3496 H 316.838 -0.172703 -1.42961 0
M  V30 3497 H 318.791 1.96004 -3.73042 0
M  V30 3498 H 317.515 2.10596 -2.49634 0
M  V30 3499 H 316.174 0.314076 -3.65252 0
M  V30 3500 H 315.822 2.72187 -4.22993 0
M  V30 3501 H 315.522 1.66774 -5.63436 0
M  V30 3502 H 317.046 2.59403 -5.52759 0
M  V30 3503 H 318.46 0.331056 -5.72343 0
M  V30 3504 H 316.857 -0.41507 -5.98663 0
M  V30 3505 H 317.927 -1.06398 -4.73083 0
M  V30 3506 N 319.27 1.56325 -0.20005 0
M  V30 3507 C 320.202 2.16555 0.750771 0
M  V30 3508 C 321.215 1.12871 1.1732 0
M  V30 3509 O 322.404 1.39943 1.10807 0
M  V30 3510 C 319.504 2.71684 2.02586 0
M  V30 3511 C 318.677 4.00321 1.76244 0
M  V30 3512 C 317.736 4.40227 2.88248 0
M  V30 3513 O 316.762 5.07552 2.57642 0
M  V30 3514 N 317.964 4.04138 4.16717 0
M  V30 3515 H 320.729 2.98772 0.235685 0
M  V30 3516 H 318.29 1.6189 -0.0182594 0
M  V30 3517 H 320.282 2.95363 2.76664 0
M  V30 3518 H 318.852 1.93893 2.45202 0
M  V30 3519 H 318.072 3.84723 0.85919 0
M  V30 3520 H 319.36 4.84279 1.56048 0
M  V30 3521 H 318.758 3.49993 4.44434 0
M  V30 3522 H 317.315 4.32756 4.87407 0
M  V30 3523 N 320.748 -0.0735177 1.57428 0
M  V30 3524 C 321.994 -0.774145 1.87443 0
M  V30 3525 C 322.327 -1.77311 0.792103 0
M  V30 3526 O 321.602 -1.93492 -0.197793 0
M  V30 3527 C 321.885 -1.48367 3.28115 0
M  V30 3528 C 321.738 -0.501227 4.46999 0
M  V30 3529 C 323.057 -2.429 3.66998 0
M  V30 3530 H 320.176 -0.279971 0.681752 0
M  V30 3531 H 322.818 -0.0373616 1.89963 0
M  V30 3532 H 320.968 -2.11171 3.26097 0
M  V30 3533 H 322.64 0.121468 4.6114 0
M  V30 3534 H 320.883 0.183593 4.33411 0
M  V30 3535 H 321.554 -1.03526 5.42205 0
M  V30 3536 H 324.03 -1.90175 3.70098 0
M  V30 3537 H 322.906 -2.89549 4.66318 0
M  V30 3538 H 323.167 -3.27628 2.96837 0
M  V30 3539 N 322.226 -1.5378 -0.344866 0
M  V30 3540 C 323.156 -1.84662 -1.42906 0
M  V30 3541 C 324.137 -0.701648 -1.54955 0
M  V30 3542 O 325.322 -0.953438 -1.69184 0
M  V30 3543 C 322.452 -2.05503 -2.79974 0
M  V30 3544 C 321.406 -3.21318 -2.82734 0
M  V30 3545 C 320.732 -3.2749 -4.22675 0
M  V30 3546 C 322.032 -4.59456 -2.48389 0
M  V30 3547 H 323.726 -2.75461 -1.17311 0
M  V30 3548 H 321.272 -1.32542 -0.562896 0
M  V30 3549 H 323.225 -2.25691 -3.55867 0
M  V30 3550 H 321.949 -1.11434 -3.07002 0
M  V30 3551 H 320.608 -3.00984 -2.09294 0
M  V30 3552 H 320.256 -2.31019 -4.4681 0
M  V30 3553 H 319.956 -4.05316 -4.25433 0
M  V30 3554 H 321.48 -3.49887 -5.00412 0
M  V30 3555 H 322.894 -4.79667 -3.13995 0
M  V30 3556 H 321.291 -5.39675 -2.62432 0
M  V30 3557 H 322.361 -4.63155 -1.4358 0
M  V30 3558 N 323.704 0.605807 -1.45491 0
M  V30 3559 C 324.95 1.36679 -1.49823 0
M  V30 3560 C 325.283 1.93693 -0.140175 0
M  V30 3561 O 324.558 1.75158 0.845581 0
M  V30 3562 C 324.841 2.51337 -2.57879 0
M  V30 3563 C 324.694 1.99508 -4.03134 0
M  V30 3564 C 326.013 3.53463 -2.62205 0
M  V30 3565 H 323.132 0.495617 -0.545466 0
M  V30 3566 H 325.774 0.682732 -1.7731 0
M  V30 3567 H 323.924 3.09691 -2.34571 0
M  V30 3568 H 325.596 1.45789 -4.37656 0
M  V30 3569 H 323.839 1.30496 -4.13707 0
M  V30 3570 H 324.51 2.82169 -4.74431 0
M  V30 3571 H 326.986 3.04953 -2.83095 0
M  V30 3572 H 325.862 4.31178 -3.39672 0
M  V30 3573 H 326.123 4.09197 -1.67363 0
M  V30 3574 N 325.182 1.32811 0.848464 0
M  V30 3575 C 326.407 1.26882 1.6406 0
M  V30 3576 C 326.832 -0.15913 1.87426 0
M  V30 3577 O 326.19 -1.11258 1.43148 0
M  V30 3578 C 326.238 2.03997 2.97351 0
M  V30 3579 O 325.342 1.39201 3.88197 0
M  V30 3580 H 324.683 0.436982 0.499943 0
M  V30 3581 H 327.213 1.75224 1.0563 0
M  V30 3582 H 327.223 2.14403 3.47124 0
M  V30 3583 H 325.898 3.0783 2.79666 0
M  V30 3584 H 324.475 1.37381 3.46671 0
M  V30 3585 N 326.66 -1.06551 1.16123 0
M  V30 3586 C 327.607 -2.13961 0.865414 0
M  V30 3587 C 328.577 -1.65066 -0.185055 0
M  V30 3588 O 329.762 -1.90732 -0.05083 0
M  V30 3589 C 326.902 -3.43113 0.369776 0
M  V30 3590 C 326.015 -4.05756 1.48276 0
M  V30 3591 C 325.15 -5.22773 0.942414 0
M  V30 3592 C 324.189 -5.77395 2.03179 0
M  V30 3593 N 323.326 -6.85731 1.50721 0
M  V30 3594 H 328.166 -2.38605 1.78527 0
M  V30 3595 H 325.703 -1.17072 0.890646 0
M  V30 3596 H 327.661 -4.17151 0.0640643 0
M  V30 3597 H 326.291 -3.18695 -0.513143 0
M  V30 3598 H 325.343 -3.29292 1.9045 0
M  V30 3599 H 326.655 -4.42351 2.30493 0
M  V30 3600 H 325.809 -6.03827 0.589729 0
M  V30 3601 H 324.548 -4.87618 0.0895191 0
M  V30 3602 H 323.553 -4.94981 2.3932 0
M  V30 3603 H 324.778 -6.14603 2.8886 0
M  V30 3604 H 322.724 -6.52499 0.676811 0
M  V30 3605 H 322.641 -7.21254 2.26557 0
M  V30 3606 H 323.909 -7.7047 1.18303 0
M  V30 3607 N 328.138 -0.959301 -1.25041 0
M  V30 3608 C 329.07 -0.440543 -2.24926 0
M  V30 3609 C 330.083 0.446131 -1.56568 0
M  V30 3610 O 331.272 0.253657 -1.76689 0
M  V30 3611 C 328.372 0.38412 -3.36716 0
M  V30 3612 C 327.545 -0.490658 -4.34639 0
M  V30 3613 C 326.604 0.276587 -5.25473 0
M  V30 3614 O 325.63 -0.326614 -5.68262 0
M  V30 3615 N 326.832 1.56844 -5.5891 0
M  V30 3616 H 329.597 -1.29931 -2.70071 0
M  V30 3617 H 327.158 -0.830181 -1.38995 0
M  V30 3618 H 329.15 0.905228 -3.94446 0
M  V30 3619 H 327.72 1.14377 -2.90924 0
M  V30 3620 H 326.94 -1.19282 -3.7572 0
M  V30 3621 H 328.228 -1.08756 -4.97041 0
M  V30 3622 H 327.626 2.08036 -5.26059 0
M  V30 3623 H 326.183 2.03541 -6.19205 0
M  V30 3624 N 329.616 1.39756 -0.72842 0
M  V30 3625 C 330.564 2.32485 -0.0731849 0
M  V30 3626 C 331.558 1.52717 0.733063 0
M  V30 3627 O 332.764 1.68428 0.634988 0
M  V30 3628 H 329.139 0.751984 -0.00486469 0
M  V30 3629 H 331.11 2.85382 -0.871761 0
M  V30 3630 C 329.859 3.37773 0.824908 0
M  V30 3631 H 329.182 3.99227 0.213915 0
M  V30 3632 H 330.622 4.05121 1.25111 0
M  V30 3633 C 329.081 2.74287 1.95622 0
M  V30 3634 O 329.611 2.61618 3.04826 0
M  V30 3635 N 327.817 2.32475 1.74367 0
M  V30 3636 H 327.364 2.4298 0.855494 0
M  V30 3637 H 327.322 1.90337 2.50238 0
M  V30 3638 N 331.094 0.475555 1.50254 0
M  V30 3639 C 332.319 -0.0777042 2.07254 0
M  V30 3640 C 332.744 -1.3235 1.3366 0
M  V30 3641 O 332.102 -1.77152 0.385597 0
M  V30 3642 C 332.15 -0.340169 3.58992 0
M  V30 3643 O 331.254 -1.41982 3.87188 0
M  V30 3644 H 330.595 0.0149556 0.663832 0
M  V30 3645 H 333.125 0.667878 1.93392 0
M  V30 3646 H 333.135 -0.579332 4.03866 0
M  V30 3647 H 331.81 0.570167 4.11973 0
M  V30 3648 H 330.387 -1.16762 3.54148 0
M  V30 3649 N 332.573 -1.56217 0.208337 0
M  V30 3650 C 333.822 -1.97124 -0.427204 0
M  V30 3651 C 334.135 -1.09859 -1.61835 0
M  V30 3652 O 335.341 -1.40606 -2.32255 0
M  V30 3653 C 333.797 -3.50633 -0.811442 0
M  V30 3654 C 333.405 -4.46582 0.35615 0
M  V30 3655 C 335.149 -4.00282 -1.41332 0
M  V30 3656 C 333.056 -5.91379 -0.0497852 0
M  V30 3657 H 331.986 -0.736086 -0.163381 0
M  V30 3658 H 334.637 -1.8099 0.302456 0
M  V30 3659 H 333.019 -3.62319 -1.59815 0
M  V30 3660 H 334.193 -4.46636 1.1337 0
M  V30 3661 H 332.508 -4.07202 0.870396 0
M  V30 3662 H 335.105 -5.0595 -1.72972 0
M  V30 3663 H 335.448 -3.45359 -2.32449 0
M  V30 3664 H 335.981 -3.91764 -0.690323 0
M  V30 3665 H 332.72 -6.50255 0.827529 0
M  V30 3666 H 332.24 -5.94549 -0.791926 0
M  V30 3667 H 333.919 -6.45209 -0.481042 0
M  V30 3668 N 334.051 0.0651679 -1.57465 0
M  V30 3669 C 335.3 0.761916 -1.86756 0
M  V30 3670 C 335.613 1.78406 -0.801925 0
M  V30 3671 O 336.819 2.53084 -0.982885 0
M  V30 3672 C 335.275 1.40603 -3.31299 0
M  V30 3673 C 334.883 0.422115 -4.46007 0
M  V30 3674 C 336.627 2.08476 -3.69781 0
M  V30 3675 C 334.534 1.07252 -5.81593 0
M  V30 3676 H 333.464 0.288308 -0.696702 0
M  V30 3677 H 336.115 0.015344 -1.83494 0
M  V30 3678 H 334.497 2.20109 -3.29193 0
M  V30 3679 H 335.671 -0.343613 -4.59517 0
M  V30 3680 H 333.986 -0.152527 -4.16121 0
M  V30 3681 H 336.583 2.57925 -4.68379 0
M  V30 3682 H 336.926 2.88712 -2.99919 0
M  V30 3683 H 337.459 1.35792 -3.73905 0
M  V30 3684 H 334.198 0.310342 -6.54765 0
M  V30 3685 H 333.718 1.80895 -5.71872 0
M  V30 3686 H 335.397 1.59043 -6.27148 0
M  V30 3687 N 335.529 1.53961 0.336706 0
M  V30 3688 C 336.439 1.85432 1.43708 0
M  V30 3689 C 337.455 0.745053 1.57242 0
M  V30 3690 O 338.631 1.03804 1.72588 0
M  V30 3691 C 335.696 2.06349 2.78605 0
M  V30 3692 C 334.757 3.30191 2.74358 0
M  V30 3693 C 333.99 3.50101 4.02822 0
M  V30 3694 O 334.213 2.7371 5.00439 0
M  V30 3695 O 333.147 4.43547 4.06878 0
M  V30 3696 H 336.973 2.78975 1.20028 0
M  V30 3697 H 334.558 1.39701 0.52952 0
M  V30 3698 H 336.44 2.21513 3.58483 0
M  V30 3699 H 335.115 1.15995 3.02203 0
M  V30 3700 H 334.022 3.20425 1.93078 0
M  V30 3701 H 335.355 4.2056 2.55715 0
M  V30 3702 N 337.007 -0.598083 1.45811 0
M  V30 3703 C 337.917 -1.73632 1.57763 0
M  V30 3704 C 338.933 -1.67763 0.461676 0
M  V30 3705 O 340.109 -1.87949 0.723685 0
M  V30 3706 C 337.174 -3.10114 1.55018 0
M  V30 3707 C 336.235 -3.27364 2.77726 0
M  V30 3708 C 335.468 -4.57334 2.75102 0
M  V30 3709 O 335.691 -5.40258 1.8297 0
M  V30 3710 O 334.625 -4.77502 3.66437 0
M  V30 3711 H 338.451 -1.66498 2.53992 0
M  V30 3712 H 336.036 -0.763308 1.28429 0
M  V30 3713 H 337.918 -3.9141 1.56129 0
M  V30 3714 H 336.593 -3.17718 0.619431 0
M  V30 3715 H 335.5 -2.45619 2.82174 0
M  V30 3716 H 336.833 -3.24641 3.69958 0
M  V30 3717 N 338.485 -1.33259 -0.841409 0
M  V30 3718 C 339.415 -1.25926 -1.96634 0
M  V30 3719 C 340.396 -0.140349 -1.6952 0
M  V30 3720 O 341.581 -0.329707 -1.91381 0
M  V30 3721 C 338.711 -0.99512 -3.32738 0
M  V30 3722 C 337.665 -2.0767 -3.74242 0
M  V30 3723 C 336.991 -1.66474 -5.08125 0
M  V30 3724 C 338.291 -3.49318 -3.88297 0
M  V30 3725 H 339.985 -2.20046 -2.03027 0
M  V30 3726 H 337.531 -1.05931 -0.975425 0
M  V30 3727 H 339.484 -0.930323 -4.11002 0
M  V30 3728 H 338.208 -0.0183004 -3.26595 0
M  V30 3729 H 336.867 -2.13187 -2.98239 0
M  V30 3730 H 336.515 -0.675012 -4.9845 0
M  V30 3731 H 336.215 -2.3885 -5.36865 0
M  V30 3732 H 337.739 -1.61455 -5.88867 0
M  V30 3733 H 339.153 -3.46316 -4.56879 0
M  V30 3734 H 337.55 -4.20158 -4.28471 0
M  V30 3735 H 338.62 -3.8801 -2.9082 0
M  V30 3736 N 339.963 1.05934 -1.16686 0
M  V30 3737 C 340.873 2.17014 -0.891183 0
M  V30 3738 C 341.889 1.73453 0.137907 0
M  V30 3739 O 343.065 2.01361 -0.039592 0
M  V30 3740 C 340.13 3.44384 -0.400099 0
M  V30 3741 C 339.191 4.02433 -1.49486 0
M  V30 3742 C 338.424 5.23723 -1.02711 0
M  V30 3743 O 338.647 5.7027 0.121716 0
M  V30 3744 O 337.581 5.7382 -1.81699 0
M  V30 3745 H 341.407 2.43113 -1.82015 0
M  V30 3746 H 338.992 1.15541 -0.947132 0
M  V30 3747 H 340.874 4.21189 -0.133392 0
M  V30 3748 H 339.549 3.19802 0.500817 0
M  V30 3749 H 338.456 3.27102 -1.81535 0
M  V30 3750 H 339.789 4.31317 -2.37121 0
M  V30 3751 N 341.441 0.965919 1.2453 0
M  V30 3752 C 342.388 0.49402 2.25451 0
M  V30 3753 C 343.358 -0.45948 1.59618 0
M  V30 3754 O 344.543 -0.370238 1.87173 0
M  V30 3755 C 341.683 -0.211359 3.44452 0
M  V30 3756 C 340.796 0.7807 4.24887 0
M  V30 3757 C 339.931 0.0516105 5.31175 0
M  V30 3758 C 338.97 1.03385 6.03306 0
M  V30 3759 N 338.107 0.334887 7.01301 0
M  V30 3760 H 342.947 1.35946 2.65184 0
M  V30 3761 H 340.484 0.681515 1.3036 0
M  V30 3762 H 342.442 -0.637 4.12308 0
M  V30 3763 H 341.072 -1.04077 3.05562 0
M  V30 3764 H 340.124 1.32479 3.56586 0
M  V30 3765 H 341.436 1.52978 4.74762 0
M  V30 3766 H 340.59 -0.432114 6.05159 0
M  V30 3767 H 339.329 -0.730179 4.82203 0
M  V30 3768 H 338.334 1.52847 5.28127 0
M  V30 3769 H 339.559 1.81606 6.54367 0
M  V30 3770 H 337.505 -0.427959 6.54603 0
M  V30 3771 H 337.422 1.02287 7.49048 0
M  V30 3772 H 338.69 -0.126928 7.79397 0
M  V30 3773 N 342.919 -1.39368 0.735821 0
M  V30 3774 C 343.866 -2.30599 0.0963825 0
M  V30 3775 C 344.836 -1.49257 -0.728794 0
M  V30 3776 O 346.021 -1.77941 -0.688588 0
M  V30 3777 C 343.161 -3.35596 -0.804305 0
M  V30 3778 C 342.274 -4.31987 0.0335761 0
M  V30 3779 C 341.409 -5.24053 -0.868461 0
M  V30 3780 C 340.448 -6.12095 -0.0258776 0
M  V30 3781 N 339.585 -6.96514 -0.883893 0
M  V30 3782 H 344.425 -2.8471 0.880002 0
M  V30 3783 H 341.962 -1.40188 0.445619 0
M  V30 3784 H 343.92 -3.95062 -1.34096 0
M  V30 3785 H 342.55 -2.82938 -1.55389 0
M  V30 3786 H 341.602 -3.74133 0.68766 0
M  V30 3787 H 342.914 -4.94074 0.685036 0
M  V30 3788 H 342.068 -5.88549 -1.47293 0
M  V30 3789 H 340.807 -4.62289 -1.5537 0
M  V30 3790 H 339.812 -5.4661 0.591386 0
M  V30 3791 H 341.037 -6.75923 0.656156 0
M  V30 3792 H 338.983 -6.37318 -1.55441 0
M  V30 3793 H 338.9 -7.55448 -0.288931 0
M  V30 3794 H 340.168 -7.65439 -1.4739 0
M  V30 3795 N 344.397 -0.483516 -1.5 0
M  V30 3796 C 345.646 0.0689102 -2.01582 0
M  V30 3797 C 345.959 1.39655 -1.36952 0
M  V30 3798 O 347.165 2.03465 -1.79762 0
M  V30 3799 C 345.621 0.173302 -3.59483 0
M  V30 3800 C 345.229 -1.14665 -4.33077 0
M  V30 3801 C 346.973 0.677024 -4.19066 0
M  V30 3802 C 344.88 -1.00537 -5.82792 0
M  V30 3803 H 343.81 0.0295277 -0.753422 0
M  V30 3804 H 346.461 -0.620295 -1.72698 0
M  V30 3805 H 344.843 0.926569 -3.85007 0
M  V30 3806 H 346.017 -1.91184 -4.19268 0
M  V30 3807 H 344.332 -1.58244 -3.85159 0
M  V30 3808 H 346.929 0.799952 -5.28682 0
M  V30 3809 H 347.272 1.67151 -3.81269 0
M  V30 3810 H 347.805 -0.0192083 -3.97795 0
M  V30 3811 H 344.544 -1.9736 -6.25083 0
M  V30 3812 H 344.064 -0.280776 -5.99142 0
M  V30 3813 H 345.743 -0.677 -6.43448 0
M  V30 3814 N 345.875 1.56104 -0.216619 0
M  V30 3815 C 347.121 1.98466 0.417033 0
M  V30 3816 C 347.454 1.10403 1.59765 0
M  V30 3817 O 346.729 0.160632 1.93836 0
M  V30 3818 C 347.012 3.49769 0.85637 0
M  V30 3819 C 346.865 4.48606 -0.327546 0
M  V30 3820 C 348.184 4.05339 1.7143 0
M  V30 3821 H 345.303 0.721551 0.150112 0
M  V30 3822 H 347.945 1.87423 -0.311864 0
M  V30 3823 H 346.095 3.5931 1.47745 0
M  V30 3824 H 347.767 4.5108 -0.965618 0
M  V30 3825 H 346.01 4.22682 -0.975805 0
M  V30 3826 H 346.681 5.51995 0.0227149 0
M  V30 3827 H 349.157 3.98712 1.19031 0
M  V30 3828 H 348.033 5.11533 1.99061 0
M  V30 3829 H 348.294 3.51918 2.67593 0
M  V30 3830 N 347.353 -0.0568162 1.57498 0
M  V30 3831 C 348.581 -0.765626 1.92213 0
M  V30 3832 C 348.996 -1.70353 0.813961 0
M  V30 3833 O 348.353 -1.81268 -0.211701 0
M  V30 3834 C 348.404 -1.5465 3.2675 0
M  V30 3835 O 348.125 -0.646278 4.33307 0
M  V30 3836 C 349.626 -2.35497 3.75574 0
M  V30 3837 H 346.846 -0.216835 0.634999 0
M  V30 3838 H 349.39 -0.0226146 2.04487 0
M  V30 3839 H 347.545 -2.24165 3.15957 0
M  V30 3840 H 347.959 -1.19093 5.108 0
M  V30 3841 H 349.433 -2.85722 4.72299 0
M  V30 3842 H 349.91 -3.15692 3.05344 0
M  V30 3843 H 350.516 -1.7111 3.8936 0
M  V30 3844 N 348.832 -1.54138 -0.328536 0
M  V30 3845 C 349.795 -1.82462 -1.38709 0
M  V30 3846 C 350.795 -0.696229 -1.44946 0
M  V30 3847 O 351.985 -0.964535 -1.4506 0
M  V30 3848 C 349.117 -1.98018 -2.77492 0
M  V30 3849 H 350.31 -2.77037 -1.14851 0
M  V30 3850 H 347.863 -1.45779 -0.563751 0
M  V30 3851 H 348.598 -1.05637 -3.06613 0
M  V30 3852 H 348.383 -2.80124 -2.74359 0
M  V30 3853 H 349.873 -2.21396 -3.54081 0
M  V30 3854 N 350.31 0.590341 -1.46126 0
M  V30 3855 C 351.538 1.37504 -1.54597 0
M  V30 3856 C 351.953 1.87897 -0.184447 0
M  V30 3857 O 351.31 1.63192 0.816984 0
M  V30 3858 C 351.361 2.56779 -2.54454 0
M  V30 3859 O 351.082 2.08476 -3.85317 0
M  V30 3860 C 352.583 3.49427 -2.72792 0
M  V30 3861 H 349.803 0.420325 -0.523037 0
M  V30 3862 H 352.347 0.718383 -1.91467 0
M  V30 3863 H 350.502 3.1845 -2.20609 0
M  V30 3864 H 350.916 2.86097 -4.396 0
M  V30 3865 H 352.39 4.29619 -3.466 0
M  V30 3866 H 352.867 4.00876 -1.79429 0
M  V30 3867 H 353.473 2.93598 -3.07702 0
M  V30 3868 N 351.788 1.33704 0.83433 0
M  V30 3869 C 353.034 1.25603 1.59222 0
M  V30 3870 C 353.367 -0.176659 1.93395 0
M  V30 3871 O 352.642 -1.11915 1.59076 0
M  V30 3872 C 352.925 2.13576 2.89926 0
M  V30 3873 C 352.778 3.65326 2.62406 0
M  V30 3874 C 354.097 2.01238 3.91397 0
M  V30 3875 H 351.216 0.457613 0.577719 0
M  V30 3876 H 353.858 1.63848 0.961972 0
M  V30 3877 H 352.008 1.8109 3.43713 0
M  V30 3878 H 353.68 4.08124 2.15017 0
M  V30 3879 H 351.923 3.8698 1.96033 0
M  V30 3880 H 352.594 4.22232 3.55562 0
M  V30 3881 H 355.07 2.29738 3.46929 0
M  V30 3882 H 353.946 2.65036 4.80673 0
M  V30 3883 H 354.207 0.985951 4.30966 0
M  V30 3884 N 353.266 -1.05314 1.17247 0
M  V30 3885 C 354.214 -2.15137 0.884238 0
M  V30 3886 C 355.208 -1.68729 -0.15063 0
M  V30 3887 O 356.414 -1.8 -0.00366673 0
M  V30 3888 H 352.789 -0.702471 0.2684 0
M  V30 3889 H 354.76 -2.36652 1.81764 0
M  V30 3890 C 353.509 -3.45243 0.412659 0
M  V30 3891 H 352.832 -3.81352 1.20043 0
M  V30 3892 H 354.272 -4.23263 0.249858 0
M  V30 3893 C 352.731 -3.25487 -0.86948 0
M  V30 3894 O 353.261 -3.51938 -1.93655 0
M  V30 3895 N 351.467 -2.78875 -0.817147 0
M  V30 3896 H 351.014 -2.57549 0.0514211 0
M  V30 3897 H 350.972 -2.66036 -1.67547 0
M  V30 3898 N 354.744 -0.972509 -1.24016 0
M  V30 3899 C 355.692 -0.498562 -2.27194 0
M  V30 3900 C 356.686 0.440372 -1.63576 0
M  V30 3901 O 357.892 0.315133 -1.7722 0
M  V30 3902 H 354.267 -0.142775 -0.738322 0
M  V30 3903 H 356.238 -1.38065 -2.64539 0
M  V30 3904 C 354.987 0.191072 -3.47175 0
M  V30 3905 H 354.31 -0.522318 -3.96373 0
M  V30 3906 H 355.75 0.486445 -4.212 0
M  V30 3907 C 354.209 1.41967 -3.05527 0
M  V30 3908 O 354.739 2.51642 -3.13112 0
M  V30 3909 N 352.945 1.28746 -2.60524 0
M  V30 3910 H 352.492 0.395089 -2.54552 0
M  V30 3911 H 352.45 2.11061 -2.33025 0
M  V30 3912 N 356.222 1.38976 -0.743202 0
M  V30 3913 C 357.447 2.05161 -0.303936 0
M  V30 3914 C 357.872 1.55677 1.05576 0
M  V30 3915 O 357.23 0.704131 1.67068 0
M  V30 3916 C 357.278 3.59138 -0.324373 0
M  V30 3917 O 356.382 4.06668 0.685204 0
M  V30 3918 H 355.723 0.649815 -0.136518 0
M  V30 3919 H 358.253 1.77852 -1.01142 0
M  V30 3920 H 358.263 4.07639 -0.171618 0
M  V30 3921 H 356.938 3.94515 -1.31647 0
M  V30 3922 H 355.515 3.69561 0.497913 0
M  V30 3923 N 357.7 0.491464 1.49741 0
M  V30 3924 C 358.946 -0.0565092 2.02721 0
M  V30 3925 C 359.279 -1.37522 1.37118 0
M  V30 3926 O 358.554 -1.87866 0.503645 0
M  V30 3927 C 358.837 -0.219051 3.59433 0
M  V30 3928 C 358.69 1.12211 4.35579 0
M  V30 3929 C 360.009 -0.964157 4.29409 0
M  V30 3930 H 357.128 -0.0190627 0.736753 0
M  V30 3931 H 359.77 0.641021 1.7886 0
M  V30 3932 H 357.92 -0.813165 3.79895 0
M  V30 3933 H 359.592 1.75437 4.26637 0
M  V30 3934 H 357.835 1.71377 3.98513 0
M  V30 3935 H 358.506 0.961794 5.43556 0
M  V30 3936 H 360.982 -0.460378 4.13545 0
M  V30 3937 H 359.858 -1.04671 5.38828 0
M  V30 3938 H 360.119 -2.00563 3.93988 0
M  V30 3939 N 359.178 -1.55987 0.224894 0
M  V30 3940 C 360.108 -2.23426 -0.678457 0
M  V30 3941 C 361.089 -1.20709 -1.19847 0
M  V30 3942 O 362.274 -1.49304 -1.24186 0
M  V30 3943 C 359.404 -2.91676 -1.88527 0
M  V30 3944 C 358.358 -4.00893 -1.49896 0
M  V30 3945 C 357.684 -4.56455 -2.78483 0
M  V30 3946 C 358.984 -5.17769 -0.686461 0
M  V30 3947 H 360.678 -2.99175 -0.116173 0
M  V30 3948 H 358.224 -1.43897 -0.054436 0
M  V30 3949 H 360.177 -3.37547 -2.5227 0
M  V30 3950 H 358.901 -2.1338 -2.47258 0
M  V30 3951 H 357.56 -3.55758 -0.884985 0
M  V30 3952 H 357.208 -3.74886 -3.35365 0
M  V30 3953 H 356.908 -5.30169 -2.53368 0
M  V30 3954 H 358.432 -5.05047 -3.43162 0
M  V30 3955 H 359.846 -5.60001 -1.22767 0
M  V30 3956 H 358.243 -5.97735 -0.532259 0
M  V30 3957 H 359.313 -4.83932 0.306196 0
M  V30 3958 N 360.656 0.0484629 -1.57525 0
M  V30 3959 C 361.588 1.08222 -2.02041 0
M  V30 3960 C 362.601 1.33621 -0.930012 0
M  V30 3961 O 363.79 1.3145 -1.20761 0
M  V30 3962 C 360.89 2.42818 -2.36416 0
M  V30 3963 C 360.063 2.37049 -3.67596 0
M  V30 3964 C 359.122 3.53937 -3.89378 0
M  V30 3965 O 358.148 3.34308 -4.60681 0
M  V30 3966 N 359.35 4.75126 -3.3352 0
M  V30 3967 H 362.115 0.702946 -2.9134 0
M  V30 3968 H 359.676 0.236745 -1.6016 0
M  V30 3969 H 361.668 3.197 -2.48141 0
M  V30 3970 H 360.238 2.72661 -1.52888 0
M  V30 3971 H 359.458 1.45395 -3.66407 0
M  V30 3972 H 360.746 2.30318 -4.53686 0
M  V30 3973 H 360.144 4.93976 -2.75688 0
M  V30 3974 H 358.701 5.49439 -3.50656 0
M  V30 3975 N 362.134 1.5431 0.320358 0
M  V30 3976 C 363.081 1.83918 1.39438 0
M  V30 3977 C 364.051 0.686525 1.51248 0
M  V30 3978 O 365.236 0.933269 1.66417 0
M  V30 3979 C 362.376 2.075 2.75749 0
M  V30 3980 C 361.489 3.35177 2.72544 0
M  V30 3981 C 360.624 3.48704 4.00723 0
M  V30 3982 C 359.663 4.70244 3.91838 0
M  V30 3983 N 358.8 4.80679 5.11754 0
M  V30 3984 H 363.64 2.75544 1.13489 0
M  V30 3985 H 361.177 1.36459 0.549309 0
M  V30 3986 H 363.135 2.19166 3.54996 0
M  V30 3987 H 361.765 1.19163 3 0
M  V30 3988 H 360.817 3.32233 1.85271 0
M  V30 3989 H 362.129 4.24534 2.61863 0
M  V30 3990 H 361.283 3.59928 4.88402 0
M  V30 3991 H 360.022 2.57445 4.14214 0
M  V30 3992 H 359.027 4.59072 3.02544 0
M  V30 3993 H 360.252 5.6289 3.7991 0
M  V30 3994 H 358.198 3.92337 5.25745 0
M  V30 3995 H 358.115 5.64007 5.0342 0
M  V30 3996 H 359.383 4.96239 6.01138 0
M  V30 3997 N 363.613 -0.582584 1.46437 0
M  V30 3998 C 364.545 -1.70618 1.53043 0
M  V30 3999 C 365.558 -1.57322 0.418769 0
M  V30 4000 O 366.747 -1.64744 0.687136 0
M  V30 4001 C 363.847 -3.08869 1.39474 0
M  V30 4002 C 363.02 -3.48166 2.64762 0
M  V30 4003 C 362.079 -4.65478 2.4539 0
M  V30 4004 O 361.105 -4.71333 3.19114 0
M  V30 4005 N 362.307 -5.60365 1.51564 0
M  V30 4006 H 365.072 -1.65405 2.49923 0
M  V30 4007 H 362.633 -0.768567 1.42494 0
M  V30 4008 H 364.625 -3.85143 1.24287 0
M  V30 4009 H 363.195 -3.08449 0.507758 0
M  V30 4010 H 362.415 -2.61598 2.9489 0
M  V30 4011 H 363.703 -3.71188 3.4799 0
M  V30 4012 H 363.101 -5.5837 0.907705 0
M  V30 4013 H 361.658 -6.36068 1.4234 0
M  V30 4014 N 365.091 -1.34144 -0.827227 0
M  V30 4015 C 366.023 -1.21206 -1.9453 0
M  V30 4016 C 367.036 -0.140176 -1.62195 0
M  V30 4017 O 368.225 -0.391647 -1.7415 0
M  V30 4018 C 365.325 -0.839141 -3.28347 0
M  V30 4019 C 364.498 -2.0051 -3.88734 0
M  V30 4020 C 363.557 -1.61128 -5.00923 0
M  V30 4021 O 362.583 -2.32726 -5.19449 0
M  V30 4022 N 363.785 -0.522958 -5.7814 0
M  V30 4023 H 366.55 -2.17525 -2.06162 0
M  V30 4024 H 364.111 -1.27043 -1.00358 0
M  V30 4025 H 366.103 -0.557556 -4.00841 0
M  V30 4026 H 364.673 0.0337293 -3.12582 0
M  V30 4027 H 363.893 -2.45166 -3.08686 0
M  V30 4028 H 365.181 -2.78498 -4.25812 0
M  V30 4029 H 364.579 0.0723518 -5.65654 0
M  V30 4030 H 363.136 -0.301089 -6.51104 0
M  V30 4031 N 366.569 1.04691 -1.17803 0
M  V30 4032 C 367.519 2.10856 -0.867391 0
M  V30 4033 C 368.503 1.601 0.160206 0
M  V30 4034 O 369.695 1.76948 -0.042947 0
M  V30 4035 C 366.824 3.411 -0.388012 0
M  V30 4036 C 365.91 3.9864 -1.44732 0
M  V30 4037 N 366.301 4.30075 -2.66212 0
M  V30 4038 C 364.599 4.26439 -1.30637 0
M  V30 4039 C 365.3 4.76033 -3.34317 0
M  V30 4040 N 364.276 4.76462 -2.61696 0
M  V30 4041 H 368.078 2.33029 -1.79094 0
M  V30 4042 H 365.592 1.22386 -1.0675 0
M  V30 4043 H 367.589 4.16641 -0.146994 0
M  V30 4044 H 366.249 3.20357 0.529271 0
M  V30 4045 H 367.26 4.19917 -3.03134 0
M  V30 4046 H 363.937 4.15056 -0.451129 0
M  V30 4047 H 365.327 5.09427 -4.38103 0
M  V30 4048 N 368.047 0.979072 1.23499 0
M  V30 4049 C 369.324 0.563674 1.87302 0
M  V30 4050 C 369.704 -0.959199 1.88049 0
M  V30 4051 O 369.052 -1.83535 1.36114 0
M  V30 4052 C 369.262 1.16822 3.28867 0
M  V30 4053 C 370.61 1.26014 4.0547 0
M  V30 4054 O 371.634 1.12158 3.38082 0
M  V30 4055 O 370.493 1.48044 5.26066 0
M  V30 4056 H 367.587 0.189602 0.804972 0
M  V30 4057 H 370.133 1.07407 1.31384 0
M  V30 4058 H 368.905 2.21049 3.22883 0
M  V30 4059 H 368.528 0.642564 3.92373 0
M  V30 4060 N 369.525 -1.3858 0.750561 0
M  V30 4061 C 370.455 -2.33102 0.136237 0
M  V30 4062 C 371.436 -1.54713 -0.706965 0
M  V30 4063 O 372.621 -1.83043 -0.648769 0
M  V30 4064 C 369.751 -3.38882 -0.760017 0
M  V30 4065 C 368.705 -4.27995 -0.0197785 0
M  V30 4066 C 368.031 -5.24605 -1.03408 0
M  V30 4067 C 369.331 -5.09554 1.14684 0
M  V30 4068 H 371.025 -2.84726 0.925822 0
M  V30 4069 H 368.571 -1.36898 0.446654 0
M  V30 4070 H 370.524 -4.0397 -1.19943 0
M  V30 4071 H 369.248 -2.85734 -1.58189 0
M  V30 4072 H 367.907 -3.64409 0.400184 0
M  V30 4073 H 367.555 -4.67746 -1.84994 0
M  V30 4074 H 367.255 -5.85081 -0.543464 0
M  V30 4075 H 368.779 -5.9257 -1.47288 0
M  V30 4076 H 370.193 -5.67899 0.785118 0
M  V30 4077 H 368.59 -5.7925 1.56812 0
M  V30 4078 H 369.66 -4.4347 1.96118 0
M  V30 4079 N 371.003 -0.499398 -1.49478 0
M  V30 4080 C 371.936 0.326491 -2.25852 0
M  V30 4081 C 372.914 0.971776 -1.30366 0
M  V30 4082 O 374.098 1.00219 -1.59651 0
M  V30 4083 C 371.225 1.45969 -3.05632 0
M  V30 4084 C 370.271 0.928938 -4.16261 0
M  V30 4085 S 371.104 -0.179012 -5.35201 0
M  V30 4086 C 372.26 0.957389 -6.18534 0
M  V30 4087 H 372.493 -0.321746 -2.95554 0
M  V30 4088 H 370.026 -0.284674 -1.51753 0
M  V30 4089 H 371.984 2.109 -3.52181 0
M  V30 4090 H 370.645 2.07953 -2.35402 0
M  V30 4091 H 369.838 1.77813 -4.71592 0
M  V30 4092 H 369.44 0.356869 -3.72293 0
M  V30 4093 H 371.732 1.86296 -6.51383 0
M  V30 4094 H 372.675 0.442733 -7.06715 0
M  V30 4095 H 373.083 1.224 -5.5107 0
M  V30 4096 N 372.481 1.55866 -0.233164 0
M  V30 4097 C 373.391 2.24431 0.683217 0
M  V30 4098 C 374.407 1.2558 1.2044 0
M  V30 4099 O 375.583 1.58422 1.24356 0
M  V30 4100 C 372.648 2.91979 1.86947 0
M  V30 4101 C 371.709 4.06204 1.38912 0
M  V30 4102 C 370.942 4.70522 2.51883 0
M  V30 4103 O 371.165 4.33865 3.70293 0
M  V30 4104 O 370.099 5.59296 2.22423 0
M  V30 4105 H 373.925 3.03426 0.129059 0
M  V30 4106 H 371.51 1.494 -0.0022283 0
M  V30 4107 H 373.392 3.34573 2.56201 0
M  V30 4108 H 372.067 2.15935 2.41151 0
M  V30 4109 H 370.974 3.68155 0.664259 0
M  V30 4110 H 372.307 4.84025 0.893328 0
M  V30 4111 N 373.959 -0.0401083 1.57549 0
M  V30 4112 C 375.187 -0.745196 1.93014 0
M  V30 4113 C 375.602 -1.6948 0.831984 0
M  V30 4114 O 374.959 -1.81482 -0.192463 0
M  V30 4115 C 375.01 -1.51176 3.28372 0
M  V30 4116 O 374.731 -0.600284 4.33968 0
M  V30 4117 C 376.232 -2.315 3.78051 0
M  V30 4118 H 373.452 -0.210088 0.637263 0
M  V30 4119 H 375.996 -0.000924689 2.045 0
M  V30 4120 H 374.151 -2.20801 3.18317 0
M  V30 4121 H 374.565 -1.13669 5.12035 0
M  V30 4122 H 376.039 -2.80697 4.75303 0
M  V30 4123 H 376.516 -3.12436 3.08675 0
M  V30 4124 H 377.122 -1.66971 3.91153 0
M  V30 4125 N 375.437 -1.54477 -0.31217 0
M  V30 4126 C 376.683 -1.73483 -1.0503 0
M  V30 4127 C 377.016 -0.513125 -1.87298 0
M  V30 4128 O 376.291 0.489864 -1.8823 0
M  V30 4129 C 376.574 -3.01723 -1.96558 0
M  V30 4130 C 376.427 -4.3417 -1.17545 0
M  V30 4131 C 377.746 -3.25772 -2.95907 0
M  V30 4132 H 374.865 -0.631222 -0.380432 0
M  V30 4133 H 377.507 -1.87184 -0.325932 0
M  V30 4134 H 375.657 -2.90174 -2.58324 0
M  V30 4135 H 377.329 -4.5762 -0.581513 0
M  V30 4136 H 375.572 -4.31159 -0.477925 0
M  V30 4137 H 376.243 -5.20143 -1.84811 0
M  V30 4138 H 378.719 -3.36857 -2.44267 0
M  V30 4139 H 377.595 -4.16838 -3.57123 0
M  V30 4140 H 377.856 -2.43537 -3.68974 0
M  V30 4141 N 376.915 0.57481 -1.46744 0
M  V30 4142 C 377.863 1.70435 -1.58286 0
M  V30 4143 C 378.857 1.63287 -0.450956 0
M  V30 4144 O 380.063 1.68685 -0.628121 0
M  V30 4145 H 376.438 0.56364 -0.497809 0
M  V30 4146 H 378.409 1.57833 -2.53242 0
M  V30 4147 C 377.158 3.08815 -1.59776 0
M  V30 4148 H 376.481 3.1499 -2.46214 0
M  V30 4149 H 377.921 3.87588 -1.71905 0
M  V30 4150 C 376.38 3.35301 -0.327812 0
M  V30 4151 O 376.91 3.97511 0.57861 0
M  V30 4152 N 375.116 2.89816 -0.213274 0
M  V30 4153 H 374.663 2.39371 -0.951798 0
M  V30 4154 H 374.621 3.0791 0.63553 0
M  V30 4155 N 378.394 1.34581 0.820102 0
M  V30 4156 C 379.342 1.26401 1.95258 0
M  V30 4157 C 380.336 0.161553 1.68628 0
M  V30 4158 O 381.542 0.326703 1.7701 0
M  V30 4159 H 377.917 0.392749 0.64129 0
M  V30 4160 H 379.888 2.22105 1.99279 0
M  V30 4161 C 378.637 1.03919 3.31807 0
M  V30 4162 H 377.96 1.87984 3.52848 0
M  V30 4163 H 379.4 1.02232 4.11491 0
M  V30 4164 C 377.859 -0.257433 3.35915 0
M  V30 4165 O 378.389 -1.25784 3.81499 0
M  V30 4166 N 376.595 -0.291524 2.89134 0
M  V30 4167 H 376.142 0.523161 2.52232 0
M  V30 4168 H 376.1 -1.15883 2.92264 0
M  V30 4169 N 379.872 -1.04064 1.18357 0
M  V30 4170 C 380.802 -2.14001 0.934113 0
M  V30 4171 C 381.783 -1.69616 -0.128186 0
M  V30 4172 O 382.968 -1.94185 0.0244093 0
M  V30 4173 C 380.098 -3.44253 0.459066 0
M  V30 4174 C 379.052 -4.02261 1.46185 0
M  V30 4175 C 378.378 -5.27992 0.844322 0
M  V30 4176 C 379.678 -4.38432 2.83856 0
M  V30 4177 H 381.372 -2.35127 1.85352 0
M  V30 4178 H 378.918 -1.12998 0.892604 0
M  V30 4179 H 380.871 -4.20522 0.271907 0
M  V30 4180 H 379.595 -3.22813 -0.495912 0
M  V30 4181 H 378.254 -3.28074 1.63595 0
M  V30 4182 H 377.902 -5.02862 -0.117845 0
M  V30 4183 H 377.602 -5.67765 1.51384 0
M  V30 4184 H 379.126 -6.06938 0.667693 0
M  V30 4185 H 380.54 -5.05688 2.70098 0
M  V30 4186 H 378.937 -4.89254 3.47491 0
M  V30 4187 H 380.007 -3.4826 3.37406 0
M  V30 4188 N 381.35 -0.985608 -1.22978 0
M  V30 4189 C 382.28 -0.549649 -2.26939 0
M  V30 4190 C 383.261 0.419803 -1.64838 0
M  V30 4191 O 384.446 0.31203 -1.91677 0
M  V30 4192 C 381.576 0.143652 -3.47003 0
M  V30 4193 C 380.53 -0.743606 -4.21491 0
M  V30 4194 C 379.856 0.0822027 -5.34637 0
M  V30 4195 C 381.156 -2.03694 -4.80943 0
M  V30 4196 H 382.85 -1.41862 -2.63658 0
M  V30 4197 H 380.396 -0.683571 -1.26741 0
M  V30 4198 H 382.349 0.459985 -4.18882 0
M  V30 4199 H 381.073 1.04711 -3.09359 0
M  V30 4200 H 379.732 -1.04347 -3.51436 0
M  V30 4201 H 379.38 0.986359 -4.93234 0
M  V30 4202 H 379.08 -0.508377 -5.85397 0
M  V30 4203 H 380.604 0.392797 -6.09335 0
M  V30 4204 H 382.018 -1.78504 -5.44802 0
M  V30 4205 H 380.415 -2.57573 -5.42011 0
M  V30 4206 H 381.485 -2.72042 -4.01399 0
M  V30 4207 N 382.828 1.3818 -0.7579 0
M  V30 4208 C 384.056 2.04301 -0.326937 0
M  V30 4209 C 384.471 1.57163 1.0462 0
M  V30 4210 O 383.828 0.746626 1.66529 0
M  V30 4211 C 383.879 3.59846 -0.345363 0
M  V30 4212 O 383.6 4.05256 -1.66432 0
M  V30 4213 C 385.101 4.4319 0.098927 0
M  V30 4214 H 382.321 0.656443 -0.139012 0
M  V30 4215 H 384.865 1.76786 -1.02796 0
M  V30 4216 H 383.02 3.86182 0.306955 0
M  V30 4217 H 383.434 4.99709 -1.59345 0
M  V30 4218 H 384.908 5.51989 0.0348745 0
M  V30 4219 H 385.385 4.23947 1.14741 0
M  V30 4220 H 385.991 4.22051 -0.52468 0
M  V30 4221 N 384.306 0.507319 1.49211 0
M  V30 4222 C 385.239 -0.314509 2.26022 0
M  V30 4223 C 386.217 -0.964849 1.30879 0
M  V30 4224 O 387.401 -0.993707 1.6018 0
M  V30 4225 C 384.528 -1.44346 3.06402 0
M  V30 4226 C 383.574 -0.90685 4.16748 0
M  V30 4227 S 384.407 0.207392 5.35098 0
M  V30 4228 C 385.563 -0.924573 6.19033 0
M  V30 4229 H 385.796 0.337416 2.95379 0
M  V30 4230 H 383.329 0.292718 1.516 0
M  V30 4231 H 385.287 -2.09029 3.53295 0
M  V30 4232 H 383.948 -2.06702 2.36502 0
M  V30 4233 H 383.141 -1.75309 4.72528 0
M  V30 4234 H 382.743 -0.33712 3.72478 0
M  V30 4235 H 385.035 -1.82839 6.52362 0
M  V30 4236 H 385.978 -0.405248 7.06939 0
M  V30 4237 H 386.386 -1.19476 5.51712 0
M  V30 4238 N 385.784 -1.5574 0.241426 0
M  V30 4239 C 386.717 -2.17168 -0.700935 0
M  V30 4240 C 387.695 -1.12206 -1.1768 0
M  V30 4241 O 388.879 -1.40565 -1.25593 0
M  V30 4242 C 386.006 -2.76796 -1.95196 0
M  V30 4243 C 385.052 -3.94764 -1.61442 0
M  V30 4244 S 385.885 -5.30613 -0.72182 0
M  V30 4245 C 387.041 -5.93691 -1.98197 0
M  V30 4246 H 387.274 -2.96761 -0.178882 0
M  V30 4247 H 384.807 -1.54378 0.0259299 0
M  V30 4248 H 386.765 -3.11787 -2.67019 0
M  V30 4249 H 385.426 -1.9716 -2.44514 0
M  V30 4250 H 384.619 -4.35057 -2.54443 0
M  V30 4251 H 384.221 -3.61022 -0.976672 0
M  V30 4252 H 386.513 -6.10874 -2.92983 0
M  V30 4253 H 387.456 -6.89258 -1.62262 0
M  V30 4254 H 387.864 -5.22709 -2.13156 0
M  V30 4255 N 387.262 0.0317525 -1.57568 0
M  V30 4256 C 388.487 0.738664 -1.938 0
M  V30 4257 C 388.912 1.68242 -0.841208 0
M  V30 4258 O 388.27 1.80157 0.203267 0
M  V30 4259 C 388.318 1.47417 -3.29091 0
M  V30 4260 O 387.422 2.5872 -3.2115 0
M  V30 4261 H 386.763 0.198856 -0.633524 0
M  V30 4262 H 389.293 -0.0119713 -2.04596 0
M  V30 4263 H 389.303 1.84468 -3.63917 0
M  V30 4264 H 387.978 0.781988 -4.08482 0
M  V30 4265 H 386.555 2.24231 -2.97951 0
M  V30 4266 N 388.74 1.54641 0.303973 0
M  V30 4267 C 389.968 1.77768 1.05858 0
M  V30 4268 C 390.383 0.535722 1.8104 0
M  V30 4269 O 389.74 -0.494337 1.75677 0
M  V30 4270 C 389.791 2.9834 2.04146 0
M  V30 4271 O 389.512 4.17736 1.32015 0
M  V30 4272 C 391.013 3.33832 2.91669 0
M  V30 4273 H 388.233 0.592961 0.314067 0
M  V30 4274 H 390.777 2.01583 0.344149 0
M  V30 4275 H 388.932 2.76742 2.71096 0
M  V30 4276 H 389.346 4.85693 1.97998 0
M  V30 4277 H 390.82 4.21448 3.56491 0
M  V30 4278 H 391.297 2.51857 3.59812 0
M  V30 4279 H 391.903 3.57579 2.30254 0
M  V30 4280 N 390.218 -0.567019 1.47046 0
M  V30 4281 C 391.443 -1.3551 1.57009 0
M  V30 4282 C 391.868 -1.86841 0.217259 0
M  V30 4283 O 391.226 -1.62435 -0.805268 0
M  V30 4284 C 391.274 -2.50777 2.5912 0
M  V30 4285 O 390.378 -3.52706 2.13711 0
M  V30 4286 H 389.719 -0.402919 0.52778 0
M  V30 4287 H 392.249 -0.686241 1.92748 0
M  V30 4288 H 392.259 -2.97481 2.79229 0
M  V30 4289 H 390.934 -2.12771 3.57353 0
M  V30 4290 H 389.511 -3.12374 2.03659 0
M  V30 4291 N 391.696 -1.35014 -0.812953 0
M  V30 4292 C 392.644 -1.27435 -1.94585 0
M  V30 4293 C 393.638 -0.170494 -1.6854 0
M  V30 4294 O 394.844 -0.336085 -1.76835 0
M  V30 4295 H 391.219 -0.396144 -0.639198 0
M  V30 4296 H 393.19 -2.23158 -1.98098 0
M  V30 4297 C 391.939 -1.05677 -3.31252 0
M  V30 4298 H 391.262 -1.89853 -3.51846 0
M  V30 4299 H 392.702 -1.04413 -4.10943 0
M  V30 4300 C 391.161 0.239615 -3.36047 0
M  V30 4301 O 391.691 1.23759 -3.8216 0
M  V30 4302 N 389.897 0.276186 -2.89285 0
M  V30 4303 H 389.444 -0.53653 -2.51951 0
M  V30 4304 H 389.402 1.14332 -2.92875 0
M  V30 4305 N 393.175 1.03435 -1.18907 0
M  V30 4306 C 394.4 1.80919 -1.01406 0
M  V30 4307 C 394.825 1.83055 0.432721 0
M  V30 4308 O 394.183 1.25252 1.31079 0
M  V30 4309 C 394.231 3.24091 -1.58105 0
M  V30 4310 O 393.335 4.04434 -0.806669 0
M  V30 4311 H 392.676 0.558709 -0.358803 0
M  V30 4312 H 395.206 1.30223 -1.57807 0
M  V30 4313 H 395.216 3.74853 -1.61087 0
M  V30 4314 H 393.891 3.21851 -2.6341 0
M  V30 4315 H 392.468 3.63091 -0.849666 0
M  V30 4316 N 394.653 0.992116 1.22453 0
M  V30 4317 C 395.616 0.546883 2.2258 0
M  V30 4318 C 396.616 -0.369829 1.56489 0
M  V30 4319 O 397.806 -0.161896 1.73446 0
M  V30 4320 C 394.938 -0.204659 3.40285 0
M  V30 4321 H 396.131 1.43234 2.63484 0
M  V30 4322 H 393.684 0.779239 1.3549 0
M  V30 4323 H 394.419 -1.10614 3.04853 0
M  V30 4324 H 394.204 0.45354 3.89468 0
M  V30 4325 H 395.694 -0.504358 4.14543 0
M  V30 4326 N 396.131 -1.37776 0.765217 0
M  V30 4327 C 397.078 -2.30342 0.145274 0
M  V30 4328 C 398.048 -1.5077 -0.696971 0
M  V30 4329 O 399.233 -1.79362 -0.650689 0
M  V30 4330 C 396.373 -3.37227 -0.732939 0
M  V30 4331 C 395.486 -4.31819 0.125199 0
M  V30 4332 C 394.621 -5.25777 -0.757107 0
M  V30 4333 C 393.66 -6.12012 0.103963 0
M  V30 4334 N 392.797 -6.98232 -0.735953 0
M  V30 4335 H 397.637 -2.8278 0.940195 0
M  V30 4336 H 395.174 -1.39211 0.475255 0
M  V30 4337 H 397.132 -3.97818 -1.25686 0
M  V30 4338 H 395.762 -2.86171 -1.49353 0
M  V30 4339 H 394.814 -3.7259 0.766865 0
M  V30 4340 H 396.126 -4.92509 0.789683 0
M  V30 4341 H 395.28 -5.91541 -1.34776 0
M  V30 4342 H 394.019 -4.65481 -1.45529 0
M  V30 4343 H 393.024 -5.45233 0.707197 0
M  V30 4344 H 394.249 -6.74379 0.799381 0
M  V30 4345 H 392.195 -6.40472 -1.41887 0
M  V30 4346 H 392.112 -7.55891 -0.128624 0
M  V30 4347 H 393.38 -7.68393 -1.31121 0
M  V30 4348 N 397.609 -0.515225 -1.4894 0
M  V30 4349 C 398.886 0.0879088 -1.95402 0
M  V30 4350 C 399.266 1.52745 -1.45712 0
M  V30 4351 O 398.614 2.18238 -0.677093 0
M  V30 4352 C 398.824 -0.0141055 -3.48997 0
M  V30 4353 C 400.172 0.152646 -4.24326 0
M  V30 4354 O 401.196 0.0604025 -3.56149 0
M  V30 4355 O 400.055 0.34384 -5.45417 0
M  V30 4356 H 397.149 0.0874636 -0.822362 0
M  V30 4357 H 399.695 -0.578775 -1.59525 0
M  V30 4358 H 398.467 -1.01745 -3.77841 0
M  V30 4359 H 398.09 0.692091 -3.9153 0
M  V30 4360 N 399.087 1.5561 -0.249682 0
M  V30 4361 C 400.498 1.84979 0.252949 0
M  V30 4362 C 400.849 1.17153 1.57384 0
M  V30 4363 O 399.974 0.450884 2.11651 0
M  V30 4364 C 400.569 3.35584 0.465732 0
M  V30 4365 C 399.128 3.65169 0.912624 0
M  V30 4366 C 398.275 2.77299 -0.00859085 0
M  V30 4367 H 401.226 1.51513 -0.47217 0
M  V30 4368 H 401.247 3.57313 1.30795 0
M  V30 4369 H 400.759 3.8492 -0.49579 0
M  V30 4370 H 398.86 3.21312 1.88652 0
M  V30 4371 H 398.973 4.72912 0.767559 0
M  V30 4372 H 397.337 2.49678 0.50327 0
M  V30 4373 H 398.12 3.29442 -0.965537 0
M  V30 4374 N 400.565 -0.0233959 1.57583 0
M  V30 4375 C 401.793 -0.724682 1.93794 0
M  V30 4376 C 402.208 -1.68588 0.849912 0
M  V30 4377 O 401.565 -1.81676 -0.173204 0
M  V30 4378 C 401.616 -1.47684 3.29957 0
M  V30 4379 O 401.337 -0.554222 4.3458 0
M  V30 4380 C 402.838 -2.27477 3.80485 0
M  V30 4381 H 400.058 -0.203317 0.639455 0
M  V30 4382 H 402.602 0.0207653 2.04489 0
M  V30 4383 H 400.757 -2.17412 3.20641 0
M  V30 4384 H 401.171 -1.08232 5.13212 0
M  V30 4385 H 402.645 -2.7564 4.78254 0
M  V30 4386 H 403.122 -3.09144 3.11972 0
M  V30 4387 H 403.728 -1.62813 3.92902 0
M  V30 4388 N 402.043 -1.548 -0.295768 0
M  V30 4389 C 403.289 -1.74588 -1.03184 0
M  V30 4390 C 403.622 -0.532962 -1.86744 0
M  V30 4391 O 402.897 0.469872 -1.88739 0
M  V30 4392 C 403.18 -3.03791 -1.93347 0
M  V30 4393 C 403.033 -4.35392 -1.12933 0
M  V30 4394 C 404.352 -3.28892 -2.92435 0
M  V30 4395 H 401.471 -0.635221 -0.373715 0
M  V30 4396 H 404.113 -1.87519 -0.30606 0
M  V30 4397 H 402.263 -2.92898 -2.55232 0
M  V30 4398 H 403.935 -4.58211 -0.532943 0
M  V30 4399 H 402.178 -4.31642 -0.432168 0
M  V30 4400 H 402.849 -5.22074 -1.79284 0
M  V30 4401 H 405.325 -3.39429 -2.4068 0
M  V30 4402 H 404.201 -4.20603 -3.52682 0
M  V30 4403 H 404.462 -2.47437 -3.6637 0
M  V30 4404 N 403.521 0.559213 -1.47345 0
M  V30 4405 C 404.484 1.64854 -1.59235 0
M  V30 4406 C 405.484 1.53851 -0.467607 0
M  V30 4407 O 406.674 1.58045 -0.732617 0
M  V30 4408 C 403.806 3.04388 -1.53496 0
M  V30 4409 H 404.999 1.55662 -2.56339 0
M  V30 4410 H 402.552 0.778973 -1.35505 0
M  V30 4411 H 403.287 3.19115 -0.577604 0
M  V30 4412 H 403.072 3.13783 -2.35123 0
M  V30 4413 H 404.562 3.83642 -1.6495 0
M  V30 4414 N 404.999 1.35443 0.805782 0
M  V30 4415 C 405.946 1.28431 1.91766 0
M  V30 4416 C 406.916 0.156102 1.65365 0
M  V30 4417 O 408.101 0.339936 1.87747 0
M  V30 4418 C 405.241 1.06301 3.2832 0
M  V30 4419 C 404.354 2.2805 3.66902 0
M  V30 4420 C 403.489 1.99064 4.92491 0
M  V30 4421 C 402.528 3.16863 5.23703 0
M  V30 4422 N 401.665 2.87647 6.40471 0
M  V30 4423 H 406.505 2.23511 1.97096 0
M  V30 4424 H 404.042 1.11105 0.964054 0
M  V30 4425 H 406 0.915012 4.07042 0
M  V30 4426 H 404.63 0.148822 3.22457 0
M  V30 4427 H 403.682 2.53711 2.83434 0
M  V30 4428 H 404.994 3.1601 3.85927 0
M  V30 4429 H 404.148 1.81099 5.7904 0
M  V30 4430 H 402.887 1.0839 4.75503 0
M  V30 4431 H 401.892 3.35404 4.35642 0
M  V30 4432 H 403.117 4.08339 5.4262 0
M  V30 4433 H 401.063 1.99568 6.24907 0
M  V30 4434 H 400.98 3.69141 6.59751 0
M  V30 4435 H 402.248 2.73226 7.30047 0
M  V30 4436 N 406.477 -1.02803 1.19454 0
M  V30 4437 C 407.387 -2.14575 0.948408 0
M  V30 4438 C 408.403 -1.73757 -0.091871 0
M  V30 4439 O 409.579 -2.01185 0.0929654 0
M  V30 4440 C 406.644 -3.43202 0.491265 0
M  V30 4441 C 405.705 -3.98328 1.60103 0
M  V30 4442 C 404.938 -5.20816 1.16561 0
M  V30 4443 O 405.161 -5.70392 0.0295238 0
M  V30 4444 O 404.095 -5.68801 1.96849 0
M  V30 4445 H 407.921 -2.38202 1.88397 0
M  V30 4446 H 405.506 -1.12989 0.977433 0
M  V30 4447 H 407.388 -4.20687 0.245015 0
M  V30 4448 H 406.063 -3.21018 -0.415851 0
M  V30 4449 H 404.97 -3.22174 1.90144 0
M  V30 4450 H 406.303 -4.24879 2.48473 0
M  V30 4451 N 407.956 -0.998596 -1.21925 0
M  V30 4452 C 408.866 -0.562736 -2.27751 0
M  V30 4453 C 409.882 0.391203 -1.69545 0
M  V30 4454 O 411.058 0.256625 -1.99758 0
M  V30 4455 C 408.123 0.11012 -3.46525 0
M  V30 4456 C 407.184 -0.887495 -4.20026 0
M  V30 4457 C 406.417 -0.246654 -5.3313 0
M  V30 4458 O 406.64 0.958088 -5.62296 0
M  V30 4459 O 405.574 -0.954374 -5.94286 0
M  V30 4460 H 409.4 -1.44329 -2.67213 0
M  V30 4461 H 406.985 -0.767135 -1.28201 0
M  V30 4462 H 408.867 0.486756 -4.18579 0
M  V30 4463 H 407.542 0.965154 -3.08976 0
M  V30 4464 H 406.449 -1.31517 -3.5022 0
M  V30 4465 H 407.782 -1.71191 -4.6147 0
M  V30 4466 N 409.434 1.37368 -0.772513 0
M  V30 4467 C 410.366 2.28899 -0.117502 0
M  V30 4468 C 411.379 1.4867 0.663405 0
M  V30 4469 O 412.568 1.71314 0.501372 0
M  V30 4470 C 409.668 3.2788 0.857192 0
M  V30 4471 C 408.841 4.37207 0.129938 0
M  V30 4472 C 407.9 5.16257 1.01811 0
M  V30 4473 O 406.926 5.67159 0.481601 0
M  V30 4474 N 408.128 5.31058 2.3443 0
M  V30 4475 H 410.893 2.85752 -0.903662 0
M  V30 4476 H 408.454 1.49353 -0.62493 0
M  V30 4477 H 410.446 3.77647 1.45482 0
M  V30 4478 H 409.016 2.7179 1.54432 0
M  V30 4479 H 408.236 3.88827 -0.648605 0
M  V30 4480 H 409.524 5.07434 -0.372559 0
M  V30 4481 H 408.922 4.91287 2.80452 0
M  V30 4482 H 407.479 5.84131 2.89197 0
M  V30 4483 N 410.912 0.523116 1.48665 0
M  V30 4484 C 412.161 -0.01544 2.01694 0
M  V30 4485 C 412.474 -1.35975 1.40606 0
M  V30 4486 O 413.68 -1.98627 1.85093 0
M  V30 4487 C 412.136 -0.0779303 3.59816 0
M  V30 4488 C 411.744 1.26107 4.29885 0
M  V30 4489 C 413.488 -0.565678 4.20714 0
M  V30 4490 C 411.395 1.15954 5.79921 0
M  V30 4491 H 410.325 -0.00954163 0.75394 0
M  V30 4492 H 412.976 0.665865 1.70993 0
M  V30 4493 H 411.358 -0.824165 3.87329 0
M  V30 4494 H 412.532 2.02233 4.14051 0
M  V30 4495 H 410.847 1.68401 3.80828 0
M  V30 4496 H 413.444 -0.6595 5.30617 0
M  V30 4497 H 413.787 -1.56984 3.85567 0
M  V30 4498 H 414.32 0.12467 3.97605 0
M  V30 4499 H 411.059 2.13864 6.19631 0
M  V30 4500 H 410.579 0.439529 5.98187 0
M  V30 4501 H 412.258 0.847361 6.41427 0
M  V30 4502 N 412.39 -1.55475 0.257931 0
M  V30 4503 C 413.615 -2.04064 -0.370488 0
M  V30 4504 C 414.04 -1.13565 -1.49948 0
M  V30 4505 O 413.398 -0.130781 -1.80828 0
M  V30 4506 C 413.446 -3.50554 -0.845237 0
M  V30 4507 O 412.55 -3.63173 -1.95394 0
M  V30 4508 H 411.891 -0.659257 -0.0792243 0
M  V30 4509 H 414.421 -2.00903 0.387212 0
M  V30 4510 H 414.431 -3.91588 -1.14555 0
M  V30 4511 H 413.106 -4.15896 -0.0191259 0
M  V30 4512 H 411.683 -3.34039 -1.65748 0
M  V30 4513 N 413.868 0.0150385 -1.57593 0
M  V30 4514 C 415.115 0.703001 -1.89906 0
M  V30 4515 C 415.443 1.74604 -0.856944 0
M  V30 4516 O 414.698 1.95197 0.140287 0
M  V30 4517 C 414.997 1.39686 -3.28972 0
M  V30 4518 C 414.663 0.488457 -4.48246 0
M  V30 4519 C 413.325 0.2383 -4.8061 0
M  V30 4520 C 415.677 -0.137881 -5.21018 0
M  V30 4521 C 413.005 -0.646738 -5.83125 0
M  V30 4522 C 415.357 -1.0107 -6.24474 0
M  V30 4523 C 414.021 -1.27019 -6.55303 0
M  V30 4524 H 413.291 0.257246 -0.694914 0
M  V30 4525 H 415.938 -0.037259 -1.91464 0
M  V30 4526 H 414.243 2.21079 -3.23468 0
M  V30 4527 H 415.94 1.93495 -3.51227 0
M  V30 4528 H 412.53 0.693593 -4.22951 0
M  V30 4529 H 416.714 0.0423953 -4.96282 0
M  V30 4530 H 411.97 -0.855937 -6.05379 0
M  V30 4531 H 416.144 -1.50247 -6.79999 0
M  V30 4532 H 413.771 -1.95769 -7.3456 0
M  V30 4533 N 415.346 1.54954 0.287554 0
M  V30 4534 C 416.762 1.46469 0.633964 0
M  V30 4535 C 416.962 0.666865 1.90145 0
M  V30 4536 O 416.018 0.179906 2.51858 0
M  V30 4537 C 417.331 2.90556 0.774454 0
M  V30 4538 C 418.879 3.00681 0.869462 0
M  V30 4539 C 419.354 4.45993 1.04184 0
M  V30 4540 N 420.845 4.4976 1.10772 0
M  V30 4541 C 421.58 5.59393 1.25964 0
M  V30 4542 N 421.076 6.78923 1.37968 0
M  V30 4543 N 422.869 5.47107 1.28959 0
M  V30 4544 H 415.02 2.05288 -0.545041 0
M  V30 4545 H 417.283 0.930305 -0.182308 0
M  V30 4546 H 416.989 3.51594 -0.086207 0
M  V30 4547 H 416.863 3.38743 1.6593 0
M  V30 4548 H 419.25 2.39749 1.7206 0
M  V30 4549 H 419.331 2.55769 -0.0396831 0
M  V30 4550 H 418.975 5.07524 0.195422 0
M  V30 4551 H 418.905 4.88548 1.96542 0
M  V30 4552 H 421.396 3.63651 1.02794 0
M  V30 4553 H 421.709 7.58231 1.49353 0
M  V30 4554 H 420.054 6.81763 1.34999 0
M  V30 4555 H 423.245 4.52668 1.19202 0
M  V30 4556 H 423.418 6.32595 1.40455 0
M  V30 4557 N 416.824 -0.551391 1.4764 0
M  V30 4558 C 418.101 -1.31229 1.45046 0
M  V30 4559 C 418.481 -2.10563 0.150527 0
M  V30 4560 O 417.829 -2.11374 -0.867956 0
M  V30 4561 C 418.039 -2.21189 2.69956 0
M  V30 4562 C 419.387 -2.82021 3.1741 0
M  V30 4563 O 420.411 -2.31488 2.70724 0
M  V30 4564 O 419.27 -3.73885 3.98588 0
M  V30 4565 H 416.364 -0.591193 0.578291 0
M  V30 4566 H 418.91 -0.569813 1.59847 0
M  V30 4567 H 417.682 -1.62207 3.56096 0
M  V30 4568 H 417.305 -3.02722 2.57769 0
M  V30 4569 N 418.302 -1.35869 -0.798587 0
M  V30 4570 C 419.542 -1.30961 -1.56935 0
M  V30 4571 C 419.906 0.112404 -1.91671 0
M  V30 4572 O 421.107 0.285937 -2.67275 0
M  V30 4573 C 419.378 -2.19811 -2.81811 0
M  V30 4574 S 420.937 -2.32498 -3.72143 0
M  V30 4575 H 417.755 -0.465297 -0.537606 0
M  V30 4576 H 420.357 -1.71344 -0.941346 0
M  V30 4577 H 419.061 -3.22095 -2.54329 0
M  V30 4578 H 418.592 -1.80415 -3.49591 0
M  V30 4579 H 420.607 -1.5157 -4.72484 0
M  V30 4580 N 419.78 1.02168 -1.19998 0
M  V30 4581 C 420.743 2.08765 -0.94604 0
M  V30 4582 C 421.743 1.60618 0.0763846 0
M  V30 4583 O 422.933 1.73472 -0.159135 0
M  V30 4584 C 420.065 3.38262 -0.423255 0
M  V30 4585 H 421.258 2.32726 -1.89153 0
M  V30 4586 H 418.811 1.1889 -1.01464 0
M  V30 4587 H 419.546 3.19974 0.527938 0
M  V30 4588 H 419.331 3.74532 -1.16053 0
M  V30 4589 H 420.821 4.16759 -0.264911 0
M  V30 4590 N 421.258 1.00505 1.21394 0
M  V30 4591 C 422.168 0.574806 2.27449 0
M  V30 4592 C 423.184 -0.382206 1.6975 0
M  V30 4593 O 424.36 -0.246027 1.99892 0
M  V30 4594 C 421.425 -0.0917414 3.46579 0
M  V30 4595 C 420.486 0.909758 4.1955 0
M  V30 4596 C 419.719 0.274924 5.32991 0
M  V30 4597 O 419.942 -0.928254 5.62796 0
M  V30 4598 O 418.876 0.985877 5.93771 0
M  V30 4599 H 422.702 1.45744 2.66444 0
M  V30 4600 H 420.287 0.773923 1.27792 0
M  V30 4601 H 422.169 -0.464551 4.18832 0
M  V30 4602 H 420.844 -0.948755 3.09484 0
M  V30 4603 H 419.751 1.33372 3.49518 0
M  V30 4604 H 421.084 1.73636 4.60555 0
M  V30 4605 N 422.737 -1.36956 0.779787 0
M  V30 4606 C 423.983 -1.99787 0.348281 0
M  V30 4607 C 424.316 -1.61756 -1.07465 0
M  V30 4608 O 423.591 -0.867639 -1.74075 0
M  V30 4609 C 423.874 -3.56597 0.50104 0
M  V30 4610 C 423.727 -4.04513 1.96697 0
M  V30 4611 C 425.046 -4.40008 -0.0898097 0
M  V30 4612 H 422.165 -0.725796 0.128022 0
M  V30 4613 H 424.807 -1.62514 0.984331 0
M  V30 4614 H 422.957 -3.88479 -0.0404347 0
M  V30 4615 H 424.629 -3.83161 2.56876 0
M  V30 4616 H 422.872 -3.56408 2.47297 0
M  V30 4617 H 423.543 -5.1352 2.02486 0
M  V30 4618 H 426.019 -4.14431 0.372293 0
M  V30 4619 H 424.895 -5.4888 0.0471605 0
M  V30 4620 H 425.156 -4.26035 -1.18096 0
M  V30 4621 N 424.215 -0.530993 -1.48385 0
M  V30 4622 C 425.462 0.0027373 -2.025 0
M  V30 4623 C 425.79 1.34186 -1.40799 0
M  V30 4624 O 425.045 1.88 -0.543544 0
M  V30 4625 C 425.344 0.172742 -3.56982 0
M  V30 4626 C 425.01 -1.09215 -4.37473 0
M  V30 4627 C 423.672 -1.43881 -4.59186 0
M  V30 4628 C 426.024 -1.93153 -4.84088 0
M  V30 4629 C 423.352 -2.62381 -5.2476 0
M  V30 4630 C 425.704 -3.10833 -5.50968 0
M  V30 4631 C 424.368 -3.45843 -5.70919 0
M  V30 4632 H 423.638 0.00100165 -0.740999 0
M  V30 4633 H 426.285 -0.697219 -1.78357 0
M  V30 4634 H 424.59 0.955473 -3.79971 0
M  V30 4635 H 426.287 0.600642 -3.96476 0
M  V30 4636 H 422.877 -0.812177 -4.20834 0
M  V30 4637 H 427.061 -1.67683 -4.67115 0
M  V30 4638 H 422.317 -2.89707 -5.38405 0
M  V30 4639 H 426.491 -3.7618 -5.86056 0
M  V30 4640 H 424.118 -4.37764 -6.21503 0
M  V30 4641 N 425.693 1.55336 -0.266172 0
M  V30 4642 C 426.64 2.22172 0.625165 0
M  V30 4643 C 427.61 1.19211 1.15663 0
M  V30 4644 O 428.795 1.47723 1.20758 0
M  V30 4645 C 425.935 2.93972 1.8076 0
M  V30 4646 C 425.048 4.11632 1.31084 0
M  V30 4647 C 424.183 4.71099 2.45436 0
M  V30 4648 C 423.222 5.8097 1.92718 0
M  V30 4649 N 422.359 6.34538 3.00509 0
M  V30 4650 H 427.199 2.9796 0.0485582 0
M  V30 4651 H 424.736 1.47095 0.0122024 0
M  V30 4652 H 426.694 3.33811 2.50251 0
M  V30 4653 H 425.324 2.20623 2.35638 0
M  V30 4654 H 424.376 3.76975 0.509326 0
M  V30 4655 H 425.688 4.90893 0.884633 0
M  V30 4656 H 424.842 5.13612 3.22936 0
M  V30 4657 H 423.581 3.91096 2.91368 0
M  V30 4658 H 422.586 5.37916 1.13695 0
M  V30 4659 H 423.811 6.62836 1.47733 0
M  V30 4660 H 421.757 5.57433 3.45839 0
M  V30 4661 H 421.674 7.09046 2.62279 0
M  V30 4662 H 422.942 6.81709 3.78011 0
M  V30 4663 N 427.171 -0.0066808 1.57599 0
M  V30 4664 C 428.396 -0.707738 1.94951 0
M  V30 4665 C 428.821 -1.66882 0.867868 0
M  V30 4666 O 428.179 -1.80457 -0.17458 0
M  V30 4667 C 428.227 -1.42162 3.31394 0
M  V30 4668 O 427.331 -2.53578 3.25226 0
M  V30 4669 H 426.672 -0.188752 0.636607 0
M  V30 4670 H 429.202 0.0445193 2.04552 0
M  V30 4671 H 429.212 -1.78655 3.66806 0
M  V30 4672 H 427.887 -0.716903 4.09675 0
M  V30 4673 H 426.464 -2.19463 3.01481 0
M  V30 4674 N 428.649 -1.55105 -0.279332 0
M  V30 4675 C 429.897 -1.75066 -1.00977 0
M  V30 4676 C 430.218 -0.551276 -1.87045 0
M  V30 4677 O 429.488 0.433984 -1.91032 0
M  V30 4678 H 428.068 -0.645578 -0.375816 0
M  V30 4679 H 430.73 -1.92497 -0.305089 0
M  V30 4680 H 429.826 -2.64894 -1.65038 0
M  V30 4681 N 430.127 0.543554 -1.4793 0
M  V30 4682 C 431.077 1.64527 -1.57844 0
M  V30 4683 C 432.061 1.54869 -0.436408 0
M  V30 4684 O 433.253 1.63119 -0.687101 0
M  V30 4685 C 430.382 3.03281 -1.6086 0
M  V30 4686 C 429.468 3.18093 -2.80495 0
M  V30 4687 N 429.859 3.02923 -4.05057 0
M  V30 4688 C 428.157 3.49121 -2.77543 0
M  V30 4689 C 428.858 3.20791 -4.85251 0
M  V30 4690 N 427.834 3.47749 -4.17818 0
M  V30 4691 H 431.636 1.51388 -2.5191 0
M  V30 4692 H 429.15 0.748671 -1.44113 0
M  V30 4693 H 431.147 3.82403 -1.66054 0
M  V30 4694 H 429.807 3.17521 -0.678996 0
M  V30 4695 H 430.818 2.79966 -4.35705 0
M  V30 4696 H 427.495 3.69804 -1.93781 0
M  V30 4697 H 428.885 3.13915 -5.9406 0
M  V30 4698 N 431.605 1.3629 0.791371 0
M  V30 4699 C 432.833 1.33562 1.58016 0
M  V30 4700 C 433.248 -0.0835616 1.88615 0
M  V30 4701 O 432.605 -1.0399 1.49974 0
M  V30 4702 C 432.656 2.15517 2.90232 0
M  V30 4703 O 432.377 3.51902 2.60953 0
M  V30 4704 C 433.878 2.20546 3.84544 0
M  V30 4705 H 431.098 0.458226 0.490173 0
M  V30 4706 H 433.642 1.79361 0.982345 0
M  V30 4707 H 431.797 1.73278 3.46487 0
M  V30 4708 H 432.211 3.94644 3.4548 0
M  V30 4709 H 433.685 2.82252 4.74382 0
M  V30 4710 H 434.162 1.20838 4.2225 0
M  V30 4711 H 434.768 2.63013 3.34222 0
M  V30 4712 N 433.083 -1.0153 1.20538 0
M  V30 4713 C 434.311 -1.78746 1.04199 0
M  V30 4714 C 434.726 -1.84323 -0.408733 0
M  V30 4715 O 434.083 -1.29714 -1.28377 0
M  V30 4716 C 434.134 -3.23152 1.62035 0
M  V30 4717 O 433.855 -3.17918 3.0143 0
M  V30 4718 C 435.356 -4.16911 1.50666 0
M  V30 4719 H 432.576 -0.56208 0.366479 0
M  V30 4720 H 435.12 -1.27794 1.59653 0
M  V30 4721 H 433.275 -3.71248 1.10697 0
M  V30 4722 H 433.689 -4.08567 3.28897 0
M  V30 4723 H 435.163 -5.16072 1.95892 0
M  V30 4724 H 435.64 -4.36791 0.459363 0
M  V30 4725 H 436.246 -3.74698 2.01201 0
M  V30 4726 N 434.561 -1.01147 -1.20859 0
M  V30 4727 C 435.509 -0.57059 -2.25493 0
M  V30 4728 C 436.503 0.388109 -1.64894 0
M  V30 4729 O 437.709 0.258592 -1.78133 0
M  V30 4730 H 434.084 -0.166191 -0.733406 0
M  V30 4731 H 436.055 -1.46411 -2.60012 0
M  V30 4732 C 434.804 0.0805241 -3.47607 0
M  V30 4733 H 434.127 -0.648156 -3.94511 0
M  V30 4734 H 435.567 0.352197 -4.22535 0
M  V30 4735 C 434.026 1.32175 -3.09889 0
M  V30 4736 O 434.556 2.41553 -3.20959 0
M  V30 4737 N 432.762 1.20392 -2.64488 0
M  V30 4738 H 432.309 0.313905 -2.5568 0
M  V30 4739 H 432.267 2.03541 -2.39621 0
M  V30 4740 N 436.039 1.36541 -0.78704 0
M  V30 4741 C 437.287 1.98911 -0.357633 0
M  V30 4742 C 437.608 1.62778 1.07371 0
M  V30 4743 O 436.878 0.900612 1.73971 0
M  V30 4744 H 435.458 0.735734 -0.129246 0
M  V30 4745 H 438.12 1.66776 -1.00855 0
M  V30 4746 H 437.216 3.08874 -0.447549 0
M  V30 4747 N 437.518 0.538854 1.48102 0
M  V30 4748 C 438.767 0.0059532 2.01699 0
M  V30 4749 C 439.08 -1.34476 1.42041 0
M  V30 4750 O 440.286 -1.96653 1.87189 0
M  V30 4751 C 438.742 -0.0397627 3.59878 0
M  V30 4752 C 438.35 1.30659 4.28523 0
M  V30 4753 C 440.094 -0.521024 4.2129 0
M  V30 4754 C 438.001 1.22098 5.78659 0
M  V30 4755 H 436.931 -0.00154456 0.753998 0
M  V30 4756 H 439.582 0.683963 1.70277 0
M  V30 4757 H 437.964 -0.783037 3.88181 0
M  V30 4758 H 439.138 2.06613 4.11883 0
M  V30 4759 H 437.453 1.7243 3.79021 0
M  V30 4760 H 440.05 -0.603184 5.31287 0
M  V30 4761 H 440.393 -1.52885 3.8721 0
M  V30 4762 H 440.926 0.166834 3.9745 0
M  V30 4763 H 437.665 2.20424 6.17328 0
M  V30 4764 H 437.185 0.50295 5.97688 0
M  V30 4765 H 438.864 0.915345 6.40492 0
M  V30 4766 N 438.996 -1.55193 0.274407 0
M  V30 4767 C 440.226 -2.03692 -0.345442 0
M  V30 4768 C 440.634 -1.15224 -1.50067 0
M  V30 4769 O 439.977 -0.164749 -1.8296 0
M  V30 4770 C 440.039 -3.48325 -0.88939 0
M  V30 4771 C 439.703 -4.56794 0.137115 0
M  V30 4772 C 440.7 -5.11028 0.956378 0
M  V30 4773 C 438.385 -5.01568 0.27115 0
M  V30 4774 C 440.379 -6.08552 1.89587 0
M  V30 4775 C 438.066 -5.98918 1.21412 0
M  V30 4776 C 439.064 -6.52291 2.02498 0
M  V30 4777 O 438.752 -7.47738 2.952 0
M  V30 4778 H 438.484 -0.670893 -0.0829332 0
M  V30 4779 H 441.038 -2.01387 0.404056 0
M  V30 4780 H 439.268 -3.47867 -1.68895 0
M  V30 4781 H 440.957 -3.80167 -1.42225 0
M  V30 4782 H 441.723 -4.7725 0.863559 0
M  V30 4783 H 437.602 -4.5967 -0.349987 0
M  V30 4784 H 441.146 -6.50137 2.52918 0
M  V30 4785 H 437.043 -6.32114 1.30776 0
M  V30 4786 H 437.811 -7.65451 2.89874 0
M  V30 4787 N 440.474 -0.00167713 -1.576 0
M  V30 4788 C 441.702 0.693759 -1.94922 0
M  V30 4789 C 442.117 1.67215 -0.876626 0
M  V30 4790 O 441.474 1.81929 0.144279 0
M  V30 4791 C 441.525 1.42416 -3.32265 0
M  V30 4792 O 441.246 0.485014 -4.35407 0
M  V30 4793 C 442.747 2.21395 -3.84056 0
M  V30 4794 H 439.967 0.193118 -0.642609 0
M  V30 4795 H 442.511 -0.0532952 -2.04431 0
M  V30 4796 H 440.666 2.12284 -3.24059 0
M  V30 4797 H 441.08 1.00053 -5.14868 0
M  V30 4798 H 442.554 2.67996 -4.82578 0
M  V30 4799 H 443.031 3.04142 -3.16851 0
M  V30 4800 H 443.637 1.56542 -3.95443 0
M  V30 4801 N 441.952 1.55251 0.271103 0
M  V30 4802 C 442.882 1.9127 1.33933 0
M  V30 4803 C 443.863 0.77478 1.5143 0
M  V30 4804 O 445.048 1.03307 1.64442 0
M  V30 4805 C 442.178 2.18627 2.69851 0
M  V30 4806 C 441.132 3.34442 2.67081 0
M  V30 4807 C 440.458 3.47284 4.06569 0
M  V30 4808 C 441.758 4.70784 2.26185 0
M  V30 4809 H 443.452 2.80744 1.04035 0
M  V30 4810 H 440.998 1.35077 0.499017 0
M  V30 4811 H 442.951 2.42413 3.44694 0
M  V30 4812 H 441.675 1.25955 3.01335 0
M  V30 4813 H 440.334 3.10627 1.94695 0
M  V30 4814 H 439.982 2.52074 4.35279 0
M  V30 4815 H 439.682 4.25152 4.0561 0
M  V30 4816 H 441.206 3.73363 4.83148 0
M  V30 4817 H 442.62 4.94102 2.90751 0
M  V30 4818 H 441.017 5.51582 2.36384 0
M  V30 4819 H 442.087 4.69478 1.21319 0
M  V30 4820 N 443.43 -0.535701 1.48216 0
M  V30 4821 C 444.658 -1.31671 1.59594 0
M  V30 4822 C 445.073 -1.87083 0.254056 0
M  V30 4823 O 444.43 -1.66112 -0.755854 0
M  V30 4824 C 444.481 -2.47158 2.63809 0
M  V30 4825 O 444.202 -1.94032 3.92789 0
M  V30 4826 C 445.703 -3.39062 2.85573 0
M  V30 4827 H 442.923 -0.400623 0.538277 0
M  V30 4828 H 445.467 -0.646827 1.94001 0
M  V30 4829 H 443.622 -3.10043 2.32276 0
M  V30 4830 H 444.036 -2.69585 4.49916 0
M  V30 4831 H 445.51 -4.16459 3.62306 0
M  V30 4832 H 445.987 -3.93941 1.94184 0
M  V30 4833 H 446.593 -2.81975 3.18387 0
M  V30 4834 N 444.908 -1.36708 -0.784132 0
M  V30 4835 C 446.155 -1.31231 -1.54222 0
M  V30 4836 C 446.483 0.106864 -1.94206 0
M  V30 4837 O 445.738 1.07734 -1.63376 0
M  V30 4838 C 446.037 -2.18571 -2.82774 0
M  V30 4839 C 445.703 -3.67039 -2.61903 0
M  V30 4840 C 444.365 -4.07503 -2.55919 0
M  V30 4841 C 446.717 -4.61149 -2.4288 0
M  V30 4842 C 444.045 -5.40211 -2.28886 0
M  V30 4843 C 446.397 -5.94081 -2.17373 0
M  V30 4844 C 445.061 -6.33664 -2.09825 0
M  V30 4845 H 444.331 -0.48021 -0.56434 0
M  V30 4846 H 446.978 -1.68807 -0.904233 0
M  V30 4847 H 445.283 -1.73949 -3.51068 0
M  V30 4848 H 446.98 -2.11655 -3.40592 0
M  V30 4849 H 443.57 -3.34941 -2.67418 0
M  V30 4850 H 447.754 -4.30756 -2.46501 0
M  V30 4851 H 443.01 -5.69855 -2.21529 0
M  V30 4852 H 447.184 -6.66566 -2.01649 0
M  V30 4853 H 444.811 -7.36423 -1.88641 0
M  V30 4854 N 446.386 1.0089 -1.21074 0
M  V30 4855 C 447.797 1.56056 -1.02486 0
M  V30 4856 C 448.148 1.91728 0.416506 0
M  V30 4857 O 447.273 1.73066 1.29912 0
M  V30 4858 C 447.868 2.83563 -1.85411 0
M  V30 4859 C 446.427 3.3523 -1.71166 0
M  V30 4860 C 445.574 2.0846 -1.82865 0
M  V30 4861 H 448.525 0.831818 -1.35154 0
M  V30 4862 H 448.546 3.55286 -1.36205 0
M  V30 4863 H 448.058 2.57569 -2.9031 0
M  V30 4864 H 446.159 3.66167 -0.689361 0
M  V30 4865 H 446.272 4.06913 -2.52901 0
M  V30 4866 H 444.636 2.21275 -1.26132 0
M  V30 4867 H 445.419 1.84883 -2.89263 0
M  V30 4868 N 447.864 1.01787 1.20321 0
M  V30 4869 C 448.812 0.58254 2.25187 0
M  V30 4870 C 449.806 -0.379359 1.65098 0
M  V30 4871 O 451.012 -0.249142 1.78267 0
M  V30 4872 H 447.387 0.170078 0.732514 0
M  V30 4873 H 449.358 1.47788 2.59232 0
M  V30 4874 C 448.107 -0.0620885 3.47645 0
M  V30 4875 H 447.43 0.669069 3.94162 0
M  V30 4876 H 448.87 -0.329784 4.22716 0
M  V30 4877 C 447.329 -1.3053 3.10586 0
M  V30 4878 O 447.859 -2.39848 3.22236 0
M  V30 4879 N 446.065 -1.18988 2.65123 0
M  V30 4880 H 445.612 -0.300341 2.55843 0
M  V30 4881 H 445.57 -2.02267 2.40698 0
M  V30 4882 N 449.342 -1.36122 0.79427 0
M  V30 4883 C 450.567 -2.03891 0.379871 0
M  V30 4884 C 450.992 -1.59488 -0.997251 0
M  V30 4885 O 450.35 -0.765652 -1.64339 0
M  V30 4886 C 450.398 -3.57687 0.457442 0
M  V30 4887 O 449.502 -4.08931 -0.5338 0
M  V30 4888 H 448.843 -0.6443 0.160541 0
M  V30 4889 H 451.373 -1.73976 1.07673 0
M  V30 4890 H 451.383 -4.06721 0.322792 0
M  V30 4891 H 450.058 -3.89357 1.46199 0
M  V30 4892 H 448.635 -3.71154 -0.360409 0
M  V30 4893 N 450.82 -0.546701 -1.47814 0
M  V30 4894 C 452.048 -0.0232857 -2.06887 0
M  V30 4895 C 452.463 1.26571 -1.4009 0
M  V30 4896 O 451.82 1.7569 -0.493906 0
M  V30 4897 C 451.871 0.186975 -3.61016 0
M  V30 4898 O 451.592 -1.05097 -4.25307 0
M  V30 4899 C 453.093 0.748872 -4.36929 0
M  V30 4900 H 450.313 -0.0410763 -0.669742 0
M  V30 4901 H 452.857 -0.757117 -1.89968 0
M  V30 4902 H 451.012 0.870903 -3.77484 0
M  V30 4903 H 451.426 -0.842121 -5.17695 0
M  V30 4904 H 452.9 0.845334 -5.45489 0
M  V30 4905 H 453.377 1.75772 -4.02493 0
M  V30 4906 H 453.983 0.100979 -4.2518 0
M  V30 4907 N 452.299 1.55045 -0.282633 0
M  V30 4908 C 453.209 2.26491 0.61147 0
M  V30 4909 C 454.225 1.29348 1.16384 0
M  V30 4910 O 455.401 1.62298 1.19253 0
M  V30 4911 C 452.466 2.97779 1.77563 0
M  V30 4912 C 451.527 4.10418 1.25919 0
M  V30 4913 C 450.76 4.78297 2.36786 0
M  V30 4914 O 450.983 4.45426 3.56303 0
M  V30 4915 O 449.917 5.66089 2.04517 0
M  V30 4916 H 453.743 3.03683 0.0324615 0
M  V30 4917 H 451.328 1.49317 -0.0497576 0
M  V30 4918 H 453.21 3.42554 2.45427 0
M  V30 4919 H 451.885 2.23498 2.34159 0
M  V30 4920 H 450.792 3.70082 0.546797 0
M  V30 4921 H 452.125 4.86622 0.738887 0
M  V30 4922 N 453.777 0.010035 1.57597 0
M  V30 4923 C 454.687 -0.994226 2.12491 0
M  V30 4924 C 455.703 -1.37013 1.07254 0
M  V30 4925 O 456.879 -1.45542 1.3921 0
M  V30 4926 C 453.944 -2.2642 2.62555 0
M  V30 4927 C 453.005 -1.95049 3.82432 0
M  V30 4928 C 452.238 -3.15991 4.30099 0
M  V30 4929 O 452.461 -4.28015 3.7704 0
M  V30 4930 O 451.395 -2.99403 5.22151 0
M  V30 4931 H 455.221 -0.557549 2.98538 0
M  V30 4932 H 452.806 -0.209413 1.47925 0
M  V30 4933 H 454.688 -3.01009 2.9491 0
M  V30 4934 H 453.363 -2.69306 1.796 0
M  V30 4935 H 452.27 -1.17904 3.55034 0
M  V30 4936 H 453.603 -1.56992 4.66491 0
M  V30 4937 N 455.255 -1.55392 -0.262866 0
M  V30 4938 C 456.504 -1.75679 -0.990943 0
M  V30 4939 C 456.817 -0.57097 -1.87081 0
M  V30 4940 O 458.023 -0.656486 -2.63444 0
M  V30 4941 C 456.479 -3.10964 -1.81188 0
M  V30 4942 C 456.087 -4.37146 -0.980188 0
M  V30 4943 C 457.831 -3.40597 -2.53365 0
M  V30 4944 C 455.738 -5.63466 -1.7961 0
M  V30 4945 H 454.668 -0.654868 -0.373716 0
M  V30 4946 H 457.319 -1.81841 -0.246203 0
M  V30 4947 H 455.701 -2.98867 -2.59797 0
M  V30 4948 H 456.875 -4.60187 -0.237558 0
M  V30 4949 H 455.19 -4.14731 -0.372497 0
M  V30 4950 H 457.787 -4.32186 -3.14833 0
M  V30 4951 H 458.13 -2.6119 -3.24169 0
M  V30 4952 H 458.663 -3.53838 -1.81779 0
M  V30 4953 H 455.402 -6.4565 -1.13209 0
M  V30 4954 H 454.922 -5.44552 -2.51443 0
M  V30 4955 H 456.601 -6.02139 -2.36723 0
M  V30 4956 N 456.733 0.527833 -1.48498 0
M  V30 4957 C 457.68 1.6322 -1.6318 0
M  V30 4958 C 458.65 1.59199 -0.473815 0
M  V30 4959 O 459.835 1.77591 -0.697563 0
M  V30 4960 C 456.975 3.01474 -1.67951 0
M  V30 4961 C 456.088 3.15713 -2.94871 0
M  V30 4962 C 455.223 4.44539 -2.90789 0
M  V30 4963 C 454.262 4.52315 -4.12404 0
M  V30 4964 N 453.399 5.72533 -4.06387 0
M  V30 4965 H 458.239 1.50011 -2.57489 0
M  V30 4966 H 455.776 0.730298 -1.27691 0
M  V30 4967 H 457.734 3.81572 -1.68698 0
M  V30 4968 H 456.364 3.1345 -0.771306 0
M  V30 4969 H 455.416 2.28854 -3.03859 0
M  V30 4970 H 456.728 3.1732 -3.8485 0
M  V30 4971 H 455.882 5.3293 -2.89949 0
M  V30 4972 H 454.621 4.45457 -1.98542 0
M  V30 4973 H 453.626 3.62331 -4.13517 0
M  V30 4974 H 454.851 4.53134 -5.05812 0
M  V30 4975 H 452.797 5.74344 -3.16962 0
M  V30 4976 H 452.714 5.75643 -4.90073 0
M  V30 4977 H 453.982 6.63204 -4.0961 0
M  V30 4978 N 458.211 1.37122 0.776871 0
M  V30 4979 C 459.174 1.32301 1.8716 0
M  V30 4980 C 460.174 0.228099 1.59174 0
M  V30 4981 O 461.364 0.483642 1.67352 0
M  V30 4982 C 458.496 1.054 3.24197 0
M  V30 4983 H 459.689 2.29673 1.92848 0
M  V30 4984 H 457.242 1.22077 0.97606 0
M  V30 4985 H 457.977 0.0853872 3.24188 0
M  V30 4986 H 457.762 1.84648 3.45901 0
M  V30 4987 H 459.252 1.04664 4.04271 0
M  V30 4988 N 459.689 -1.00246 1.21608 0
M  V30 4989 C 460.919 -1.77373 1.05935 0
M  V30 4990 C 461.327 -1.85059 -0.393686 0
M  V30 4991 O 460.67 -1.31289 -1.28487 0
M  V30 4992 C 460.732 -3.22705 1.58435 0
M  V30 4993 C 460.396 -3.38591 3.06929 0
M  V30 4994 C 461.393 -3.2667 4.04454 0
M  V30 4995 C 459.078 -3.6395 3.46187 0
M  V30 4996 C 461.072 -3.39877 5.39224 0
M  V30 4997 C 458.759 -3.768 4.81108 0
M  V30 4998 C 459.757 -3.6477 5.77436 0
M  V30 4999 O 459.445 -3.77206 7.09909 0
M  V30 5000 H 459.177 -0.56419 0.372378 0
M  V30 5001 H 461.731 -1.26971 1.61454 0
M  V30 5002 H 459.961 -3.74255 0.973147 0
M  V30 5003 H 461.65 -3.81515 1.38568 0
M  V30 5004 H 462.416 -3.06999 3.75468 0
M  V30 5005 H 458.295 -3.72395 2.71741 0
M  V30 5006 H 461.839 -3.30404 6.14393 0
M  V30 5007 H 457.736 -3.95975 5.09779 0
M  V30 5008 H 458.504 -3.94138 7.17355 0
M  V30 5009 N 461.167 -1.02423 -1.1978 0
M  V30 5010 C 462.407 -0.726635 -1.91048 0
M  V30 5011 C 462.771 0.730947 -1.77542 0
M  V30 5012 O 463.972 1.14141 -2.43362 0
M  V30 5013 C 462.243 -1.15964 -3.38064 0
M  V30 5014 S 463.802 -0.985172 -4.27598 0
M  V30 5015 H 460.62 -0.264679 -0.659899 0
M  V30 5016 H 463.222 -1.31309 -1.44838 0
M  V30 5017 H 461.926 -2.21619 -3.45417 0
M  V30 5018 H 461.457 -0.566274 -3.89303 0
M  V30 5019 H 463.472 0.106946 -4.96085 0
M  V30 5020 N 462.645 1.35699 -0.801477 0
M  V30 5021 C 463.922 1.9324 -0.302937 0
M  V30 5022 C 464.302 1.73209 1.20672 0
M  V30 5023 O 463.65 1.09809 2.00385 0
M  V30 5024 C 463.86 3.41728 -0.708747 0
M  V30 5025 C 465.208 4.18868 -0.695328 0
M  V30 5026 O 466.232 3.5022 -0.649971 0
M  V30 5027 O 465.091 5.41342 -0.749081 0
M  V30 5028 H 462.185 0.82331 -0.0780367 0
M  V30 5029 H 464.731 1.44806 -0.884832 0
M  V30 5030 H 463.503 3.50015 -1.74944 0
M  V30 5031 H 463.126 3.97471 -0.101384 0
M  V30 5032 N 464.123 0.554532 1.47522 0
M  V30 5033 C 465.056 -0.242442 2.26908 0
M  V30 5034 C 466.034 -0.922722 1.33883 0
M  V30 5035 O 467.218 -0.942244 1.63261 0
M  V30 5036 C 464.345 -1.34525 3.10839 0
M  V30 5037 C 463.391 -0.773805 4.19422 0
M  V30 5038 S 464.224 0.377525 5.34168 0
M  V30 5039 C 465.38 -0.727164 6.21662 0
M  V30 5040 H 465.613 0.431218 2.94156 0
M  V30 5041 H 463.146 0.3408 1.50592 0
M  V30 5042 H 465.104 -1.97683 3.59766 0
M  V30 5043 H 463.765 -1.99073 2.42958 0
M  V30 5044 H 462.958 -1.60187 4.77866 0
M  V30 5045 H 462.56 -0.218448 3.73361 0
M  V30 5046 H 464.852 -1.61992 6.57849 0
M  V30 5047 H 465.795 -0.180135 7.07871 0
M  V30 5048 H 466.203 -1.01863 5.55233 0
M  V30 5049 N 465.601 -1.54893 0.290851 0
M  V30 5050 C 466.511 -2.26812 -0.59945 0
M  V30 5051 C 467.527 -1.29963 -1.15696 0
M  V30 5052 O 468.703 -1.62928 -1.18391 0
M  V30 5053 C 465.768 -2.98716 -1.75982 0
M  V30 5054 C 464.829 -4.1108 -1.2374 0
M  V30 5055 C 464.062 -4.79546 -2.34246 0
M  V30 5056 O 464.285 -4.47309 -3.53936 0
M  V30 5057 O 463.219 -5.67165 -2.01512 0
M  V30 5058 H 467.045 -3.03696 -0.0163561 0
M  V30 5059 H 464.63 -1.49289 0.0576755 0
M  V30 5060 H 466.512 -3.43851 -2.43607 0
M  V30 5061 H 465.187 -2.24737 -2.3297 0
M  V30 5062 H 464.094 -3.70367 -0.527163 0
M  V30 5063 H 465.427 -4.87007 -0.71307 0
M  V30 5064 N 467.08 -0.0183926 -1.57589 0
M  V30 5065 C 468.043 0.951986 -2.08494 0
M  V30 5066 C 469.043 1.26092 -0.997874 0
M  V30 5067 O 470.233 1.20304 -1.25987 0
M  V30 5068 C 467.365 2.27165 -2.54182 0
M  V30 5069 H 468.558 0.511307 -2.95509 0
M  V30 5070 H 466.111 0.229444 -1.54607 0
M  V30 5071 H 466.846 2.75884 -1.70465 0
M  V30 5072 H 466.631 2.06057 -3.33591 0
M  V30 5073 H 468.121 2.9674 -2.93828 0
M  V30 5074 N 468.558 1.5553 0.254621 0
M  V30 5075 C 469.806 1.7665 0.981793 0
M  V30 5076 C 470.127 0.580963 1.86145 0
M  V30 5077 O 469.397 -0.403537 1.91699 0
M  V30 5078 H 467.977 0.651475 0.365498 0
M  V30 5079 H 470.639 1.92958 0.274426 0
M  V30 5080 H 469.735 2.67486 1.60802 0
M  V30 5081 N 470.036 -0.519951 1.48776 0
M  V30 5082 C 471.284 -1.2727 1.56993 0
M  V30 5083 C 471.605 -1.9339 0.25004 0
M  V30 5084 O 470.875 -1.81822 -0.729216 0
M  V30 5085 H 469.455 -0.472732 0.578389 0
M  V30 5086 H 472.117 -0.604234 1.85297 0
M  V30 5087 H 471.213 -2.04669 2.3562 0
M  V30 5088 N 471.514 -1.37532 -0.769588 0
M  V30 5089 C 472.762 -1.32597 -1.5252 0
M  V30 5090 C 473.083 0.0884294 -1.94799 0
M  V30 5091 O 472.353 1.03289 -1.66458 0
M  V30 5092 H 470.933 -0.487846 -0.565699 0
M  V30 5093 H 473.595 -1.72044 -0.915806 0
M  V30 5094 H 472.691 -1.96643 -2.42359 0
M  V30 5095 N 472.992 0.995999 -1.22138 0
M  V30 5096 C 474.24 1.73167 -1.042 0
M  V30 5097 C 474.561 1.90329 0.42423 0
M  V30 5098 O 473.831 1.4607 1.30539 0
M  V30 5099 H 472.411 0.641593 -0.38258 0
M  V30 5100 H 475.073 1.19974 -1.53598 0
M  V30 5101 H 474.169 2.72734 -1.51731 0
M  V30 5102 N 474.47 1.03057 1.19235 0
M  V30 5103 C 475.716 0.738841 1.89506 0
M  V30 5104 C 476.071 -0.724807 1.78225 0
M  V30 5105 O 475.364 -1.52118 1.16494 0
M  V30 5106 C 475.558 1.1268 3.39172 0
M  V30 5107 C 475.387 2.62662 3.65019 0
M  V30 5108 C 474.157 3.29658 3.82954 0
M  V30 5109 C 476.355 3.60873 3.66436 0
M  V30 5110 N 474.337 4.68726 3.96446 0
M  V30 5111 C 475.708 4.85566 3.8552 0
M  V30 5112 C 477.763 3.54647 3.49471 0
M  V30 5113 C 476.466 6.04783 3.89397 0
M  V30 5114 C 478.492 4.73281 3.54625 0
M  V30 5115 C 477.854 5.96789 3.74196 0
M  V30 5116 H 473.953 0.322256 0.712513 0
M  V30 5117 H 476.537 1.31822 1.43287 0
M  V30 5118 H 474.708 0.575612 3.84111 0
M  V30 5119 H 476.44 0.787145 3.96971 0
M  V30 5120 H 473.195 2.8007 3.81913 0
M  V30 5121 H 473.619 5.40971 4.07037 0
M  V30 5122 H 478.261 2.60143 3.33295 0
M  V30 5123 H 475.979 6.99654 4.04364 0
M  V30 5124 H 479.565 4.70094 3.42787 0
M  V30 5125 H 478.445 6.87051 3.78061 0
M  V30 5126 N 475.948 -1.35272 0.808662 0
M  V30 5127 C 477.176 -2.02946 0.402537 0
M  V30 5128 C 477.591 -1.60937 -0.987147 0
M  V30 5129 O 476.948 -0.807917 -1.63643 0
M  V30 5130 C 476.999 -3.58317 0.47868 0
M  V30 5131 O 476.72 -3.98799 1.81358 0
M  V30 5132 C 478.221 -4.43251 0.0656281 0
M  V30 5133 H 475.441 -0.650831 0.163279 0
M  V30 5134 H 477.985 -1.72849 1.09286 0
M  V30 5135 H 476.14 -3.87055 -0.163415 0
M  V30 5136 H 476.554 -4.93451 1.77781 0
M  V30 5137 H 478.028 -5.51738 0.170017 0
M  V30 5138 H 478.505 -4.27913 -0.989278 0
M  V30 5139 H 479.111 -4.19813 0.68096 0
M  V30 5140 N 477.426 -0.562348 -1.47226 0
M  V30 5141 C 478.675 -0.038041 -2.01664 0
M  V30 5142 C 478.988 1.32199 -1.44162 0
M  V30 5143 O 480.194 1.9365 -1.90294 0
M  V30 5144 C 478.65 -0.0174958 -3.59896 0
M  V30 5145 C 478.258 -1.3746 -4.2639 0
M  V30 5146 C 480.002 0.453934 -4.22066 0
M  V30 5147 C 477.909 -1.31289 -5.76643 0
M  V30 5148 H 476.839 -0.0104511 -0.753928 0
M  V30 5149 H 479.49 -0.710966 -1.69167 0
M  V30 5150 H 477.872 0.721182 -3.89378 0
M  V30 5151 H 479.046 -2.1314 -4.08544 0
M  V30 5152 H 477.361 -1.78438 -3.7623 0
M  V30 5153 H 479.958 0.518584 -5.32179 0
M  V30 5154 H 480.301 1.46706 -3.89594 0
M  V30 5155 H 480.834 -0.230044 -3.97134 0
M  V30 5156 H 477.573 -2.30217 -6.13743 0
M  V30 5157 H 477.093 -0.597973 -5.96812 0
M  V30 5158 H 478.772 -1.01713 -6.38955 0
M  V30 5159 N 478.904 1.54736 -0.299062 0
M  V30 5160 C 480.153 1.99279 0.311549 0
M  V30 5161 C 480.466 1.19107 1.55154 0
M  V30 5162 O 481.672 1.53908 2.23662 0
M  V30 5163 C 480.128 3.54768 0.605632 0
M  V30 5164 C 479.736 4.43746 -0.615914 0
M  V30 5165 C 481.48 4.07841 1.17754 0
M  V30 5166 C 479.387 5.90663 -0.29509 0
M  V30 5167 H 478.317 0.744359 0.120187 0
M  V30 5168 H 480.968 1.78919 -0.407464 0
M  V30 5169 H 479.35 3.71021 1.38419 0
M  V30 5170 H 480.524 4.39267 -1.39218 0
M  V30 5171 H 478.839 4.01434 -1.10633 0
M  V30 5172 H 481.436 5.15174 1.43179 0
M  V30 5173 H 481.779 3.58324 2.11918 0
M  V30 5174 H 482.312 3.95123 0.460739 0
M  V30 5175 H 479.051 6.44325 -1.20524 0
M  V30 5176 H 478.571 5.98155 0.44394 0
M  V30 5177 H 480.25 6.46916 0.104048 0
M  V30 5178 N 480.382 0.0267497 1.57577 0
M  V30 5179 C 481.314 -0.984594 2.06974 0
M  V30 5180 C 482.327 -1.29032 0.992705 0
M  V30 5181 O 483.516 -1.25539 1.26895 0
M  V30 5182 C 480.616 -2.31262 2.47732 0
M  V30 5183 C 479.789 -2.1924 3.78487 0
M  V30 5184 C 478.848 -3.34956 4.05821 0
M  V30 5185 O 477.874 -3.11948 4.76106 0
M  V30 5186 N 479.076 -4.58672 3.55809 0
M  V30 5187 H 481.841 -0.563143 2.94362 0
M  V30 5188 H 479.402 -0.160061 1.61107 0
M  V30 5189 H 481.394 -3.07496 2.63112 0
M  V30 5190 H 479.964 -2.65056 1.65723 0
M  V30 5191 H 479.184 -1.27747 3.72927 0
M  V30 5192 H 480.472 -2.08409 4.64158 0
M  V30 5193 H 479.87 -4.8026 2.98942 0
M  V30 5194 H 478.427 -5.32083 3.76472 0
M  V30 5195 N 481.861 -1.55662 -0.24637 0
M  V30 5196 C 483.277 -1.48098 -0.594907 0
M  V30 5197 C 483.477 -0.717044 -1.8831 0
M  V30 5198 O 482.533 -0.246618 -2.51293 0
M  V30 5199 C 483.846 -2.92507 -0.697146 0
M  V30 5200 C 485.394 -3.02881 -0.789436 0
M  V30 5201 C 485.869 -4.48598 -0.923232 0
M  V30 5202 N 487.36 -4.52538 -0.988088 0
M  V30 5203 C 488.095 -5.62536 -1.11089 0
M  V30 5204 N 487.591 -6.82342 -1.19919 0
M  V30 5205 N 489.384 -5.50334 -1.14408 0
M  V30 5206 H 481.535 -2.0377 0.599278 0
M  V30 5207 H 483.798 -0.925145 0.20691 0
M  V30 5208 H 483.504 -3.51242 0.179396 0
M  V30 5209 H 483.378 -3.43024 -1.5689 0
M  V30 5210 H 485.765 -2.44226 -1.65643 0
M  V30 5211 H 485.846 -2.55574 0.107482 0
M  V30 5212 H 485.49 -5.07864 -0.0607927 0
M  V30 5213 H 485.42 -4.93587 -1.8352 0
M  V30 5214 H 487.911 -3.66248 -0.931167 0
M  V30 5215 H 488.224 -7.61924 -1.29197 0
M  V30 5216 H 486.569 -6.85102 -1.16876 0
M  V30 5217 H 489.76 -4.5567 -1.07158 0
M  V30 5218 H 489.933 -6.36096 -1.23634 0
M  V30 5219 N 483.339 0.512053 -1.4905 0
M  V30 5220 C 484.755 0.84224 -1.35567 0
M  V30 5221 C 484.955 1.97878 -0.380319 0
M  V30 5222 O 484.011 2.51769 0.19201 0
M  V30 5223 C 485.324 1.19286 -2.76028 0
M  V30 5224 C 486.872 1.30171 -2.84648 0
M  V30 5225 C 487.347 1.68568 -4.25851 0
M  V30 5226 N 488.838 1.75638 -4.28609 0
M  V30 5227 C 489.573 2.06769 -5.34821 0
M  V30 5228 N 489.069 2.36201 -6.51292 0
M  V30 5229 N 490.862 2.07927 -5.22229 0
M  V30 5230 H 483.013 -0.237574 -2.11067 0
M  V30 5231 H 485.276 -0.0436747 -0.946993 0
M  V30 5232 H 484.982 0.431199 -3.49047 0
M  V30 5233 H 484.856 2.13889 -3.10695 0
M  V30 5234 H 487.243 2.05411 -2.11873 0
M  V30 5235 H 487.324 0.336457 -2.53578 0
M  V30 5236 H 486.968 0.938824 -4.99148 0
M  V30 5237 H 486.898 2.66174 -4.54377 0
M  V30 5238 H 489.389 1.55097 -3.44606 0
M  V30 5239 H 489.702 2.59112 -7.28066 0
M  V30 5240 H 488.047 2.33681 -6.54536 0
M  V30 5241 H 491.238 1.84403 -4.30248 0
M  V30 5242 H 491.411 2.31856 -6.05101 0
M  V30 5243 N 484.817 1.37938 0.762283 0
M  V30 5244 C 485.727 1.36681 1.90671 0
M  V30 5245 C 486.743 0.265078 1.71969 0
M  V30 5246 O 487.919 0.502055 1.95042 0
M  V30 5247 C 484.984 1.18211 3.25925 0
M  V30 5248 C 484.045 2.3811 3.57214 0
M  V30 5249 C 483.278 2.20512 4.86014 0
M  V30 5250 O 483.501 1.19429 5.57757 0
M  V30 5251 O 482.435 3.08911 5.16583 0
M  V30 5252 H 486.261 2.33091 1.94685 0
M  V30 5253 H 483.846 1.18767 0.906356 0
M  V30 5254 H 485.728 1.09937 4.06807 0
M  V30 5255 H 484.403 0.248807 3.22742 0
M  V30 5256 H 483.31 2.51958 2.76529 0
M  V30 5257 H 484.643 3.30041 3.65149 0
M  V30 5258 N 486.295 -0.989507 1.22664 0
M  V30 5259 C 487.572 -1.70326 0.961688 0
M  V30 5260 C 487.952 -2.04537 -0.522279 0
M  V30 5261 O 487.3 -1.73136 -1.49118 0
M  V30 5262 C 487.51 -2.95135 1.86269 0
M  V30 5263 C 488.858 -3.67842 2.12078 0
M  V30 5264 O 489.882 -3.0515 1.83745 0
M  V30 5265 O 488.741 -4.80644 2.60083 0
M  V30 5266 H 485.835 -0.743589 0.361946 0
M  V30 5267 H 488.381 -1.04555 1.33665 0
M  V30 5268 H 487.153 -2.66382 2.8663 0
M  V30 5269 H 486.776 -3.68645 1.48952 0
M  V30 5270 N 487.773 -1.03688 -1.18687 0
M  V30 5271 C 489.021 -0.736572 -1.88199 0
M  V30 5272 C 489.342 0.737665 -1.80509 0
M  V30 5273 O 488.612 1.53204 -1.22088 0
M  V30 5274 H 487.192 -0.269466 -0.696704 0
M  V30 5275 H 489.854 -1.31282 -1.44052 0
M  V30 5276 H 488.95 -1.03802 -2.94332 0
M  V30 5277 N 489.251 1.34841 -0.815825 0
M  V30 5278 C 490.476 2.03261 -0.41226 0
M  V30 5279 C 490.901 1.61055 0.971751 0
M  V30 5280 O 490.259 0.7917 1.63101 0
M  V30 5281 C 490.307 3.56914 -0.514289 0
M  V30 5282 O 489.411 4.09728 0.468675 0
M  V30 5283 H 488.752 0.641664 -0.170771 0
M  V30 5284 H 491.282 1.72241 -1.10427 0
M  V30 5285 H 491.292 4.06156 -0.387457 0
M  V30 5286 H 489.967 3.86982 -1.52375 0
M  V30 5287 H 488.544 3.71681 0.301316 0
M  V30 5288 N 490.729 0.570148 1.46925 0
M  V30 5289 C 491.975 0.0510284 2.02736 0
M  V30 5290 C 492.308 -1.3006 1.44215 0
M  V30 5291 O 491.583 -1.84932 0.602521 0
M  V30 5292 C 491.866 -0.028215 3.60089 0
M  V30 5293 C 491.719 1.35142 4.29018 0
M  V30 5294 C 493.038 -0.735181 4.33916 0
M  V30 5295 H 490.157 0.0200178 0.736728 0
M  V30 5296 H 492.799 0.73493 1.75211 0
M  V30 5297 H 490.949 -0.610648 3.83671 0
M  V30 5298 H 492.621 1.97806 4.16738 0
M  V30 5299 H 490.864 1.9226 3.88868 0
M  V30 5300 H 491.535 1.24857 5.37694 0
M  V30 5301 H 494.011 -0.240519 4.15404 0
M  V30 5302 H 492.887 -0.759622 5.43618 0
M  V30 5303 H 493.148 -1.79397 4.04066 0
M  V30 5304 N 492.207 -1.54576 0.307264 0
M  V30 5305 C 493.484 -1.92377 -0.353605 0
M  V30 5306 C 493.864 -1.23517 -1.71192 0
M  V30 5307 O 493.212 -0.373101 -2.25433 0
M  V30 5308 C 493.422 -3.45928 -0.462039 0
M  V30 5309 C 494.77 -4.18278 -0.729975 0
M  V30 5310 O 495.794 -3.51997 -0.545605 0
M  V30 5311 O 494.653 -5.3563 -1.08454 0
M  V30 5312 H 491.747 -0.802747 -0.198812 0
M  V30 5313 H 494.293 -1.65929 0.355783 0
M  V30 5314 H 493.065 -3.88187 0.492592 0
M  V30 5315 H 492.688 -3.78431 -1.21965 0
M  V30 5316 N 493.685 -0.035106 -1.57561 0
M  V30 5317 C 494.932 0.642229 -1.92046 0
M  V30 5318 C 495.26 1.7179 -0.91206 0
M  V30 5319 O 494.515 1.95544 0.0781153 0
M  V30 5320 C 494.814 1.29149 -3.3325 0
M  V30 5321 C 494.48 0.345604 -4.49574 0
M  V30 5322 C 493.142 0.0852775 -4.81124 0
M  V30 5323 C 495.494 -0.303569 -5.20315 0
M  V30 5324 C 492.822 -0.831927 -5.80772 0
M  V30 5325 C 495.174 -1.20886 -6.20942 0
M  V30 5326 C 493.838 -1.47802 -6.50931 0
M  V30 5327 H 493.108 0.235008 -0.702746 0
M  V30 5328 H 495.755 -0.0981529 -1.91248 0
M  V30 5329 H 494.06 2.10676 -3.30337 0
M  V30 5330 H 495.757 1.82223 -3.57205 0
M  V30 5331 H 492.347 0.558683 -4.24943 0
M  V30 5332 H 496.531 -0.115515 -4.96166 0
M  V30 5333 H 491.787 -1.0481 -6.02349 0
M  V30 5334 H 495.961 -1.71804 -6.74875 0
M  V30 5335 H 493.588 -2.19039 -7.2796 0
M  V30 5336 N 495.163 1.55791 0.238111 0
M  V30 5337 C 496.095 1.87513 1.31802 0
M  V30 5338 C 497.108 0.762053 1.43863 0
M  V30 5339 O 498.297 1.04024 1.45056 0
M  V30 5340 C 495.397 2.05402 2.69561 0
M  V30 5341 C 494.57 3.3632 2.79656 0
M  V30 5342 C 493.629 3.43844 3.98319 0
M  V30 5343 O 492.655 4.16994 3.87433 0
M  V30 5344 N 493.857 2.73777 5.11885 0
M  V30 5345 H 496.622 2.80734 1.04922 0
M  V30 5346 H 494.183 1.56135 0.428196 0
M  V30 5347 H 496.175 2.07769 3.47296 0
M  V30 5348 H 494.745 1.18884 2.89111 0
M  V30 5349 H 493.965 3.46195 1.88528 0
M  V30 5350 H 495.253 4.22594 2.83358 0
M  V30 5351 H 494.651 2.14094 5.23622 0
M  V30 5352 H 493.208 2.81825 5.87723 0
M  V30 5353 N 496.642 -0.504142 1.49319 0
M  V30 5354 C 498.058 -0.835039 1.36012 0
M  V30 5355 C 498.258 -1.97674 0.390808 0
M  V30 5356 O 497.314 -2.51867 -0.178655 0
M  V30 5357 C 498.627 -1.17821 2.76656 0
M  V30 5358 C 500.175 -1.2866 2.85334 0
M  V30 5359 C 500.65 -1.66307 4.26739 0
M  V30 5360 N 502.141 -1.73362 4.29534 0
M  V30 5361 C 502.876 -2.0393 5.35911 0
M  V30 5362 N 502.372 -2.32744 6.52535 0
M  V30 5363 N 504.165 -2.05155 5.23324 0
M  V30 5364 H 496.316 0.248764 2.10938 0
M  V30 5365 H 498.579 0.0486962 0.946748 0
M  V30 5366 H 498.285 -0.412682 3.4927 0
M  V30 5367 H 498.159 -2.12239 3.11825 0
M  V30 5368 H 500.546 -2.04285 2.1296 0
M  V30 5369 H 500.627 -0.323004 2.53752 0
M  V30 5370 H 500.271 -0.91234 4.99639 0
M  V30 5371 H 500.201 -2.63761 4.55782 0
M  V30 5372 H 502.692 -1.53268 3.45424 0
M  V30 5373 H 503.005 -2.55248 7.2943 0
M  V30 5374 H 501.35 -2.30207 6.55767 0
M  V30 5375 H 504.541 -1.82119 4.3122 0
M  V30 5376 H 504.714 -2.28644 6.06322 0
M  V30 5377 N 498.12 -1.38341 -0.754957 0
M  V30 5378 C 499.348 -1.37704 -1.54419 0
M  V30 5379 C 499.763 0.0335243 -1.8877 0
M  V30 5380 O 499.12 0.999773 -1.52679 0
M  V30 5381 C 499.171 -2.23136 -2.84416 0
M  V30 5382 O 498.892 -3.58697 -2.51531 0
M  V30 5383 C 500.393 -2.30664 -3.78562 0
M  V30 5384 H 497.613 -0.471061 -0.477852 0
M  V30 5385 H 500.157 -1.81902 -0.934446 0
M  V30 5386 H 498.312 -1.82403 -3.41772 0
M  V30 5387 H 498.726 -4.03665 -3.34896 0
M  V30 5388 H 500.2 -2.9473 -4.66732 0
M  V30 5389 H 500.677 -1.3199 -4.18898 0
M  V30 5390 H 501.283 -2.71781 -3.27131 0
M  V30 5391 N 499.598 0.982988 -1.23187 0
M  V30 5392 C 500.844 1.7273 -1.07405 0
M  V30 5393 C 501.199 1.885 0.385447 0
M  V30 5394 O 500.492 1.4243 1.28157 0
M  V30 5395 C 500.686 3.12736 -1.73006 0
M  V30 5396 C 500.515 3.10621 -3.25184 0
M  V30 5397 C 499.285 3.15957 -3.94334 0
M  V30 5398 C 501.483 2.93992 -4.21987 0
M  V30 5399 N 499.465 3.03701 -5.33516 0
M  V30 5400 C 500.836 2.8987 -5.48065 0
M  V30 5401 C 502.891 2.78457 -4.12754 0
M  V30 5402 C 501.594 2.71804 -6.65969 0
M  V30 5403 C 503.62 2.61754 -5.30319 0
M  V30 5404 C 502.982 2.58328 -6.55321 0
M  V30 5405 H 499.081 0.641279 -0.447533 0
M  V30 5406 H 501.665 1.16664 -1.55877 0
M  V30 5407 H 499.836 3.67026 -1.2707 0
M  V30 5408 H 501.568 3.75786 -1.50224 0
M  V30 5409 H 498.323 3.24034 -3.45397 0
M  V30 5410 H 498.747 3.00855 -6.06478 0
M  V30 5411 H 503.389 2.79898 -3.16886 0
M  V30 5412 H 501.107 2.69108 -7.61975 0
M  V30 5413 H 504.693 2.50702 -5.25014 0
M  V30 5414 H 503.573 2.45564 -7.4476 0
M  V30 5415 N 501.076 1.04316 1.18135 0
M  V30 5416 C 502.023 0.636398 2.21853 0
M  V30 5417 C 502.993 -0.357039 1.62217 0
M  V30 5418 O 504.178 -0.250453 1.89149 0
M  V30 5419 C 501.318 0.00812779 3.45099 0
M  V30 5420 C 500.431 1.04933 4.19062 0
M  V30 5421 C 499.566 0.389313 5.29771 0
M  V30 5422 C 498.605 1.41544 5.9551 0
M  V30 5423 N 497.742 0.78021 6.97751 0
M  V30 5424 H 502.582 1.52536 2.56002 0
M  V30 5425 H 500.119 0.76304 1.25762 0
M  V30 5426 H 502.077 -0.373497 4.15525 0
M  V30 5427 H 500.707 -0.844336 3.11562 0
M  V30 5428 H 499.759 1.54888 3.47439 0
M  V30 5429 H 501.071 1.82862 4.64072 0
M  V30 5430 H 500.225 -0.0463805 6.06682 0
M  V30 5431 H 498.964 -0.422038 4.8587 0
M  V30 5432 H 497.969 1.86124 5.17337 0
M  V30 5433 H 499.194 2.22854 6.41493 0
M  V30 5434 H 497.14 -0.0107899 6.55999 0
M  V30 5435 H 497.057 1.49716 7.41027 0
M  V30 5436 H 498.325 0.368996 7.78626 0
M  V30 5437 N 502.554 -1.34406 0.822964 0
M  V30 5438 C 503.464 -2.33298 0.246838 0
M  V30 5439 C 504.48 -1.62625 -0.618797 0
M  V30 5440 O 505.656 -1.94391 -0.526685 0
M  V30 5441 C 502.721 -3.41785 -0.581731 0
M  V30 5442 C 501.782 -4.28206 0.306309 0
M  V30 5443 C 501.015 -5.31512 -0.48281 0
M  V30 5444 O 501.238 -5.43973 -1.71607 0
M  V30 5445 O 500.172 -6.01749 0.134884 0
M  V30 5446 H 503.998 -2.84401 1.06534 0
M  V30 5447 H 501.583 -1.37466 0.585108 0
M  V30 5448 H 503.465 -4.08028 -1.05313 0
M  V30 5449 H 502.14 -2.92925 -1.37756 0
M  V30 5450 H 501.047 -3.64885 0.825199 0
M  V30 5451 H 502.38 -4.80507 1.06649 0
M  V30 5452 N 504.032 -0.577932 -1.46621 0
M  V30 5453 C 505.262 -0.0670668 -2.06491 0
M  V30 5454 C 505.67 1.24119 -1.42798 0
M  V30 5455 O 505.013 1.76016 -0.525759 0
M  V30 5456 C 505.075 0.177995 -3.59059 0
M  V30 5457 C 504.739 -1.04394 -4.44917 0
M  V30 5458 C 505.736 -1.95479 -4.81751 0
M  V30 5459 C 503.421 -1.26444 -4.86125 0
M  V30 5460 C 505.415 -3.06965 -5.58615 0
M  V30 5461 C 503.102 -2.38237 -5.62749 0
M  V30 5462 C 504.1 -3.28327 -5.98908 0
M  V30 5463 O 503.788 -4.38179 -6.73984 0
M  V30 5464 H 503.52 -0.0523159 -0.673973 0
M  V30 5465 H 506.074 -0.796966 -1.89308 0
M  V30 5466 H 504.304 0.962451 -3.74531 0
M  V30 5467 H 505.993 0.636782 -4.00874 0
M  V30 5468 H 506.759 -1.79657 -4.50498 0
M  V30 5469 H 502.638 -0.572316 -4.57434 0
M  V30 5470 H 506.182 -3.77309 -5.86757 0
M  V30 5471 H 502.079 -2.54023 -5.93416 0
M  V30 5472 H 502.847 -4.36486 -6.92403 0
M  V30 5473 N 505.51 1.54411 -0.315457 0
M  V30 5474 C 506.457 2.24048 0.554166 0
M  V30 5475 C 507.427 1.2283 1.11812 0
M  V30 5476 O 508.612 1.51491 1.15997 0
M  V30 5477 C 505.752 2.99574 1.71316 0
M  V30 5478 C 504.865 4.15594 1.17922 0
M  V30 5479 C 504 4.78669 2.30324 0
M  V30 5480 C 503.039 5.86807 1.74137 0
M  V30 5481 N 502.176 6.43777 2.8017 0
M  V30 5482 H 507.016 2.97964 -0.0462602 0
M  V30 5483 H 504.553 1.47059 -0.0346009 0
M  V30 5484 H 506.511 3.41604 2.39505 0
M  V30 5485 H 505.141 2.28008 2.285 0
M  V30 5486 H 504.193 3.78404 0.389136 0
M  V30 5487 H 505.505 4.93459 0.728012 0
M  V30 5488 H 504.659 5.23626 3.06433 0
M  V30 5489 H 503.398 4.00168 2.78778 0
M  V30 5490 H 502.403 5.41261 0.965236 0
M  V30 5491 H 503.628 6.67201 1.2657 0
M  V30 5492 H 501.574 5.68153 3.2793 0
M  V30 5493 H 501.491 7.17031 2.39588 0
M  V30 5494 H 502.759 6.9339 3.56132 0
M  V30 5495 N 506.988 0.0434614 1.5754 0
M  V30 5496 C 508.234 -0.632971 1.92669 0
M  V30 5497 C 508.567 -1.70947 0.921446 0
M  V30 5498 O 507.842 -1.94426 -0.0537202 0
M  V30 5499 C 508.125 -1.23619 3.38216 0
M  V30 5500 C 507.978 -0.168274 4.49485 0
M  V30 5501 C 509.297 -2.15008 3.84005 0
M  V30 5502 H 506.416 -0.228629 0.700641 0
M  V30 5503 H 509.058 0.103651 1.89717 0
M  V30 5504 H 507.208 -1.864 3.40863 0
M  V30 5505 H 508.88 0.463196 4.58969 0
M  V30 5506 H 507.123 0.504581 4.30855 0
M  V30 5507 H 507.794 -0.630218 5.48391 0
M  V30 5508 H 510.27 -1.62198 3.83185 0
M  V30 5509 H 509.146 -2.54161 4.86511 0
M  V30 5510 H 509.407 -3.04707 3.20322 0
M  V30 5511 N 508.466 -1.55915 -0.229846 0
M  V30 5512 C 509.714 -1.7819 -0.953565 0
M  V30 5513 C 510.035 -0.610504 -1.85197 0
M  V30 5514 O 509.305 0.372988 -1.92316 0
M  V30 5515 H 507.885 -0.657208 -0.355087 0
M  V30 5516 H 510.547 -1.9337 -0.243693 0
M  V30 5517 H 509.643 -2.70011 -1.56527 0
M  V30 5518 N 509.944 0.496216 -1.49584 0
M  V30 5519 C 511.191 1.25003 -1.59312 0
M  V30 5520 C 511.519 1.92445 -0.28198 0
M  V30 5521 O 510.774 1.81557 0.730452 0
M  V30 5522 C 511.073 2.3359 -2.705 0
M  V30 5523 C 510.739 1.83574 -4.11839 0
M  V30 5524 C 509.401 1.69653 -4.50302 0
M  V30 5525 C 511.753 1.46193 -5.00277 0
M  V30 5526 C 509.081 1.16736 -5.74969 0
M  V30 5527 C 511.433 0.947265 -6.25468 0
M  V30 5528 C 510.097 0.794485 -6.62755 0
M  V30 5529 H 509.367 0.45742 -0.582965 0
M  V30 5530 H 512.014 0.549996 -1.83432 0
M  V30 5531 H 510.319 3.09401 -2.40371 0
M  V30 5532 H 512.016 2.91627 -2.75235 0
M  V30 5533 H 508.606 1.9537 -3.81482 0
M  V30 5534 H 512.79 1.55793 -4.71214 0
M  V30 5535 H 508.046 1.03623 -6.02555 0
M  V30 5536 H 512.22 0.648846 -6.93371 0
M  V30 5537 H 509.847 0.382271 -7.59238 0
M  V30 5538 N 511.423 1.38739 0.74761 0
M  V30 5539 C 512.671 1.35007 1.50391 0
M  V30 5540 C 512.992 -0.0574274 1.94915 0
M  V30 5541 O 512.262 -1.00628 1.6808 0
M  V30 5542 H 510.842 0.496784 0.557866 0
M  V30 5543 H 513.504 1.73479 0.888319 0
M  V30 5544 H 512.6 2.00474 2.392 0
M  V30 5545 N 512.901 -0.976442 1.23707 0
M  V30 5546 C 513.849 -2.09078 1.01927 0
M  V30 5547 C 514.843 -1.69345 -0.0430193 0
M  V30 5548 O 516.049 -1.79659 0.110814 0
M  V30 5549 H 512.424 -0.68398 0.312531 0
M  V30 5550 H 514.395 -2.24614 1.96447 0
M  V30 5551 C 513.144 -3.41919 0.631385 0
M  V30 5552 H 512.467 -3.72946 1.44053 0
M  V30 5553 H 513.907 -4.20817 0.518532 0
M  V30 5554 C 512.366 -3.30357 -0.660723 0
M  V30 5555 O 512.896 -3.63542 -1.70881 0
M  V30 5556 N 511.102 -2.83507 -0.638139 0
M  V30 5557 H 510.649 -2.567 0.215108 0
M  V30 5558 H 510.607 -2.76153 -1.50289 0
M  V30 5559 N 514.379 -1.04941 -1.1758 0
M  V30 5560 C 515.79 -0.784501 -1.69418 0
M  V30 5561 C 516.141 0.693625 -1.8353 0
M  V30 5562 O 515.266 1.53925 -1.52106 0
M  V30 5563 C 515.861 -1.41746 -3.07723 0
M  V30 5564 C 514.42 -1.20066 -3.56737 0
M  V30 5565 C 513.567 -1.5026 -2.33061 0
M  V30 5566 H 516.518 -1.21469 -1.02133 0
M  V30 5567 H 516.539 -0.825381 -3.7144 0
M  V30 5568 H 516.051 -2.49325 -2.9742 0
M  V30 5569 H 514.152 -0.144006 -3.72322 0
M  V30 5570 H 514.265 -1.90384 -4.39648 0
M  V30 5571 H 512.629 -0.922598 -2.37403 0
M  V30 5572 H 513.412 -2.58967 -2.25368 0
M  V30 5573 N 515.857 1.33968 -0.830081 0
M  V30 5574 C 517.082 2.02813 -0.433796 0
M  V30 5575 C 517.507 1.62076 0.954614 0
M  V30 5576 O 516.865 0.808955 1.62252 0
M  V30 5577 C 516.913 3.56348 -0.552115 0
M  V30 5578 O 516.017 4.10202 0.425191 0
M  V30 5579 H 515.358 0.639817 -0.177567 0
M  V30 5580 H 517.888 1.7106 -1.12248 0
M  V30 5581 H 517.898 4.05722 -0.430513 0
M  V30 5582 H 516.573 3.85344 -1.56471 0
M  V30 5583 H 515.15 3.71979 0.261878 0
M  V30 5584 N 517.335 0.585699 1.46312 0
M  V30 5585 C 518.583 0.072278 2.01971 0
M  V30 5586 C 518.904 -1.29345 1.45928 0
M  V30 5587 O 518.174 -1.84973 0.645109 0
M  V30 5588 H 516.754 0.023729 0.746623 0
M  V30 5589 H 519.416 0.762155 1.7938 0
M  V30 5590 H 518.512 0.00552767 3.121 0
M  V30 5591 N 518.813 -1.54241 0.323641 0
M  V30 5592 C 519.723 -2.28033 -0.551205 0
M  V30 5593 C 520.739 -1.32388 -1.12913 0
M  V30 5594 O 521.915 -1.65403 -1.14908 0
M  V30 5595 C 518.98 -3.02382 -1.69606 0
M  V30 5596 C 518.041 -4.13612 -1.14993 0
M  V30 5597 C 517.274 -4.84407 -2.24022 0
M  V30 5598 O 517.497 -4.54716 -3.44368 0
M  V30 5599 O 516.431 -5.71312 -1.89436 0
M  V30 5600 H 520.257 -3.03662 0.048066 0
M  V30 5601 H 517.842 -1.49133 0.0893289 0
M  V30 5602 H 519.724 -3.48941 -2.36259 0
M  V30 5603 H 518.399 -2.29628 -2.28151 0
M  V30 5604 H 517.306 -3.71402 -0.448484 0
M  V30 5605 H 518.639 -4.8841 -0.609608 0
M  V30 5606 N 520.291 -0.0518155 -1.57515 0
M  V30 5607 C 521.521 0.63048 -1.96745 0
M  V30 5608 C 521.929 1.64875 -0.928054 0
M  V30 5609 O 521.272 1.83449 0.0960678 0
M  V30 5610 C 521.334 1.37381 -3.32215 0
M  V30 5611 C 520.998 0.511298 -4.54131 0
M  V30 5612 C 521.995 -0.222884 -5.19422 0
M  V30 5613 C 519.68 0.442035 -5.00351 0
M  V30 5614 C 521.674 -1.01476 -6.2927 0
M  V30 5615 C 519.361 -0.35353 -6.10077 0
M  V30 5616 C 520.359 -1.08062 -6.74397 0
M  V30 5617 O 520.047 -1.8631 -7.82013 0
M  V30 5618 H 519.779 0.177126 -0.652382 0
M  V30 5619 H 522.333 -0.114726 -2.05079 0
M  V30 5620 H 520.563 2.16466 -3.20436 0
M  V30 5621 H 522.252 1.9464 -3.56188 0
M  V30 5622 H 523.018 -0.178846 -4.8467 0
M  V30 5623 H 518.897 0.997562 -4.50077 0
M  V30 5624 H 522.441 -1.58279 -6.79407 0
M  V30 5625 H 518.338 -0.399205 -6.44264 0
M  V30 5626 H 519.106 -1.78528 -7.98793 0
M  V30 5627 N 521.769 1.56035 0.221574 0
M  V30 5628 C 523.015 1.80221 0.942973 0
M  V30 5629 C 523.37 0.624799 1.81973 0
M  V30 5630 O 522.663 -0.381145 1.87771 0
M  V30 5631 C 522.857 3.07813 1.8162 0
M  V30 5632 C 522.686 4.37852 1.02548 0
M  V30 5633 C 521.456 5.00138 0.720418 0
M  V30 5634 C 523.654 5.12813 0.390799 0
M  V30 5635 N 521.636 6.13831 -0.0917139 0
M  V30 5636 C 523.007 6.19346 -0.284728 0
M  V30 5637 C 525.062 4.96972 0.303828 0
M  V30 5638 C 523.765 7.11758 -1.03891 0
M  V30 5639 C 525.791 5.89784 -0.436883 0
M  V30 5640 C 525.153 6.95743 -1.10095 0
M  V30 5641 H 521.252 0.711117 0.325325 0
M  V30 5642 H 523.836 1.93522 0.213854 0
M  V30 5643 H 522.007 2.95795 2.51714 0
M  V30 5644 H 523.739 3.20191 2.47508 0
M  V30 5645 H 520.494 4.62075 1.03843 0
M  V30 5646 H 520.918 6.75249 -0.486615 0
M  V30 5647 H 525.56 4.15107 0.802896 0
M  V30 5648 H 523.278 7.93105 -1.54949 0
M  V30 5649 H 526.864 5.79603 -0.505181 0
M  V30 5650 H 525.744 7.66322 -1.66495 0
M  V30 5651 N 523.247 -0.488276 1.49845 0
M  V30 5652 C 524.177 -1.59675 1.70371 0
M  V30 5653 C 525.158 -1.60878 0.552473 0
M  V30 5654 O 526.343 -1.77417 0.78973 0
M  V30 5655 C 523.473 -2.98098 1.782 0
M  V30 5656 C 522.427 -3.11761 2.93239 0
M  V30 5657 C 521.753 -4.51661 2.86193 0
M  V30 5658 C 523.053 -2.90589 4.33999 0
M  V30 5659 H 524.747 -1.42752 2.63177 0
M  V30 5660 H 522.293 -0.685317 1.26647 0
M  V30 5661 H 524.246 -3.75555 1.91144 0
M  V30 5662 H 522.97 -3.16138 0.820018 0
M  V30 5663 H 521.629 -2.36732 2.79917 0
M  V30 5664 H 521.277 -4.66595 1.87877 0
M  V30 5665 H 520.977 -4.61742 3.63412 0
M  V30 5666 H 522.501 -5.31162 3.01163 0
M  V30 5667 H 523.915 -3.57807 4.47936 0
M  V30 5668 H 522.312 -3.1213 5.12538 0
M  V30 5669 H 523.382 -1.86595 4.4756 0
M  V30 5670 N 524.725 -1.39134 -0.740242 0
M  V30 5671 C 525.973 -1.35803 -1.49673 0
M  V30 5672 C 526.294 0.0470897 -1.94943 0
M  V30 5673 O 525.564 0.997347 -1.68611 0
M  V30 5674 H 524.144 -0.499736 -0.555224 0
M  V30 5675 H 526.806 -1.73947 -0.879107 0
M  V30 5676 H 525.902 -2.0174 -2.38133 0
M  V30 5677 N 526.204 0.969867 -1.24223 0
M  V30 5678 C 527.152 2.08535 -1.03034 0
M  V30 5679 C 528.146 1.69366 0.0340379 0
M  V30 5680 O 529.352 1.79597 -0.12034 0
M  V30 5681 H 525.727 0.682313 -0.316154 0
M  V30 5682 H 527.698 2.23569 -1.97635 0
M  V30 5683 C 526.447 3.4158 -0.649509 0
M  V30 5684 H 525.77 3.72177 -1.46028 0
M  V30 5685 H 527.21 4.20536 -0.540841 0
M  V30 5686 C 525.669 3.30703 0.643194 0
M  V30 5687 O 526.199 3.64443 1.68951 0
M  V30 5688 N 524.405 2.83841 0.623095 0
M  V30 5689 H 523.952 2.56583 -0.228719 0
M  V30 5690 H 523.91 2.76946 1.48823 0
M  V30 5691 N 527.682 1.05563 1.17022 0
M  V30 5692 C 528.592 0.670758 2.24807 0
M  V30 5693 C 529.608 -0.309865 1.71219 0
M  V30 5694 O 530.784 -0.161025 2.00755 0
M  V30 5695 C 527.849 0.055337 3.46656 0
M  V30 5696 C 526.91 1.08688 4.15314 0
M  V30 5697 C 526.143 0.500736 5.31346 0
M  V30 5698 O 526.366 -0.688718 5.66227 0
M  V30 5699 O 525.3 1.23683 5.89055 0
M  V30 5700 H 529.126 1.56914 2.60023 0
M  V30 5701 H 526.711 0.827428 1.24395 0
M  V30 5702 H 528.593 -0.286492 4.20425 0
M  V30 5703 H 527.268 -0.816638 3.13229 0
M  V30 5704 H 526.175 1.48077 3.43546 0
M  V30 5705 H 527.508 1.93014 4.52777 0
M  V30 5706 N 529.16 -1.33526 0.837174 0
M  V30 5707 C 530.407 -1.97837 0.432064 0
M  V30 5708 C 530.735 -1.66324 -1.00829 0
M  V30 5709 O 529.99 -0.93448 -1.71948 0
M  V30 5710 C 530.289 -3.52367 0.597675 0
M  V30 5711 C 529.955 -4.03826 2.00587 0
M  V30 5712 C 528.617 -4.1759 2.39106 0
M  V30 5713 C 530.969 -4.31333 2.92576 0
M  V30 5714 C 528.297 -4.56195 3.68921 0
M  V30 5715 C 530.649 -4.7139 4.2187 0
M  V30 5716 C 529.313 -4.8336 4.60347 0
M  V30 5717 H 528.583 -0.723937 0.158104 0
M  V30 5718 H 531.23 -1.5923 1.06387 0
M  V30 5719 H 529.535 -3.91624 -0.117452 0
M  V30 5720 H 531.232 -4.00126 0.26454 0
M  V30 5721 H 527.822 -3.93586 1.69671 0
M  V30 5722 H 532.006 -4.20224 2.64056 0
M  V30 5723 H 527.262 -4.63655 3.9854 0
M  V30 5724 H 531.436 -4.91631 4.93226 0
M  V30 5725 H 529.063 -5.1303 5.60985 0
M  V30 5726 N 530.638 -0.59345 -1.46 0
M  V30 5727 C 531.884 -0.0832754 -2.02629 0
M  V30 5728 C 532.217 1.27749 -1.46266 0
M  V30 5729 O 531.492 1.8395 -0.631866 0
M  V30 5730 C 531.775 -0.0290756 -3.60088 0
M  V30 5731 C 531.628 -1.41951 -4.26814 0
M  V30 5732 C 532.947 0.666055 -4.35031 0
M  V30 5733 H 530.066 -0.031736 -0.736316 0
M  V30 5734 H 532.708 -0.762711 -1.74019 0
M  V30 5735 H 530.858 0.549532 -3.84594 0
M  V30 5736 H 532.53 -2.04411 -4.13538 0
M  V30 5737 H 530.773 -1.98422 -3.8576 0
M  V30 5738 H 531.444 -1.33395 -5.3564 0
M  V30 5739 H 533.92 0.174401 -4.15734 0
M  V30 5740 H 532.796 0.673041 -5.44758 0
M  V30 5741 H 533.057 1.72946 -4.06869 0
M  V30 5742 N 532.116 1.54067 -0.331816 0
M  V30 5743 C 533.341 2.05599 0.272705 0
M  V30 5744 C 533.766 1.2059 1.44359 0
M  V30 5745 O 533.124 0.216907 1.79998 0
M  V30 5746 C 533.172 3.54188 0.677021 0
M  V30 5747 O 532.276 3.72082 1.77844 0
M  V30 5748 H 531.617 0.662286 0.0476801 0
M  V30 5749 H 534.147 1.98826 -0.482624 0
M  V30 5750 H 534.157 3.96608 0.957415 0
M  V30 5751 H 532.832 4.15513 -0.179325 0
M  V30 5752 H 531.409 3.41566 1.49622 0
M  V30 5753 N 533.594 0.0601682 1.57485 0
M  V30 5754 C 534.526 -0.94047 2.09016 0
M  V30 5755 C 535.539 -1.26897 1.01985 0
M  V30 5756 O 536.728 -1.22819 1.29529 0
M  V30 5757 C 533.828 -2.25955 2.52582 0
M  V30 5758 C 533.001 -2.11163 3.83052 0
M  V30 5759 C 532.06 -3.26273 4.12835 0
M  V30 5760 O 531.086 -3.01779 4.82616 0
M  V30 5761 N 532.288 -4.51022 3.65458 0
M  V30 5762 H 535.053 -0.500578 2.9549 0
M  V30 5763 H 532.614 -0.125852 1.6141 0
M  V30 5764 H 534.606 -3.01846 2.69575 0
M  V30 5765 H 533.176 -2.61481 1.71308 0
M  V30 5766 H 532.396 -1.19808 3.75552 0
M  V30 5767 H 533.684 -1.98517 4.68475 0
M  V30 5768 H 533.082 -4.73811 3.09062 0
M  V30 5769 H 531.639 -5.23978 3.87673 0
M  V30 5770 N 535.072 -1.5615 -0.213296 0
M  V30 5771 C 536.002 -1.96109 -1.26742 0
M  V30 5772 C 536.983 -0.830448 -1.48451 0
M  V30 5773 O 538.168 -1.09339 -1.60495 0
M  V30 5774 C 535.298 -2.28492 -2.61551 0
M  V30 5775 C 534.252 -3.44124 -2.54485 0
M  V30 5776 C 533.578 -3.62134 -3.93399 0
M  V30 5777 C 534.878 -4.78855 -2.08556 0
M  V30 5778 H 536.572 -2.84412 -0.935434 0
M  V30 5779 H 534.118 -1.36836 -0.44854 0
M  V30 5780 H 536.071 -2.55039 -3.3546 0
M  V30 5781 H 534.795 -1.37052 -2.96453 0
M  V30 5782 H 533.454 -3.17639 -1.83033 0
M  V30 5783 H 533.102 -2.68055 -4.25623 0
M  V30 5784 H 532.802 -4.39913 -3.89551 0
M  V30 5785 H 534.326 -3.91038 -4.68958 0
M  V30 5786 H 535.74 -5.04552 -2.72213 0
M  V30 5787 H 534.137 -5.59975 -2.1575 0
M  V30 5788 H 535.207 -4.73657 -1.03811 0
M  V30 5789 N 536.55 0.480323 -1.50102 0
M  V30 5790 C 537.778 1.25657 -1.64371 0
M  V30 5791 C 538.193 1.86011 -0.323316 0
M  V30 5792 O 537.55 1.68803 0.693682 0
M  V30 5793 C 537.601 2.37197 -2.728 0
M  V30 5794 O 537.322 1.7932 -3.9972 0
M  V30 5795 C 538.823 3.2823 -2.9796 0
M  V30 5796 H 536.043 0.380369 -0.552775 0
M  V30 5797 H 538.587 0.574379 -1.96268 0
M  V30 5798 H 536.742 3.01208 -2.43623 0
M  V30 5799 H 537.156 2.52701 -4.59611 0
M  V30 5800 H 538.63 4.02725 -3.77513 0
M  V30 5801 H 539.107 3.86462 -2.08671 0
M  V30 5802 H 539.713 2.69964 -3.28633 0
M  V30 5803 N 538.028 1.39524 0.732853 0
M  V30 5804 C 538.976 1.38563 1.86824 0
M  V30 5805 C 539.97 0.268467 1.67259 0
M  V30 5806 O 541.176 0.438613 1.74574 0
M  V30 5807 H 537.551 0.432737 0.615014 0
M  V30 5808 H 539.522 2.34328 1.84751 0
M  V30 5809 C 538.271 1.2481 3.24527 0
M  V30 5810 H 537.594 2.10044 3.40179 0
M  V30 5811 H 539.034 1.28194 4.04156 0
M  V30 5812 C 537.493 -0.0432825 3.36872 0
M  V30 5813 O 538.023 -1.01268 3.88726 0
M  V30 5814 N 536.229 -0.107055 2.90403 0
M  V30 5815 H 535.776 0.682512 2.48394 0
M  V30 5816 H 535.734 -0.970618 2.99042 0
M  V30 5817 N 539.506 -0.963266 1.24736 0
M  V30 5818 C 540.438 -2.06162 1.0015 0
M  V30 5819 C 541.451 -1.62771 -0.0305905 0
M  V30 5820 O 542.64 -1.77296 0.206966 0
M  V30 5821 C 539.74 -3.35333 0.490385 0
M  V30 5822 C 538.913 -4.07609 1.58663 0
M  V30 5823 C 537.972 -5.15052 1.0774 0
M  V30 5824 O 536.998 -5.4098 1.77002 0
M  V30 5825 N 538.2 -5.80436 -0.0858605 0
M  V30 5826 H 540.965 -2.27825 1.94719 0
M  V30 5827 H 538.526 -1.13121 1.15825 0
M  V30 5828 H 540.518 -4.04477 0.134371 0
M  V30 5829 H 539.088 -3.10507 -0.361155 0
M  V30 5830 H 538.308 -3.32681 2.11463 0
M  V30 5831 H 539.596 -4.52656 2.32336 0
M  V30 5832 H 538.994 -5.6178 -0.664806 0
M  V30 5833 H 537.551 -6.50674 -0.382981 0
M  V30 5834 N 540.985 -1.06182 -1.16461 0
M  V30 5835 C 541.917 -0.629584 -2.20383 0
M  V30 5836 C 542.93 0.311834 -1.59786 0
M  V30 5837 O 544.119 0.103 -1.78203 0
M  V30 5838 C 541.219 0.0973695 -3.3876 0
M  V30 5839 C 540.392 -0.857252 -4.28917 0
M  V30 5840 C 539.451 -0.169749 -5.25926 0
M  V30 5841 O 538.477 -0.807044 -5.6345 0
M  V30 5842 N 539.679 1.08911 -5.70192 0
M  V30 5843 H 542.444 -1.52352 -2.58087 0
M  V30 5844 H 540.005 -0.944993 -1.31459 0
M  V30 5845 H 541.997 0.567676 -4.00699 0
M  V30 5846 H 540.567 0.893093 -2.99571 0
M  V30 5847 H 539.787 -1.50696 -3.64259 0
M  V30 5848 H 541.075 -1.50489 -4.86035 0
M  V30 5849 H 540.473 1.62703 -5.41797 0
M  V30 5850 H 539.03 1.50331 -6.34227 0
M  V30 5851 N 542.463 1.3308 -0.844243 0
M  V30 5852 C 543.879 1.50447 -0.532729 0
M  V30 5853 C 544.079 1.78292 0.938837 0
M  V30 5854 O 543.135 1.84635 1.72239 0
M  V30 5855 C 544.448 2.65555 -1.41072 0
M  V30 5856 C 545.996 2.7944 -1.41005 0
M  V30 5857 C 546.471 3.97616 -2.27301 0
M  V30 5858 N 547.962 4.0486 -2.2504 0
M  V30 5859 C 548.697 4.95508 -2.88547 0
M  V30 5860 N 548.193 5.91236 -3.61126 0
M  V30 5861 N 549.986 4.88548 -2.77989 0
M  V30 5862 H 542.137 1.13269 -1.79677 0
M  V30 5863 H 544.4 0.55734 -0.766861 0
M  V30 5864 H 544.106 2.51675 -2.45668 0
M  V30 5865 H 543.98 3.61089 -1.09061 0
M  V30 5866 H 546.367 2.92749 -0.371784 0
M  V30 5867 H 546.448 1.8465 -1.77026 0
M  V30 5868 H 546.092 3.85066 -3.3119 0
M  V30 5869 H 546.022 4.91661 -1.88619 0
M  V30 5870 H 548.513 3.36353 -1.72264 0
M  V30 5871 H 548.826 6.57079 -4.06776 0
M  V30 5872 H 547.171 5.91295 -3.65234 0
M  V30 5873 H 550.362 4.12729 -2.20846 0
M  V30 5874 H 550.535 5.58994 -3.27765 0
M  V30 5875 N 543.941 0.601185 1.45683 0
M  V30 5876 C 545.171 0.0999093 2.06358 0
M  V30 5877 C 545.579 -1.21831 1.44754 0
M  V30 5878 O 544.922 -1.75157 0.553695 0
M  V30 5879 C 544.984 -0.12085 3.59297 0
M  V30 5880 C 544.648 1.11459 4.432 0
M  V30 5881 C 545.645 2.03118 4.7858 0
M  V30 5882 C 543.33 1.34162 4.84051 0
M  V30 5883 C 545.324 3.15814 5.53661 0
M  V30 5884 C 543.011 2.4716 5.58888 0
M  V30 5885 C 544.009 3.37814 5.93608 0
M  V30 5886 O 543.697 4.48846 6.66928 0
M  V30 5887 H 543.429 0.0630316 0.673055 0
M  V30 5888 H 545.983 0.826982 1.88016 0
M  V30 5889 H 544.213 -0.902744 3.76015 0
M  V30 5890 H 545.902 -0.572925 4.01836 0
M  V30 5891 H 546.668 1.86801 4.47583 0
M  V30 5892 H 542.547 0.645018 4.56465 0
M  V30 5893 H 546.091 3.86596 5.8068 0
M  V30 5894 H 541.988 2.63432 5.89299 0
M  V30 5895 H 542.756 4.47446 6.85371 0
M  V30 5896 N 545.419 -1.53889 0.339982 0
M  V30 5897 C 546.665 -2.01152 -0.258003 0
M  V30 5898 C 546.998 -1.22749 -1.50487 0
M  V30 5899 O 546.273 -0.314156 -1.91946 0
M  V30 5900 C 546.556 -3.55468 -0.575717 0
M  V30 5901 C 546.409 -4.44584 0.682996 0
M  V30 5902 C 547.728 -4.1768 -1.38677 0
M  V30 5903 H 544.847 -0.731198 -0.0922992 0
M  V30 5904 H 547.489 -1.84352 0.459814 0
M  V30 5905 H 545.639 -3.69914 -1.18725 0
M  V30 5906 H 547.311 -4.41981 1.32102 0
M  V30 5907 H 545.554 -4.13592 1.3086 0
M  V30 5908 H 546.225 -5.5043 0.416001 0
M  V30 5909 H 548.701 -4.0691 -0.869705 0
M  V30 5910 H 547.577 -5.25734 -1.57783 0
M  V30 5911 H 547.838 -3.72069 -2.38782 0
M  V30 5912 N 546.897 -0.0685191 -1.57451 0
M  V30 5913 C 547.827 0.89747 -2.15564 0
M  V30 5914 C 548.808 1.31266 -1.08181 0
M  V30 5915 O 549.993 1.38429 -1.36202 0
M  V30 5916 C 547.123 2.16623 -2.71463 0
M  V30 5917 C 546.077 1.89054 -3.83982 0
M  V30 5918 C 545.403 3.22532 -4.26471 0
M  V30 5919 C 546.703 1.1984 -5.08366 0
M  V30 5920 H 548.397 0.413373 -2.96533 0
M  V30 5921 H 545.943 0.197391 -1.42641 0
M  V30 5922 H 547.896 2.84614 -3.10761 0
M  V30 5923 H 546.62 2.67269 -1.8771 0
M  V30 5924 H 545.279 1.23469 -3.45183 0
M  V30 5925 H 544.927 3.71013 -3.39644 0
M  V30 5926 H 544.627 3.04879 -5.02317 0
M  V30 5927 H 546.151 3.91727 -4.68383 0
M  V30 5928 H 547.565 1.77896 -5.45001 0
M  V30 5929 H 545.962 1.12456 -5.89469 0
M  V30 5930 H 547.032 0.176996 -4.84577 0
M  V30 5931 N 548.375 1.56261 0.205012 0
M  V30 5932 C 549.322 1.93754 1.25411 0
M  V30 5933 C 550.292 0.796826 1.45739 0
M  V30 5934 O 551.477 1.05414 1.59036 0
M  V30 5935 C 548.617 2.27383 2.59598 0
M  V30 5936 C 547.73 3.5447 2.46931 0
M  V30 5937 C 546.865 3.77468 3.73753 0
M  V30 5938 C 545.904 4.98014 3.55877 0
M  V30 5939 N 545.041 5.17316 4.74688 0
M  V30 5940 H 549.881 2.83203 0.92737 0
M  V30 5941 H 547.418 1.40158 0.446574 0
M  V30 5942 H 549.376 2.44895 3.37761 0
M  V30 5943 H 548.006 1.41088 2.90335 0
M  V30 5944 H 547.058 3.45061 1.60116 0
M  V30 5945 H 548.37 4.42789 2.29651 0
M  V30 5946 H 547.524 3.95165 4.60358 0
M  V30 5947 H 546.263 2.87461 3.93976 0
M  V30 5948 H 545.268 4.80249 2.67657 0
M  V30 5949 H 546.493 5.8952 3.37109 0
M  V30 5950 H 544.439 4.30255 4.95194 0
M  V30 5951 H 544.356 5.99796 4.60197 0
M  V30 5952 H 545.624 5.39463 5.62672 0
M  V30 5953 N 549.853 -0.472356 1.50355 0
M  V30 5954 C 551.102 -1.2213 1.60522 0
M  V30 5955 C 551.415 -1.9312 0.310466 0
M  V30 5956 O 552.621 -2.69936 0.291029 0
M  V30 5957 C 551.077 -2.21909 2.83345 0
M  V30 5958 C 550.685 -1.56727 4.19691 0
M  V30 5959 C 552.429 -2.97453 3.02856 0
M  V30 5960 C 550.336 -2.54785 5.33703 0
M  V30 5961 H 549.266 -0.459543 0.597776 0
M  V30 5962 H 551.917 -0.491922 1.76783 0
M  V30 5963 H 550.299 -2.98133 2.60639 0
M  V30 5964 H 551.473 -0.863007 4.52646 0
M  V30 5965 H 549.788 -0.934685 4.05774 0
M  V30 5966 H 552.385 -3.70838 3.85205 0
M  V30 5967 H 552.728 -3.56764 2.14534 0
M  V30 5968 H 553.261 -2.28342 3.25737 0
M  V30 5969 H 550 -2.00214 6.24175 0
M  V30 5970 H 549.52 -3.23367 5.05167 0
M  V30 5971 H 551.199 -3.16639 5.64224 0
M  V30 5972 N 551.331 -1.39911 -0.725443 0
M  V30 5973 C 552.281 -1.35878 -1.83088 0
M  V30 5974 C 553.265 -0.237989 -1.5913 0
M  V30 5975 O 554.457 -0.476302 -1.70471 0
M  V30 5976 C 551.586 -1.21403 -3.21117 0
M  V30 5977 C 550.672 -2.38223 -3.50871 0
M  V30 5978 N 551.063 -3.63703 -3.51502 0
M  V30 5979 C 549.361 -2.31388 -3.81281 0
M  V30 5980 C 550.062 -4.4101 -3.79322 0
M  V30 5981 N 549.038 -3.7072 -3.97577 0
M  V30 5982 H 552.84 -2.3085 -1.81895 0
M  V30 5983 H 550.354 -1.33543 -0.924125 0
M  V30 5984 H 552.351 -1.16597 -4.00263 0
M  V30 5985 H 551.011 -0.273902 -3.23543 0
M  V30 5986 H 552.022 -3.96998 -3.32586 0
M  V30 5987 H 548.699 -1.45689 -3.91256 0
M  V30 5988 H 550.089 -5.49819 -3.86198 0
M  V30 5989 N 552.809 0.956637 -1.25245 0
M  V30 5990 C 553.739 2.07058 -1.07931 0
M  V30 5991 C 554.72 1.70096 0.0110361 0
M  V30 5992 O 555.905 1.93555 -0.158121 0
M  V30 5993 C 553.035 3.40272 -0.695124 0
M  V30 5994 C 551.989 3.91235 -1.73549 0
M  V30 5995 C 551.315 5.20921 -1.20604 0
M  V30 5996 C 552.615 4.17837 -3.13385 0
M  V30 5997 H 554.309 2.218 -2.01109 0
M  V30 5998 H 551.855 1.06581 -0.968326 0
M  V30 5999 H 553.808 4.1765 -0.560949 0
M  V30 6000 H 552.532 3.25462 0.272355 0
M  V30 6001 H 551.191 3.16025 -1.85807 0
M  V30 6002 H 550.839 5.02479 -0.228846 0
M  V30 6003 H 550.539 5.55987 -1.90136 0
M  V30 6004 H 552.063 6.00897 -1.08421 0
M  V30 6005 H 553.477 4.8588 -3.04292 0
M  V30 6006 H 551.874 4.64154 -3.80369 0
M  V30 6007 H 552.944 3.2419 -3.60595 0
M  V30 6008 N 554.287 1.06798 1.15896 0
M  V30 6009 C 555.234 0.683314 2.20453 0
M  V30 6010 C 556.204 -0.32255 1.62938 0
M  V30 6011 O 557.389 -0.210276 1.89638 0
M  V30 6012 C 554.529 0.0813266 3.45004 0
M  V30 6013 C 553.642 1.13799 4.16742 0
M  V30 6014 C 552.777 0.501598 5.28826 0
M  V30 6015 C 551.816 1.54144 5.92373 0
M  V30 6016 N 550.953 0.928038 6.9594 0
M  V30 6017 H 555.793 1.57932 2.52708 0
M  V30 6018 H 553.33 0.789544 1.24115 0
M  V30 6019 H 555.288 -0.285274 4.16224 0
M  V30 6020 H 553.918 -0.77806 3.13283 0
M  V30 6021 H 552.97 1.62223 3.44075 0
M  V30 6022 H 554.282 1.92664 4.60089 0
M  V30 6023 H 553.436 0.0823162 6.06644 0
M  V30 6024 H 552.175 -0.318883 4.86656 0
M  V30 6025 H 551.18 1.97056 5.13273 0
M  V30 6026 H 552.405 2.3641 6.36621 0
M  V30 6027 H 550.351 0.12836 6.55874 0
M  V30 6028 H 550.268 1.65401 7.37685 0
M  V30 6029 H 551.536 0.534071 7.77668 0
M  V30 6030 N 555.766 -1.3263 0.851289 0
M  V30 6031 C 557.043 -1.91982 0.374448 0
M  V30 6032 C 557.423 -1.77568 -1.14161 0
M  V30 6033 O 556.771 -1.1717 -1.96172 0
M  V30 6034 C 556.981 -3.38862 0.835088 0
M  V30 6035 C 558.329 -4.15999 0.850309 0
M  V30 6036 O 559.353 -3.47566 0.779505 0
M  V30 6037 O 558.212 -5.38189 0.949481 0
M  V30 6038 H 555.306 -0.819846 0.10854 0
M  V30 6039 H 557.852 -1.41422 0.937966 0
M  V30 6040 H 556.624 -3.43281 1.87814 0
M  V30 6041 H 556.247 -3.96821 0.248833 0
M  V30 6042 N 557.244 -0.608902 -1.45362 0
M  V30 6043 C 558.49 -0.113196 -2.03085 0
M  V30 6044 C 558.845 1.24288 -1.46868 0
M  V30 6045 O 558.138 1.80792 -0.634402 0
M  V30 6046 C 558.332 -0.0167296 -3.57396 0
M  V30 6047 C 558.161 -1.36191 -4.28581 0
M  V30 6048 C 556.931 -1.94295 -4.66452 0
M  V30 6049 C 559.129 -2.29097 -4.60455 0
M  V30 6050 N 557.111 -3.2228 -5.22503 0
M  V30 6051 C 558.482 -3.41681 -5.17353 0
M  V30 6052 C 560.537 -2.28453 -4.42395 0
M  V30 6053 C 559.24 -4.53789 -5.58093 0
M  V30 6054 C 561.266 -3.39608 -4.8417 0
M  V30 6055 C 560.628 -4.50915 -5.41161 0
M  V30 6056 H 556.727 -0.0848213 -0.777386 0
M  V30 6057 H 559.311 -0.807541 -1.77163 0
M  V30 6058 H 557.482 0.646839 -3.82976 0
M  V30 6059 H 559.214 0.485757 -4.01774 0
M  V30 6060 H 555.969 -1.47486 -4.5005 0
M  V30 6061 H 556.393 -3.87654 -5.55025 0
M  V30 6062 H 561.035 -1.43658 -3.97646 0
M  V30 6063 H 558.753 -5.39307 -6.01808 0
M  V30 6064 H 562.339 -3.40259 -4.71927 0
M  V30 6065 H 561.219 -5.35505 -5.72891 0
M  V30 6066 N 558.722 1.53707 -0.348139 0
M  V30 6067 C 559.632 2.28881 0.514857 0
M  V30 6068 C 560.648 1.34168 1.10793 0
M  V30 6069 O 561.824 1.6721 1.12262 0
M  V30 6070 C 558.889 3.05042 1.64774 0
M  V30 6071 C 557.95 4.15389 1.08398 0
M  V30 6072 C 557.183 4.87909 2.16287 0
M  V30 6073 O 557.406 4.60137 3.3709 0
M  V30 6074 O 556.34 5.74254 1.80323 0
M  V30 6075 H 560.166 3.03547 -0.0963699 0
M  V30 6076 H 557.751 1.48972 -0.113043 0
M  V30 6077 H 559.633 3.52656 2.30677 0
M  V30 6078 H 558.308 2.33228 2.24469 0
M  V30 6079 H 557.215 3.72068 0.389341 0
M  V30 6080 H 558.548 4.89318 0.531829 0
M  V30 6081 N 560.2 0.0768682 1.57412 0
M  V30 6082 C 561.448 -0.589918 1.93299 0
M  V30 6083 C 561.769 -1.69842 0.958049 0
M  V30 6084 O 561.039 -1.95899 0.00703261 0
M  V30 6085 H 559.619 -0.220901 0.713591 0
M  V30 6086 H 562.281 0.135917 1.94425 0
M  V30 6087 H 561.377 -1.01195 2.95239 0
M  V30 6088 N 561.678 -1.56367 -0.196722 0
M  V30 6089 C 562.626 -1.95304 -1.2633 0
M  V30 6090 C 563.62 -0.838252 -1.47206 0
M  V30 6091 O 564.826 -1.02325 -1.48087 0
M  V30 6092 H 561.201 -0.621013 -0.424083 0
M  V30 6093 H 563.172 -2.84254 -0.907879 0
M  V30 6094 C 561.921 -2.3074 -2.60104 0
M  V30 6095 H 561.244 -3.16047 -2.44856 0
M  V30 6096 H 562.684 -2.61849 -3.33484 0
M  V30 6097 C 561.143 -1.14143 -3.16975 0
M  V30 6098 O 561.673 -0.415602 -3.99544 0
M  V30 6099 N 559.879 -0.91867 -2.75697 0
M  V30 6100 H 559.426 -1.51065 -2.08656 0
M  V30 6101 H 559.384 -0.140321 -3.14087 0
M  V30 6102 N 563.156 0.464375 -1.50603 0
M  V30 6103 C 564.066 1.58723 -1.72754 0
M  V30 6104 C 565.082 1.62925 -0.610844 0
M  V30 6105 O 566.258 1.8067 -0.889963 0
M  V30 6106 C 563.323 2.94897 -1.82309 0
M  V30 6107 C 562.384 3.0103 -3.06071 0
M  V30 6108 C 561.617 4.30708 -3.1516 0
M  V30 6109 O 561.84 5.2159 -2.30868 0
M  V30 6110 O 560.774 4.42571 -4.0794 0
M  V30 6111 H 564.6 1.42954 -2.67951 0
M  V30 6112 H 562.185 0.644579 -1.3478 0
M  V30 6113 H 564.067 3.75764 -1.90735 0
M  V30 6114 H 562.742 3.10851 -0.902967 0
M  V30 6115 H 561.649 2.19217 -3.03142 0
M  V30 6116 H 562.982 2.90014 -3.97684 0
M  V30 6117 N 564.634 1.40294 0.718013 0
M  V30 6118 C 565.597 1.4012 1.81381 0
M  V30 6119 C 566.597 0.295405 1.58063 0
M  V30 6120 O 567.787 0.554187 1.6515 0
M  V30 6121 C 564.919 1.19056 3.19435 0
M  V30 6122 H 566.112 2.37645 1.82933 0
M  V30 6123 H 563.665 1.26107 0.923405 0
M  V30 6124 H 564.4 0.222809 3.23534 0
M  V30 6125 H 564.185 1.99152 3.37758 0
M  V30 6126 H 565.675 1.21716 3.99468 0
M  V30 6127 N 566.112 -0.949982 1.2575 0
M  V30 6128 C 567.342 -1.72721 1.13363 0
M  V30 6129 C 567.75 -1.86562 -0.314842 0
M  V30 6130 O 567.093 -1.36621 -1.22803 0
M  V30 6131 C 567.155 -3.15695 1.7198 0
M  V30 6132 C 566.819 -3.25268 3.21014 0
M  V30 6133 C 567.816 -3.09222 4.17945 0
M  V30 6134 C 565.501 -3.4894 3.61312 0
M  V30 6135 C 567.495 -3.16701 5.53154 0
M  V30 6136 C 565.182 -3.56055 4.96657 0
M  V30 6137 C 566.18 -3.3995 5.92387 0
M  V30 6138 O 565.868 -3.46757 7.25269 0
M  V30 6139 H 565.6 -0.547888 0.395973 0
M  V30 6140 H 568.154 -1.20009 1.66694 0
M  V30 6141 H 566.384 -3.69791 1.13101 0
M  V30 6142 H 568.073 -3.75295 1.54624 0
M  V30 6143 H 568.839 -2.90798 3.88151 0
M  V30 6144 H 564.718 -3.60534 2.87291 0
M  V30 6145 H 568.262 -3.04048 6.27854 0
M  V30 6146 H 564.159 -3.73997 5.26115 0
M  V30 6147 H 564.927 -3.63358 7.33426 0
M  V30 6148 N 567.59 -1.07411 -1.15328 0
M  V30 6149 C 568.815 -0.818856 -1.90551 0
M  V30 6150 C 569.24 0.622194 -1.77512 0
M  V30 6151 O 568.598 1.43484 -1.10824 0
M  V30 6152 C 568.646 -1.23267 -3.38877 0
M  V30 6153 O 567.75 -0.378345 -4.10661 0
M  V30 6154 H 567.091 -0.29827 -0.593238 0
M  V30 6155 H 569.621 -1.43289 -1.46046 0
M  V30 6156 H 569.631 -1.20912 -3.89672 0
M  V30 6157 H 568.306 -2.28226 -3.47686 0
M  V30 6158 H 566.883 -0.464437 -3.69996 0
M  V30 6159 N 569.068 1.32177 -0.85831 0
M  V30 6160 C 569.998 2.31282 -0.321041 0
M  V30 6161 C 570.979 1.59841 0.581786 0
M  V30 6162 O 572.164 1.87619 0.501262 0
M  V30 6163 C 569.294 3.4385 0.48832 0
M  V30 6164 C 568.248 4.26799 -0.320391 0
M  V30 6165 C 567.574 5.31164 0.613934 0
M  V30 6166 C 568.874 4.98829 -1.54813 0
M  V30 6167 H 570.568 2.76469 -1.14915 0
M  V30 6168 H 568.114 1.32916 -0.554028 0
M  V30 6169 H 570.067 4.12224 0.874626 0
M  V30 6170 H 568.791 2.97401 1.34983 0
M  V30 6171 H 567.45 3.60077 -0.688497 0
M  V30 6172 H 567.098 4.80967 1.47239 0
M  V30 6173 H 566.798 5.8755 0.0768097 0
M  V30 6174 H 568.322 6.024 0.997336 0
M  V30 6175 H 569.736 5.59864 -1.23392 0
M  V30 6176 H 568.133 5.64957 -2.02346 0
M  V30 6177 H 569.203 4.26483 -2.30739 0
M  V30 6178 N 570.547 0.616602 1.45037 0
M  V30 6179 C 571.777 0.121791 2.06241 0
M  V30 6180 C 572.185 -1.20289 1.46038 0
M  V30 6181 O 571.528 -1.7456 0.572242 0
M  V30 6182 C 571.59 -0.0827345 3.59405 0
M  V30 6183 C 571.254 1.16153 4.41993 0
M  V30 6184 C 572.251 2.08183 4.76399 0
M  V30 6185 C 569.936 1.39288 4.82601 0
M  V30 6186 C 571.93 3.21668 5.5028 0
M  V30 6187 C 569.617 2.53073 5.56235 0
M  V30 6188 C 570.615 3.44091 5.89992 0
M  V30 6189 O 570.303 4.55894 6.6213 0
M  V30 6190 H 570.035 0.0701667 0.672349 0
M  V30 6191 H 572.589 0.846877 1.87129 0
M  V30 6192 H 570.819 -0.862812 3.76952 0
M  V30 6193 H 572.508 -0.530273 4.02421 0
M  V30 6194 H 573.274 1.91538 4.45576 0
M  V30 6195 H 569.153 0.693396 4.55755 0
M  V30 6196 H 572.697 3.92733 5.76547 0
M  V30 6197 H 568.594 2.69667 5.86472 0
M  V30 6198 H 569.362 4.5469 6.80587 0
M  V30 6199 N 572.025 -1.5352 0.356285 0
M  V30 6200 C 572.935 -2.29151 -0.502712 0
M  V30 6201 C 573.951 -1.34753 -1.1008 0
M  V30 6202 O 575.127 -1.67803 -1.11374 0
M  V30 6203 C 572.192 -3.05911 -1.63154 0
M  V30 6204 C 571.253 -4.15958 -1.06194 0
M  V30 6205 C 570.486 -4.8905 -2.13696 0
M  V30 6206 O 570.709 -4.61919 -3.34645 0
M  V30 6207 O 569.643 -5.75202 -1.77275 0
M  V30 6208 H 573.469 -3.03492 0.112466 0
M  V30 6209 H 571.054 -1.4891 0.120942 0
M  V30 6210 H 572.936 -3.53874 -2.28804 0
M  V30 6211 H 571.611 -2.34415 -2.23229 0
M  V30 6212 H 570.518 -3.7227 -0.369603 0
M  V30 6213 H 571.851 -4.89593 -0.505872 0
M  V30 6214 N 573.503 -0.0852151 -1.57369 0
M  V30 6215 C 574.453 0.88767 -2.10011 0
M  V30 6216 C 575.437 1.25021 -1.01285 0
M  V30 6217 O 576.629 1.22694 -1.27574 0
M  V30 6218 C 573.758 2.15037 -2.67608 0
M  V30 6219 C 572.844 1.81371 -3.83361 0
M  V30 6220 N 573.235 1.18216 -4.91791 0
M  V30 6221 C 571.533 2.11041 -3.92909 0
M  V30 6222 C 572.234 1.02941 -5.72519 0
M  V30 6223 N 571.21 1.54351 -5.21226 0
M  V30 6224 H 575.012 0.395279 -2.9123 0
M  V30 6225 H 572.526 0.11829 -1.61969 0
M  V30 6226 H 574.523 2.85667 -3.03644 0
M  V30 6227 H 573.183 2.64851 -1.8784 0
M  V30 6228 H 574.194 0.850168 -5.10874 0
M  V30 6229 H 570.871 2.63138 -3.24136 0
M  V30 6230 H 572.261 0.536298 -6.69756 0
M  V30 6231 N 574.981 1.5647 0.188427 0
M  V30 6232 C 576.228 1.81013 0.907779 0
M  V30 6233 C 576.556 0.65953 1.82977 0
M  V30 6234 O 575.811 -0.354308 1.92466 0
M  V30 6235 C 576.11 3.11596 1.7505 0
M  V30 6236 C 575.776 4.40145 0.978922 0
M  V30 6237 C 574.438 4.75066 0.765912 0
M  V30 6238 C 576.79 5.19369 0.436498 0
M  V30 6239 C 574.118 5.867 -0.00089868 0
M  V30 6240 C 576.47 6.31805 -0.317136 0
M  V30 6241 C 575.134 6.65303 -0.541103 0
M  V30 6242 H 574.404 0.662373 0.33218 0
M  V30 6243 H 577.051 1.9071 0.173732 0
M  V30 6244 H 575.356 2.97165 2.55343 0
M  V30 6245 H 577.053 3.27793 2.30983 0
M  V30 6246 H 573.643 4.12745 1.15497 0
M  V30 6247 H 577.827 4.92799 0.588449 0
M  V30 6248 H 573.083 6.11122 -0.184329 0
M  V30 6249 H 577.257 6.92406 -0.744788 0
M  V30 6250 H 574.884 7.51646 -1.13718 0
M  V30 6251 N 576.459 -0.456382 1.50847 0
M  V30 6252 C 577.689 -1.22848 1.66108 0
M  V30 6253 C 578.097 -1.85936 0.349897 0
M  V30 6254 O 577.44 -1.70664 -0.679665 0
M  V30 6255 C 577.502 -2.36722 2.70561 0
M  V30 6256 C 577.166 -1.94154 4.13707 0
M  V30 6257 C 578.163 -1.4557 4.99105 0
M  V30 6258 C 575.848 -2.02426 4.59705 0
M  V30 6259 C 577.842 -1.0582 6.28555 0
M  V30 6260 C 575.529 -1.62287 5.89157 0
M  V30 6261 C 576.527 -1.14064 6.73408 0
M  V30 6262 O 576.215 -0.744873 8.00442 0
M  V30 6263 H 575.947 -0.377105 0.561042 0
M  V30 6264 H 578.501 -0.549431 1.97915 0
M  V30 6265 H 576.731 -3.07844 2.34027 0
M  V30 6266 H 578.42 -2.98646 2.74892 0
M  V30 6267 H 579.186 -1.38589 4.64777 0
M  V30 6268 H 575.065 -2.38908 3.94264 0
M  V30 6269 H 578.609 -0.6811 6.94267 0
M  V30 6270 H 574.506 -1.68932 6.23003 0
M  V30 6271 H 575.274 -0.87242 8.13837 0
M  V30 6272 N 577.937 -1.40673 -0.710563 0
M  V30 6273 C 578.867 -1.44095 -1.83736 0
M  V30 6274 C 579.848 -0.301286 -1.67411 0
M  V30 6275 O 581.033 -0.510618 -1.87367 0
M  V30 6276 C 578.163 -1.30773 -3.21738 0
M  V30 6277 C 577.117 -2.42395 -3.52745 0
M  V30 6278 C 576.443 -2.14147 -4.89944 0
M  V30 6279 C 577.743 -3.84738 -3.53234 0
M  V30 6280 H 579.437 -2.38396 -1.81129 0
M  V30 6281 H 576.983 -1.14746 -0.870017 0
M  V30 6282 H 578.936 -1.31783 -4.00264 0
M  V30 6283 H 577.66 -0.329507 -3.24934 0
M  V30 6284 H 576.319 -2.40643 -2.76562 0
M  V30 6285 H 575.967 -1.14703 -4.89747 0
M  V30 6286 H 575.667 -2.88934 -5.11655 0
M  V30 6287 H 577.191 -2.16848 -5.70797 0
M  V30 6288 H 578.605 -3.88286 -4.2179 0
M  V30 6289 H 577.002 -4.59085 -3.86473 0
M  V30 6290 H 578.072 -4.13962 -2.52514 0
M  V30 6291 N 579.415 0.9433 -1.26252 0
M  V30 6292 C 580.64 1.72898 -1.14547 0
M  V30 6293 C 581.065 1.85761 0.295743 0
M  V30 6294 O 580.423 1.3463 1.21427 0
M  V30 6295 C 580.471 3.11471 -1.8171 0
M  V30 6296 O 579.575 3.97336 -1.10445 0
M  V30 6297 H 578.916 0.530555 -0.399259 0
M  V30 6298 H 581.446 1.18159 -1.67032 0
M  V30 6299 H 581.456 3.61872 -1.88449 0
M  V30 6300 H 580.131 3.01425 -2.86558 0
M  V30 6301 H 578.708 3.55788 -1.11666 0
M  V30 6302 N 580.893 1.08022 1.14757 0
M  V30 6303 C 582.118 0.82895 1.90114 0
M  V30 6304 C 582.543 -0.612772 1.77839 0
M  V30 6305 O 581.901 -1.42895 1.11583 0
M  V30 6306 C 581.949 1.25062 3.38219 0
M  V30 6307 O 581.053 0.400119 4.10454 0
M  V30 6308 H 580.394 0.301412 0.591648 0
M  V30 6309 H 582.924 1.44062 1.45284 0
M  V30 6310 H 582.934 1.22977 3.89025 0
M  V30 6311 H 581.609 2.30067 3.46471 0
M  V30 6312 H 580.186 0.484052 3.69745 0
M  V30 6313 N 582.371 -1.3172 0.865308 0
M  V30 6314 C 583.281 -2.32394 0.320935 0
M  V30 6315 C 584.297 -1.64511 -0.566746 0
M  V30 6316 O 585.473 -1.95969 -0.464575 0
M  V30 6317 C 582.538 -3.43462 -0.472701 0
M  V30 6318 C 581.599 -4.27015 0.442385 0
M  V30 6319 C 580.832 -5.32779 -0.313469 0
M  V30 6320 O 581.055 -5.49158 -1.54214 0
M  V30 6321 O 579.989 -6.01015 0.326257 0
M  V30 6322 H 583.815 -2.80868 1.15528 0
M  V30 6323 H 581.4 -1.35535 0.628545 0
M  V30 6324 H 583.282 -4.11172 -0.922781 0
M  V30 6325 H 581.957 -2.97159 -1.28367 0
M  V30 6326 H 580.864 -3.62075 0.940866 0
M  V30 6327 H 582.197 -4.76871 1.21882 0
M  V30 6328 N 583.85 -0.624285 -1.44708 0
M  V30 6329 C 584.76 0.0861083 -2.34442 0
M  V30 6330 C 585.776 0.84291 -1.5222 0
M  V30 6331 O 586.952 0.796723 -1.84971 0
M  V30 6332 C 584.017 1.05999 -3.30099 0
M  V30 6333 C 583.077 0.303316 -4.28227 0
M  V30 6334 C 582.311 1.23081 -5.19314 0
M  V30 6335 O 582.534 2.46929 -5.14181 0
M  V30 6336 O 581.468 0.71883 -5.97592 0
M  V30 6337 H 585.293 -0.651756 -2.96624 0
M  V30 6338 H 582.879 -0.384493 -1.44368 0
M  V30 6339 H 584.76 1.62046 -3.88997 0
M  V30 6340 H 583.436 1.77859 -2.70459 0
M  V30 6341 H 582.343 -0.300033 -3.72895 0
M  V30 6342 H 583.676 -0.375123 -4.90768 0
M  V30 6343 N 585.328 1.53329 -0.364422 0
M  V30 6344 C 586.258 2.28627 0.474543 0
M  V30 6345 C 587.239 1.31009 1.08492 0
M  V30 6346 O 588.424 1.59878 1.10239 0
M  V30 6347 C 585.554 3.07465 1.61501 0
M  V30 6348 C 584.508 4.1276 1.13194 0
M  V30 6349 C 583.834 4.79674 2.36255 0
M  V30 6350 C 585.134 5.21847 0.217507 0
M  V30 6351 H 586.828 2.99005 -0.153656 0
M  V30 6352 H 584.374 1.43803 -0.0753406 0
M  V30 6353 H 586.327 3.58889 2.20855 0
M  V30 6354 H 585.051 2.34775 2.27042 0
M  V30 6355 H 583.71 3.62281 0.56109 0
M  V30 6356 H 583.358 4.03557 3.00251 0
M  V30 6357 H 583.058 5.50827 2.04606 0
M  V30 6358 H 584.582 5.33892 2.96297 0
M  V30 6359 H 585.996 5.6878 0.718493 0
M  V30 6360 H 584.393 6.00099 -0.00806408 0
M  V30 6361 H 585.463 4.7921 -0.740653 0
M  V30 6362 N 586.806 0.0935595 1.57322 0
M  V30 6363 C 587.754 -0.883457 2.15169 0
M  V30 6364 C 588.748 -1.29324 1.09415 0
M  V30 6365 O 589.954 -1.26795 1.27762 0
M  V30 6366 H 586.329 -0.302923 0.688289 0
M  V30 6367 H 588.3 -0.370845 2.96087 0
M  V30 6368 C 587.049 -2.13345 2.74552 0
M  V30 6369 H 586.372 -1.82702 3.55612 0
M  V30 6370 H 587.812 -2.7977 3.18598 0
M  V30 6371 C 586.271 -2.90646 1.70371 0
M  V30 6372 O 586.801 -3.85133 1.14173 0
M  V30 6373 N 585.007 -2.54157 1.40899 0
M  V30 6374 H 584.554 -1.77391 1.86789 0
M  V30 6375 H 584.512 -3.06178 0.714301 0
M  V30 6376 N 588.284 -1.56567 -0.180126 0
M  V30 6377 C 589.514 -1.85349 -0.912647 0
M  V30 6378 C 589.922 -0.675795 -1.76719 0
M  V30 6379 O 589.265 0.3645 -1.80047 0
M  V30 6380 C 589.327 -3.08431 -1.84691 0
M  V30 6381 C 588.991 -4.41694 -1.17284 0
M  V30 6382 C 589.988 -5.17062 -0.542532 0
M  V30 6383 C 587.673 -4.8843 -1.17223 0
M  V30 6384 C 589.667 -6.37351 0.0793953 0
M  V30 6385 C 587.354 -6.08652 -0.54647 0
M  V30 6386 C 588.352 -6.82955 0.0782458 0
M  V30 6387 O 588.04 -8.00897 0.694158 0
M  V30 6388 H 587.772 -0.619286 -0.271036 0
M  V30 6389 H 590.326 -2.0454 -0.187768 0
M  V30 6390 H 588.556 -2.85163 -2.61188 0
M  V30 6391 H 590.245 -3.23733 -2.44851 0
M  V30 6392 H 591.011 -4.8204 -0.535045 0
M  V30 6393 H 586.89 -4.30542 -1.64788 0
M  V30 6394 H 590.434 -6.95287 0.567612 0
M  V30 6395 H 586.331 -6.4314 -0.55151 0
M  V30 6396 H 587.099 -8.16352 0.592537 0
M  V30 6397 N 589.762 0.448376 -1.51087 0
M  V30 6398 C 591.178 0.783984 -1.39017 0
M  V30 6399 C 591.378 1.96087 -0.463904 0
M  V30 6400 O 590.434 2.52357 0.0850534 0
M  V30 6401 C 591.747 1.07471 -2.80839 0
M  V30 6402 C 593.295 1.17981 -2.89913 0
M  V30 6403 C 593.77 1.50354 -4.32617 0
M  V30 6404 N 595.261 1.57301 -4.35673 0
M  V30 6405 C 595.996 1.839 -5.4311 0
M  V30 6406 N 595.492 2.08365 -6.60724 0
M  V30 6407 N 597.285 1.8559 -5.30578 0
M  V30 6408 H 589.436 -0.326881 -2.0987 0
M  V30 6409 H 591.699 -0.0838006 -0.944289 0
M  V30 6410 H 591.405 0.282768 -3.50561 0
M  V30 6411 H 591.279 2.00519 -3.19487 0
M  V30 6412 H 593.666 1.9624 -2.20395 0
M  V30 6413 H 593.747 0.228603 -2.54776 0
M  V30 6414 H 593.391 0.726273 -5.0268 0
M  V30 6415 H 593.321 2.46663 -4.65258 0
M  V30 6416 H 595.812 1.40342 -3.50874 0
M  V30 6417 H 596.125 2.27999 -7.38401 0
M  V30 6418 H 594.47 2.0571 -6.63859 0
M  V30 6419 H 597.661 1.65989 -4.37682 0
M  V30 6420 H 597.834 2.05983 -6.1439 0
M  V30 6421 N 591.24 1.41047 0.703093 0
M  V30 6422 C 592.489 1.39301 1.4587 0
M  V30 6423 C 592.802 0.00267077 1.956 0
M  V30 6424 O 594.008 -0.137414 2.71152 0
M  V30 6425 C 592.464 2.44891 2.63735 0
M  V30 6426 C 592.072 3.89796 2.20824 0
M  V30 6427 C 593.816 2.5227 3.41409 0
M  V30 6428 C 591.723 4.86955 3.35602 0
M  V30 6429 H 590.653 0.518005 0.547893 0
M  V30 6430 H 593.304 1.66839 0.764009 0
M  V30 6431 H 591.686 2.10472 3.35436 0
M  V30 6432 H 592.86 4.33424 1.56461 0
M  V30 6433 H 591.175 3.86008 1.56163 0
M  V30 6434 H 593.772 3.22044 4.26839 0
M  V30 6435 H 594.115 1.55714 3.86081 0
M  V30 6436 H 594.648 2.85742 2.7676 0
M  V30 6437 H 591.387 5.84888 2.9595 0
M  V30 6438 H 590.907 4.47982 3.98839 0
M  V30 6439 H 592.586 5.07361 4.01489 0
M  V30 6440 N 592.718 -0.936591 1.26751 0
M  V30 6441 C 593.668 -2.0219 1.05371 0
M  V30 6442 C 594.652 -1.60893 -0.0154112 0
M  V30 6443 O 595.844 -1.75843 0.202085 0
M  V30 6444 C 592.973 -3.36222 0.693541 0
M  V30 6445 C 592.059 -3.8399 1.80035 0
M  V30 6446 N 592.45 -4.0436 3.03852 0
M  V30 6447 C 590.748 -4.12945 1.685 0
M  V30 6448 C 591.449 -4.44 3.75818 0
M  V30 6449 N 590.425 -4.50966 3.03531 0
M  V30 6450 H 594.227 -2.15958 1.99347 0
M  V30 6451 H 591.741 -1.12277 1.17335 0
M  V30 6452 H 593.738 -4.13625 0.521513 0
M  V30 6453 H 592.398 -3.23821 -0.238693 0
M  V30 6454 H 593.409 -3.9092 3.39709 0
M  V30 6455 H 590.086 -4.09308 0.822986 0
M  V30 6456 H 591.476 -4.67914 4.82189 0
M  V30 6457 N 594.196 -1.08629 -1.14182 0
M  V30 6458 C 595.126 -0.740003 -2.21464 0
M  V30 6459 C 596.107 0.278591 -1.67803 0
M  V30 6460 O 597.292 0.148461 -1.93632 0
M  V30 6461 C 594.422 -0.150952 -3.46972 0
M  V30 6462 C 593.376 -1.09815 -4.13672 0
M  V30 6463 C 592.702 -0.3712 -5.3341 0
M  V30 6464 C 594.002 -2.43722 -4.61949 0
M  V30 6465 H 595.696 -1.63697 -2.50686 0
M  V30 6466 H 593.242 -0.788526 -1.20492 0
M  V30 6467 H 595.195 0.103325 -4.21273 0
M  V30 6468 H 593.919 0.781164 -3.1712 0
M  V30 6469 H 592.578 -1.33756 -3.41328 0
M  V30 6470 H 592.226 0.564792 -4.99819 0
M  V30 6471 H 591.926 -1.00267 -5.78982 0
M  V30 6472 H 593.45 -0.12503 -6.10472 0
M  V30 6473 H 594.864 -2.24034 -5.27714 0
M  V30 6474 H 593.261 -3.02582 -5.18232 0
M  V30 6475 H 594.331 -3.05082 -3.76899 0
M  V30 6476 N 595.674 1.31259 -0.872281 0
M  V30 6477 C 596.621 2.28459 -0.327857 0
M  V30 6478 C 597.591 1.55831 0.574957 0
M  V30 6479 O 598.776 1.83965 0.506101 0
M  V30 6480 C 595.916 3.41985 0.462644 0
M  V30 6481 C 595.029 4.29458 -0.467949 0
M  V30 6482 C 594.164 5.30131 0.336903 0
M  V30 6483 C 593.203 6.0925 -0.58997 0
M  V30 6484 N 592.34 7.01872 0.178775 0
M  V30 6485 H 597.18 2.74414 -1.16193 0
M  V30 6486 H 594.717 1.34994 -0.584376 0
M  V30 6487 H 596.675 4.06547 0.936759 0
M  V30 6488 H 595.305 2.97134 1.2614 0
M  V30 6489 H 594.357 3.65318 -1.06052 0
M  V30 6490 H 595.669 4.84677 -1.17856 0
M  V30 6491 H 594.823 6.0038 0.873427 0
M  V30 6492 H 593.562 4.75573 1.08079 0
M  V30 6493 H 592.567 5.37889 -1.13823 0
M  V30 6494 H 593.792 6.65894 -1.33275 0
M  V30 6495 H 591.738 6.49721 0.905435 0
M  V30 6496 H 591.655 7.54522 -0.472452 0
M  V30 6497 H 592.923 7.76382 0.696454 0
M  V30 6498 N 597.152 0.631951 1.44375 0
M  V30 6499 C 598.4 0.136497 2.01639 0
M  V30 6500 C 598.721 -1.24637 1.49969 0
M  V30 6501 O 597.991 -1.82827 0.70363 0
M  V30 6502 H 596.571 0.0474703 0.74549 0
M  V30 6503 H 599.233 0.818837 1.76865 0
M  V30 6504 H 598.329 0.104817 3.11924 0
M  V30 6505 N 598.631 -1.53133 0.372548 0
M  V30 6506 C 599.561 -2.28876 -0.462412 0
M  V30 6507 C 600.542 -1.31583 -1.07796 0
M  V30 6508 O 601.727 -1.60461 -1.09389 0
M  V30 6509 C 598.857 -3.08317 -1.59868 0
M  V30 6510 C 597.811 -4.13355 -1.11003 0
M  V30 6511 C 597.137 -4.8092 -2.33708 0
M  V30 6512 C 598.437 -5.21955 -0.18983 0
M  V30 6513 H 600.131 -2.9892 0.169511 0
M  V30 6514 H 597.677 -1.43761 0.0829658 0
M  V30 6515 H 599.63 -3.60055 -2.18949 0
M  V30 6516 H 598.354 -2.35976 -2.25794 0
M  V30 6517 H 597.013 -3.62573 -0.541869 0
M  V30 6518 H 596.661 -4.05144 -2.98106 0
M  V30 6519 H 596.361 -5.51904 -2.01682 0
M  V30 6520 H 597.885 -5.35455 -2.93462 0
M  V30 6521 H 599.299 -5.69153 -0.688319 0
M  V30 6522 H 597.696 -6.00087 0.0398887 0
M  V30 6523 H 598.766 -4.78811 0.766057 0
M  V30 6524 N 600.109 -0.101901 -1.5727 0
M  V30 6525 C 601.337 0.568392 -1.98939 0
M  V30 6526 C 601.752 1.61301 -0.981194 0
M  V30 6527 O 601.109 1.82478 0.0282869 0
M  V30 6528 C 601.16 1.20997 -3.40649 0
M  V30 6529 O 600.881 0.207129 -4.3761 0
M  V30 6530 C 602.382 1.96523 -3.97358 0
M  V30 6531 H 599.602 0.15186 -0.65359 0
M  V30 6532 H 602.146 -0.183198 -2.03678 0
M  V30 6533 H 600.301 1.91245 -3.36904 0
M  V30 6534 H 600.715 0.671071 -5.20189 0
M  V30 6535 H 602.189 2.36764 -4.98645 0
M  V30 6536 H 602.666 2.83376 -3.35552 0
M  V30 6537 H 603.272 1.31076 -4.04598 0
M  V30 6538 N 601.587 1.56661 0.17182 0
M  V30 6539 C 602.835 1.81606 0.886774 0
M  V30 6540 C 603.156 0.678818 1.82803 0
M  V30 6541 O 602.426 -0.301354 1.93568 0
M  V30 6542 H 601.006 0.669934 0.330451 0
M  V30 6543 H 603.668 1.94142 0.171757 0
M  V30 6544 H 602.764 2.75634 1.46398 0
M  V30 6545 N 603.065 -0.440357 1.51323 0
M  V30 6546 C 604.293 -1.21255 1.67645 0
M  V30 6547 C 604.708 -1.85088 0.37252 0
M  V30 6548 O 604.065 -1.70582 -0.648683 0
M  V30 6549 C 604.116 -2.29881 2.78993 0
M  V30 6550 O 603.837 -1.68659 4.04334 0
M  V30 6551 C 605.338 -3.20214 3.06558 0
M  V30 6552 H 602.558 -0.36558 0.562666 0
M  V30 6553 H 605.102 -0.52214 1.97722 0
M  V30 6554 H 603.257 -2.94643 2.51524 0
M  V30 6555 H 603.671 -2.40426 4.6615 0
M  V30 6556 H 605.145 -3.92575 3.88058 0
M  V30 6557 H 605.622 -3.80794 2.18844 0
M  V30 6558 H 606.228 -2.61156 3.35675 0
M  V30 6559 N 604.543 -1.41418 -0.695603 0
M  V30 6560 C 605.506 -1.42988 -1.79129 0
M  V30 6561 C 606.506 -0.320514 -1.57573 0
M  V30 6562 O 607.696 -0.58039 -1.64247 0
M  V30 6563 C 604.828 -1.24122 -3.175 0
M  V30 6564 H 606.021 -2.40526 -1.7913 0
M  V30 6565 H 603.574 -1.2756 -0.903225 0
M  V30 6566 H 604.309 -0.274253 -3.23138 0
M  V30 6567 H 604.094 -2.045 -3.34547 0
M  V30 6568 H 605.584 -1.28056 -3.97481 0
M  V30 6569 N 606.021 0.929856 -1.27246 0
M  V30 6570 C 607.269 1.674 -1.13233 0
M  V30 6571 C 607.59 1.92311 0.322744 0
M  V30 6572 O 606.86 1.52784 1.22612 0
M  V30 6573 H 605.44 0.620411 -0.416052 0
M  V30 6574 H 608.102 1.11663 -1.59741 0
M  V30 6575 H 607.198 2.64308 -1.65975 0
M  V30 6576 N 607.499 1.09233 1.13605 0
M  V30 6577 C 608.446 0.729921 2.18954 0
M  V30 6578 C 609.416 -0.287916 1.63586 0
M  V30 6579 O 610.601 -0.170003 1.90041 0
M  V30 6580 C 607.741 0.154489 3.44754 0
M  V30 6581 C 606.854 1.22613 4.14234 0
M  V30 6582 C 605.989 0.613657 5.27644 0
M  V30 6583 C 605.028 1.66674 5.8897 0
M  V30 6584 N 604.165 1.07545 6.93814 0
M  V30 6585 H 609.005 1.63257 2.49302 0
M  V30 6586 H 606.542 0.815693 1.22413 0
M  V30 6587 H 608.5 -0.196923 4.16735 0
M  V30 6588 H 607.13 -0.711433 3.14863 0
M  V30 6589 H 606.182 1.69485 3.40557 0
M  V30 6590 H 607.494 2.0238 4.55899 0
M  V30 6591 H 606.648 0.210976 6.06333 0
M  V30 6592 H 605.387 -0.215584 4.87223 0
M  V30 6593 H 604.392 2.07899 5.08978 0
M  V30 6594 H 605.617 2.49861 6.31464 0
M  V30 6595 H 603.563 0.267451 6.55455 0
M  V30 6596 H 603.48 1.81011 7.3401 0
M  V30 6597 H 604.748 0.698906 7.7636 0
M  V30 6598 N 608.977 -1.30795 0.87923 0
M  V30 6599 C 610.226 -1.95636 0.490875 0
M  V30 6600 C 610.539 -1.70214 -0.963674 0
M  V30 6601 O 611.745 -2.28991 -1.45861 0
M  V30 6602 C 610.201 -3.50271 0.826929 0
M  V30 6603 C 609.809 -3.84521 2.29886 0
M  V30 6604 C 611.553 -4.21456 0.507494 0
M  V30 6605 C 609.46 -5.32309 2.57685 0
M  V30 6606 H 608.39 -0.732238 0.179841 0
M  V30 6607 H 611.041 -1.48829 1.07341 0
M  V30 6608 H 609.423 -3.9562 0.173542 0
M  V30 6609 H 610.597 -3.50102 2.99609 0
M  V30 6610 H 608.912 -3.26425 2.58526 0
M  V30 6611 H 611.509 -5.30199 0.692293 0
M  V30 6612 H 611.852 -4.12614 -0.552718 0
M  V30 6613 H 612.385 -3.81772 1.11782 0
M  V30 6614 H 609.124 -5.46195 3.62424 0
M  V30 6615 H 608.644 -5.68048 1.92566 0
M  V30 6616 H 610.323 -5.99678 2.42889 0
M  V30 6617 N 610.455 -0.639598 -1.44038 0
M  V30 6618 C 611.68 -0.153117 -2.06834 0
M  V30 6619 C 612.105 1.16676 -1.47541 0
M  V30 6620 O 611.463 1.71769 -0.580093 0
M  V30 6621 C 611.511 -0.0609169 -3.60549 0
M  V30 6622 O 610.615 0.98071 -4.00569 0
M  V30 6623 H 609.956 -0.0886402 -0.658057 0
M  V30 6624 H 612.486 -0.878674 -1.84771 0
M  V30 6625 H 612.496 0.126892 -4.07803 0
M  V30 6626 H 611.171 -1.0245 -4.03084 0
M  V30 6627 H 609.748 0.766789 -3.64931 0
M  V30 6628 N 611.933 1.52934 -0.380664 0
M  V30 6629 C 613.158 2.06363 0.207157 0
M  V30 6630 C 613.583 1.25122 1.4045 0
M  V30 6631 O 612.941 0.274062 1.79217 0
M  V30 6632 C 612.989 3.56162 0.563996 0
M  V30 6633 O 612.093 3.77552 1.65917 0
M  V30 6634 H 611.434 0.663468 0.0265859 0
M  V30 6635 H 613.964 1.9719 -0.545635 0
M  V30 6636 H 613.974 3.99453 0.830752 0
M  V30 6637 H 612.649 4.14732 -0.311427 0
M  V30 6638 H 611.226 3.46154 1.3868 0
M  V30 6639 N 613.412 0.11024 1.57214 0
M  V30 6640 C 614.661 -0.549638 1.94067 0
M  V30 6641 C 614.974 -1.68388 0.995234 0
M  V30 6642 O 616.18 -2.40593 1.25807 0
M  V30 6643 C 614.636 -1.02912 3.44873 0
M  V30 6644 C 614.244 0.0761861 4.47935 0
M  V30 6645 C 615.988 -1.66087 3.9066 0
M  V30 6646 C 613.895 -0.419502 5.8991 0
M  V30 6647 H 612.825 -0.209092 0.724428 0
M  V30 6648 H 615.476 0.188683 1.82527 0
M  V30 6649 H 613.858 -1.82159 3.51616 0
M  V30 6650 H 615.032 0.852185 4.52851 0
M  V30 6651 H 613.347 0.614052 4.11847 0
M  V30 6652 H 615.944 -2.04272 4.94143 0
M  V30 6653 H 616.287 -2.53591 3.30148 0
M  V30 6654 H 616.82 -0.933959 3.86681 0
M  V30 6655 H 613.559 0.419277 6.54158 0
M  V30 6656 H 613.079 -1.16217 5.88433 0
M  V30 6657 H 614.758 -0.883577 6.40938 0
M  V30 6658 N 614.89 -1.56749 -0.16351 0
M  V30 6659 C 616.115 -1.86938 -0.898264 0
M  V30 6660 C 616.54 -0.697456 -1.74692 0
M  V30 6661 O 615.898 0.353327 -1.77824 0
M  V30 6662 C 615.946 -3.15599 -1.74441 0
M  V30 6663 O 615.05 -2.98371 -2.8469 0
M  V30 6664 H 614.391 -0.614659 -0.251178 0
M  V30 6665 H 616.921 -2.03979 -0.159298 0
M  V30 6666 H 616.931 -3.47202 -2.14277 0
M  V30 6667 H 615.606 -4.00505 -1.1211 0
M  V30 6668 H 614.183 -2.7814 -2.4838 0
M  V30 6669 N 616.368 0.432326 -1.51554 0
M  V30 6670 C 617.3 1.54357 -1.6943 0
M  V30 6671 C 618.313 1.52311 -0.574897 0
M  V30 6672 O 619.502 1.56997 -0.849369 0
M  V30 6673 C 616.602 2.93273 -1.69836 0
M  V30 6674 C 615.775 3.19768 -2.98442 0
M  V30 6675 C 614.834 4.38433 -2.90969 0
M  V30 6676 O 613.86 4.36842 -3.64908 0
M  V30 6677 N 615.062 5.42276 -2.07163 0
M  V30 6678 H 617.827 1.39426 -2.65293 0
M  V30 6679 H 615.388 0.621331 -1.49503 0
M  V30 6680 H 617.38 3.70687 -1.62399 0
M  V30 6681 H 615.95 3.01777 -0.815456 0
M  V30 6682 H 615.17 2.30607 -3.19709 0
M  V30 6683 H 616.458 3.343 -3.83563 0
M  V30 6684 H 615.856 5.46407 -1.46477 0
M  V30 6685 H 614.413 6.18524 -2.05601 0
M  V30 6686 N 617.846 1.41785 0.688094 0
M  V30 6687 C 619.257 1.3701 1.26828 0
M  V30 6688 C 619.608 0.056835 1.96118 0
M  V30 6689 O 618.733 -0.84475 1.99231 0
M  V30 6690 C 619.328 2.48168 2.30648 0
M  V30 6691 C 617.887 2.46766 2.84224 0
M  V30 6692 C 617.034 2.27633 1.58361 0
M  V30 6693 H 619.985 1.51192 0.482351 0
M  V30 6694 H 620.006 2.17655 3.121 0
M  V30 6695 H 619.518 3.43735 1.80188 0
M  V30 6696 H 617.619 1.54978 3.3884 0
M  V30 6697 H 617.732 3.43342 3.34145 0
M  V30 6698 H 616.096 1.75648 1.84445 0
M  V30 6699 H 616.879 3.25238 1.09887 0
M  V30 6700 N 619.324 -0.923095 1.27737 0
M  V30 6701 C 620.572 -1.66797 1.14119 0
M  V30 6702 C 620.893 -1.92479 -0.312541 0
M  V30 6703 O 620.163 -1.53432 -1.218 0
M  V30 6704 H 618.743 -0.618196 0.419336 0
M  V30 6705 H 621.405 -1.10815 1.60331 0
M  V30 6706 H 620.501 -2.63424 1.67374 0
M  V30 6707 N 620.802 -1.09834 -1.13024 0
M  V30 6708 C 621.75 -0.736283 -2.20639 0
M  V30 6709 C 622.744 0.264725 -1.67319 0
M  V30 6710 O 623.95 0.125745 -1.7956 0
M  V30 6711 H 620.325 -0.220136 -0.719058 0
M  V30 6712 H 622.296 -1.65295 -2.48436 0
M  V30 6713 C 621.045 -0.177544 -3.47246 0
M  V30 6714 H 620.368 -0.939009 -3.88616 0
M  V30 6715 H 621.808 0.0378007 -4.23983 0
M  V30 6716 C 620.267 1.08824 -3.1884 0
M  V30 6717 O 620.797 2.1708 -3.37993 0
M  V30 6718 N 619.003 1.00442 -2.7269 0
M  V30 6719 H 618.55 0.123383 -2.57304 0
M  V30 6720 H 618.508 1.85206 -2.5406 0
M  V30 6721 N 622.28 1.30327 -0.886154 0
M  V30 6722 C 623.557 1.90922 -0.425217 0
M  V30 6723 C 623.937 1.80533 1.09413 0
M  V30 6724 O 623.285 1.2233 1.92996 0
M  V30 6725 C 623.495 3.36529 -0.924638 0
M  V30 6726 C 624.843 4.13598 -0.960305 0
M  V30 6727 O 625.867 3.45377 -0.871382 0
M  V30 6728 O 624.726 5.35482 -1.09184 0
M  V30 6729 H 621.82 0.81668 -0.130238 0
M  V30 6730 H 624.366 1.38886 -0.975132 0
M  V30 6731 H 623.138 3.38181 -1.96849 0
M  V30 6732 H 622.761 3.96021 -0.353955 0
M  V30 6733 N 623.758 0.647228 1.43697 0
M  V30 6734 C 625.005 0.158188 2.01881 0
M  V30 6735 C 625.333 -1.22573 1.51017 0
M  V30 6736 O 624.588 -1.83086 0.69122 0
M  V30 6737 C 624.887 0.111481 3.57226 0
M  V30 6738 C 624.553 1.43633 4.27411 0
M  V30 6739 C 623.215 1.79915 4.463 0
M  V30 6740 C 625.567 2.31011 4.67208 0
M  V30 6741 C 622.895 3.03251 5.02251 0
M  V30 6742 C 625.247 3.53633 5.24525 0
M  V30 6743 C 623.911 3.90118 5.41631 0
M  V30 6744 H 623.181 0.0578851 0.738736 0
M  V30 6745 H 625.828 0.836746 1.72252 0
M  V30 6746 H 624.133 -0.650507 3.86362 0
M  V30 6747 H 625.83 -0.283682 3.99995 0
M  V30 6748 H 622.42 1.14403 4.1305 0
M  V30 6749 H 626.604 2.04272 4.52313 0
M  V30 6750 H 621.86 3.31575 5.13681 0
M  V30 6751 H 626.034 4.21561 5.5431 0
M  V30 6752 H 623.661 4.85768 5.84751 0
M  V30 6753 N 625.236 -1.5273 0.388769 0
M  V30 6754 C 626.461 -2.0647 -0.19621 0
M  V30 6755 C 626.886 -1.25865 -1.39784 0
M  V30 6756 O 626.244 -0.283562 -1.79069 0
M  V30 6757 C 626.292 -3.56456 -0.5451 0
M  V30 6758 O 625.396 -3.78426 -1.63912 0
M  V30 6759 H 624.737 -0.663599 -0.023067 0
M  V30 6760 H 627.267 -1.96898 0.556084 0
M  V30 6761 H 627.277 -3.99888 -0.809557 0
M  V30 6762 H 625.952 -4.14561 0.333417 0
M  V30 6763 H 624.529 -3.46884 -1.36842 0
M  V30 6764 N 626.714 -0.118576 -1.57153 0
M  V30 6765 C 627.942 0.54726 -1.99531 0
M  V30 6766 C 628.357 1.60251 -0.998246 0
M  V30 6767 O 627.714 1.82498 0.00893106 0
M  V30 6768 C 627.765 1.17378 -3.41913 0
M  V30 6769 O 627.486 0.160703 -4.37805 0
M  V30 6770 C 628.987 1.92297 -3.9942 0
M  V30 6771 H 626.207 0.144919 -0.655164 0
M  V30 6772 H 628.751 -0.20479 -2.03472 0
M  V30 6773 H 626.906 1.87661 -3.38913 0
M  V30 6774 H 627.32 0.61586 -5.20872 0
M  V30 6775 H 628.794 2.31462 -5.01128 0
M  V30 6776 H 629.271 2.79801 -3.38538 0
M  V30 6777 H 629.877 1.26777 -4.05965 0
M  V30 6778 N 628.193 1.56834 0.155195 0
M  V30 6779 C 629.14 1.97646 1.19184 0
M  V30 6780 C 630.11 0.842788 1.4313 0
M  V30 6781 O 631.295 1.1042 1.55602 0
M  V30 6782 C 628.435 2.35527 2.52232 0
M  V30 6783 C 627.548 3.62147 2.35529 0
M  V30 6784 C 626.683 3.89167 3.61555 0
M  V30 6785 C 625.722 5.09084 3.39853 0
M  V30 6786 N 624.859 5.32156 4.5799 0
M  V30 6787 H 629.699 2.8601 0.836802 0
M  V30 6788 H 627.236 1.41507 0.401758 0
M  V30 6789 H 629.194 2.55516 3.29799 0
M  V30 6790 H 627.824 1.50253 2.85699 0
M  V30 6791 H 626.876 3.4998 1.49057 0
M  V30 6792 H 628.188 4.49871 2.15448 0
M  V30 6793 H 627.342 4.09611 4.47553 0
M  V30 6794 H 626.081 2.9985 3.84632 0
M  V30 6795 H 625.086 4.88522 2.52243 0
M  V30 6796 H 626.311 5.99947 3.18183 0
M  V30 6797 H 624.257 4.45791 4.81255 0
M  V30 6798 H 624.174 6.14133 4.40882 0
M  V30 6799 H 625.442 5.57091 5.45225 0
M  V30 6800 N 629.671 -0.424282 1.51781 0
M  V30 6801 C 630.948 -1.18464 1.55646 0
M  V30 6802 C 631.328 -2.08529 0.328438 0
M  V30 6803 O 630.676 -2.17969 -0.685693 0
M  V30 6804 C 630.886 -1.97514 2.87731 0
M  V30 6805 C 632.234 -2.54106 3.40169 0
M  V30 6806 O 633.258 -2.07711 2.89369 0
M  V30 6807 O 632.117 -3.38759 4.28841 0
M  V30 6808 H 629.211 -0.540055 0.626314 0
M  V30 6809 H 631.757 -0.432291 1.64102 0
M  V30 6810 H 630.529 -1.31444 3.68562 0
M  V30 6811 H 630.152 -2.79787 2.82498 0
M  V30 6812 N 631.149 -1.42148 -0.680565 0
M  V30 6813 C 632.397 -1.42029 -1.43779 0
M  V30 6814 C 632.718 -0.0356347 -1.94967 0
M  V30 6815 O 631.988 0.924936 -1.7269 0
M  V30 6816 H 630.568 -0.522835 -0.533529 0
M  V30 6817 H 633.23 -1.7752 -0.804538 0
M  V30 6818 H 632.326 -2.11658 -2.29363 0
M  V30 6819 N 632.627 0.916307 -1.28225 0
M  V30 6820 C 633.904 1.64429 -1.05936 0
M  V30 6821 C 634.284 2.07234 0.402139 0
M  V30 6822 O 633.632 1.81535 1.3877 0
M  V30 6823 C 633.842 2.83773 -2.03159 0
M  V30 6824 C 635.19 3.54852 -2.33164 0
M  V30 6825 O 636.214 2.93918 -2.01223 0
M  V30 6826 O 635.073 4.64663 -2.87664 0
M  V30 6827 H 632.167 0.721221 -0.404683 0
M  V30 6828 H 634.713 0.965838 -1.39534 0
M  V30 6829 H 633.485 2.49217 -3.01673 0
M  V30 6830 H 633.108 3.59333 -1.70192 0
M  V30 6831 N 634.105 1.10431 1.1244 0
M  V30 6832 C 635.053 0.747974 2.20246 0
M  V30 6833 C 636.047 -0.255848 1.67457 0
M  V30 6834 O 637.253 -0.116221 1.79624 0
M  V30 6835 H 633.628 0.223946 0.71788 0
M  V30 6836 H 635.599 1.6661 2.47556 0
M  V30 6837 C 634.348 0.195957 3.47147 0
M  V30 6838 H 633.671 0.959606 3.88113 0
M  V30 6839 H 635.111 -0.0153154 4.23997 0
M  V30 6840 C 633.57 -1.07132 3.19413 0
M  V30 6841 O 634.1 -2.15284 3.3914 0
M  V30 6842 N 632.306 -0.98994 2.73219 0
M  V30 6843 H 631.853 -0.109736 2.57366 0
M  V30 6844 H 631.811 -1.83856 2.55038 0
M  V30 6845 N 635.583 -1.29855 0.893053 0
M  V30 6846 C 636.86 -1.90694 0.435336 0
M  V30 6847 C 637.24 -1.8111 -1.08454 0
M  V30 6848 O 636.588 -1.23352 -1.92345 0
M  V30 6849 C 636.798 -3.36033 0.942472 0
M  V30 6850 C 638.146 -4.13083 0.982226 0
M  V30 6851 O 639.17 -3.4491 0.889686 0
M  V30 6852 O 638.029 -5.34896 1.12022 0
M  V30 6853 H 635.123 -0.815978 0.134567 0
M  V30 6854 H 637.669 -1.38367 0.982484 0
M  V30 6855 H 636.441 -3.37132 1.9864 0
M  V30 6856 H 636.064 -3.95828 0.374952 0
M  V30 6857 N 637.061 -0.65484 -1.43351 0
M  V30 6858 C 638.008 0.0357713 -2.30772 0
M  V30 6859 C 638.978 0.813035 -1.44841 0
M  V30 6860 O 640.163 0.789314 -1.73708 0
M  V30 6861 C 637.303 0.995084 -3.30442 0
M  V30 6862 C 636.416 0.21375 -4.31471 0
M  V30 6863 C 635.551 1.16701 -5.18222 0
M  V30 6864 C 634.59 0.376201 -6.10943 0
M  V30 6865 N 633.727 1.28113 -6.90313 0
M  V30 6866 H 638.567 -0.71559 -2.89281 0
M  V30 6867 H 636.104 -0.364645 -1.42509 0
M  V30 6868 H 638.062 1.5649 -3.86739 0
M  V30 6869 H 636.692 1.7133 -2.7358 0
M  V30 6870 H 635.744 -0.472377 -3.77456 0
M  V30 6871 H 637.056 -0.401103 -4.97185 0
M  V30 6872 H 636.21 1.8074 -5.79153 0
M  V30 6873 H 634.949 1.81577 -4.52638 0
M  V30 6874 H 633.954 -0.277534 -5.49099 0
M  V30 6875 H 635.179 -0.268178 -6.7857 0
M  V30 6876 H 633.125 1.91666 -6.27376 0
M  V30 6877 H 633.042 0.720879 -7.52555 0
M  V30 6878 H 634.31 1.90962 -7.55747 0
M  V30 6879 N 638.539 1.52521 -0.396863 0
M  V30 6880 C 639.779 2.03583 0.182578 0
M  V30 6881 C 640.143 1.2766 1.43412 0
M  V30 6882 O 641.344 1.68884 2.09121 0
M  V30 6883 C 639.615 3.54724 0.436519 0
M  V30 6884 S 641.174 4.27598 0.985163 0
M  V30 6885 H 637.992 0.709186 0.0507529 0
M  V30 6886 H 640.594 1.87693 -0.546955 0
M  V30 6887 H 639.298 4.07567 -0.481343 0
M  V30 6888 H 638.829 3.74834 1.19427 0
M  V30 6889 H 640.844 4.41393 2.26686 0
M  V30 6890 N 640.017 0.126909 1.57088 0
M  V30 6891 C 641.266 -0.529024 1.94639 0
M  V30 6892 C 641.579 -1.67323 1.01304 0
M  V30 6893 O 642.785 -2.39245 1.28352 0
M  V30 6894 C 641.241 -0.992483 3.45945 0
M  V30 6895 C 640.849 0.123691 4.47829 0
M  V30 6896 C 642.593 -1.61934 3.924 0
M  V30 6897 C 640.5 -0.356911 5.90322 0
M  V30 6898 H 639.43 -0.201397 0.726605 0
M  V30 6899 H 642.081 0.208032 1.82317 0
M  V30 6900 H 640.463 -1.7842 3.53528 0
M  V30 6901 H 641.637 0.900168 4.51922 0
M  V30 6902 H 639.952 0.657699 4.11173 0
M  V30 6903 H 642.549 -1.9902 4.96281 0
M  V30 6904 H 642.892 -2.50075 3.32819 0
M  V30 6905 H 643.425 -0.892894 3.8765 0
M  V30 6906 H 640.164 0.488636 6.53676 0
M  V30 6907 H 639.684 -1.0997 5.89633 0
M  V30 6908 H 641.363 -0.815547 6.41839 0
M  V30 6909 N 641.495 -1.56914 -0.146875 0
M  V30 6910 C 642.735 -1.85163 -0.86568 0
M  V30 6911 C 643.099 -0.711215 -1.78342 0
M  V30 6912 O 644.3 -0.874754 -2.54168 0
M  V30 6913 C 642.571 -3.18593 -1.61967 0
M  V30 6914 S 644.13 -3.68397 -2.38388 0
M  V30 6915 H 640.948 -0.6494 -0.289483 0
M  V30 6916 H 643.55 -1.95096 -0.125679 0
M  V30 6917 H 642.254 -3.99562 -0.93694 0
M  V30 6918 H 641.785 -3.11666 -2.40058 0
M  V30 6919 H 643.8 -3.37672 -3.63582 0
M  V30 6920 N 642.974 0.416227 -1.52004 0
M  V30 6921 C 643.921 1.50666 -1.74838 0
M  V30 6922 C 644.891 1.55245 -0.590599 0
M  V30 6923 O 646.076 1.71928 -0.827374 0
M  V30 6924 C 643.216 2.88185 -1.89851 0
M  V30 6925 C 642.329 2.92971 -3.17478 0
M  V30 6926 C 641.464 4.21745 -3.22962 0
M  V30 6927 C 640.503 4.20478 -4.4482 0
M  V30 6928 N 639.64 5.40811 -4.47736 0
M  V30 6929 H 644.48 1.30498 -2.67907 0
M  V30 6930 H 642.017 0.633568 -1.32757 0
M  V30 6931 H 643.975 3.68007 -1.96537 0
M  V30 6932 H 642.605 3.06865 -1.00169 0
M  V30 6933 H 641.657 2.05684 -3.19997 0
M  V30 6934 H 642.969 2.87899 -4.07328 0
M  V30 6935 H 642.123 5.09954 -3.28682 0
M  V30 6936 H 640.862 4.29503 -2.31038 0
M  V30 6937 H 639.867 3.30659 -4.39254 0
M  V30 6938 H 641.092 4.14366 -5.38031 0
M  V30 6939 H 639.038 5.4925 -3.58692 0
M  V30 6940 H 638.955 5.37705 -5.31422 0
M  V30 6941 H 640.223 6.30993 -4.57676 0
M  V30 6942 N 644.452 1.42507 0.673017 0
M  V30 6943 C 645.692 1.44559 1.44507 0
M  V30 6944 C 646.056 0.0606206 1.91904 0
M  V30 6945 O 647.257 -0.044139 2.68764 0
M  V30 6946 C 645.528 2.44291 2.60877 0
M  V30 6947 S 647.087 2.65059 3.49699 0
M  V30 6948 H 643.905 0.51181 0.49353 0
M  V30 6949 H 646.507 1.79124 0.783256 0
M  V30 6950 H 645.211 3.43685 2.24297 0
M  V30 6951 H 644.742 2.11157 3.31928 0
M  V30 6952 H 646.757 1.93494 4.56919 0
M  V30 6953 N 645.93 -0.909495 1.28709 0
M  V30 6954 C 647.155 -1.69801 1.1909 0
M  V30 6955 C 647.58 -1.86479 -0.246388 0
M  V30 6956 O 646.938 -1.37802 -1.17815 0
M  V30 6957 C 646.986 -3.06543 1.89904 0
M  V30 6958 O 646.09 -3.94268 1.2094 0
M  V30 6959 H 645.431 -0.519783 0.413185 0
M  V30 6960 H 647.961 -1.13689 1.70106 0
M  V30 6961 H 647.971 -3.56748 1.97977 0
M  V30 6962 H 646.646 -2.93722 2.94449 0
M  V30 6963 H 645.223 -3.52702 1.2106 0
M  V30 6964 N 647.408 -1.11026 -1.11852 0
M  V30 6965 C 648.34 -0.72249 -2.17515 0
M  V30 6966 C 649.353 0.243782 -1.60964 0
M  V30 6967 O 650.542 0.0273252 -1.78479 0
M  V30 6968 C 647.642 -0.0463979 -3.38868 0
M  V30 6969 C 646.815 -1.0384 -4.24895 0
M  V30 6970 C 645.874 -0.392659 -5.24733 0
M  V30 6971 O 644.9 -1.0453 -5.5952 0
M  V30 6972 N 646.102 0.846296 -5.74298 0
M  V30 6973 H 648.867 -1.63161 -2.51393 0
M  V30 6974 H 646.428 -0.999899 -1.27333 0
M  V30 6975 H 648.42 0.397215 -4.02746 0
M  V30 6976 H 646.99 0.765231 -3.03089 0
M  V30 6977 H 646.21 -1.6601 -3.57539 0
M  V30 6978 H 647.498 -1.70968 -4.79215 0
M  V30 6979 H 646.896 1.39578 -5.4821 0
M  V30 6980 H 645.453 1.23296 -6.40032 0
M  V30 6981 N 648.886 1.2938 -0.899927 0
M  V30 6982 C 649.819 2.25911 -0.322386 0
M  V30 6983 C 650.797 1.52447 0.565567 0
M  V30 6984 O 651.981 1.81404 0.512324 0
M  V30 6985 C 649.108 3.3436 0.540455 0
M  V30 6986 C 648.154 4.25579 -0.280211 0
M  V30 6987 S 648.987 5.08526 -1.67814 0
M  V30 6988 C 650.143 6.20476 -0.822224 0
M  V30 6989 H 650.376 2.7455 -1.1406 0
M  V30 6990 H 647.909 1.37606 -0.700285 0
M  V30 6991 H 649.867 3.97303 1.0325 0
M  V30 6992 H 648.528 2.84416 1.33291 0
M  V30 6993 H 647.721 5.02574 0.378915 0
M  V30 6994 H 647.323 3.67287 -0.705405 0
M  V30 6995 H 649.615 6.77485 -0.0457138 0
M  V30 6996 H 650.558 6.90606 -1.56426 0
M  V30 6997 H 650.966 5.63243 -0.37651 0
M  V30 6998 N 650.364 0.662433 1.43002 0
M  V30 6999 C 651.294 -0.00979809 2.33498 0
M  V30 7000 C 652.275 -0.802329 1.49989 0
M  V30 7001 O 653.46 -0.761964 1.78627 0
M  V30 7002 C 650.59 -0.970446 3.33466 0
M  V30 7003 C 649.544 -0.287383 4.27034 0
M  V30 7004 C 648.87 -1.36012 5.17112 0
M  V30 7005 C 650.17 0.82595 5.15728 0
M  V30 7006 H 651.864 0.745959 2.89958 0
M  V30 7007 H 649.41 0.360172 1.39423 0
M  V30 7008 H 651.363 -1.44971 3.95679 0
M  V30 7009 H 650.087 -1.75748 2.75282 0
M  V30 7010 H 648.746 0.17152 3.66199 0
M  V30 7011 H 648.394 -2.13882 4.55262 0
M  V30 7012 H 648.094 -0.908276 5.80538 0
M  V30 7013 H 649.618 -1.84056 5.82199 0
M  V30 7014 H 651.032 0.42845 5.71697 0
M  V30 7015 H 649.429 1.20282 5.87922 0
M  V30 7016 H 650.499 1.68003 4.54866 0
M  V30 7017 N 651.842 -1.52309 0.404946 0
M  V30 7018 C 653.07 -2.06185 -0.171818 0
M  V30 7019 C 653.485 -1.27536 -1.39212 0
M  V30 7020 O 652.842 -0.326112 -1.79563 0
M  V30 7021 C 652.893 -3.57647 -0.526417 0
M  V30 7022 O 652.614 -4.3332 0.645417 0
M  V30 7023 C 654.115 -4.27925 -1.15736 0
M  V30 7024 H 651.335 -0.670632 -0.0222328 0
M  V30 7025 H 653.879 -1.96259 0.574692 0
M  V30 7026 H 652.034 -3.67595 -1.22282 0
M  V30 7027 H 652.448 -5.23328 0.35042 0
M  V30 7028 H 653.922 -5.35093 -1.35572 0
M  V30 7029 H 654.399 -3.84134 -2.12926 0
M  V30 7030 H 655.005 -4.22335 -0.501281 0
M  V30 7031 N 653.32 -0.135238 -1.57019 0
M  V30 7032 C 654.568 0.51777 -1.95355 0
M  V30 7033 C 654.889 1.6617 -1.02042 0
M  V30 7034 O 654.159 1.95738 -0.0797343 0
M  V30 7035 H 652.739 0.194264 -0.721298 0
M  V30 7036 H 655.401 -0.207983 -1.93787 0
M  V30 7037 H 654.497 0.901675 -2.98791 0
M  V30 7038 N 654.798 1.5699 0.138552 0
M  V30 7039 C 656.046 1.83446 0.848053 0
M  V30 7040 C 656.367 0.71744 1.81322 0
M  V30 7041 O 655.637 -0.260228 1.94164 0
M  V30 7042 H 654.217 0.676792 0.316166 0
M  V30 7043 H 656.879 1.94462 0.130538 0
M  V30 7044 H 655.975 2.78677 1.40518 0
M  V30 7045 N 656.276 -0.40816 1.52223 0
M  V30 7046 C 657.522 -1.15347 1.67531 0
M  V30 7047 C 657.877 -1.8818 0.400748 0
M  V30 7048 O 657.17 -1.81803 -0.604845 0
M  V30 7049 C 657.364 -2.17422 2.83659 0
M  V30 7050 C 657.193 -1.54611 4.22286 0
M  V30 7051 C 655.963 -1.31841 4.87797 0
M  V30 7052 C 658.161 -1.00648 5.04355 0
M  V30 7053 N 656.143 -0.649338 6.10456 0
M  V30 7054 C 657.514 -0.464384 6.18258 0
M  V30 7055 C 659.569 -0.901041 4.89679 0
M  V30 7056 C 658.272 0.172825 7.19092 0
M  V30 7057 C 660.298 -0.277684 5.90748 0
M  V30 7058 C 659.66 0.253734 7.03943 0
M  V30 7059 H 655.759 -0.408722 0.666686 0
M  V30 7060 H 658.343 -0.445713 1.8953 0
M  V30 7061 H 656.514 -2.85554 2.63274 0
M  V30 7062 H 658.246 -2.84321 2.87999 0
M  V30 7063 H 655.001 -1.58819 4.46176 0
M  V30 7064 H 655.425 -0.3314 6.76188 0
M  V30 7065 H 660.067 -1.29772 4.02392 0
M  V30 7066 H 657.785 0.581564 8.06005 0
M  V30 7067 H 661.371 -0.197605 5.81464 0
M  V30 7068 H 660.251 0.728482 7.80809 0
M  V30 7069 N 657.755 -1.42862 -0.66545 0
M  V30 7070 C 659.001 -1.4504 -1.426 0
M  V30 7071 C 659.356 -0.0690217 -1.92276 0
M  V30 7072 O 658.649 0.91036 -1.68591 0
M  V30 7073 C 658.843 -2.4175 -2.63233 0
M  V30 7074 C 658.672 -3.89155 -2.25362 0
M  V30 7075 C 657.442 -4.57619 -2.14273 0
M  V30 7076 C 659.64 -4.79326 -1.86417 0
M  V30 7077 N 657.622 -5.90006 -1.69604 0
M  V30 7078 C 658.993 -6.00892 -1.52738 0
M  V30 7079 C 661.048 -4.66696 -1.73492 0
M  V30 7080 C 659.751 -7.11232 -1.0743 0
M  V30 7081 C 661.777 -5.77027 -1.29589 0
M  V30 7082 C 661.139 -6.97712 -0.968393 0
M  V30 7083 H 657.238 -0.585889 -0.517936 0
M  V30 7084 H 659.822 -1.78956 -0.767002 0
M  V30 7085 H 657.993 -2.09881 -3.26809 0
M  V30 7086 H 659.725 -2.34447 -3.29874 0
M  V30 7087 H 656.48 -4.11957 -2.33641 0
M  V30 7088 H 656.904 -6.60249 -1.49666 0
M  V30 7089 H 661.546 -3.7386 -1.97455 0
M  V30 7090 H 659.264 -8.03907 -0.822147 0
M  V30 7091 H 662.85 -5.6927 -1.20095 0
M  V30 7092 H 661.73 -7.81634 -0.63384 0
M  V30 7093 N 659.233 0.902656 -1.29189 0
M  V30 7094 C 660.48 1.65287 -1.16989 0
M  V30 7095 C 660.808 1.92485 0.279232 0
M  V30 7096 O 660.063 1.53143 1.21843 0
M  V30 7097 C 660.362 3.011 -1.92545 0
M  V30 7098 C 660.028 2.93521 -3.42281 0
M  V30 7099 C 658.69 2.91161 -3.83117 0
M  V30 7100 C 661.042 2.82947 -4.3771 0
M  V30 7101 C 658.37 2.76043 -5.17704 0
M  V30 7102 C 660.722 2.69368 -5.72384 0
M  V30 7103 C 659.386 2.65373 -6.12482 0
M  V30 7104 H 658.656 0.604828 -0.428094 0
M  V30 7105 H 661.303 1.05084 -1.60092 0
M  V30 7106 H 659.608 3.65153 -1.42024 0
M  V30 7107 H 661.305 3.58073 -1.80512 0
M  V30 7108 H 657.895 2.96158 -3.09819 0
M  V30 7109 H 662.079 2.83849 -4.07116 0
M  V30 7110 H 657.335 2.71352 -5.47885 0
M  V30 7111 H 661.509 2.60156 -6.45981 0
M  V30 7112 H 659.136 2.53415 -7.16718 0
M  V30 7113 N 660.711 1.11618 1.11262 0
M  V30 7114 C 661.988 0.777876 1.79467 0
M  V30 7115 C 662.368 -0.733774 1.97937 0
M  V30 7116 O 661.716 -1.66443 1.56554 0
M  V30 7117 C 661.926 1.5431 3.13032 0
M  V30 7118 C 663.274 1.72357 3.88044 0
M  V30 7119 O 664.298 1.5075 3.22727 0
M  V30 7120 O 663.157 2.08276 5.05256 0
M  V30 7121 H 660.251 0.282018 0.777428 0
M  V30 7122 H 662.797 1.21971 1.17988 0
M  V30 7123 H 661.569 2.57132 2.94956 0
M  V30 7124 H 661.192 1.09495 3.82226 0
M  V30 7125 N 662.189 -1.289 0.906776 0
M  V30 7126 C 663.152 -2.25777 0.394656 0
M  V30 7127 C 664.152 -1.53621 -0.475119 0
M  V30 7128 O 665.342 -1.71949 -0.279165 0
M  V30 7129 C 662.474 -3.38113 -0.43499 0
M  V30 7130 H 663.667 -2.72592 1.25033 0
M  V30 7131 H 661.22 -1.40463 0.685547 0
M  V30 7132 H 661.955 -2.96648 -1.31036 0
M  V30 7133 H 661.74 -3.91647 0.188334 0
M  V30 7134 H 663.23 -4.10168 -0.784365 0
M  V30 7135 N 663.667 -0.670007 -1.42649 0
M  V30 7136 C 664.907 -0.194106 -2.03476 0
M  V30 7137 C 665.271 1.1755 -1.51809 0
M  V30 7138 O 666.472 1.74579 -2.04391 0
M  V30 7139 C 664.743 -0.221828 -3.56711 0
M  V30 7140 S 666.302 0.183772 -4.38415 0
M  V30 7141 H 663.12 -0.0802478 -0.706457 0
M  V30 7142 H 665.722 -0.882092 -1.74469 0
M  V30 7143 H 664.426 -1.22107 -3.91814 0
M  V30 7144 H 663.957 0.486149 -3.90385 0
M  V30 7145 H 665.972 1.41839 -4.75496 0
M  V30 7146 N 665.145 1.52092 -0.413018 0
M  V30 7147 C 666.393 2.01456 0.161178 0
M  V30 7148 C 666.714 1.30034 1.45314 0
M  V30 7149 O 665.984 0.427435 1.9118 0
M  V30 7150 H 664.564 0.744376 0.0625526 0
M  V30 7151 H 667.226 1.86974 -0.550151 0
M  V30 7152 H 666.322 3.1008 0.354517 0
M  V30 7153 N 666.623 0.143563 1.56945 0
M  V30 7154 C 668.034 -0.37783 1.82837 0
M  V30 7155 C 668.385 -1.64967 1.06209 0
M  V30 7156 O 667.51 -2.14221 0.306291 0
M  V30 7157 C 668.105 -0.692274 3.31652 0
M  V30 7158 C 666.664 -1.1582 3.58138 0
M  V30 7159 C 665.811 -0.17951 2.76718 0
M  V30 7160 H 668.762 0.368317 1.54367 0
M  V30 7161 H 668.783 -1.54729 3.47619 0
M  V30 7162 H 668.295 0.233572 3.87397 0
M  V30 7163 H 666.396 -2.10011 3.07776 0
M  V30 7164 H 666.509 -1.08655 4.66616 0
M  V30 7165 H 664.873 -0.671458 2.4569 0
M  V30 7166 H 665.656 0.739865 3.35233 0
M  V30 7167 N 668.101 -1.57061 -0.130224 0
M  V30 7168 C 669.326 -1.88802 -0.858409 0
M  V30 7169 C 669.751 -0.734353 -1.73173 0
M  V30 7170 O 669.109 0.315529 -1.78533 0
M  V30 7171 C 669.157 -3.19228 -1.67708 0
M  V30 7172 O 668.261 -3.04343 -2.78297 0
M  V30 7173 H 667.602 -0.619849 -0.238083 0
M  V30 7174 H 670.132 -2.04271 -0.115995 0
M  V30 7175 H 670.142 -3.51669 -2.06864 0
M  V30 7176 H 668.817 -4.02793 -1.0359 0
M  V30 7177 H 667.394 -2.83346 -2.42425 0
M  V30 7178 N 669.579 0.400081 -1.52437 0
M  V30 7179 C 670.527 1.50851 -1.7705 0
M  V30 7180 C 671.521 1.56928 -0.637969 0
M  V30 7181 O 672.727 1.60226 -0.820212 0
M  V30 7182 H 669.102 0.50186 -0.560036 0
M  V30 7183 H 671.073 1.27281 -2.69893 0
M  V30 7184 C 669.822 2.88117 -1.94638 0
M  V30 7185 H 669.145 2.84187 -2.81208 0
M  V30 7186 H 670.585 3.64942 -2.15855 0
M  V30 7187 C 669.044 3.29206 -0.715899 0
M  V30 7188 O 669.574 4.01544 0.111944 0
M  V30 7189 N 667.78 2.85363 -0.549191 0
M  V30 7190 H 667.327 2.26664 -1.22397 0
M  V30 7191 H 667.285 3.13214 0.27278 0
M  V30 7192 N 671.057 1.43213 0.657864 0
M  V30 7193 C 671.987 1.50815 1.78262 0
M  V30 7194 C 672.968 0.363211 1.66177 0
M  V30 7195 O 674.153 0.579806 1.85343 0
M  V30 7196 C 671.283 1.42625 3.16663 0
M  V30 7197 C 670.237 2.5532 3.43505 0
M  V30 7198 C 669.563 2.32184 4.81658 0
M  V30 7199 C 670.863 3.97583 3.38711 0
M  V30 7200 H 672.557 2.44954 1.72157 0
M  V30 7201 H 670.103 1.17896 0.82683 0
M  V30 7202 H 672.056 1.46548 3.95097 0
M  V30 7203 H 670.78 0.449877 3.23487 0
M  V30 7204 H 669.439 2.50742 2.6744 0
M  V30 7205 H 669.087 1.32801 4.85153 0
M  V30 7206 H 668.787 3.07724 5.00579 0
M  V30 7207 H 670.311 2.37883 5.62356 0
M  V30 7208 H 671.725 4.03673 4.07089 0
M  V30 7209 H 670.122 4.73112 3.69168 0
M  V30 7210 H 671.192 4.23049 2.36976 0
M  V30 7211 N 672.536 -0.895792 1.29666 0
M  V30 7212 C 673.484 -2.02173 1.15017 0
M  V30 7213 C 674.478 -1.69276 0.0647651 0
M  V30 7214 O 675.684 -1.7859 0.224846 0
M  V30 7215 H 672.059 -0.662719 0.355397 0
M  V30 7216 H 674.03 -2.11666 2.10334 0
M  V30 7217 C 672.779 -3.37212 0.847555 0
M  V30 7218 H 672.102 -3.6303 1.67479 0
M  V30 7219 H 673.542 -4.16668 0.785106 0
M  V30 7220 C 672.001 -3.33891 -0.44929 0
M  V30 7221 O 672.531 -3.73673 -1.47415 0
M  V30 7222 N 670.737 -2.86991 -0.456547 0
M  V30 7223 H 670.284 -2.54813 0.377925 0
M  V30 7224 H 670.242 -2.85152 -1.32423 0
M  V30 7225 N 674.014 -1.12206 -1.10668 0
M  V30 7226 C 675.262 -0.874144 -1.82217 0
M  V30 7227 C 675.583 0.601736 -1.85484 0
M  V30 7228 O 674.853 1.43725 -1.33116 0
M  V30 7229 H 673.433 -0.320404 -0.674797 0
M  V30 7230 H 676.095 -1.41606 -1.33917 0
M  V30 7231 H 675.191 -1.25349 -2.85822 0
M  V30 7232 N 675.492 1.28418 -0.913599 0
M  V30 7233 C 676.425 2.25557 -0.346328 0
M  V30 7234 C 677.403 1.53038 0.549366 0
M  V30 7235 O 678.587 1.81937 0.493055 0
M  V30 7236 C 675.714 3.34915 0.504961 0
M  V30 7237 C 674.76 4.25257 -0.325334 0
M  V30 7238 S 675.593 5.06718 -1.73198 0
M  V30 7239 C 676.749 6.19569 -0.887988 0
M  V30 7240 H 676.982 2.73325 -1.16965 0
M  V30 7241 H 674.515 1.36855 -0.714841 0
M  V30 7242 H 676.473 3.98376 0.990301 0
M  V30 7243 H 675.134 2.85814 1.30267 0
M  V30 7244 H 674.327 5.02947 0.325589 0
M  V30 7245 H 673.929 3.66519 -0.744321 0
M  V30 7246 H 676.221 6.77398 -0.117568 0
M  V30 7247 H 677.164 6.88908 -1.63742 0
M  V30 7248 H 677.572 5.62812 -0.436228 0
M  V30 7249 N 676.97 0.677563 1.42291 0
M  V30 7250 C 678.2 0.209155 2.05539 0
M  V30 7251 C 678.608 -1.13987 1.51009 0
M  V30 7252 O 677.951 -1.71976 0.645764 0
M  V30 7253 C 678.013 0.0697758 3.59432 0
M  V30 7254 C 677.677 1.34795 4.36668 0
M  V30 7255 C 678.674 2.28201 4.67141 0
M  V30 7256 C 676.359 1.59632 4.76259 0
M  V30 7257 C 678.353 3.44718 5.36142 0
M  V30 7258 C 676.04 2.76437 5.45 0
M  V30 7259 C 677.038 3.68805 5.74867 0
M  V30 7260 O 676.726 4.83567 6.42198 0
M  V30 7261 H 676.458 0.0986202 0.668768 0
M  V30 7262 H 679.012 0.925483 1.83368 0
M  V30 7263 H 677.242 -0.702157 3.80272 0
M  V30 7264 H 678.931 -0.359115 4.04308 0
M  V30 7265 H 679.697 2.10264 4.37052 0
M  V30 7266 H 675.576 0.886073 4.52404 0
M  V30 7267 H 679.12 4.16833 5.59371 0
M  V30 7268 H 675.017 2.94299 5.74507 0
M  V30 7269 H 675.785 4.83147 6.6069 0
M  V30 7270 N 678.448 -1.51871 0.421078 0
M  V30 7271 C 679.678 -2.06057 -0.149723 0
M  V30 7272 C 680.086 -1.29002 -1.38402 0
M  V30 7273 O 679.429 -0.338385 -1.80556 0
M  V30 7274 C 679.491 -3.55216 -0.553339 0
M  V30 7275 C 679.155 -4.53408 0.571879 0
M  V30 7276 C 680.152 -4.99586 1.4391 0
M  V30 7277 C 677.837 -4.967 0.747979 0
M  V30 7278 C 679.831 -5.87711 2.46727 0
M  V30 7279 C 677.518 -5.84619 1.77944 0
M  V30 7280 C 678.516 -6.30021 2.63748 0
M  V30 7281 O 678.204 -7.16197 3.65126 0
M  V30 7282 H 677.936 -0.675744 -0.0186102 0
M  V30 7283 H 680.49 -1.96618 0.594166 0
M  V30 7284 H 678.72 -3.62381 -1.34969 0
M  V30 7285 H 680.409 -3.91992 -1.05342 0
M  V30 7286 H 681.175 -4.66846 1.31451 0
M  V30 7287 H 677.054 -4.60913 0.0897357 0
M  V30 7288 H 680.598 -6.2307 3.13734 0
M  V30 7289 H 676.495 -6.16771 1.90429 0
M  V30 7290 H 677.263 -7.34337 3.61512 0
M  V30 7291 N 679.926 -0.151884 -1.56866 0
M  V30 7292 C 681.337 0.368128 -1.83035 0
M  V30 7293 C 681.688 1.64402 -1.07082 0
M  V30 7294 O 680.813 2.14056 -0.317647 0
M  V30 7295 C 681.408 0.674676 -3.32014 0
M  V30 7296 C 679.967 1.13919 -3.58747 0
M  V30 7297 C 679.114 0.164833 -2.7681 0
M  V30 7298 H 682.065 -0.376499 -1.54169 0
M  V30 7299 H 682.086 1.52883 -3.48435 0
M  V30 7300 H 681.598 -0.254113 -3.87267 0
M  V30 7301 H 679.699 2.08375 -3.08886 0
M  V30 7302 H 679.812 1.06179 -4.67186 0
M  V30 7303 H 678.176 0.658419 -2.46043 0
M  V30 7304 H 678.959 -0.757633 -3.34836 0
M  V30 7305 N 681.404 1.57128 0.121893 0
M  V30 7306 C 682.336 1.96773 1.17529 0
M  V30 7307 C 683.349 0.866668 1.37814 0
M  V30 7308 O 684.538 1.14497 1.3694 0
M  V30 7309 C 681.638 2.24832 2.53582 0
M  V30 7310 C 680.811 3.56138 2.53939 0
M  V30 7311 C 679.87 3.72443 3.71716 0
M  V30 7312 O 678.896 4.44584 3.55434 0
M  V30 7313 N 680.098 3.10993 4.90167 0
M  V30 7314 H 682.863 2.87743 0.838086 0
M  V30 7315 H 680.424 1.58881 0.311199 0
M  V30 7316 H 682.416 2.32958 3.30927 0
M  V30 7317 H 680.986 1.40002 2.79496 0
M  V30 7318 H 680.206 3.59226 1.62329 0
M  V30 7319 H 681.494 4.42448 2.51231 0
M  V30 7320 H 680.892 2.52345 5.06299 0
M  V30 7321 H 679.449 3.24644 5.65198 0
M  V30 7322 N 682.882 -0.391992 1.52647 0
M  V30 7323 C 684.298 -0.731848 1.41831 0
M  V30 7324 C 684.498 -1.9423 0.536361 0
M  V30 7325 O 683.554 -2.52499 0.00866571 0
M  V30 7326 C 684.867 -0.969743 2.84634 0
M  V30 7327 C 686.415 -1.0714 2.94092 0
M  V30 7328 C 686.89 -1.34195 4.37899 0
M  V30 7329 N 688.381 -1.41023 4.41211 0
M  V30 7330 C 689.116 -1.63616 5.49561 0
M  V30 7331 N 688.612 -1.83699 6.68002 0
M  V30 7332 N 690.405 -1.65771 5.371 0
M  V30 7333 H 682.556 0.404547 2.08512 0
M  V30 7334 H 684.819 0.11879 0.940528 0
M  V30 7335 H 684.525 -0.152465 3.51369 0
M  V30 7336 H 684.399 -1.88523 3.26709 0
M  V30 7337 H 686.786 -1.87925 2.27526 0
M  V30 7338 H 686.867 -0.133887 2.55449 0
M  V30 7339 H 686.511 -0.539207 5.0503 0
M  V30 7340 H 686.441 -2.29226 4.74092 0
M  V30 7341 H 688.932 -1.27223 3.55841 0
M  V30 7342 H 689.245 -2.00437 7.46354 0
M  V30 7343 H 687.59 -1.8093 6.71036 0
M  V30 7344 H 690.781 -1.4963 4.43541 0
M  V30 7345 H 690.954 -1.83038 6.21612 0
M  V30 7346 N 684.36 -1.4356 -0.65026 0
M  V30 7347 C 685.292 -1.44918 -1.77571 0
M  V30 7348 C 686.305 -0.344925 -1.59104 0
M  V30 7349 O 687.494 -0.609537 -1.6777 0
M  V30 7350 C 684.594 -1.24914 -3.15039 0
M  V30 7351 C 683.767 -2.48232 -3.60138 0
M  V30 7352 C 682.826 -2.23409 -4.76419 0
M  V30 7353 O 681.852 -2.9678 -4.85706 0
M  V30 7354 N 683.054 -1.25259 -5.66825 0
M  V30 7355 H 685.819 -2.41935 -1.76883 0
M  V30 7356 H 683.38 -1.38754 -0.834202 0
M  V30 7357 H 685.372 -1.06185 -3.90521 0
M  V30 7358 H 683.942 -0.363319 -3.10481 0
M  V30 7359 H 683.162 -2.82366 -2.75069 0
M  V30 7360 H 684.45 -3.30296 -3.87017 0
M  V30 7361 H 683.848 -0.646246 -5.61997 0
M  V30 7362 H 682.405 -1.12513 -6.42016 0
M  V30 7363 N 685.838 0.888903 -1.30139 0
M  V30 7364 C 686.786 2.0156 -1.16088 0
M  V30 7365 C 687.78 1.69239 -0.0737413 0
M  V30 7366 O 688.986 1.78468 -0.234313 0
M  V30 7367 H 685.361 0.660825 -0.358907 0
M  V30 7368 H 687.332 2.10547 -2.11453 0
M  V30 7369 C 686.081 3.36758 -0.865426 0
M  V30 7370 H 685.404 3.62137 -1.69402 0
M  V30 7371 H 686.844 4.16246 -0.807192 0
M  V30 7372 C 685.303 3.34124 0.431577 0
M  V30 7373 O 685.833 3.7445 1.45431 0
M  V30 7374 N 684.039 2.87229 0.441321 0
M  V30 7375 H 683.586 2.54609 -0.391433 0
M  V30 7376 H 683.544 2.8585 1.30909 0
M  V30 7377 N 687.317 1.12792 1.10072 0
M  V30 7378 C 688.545 0.908506 1.85886 0
M  V30 7379 C 688.96 -0.542408 1.80841 0
M  V30 7380 O 688.317 -1.37517 1.1998 0
M  V30 7381 C 688.368 1.37973 3.34134 0
M  V30 7382 O 688.089 2.77378 3.39106 0
M  V30 7383 C 689.59 1.1978 4.26811 0
M  V30 7384 H 686.81 0.3244 0.587372 0
M  V30 7385 H 689.354 1.49882 1.39125 0
M  V30 7386 H 687.509 0.832566 3.78348 0
M  V30 7387 H 687.923 2.98144 4.31521 0
M  V30 7388 H 689.397 1.57635 5.29014 0
M  V30 7389 H 689.874 0.138768 4.38981 0
M  V30 7390 H 690.48 1.73266 3.88406 0
M  V30 7391 N 688.795 -1.27931 0.920396 0
M  V30 7392 C 689.743 -2.29061 0.404191 0
M  V30 7393 C 690.737 -1.61615 -0.507634 0
M  V30 7394 O 691.943 -1.75765 -0.388144 0
M  V30 7395 H 688.318 -0.743594 0.112123 0
M  V30 7396 H 690.289 -2.70021 1.27008 0
M  V30 7397 C 689.038 -3.46088 -0.334466 0
M  V30 7398 H 688.361 -3.98194 0.35797 0
M  V30 7399 H 689.801 -4.18829 -0.660196 0
M  V30 7400 C 688.26 -2.99396 -1.54479 0
M  V30 7401 O 688.79 -3.02439 -2.64374 0
M  V30 7402 N 686.996 -2.54978 -1.39408 0
M  V30 7403 H 686.543 -2.52701 -0.500009 0
M  V30 7404 H 686.501 -2.24098 -2.20516 0
M  V30 7405 N 690.273 -0.685099 -1.4193 0
M  V30 7406 C 691.22 -0.0131869 -2.30796 0
M  V30 7407 C 692.19 0.782129 -1.46533 0
M  V30 7408 O 693.375 0.75229 -1.75343 0
M  V30 7409 C 690.515 0.924768 -3.32479 0
M  V30 7410 C 689.628 0.122181 -4.31827 0
M  V30 7411 C 688.763 1.05682 -5.20581 0
M  V30 7412 C 687.802 0.246526 -6.11603 0
M  V30 7413 N 686.939 1.13442 -6.92875 0
M  V30 7414 H 691.779 -0.776789 -2.87698 0
M  V30 7415 H 689.316 -0.394791 -1.41703 0
M  V30 7416 H 691.274 1.48251 -3.89971 0
M  V30 7417 H 689.904 1.65488 -2.77152 0
M  V30 7418 H 688.956 -0.552335 -3.76369 0
M  V30 7419 H 690.268 -0.506473 -4.96222 0
M  V30 7420 H 689.422 1.68415 -5.82856 0
M  V30 7421 H 688.161 1.71935 -4.56388 0
M  V30 7422 H 687.166 -0.393944 -5.48387 0
M  V30 7423 H 688.391 -0.412053 -6.77849 0
M  V30 7424 H 686.337 1.78316 -6.313 0
M  V30 7425 H 686.254 0.561089 -7.53915 0
M  V30 7426 H 687.522 1.74889 -7.59628 0
M  V30 7427 N 691.751 1.51645 -0.429126 0
M  V30 7428 C 692.998 2.02015 0.140079 0
M  V30 7429 C 693.326 1.31374 1.43427 0
M  V30 7430 O 692.581 0.414779 1.91254 0
M  V30 7431 C 692.88 3.54989 0.414472 0
M  V30 7432 C 692.546 4.43874 -0.792911 0
M  V30 7433 C 691.208 4.67887 -1.12404 0
M  V30 7434 C 693.56 4.96074 -1.59875 0
M  V30 7435 C 690.888 5.41348 -2.26184 0
M  V30 7436 C 693.24 5.70782 -2.72747 0
M  V30 7437 C 691.904 5.93062 -3.06324 0
M  V30 7438 H 691.174 0.739225 0.0512585 0
M  V30 7439 H 693.821 1.82675 -0.574641 0
M  V30 7440 H 692.126 3.72615 1.21099 0
M  V30 7441 H 693.823 3.91489 0.868173 0
M  V30 7442 H 690.413 4.25374 -0.524871 0
M  V30 7443 H 694.597 4.77412 -1.35614 0
M  V30 7444 H 689.853 5.56815 -2.52522 0
M  V30 7445 H 694.027 6.10221 -3.35564 0
M  V30 7446 H 691.654 6.49764 -3.94602 0
M  V30 7447 N 693.229 0.160201 1.56784 0
M  V30 7448 C 694.177 -0.791402 2.18723 0
M  V30 7449 C 695.171 -1.24567 1.14801 0
M  V30 7450 O 696.377 -1.21262 1.33025 0
M  V30 7451 H 692.752 -0.273458 0.700517 0
M  V30 7452 H 694.723 -0.244931 2.97393 0
M  V30 7453 C 693.472 -2.01509 2.83354 0
M  V30 7454 H 692.795 -1.67454 3.63041 0
M  V30 7455 H 694.235 -2.66006 3.30177 0
M  V30 7456 C 692.694 -2.83159 1.82545 0
M  V30 7457 O 693.224 -3.79944 1.30405 0
M  V30 7458 N 691.43 -2.47953 1.51552 0
M  V30 7459 H 690.977 -1.69309 1.94144 0
M  V30 7460 H 690.935 -3.02873 0.843519 0
M  V30 7461 N 694.707 -1.5719 -0.113559 0
M  V30 7462 C 695.955 -1.84772 -0.818761 0
M  V30 7463 C 696.276 -0.746196 -1.80158 0
M  V30 7464 O 695.546 0.229305 -1.94553 0
M  V30 7465 H 694.126 -0.681737 -0.305359 0
M  V30 7466 H 696.788 -1.94645 -0.0995845 0
M  V30 7467 H 695.884 -2.80878 -1.36067 0
M  V30 7468 N 696.185 0.383891 -1.52853 0
M  V30 7469 C 697.434 1.12563 -1.67369 0
M  V30 7470 C 697.747 1.90982 -0.422533 0
M  V30 7471 O 698.953 2.6778 -0.447914 0
M  V30 7472 C 697.409 2.05011 -2.95801 0
M  V30 7473 C 697.017 1.31991 -4.28115 0
M  V30 7474 C 698.761 2.79289 -3.19684 0
M  V30 7475 C 696.668 2.23235 -5.4765 0
M  V30 7476 H 695.598 0.42391 -0.623552 0
M  V30 7477 H 698.249 0.388016 -1.79351 0
M  V30 7478 H 696.631 2.82429 -2.77578 0
M  V30 7479 H 697.805 0.597633 -4.56908 0
M  V30 7480 H 696.12 0.696517 -4.10533 0
M  V30 7481 H 698.717 3.47749 -4.06171 0
M  V30 7482 H 699.06 3.43649 -2.3497 0
M  V30 7483 H 699.593 2.08962 -3.38496 0
M  V30 7484 H 696.332 1.63482 -6.34786 0
M  V30 7485 H 695.852 2.93364 -5.23161 0
M  V30 7486 H 697.531 2.83205 -5.81725 0
M  V30 7487 N 697.663 1.43903 0.642637 0
M  V30 7488 C 698.61 1.49881 1.75512 0
M  V30 7489 C 699.58 0.347538 1.62423 0
M  V30 7490 O 700.765 0.556177 1.82514 0
M  V30 7491 C 697.905 1.43797 3.13714 0
M  V30 7492 C 697.018 2.6921 3.37861 0
M  V30 7493 C 696.153 2.5504 4.6597 0
M  V30 7494 C 695.192 3.75671 4.83257 0
M  V30 7495 N 694.329 3.60247 6.02633 0
M  V30 7496 H 699.169 2.44935 1.69737 0
M  V30 7497 H 696.706 1.21572 0.828165 0
M  V30 7498 H 698.664 1.38262 3.93624 0
M  V30 7499 H 697.294 0.523173 3.18532 0
M  V30 7500 H 696.346 2.8498 2.51973 0
M  V30 7501 H 697.658 3.58786 3.46517 0
M  V30 7502 H 696.812 2.47273 5.54023 0
M  V30 7503 H 695.551 1.63006 4.59653 0
M  V30 7504 H 694.556 3.83836 3.93637 0
M  V30 7505 H 695.781 4.68728 4.91397 0
M  V30 7506 H 693.727 2.70955 5.97427 0
M  V30 7507 H 693.644 4.43431 6.12295 0
M  V30 7508 H 694.912 3.56351 6.93278 0
M  V30 7509 N 699.141 -0.881989 1.30609 0
M  V30 7510 C 700.387 -1.63649 1.20791 0
M  V30 7511 C 700.742 -1.90966 -0.234437 0
M  V30 7512 O 700.035 -1.52163 -1.16434 0
M  V30 7513 C 700.229 -2.97999 1.97311 0
M  V30 7514 C 700.058 -2.83798 3.48839 0
M  V30 7515 C 698.828 -2.83622 4.18195 0
M  V30 7516 C 701.026 -2.59529 4.44015 0
M  V30 7517 N 699.008 -2.60344 5.55962 0
M  V30 7518 C 700.379 -2.45401 5.69366 0
M  V30 7519 C 702.434 -2.44777 4.33576 0
M  V30 7520 C 701.137 -2.18023 6.85462 0
M  V30 7521 C 703.163 -2.18785 5.49443 0
M  V30 7522 C 702.525 -2.05436 6.73777 0
M  V30 7523 H 698.624 -0.603687 0.497077 0
M  V30 7524 H 701.208 -1.03908 1.64655 0
M  V30 7525 H 699.379 -3.55767 1.55834 0
M  V30 7526 H 701.111 -3.6266 1.79611 0
M  V30 7527 H 697.866 -2.95562 3.70054 0
M  V30 7528 H 698.29 -2.51709 6.28468 0
M  V30 7529 H 702.932 -2.53831 3.38126 0
M  V30 7530 H 700.65 -2.07707 7.8095 0
M  V30 7531 H 704.236 -2.08188 5.43276 0
M  V30 7532 H 703.116 -1.85605 7.61919 0
M  V30 7533 N 700.619 -1.13374 -1.09472 0
M  V30 7534 C 701.849 -0.917019 -1.85133 0
M  V30 7535 C 702.257 0.537568 -1.81402 0
M  V30 7536 O 701.6 1.38385 -1.20811 0
M  V30 7537 C 701.662 -1.32646 -3.34134 0
M  V30 7538 C 701.326 -2.79437 -3.61613 0
M  V30 7539 C 702.323 -3.77596 -3.57375 0
M  V30 7540 C 700.008 -3.16586 -3.89973 0
M  V30 7541 C 702.002 -5.10916 -3.81108 0
M  V30 7542 C 699.689 -4.50085 -4.13361 0
M  V30 7543 C 700.687 -5.47059 -4.0892 0
M  V30 7544 O 700.375 -6.78149 -4.31705 0
M  V30 7545 H 700.107 -0.326997 -0.591649 0
M  V30 7546 H 702.661 -1.51002 -1.39239 0
M  V30 7547 H 700.891 -0.676719 -3.80733 0
M  V30 7548 H 702.58 -1.08229 -3.91205 0
M  V30 7549 H 703.346 -3.50242 -3.35493 0
M  V30 7550 H 699.225 -2.41707 -3.92554 0
M  V30 7551 H 702.769 -5.86597 -3.77558 0
M  V30 7552 H 698.666 -4.77163 -4.34724 0
M  V30 7553 H 699.434 -6.84244 -4.49168 0
M  V30 7554 N 702.098 1.27442 -0.927168 0
M  V30 7555 C 703.328 1.9821 -0.582775 0
M  V30 7556 C 703.736 1.69361 0.843406 0
M  V30 7557 O 703.079 0.950381 1.57205 0
M  V30 7558 C 703.141 3.52048 -0.728165 0
M  V30 7559 C 702.805 4.04518 -2.12637 0
M  V30 7560 C 703.802 4.17332 -3.10048 0
M  V30 7561 C 701.487 4.38879 -2.44317 0
M  V30 7562 C 703.481 4.6378 -4.37249 0
M  V30 7563 C 701.168 4.85018 -3.71753 0
M  V30 7564 C 702.166 4.97428 -4.68033 0
M  V30 7565 O 701.854 5.42556 -5.93202 0
M  V30 7566 H 701.586 0.639314 -0.219667 0
M  V30 7567 H 704.14 1.63272 -1.24626 0
M  V30 7568 H 702.37 3.86699 -0.00758143 0
M  V30 7569 H 704.059 4.04033 -0.388906 0
M  V30 7570 H 704.825 3.91046 -2.86894 0
M  V30 7571 H 700.704 4.28462 -1.70121 0
M  V30 7572 H 704.248 4.73382 -5.12402 0
M  V30 7573 H 700.145 5.10746 -3.94726 0
M  V30 7574 H 700.913 5.60811 -5.96182 0
M  V30 7575 N 703.576 0.692616 1.41565 0
M  V30 7576 C 704.822 0.231408 2.02079 0
M  V30 7577 C 705.177 -1.15514 1.53864 0
M  V30 7578 O 704.47 -1.76786 0.73873 0
M  V30 7579 C 704.664 0.225073 3.56691 0
M  V30 7580 C 704.493 1.60947 4.19912 0
M  V30 7581 C 703.263 2.2116 4.54331 0
M  V30 7582 C 705.461 2.55553 4.46315 0
M  V30 7583 N 703.443 3.52195 5.02824 0
M  V30 7584 C 704.814 3.71263 4.96552 0
M  V30 7585 C 706.869 2.53857 4.28323 0
M  V30 7586 C 705.572 4.85555 5.30687 0
M  V30 7587 C 707.598 3.67259 4.63546 0
M  V30 7588 C 706.96 4.81699 5.13951 0
M  V30 7589 H 703.059 0.130001 0.771119 0
M  V30 7590 H 705.643 0.909459 1.72154 0
M  V30 7591 H 703.814 -0.422453 3.86096 0
M  V30 7592 H 705.546 -0.250685 4.03923 0
M  V30 7593 H 702.301 1.73474 4.40685 0
M  V30 7594 H 702.725 4.19354 5.3148 0
M  V30 7595 H 707.367 1.66598 3.88594 0
M  V30 7596 H 705.085 5.73477 5.69341 0
M  V30 7597 H 708.671 3.67195 4.51286 0
M  V30 7598 H 707.551 5.67995 5.40695 0
M  V30 7599 N 705.054 -1.51416 0.437162 0
M  V30 7600 C 706.001 -2.27743 -0.374374 0
M  V30 7601 C 706.971 -1.31327 -1.01698 0
M  V30 7602 O 708.156 -1.60229 -1.03592 0
M  V30 7603 C 705.296 -3.12241 -1.46969 0
M  V30 7604 C 704.409 -4.23651 -0.845236 0
M  V30 7605 C 703.544 -4.95458 -1.91559 0
M  V30 7606 C 702.583 -5.98789 -1.26956 0
M  V30 7607 N 701.72 -6.64005 -2.28126 0
M  V30 7608 H 706.56 -2.96654 0.282892 0
M  V30 7609 H 704.097 -1.46319 0.151352 0
M  V30 7610 H 706.055 -3.59556 -2.11602 0
M  V30 7611 H 704.685 -2.45445 -2.09659 0
M  V30 7612 H 703.737 -3.803 -0.0872059 0
M  V30 7613 H 705.049 -4.97683 -0.333582 0
M  V30 7614 H 704.203 -5.46321 -2.63854 0
M  V30 7615 H 702.942 -4.21055 -2.46097 0
M  V30 7616 H 701.947 -5.47219 -0.53207 0
M  V30 7617 H 703.172 -6.75149 -0.731509 0
M  V30 7618 H 701.118 -5.92415 -2.81745 0
M  V30 7619 H 701.035 -7.33802 -1.81852 0
M  V30 7620 H 702.303 -7.19498 -2.99905 0
M  V30 7621 N 706.532 -0.168513 -1.56696 0
M  V30 7622 C 707.78 0.476216 -1.96409 0
M  V30 7623 C 708.101 1.63968 -1.05544 0
M  V30 7624 O 707.371 1.95525 -0.121235 0
M  V30 7625 H 705.951 0.178921 -0.725256 0
M  V30 7626 H 708.613 -0.249042 -1.93302 0
M  V30 7627 H 707.709 0.838094 -3.00637 0
M  V30 7628 N 708.01 1.57248 0.105221 0
M  V30 7629 C 709.235 1.90143 0.828264 0
M  V30 7630 C 709.66 0.761811 1.71983 0
M  V30 7631 O 709.018 -0.287086 1.79013 0
M  V30 7632 C 709.066 3.21856 1.62608 0
M  V30 7633 O 708.17 3.08732 2.7342 0
M  V30 7634 H 707.511 0.623558 0.228192 0
M  V30 7635 H 710.041 2.0443 0.0834826 0
M  V30 7636 H 710.051 3.54916 2.01243 0
M  V30 7637 H 708.726 4.0439 0.971687 0
M  V30 7638 H 707.303 2.87167 2.37886 0
M  V30 7639 N 709.488 -0.375779 1.53054 0
M  V30 7640 C 710.736 -1.11727 1.68409 0
M  V30 7641 C 711.057 -1.90127 0.43323 0
M  V30 7642 O 710.327 -1.87945 -0.552595 0
M  V30 7643 H 708.907 -0.415451 0.620813 0
M  V30 7644 H 711.569 -0.424869 1.90213 0
M  V30 7645 H 710.665 -1.8128 2.54055 0
M  V30 7646 N 710.966 -1.44241 -0.634997 0
M  V30 7647 C 712.196 -1.50078 -1.41987 0
M  V30 7648 C 712.604 -0.123072 -1.88799 0
M  V30 7649 O 711.947 0.880552 -1.6122 0
M  V30 7650 C 712.009 -2.40033 -2.67628 0
M  V30 7651 C 711.673 -3.87268 -2.42637 0
M  V30 7652 C 712.67 -4.77902 -2.04708 0
M  V30 7653 C 710.355 -4.31933 -2.56396 0
M  V30 7654 C 712.349 -6.11202 -1.80862 0
M  V30 7655 C 710.036 -5.65281 -2.32164 0
M  V30 7656 C 711.034 -6.54734 -1.94455 0
M  V30 7657 O 710.722 -7.85613 -1.7049 0
M  V30 7658 H 710.454 -0.51146 -0.442023 0
M  V30 7659 H 713.008 -1.89843 -0.784138 0
M  V30 7660 H 711.238 -1.95188 -3.33824 0
M  V30 7661 H 712.927 -2.36863 -3.29622 0
M  V30 7662 H 713.693 -4.44668 -1.93638 0
M  V30 7663 H 709.572 -3.62569 -2.84719 0
M  V30 7664 H 713.116 -6.80983 -1.51353 0
M  V30 7665 H 709.013 -5.98078 -2.42843 0
M  V30 7666 H 709.781 -7.97373 -1.84767 0
M  V30 7667 N 712.444 0.87505 -1.31075 0
M  V30 7668 C 713.669 1.66583 -1.23551 0
M  V30 7669 C 714.094 1.87067 0.19686 0
M  V30 7670 O 713.452 1.40877 1.1412 0
M  V30 7671 C 713.5 3.01401 -1.97965 0
M  V30 7672 O 712.604 3.90923 -1.31351 0
M  V30 7673 H 711.945 0.508645 -0.426821 0
M  V30 7674 H 714.475 1.09139 -1.7306 0
M  V30 7675 H 714.485 3.51374 -2.07366 0
M  V30 7676 H 713.16 2.85812 -3.02133 0
M  V30 7677 H 711.737 3.49369 -1.30368 0
M  V30 7678 N 713.922 1.13953 1.08869 0
M  V30 7679 C 714.852 0.844824 2.17681 0
M  V30 7680 C 715.833 -0.198213 1.68941 0
M  V30 7681 O 717.018 -0.0559073 1.9412 0
M  V30 7682 C 714.148 0.316325 3.45856 0
M  V30 7683 C 713.102 1.29426 4.07962 0
M  V30 7684 C 712.428 0.625275 5.31031 0
M  V30 7685 C 713.728 2.65484 4.49795 0
M  V30 7686 H 715.422 1.75471 2.42591 0
M  V30 7687 H 712.968 0.845116 1.16592 0
M  V30 7688 H 714.921 0.0977876 4.21287 0
M  V30 7689 H 713.645 -0.628972 3.20486 0
M  V30 7690 H 712.304 1.49889 3.34558 0
M  V30 7691 H 711.952 -0.325678 5.01945 0
M  V30 7692 H 711.652 1.27777 5.73539 0
M  V30 7693 H 713.176 0.416152 6.0918 0
M  V30 7694 H 714.59 2.48957 5.16424 0
M  V30 7695 H 712.987 3.26963 5.03205 0
M  V30 7696 H 714.057 3.22717 3.61914 0
M  V30 7697 N 715.4 -1.26948 0.933913 0
M  V30 7698 C 716.347 -2.26635 0.436484 0
M  V30 7699 C 717.317 -1.58397 -0.499953 0
M  V30 7700 O 718.502 -1.86171 -0.417753 0
M  V30 7701 C 715.642 -3.43803 -0.298951 0
M  V30 7702 C 714.755 -4.26736 0.672316 0
M  V30 7703 C 713.89 -5.31134 -0.0835872 0
M  V30 7704 C 712.929 -6.05742 0.879979 0
M  V30 7705 N 712.066 -7.01926 0.156301 0
M  V30 7706 H 716.906 -2.68558 1.29154 0
M  V30 7707 H 714.443 -1.32052 0.648118 0
M  V30 7708 H 716.401 -4.10554 -0.741723 0
M  V30 7709 H 715.031 -3.02814 -1.1182 0
M  V30 7710 H 714.083 -3.59842 1.23361 0
M  V30 7711 H 715.395 -4.78502 1.40846 0
M  V30 7712 H 714.549 -6.03863 -0.585984 0
M  V30 7713 H 713.288 -4.80188 -0.852661 0
M  V30 7714 H 712.293 -5.31846 1.39357 0
M  V30 7715 H 713.518 -6.58777 1.64894 0
M  V30 7716 H 711.464 -6.53301 -0.594413 0
M  V30 7717 H 711.381 -7.51409 0.831906 0
M  V30 7718 H 712.649 -7.78821 -0.325239 0
M  V30 7719 N 716.879 -0.700114 -1.41195 0
M  V30 7720 C 717.842 -0.0465706 -2.29153 0
M  V30 7721 C 718.842 0.703302 -1.44604 0
M  V30 7722 O 720.032 0.537513 -1.657 0
M  V30 7723 C 717.164 0.944324 -3.2756 0
M  V30 7724 H 718.357 -0.821064 -2.88442 0
M  V30 7725 H 715.91 -0.463869 -1.49258 0
M  V30 7726 H 716.645 1.74642 -2.73259 0
M  V30 7727 H 716.43 0.409701 -3.89954 0
M  V30 7728 H 717.92 1.39925 -3.9346 0
M  V30 7729 N 718.357 1.51182 -0.445186 0
M  V30 7730 C 719.585 2.06568 0.117091 0
M  V30 7731 C 720 1.31182 1.35781 0
M  V30 7732 O 719.357 0.373605 1.78635 0
M  V30 7733 C 719.408 3.58917 0.431408 0
M  V30 7734 O 719.129 4.31456 -0.760078 0
M  V30 7735 C 720.63 4.30843 1.0435 0
M  V30 7736 H 717.85 0.670985 0.00444436 0
M  V30 7737 H 720.394 1.94666 -0.626525 0
M  V30 7738 H 718.549 3.70708 1.12493 0
M  V30 7739 H 718.963 5.22215 -0.489048 0
M  V30 7740 H 720.437 5.38499 1.21337 0
M  V30 7741 H 720.914 3.89644 2.02667 0
M  V30 7742 H 721.52 4.23516 0.38913 0
M  V30 7743 N 719.835 0.176821 1.56605 0
M  V30 7744 C 721.063 -0.472828 2.01425 0
M  V30 7745 C 721.478 -1.56436 1.05703 0
M  V30 7746 O 720.835 -1.82405 0.058808 0
M  V30 7747 C 720.886 -1.04607 3.46034 0
M  V30 7748 O 720.607 0.00189608 4.381 0
M  V30 7749 C 722.108 -1.7734 4.06282 0
M  V30 7750 H 719.328 -0.120503 0.660091 0
M  V30 7751 H 721.872 0.280166 2.02572 0
M  V30 7752 H 720.027 -1.74953 3.45645 0
M  V30 7753 H 720.441 -0.422118 5.22799 0
M  V30 7754 H 721.915 -2.12703 5.09374 0
M  V30 7755 H 722.392 -2.67043 3.4869 0
M  V30 7756 H 722.998 -1.11623 4.10391 0
M  V30 7757 N 721.313 -1.57302 -0.09688 0
M  V30 7758 C 722.246 -1.97179 -1.14872 0
M  V30 7759 C 723.224 -0.844734 -1.38935 0
M  V30 7760 O 724.408 -1.10487 -1.52725 0
M  V30 7761 C 721.535 -2.28703 -2.49826 0
M  V30 7762 C 720.581 -3.51158 -2.42054 0
M  V30 7763 S 721.414 -5.0294 -1.83879 0
M  V30 7764 C 722.57 -5.37639 -3.2046 0
M  V30 7765 H 722.803 -2.86088 -0.808771 0
M  V30 7766 H 720.336 -1.51368 -0.304492 0
M  V30 7767 H 722.294 -2.47541 -3.27466 0
M  V30 7768 H 720.955 -1.40368 -2.8099 0
M  V30 7769 H 720.148 -3.70651 -3.41517 0
M  V30 7770 H 719.75 -3.31821 -1.72543 0
M  V30 7771 H 722.042 -5.34175 -4.16729 0
M  V30 7772 H 722.985 -6.38677 -3.05773 0
M  V30 7773 H 723.393 -4.651 -3.19909 0
M  V30 7774 N 722.791 0.367657 -1.53252 0
M  V30 7775 C 723.724 1.47264 -1.74323 0
M  V30 7776 C 724.702 1.51458 -0.591535 0
M  V30 7777 O 725.886 1.69542 -0.823883 0
M  V30 7778 C 723.013 2.85637 -1.82015 0
M  V30 7779 C 722.059 2.99176 -3.03967 0
M  V30 7780 S 722.892 2.68147 -4.63527 0
M  V30 7781 C 724.048 4.08673 -4.74065 0
M  V30 7782 H 724.281 1.29169 -2.67773 0
M  V30 7783 H 721.814 0.561866 -1.43814 0
M  V30 7784 H 723.772 3.65365 -1.87132 0
M  V30 7785 H 722.433 3.01043 -0.896195 0
M  V30 7786 H 721.626 4.00511 -3.05953 0
M  V30 7787 H 721.228 2.27367 -2.96952 0
M  V30 7788 H 723.52 5.02889 -4.53992 0
M  V30 7789 H 724.463 4.11693 -5.7612 0
M  V30 7790 H 724.871 3.95576 -4.02716 0
M  V30 7791 N 724.269 1.44576 0.627338 0
M  V30 7792 C 725.518 1.46837 1.38281 0
M  V30 7793 C 725.831 0.10635 1.95311 0
M  V30 7794 O 727.037 0.00651084 2.71499 0
M  V30 7795 C 725.493 2.58527 2.50384 0
M  V30 7796 C 725.101 4.00953 1.99851 0
M  V30 7797 C 726.845 2.70013 3.27557 0
M  V30 7798 C 724.752 5.0406 3.09318 0
M  V30 7799 H 723.682 0.546319 0.519664 0
M  V30 7800 H 726.333 1.70654 0.674497 0
M  V30 7801 H 724.715 2.27957 3.23808 0
M  V30 7802 H 725.889 4.41108 1.33267 0
M  V30 7803 H 724.204 3.93743 1.35482 0
M  V30 7804 H 726.801 3.44217 4.09168 0
M  V30 7805 H 727.144 1.75961 3.77284 0
M  V30 7806 H 727.677 3.00011 2.61224 0
M  V30 7807 H 724.416 5.99753 2.6453 0
M  V30 7808 H 723.936 4.68493 3.74532 0
M  V30 7809 H 725.615 5.2793 3.74031 0
M  V30 7810 N 725.747 -0.868086 1.31537 0
M  V30 7811 C 727.163 -1.15414 1.10235 0
M  V30 7812 C 727.363 -2.01106 -0.125947 0
M  V30 7813 O 726.419 -2.38994 -0.814734 0
M  V30 7814 C 727.732 -1.84445 2.37488 0
M  V30 7815 C 729.28 -1.97139 2.43116 0
M  V30 7816 C 729.755 -2.69585 3.70254 0
M  V30 7817 N 731.246 -2.77119 3.71159 0
M  V30 7818 C 731.981 -3.33791 4.6623 0
M  V30 7819 N 731.477 -3.9138 5.71659 0
M  V30 7820 N 733.27 -3.31767 4.53747 0
M  V30 7821 H 725.421 -0.297109 2.10312 0
M  V30 7822 H 727.684 -0.194227 0.92789 0
M  V30 7823 H 727.39 -1.2893 3.27215 0
M  V30 7824 H 727.264 -2.84709 2.47428 0
M  V30 7825 H 729.651 -2.51818 1.53856 0
M  V30 7826 H 729.732 -0.95912 2.37138 0
M  V30 7827 H 729.376 -2.15572 4.59881 0
M  V30 7828 H 729.306 -3.71223 3.73499 0
M  V30 7829 H 731.797 -2.3625 2.94948 0
M  V30 7830 H 732.11 -4.3274 6.40278 0
M  V30 7831 H 730.455 -3.8975 5.7543 0
M  V30 7832 H 733.646 -2.86016 3.70557 0
M  V30 7833 H 733.819 -3.75636 5.28017 0
M  V30 7834 N 727.225 -1.14528 -1.08264 0
M  V30 7835 C 728.636 -0.925261 -1.6216 0
M  V30 7836 C 728.987 0.535587 -1.88748 0
M  V30 7837 O 728.112 1.4048 -1.64604 0
M  V30 7838 C 728.707 -1.67316 -2.94603 0
M  V30 7839 C 727.266 -1.49868 -3.45278 0
M  V30 7840 C 726.413 -1.69471 -2.19487 0
M  V30 7841 H 729.364 -1.29687 -0.914707 0
M  V30 7842 H 729.385 -1.13721 -3.63109 0
M  V30 7843 H 728.897 -2.73635 -2.75219 0
M  V30 7844 H 726.998 -0.459032 -3.69762 0
M  V30 7845 H 727.111 -2.2696 -4.21931 0
M  V30 7846 H 725.475 -1.12048 -2.2873 0
M  V30 7847 H 726.258 -2.77136 -2.0261 0
M  V30 7848 N 728.703 1.26451 -0.940633 0
M  V30 7849 C 729.666 2.24651 -0.454378 0
M  V30 7850 C 730.666 1.54826 0.434222 0
M  V30 7851 O 731.856 1.72628 0.233477 0
M  V30 7852 C 728.988 3.39148 0.345192 0
M  V30 7853 H 730.181 2.69182 -1.32217 0
M  V30 7854 H 727.734 1.38596 -0.722547 0
M  V30 7855 H 728.469 3.00018 1.23125 0
M  V30 7856 H 728.254 3.9101 -0.292107 0
M  V30 7857 H 729.744 4.12103 0.675341 0
M  V30 7858 N 730.181 0.707592 1.40822 0
M  V30 7859 C 731.458 0.171172 1.9485 0
M  V30 7860 C 731.838 -1.32143 1.64625 0
M  V30 7861 O 731.186 -2.07372 0.959647 0
M  V30 7862 C 731.396 0.475334 3.45748 0
M  V30 7863 C 732.744 0.409625 4.22619 0
M  V30 7864 O 733.768 0.410934 3.53822 0
M  V30 7865 O 732.627 0.380185 5.45176 0
M  V30 7866 H 729.721 0.022015 0.826707 0
M  V30 7867 H 732.267 0.784577 1.50474 0
M  V30 7868 H 731.039 1.50801 3.61075 0
M  V30 7869 H 730.662 -0.168439 3.97243 0
M  V30 7870 N 731.66 -1.50943 0.453197 0
M  V30 7871 C 732.907 -2.02212 -0.107922 0
M  V30 7872 C 733.235 -1.33639 -1.41318 0
M  V30 7873 O 732.49 -0.445154 -1.9057 0
M  V30 7874 C 732.789 -3.55603 -0.357944 0
M  V30 7875 C 732.455 -4.42556 0.863427 0
M  V30 7876 C 731.117 -4.6604 1.19834 0
M  V30 7877 C 733.469 -4.93468 1.67747 0
M  V30 7878 C 730.797 -5.37681 2.34768 0
M  V30 7879 C 733.149 -5.6637 2.81793 0
M  V30 7880 C 731.813 -5.88113 3.1572 0
M  V30 7881 H 731.083 -0.739947 -0.0394916 0
M  V30 7882 H 733.73 -1.81738 0.60363 0
M  V30 7883 H 732.035 -3.74495 -1.15156 0
M  V30 7884 H 733.732 -3.92821 -0.805781 0
M  V30 7885 H 730.322 -4.24485 0.592478 0
M  V30 7886 H 734.506 -4.75194 1.43192 0
M  V30 7887 H 729.762 -5.52727 2.61348 0
M  V30 7888 H 733.936 -6.04806 3.45229 0
M  V30 7889 H 731.563 -6.43404 4.04889 0
M  V30 7890 O 733.177 -0.326351 -1.58168 0
M  V30 7891 H 733.868 0.23289 -1.92295 0
M  V30 END ATOM
M  V30 BEGIN BOND
M  V30 END BOND
M  V30 END CTAB
M  END
$$$$
