drugbank_target|O15146 Muscle, skeletal receptor tyrosine-protein kinase (DB12010)
 OpenBabel12092121173D

  0  0  0     0  0            999 V3000
M  V30 BEGIN CTAB
M  V30 COUNTS 13645 13804 0 0 0
M  V30 BEGIN ATOM
M  V30 1 H -0.908 1.98254 -0.117106 0
M  V30 2 N 0 1.576 0 0
M  V30 3 C 0.933 2.03868 1.02534 0
M  V30 4 C 1.911 0.928543 1.3348 0
M  V30 5 O 3.095 1.19667 1.45644 0
M  V30 6 C 0.222 2.43627 2.35294 0
M  V30 7 C -0.732 3.65373 2.2001 0
M  V30 8 S 0.101 5.13292 1.52614 0
M  V30 9 C 1.257 5.56322 2.86805 0
M  V30 10 H 1.49 2.90518 0.631377 0
M  V30 11 H -0.977 1.52953 0.210867 0
M  V30 12 H 0.981 2.67203 3.11629 0
M  V30 13 H -0.358 1.57376 2.7183 0
M  V30 14 H -1.165 3.90944 3.18086 0
M  V30 15 H -1.563 3.418 1.51819 0
M  V30 16 H 0.729 5.58782 3.83104 0
M  V30 17 H 1.672 6.56266 2.65933 0
M  V30 18 H 2.08 4.83886 2.90714 0
M  V30 19 N 1.4781 -0.272755 1.55222 0
M  V30 20 C 2.8941 -0.619959 1.47067 0
M  V30 21 C 3.0941 -1.895 0.684978 0
M  V30 22 O 2.1501 -2.51675 0.203931 0
M  V30 23 C 3.4631 -0.746693 2.91282 0
M  V30 24 C 5.0111 -0.840731 3.01497 0
M  V30 25 C 5.4861 -0.99924 4.46967 0
M  V30 26 N 6.9771 -1.06476 4.50796 0
M  V30 27 C 7.7121 -1.20621 5.6057 0
M  V30 28 N 7.2081 -1.31483 6.80209 0
M  V30 29 N 9.0011 -1.23733 5.48312 0
M  V30 30 H 1.1521 0.564606 2.04758 0
M  V30 31 H 3.4151 0.191177 0.928523 0
M  V30 32 H 3.1211 0.119753 3.51496 0
M  V30 33 H 2.9951 -1.6269 3.40311 0
M  V30 34 H 5.3821 -1.69764 2.41379 0
M  V30 35 H 5.4631 0.0640874 2.5572 0
M  V30 36 H 5.1071 -0.146984 5.07687 0
M  V30 37 H 5.0371 -1.91871 4.90401 0
M  V30 38 H 7.5281 -0.993196 3.64615 0
M  V30 39 H 7.8411 -1.42111 7.59621 0
M  V30 40 H 6.1861 -1.28487 6.8302 0
M  V30 41 H 9.3771 -1.14877 4.53785 0
M  V30 42 H 9.5501 -1.34412 6.33906 0
M  V30 43 N 2.9562 -1.48159 -0.537278 0
M  V30 44 C 3.8662 -1.64807 -1.6696 0
M  V30 45 C 4.8822 -0.530651 -1.65711 0
M  V30 46 O 6.0582 -0.800784 -1.84796 0
M  V30 47 C 3.1232 -1.67708 -3.03438 0
M  V30 48 C 2.1842 -2.91025 -3.156 0
M  V30 49 C 1.4172 -2.93778 -4.45567 0
M  V30 50 O 1.6402 -2.05153 -5.3223 0
M  V30 51 O 0.5742 -3.85868 -4.61941 0
M  V30 52 H 4.4002 -2.6066 -1.55853 0
M  V30 53 H 1.9852 -1.31475 -0.709549 0
M  V30 54 H 3.8672 -1.7218 -3.84619 0
M  V30 55 H 2.5422 -0.750278 -3.14885 0
M  V30 56 H 1.4492 -2.92089 -2.33741 0
M  V30 57 H 2.7822 -3.83065 -3.09066 0
M  V30 58 N 4.4343 0.785586 -1.36625 0
M  V30 59 C 5.3643 1.91259 -1.33949 0
M  V30 60 C 6.3453 1.68795 -0.210325 0
M  V30 61 O 7.5303 1.89854 -0.408561 0
M  V30 62 C 4.6603 3.28339 -1.13186 0
M  V30 63 C 3.6143 3.65335 -2.22967 0
M  V30 64 C 2.9403 5.00806 -1.87342 0
M  V30 65 C 4.2403 3.7352 -3.65075 0
M  V30 66 H 5.9343 1.93755 -2.28253 0
M  V30 67 H 3.4803 0.930788 -1.09874 0
M  V30 68 H 5.4333 4.06804 -1.09948 0
M  V30 69 H 4.1573 3.2624 -0.153332 0
M  V30 70 H 2.8163 2.89169 -2.25337 0
M  V30 71 H 2.4643 4.95233 -0.880545 0
M  V30 72 H 2.1643 5.26529 -2.60846 0
M  V30 73 H 3.6883 5.81687 -1.85667 0
M  V30 74 H 5.1023 4.42168 -3.64911 0
M  V30 75 H 3.4993 4.10731 -4.37516 0
M  V30 76 H 4.5693 2.74527 -3.99703 0
M  V30 77 N 5.9124 1.20967 1.01018 0
M  V30 78 C 7.1584 1.02526 1.74975 0
M  V30 79 C 7.4914 -0.4408 1.89131 0
M  V30 80 O 6.7664 -1.32718 1.42184 0
M  V30 81 C 7.0494 1.71699 3.1653 0
M  V30 82 C 6.9024 3.25791 3.10129 0
M  V30 83 C 8.2214 1.45531 4.15342 0
M  V30 84 H 5.3404 0.373863 0.635134 0
M  V30 85 H 7.9824 1.49071 1.17805 0
M  V30 86 H 6.1324 1.32128 3.65341 0
M  V30 87 H 7.8044 3.74697 2.69072 0
M  V30 88 H 6.0474 3.56363 2.47362 0
M  V30 89 H 6.7184 3.69353 4.10222 0
M  V30 90 H 9.1944 1.79872 3.75213 0
M  V30 91 H 8.0704 1.96453 5.1254 0
M  V30 92 H 8.3314 0.384237 4.40427 0
M  V30 93 N 7.3905 -1.2043 1.01659 0
M  V30 94 C 8.3385 -2.25249 0.580143 0
M  V30 95 C 9.3325 -1.65057 -0.381115 0
M  V30 96 O 10.5385 -1.78241 -0.251039 0
M  V30 97 H 6.9135 -0.732695 0.169299 0
M  V30 98 H 8.8845 -2.59389 1.47512 0
M  V30 99 C 7.6335 -3.47638 -0.065788 0
M  V30 100 H 6.9565 -3.94233 0.664874 0
M  V30 101 H 8.3965 -4.2268 -0.334282 0
M  V30 102 C 6.8555 -3.10447 -1.3086 0
M  V30 103 O 7.3855 -3.21981 -2.4019 0
M  V30 104 N 5.5915 -2.64996 -1.1927 0
M  V30 105 H 5.1385 -2.55811 -0.303064 0
M  V30 106 H 5.0965 -2.40482 -2.02523 0
M  V30 107 N 8.8686 -0.792821 -1.36206 0
M  V30 108 C 10.1176 -0.363353 -1.984 0
M  V30 109 C 10.4306 1.07172 -1.63626 0
M  V30 110 O 11.6366 1.60362 -2.19081 0
M  V30 111 C 10.0926 -0.59872 -3.54885 0
M  V30 112 C 9.7006 -2.04543 -3.9858 0
M  V30 113 C 11.4446 -0.233926 -4.23855 0
M  V30 114 C 9.3516 -2.22727 -5.47856 0
M  V30 115 H 8.2816 -0.13212 -0.742334 0
M  V30 116 H 10.9326 -0.974935 -1.55458 0
M  V30 117 H 9.3146 0.0826222 -3.95914 0
M  V30 118 H 10.4886 -2.76345 -3.68741 0
M  V30 119 H 8.8036 -2.36879 -3.42458 0
M  V30 120 H 11.4006 -0.348027 -5.33566 0
M  V30 121 H 11.7436 0.818351 -4.08177 0
M  V30 122 H 12.2766 -0.868639 -3.882 0
M  V30 123 H 9.0156 -3.2635 -5.68486 0
M  V30 124 H 8.5356 -1.55434 -5.7931 0
M  V30 125 H 10.2146 -2.03607 -6.14128 0
M  V30 126 N 10.3467 1.47872 -0.545128 0
M  V30 127 C 11.7577 1.86384 -0.108581 0
M  V30 128 C 12.1087 1.45309 1.31832 0
M  V30 129 O 11.2337 0.850641 1.9898 0
M  V30 130 C 11.8287 3.38265 -0.190274 0
M  V30 131 C 10.3877 3.75914 0.191164 0
M  V30 132 C 9.5347 2.71926 -0.543273 0
M  V30 133 H 12.4857 1.39561 -0.755537 0
M  V30 134 H 12.5067 3.75831 0.594217 0
M  V30 135 H 12.0187 3.6813 -1.2289 0
M  V30 136 H 10.1197 3.51665 1.23136 0
M  V30 137 H 10.2327 4.78836 -0.158987 0
M  V30 138 H 8.5967 2.54697 0.0122495 0
M  V30 139 H 9.3797 3.04634 -1.58282 0
M  V30 140 N 11.8248 0.280983 1.55075 0
M  V30 141 C 12.7548 -0.597469 2.25727 0
M  V30 142 C 13.7358 -1.15417 1.24952 0
M  V30 143 O 14.9208 -1.18722 1.53684 0
M  V30 144 C 12.0508 -1.7789 2.98283 0
M  V30 145 C 11.0048 -1.35347 4.06036 0
M  V30 146 C 10.3308 -2.61846 4.66198 0
M  V30 147 C 11.6308 -0.499354 5.19907 0
M  V30 148 H 13.3248 -0.00824265 2.99399 0
M  V30 149 H 10.8708 -0.0025244 1.44 0
M  V30 150 H 12.8238 -2.39937 3.46422 0
M  V30 151 H 11.5478 -2.39405 2.22155 0
M  V30 152 H 10.2068 -0.756156 3.58717 0
M  V30 153 H 9.8548 -3.21632 3.86732 0
M  V30 154 H 9.5548 -2.3409 5.38958 0
M  V30 155 H 11.0788 -3.24732 5.1709 0
M  V30 156 H 12.4928 -1.02498 5.64063 0
M  V30 157 H 10.8898 -0.316424 5.99265 0
M  V30 158 H 11.9598 0.480459 4.82514 0
M  V30 159 N 13.3029 -1.57598 0.00835791 0
M  V30 160 C 14.5489 -1.91211 -0.675732 0
M  V30 161 C 14.8819 -0.883139 -1.72958 0
M  V30 162 O 14.1569 0.097016 -1.94258 0
M  V30 163 C 14.4399 -3.35379 -1.31123 0
M  V30 164 C 14.2929 -4.48999 -0.268356 0
M  V30 165 C 15.6119 -3.7912 -2.23508 0
M  V30 166 H 12.7309 -0.695374 -0.244179 0
M  V30 167 H 15.3729 -1.89901 0.0613655 0
M  V30 168 H 13.5229 -3.36626 -1.93946 0
M  V30 169 H 15.1949 -4.59887 0.360844 0
M  V30 170 H 13.4379 -4.31873 0.408482 0
M  V30 171 H 14.1089 -5.46851 -0.752218 0
M  V30 172 H 16.5849 -3.79477 -1.70693 0
M  V30 173 H 15.4609 -4.80729 -2.64936 0
M  V30 174 H 15.7219 -3.13455 -3.11766 0
M  V30 175 N 14.781 0.264519 -1.55364 0
M  V30 176 C 15.731 1.32966 -1.85214 0
M  V30 177 C 16.715 1.44306 -0.711653 0
M  V30 178 O 17.907 1.47844 -0.973192 0
M  V30 179 C 15.036 2.68839 -2.13495 0
M  V30 180 C 14.122 2.61575 -3.33825 0
M  V30 181 N 14.513 2.23933 -4.53528 0
M  V30 182 C 12.811 2.92621 -3.36584 0
M  V30 183 C 13.512 2.26868 -5.35636 0
M  V30 184 N 12.488 2.65677 -4.74254 0
M  V30 185 H 16.29 1.02884 -2.75304 0
M  V30 186 H 13.804 0.473157 -1.55354 0
M  V30 187 H 15.801 3.45685 -2.33039 0
M  V30 188 H 14.461 2.99802 -1.24694 0
M  V30 189 H 15.472 1.95769 -4.79474 0
M  V30 190 H 12.149 3.2824 -2.58002 0
M  V30 191 H 13.539 2.00254 -6.41364 0
M  V30 192 N 16.2591 1.48442 0.529413 0
M  V30 193 C 17.5081 1.55742 1.28169 0
M  V30 194 C 17.8211 0.236511 1.94165 0
M  V30 195 O 19.0271 0.187761 2.7085 0
M  V30 196 C 17.4831 2.74667 2.32564 0
M  V30 197 C 17.0911 4.13402 1.72636 0
M  V30 198 C 18.8351 2.9128 3.08798 0
M  V30 199 C 16.7421 5.23587 2.74975 0
M  V30 200 H 15.6721 0.579796 0.48203 0
M  V30 201 H 18.3231 1.74776 0.559056 0
M  V30 202 H 16.7051 2.49067 3.07866 0
M  V30 203 H 17.8791 4.49022 1.03519 0
M  V30 204 H 16.1941 4.0191 1.08892 0
M  V30 205 H 18.7911 3.70767 3.85274 0
M  V30 206 H 19.1341 2.00757 3.64695 0
M  V30 207 H 19.6671 3.16782 2.40611 0
M  V30 208 H 16.4061 6.16076 2.23897 0
M  V30 209 H 15.9261 4.92454 3.42417 0
M  V30 210 H 17.6051 5.51724 3.37949 0
M  V30 211 N 17.7372 -0.778329 1.37039 0
M  V30 212 C 18.6672 -1.90546 1.34962 0
M  V30 213 C 19.6482 -1.68681 0.219274 0
M  V30 214 O 20.8332 -1.89634 0.418624 0
M  V30 215 C 17.9632 -3.27734 1.14925 0
M  V30 216 C 16.9172 -3.64147 2.24902 0
M  V30 217 C 16.2432 -4.99806 1.89996 0
M  V30 218 C 17.5432 -3.71579 3.67051 0
M  V30 219 H 19.2372 -1.92541 2.29277 0
M  V30 220 H 16.7832 -0.924948 1.10366 0
M  V30 221 H 18.7362 -4.06215 1.12104 0
M  V30 222 H 17.4602 -3.26154 0.170631 0
M  V30 223 H 16.1192 -2.8797 2.26868 0
M  V30 224 H 15.7672 -4.94759 0.906796 0
M  V30 225 H 15.4672 -5.25139 2.63634 0
M  V30 226 H 16.9912 -5.80694 1.88749 0
M  V30 227 H 18.4052 -4.40227 3.67251 0
M  V30 228 H 16.8022 -4.08405 4.39688 0
M  V30 229 H 17.8722 -2.72404 4.01154 0
M  V30 230 N 19.2153 -1.21501 -1.00376 0
M  V30 231 C 20.4433 -1.059 -1.77744 0
M  V30 232 C 20.8583 0.391125 -1.84704 0
M  V30 233 O 20.2153 1.27133 -1.30933 0
M  V30 234 C 20.2663 -1.65111 -3.21591 0
M  V30 235 O 19.9873 -3.0445 -3.15027 0
M  V30 236 C 21.4883 -1.54637 -4.15454 0
M  V30 237 H 18.7083 -0.371825 -0.558558 0
M  V30 238 H 21.2523 -1.60865 -1.26264 0
M  V30 239 H 19.4073 -1.14235 -3.70175 0
M  V30 240 H 19.8213 -3.3278 -4.0541 0
M  V30 241 H 21.2953 -2.00808 -5.14179 0
M  V30 242 H 21.7723 -0.501022 -4.36333 0
M  V30 243 H 22.3783 -2.04767 -3.72761 0
M  V30 244 N 20.6934 1.19889 -1.02296 0
M  V30 245 C 21.6234 2.25141 -0.619174 0
M  V30 246 C 22.6044 1.66051 0.368915 0
M  V30 247 O 23.7894 1.92546 0.252941 0
M  V30 248 C 20.9194 3.4728 0.0368783 0
M  V30 249 C 19.8734 4.19005 -0.872865 0
M  V30 250 C 19.1994 5.34637 -0.0822402 0
M  V30 251 C 20.4994 4.74452 -2.18387 0
M  V30 252 H 22.1934 2.59171 -1.49903 0
M  V30 253 H 19.7394 1.24579 -0.722222 0
M  V30 254 H 21.6924 4.20098 0.330958 0
M  V30 255 H 20.4164 3.12433 0.95149 0
M  V30 256 H 19.0754 3.48061 -1.15105 0
M  V30 257 H 18.7234 4.96034 0.83422 0
M  V30 258 H 18.4234 5.83557 -0.688149 0
M  V30 259 H 19.9474 6.10255 0.205238 0
M  V30 260 H 21.3614 5.39055 -1.95172 0
M  V30 261 H 19.7584 5.33834 -2.74119 0
M  V30 262 H 20.8284 3.92844 -2.84257 0
M  V30 263 N 22.1715 0.800033 1.35784 0
M  V30 264 C 23.4175 0.377901 1.99248 0
M  V30 265 C 23.7505 -1.05052 1.63333 0
M  V30 266 O 23.0255 -1.72768 0.893385 0
M  V30 267 C 23.3085 0.553922 3.55814 0
M  V30 268 C 23.1615 2.0268 4.01548 0
M  V30 269 C 24.4805 -0.0244802 4.40093 0
M  V30 270 H 21.5995 0.138782 0.723815 0
M  V30 271 H 24.2415 1.00835 1.61035 0
M  V30 272 H 22.3915 0.0172398 3.88496 0
M  V30 273 H 24.0635 2.62536 3.79305 0
M  V30 274 H 22.3065 2.5256 3.52698 0
M  V30 275 H 22.9775 2.10087 5.10458 0
M  V30 276 H 25.4535 0.433775 4.13833 0
M  V30 277 H 24.3295 0.128637 5.48749 0
M  V30 278 H 24.5905 -1.11758 4.27741 0
M  V30 279 N 23.6496 -1.47581 0.552962 0
M  V30 280 C 24.6126 -2.28439 -0.186605 0
M  V30 281 C 25.6126 -1.36706 -0.84665 0
M  V30 282 O 26.8026 -1.59378 -0.703164 0
M  V30 283 C 23.9346 -3.16264 -1.2724 0
M  V30 284 H 25.1276 -2.95294 0.523609 0
M  V30 285 H 22.6806 -1.532 0.309745 0
M  V30 286 H 23.4156 -2.54091 -2.01514 0
M  V30 287 H 23.2006 -3.83769 -0.803968 0
M  V30 288 H 24.6906 -3.77198 -1.79196 0
M  V30 289 N 25.1277 -0.289203 -1.54924 0
M  V30 290 C 26.3747 0.323519 -1.99899 0
M  V30 291 C 26.7027 1.54797 -1.17762 0
M  V30 292 O 25.9577 1.94237 -0.238835 0
M  V30 293 C 26.2567 0.736119 -3.49737 0
M  V30 294 C 25.9227 -0.385276 -4.49251 0
M  V30 295 C 24.5847 -0.693156 -4.76181 0
M  V30 296 C 26.9367 -1.14021 -5.08575 0
M  V30 297 C 24.2647 -1.7593 -5.59701 0
M  V30 298 C 26.6167 -2.19619 -5.93254 0
M  V30 299 C 25.2807 -2.51026 -6.185 0
M  V30 300 H 24.5507 0.118384 -0.731482 0
M  V30 301 H 27.1977 -0.405847 -1.8715 0
M  V30 302 H 25.5027 1.54539 -3.60035 0
M  V30 303 H 27.1997 1.22118 -3.81953 0
M  V30 304 H 23.7897 -0.135202 -4.28387 0
M  V30 305 H 27.9737 -0.915611 -4.87781 0
M  V30 306 H 23.2297 -2.0075 -5.77503 0
M  V30 307 H 27.4037 -2.78581 -6.38252 0
M  V30 308 H 25.0307 -3.33772 -6.83008 0
M  V30 309 N 26.6058 1.57591 -0.0167156 0
M  V30 310 C 27.8308 1.9598 0.67872 0
M  V30 311 C 28.2558 0.892546 1.65575 0
M  V30 312 O 27.6138 -0.147772 1.80697 0
M  V30 313 C 27.6618 3.33468 1.37227 0
M  V30 314 O 26.7658 3.28954 2.48722 0
M  V30 315 H 26.1068 0.639339 0.17928 0
M  V30 316 H 28.6368 2.04463 -0.0748802 0
M  V30 317 H 28.6468 3.69417 1.7319 0
M  V30 318 H 27.3218 4.10694 0.656007 0
M  V30 319 H 25.8988 3.04705 2.14963 0
M  V30 320 N 28.0839 -0.256276 1.55502 0
M  V30 321 C 29.3319 -0.983672 1.76545 0
M  V30 322 C 29.6529 -1.86206 0.578982 0
M  V30 323 O 28.9229 -1.91656 -0.405577 0
M  V30 324 H 27.5029 -0.366191 0.651086 0
M  V30 325 H 30.1649 -0.276479 1.92929 0
M  V30 326 H 29.2609 -1.61087 2.67315 0
M  V30 327 N 29.562 -1.4872 -0.521534 0
M  V30 328 C 30.79 -1.60843 -1.30142 0
M  V30 329 C 31.205 -0.271897 -1.86832 0
M  V30 330 O 30.562 0.739969 -1.66825 0
M  V30 331 C 30.613 -2.66155 -2.4463 0
M  V30 332 O 30.334 -3.94623 -1.90275 0
M  V30 333 C 31.835 -2.88795 -3.36322 0
M  V30 334 H 29.055 -0.542075 -0.395468 0
M  V30 335 H 31.599 -1.94609 -0.628285 0
M  V30 336 H 29.754 -2.35224 -3.07812 0
M  V30 337 H 30.168 -4.52468 -2.65279 0
M  V30 338 H 31.642 -3.66264 -4.12983 0
M  V30 339 H 32.119 -1.97934 -3.9207 0
M  V30 340 H 32.725 -3.21063 -2.78924 0
M  V30 341 N 31.0401 0.771051 -1.3745 0
M  V30 342 C 31.9501 1.91538 -1.35464 0
M  V30 343 C 32.9661 1.72134 -0.254123 0
M  V30 344 O 34.1421 1.95358 -0.489626 0
M  V30 345 C 31.2071 3.26671 -1.16134 0
M  V30 346 C 30.2681 3.58723 -2.35831 0
M  V30 347 C 29.5011 4.87409 -2.17413 0
M  V30 348 O 29.7241 5.58506 -1.15876 0
M  V30 349 O 28.6581 5.18539 -3.05615 0
M  V30 350 H 32.4841 1.96165 -2.31847 0
M  V30 351 H 30.0691 0.9139 -1.18187 0
M  V30 352 H 31.9511 4.07499 -1.07345 0
M  V30 353 H 30.6261 3.22894 -0.228251 0
M  V30 354 H 29.5331 2.78127 -2.50192 0
M  V30 355 H 30.8661 3.67243 -3.27709 0
M  V30 356 N 32.5182 1.22032 0.997298 0
M  V30 357 C 33.4652 0.986467 2.08656 0
M  V30 358 C 34.4352 -0.0902671 1.65855 0
M  V30 359 O 35.6202 0.0584294 1.90711 0
M  V30 360 C 32.7602 0.565569 3.40434 0
M  V30 361 C 31.8732 1.71259 3.96604 0
M  V30 362 C 31.0082 1.24011 5.16522 0
M  V30 363 C 30.0472 2.35896 5.64818 0
M  V30 364 N 29.1842 1.89726 6.7598 0
M  V30 365 H 34.0242 1.91892 2.27994 0
M  V30 366 H 31.5612 0.956199 1.11782 0
M  V30 367 H 33.5192 0.302738 4.161 0
M  V30 368 H 32.1492 -0.329879 3.2111 0
M  V30 369 H 31.2012 2.08986 3.17851 0
M  V30 370 H 32.5132 2.55436 4.28432 0
M  V30 371 H 31.6672 0.934395 5.99461 0
M  V30 372 H 30.4062 0.368487 4.86306 0
M  V30 373 H 29.4112 2.67261 4.8047 0
M  V30 374 H 30.6362 3.23567 5.97061 0
M  V30 375 H 28.5822 1.0492 6.47555 0
M  V30 376 H 28.4992 2.67471 7.07103 0
M  V30 377 H 29.7672 1.62211 7.62435 0
M  V30 378 N 33.9963 -1.19345 1.0293 0
M  V30 379 C 34.9263 -2.2481 0.631105 0
M  V30 380 C 35.9073 -1.66245 -0.360104 0
M  V30 381 O 37.0923 -1.92677 -0.242726 0
M  V30 382 C 34.2223 -3.47295 -0.0184607 0
M  V30 383 C 33.1763 -4.18536 0.895073 0
M  V30 384 C 32.5023 -5.34586 0.110592 0
M  V30 385 C 33.8023 -4.73287 2.209 0
M  V30 386 H 35.4963 -2.58372 1.51275 0
M  V30 387 H 33.0423 -1.24194 0.728818 0
M  V30 388 H 34.9953 -4.20268 -0.308675 0
M  V30 389 H 33.7193 -3.12933 -0.934907 0
M  V30 390 H 32.3783 -3.47446 1.16949 0
M  V30 391 H 32.0263 -4.96469 -0.807902 0
M  V30 392 H 31.7263 -5.83183 0.719087 0
M  V30 393 H 33.2503 -6.10355 -0.172871 0
M  V30 394 H 34.6643 -5.38013 1.98028 0
M  V30 395 H 33.0613 -5.32373 2.76946 0
M  V30 396 H 34.1313 -3.91331 2.86336 0
M  V30 397 N 35.4744 -0.807222 -1.35358 0
M  V30 398 C 36.8854 -0.44876 -1.81226 0
M  V30 399 C 37.2364 1.02929 -1.67033 0
M  V30 400 O 36.3614 1.79991 -1.20133 0
M  V30 401 C 36.9564 -0.807774 -3.2903 0
M  V30 402 C 35.5154 -0.501901 -3.73039 0
M  V30 403 C 34.6624 -1.03304 -2.57339 0
M  V30 404 H 37.6134 -0.998808 -1.23327 0
M  V30 405 H 37.6344 -0.10554 -3.80354 0
M  V30 406 H 37.1464 -1.88357 -3.39328 0
M  V30 407 H 35.2474 0.565128 -3.68289 0
M  V30 408 H 35.3604 -1.03497 -4.67787 0
M  V30 409 H 33.7244 -0.455339 -2.50597 0
M  V30 410 H 34.5074 -2.11496 -2.70415 0
M  V30 411 N 36.9525 1.47285 -0.560781 0
M  V30 412 C 37.8995 2.30058 0.18491 0
M  V30 413 C 38.8695 1.39281 0.904986 0
M  V30 414 O 40.0545 1.68241 0.899979 0
M  V30 415 C 37.1945 3.23317 1.20666 0
M  V30 416 C 36.3075 4.29186 0.492285 0
M  V30 417 C 35.4425 5.09592 1.49964 0
M  V30 418 C 34.4815 6.07232 0.770439 0
M  V30 419 N 33.6185 6.80584 1.72479 0
M  V30 420 H 38.4585 2.93302 -0.527048 0
M  V30 421 H 35.9955 1.44568 -0.271738 0
M  V30 422 H 37.9535 3.75811 1.81168 0
M  V30 423 H 36.5835 2.61929 1.88661 0
M  V30 424 H 35.6355 3.7972 -0.227333 0
M  V30 425 H 36.9475 4.98738 -0.0787929 0
M  V30 426 H 36.1015 5.66254 2.17809 0
M  V30 427 H 34.8405 4.3995 2.10464 0
M  V30 428 H 33.8455 5.49745 0.0780846 0
M  V30 429 H 35.0705 6.78884 0.171134 0
M  V30 430 H 33.0165 6.1367 2.3183 0
M  V30 431 H 32.9335 7.46319 1.20596 0
M  V30 432 H 34.2015 7.41818 2.39428 0
M  V30 433 N 38.4306 0.297415 1.54768 0
M  V30 434 C 39.3936 -0.567375 2.22066 0
M  V30 435 C 40.3936 -1.06409 1.20556 0
M  V30 436 O 41.5836 -0.960691 1.45315 0
M  V30 437 C 38.7156 -1.78517 2.90421 0
M  V30 438 H 39.9086 0.0205534 2.99893 0
M  V30 439 H 37.4616 0.0482163 1.56226 0
M  V30 440 H 38.1966 -2.41303 2.16664 0
M  V30 441 H 37.9816 -1.43669 3.64831 0
M  V30 442 H 39.4716 -2.39964 3.41771 0
M  V30 443 N 39.9087 -1.5758 0.0250728 0
M  V30 444 C 41.3197 -1.79476 -0.514323 0
M  V30 445 C 41.6707 -0.934956 -1.72491 0
M  V30 446 O 40.7957 -0.144245 -2.15919 0
M  V30 447 C 41.3907 -3.25503 -0.939842 0
M  V30 448 C 39.9497 -3.48408 -1.42438 0
M  V30 449 C 39.0967 -2.74583 -0.387201 0
M  V30 450 H 42.0477 -1.567 0.25113 0
M  V30 451 H 42.0687 -3.34992 -1.80445 0
M  V30 452 H 41.5807 -3.88056 -0.0585628 0
M  V30 453 H 39.6817 -2.91103 -2.32572 0
M  V30 454 H 39.7947 -4.57119 -1.43455 0
M  V30 455 H 38.1587 -2.39942 -0.854409 0
M  V30 456 H 38.9417 -3.39849 0.485543 0
M  V30 457 N 41.3868 0.248026 -1.55636 0
M  V30 458 C 42.6328 0.97767 -1.77678 0
M  V30 459 C 42.9658 1.85016 -0.590135 0
M  V30 460 O 42.2408 1.90095 0.411611 0
M  V30 461 C 42.5238 1.83914 -3.09593 0
M  V30 462 C 42.3768 0.99491 -4.38659 0
M  V30 463 C 43.6958 2.82183 -3.37729 0
M  V30 464 H 40.8148 0.354005 -0.646413 0
M  V30 465 H 43.4568 0.248253 -1.88371 0
M  V30 466 H 41.6068 2.46104 -3.00608 0
M  V30 467 H 43.2788 0.391789 -4.59633 0
M  V30 468 H 41.5218 0.299231 -4.32767 0
M  V30 469 H 42.1928 1.63145 -5.2734 0
M  V30 470 H 44.6688 2.30129 -3.4667 0
M  V30 471 H 43.5448 3.39582 -4.31249 0
M  V30 472 H 43.8058 3.58588 -2.58586 0
M  V30 473 N 42.8649 1.48995 0.513639 0
M  V30 474 C 44.1139 1.57093 1.2651 0
M  V30 475 C 44.4269 0.257091 1.93903 0
M  V30 476 O 45.6329 0.216478 2.70636 0
M  V30 477 C 44.0889 2.77118 2.29638 0
M  V30 478 C 43.6969 4.15209 1.68241 0
M  V30 479 C 45.4409 2.94538 3.05692 0
M  V30 480 C 43.3479 5.26474 2.69406 0
M  V30 481 H 42.2779 0.584876 0.475854 0
M  V30 482 H 44.9289 1.7536 0.540487 0
M  V30 483 H 43.3109 2.52319 3.05207 0
M  V30 484 H 44.4849 4.50094 0.987505 0
M  V30 485 H 42.7999 4.03042 1.04623 0
M  V30 486 H 45.3969 3.74832 3.8132 0
M  V30 487 H 45.7399 2.04614 3.62545 0
M  V30 488 H 46.2729 3.19316 2.37238 0
M  V30 489 H 43.0119 6.18417 2.17351 0
M  V30 490 H 42.5319 4.96058 3.37175 0
M  V30 491 H 44.2109 5.55277 3.32078 0
M  V30 492 N 44.343 -0.763751 1.37857 0
M  V30 493 C 45.571 -1.55293 1.36718 0
M  V30 494 C 45.986 -1.88745 -0.0455434 0
M  V30 495 O 45.343 -1.52039 -1.00947 0
M  V30 496 C 45.394 -2.85831 2.2132 0
M  V30 497 O 45.115 -2.5381 3.57089 0
M  V30 498 C 46.616 -3.80023 2.28249 0
M  V30 499 H 43.836 -0.480841 0.468009 0
M  V30 500 H 46.38 -0.946009 1.81303 0
M  V30 501 H 44.535 -3.42926 1.80223 0
M  V30 502 H 44.949 -3.37459 4.01524 0
M  V30 503 H 46.423 -4.68599 2.91752 0
M  V30 504 H 46.9 -4.1973 1.2932 0
M  V30 505 H 47.506 -3.28855 2.69693 0
M  V30 506 N 45.8211 -1.22559 -0.990812 0
M  V30 507 C 47.0491 -1.07779 -1.76611 0
M  V30 508 C 47.4641 0.371513 -1.85109 0
M  V30 509 O 46.8211 1.25737 -1.32274 0
M  V30 510 C 46.8721 -1.68512 -3.19822 0
M  V30 511 O 46.5931 -3.07774 -3.1178 0
M  V30 512 C 48.0941 -1.59035 -4.13791 0
M  V30 513 H 45.3141 -0.377729 -0.554583 0
M  V30 514 H 47.8581 -1.62195 -1.24551 0
M  V30 515 H 46.0131 -1.18154 -3.68942 0
M  V30 516 H 46.4271 -3.37062 -4.01858 0
M  V30 517 H 47.9011 -2.0625 -5.1202 0
M  V30 518 H 48.3781 -0.547273 -4.35777 0
M  V30 519 H 48.9841 -2.08709 -3.70568 0
M  V30 520 N 47.2992 1.18797 -1.03562 0
M  V30 521 C 48.7102 1.70322 -0.764676 0
M  V30 522 C 49.0612 1.82708 0.714996 0
M  V30 523 O 48.1862 1.50299 1.55689 0
M  V30 524 C 48.7812 3.09356 -1.38145 0
M  V30 525 C 47.3402 3.58114 -1.15895 0
M  V30 526 C 46.4872 2.34798 -1.4753 0
M  V30 527 H 49.4382 1.03543 -1.20268 0
M  V30 528 H 49.4592 3.72378 -0.781977 0
M  V30 529 H 48.9712 3.00309 -2.45837 0
M  V30 530 H 47.0722 3.72464 -0.100544 0
M  V30 531 H 47.1852 4.4184 -1.8524 0
M  V30 532 H 45.5492 2.38464 -0.894829 0
M  V30 533 H 46.3322 2.28375 -2.56319 0
M  V30 534 N 48.7773 0.814389 1.34928 0
M  V30 535 C 49.7073 0.244827 2.32213 0
M  V30 536 C 50.6883 -0.634024 1.57842 0
M  V30 537 O 51.8733 -0.562676 1.8587 0
M  V30 538 C 49.0033 -0.601106 3.42058 0
M  V30 539 C 47.9573 0.179896 4.27622 0
M  V30 540 C 47.2833 -0.788237 5.28858 0
M  V30 541 C 48.5833 1.38329 5.03649 0
M  V30 542 H 50.2773 1.05763 2.80097 0
M  V30 543 H 47.8233 0.510029 1.34665 0
M  V30 544 H 49.7763 -1.00968 4.09125 0
M  V30 545 H 48.5003 -1.44688 2.92802 0
M  V30 546 H 47.1593 0.569739 3.62146 0
M  V30 547 H 46.8073 -1.62973 4.75866 0
M  V30 548 H 46.5073 -0.269942 5.8698 0
M  V30 549 H 48.0313 -1.19485 5.98795 0
M  V30 550 H 49.4453 1.04918 5.63618 0
M  V30 551 H 47.8423 1.83662 5.71304 0
M  V30 552 H 48.9123 2.16592 4.33839 0
M  V30 553 N 50.2554 -1.46986 0.568584 0
M  V30 554 C 51.1654 -2.33942 -0.17555 0
M  V30 555 C 52.1814 -1.48891 -0.90041 0
M  V30 556 O 53.3574 -1.81794 -0.86676 0
M  V30 557 C 50.4224 -3.25811 -1.18524 0
M  V30 558 C 49.4834 -4.26757 -0.466582 0
M  V30 559 C 48.7164 -5.14236 -1.42817 0
M  V30 560 O 48.9394 -5.04379 -2.66379 0
M  V30 561 O 47.8734 -5.94412 -0.946453 0
M  V30 562 H 51.6994 -2.98896 0.538036 0
M  V30 563 H 49.2844 -1.4573 0.329097 0
M  V30 564 H 51.1664 -3.82527 -1.76779 0
M  V30 565 H 49.8414 -2.63471 -1.88055 0
M  V30 566 H 48.7484 -3.73769 0.157451 0
M  V30 567 H 50.0814 -4.91843 0.187485 0
M  V30 568 N 51.7335 -0.305618 -1.54608 0
M  V30 569 C 52.9615 0.304775 -2.04643 0
M  V30 570 C 53.3765 1.47167 -1.18268 0
M  V30 571 O 52.7335 1.81296 -0.209328 0
M  V30 572 C 52.7845 0.756564 -3.53495 0
M  V30 573 O 52.5055 -0.36389 -4.36586 0
M  V30 574 C 54.0065 1.43163 -4.19546 0
M  V30 575 H 51.2265 0.0655481 -0.667791 0
M  V30 576 H 53.7705 -0.446592 -1.99564 0
M  V30 577 H 51.9255 1.45794 -3.58919 0
M  V30 578 H 52.3395 -0.0113121 -5.24499 0
M  V30 579 H 53.8135 1.69886 -5.25207 0
M  V30 580 H 54.2905 2.37318 -3.69563 0
M  V30 581 H 54.8965 0.773307 -4.18211 0
M  V30 582 N 53.2116 1.57565 -0.0334293 0
M  V30 583 C 54.4576 1.92262 0.645226 0
M  V30 584 C 54.7906 0.910543 1.71531 0
M  V30 585 O 54.0656 -0.066099 1.94388 0
M  V30 586 C 54.3486 3.37422 1.2577 0
M  V30 587 C 54.2016 4.49369 0.196891 0
M  V30 588 C 55.5206 3.82628 2.17449 0
M  V30 589 H 52.6396 0.699171 0.233085 0
M  V30 590 H 55.2816 1.89779 -0.0915694 0
M  V30 591 H 53.4316 3.39669 1.88566 0
M  V30 592 H 55.1036 4.59254 -0.433962 0
M  V30 593 H 53.3466 4.31168 -0.477137 0
M  V30 594 H 54.0176 5.47978 0.665124 0
M  V30 595 H 56.4936 3.82145 1.64634 0
M  V30 596 H 55.3696 4.84883 2.57254 0
M  V30 597 H 55.6306 3.18376 3.0674 0
M  V30 598 N 54.6897 -0.239769 1.55765 0
M  V30 599 C 55.9667 -0.990056 1.68693 0
M  V30 600 C 56.3467 -2.03107 0.5754 0
M  V30 601 O 55.6947 -2.24604 -0.42017 0
M  V30 602 C 55.9047 -1.61696 3.09282 0
M  V30 603 C 57.2527 -2.11613 3.6811 0
M  V30 604 O 58.2767 -1.71624 3.12127 0
M  V30 605 O 57.1357 -2.85057 4.66267 0
M  V30 606 H 54.2297 -0.461299 0.686391 0
M  V30 607 H 56.7757 -0.232991 1.68093 0
M  V30 608 H 55.5477 -0.864357 3.81634 0
M  V30 609 H 55.1707 -2.44005 3.13923 0
M  V30 610 N 56.1678 -1.49265 -0.50573 0
M  V30 611 C 57.1308 -1.65075 -1.59006 0
M  V30 612 C 58.1308 -0.522768 -1.52065 0
M  V30 613 O 59.3208 -0.789117 -1.55302 0
M  V30 614 C 56.4528 -1.64369 -2.98656 0
M  V30 615 H 57.6458 -2.61784 -1.46319 0
M  V30 616 H 55.1988 -1.38226 -0.729616 0
M  V30 617 H 55.9338 -0.692272 -3.16825 0
M  V30 618 H 55.7188 -2.46282 -3.05103 0
M  V30 619 H 57.2088 -1.78674 -3.77446 0
M  V30 620 N 57.6459 0.756429 -1.3826 0
M  V30 621 C 58.5759 1.88374 -1.37976 0
M  V30 622 C 59.5569 1.68311 -0.246082 0
M  V30 623 O 60.7419 1.88944 -0.44874 0
M  V30 624 C 57.8719 3.25864 -1.20125 0
M  V30 625 C 56.8259 3.60523 -2.30666 0
M  V30 626 C 56.1519 4.9672 -1.97923 0
M  V30 627 C 57.4519 3.65692 -3.72916 0
M  V30 628 H 59.1459 1.88869 -2.32312 0
M  V30 629 H 56.6919 0.907272 -1.11824 0
M  V30 630 H 58.6449 4.0438 -1.18552 0
M  V30 631 H 57.3689 3.25841 -0.222498 0
M  V30 632 H 56.0279 2.84324 -2.3142 0
M  V30 633 H 55.6759 4.93253 -0.985393 0
M  V30 634 H 55.3759 5.20878 -2.71955 0
M  V30 635 H 56.8999 5.77618 -1.97964 0
M  V30 636 H 58.3139 4.34328 -3.74208 0
M  V30 637 H 56.7109 4.01358 -4.4613 0
M  V30 638 H 57.7809 2.65987 -4.05436 0
M  V30 639 N 59.124 1.23083 0.984299 0
M  V30 640 C 60.37 1.06214 1.72761 0
M  V30 641 C 60.703 -0.400584 1.90024 0
M  V30 642 O 59.978 -1.29672 1.44967 0
M  V30 643 C 60.261 1.78375 3.12817 0
M  V30 644 C 60.114 3.32296 3.03149 0
M  V30 645 C 61.433 1.54309 4.12161 0
M  V30 646 H 58.552 0.387251 0.627061 0
M  V30 647 H 61.194 1.51536 1.14616 0
M  V30 648 H 59.344 1.39848 3.62457 0
M  V30 649 H 61.016 3.8032 2.61064 0
M  V30 650 H 59.259 3.6153 2.39747 0
M  V30 651 H 59.93 3.77972 4.02295 0
M  V30 652 H 62.406 1.87791 3.71314 0
M  V30 653 H 61.282 2.07281 5.08258 0
M  V30 654 H 61.543 0.477572 4.39513 0
M  V30 655 N 60.6021 -1.18246 1.0419 0
M  V30 656 C 61.5121 -2.25574 0.644476 0
M  V30 657 C 62.5281 -1.70845 -0.329826 0
M  V30 658 O 63.7041 -2.00554 -0.184443 0
M  V30 659 C 60.7691 -3.46697 0.014877 0
M  V30 660 C 59.8301 -4.16554 1.03834 0
M  V30 661 C 59.0631 -5.31894 0.438692 0
M  V30 662 O 59.2861 -5.65385 -0.754752 0
M  V30 663 O 58.2201 -5.90459 1.168 0
M  V30 664 H 62.0461 -2.61836 1.53869 0
M  V30 665 H 59.6311 -1.25352 0.812854 0
M  V30 666 H 61.5131 -4.20062 -0.335538 0
M  V30 667 H 60.1881 -3.12255 -0.853138 0
M  V30 668 H 59.0951 -3.45251 1.44057 0
M  V30 669 H 60.4281 -4.54998 1.87716 0
M  V30 670 N 62.0802 -0.821533 -1.34494 0
M  V30 671 C 62.9902 -0.244355 -2.33324 0
M  V30 672 C 64.0062 0.620527 -1.62559 0
M  V30 673 O 65.1822 0.528754 -1.94335 0
M  V30 674 C 62.2472 0.585368 -3.41723 0
M  V30 675 C 61.3082 -0.301752 -4.28238 0
M  V30 676 C 60.5412 0.488466 -5.3146 0
M  V30 677 O 60.7642 1.72186 -5.4379 0
M  V30 678 O 59.6982 -0.12848 -6.01763 0
M  V30 679 H 63.5242 -1.06231 -2.84515 0
M  V30 680 H 61.1092 -0.583645 -1.37528 0
M  V30 681 H 62.9912 1.05747 -4.07916 0
M  V30 682 H 61.6662 1.38068 -2.92778 0
M  V30 683 H 60.5732 -0.821315 -3.64973 0
M  V30 684 H 61.9062 -1.06138 -4.8062 0
M  V30 685 N 63.5583 1.46682 -0.576371 0
M  V30 686 C 64.8043 2.02712 -0.0596221 0
M  V30 687 C 65.1373 1.44765 1.29448 0
M  V30 688 O 64.4123 0.610355 1.84675 0
M  V30 689 C 64.6953 3.60098 0.0129503 0
M  V30 690 C 64.5483 4.28441 -1.3696 0
M  V30 691 C 65.8673 4.34224 0.71678 0
M  V30 692 H 62.9863 0.736637 -0.0231407 0
M  V30 693 H 65.6283 1.74898 -0.742351 0
M  V30 694 H 63.7783 3.83926 0.594378 0
M  V30 695 H 65.4503 4.15896 -1.9957 0
M  V30 696 H 63.6933 3.8805 -1.93907 0
M  V30 697 H 64.3643 5.3716 -1.27135 0
M  V30 698 H 66.8403 4.15503 0.222908 0
M  V30 699 H 65.7163 5.43936 0.73657 0
M  V30 700 H 65.9773 4.04823 1.77682 0
M  V30 701 N 65.0364 0.313813 1.54444 0
M  V30 702 C 65.9994 -0.54379 2.22656 0
M  V30 703 C 66.9994 -1.05124 1.21678 0
M  V30 704 O 68.1894 -0.945225 1.46325 0
M  V30 705 C 65.3214 -1.75427 2.92298 0
M  V30 706 H 66.5144 0.0523599 2.99854 0
M  V30 707 H 64.0674 0.0647834 1.56166 0
M  V30 708 H 64.8024 -2.38991 2.19211 0
M  V30 709 H 64.5874 -1.39791 3.66334 0
M  V30 710 H 66.0774 -2.36325 3.44297 0
M  V30 711 N 66.5145 -1.57545 0.0417849 0
M  V30 712 C 67.7425 -1.96624 -0.643928 0
M  V30 713 C 68.1575 -0.918897 -1.64929 0
M  V30 714 O 67.5145 0.0979323 -1.82237 0
M  V30 715 C 67.5655 -3.35781 -1.33914 0
M  V30 716 O 67.2865 -4.365 -0.374048 0
M  V30 717 C 68.7875 -3.89566 -2.1155 0
M  V30 718 H 66.0075 -0.647316 -0.176702 0
M  V30 719 H 68.5515 -2.04229 0.105304 0
M  V30 720 H 66.7065 -3.29357 -2.03968 0
M  V30 721 H 67.1205 -5.17248 -0.869179 0
M  V30 722 H 68.5945 -4.89242 -2.55628 0
M  V30 723 H 69.0715 -3.24488 -2.9598 0
M  V30 724 H 69.6775 -3.99298 -1.46427 0
M  V30 725 N 67.9926 0.231505 -1.5589 0
M  V30 726 C 69.2396 0.957352 -1.78441 0
M  V30 727 C 69.5676 1.84726 -0.60882 0
M  V30 728 O 68.8226 1.91416 0.40725 0
M  V30 729 C 69.1216 1.83577 -3.0665 0
M  V30 730 C 68.7876 1.09993 -4.37278 0
M  V30 731 C 67.4496 0.896629 -4.72773 0
M  V30 732 C 69.8016 0.579558 -5.17968 0
M  V30 733 C 67.1296 0.160896 -5.86479 0
M  V30 734 C 69.4816 -0.142783 -6.32439 0
M  V30 735 C 68.1456 -0.357427 -6.66542 0
M  V30 736 H 67.4156 0.35032 -0.65296 0
M  V30 737 H 70.0626 0.226259 -1.90159 0
M  V30 738 H 68.3676 2.63441 -2.90011 0
M  V30 739 H 70.0646 2.39934 -3.21298 0
M  V30 740 H 66.6546 1.26835 -4.09403 0
M  V30 741 H 70.8386 0.724125 -4.90989 0
M  V30 742 H 66.0946 -0.0157293 -6.11398 0
M  V30 743 H 70.2686 -0.553559 -6.94196 0
M  V30 744 H 67.8956 -0.929466 -7.54497 0
M  V30 745 N 69.4707 1.49531 0.497807 0
M  V30 746 C 70.4037 1.61043 1.6168 0
M  V30 747 C 71.3817 0.459386 1.55976 0
M  V30 748 O 72.5657 0.675358 1.75986 0
M  V30 749 C 69.6927 1.56833 3.00202 0
M  V30 750 C 68.7387 2.77173 3.24156 0
M  V30 751 S 69.5717 4.38808 3.06933 0
M  V30 752 C 70.7277 4.37248 4.47845 0
M  V30 753 H 70.9607 2.55702 1.51671 0
M  V30 754 H 68.4937 1.38462 0.683201 0
M  V30 755 H 70.4517 1.55089 3.80076 0
M  V30 756 H 69.1127 0.634561 3.07623 0
M  V30 757 H 68.3057 2.70456 4.25288 0
M  V30 758 H 67.9077 2.76346 2.5201 0
M  V30 759 H 70.1997 4.09164 5.39992 0
M  V30 760 H 71.1427 5.38668 4.59612 0
M  V30 761 H 71.5507 3.67286 4.28674 0
M  V30 762 N 70.9488 -0.749086 1.3866 0
M  V30 763 C 72.1888 -1.52112 1.36534 0
M  V30 764 C 72.5528 -1.91951 -0.0432316 0
M  V30 765 O 73.7538 -2.68132 -0.189396 0
M  V30 766 C 72.0248 -2.73704 2.29828 0
M  V30 767 S 73.5838 -3.63519 2.45763 0
M  V30 768 H 70.4018 -0.520482 0.484375 0
M  V30 769 H 73.0038 -0.878963 1.74627 0
M  V30 770 H 71.7078 -2.42552 3.31054 0
M  V30 771 H 71.2388 -3.4286 1.929 0
M  V30 772 H 73.2538 -4.66712 1.68505 0
M  V30 773 N 72.4269 -1.23603 -0.977757 0
M  V30 774 C 73.3899 -1.02069 -2.05218 0
M  V30 775 C 74.3899 0.0184305 -1.60789 0
M  V30 776 O 75.5799 -0.221569 -1.72785 0
M  V30 777 C 72.7119 -0.544926 -3.36517 0
M  V30 778 H 73.9049 -1.9742 -2.25755 0
M  V30 779 H 71.4579 -1.05684 -1.15155 0
M  V30 780 H 72.1929 0.412241 -3.21669 0
M  V30 781 H 71.9779 -1.2948 -3.70105 0
M  V30 782 H 73.4679 -0.414985 -4.15533 0
M  V30 783 N 73.905 1.17692 -1.04816 0
M  V30 784 C 75.151 1.88137 -0.75711 0
M  V30 785 C 75.484 1.80604 0.713841 0
M  V30 786 O 74.759 1.21146 1.52164 0
M  V30 787 C 75.042 3.38318 -1.2334 0
M  V30 788 C 74.895 3.54622 -2.76701 0
M  V30 789 C 76.214 4.32214 -0.829415 0
M  V30 790 H 73.333 0.683163 -0.27651 0
M  V30 791 H 75.975 1.38424 -1.30149 0
M  V30 792 H 74.125 3.80787 -0.770286 0
M  V30 793 H 75.797 3.21194 -3.31107 0
M  V30 794 H 74.04 2.97026 -3.16161 0
M  V30 795 H 74.711 4.60028 -3.05088 0
M  V30 796 H 77.187 3.97565 -1.22805 0
M  V30 797 H 76.063 5.35838 -1.19033 0
M  V30 798 H 76.324 4.41294 0.266891 0
M  V30 799 N 75.3831 0.828654 1.34056 0
M  V30 800 C 76.2931 0.256725 2.33191 0
M  V30 801 C 77.3091 -0.611898 1.62886 0
M  V30 802 O 78.4851 -0.51844 1.94613 0
M  V30 803 C 75.5501 -0.567238 3.42028 0
M  V30 804 C 74.6111 0.324458 4.28072 0
M  V30 805 C 73.8441 -0.460274 5.31712 0
M  V30 806 O 74.0671 -1.693 5.44696 0
M  V30 807 O 73.0011 0.160391 6.01686 0
M  V30 808 H 76.8271 1.07739 2.83947 0
M  V30 809 H 74.4121 0.59093 1.37217 0
M  V30 810 H 76.2941 -1.03582 4.08471 0
M  V30 811 H 74.9691 -1.36513 2.93506 0
M  V30 812 H 73.8761 0.840659 3.64532 0
M  V30 813 H 75.2091 1.08685 4.8005 0
M  V30 814 N 76.8612 -1.46375 0.584142 0
M  V30 815 C 78.0862 -2.07268 0.0740405 0
M  V30 816 C 78.5112 -1.42979 -1.22223 0
M  V30 817 O 77.8692 -0.514092 -1.73859 0
M  V30 818 C 77.9172 -3.60518 -0.0767769 0
M  V30 819 O 77.0212 -3.96533 -1.13292 0
M  V30 820 H 76.3622 -0.660961 0.0634524 0
M  V30 821 H 78.8922 -1.87991 0.807492 0
M  V30 822 H 78.9022 -4.07021 -0.282489 0
M  V30 823 H 77.5772 -4.06702 0.86986 0
M  V30 824 H 76.1542 -3.61738 -0.905553 0
M  V30 825 N 78.3393 -0.321999 -1.54275 0
M  V30 826 C 79.5693 0.282642 -2.04658 0
M  V30 827 C 79.9773 1.46453 -1.19784 0
M  V30 828 O 79.3203 1.82367 -0.220932 0
M  V30 829 C 79.3823 0.781857 -3.50895 0
M  V30 830 C 79.0463 -0.277517 -4.56157 0
M  V30 831 C 80.0433 -1.11307 -5.07845 0
M  V30 832 C 77.7283 -0.425256 -5.00497 0
M  V30 833 C 79.7223 -2.08211 -6.02434 0
M  V30 834 C 77.4093 -1.39771 -5.94901 0
M  V30 835 C 78.4073 -2.2246 -6.45756 0
M  V30 836 O 78.0953 -3.18054 -7.38307 0
M  V30 837 H 77.8273 0.0622636 -0.673126 0
M  V30 838 H 80.3813 -0.465792 -2.00049 0
M  V30 839 H 78.6113 1.58118 -3.52896 0
M  V30 840 H 80.3003 1.30467 -3.84361 0
M  V30 841 H 81.0663 -1.00991 -4.74369 0
M  V30 842 H 76.9453 0.20847 -4.60528 0
M  V30 843 H 80.4893 -2.72791 -6.42052 0
M  V30 844 H 76.3863 -1.50152 -6.27794 0
M  V30 845 H 77.1543 -3.13275 -7.56175 0
M  V30 846 N 79.8174 1.5752 -0.0501392 0
M  V30 847 C 81.2284 1.80271 0.485705 0
M  V30 848 C 81.5794 0.96228 1.70981 0
M  V30 849 O 80.7044 0.178578 2.15662 0
M  V30 850 C 81.2994 3.26957 0.887938 0
M  V30 851 C 79.8584 3.5063 1.36877 0
M  V30 852 C 79.0054 2.75165 0.343468 0
M  V30 853 H 81.9564 1.56281 -0.276028 0
M  V30 854 H 81.9774 3.37821 1.75093 0
M  V30 855 H 81.4894 3.881 -0.0031809 0
M  V30 856 H 79.5904 2.94766 2.27911 0
M  V30 857 H 79.7034 4.59343 1.36164 0
M  V30 858 H 78.0674 2.4127 0.816128 0
M  V30 859 H 78.8504 3.39034 -0.539548 0
M  V30 860 N 81.2955 -0.223234 1.56011 0
M  V30 861 C 82.2275 -1.30006 1.88762 0
M  V30 862 C 83.2405 -1.43129 0.775746 0
M  V30 863 O 84.4295 -1.44057 1.05403 0
M  V30 864 C 81.5295 -2.67589 2.07965 0
M  V30 865 C 80.7025 -2.76434 3.38973 0
M  V30 866 C 79.7615 -3.95019 3.47629 0
M  V30 867 O 78.7875 -3.83436 4.20672 0
M  V30 868 N 79.9895 -5.09249 2.78649 0
M  V30 869 H 82.7545 -1.02238 2.81722 0
M  V30 870 H 80.3155 -0.413278 1.56536 0
M  V30 871 H 82.3075 -3.45297 2.11073 0
M  V30 872 H 80.8775 -2.87964 1.21638 0
M  V30 873 H 80.0975 -1.85216 3.47978 0
M  V30 874 H 81.3855 -2.79313 4.25278 0
M  V30 875 H 80.7835 -5.21556 2.19081 0
M  V30 876 H 79.3405 -5.85007 2.8742 0
M  V30 877 N 82.7736 -1.49793 -0.48987 0
M  V30 878 C 84.1846 -1.52914 -1.07118 0
M  V30 879 C 84.5356 -0.321738 -1.93544 0
M  V30 880 O 83.6606 0.567338 -2.08831 0
M  V30 881 C 84.2556 -2.771 -1.94938 0
M  V30 882 C 82.8146 -2.82963 -2.48212 0
M  V30 883 C 81.9616 -2.46972 -1.26096 0
M  V30 884 H 84.9126 -1.56329 -0.273289 0
M  V30 885 H 84.9336 -2.57892 -2.79771 0
M  V30 886 H 84.4456 -3.64959 -1.32009 0
M  V30 887 H 82.5466 -1.99411 -3.14748 0
M  V30 888 H 82.6596 -3.85406 -2.84603 0
M  V30 889 H 81.0236 -1.98994 -1.58976 0
M  V30 890 H 81.8066 -3.37118 -0.648581 0
M  V30 891 N 84.2517 0.741722 -1.39055 0
M  V30 892 C 85.1617 1.88621 -1.39496 0
M  V30 893 C 86.1777 1.71557 -0.290578 0
M  V30 894 O 87.3537 1.94275 -0.530954 0
M  V30 895 C 84.4187 3.24134 -1.23037 0
M  V30 896 C 83.4797 3.5364 -2.43387 0
M  V30 897 C 82.7127 4.82687 -2.27703 0
M  V30 898 O 82.9357 5.55922 -1.27696 0
M  V30 899 O 81.8697 5.1194 -3.16545 0
M  V30 900 H 85.6957 1.91203 -2.35956 0
M  V30 901 H 83.2807 0.888625 -1.20099 0
M  V30 902 H 85.1627 4.0513 -1.15964 0
M  V30 903 H 83.8377 3.22337 -0.296691 0
M  V30 904 H 82.7447 2.72758 -2.56035 0
M  V30 905 H 84.0777 3.60209 -3.35425 0
M  V30 906 N 85.7298 1.2412 0.971189 0
M  V30 907 C 86.9788 1.07284 1.70801 0
M  V30 908 C 87.2918 -0.388902 1.91695 0
M  V30 909 O 88.4978 -0.677379 2.62914 0
M  V30 910 C 86.9538 1.87145 3.07416 0
M  V30 911 C 86.5618 3.37707 2.94377 0
M  V30 912 C 88.3058 1.78828 3.84995 0
M  V30 913 C 86.2128 4.09925 4.26281 0
M  V30 914 H 85.1428 0.397854 0.64049 0
M  V30 915 H 87.7938 1.4817 1.0825 0
M  V30 916 H 86.1758 1.39071 3.70777 0
M  V30 917 H 87.3498 3.93335 2.4005 0
M  V30 918 H 85.6648 3.46938 2.30267 0
M  V30 919 H 88.2618 2.30089 4.82662 0
M  V30 920 H 88.6048 0.75284 4.09436 0
M  V30 921 H 89.1378 2.24563 3.28354 0
M  V30 922 H 85.8768 5.13813 4.07033 0
M  V30 923 H 85.3968 3.59083 4.80437 0
M  V30 924 H 87.0758 4.1673 4.94919 0
M  V30 925 N 87.2079 -1.17134 1.05439 0
M  V30 926 C 88.4329 -1.91913 0.786396 0
M  V30 927 C 88.8579 -1.7643 -0.652234 0
M  V30 928 O 88.2159 -1.08372 -1.45345 0
M  V30 929 C 88.2639 -3.40921 1.17497 0
M  V30 930 O 87.3679 -4.11244 0.308589 0
M  V30 931 H 86.7089 -0.598215 0.288158 0
M  V30 932 H 89.2389 -1.48457 1.4079 0
M  V30 933 H 89.2489 -3.91668 1.14281 0
M  V30 934 H 87.9239 -3.5151 2.22292 0
M  V30 935 H 86.5009 -3.70731 0.40157 0
M  V30 936 N 88.686 -0.835752 -1.33615 0
M  V30 937 C 89.932 -0.439817 -1.98588 0
M  V30 938 C 90.287 0.989274 -1.65019 0
M  V30 939 O 89.58 1.68168 -0.918159 0
M  V30 940 C 89.774 -0.593925 -3.52431 0
M  V30 941 C 89.603 -2.03644 -4.00948 0
M  V30 942 C 88.373 -2.67103 -4.28934 0
M  V30 943 C 90.571 -3.00479 -4.17393 0
M  V30 944 N 88.553 -4.02462 -4.6357 0
M  V30 945 C 89.924 -4.20777 -4.55353 0
M  V30 946 C 91.979 -2.96926 -3.99674 0
M  V30 947 C 90.682 -5.37994 -4.77447 0
M  V30 948 C 92.708 -4.1337 -4.22941 0
M  V30 949 C 92.07 -5.32422 -4.61201 0
M  V30 950 H 88.169 -0.209303 -0.75347 0
M  V30 951 H 90.753 -1.08316 -1.61789 0
M  V30 952 H 88.924 0.019599 -3.88395 0
M  V30 953 H 90.656 -0.169738 -4.04344 0
M  V30 954 H 87.411 -2.18259 -4.20309 0
M  V30 955 H 87.835 -4.72232 -4.85104 0
M  V30 956 H 92.477 -2.06015 -3.69212 0
M  V30 957 H 90.195 -6.29451 -5.06771 0
M  V30 958 H 93.781 -4.12034 -4.10754 0
M  V30 959 H 92.661 -6.21027 -4.78848 0
M  V30 960 N 90.1641 1.46063 -0.591896 0
M  V30 961 C 91.3921 2.06717 -0.0868936 0
M  V30 962 C 91.8071 1.43916 1.22203 0
M  V30 963 O 91.1641 0.547698 1.74088 0
M  V30 964 C 91.2151 3.6142 0.0758725 0
M  V30 965 O 90.9361 4.21874 -1.18126 0
M  V30 966 C 92.4371 4.39025 0.61416 0
M  V30 967 H 89.6571 0.668162 -0.0616518 0
M  V30 968 H 92.2011 1.8755 -0.815175 0
M  V30 969 H 90.3561 3.79983 0.754413 0
M  V30 970 H 90.7701 5.14861 -1.00092 0
M  V30 971 H 92.2441 5.4783 0.677193 0
M  V30 972 H 92.7211 4.07708 1.63312 0
M  V30 973 H 93.3271 4.2529 -0.0298142 0
M  V30 974 N 91.6422 0.330177 1.54103 0
M  V30 975 C 93.0582 -0.0222371 1.59585 0
M  V30 976 C 93.2582 -1.49902 1.34654 0
M  V30 977 O 92.3142 -2.25592 1.13421 0
M  V30 978 C 93.6272 0.401932 2.98002 0
M  V30 979 C 95.1752 0.353145 3.11001 0
M  V30 980 C 95.6502 0.752576 4.51775 0
M  V30 981 N 97.1412 0.706239 4.57784 0
M  V30 982 C 97.8762 0.987417 5.64834 0
M  V30 983 N 97.3722 1.33607 6.79795 0
M  V30 984 N 99.1652 0.91254 5.54643 0
M  V30 985 H 91.3162 1.29228 1.68564 0
M  V30 986 H 93.5792 0.525906 0.78875 0
M  V30 987 H 93.2852 1.4311 3.21267 0
M  V30 988 H 93.1592 -0.229699 3.765 0
M  V30 989 H 95.5462 -0.666822 2.87467 0
M  V30 990 H 95.6272 1.0198 2.34593 0
M  V30 991 H 95.2712 1.77049 4.76042 0
M  V30 992 H 95.2012 0.0635409 5.26562 0
M  V30 993 H 97.6922 0.44889 3.75224 0
M  V30 994 H 98.0052 1.53582 7.57385 0
M  V30 995 H 96.3502 1.37439 6.81275 0
M  V30 996 H 99.5412 0.639601 4.6371 0
M  V30 997 H 99.7142 1.13503 6.37982 0
M  V30 998 N 93.1203 -1.57491 0.0584922 0
M  V30 999 C 94.0683 -2.13148 -0.931168 0
M  V30 1000 C 95.0623 -1.06507 -1.31729 0
M  V30 1001 O 96.2683 -1.24906 -1.29609 0
M  V30 1002 H 92.6433 -0.68137 -0.31818 0
M  V30 1003 H 94.6143 -2.95187 -0.436707 0
M  V30 1004 C 93.3633 -2.69732 -2.19408 0
M  V30 1005 H 92.6863 -3.51454 -1.90578 0
M  V30 1006 H 94.1263 -3.12287 -2.86798 0
M  V30 1007 C 92.5853 -1.63855 -2.94369 0
M  V30 1008 O 93.1153 -1.05565 -3.87581 0
M  V30 1009 N 91.3213 -1.35202 -2.57233 0
M  V30 1010 H 90.8683 -1.82791 -1.81508 0
M  V30 1011 H 90.8263 -0.645922 -3.07693 0
M  V30 1012 N 94.5984 0.214957 -1.56127 0
M  V30 1013 C 95.5454 1.26642 -1.92952 0
M  V30 1014 C 96.5154 1.46244 -0.78753 0
M  V30 1015 O 97.7004 1.59704 -1.04399 0
M  V30 1016 C 94.8404 2.6104 -2.25726 0
M  V30 1017 C 93.9534 2.49183 -3.52891 0
M  V30 1018 C 93.0884 3.76149 -3.7508 0
M  V30 1019 C 92.1274 3.59041 -4.95738 0
M  V30 1020 N 91.2644 4.77972 -5.14283 0
M  V30 1021 H 96.1044 0.945384 -2.82607 0
M  V30 1022 H 93.6414 0.455489 -1.3987 0
M  V30 1023 H 95.5994 3.39313 -2.42739 0
M  V30 1024 H 94.2294 2.91227 -1.39236 0
M  V30 1025 H 93.2814 1.6231 -3.44034 0
M  V30 1026 H 94.5934 2.32466 -4.41318 0
M  V30 1027 H 93.7474 4.62865 -3.92226 0
M  V30 1028 H 92.4864 3.95799 -2.84947 0
M  V30 1029 H 91.4914 2.7071 -4.78535 0
M  V30 1030 H 92.7164 3.40856 -5.87362 0
M  V30 1031 H 90.6624 4.97923 -4.27093 0
M  V30 1032 H 90.5794 4.64006 -5.96853 0
M  V30 1033 H 91.8474 5.66096 -5.35869 0
M  V30 1034 N 96.0765 1.50051 0.48192 0
M  V30 1035 C 97.3255 1.59741 1.23149 0
M  V30 1036 C 97.6385 0.298163 1.93314 0
M  V30 1037 O 98.8445 0.273835 2.70116 0
M  V30 1038 C 97.3005 2.81926 2.23708 0
M  V30 1039 C 96.9085 4.18685 1.59396 0
M  V30 1040 C 98.6525 3.00956 2.99375 0
M  V30 1041 C 96.5595 5.3207 2.58178 0
M  V30 1042 H 95.4895 0.594838 0.46334 0
M  V30 1043 H 98.1405 1.76467 0.503169 0
M  V30 1044 H 96.5225 2.58736 2.99786 0
M  V30 1045 H 97.6965 4.52088 0.891811 0
M  V30 1046 H 96.0115 4.05171 0.960503 0
M  V30 1047 H 98.6085 3.82836 3.73283 0
M  V30 1048 H 98.9515 2.12258 3.58123 0
M  V30 1049 H 99.4845 3.24277 2.30411 0
M  V30 1050 H 96.2235 6.22888 2.04184 0
M  V30 1051 H 95.7435 5.03098 3.26577 0
M  V30 1052 H 97.4225 5.62196 3.20225 0
M  V30 1053 N 97.5546 -0.734337 1.39446 0
M  V30 1054 C 98.4846 -1.86155 1.40955 0
M  V30 1055 C 99.4656 -1.67898 0.272827 0
M  V30 1056 O 100.651 -1.88207 0.478743 0
M  V30 1057 C 97.7806 -3.23912 1.25294 0
M  V30 1058 C 96.7346 -3.56808 2.36373 0
M  V30 1059 C 96.0606 -4.93508 2.058 0
M  V30 1060 C 97.3606 -3.59713 3.78687 0
M  V30 1061 H 99.0546 -1.8515 2.35287 0
M  V30 1062 H 96.6006 -0.889367 1.13253 0
M  V30 1063 H 98.5536 -4.02443 1.2497 0
M  V30 1064 H 97.2776 -3.25446 0.274308 0
M  V30 1065 H 95.9366 -2.80606 2.35914 0
M  V30 1066 H 95.5846 -4.91623 1.06374 0
M  V30 1067 H 95.2846 -5.16486 2.80208 0
M  V30 1068 H 96.8086 -5.74396 2.07128 0
M  V30 1069 H 98.2226 -4.2832 3.81071 0
M  V30 1070 H 96.6196 -3.94209 4.52459 0
M  V30 1071 H 97.6896 -2.59504 4.09617 0
M  V30 1072 N 99.0327 -1.24633 -0.964593 0
M  V30 1073 C 100.282 -1.08188 -1.7023 0
M  V30 1074 C 100.595 0.37873 -1.91898 0
M  V30 1075 O 101.801 0.663427 -2.6327 0
M  V30 1076 C 100.257 -1.88773 -3.06419 0
M  V30 1077 C 99.8647 -3.39263 -2.92582 0
M  V30 1078 C 101.609 -1.80867 -3.84041 0
M  V30 1079 C 99.5157 -4.1218 -4.24101 0
M  V30 1080 H 98.4457 -0.401245 -0.638372 0
M  V30 1081 H 101.097 -1.48742 -1.07462 0
M  V30 1082 H 99.4787 -1.41035 -3.70034 0
M  V30 1083 H 100.653 -3.94603 -2.37961 0
M  V30 1084 H 98.9677 -3.48154 -2.28424 0
M  V30 1085 H 101.565 -2.32646 -4.81435 0
M  V30 1086 H 101.908 -0.774543 -4.09031 0
M  V30 1087 H 102.441 -2.26301 -3.27159 0
M  V30 1088 H 99.1797 -5.15965 -4.04303 0
M  V30 1089 H 98.6997 -3.61626 -4.78526 0
M  V30 1090 H 100.379 -4.19349 -4.92702 0
M  V30 1091 N 100.511 1.16574 -1.06058 0
M  V30 1092 C 101.458 2.20883 -0.669263 0
M  V30 1093 C 102.428 1.62729 0.332918 0
M  V30 1094 O 103.613 1.895 0.222346 0
M  V30 1095 C 100.753 3.45049 -0.0593572 0
M  V30 1096 C 99.8658 4.17458 -1.11143 0
M  V30 1097 C 99.0008 5.29135 -0.467916 0
M  V30 1098 C 98.0398 5.93343 -1.50369 0
M  V30 1099 N 97.1768 6.96516 -0.883706 0
M  V30 1100 H 102.017 2.53709 -1.5632 0
M  V30 1101 H 99.5538 1.24616 -0.781625 0
M  V30 1102 H 101.512 4.16033 0.311771 0
M  V30 1103 H 100.142 3.12781 0.797992 0
M  V30 1104 H 99.1938 3.45101 -1.60029 0
M  V30 1105 H 100.506 4.61307 -1.89731 0
M  V30 1106 H 99.6598 6.06684 -0.0436871 0
M  V30 1107 H 98.3988 4.86443 0.349864 0
M  V30 1108 H 97.4038 5.14517 -1.93784 0
M  V30 1109 H 98.6288 6.38114 -2.32352 0
M  V30 1110 H 96.5748 6.55943 -0.086595 0
M  V30 1111 H 96.4918 7.38723 -1.607 0
M  V30 1112 H 97.7598 7.77993 -0.484543 0
M  V30 1113 N 101.989 0.842826 1.3317 0
M  V30 1114 C 102.919 0.294028 2.31641 0
M  V30 1115 C 103.9 -0.600401 1.59151 0
M  V30 1116 O 105.085 -0.523124 1.87022 0
M  V30 1117 C 102.215 -0.528416 3.43257 0
M  V30 1118 C 101.169 0.27056 4.27144 0
M  V30 1119 C 100.495 -0.675881 5.30411 0
M  V30 1120 C 101.795 1.48981 5.00602 0
M  V30 1121 H 103.489 1.11681 2.77791 0
M  V30 1122 H 101.035 0.538478 1.33553 0
M  V30 1123 H 102.988 -0.922674 4.11175 0
M  V30 1124 H 101.712 -1.38445 2.95805 0
M  V30 1125 H 100.371 0.646427 3.60856 0
M  V30 1126 H 100.019 -1.52842 4.79216 0
M  V30 1127 H 99.7189 -0.145374 5.8742 0
M  V30 1128 H 101.243 -1.06757 6.01195 0
M  V30 1129 H 102.657 1.16849 5.61266 0
M  V30 1130 H 101.054 1.95739 5.6728 0
M  V30 1131 H 102.124 2.25746 4.29147 0
M  V30 1132 N 103.467 -1.45747 0.599634 0
M  V30 1133 C 104.714 -2.02292 0.0917284 0
M  V30 1134 C 105.042 -1.46906 -1.27472 0
M  V30 1135 O 104.297 -0.630652 -1.8526 0
M  V30 1136 C 104.596 -3.57399 -0.00602758 0
M  V30 1137 C 104.262 -4.31902 1.29503 0
M  V30 1138 C 102.924 -4.51974 1.65144 0
M  V30 1139 C 105.276 -4.74551 2.15525 0
M  V30 1140 C 102.604 -5.11949 2.86574 0
M  V30 1141 C 104.956 -5.35868 3.36196 0
M  V30 1142 C 103.62 -5.54165 3.72099 0
M  V30 1143 H 102.89 -0.740239 0.0335658 0
M  V30 1144 H 105.537 -1.7491 0.779661 0
M  V30 1145 H 103.842 -3.84014 -0.777183 0
M  V30 1146 H 105.539 -3.98846 -0.415038 0
M  V30 1147 H 102.129 -4.16588 1.00761 0
M  V30 1148 H 106.313 -4.58784 1.8929 0
M  V30 1149 H 101.569 -5.24305 3.14507 0
M  V30 1150 H 105.743 -5.6787 4.03109 0
M  V30 1151 H 103.37 -6.00406 4.6628 0
M  V30 1152 N 104.945 -0.338344 -1.53925 0
M  V30 1153 C 106.222 0.314774 -1.93051 0
M  V30 1154 C 106.602 1.68669 -1.26941 0
M  V30 1155 O 105.95 2.24636 -0.418445 0
M  V30 1156 C 106.16 0.392249 -3.46789 0
M  V30 1157 C 107.508 0.645554 -4.19664 0
M  V30 1158 O 108.532 0.474575 -3.53024 0
M  V30 1159 O 107.391 0.976408 -5.37707 0
M  V30 1160 H 104.485 0.182598 -0.80659 0
M  V30 1161 H 107.031 -0.389141 -1.65178 0
M  V30 1162 H 105.803 -0.570702 -3.87116 0
M  V30 1163 H 105.426 1.14316 -3.80812 0
M  V30 1164 N 106.423 1.57458 -0.0668435 0
M  V30 1165 C 107.651 1.97624 0.612565 0
M  V30 1166 C 108.066 0.94502 1.63447 0
M  V30 1167 O 107.423 -0.0689276 1.8237 0
M  V30 1168 C 107.474 3.37869 1.28555 0
M  V30 1169 O 107.195 4.3704 0.304557 0
M  V30 1170 C 108.696 3.92882 2.05325 0
M  V30 1171 H 105.916 0.650045 0.166381 0
M  V30 1172 H 108.46 2.04035 -0.137782 0
M  V30 1173 H 106.615 3.3256 1.98702 0
M  V30 1174 H 107.029 5.18565 0.786779 0
M  V30 1175 H 108.503 4.93247 2.47812 0
M  V30 1176 H 108.98 3.29156 2.9078 0
M  V30 1177 H 109.586 4.01577 1.40056 0
M  V30 1178 N 107.901 -0.206675 1.56239 0
M  V30 1179 C 109.317 -0.557025 1.49564 0
M  V30 1180 C 109.517 -1.86424 0.764735 0
M  V30 1181 O 108.573 -2.50584 0.310491 0
M  V30 1182 C 109.886 -0.622478 2.94186 0
M  V30 1183 C 111.434 -0.712099 3.04792 0
M  V30 1184 C 111.909 -0.808767 4.50803 0
M  V30 1185 N 113.4 -0.8726 4.54907 0
M  V30 1186 C 114.135 -0.967365 5.65181 0
M  V30 1187 N 113.631 -1.02515 6.85173 0
M  V30 1188 N 115.424 -1.00366 5.53067 0
M  V30 1189 H 107.575 0.650943 2.02179 0
M  V30 1190 H 109.838 0.230387 0.919579 0
M  V30 1191 H 109.544 0.268727 3.50672 0
M  V30 1192 H 109.418 -1.4811 3.46905 0
M  V30 1193 H 111.805 -1.59374 2.48363 0
M  V30 1194 H 111.886 0.172489 2.55218 0
M  V30 1195 H 111.53 0.0684754 5.07854 0
M  V30 1196 H 111.46 -1.70899 4.98098 0
M  V30 1197 H 113.951 -0.837657 3.68499 0
M  V30 1198 H 114.264 -1.09765 7.64965 0
M  V30 1199 H 112.609 -0.994026 6.87855 0
M  V30 1200 H 115.8 -0.95527 4.58249 0
M  V30 1201 H 115.973 -1.07405 6.39037 0
M  V30 1202 N 109.379 -1.50304 -0.473955 0
M  V30 1203 C 110.609 -1.64663 -1.24778 0
M  V30 1204 C 111.017 -0.328174 -1.86332 0
M  V30 1205 O 110.36 0.699536 -1.69859 0
M  V30 1206 C 110.422 -2.6778 -2.39863 0
M  V30 1207 C 110.086 -4.11413 -1.98969 0
M  V30 1208 C 111.083 -4.97372 -1.51385 0
M  V30 1209 C 108.768 -4.57312 -2.07777 0
M  V30 1210 C 110.762 -6.27277 -1.13148 0
M  V30 1211 C 108.449 -5.87223 -1.69152 0
M  V30 1212 C 109.447 -6.72031 -1.21915 0
M  V30 1213 O 109.135 -7.99518 -0.838237 0
M  V30 1214 H 108.867 -0.556602 -0.383627 0
M  V30 1215 H 111.421 -1.9726 -0.572491 0
M  V30 1216 H 109.651 -2.30419 -3.10554 0
M  V30 1217 H 111.34 -2.71388 -3.01833 0
M  V30 1218 H 112.106 -4.63128 -1.44004 0
M  V30 1219 H 107.985 -3.91449 -2.43493 0
M  V30 1220 H 111.529 -6.93425 -0.762077 0
M  V30 1221 H 107.426 -6.20989 -1.76191 0
M  V30 1222 H 108.194 -8.12764 -0.967339 0
M  V30 1223 N 110.857 0.726932 -1.39834 0
M  V30 1224 C 112.082 1.52121 -1.40976 0
M  V30 1225 C 112.507 1.88098 -0.00826029 0
M  V30 1226 O 111.865 1.52479 0.980807 0
M  V30 1227 C 111.913 2.78021 -2.29644 0
M  V30 1228 O 111.017 3.74272 -1.73188 0
M  V30 1229 H 110.358 0.45908 -0.479731 0
M  V30 1230 H 112.888 0.896207 -1.83927 0
M  V30 1231 H 112.898 3.26671 -2.44438 0
M  V30 1232 H 111.573 2.51169 -3.31492 0
M  V30 1233 H 110.15 3.33073 -1.6768 0
M  V30 1234 N 112.336 1.25143 0.95797 0
M  V30 1235 C 113.585 1.0909 1.69654 0
M  V30 1236 C 113.898 -0.368548 1.92097 0
M  V30 1237 O 115.104 -0.649455 2.63618 0
M  V30 1238 C 113.56 1.90395 3.05414 0
M  V30 1239 C 113.168 3.4081 2.90779 0
M  V30 1240 C 114.912 1.82901 3.83076 0
M  V30 1241 C 112.819 4.14423 4.21909 0
M  V30 1242 H 111.749 0.404625 0.636235 0
M  V30 1243 H 114.4 1.4931 1.06672 0
M  V30 1244 H 112.782 1.42996 3.69281 0
M  V30 1245 H 113.956 3.95859 2.35865 0
M  V30 1246 H 112.271 3.49361 2.26575 0
M  V30 1247 H 114.868 2.35196 4.80195 0
M  V30 1248 H 115.211 0.796224 4.08615 0
M  V30 1249 H 115.744 2.28033 3.25954 0
M  V30 1250 H 112.483 5.18102 4.01561 0
M  V30 1251 H 112.003 3.64159 4.76601 0
M  V30 1252 H 113.682 4.21956 4.90471 0
M  V30 1253 N 113.814 -1.1601 1.06675 0
M  V30 1254 C 115.23 -1.38622 0.790948 0
M  V30 1255 C 115.43 -1.92109 -0.607965 0
M  V30 1256 O 114.486 -2.12239 -1.36787 0
M  V30 1257 C 115.799 -2.36347 1.85905 0
M  V30 1258 C 117.347 -2.50023 1.88301 0
M  V30 1259 C 117.822 -3.51033 2.94176 0
M  V30 1260 N 119.313 -3.58563 2.93235 0
M  V30 1261 C 120.048 -4.36521 3.71803 0
M  V30 1262 N 119.544 -5.17869 4.602 0
M  V30 1263 N 121.337 -4.31541 3.60178 0
M  V30 1264 H 113.488 -0.796294 1.96908 0
M  V30 1265 H 115.751 -0.412597 0.853503 0
M  V30 1266 H 115.457 -2.04147 2.86386 0
M  V30 1267 H 115.331 -3.36042 1.71334 0
M  V30 1268 H 117.718 -2.81524 0.884769 0
M  V30 1269 H 117.799 -1.5035 2.06951 0
M  V30 1270 H 117.443 -3.20268 3.94196 0
M  V30 1271 H 117.373 -4.50445 2.72776 0
M  V30 1272 H 119.864 -3.00496 2.29152 0
M  V30 1273 H 120.177 -5.74578 5.16797 0
M  V30 1274 H 118.522 -5.17199 4.64253 0
M  V30 1275 H 121.713 -3.67051 2.90502 0
M  V30 1276 H 121.886 -4.9205 4.21653 0
M  V30 1277 N 115.292 -0.849877 -1.32721 0
M  V30 1278 C 116.202 -0.293791 -2.32753 0
M  V30 1279 C 117.218 0.585906 -1.63839 0
M  V30 1280 O 118.394 0.487413 -1.95413 0
M  V30 1281 C 115.459 0.512752 -3.42887 0
M  V30 1282 C 114.52 -0.39252 -4.27502 0
M  V30 1283 C 113.753 0.375625 -5.32377 0
M  V30 1284 O 113.976 1.60613 -5.4732 0
M  V30 1285 O 112.91 -0.256094 -6.01355 0
M  V30 1286 H 116.736 -1.12242 -2.82197 0
M  V30 1287 H 114.321 -0.612685 -1.36259 0
M  V30 1288 H 116.203 0.970704 -4.10067 0
M  V30 1289 H 114.878 1.31826 -2.95641 0
M  V30 1290 H 113.785 -0.898547 -3.63149 0
M  V30 1291 H 115.118 -1.16309 -4.7826 0
M  V30 1292 N 116.77 1.45427 -0.607355 0
M  V30 1293 C 117.718 2.32269 0.12411 0
M  V30 1294 C 118.712 1.45955 0.859854 0
M  V30 1295 O 119.918 1.6244 0.775447 0
M  V30 1296 H 116.293 0.749691 0.0588839 0
M  V30 1297 H 118.264 2.91743 -0.626762 0
M  V30 1298 C 117.013 3.29567 1.1082 0
M  V30 1299 H 116.336 3.95978 0.551492 0
M  V30 1300 H 117.776 3.93061 1.58995 0
M  V30 1301 C 116.235 2.56722 2.18164 0
M  V30 1302 O 116.765 2.34842 3.25902 0
M  V30 1303 N 114.971 2.16861 1.93442 0
M  V30 1304 H 114.518 2.34855 1.05834 0
M  V30 1305 H 114.476 1.68444 2.65469 0
M  V30 1306 N 118.248 0.346503 1.53744 0
M  V30 1307 C 119.496 -0.248612 2.00565 0
M  V30 1308 C 119.817 -1.5083 1.23593 0
M  V30 1309 O 119.087 -1.92858 0.343912 0
M  V30 1310 H 117.667 -0.0948564 0.740953 0
M  V30 1311 H 120.329 0.468341 1.89189 0
M  V30 1312 H 119.425 -0.488994 3.08245 0
M  V30 1313 N 119.726 -1.57421 0.075193 0
M  V30 1314 C 120.658 -2.09904 -0.920483 0
M  V30 1315 C 121.671 -1.03191 -1.25918 0
M  V30 1316 O 122.86 -1.30695 -1.21577 0
M  V30 1317 C 119.96 -2.54726 -2.23534 0
M  V30 1318 C 119.133 -3.8505 -2.07498 0
M  V30 1319 C 118.192 -4.15929 -3.22319 0
M  V30 1320 O 117.218 -4.85474 -2.9716 0
M  V30 1321 N 118.42 -3.69745 -4.47514 0
M  V30 1322 H 121.185 -2.95954 -0.472359 0
M  V30 1323 H 118.746 -1.61523 -0.110444 0
M  V30 1324 H 120.738 -2.72443 -2.9926 0
M  V30 1325 H 119.308 -1.73795 -2.59835 0
M  V30 1326 H 118.528 -3.76679 -1.16219 0
M  V30 1327 H 119.816 -4.70348 -1.94038 0
M  V30 1328 H 119.214 -3.13569 -4.7084 0
M  V30 1329 H 117.771 -3.92655 -5.20255 0
M  V30 1330 N 121.204 0.198386 -1.56346 0
M  V30 1331 C 122.134 1.24865 -1.9731 0
M  V30 1332 C 123.115 1.47651 -0.844576 0
M  V30 1333 O 124.3 1.59444 -1.10866 0
M  V30 1334 C 121.43 2.59358 -2.30977 0
M  V30 1335 C 120.384 2.5119 -3.46537 0
M  V30 1336 C 119.71 3.89926 -3.65871 0
M  V30 1337 C 121.01 2.03977 -4.80823 0
M  V30 1338 H 122.704 0.908252 -2.85291 0
M  V30 1339 H 120.25 0.435462 -1.37258 0
M  V30 1340 H 122.203 3.33011 -2.58228 0
M  V30 1341 H 120.927 2.95132 -1.39874 0
M  V30 1342 H 119.586 1.79993 -3.19371 0
M  V30 1343 H 119.234 4.23046 -2.72105 0
M  V30 1344 H 118.934 3.85336 -4.4361 0
M  V30 1345 H 120.458 4.65205 -3.95495 0
M  V30 1346 H 121.872 2.67386 -5.07127 0
M  V30 1347 H 120.269 2.10397 -5.62008 0
M  V30 1348 H 121.339 0.992861 -4.74626 0
M  V30 1349 N 122.682 1.50554 0.465978 0
M  V30 1350 C 123.612 1.72722 1.57128 0
M  V30 1351 C 124.593 0.576294 1.6004 0
M  V30 1352 O 125.778 0.81598 1.76225 0
M  V30 1353 C 122.908 1.82605 2.95419 0
M  V30 1354 C 121.862 2.97835 3.07373 0
M  V30 1355 C 121.188 2.92867 4.47363 0
M  V30 1356 C 122.488 4.38265 2.84114 0
M  V30 1357 H 124.182 2.65267 1.38829 0
M  V30 1358 H 121.728 1.2765 0.666441 0
M  V30 1359 H 123.681 1.96698 3.72677 0
M  V30 1360 H 122.405 0.866858 3.14886 0
M  V30 1361 H 121.064 2.83401 2.3255 0
M  V30 1362 H 120.712 1.94783 4.63755 0
M  V30 1363 H 120.412 3.70227 4.56296 0
M  V30 1364 H 121.936 3.09015 5.26633 0
M  V30 1365 H 123.35 4.53198 3.51118 0
M  V30 1366 H 121.747 5.17115 3.04487 0
M  V30 1367 H 122.817 4.50281 1.7993 0
M  V30 1368 N 124.16 -0.719506 1.40217 0
M  V30 1369 C 125.388 -1.50864 1.41589 0
M  V30 1370 C 125.803 -1.88794 0.0145275 0
M  V30 1371 O 125.16 -1.55174 -0.960594 0
M  V30 1372 C 125.211 -2.78646 2.30302 0
M  V30 1373 O 124.932 -2.42321 3.64983 0
M  V30 1374 C 126.433 -3.72569 2.40224 0
M  V30 1375 H 123.653 -0.465709 0.48307 0
M  V30 1376 H 126.197 -0.88785 1.84221 0
M  V30 1377 H 124.352 -3.37019 1.91042 0
M  V30 1378 H 124.766 -3.24514 4.12057 0
M  V30 1379 H 126.24 -4.5908 3.06512 0
M  V30 1380 H 126.717 -4.15403 1.42608 0
M  V30 1381 H 127.323 -3.20109 2.80019 0
M  V30 1382 N 125.638 -1.25649 -0.95132 0
M  V30 1383 C 126.887 -1.09988 -1.69073 0
M  V30 1384 C 127.2 0.358355 -1.92289 0
M  V30 1385 O 128.406 0.635466 -2.63958 0
M  V30 1386 C 126.862 -1.92012 -3.044 0
M  V30 1387 C 126.47 -3.42347 -2.88968 0
M  V30 1388 C 128.214 -1.8493 -3.82101 0
M  V30 1389 C 126.121 -4.16655 -4.19705 0
M  V30 1390 H 125.051 -0.407993 -0.63408 0
M  V30 1391 H 127.702 -1.49873 -1.05879 0
M  V30 1392 H 126.084 -1.44952 -3.68517 0
M  V30 1393 H 127.258 -3.97104 -2.33762 0
M  V30 1394 H 125.573 -3.50557 -2.24719 0
M  V30 1395 H 128.17 -2.37739 -4.78941 0
M  V30 1396 H 128.513 -0.817883 -4.08187 0
M  V30 1397 H 129.046 -2.29758 -3.2474 0
M  V30 1398 H 125.785 -5.20224 -3.98807 0
M  V30 1399 H 125.305 -3.66681 -4.74663 0
M  V30 1400 H 126.984 -4.24551 -4.88227 0
M  V30 1401 N 127.117 1.15442 -1.07289 0
M  V30 1402 C 128.047 2.22312 -0.714107 0
M  V30 1403 C 129.028 1.67467 0.298155 0
M  V30 1404 O 130.213 1.93445 0.171048 0
M  V30 1405 C 127.343 3.47124 -0.110448 0
M  V30 1406 C 126.297 4.14926 -1.04979 0
M  V30 1407 C 125.623 5.33807 -0.308924 0
M  V30 1408 C 126.923 4.64762 -2.38314 0
M  V30 1409 H 128.617 2.5258 -1.6076 0
M  V30 1410 H 126.163 1.21404 -0.77441 0
M  V30 1411 H 128.116 4.21124 0.152482 0
M  V30 1412 H 126.84 3.16187 0.81812 0
M  V30 1413 H 125.499 3.42866 -1.29764 0
M  V30 1414 H 125.147 4.99126 0.623084 0
M  V30 1415 H 124.847 5.80113 -0.935036 0
M  V30 1416 H 126.371 6.10576 -0.0537771 0
M  V30 1417 H 127.785 5.30292 -2.1786 0
M  V30 1418 H 126.182 5.21728 -2.96514 0
M  V30 1419 H 127.252 3.80434 -3.00663 0
M  V30 1420 N 128.595 0.856903 1.32268 0
M  V30 1421 C 129.82 0.474569 2.01897 0
M  V30 1422 C 130.245 -0.921766 1.63967 0
M  V30 1423 O 129.603 -1.60589 0.84148 0
M  V30 1424 C 129.651 0.623799 3.55164 0
M  V30 1425 O 128.755 -0.342459 4.10976 0
M  V30 1426 H 128.096 0.190422 0.63611 0
M  V30 1427 H 130.626 1.15672 1.68764 0
M  V30 1428 H 130.636 0.512169 4.04773 0
M  V30 1429 H 129.311 1.64202 3.82113 0
M  V30 1430 H 127.888 -0.18688 3.72431 0
M  V30 1431 N 130.073 -1.45103 0.615059 0
M  V30 1432 C 131.319 -2.02483 0.113347 0
M  V30 1433 C 131.652 -1.48146 -1.25564 0
M  V30 1434 O 130.927 -0.659104 -1.82992 0
M  V30 1435 C 131.21 -3.60005 0.0825278 0
M  V30 1436 C 131.063 -4.2466 1.48271 0
M  V30 1437 C 132.382 -4.35972 -0.601401 0
M  V30 1438 H 129.501 -0.735764 0.0426632 0
M  V30 1439 H 132.143 -1.72868 0.788461 0
M  V30 1440 H 130.293 -3.85367 -0.492378 0
M  V30 1441 H 131.965 -4.10458 2.10527 0
M  V30 1442 H 130.208 -3.82772 2.04127 0
M  V30 1443 H 130.879 -5.336 1.41332 0
M  V30 1444 H 133.355 -4.15947 -0.112666 0
M  V30 1445 H 132.231 -5.45697 -0.592097 0
M  V30 1446 H 132.492 -4.09391 -1.66887 0
M  V30 1447 N 131.551 -0.354651 -1.53558 0
M  V30 1448 C 132.461 0.50515 -2.29097 0
M  V30 1449 C 133.477 1.10223 -1.34636 0
M  V30 1450 O 134.653 1.11553 -1.67684 0
M  V30 1451 C 131.718 1.63479 -3.05738 0
M  V30 1452 C 130.779 1.06636 -4.15845 0
M  V30 1453 C 130.012 2.14217 -4.88822 0
M  V30 1454 O 130.235 3.35137 -4.61562 0
M  V30 1455 O 129.169 1.77887 -5.75013 0
M  V30 1456 H 132.995 -0.109237 -3.03503 0
M  V30 1457 H 130.58 -0.119357 -1.48922 0
M  V30 1458 H 132.462 2.2918 -3.5363 0
M  V30 1459 H 131.137 2.23478 -2.34178 0
M  V30 1460 H 130.044 0.373565 -3.7223 0
M  V30 1461 H 131.377 0.511081 -4.89539 0
M  V30 1462 N 133.029 1.57378 -0.0835403 0
M  V30 1463 C 134.306 1.85363 0.624507 0
M  V30 1464 C 134.686 0.978239 1.87066 0
M  V30 1465 O 134.034 0.0475908 2.2845 0
M  V30 1466 C 134.244 3.35795 0.950947 0
M  V30 1467 C 135.592 4.03581 1.31939 0
M  V30 1468 O 136.616 3.40609 1.04232 0
M  V30 1469 O 135.475 5.14672 1.83779 0
M  V30 1470 H 132.569 0.766162 0.311329 0
M  V30 1471 H 135.115 1.69307 -0.115362 0
M  V30 1472 H 133.887 3.91244 0.0663899 0
M  V30 1473 H 133.51 3.57154 1.74719 0
M  V30 1474 N 134.507 -0.190092 1.56449 0
M  V30 1475 C 135.732 -0.929864 1.85387 0
M  V30 1476 C 136.157 -1.7585 0.667704 0
M  V30 1477 O 135.515 -1.77198 -0.383459 0
M  V30 1478 C 135.563 -1.79773 3.12593 0
M  V30 1479 O 134.667 -2.89713 2.93496 0
M  V30 1480 H 134.008 -0.261574 0.610307 0
M  V30 1481 H 136.538 -0.193896 2.03679 0
M  V30 1482 H 136.548 -2.20139 3.43515 0
M  V30 1483 H 135.223 -1.18892 3.98544 0
M  V30 1484 H 133.8 -2.53065 2.73884 0
M  V30 1485 N 135.985 -1.50799 -0.457987 0
M  V30 1486 C 137.262 -1.52968 -1.21902 0
M  V30 1487 C 137.642 -0.281906 -2.09209 0
M  V30 1488 O 136.99 0.734076 -2.16388 0
M  V30 1489 C 137.2 -2.8326 -2.03875 0
M  V30 1490 C 138.548 -3.34425 -2.6162 0
M  V30 1491 O 139.572 -2.8467 -2.14106 0
M  V30 1492 O 138.431 -4.21188 -3.48228 0
M  V30 1493 H 135.525 -0.614129 -0.553873 0
M  V30 1494 H 138.071 -1.63098 -0.468739 0
M  V30 1495 H 136.843 -3.65543 -1.39621 0
M  V30 1496 H 136.466 -2.76195 -2.8601 0
M  V30 1497 N 137.463 0.71206 -1.40597 0
M  V30 1498 C 138.74 1.46536 -1.29563 0
M  V30 1499 C 139.12 2.10931 0.0844217 0
M  V30 1500 O 138.468 2.00418 1.0975 0
M  V30 1501 C 138.678 2.49821 -2.43701 0
M  V30 1502 C 140.026 3.15551 -2.841 0
M  V30 1503 O 141.05 2.60142 -2.4332 0
M  V30 1504 O 139.909 4.15867 -3.54566 0
M  V30 1505 H 137.003 0.651801 -0.509004 0
M  V30 1506 H 139.549 0.743935 -1.52524 0
M  V30 1507 H 138.321 2.00778 -3.35863 0
M  V30 1508 H 137.944 3.29495 -2.22528 0
M  V30 1509 N 138.941 1.26152 0.944643 0
M  V30 1510 C 140.189 1.11271 1.6871 0
M  V30 1511 C 140.51 -0.345166 1.91921 0
M  V30 1512 O 139.78 -1.24387 1.51343 0
M  V30 1513 H 138.36 0.408783 0.625224 0
M  V30 1514 H 141.022 1.58427 1.1352 0
M  V30 1515 H 140.118 1.62879 2.66227 0
M  V30 1516 N 140.419 -1.14872 1.07899 0
M  V30 1517 C 141.668 -1.85135 0.800499 0
M  V30 1518 C 141.981 -1.83547 -0.676014 0
M  V30 1519 O 143.187 -2.49548 -1.06948 0
M  V30 1520 C 141.643 -3.3231 1.38197 0
M  V30 1521 C 141.251 -3.42329 2.8899 0
M  V30 1522 C 142.995 -4.0772 1.18174 0
M  V30 1523 C 140.902 -4.83684 3.403 0
M  V30 1524 H 139.832 -0.693563 0.29578 0
M  V30 1525 H 142.483 -1.29532 1.29976 0
M  V30 1526 H 140.865 -3.87618 0.810431 0
M  V30 1527 H 142.039 -2.97097 3.52236 0
M  V30 1528 H 140.354 -2.80369 3.07867 0
M  V30 1529 H 142.951 -5.12049 1.5398 0
M  V30 1530 H 143.294 -4.16124 0.12117 0
M  V30 1531 H 143.827 -3.58696 1.71994 0
M  V30 1532 H 140.566 -4.80465 4.45907 0
M  V30 1533 H 140.086 -5.29474 2.81811 0
M  V30 1534 H 141.765 -5.52558 3.36584 0
M  V30 1535 N 141.898 -0.863906 -1.31812 0
M  V30 1536 C 143.128 -0.485406 -2.00817 0
M  V30 1537 C 143.536 0.925007 -1.65046 0
M  V30 1538 O 142.879 1.61653 -0.872574 0
M  V30 1539 C 142.941 -0.555589 -3.55181 0
M  V30 1540 C 142.605 -1.92654 -4.14407 0
M  V30 1541 C 143.602 -2.89324 -4.31958 0
M  V30 1542 C 141.287 -2.2262 -4.50273 0
M  V30 1543 C 143.281 -4.14108 -4.84555 0
M  V30 1544 C 140.968 -3.47654 -5.02573 0
M  V30 1545 C 141.966 -4.43214 -5.19664 0
M  V30 1546 O 141.654 -5.66033 -5.70843 0
M  V30 1547 H 141.386 -0.188224 -0.649267 0
M  V30 1548 H 143.94 -1.16514 -1.69156 0
M  V30 1549 H 142.17 0.181037 -3.86276 0
M  V30 1550 H 143.859 -0.19138 -4.05449 0
M  V30 1551 H 144.625 -2.6748 -4.04573 0
M  V30 1552 H 140.504 -1.4902 -4.3625 0
M  V30 1553 H 144.048 -4.88703 -4.9781 0
M  V30 1554 H 139.945 -3.69345 -5.29391 0
M  V30 1555 H 140.713 -5.6812 -5.89222 0
M  V30 1556 N 143.376 1.44774 -0.622745 0
M  V30 1557 C 144.616 2.04004 -0.127102 0
M  V30 1558 C 144.98 1.47862 1.22478 0
M  V30 1559 O 146.181 1.98541 1.81204 0
M  V30 1560 C 144.452 3.57247 -0.104429 0
M  V30 1561 S 146.011 4.37574 0.327814 0
M  V30 1562 H 142.829 0.708713 -0.0569776 0
M  V30 1563 H 145.431 1.77275 -0.824253 0
M  V30 1564 H 144.135 3.95616 -1.09159 0
M  V30 1565 H 143.666 3.88575 0.614236 0
M  V30 1566 H 145.681 4.70575 1.57395 0
M  V30 1567 N 144.854 0.36279 1.53368 0
M  V30 1568 C 146.094 -0.227882 2.03126 0
M  V30 1569 C 146.458 -1.4622 1.24434 0
M  V30 1570 O 147.659 -2.12831 1.64184 0
M  V30 1571 C 145.93 -0.515427 3.53664 0
M  V30 1572 S 147.489 -1.08017 4.25297 0
M  V30 1573 H 144.307 -0.0665377 0.70788 0
M  V30 1574 H 146.909 0.50501 1.88865 0
M  V30 1575 H 145.613 0.390436 4.08539 0
M  V30 1576 H 145.144 -1.27747 3.72081 0
M  V30 1577 H 147.159 -2.36462 4.36234 0
M  V30 1578 N 146.332 -1.57332 0.0918853 0
M  V30 1579 C 147.56 -1.98574 -0.581048 0
M  V30 1580 C 147.975 -0.970903 -1.61923 0
M  V30 1581 O 147.332 0.0399054 -1.82456 0
M  V30 1582 C 147.383 -3.39872 -1.23164 0
M  V30 1583 O 147.104 -4.37469 -0.234989 0
M  V30 1584 C 148.605 -3.96099 -1.99049 0
M  V30 1585 H 145.825 -0.65261 -0.156018 0
M  V30 1586 H 148.369 -2.0379 0.170225 0
M  V30 1587 H 146.524 -3.35679 -1.93386 0
M  V30 1588 H 146.938 -5.19751 -0.70418 0
M  V30 1589 H 148.412 -4.97127 -2.39934 0
M  V30 1590 H 148.889 -3.3374 -2.85507 0
M  V30 1591 H 149.495 -4.03755 -1.3365 0
M  V30 1592 N 147.81 0.181792 -1.56548 0
M  V30 1593 C 148.773 1.20894 -1.94724 0
M  V30 1594 C 149.773 1.37738 -0.829747 0
M  V30 1595 O 150.963 1.35323 -1.09697 0
M  V30 1596 C 148.095 2.57593 -2.23291 0
M  V30 1597 H 149.288 0.882275 -2.86629 0
M  V30 1598 H 146.841 0.423838 -1.50444 0
M  V30 1599 H 147.576 2.95291 -1.34067 0
M  V30 1600 H 147.361 2.46735 -3.04736 0
M  V30 1601 H 148.851 3.31637 -2.53785 0
M  V30 1602 N 149.288 1.51039 0.449983 0
M  V30 1603 C 150.236 1.71995 1.5659 0
M  V30 1604 C 151.23 0.586029 1.5894 0
M  V30 1605 O 152.436 0.76709 1.62837 0
M  V30 1606 H 148.811 0.543233 0.520001 0
M  V30 1607 H 150.782 2.65562 1.36085 0
M  V30 1608 C 149.531 1.8506 2.9436 0
M  V30 1609 H 148.854 2.71712 2.93279 0
M  V30 1610 H 150.294 2.0374 3.71842 0
M  V30 1611 C 148.753 0.607277 3.31382 0
M  V30 1612 O 149.283 -0.243903 4.00959 0
M  V30 1613 N 147.489 0.455073 2.87015 0
M  V30 1614 H 147.036 1.14879 2.30566 0
M  V30 1615 H 146.994 -0.375611 3.12148 0
M  V30 1616 N 150.766 -0.704594 1.40972 0
M  V30 1617 C 151.714 -1.83994 1.42299 0
M  V30 1618 C 152.708 -1.66684 0.302111 0
M  V30 1619 O 153.914 -1.73655 0.473697 0
M  V30 1620 H 150.289 -0.606171 0.44504 0
M  V30 1621 H 152.26 -1.79992 2.38003 0
M  V30 1622 C 151.009 -3.21946 1.31323 0
M  V30 1623 H 150.332 -3.35878 2.16855 0
M  V30 1624 H 151.772 -4.01491 1.36311 0
M  V30 1625 C 150.231 -3.36891 0.0245977 0
M  V30 1626 O 150.761 -3.90687 -0.934153 0
M  V30 1627 N 148.967 -2.90559 -0.0485243 0
M  V30 1628 H 148.514 -2.46968 0.732419 0
M  V30 1629 H 148.472 -3.00937 -0.910171 0
M  V30 1630 N 152.244 -1.26651 -0.937939 0
M  V30 1631 C 153.492 -1.12165 -1.68118 0
M  V30 1632 C 153.813 0.334983 -1.92101 0
M  V30 1633 O 153.083 1.23583 -1.52 0
M  V30 1634 H 151.663 -0.412093 -0.623048 0
M  V30 1635 H 154.325 -1.59027 -1.12678 0
M  V30 1636 H 153.421 -1.64289 -2.6536 0
M  V30 1637 N 153.722 1.14298 -1.08507 0
M  V30 1638 C 154.968 1.85633 -0.816581 0
M  V30 1639 C 155.301 1.82784 0.656021 0
M  V30 1640 O 154.576 1.25926 1.48233 0
M  V30 1641 C 154.859 3.34223 -1.34041 0
M  V30 1642 C 154.712 3.45639 -2.87843 0
M  V30 1643 C 156.031 4.29356 -0.9665 0
M  V30 1644 H 153.15 0.67402 -0.298104 0
M  V30 1645 H 155.792 1.34214 -1.34487 0
M  V30 1646 H 153.942 3.78144 -0.89104 0
M  V30 1647 H 155.614 3.10498 -3.41158 0
M  V30 1648 H 153.857 2.86817 -3.25451 0
M  V30 1649 H 154.528 4.50089 -3.19569 0
M  V30 1650 H 157.004 3.93457 -1.35391 0
M  V30 1651 H 155.88 5.3178 -1.3602 0
M  V30 1652 H 156.141 4.41919 0.126362 0
M  V30 1653 N 155.201 0.870884 1.31352 0
M  V30 1654 C 156.449 0.48132 1.96285 0
M  V30 1655 C 156.77 -0.969813 1.69173 0
M  V30 1656 O 156.04 -1.67998 1.00764 0
M  V30 1657 H 154.62 0.175002 0.726212 0
M  V30 1658 H 157.282 1.11087 1.60143 0
M  V30 1659 H 156.378 0.639825 3.05471 0
M  V30 1660 N 156.679 -1.44442 0.630414 0
M  V30 1661 C 157.927 -2.01653 0.134351 0
M  V30 1662 C 158.248 -1.49836 -1.24796 0
M  V30 1663 O 157.518 -0.701684 -1.82902 0
M  V30 1664 H 156.098 -0.74554 0.0466769 0
M  V30 1665 H 158.76 -1.76952 0.816955 0
M  V30 1666 H 157.856 -3.11935 0.101498 0
M  V30 1667 N 158.157 -0.370918 -1.53173 0
M  V30 1668 C 159.12 0.460778 -2.24521 0
M  V30 1669 C 160.12 1.00536 -1.25496 0
M  V30 1670 O 161.31 0.890266 -1.49733 0
M  V30 1671 C 158.442 1.64457 -2.98608 0
M  V30 1672 H 159.635 -0.163613 -2.99453 0
M  V30 1673 H 157.188 -0.122699 -1.55818 0
M  V30 1674 H 157.923 2.30691 -2.2793 0
M  V30 1675 H 157.708 1.26099 -3.7127 0
M  V30 1676 H 159.198 2.23384 -3.5283 0
M  V30 1677 N 159.635 1.57281 -0.100228 0
M  V30 1678 C 160.881 1.94826 0.563101 0
M  V30 1679 C 161.214 0.982475 1.67514 0
M  V30 1680 O 160.489 0.0164069 1.94493 0
M  V30 1681 C 160.772 3.42453 1.11346 0
M  V30 1682 C 160.625 4.498 0.00612081 0
M  V30 1683 C 161.944 3.91506 2.01024 0
M  V30 1684 H 159.063 0.708428 0.203221 0
M  V30 1685 H 161.705 1.8922 -0.171979 0
M  V30 1686 H 159.855 3.47361 1.7399 0
M  V30 1687 H 161.527 4.57 -0.628357 0
M  V30 1688 H 159.77 4.28756 -0.659581 0
M  V30 1689 H 160.441 5.50306 0.432109 0
M  V30 1690 H 162.917 3.88784 1.48278 0
M  V30 1691 H 161.793 4.95358 2.36457 0
M  V30 1692 H 162.054 3.31099 2.92961 0
M  V30 1693 N 161.113 -0.173488 1.56642 0
M  V30 1694 C 162.023 -1.23482 1.99473 0
M  V30 1695 C 163.039 -1.48567 0.905752 0
M  V30 1696 O 164.215 -1.60758 1.21321 0
M  V30 1697 C 161.28 -2.55444 2.34413 0
M  V30 1698 C 160.341 -2.38241 3.57127 0
M  V30 1699 C 159.574 -3.63909 3.90392 0
M  V30 1700 O 159.797 -4.68996 3.24653 0
M  V30 1701 O 158.731 -3.58149 4.83749 0
M  V30 1702 H 162.557 -0.901279 2.90018 0
M  V30 1703 H 160.142 -0.380185 1.44482 0
M  V30 1704 H 162.024 -3.33292 2.57865 0
M  V30 1705 H 160.699 -2.88382 1.4703 0
M  V30 1706 H 159.606 -1.58431 3.38896 0
M  V30 1707 H 160.939 -2.10228 4.45045 0
M  V30 1708 N 162.591 -1.51276 -0.441967 0
M  V30 1709 C 163.816 -1.67799 -1.21895 0
M  V30 1710 C 164.241 -0.372864 -1.84367 0
M  V30 1711 O 163.599 0.666501 -1.68604 0
M  V30 1712 C 163.647 -2.79199 -2.28211 0
M  V30 1713 O 162.751 -2.42479 -3.33583 0
M  V30 1714 H 162.092 -0.559649 -0.357336 0
M  V30 1715 H 164.622 -1.97815 -0.522522 0
M  V30 1716 H 164.632 -3.03146 -2.73069 0
M  V30 1717 H 163.307 -3.73906 -1.82118 0
M  V30 1718 H 161.884 -2.29087 -2.94234 0
M  V30 1719 N 164.069 0.697108 -1.41344 0
M  V30 1720 C 165.309 1.46939 -1.42085 0
M  V30 1721 C 165.673 1.9198 -0.0280397 0
M  V30 1722 O 166.874 2.6865 0.0897504 0
M  V30 1723 C 165.145 2.64985 -2.39828 0
M  V30 1724 S 166.704 3.54147 -2.59085 0
M  V30 1725 H 163.522 0.502146 -0.503359 0
M  V30 1726 H 166.124 0.813546 -1.77769 0
M  V30 1727 H 164.828 2.30098 -3.39828 0
M  V30 1728 H 164.359 3.35464 -2.05493 0
M  V30 1729 H 166.374 4.60137 -1.85711 0
M  V30 1730 N 165.547 1.27147 0.931209 0
M  V30 1731 C 166.795 1.13055 1.6752 0
M  V30 1732 C 167.116 -0.324791 1.92276 0
M  V30 1733 O 166.386 -1.22775 1.52654 0
M  V30 1734 H 164.966 0.415391 0.620854 0
M  V30 1735 H 167.628 1.59623 1.11833 0
M  V30 1736 H 166.724 1.65694 2.64485 0
M  V30 1737 N 167.025 -1.13721 1.09112 0
M  V30 1738 C 167.988 -2.17222 0.731241 0
M  V30 1739 C 168.988 -1.59035 -0.237566 0
M  V30 1740 O 170.178 -1.74192 -0.0161704 0
M  V30 1741 C 167.31 -3.40804 0.0808443 0
M  V30 1742 H 168.503 -2.50573 1.64783 0
M  V30 1743 H 166.056 -1.28493 0.889897 0
M  V30 1744 H 166.791 -3.1304 -0.847127 0
M  V30 1745 H 166.576 -3.84306 0.777896 0
M  V30 1746 H 168.066 -4.1731 -0.155657 0
M  V30 1747 N 168.503 -0.877838 -1.30888 0
M  V30 1748 C 169.433 -0.35534 -2.3078 0
M  V30 1749 C 170.414 0.557994 -1.60687 0
M  V30 1750 O 171.599 0.473355 -1.88343 0
M  V30 1751 C 168.729 0.437221 -3.44537 0
M  V30 1752 C 167.683 -0.383715 -4.26276 0
M  V30 1753 C 167.009 0.535014 -5.32017 0
M  V30 1754 C 168.309 -1.62201 -4.96476 0
M  V30 1755 H 170.003 -1.19007 -2.74732 0
M  V30 1756 H 167.549 -0.573698 -1.32078 0
M  V30 1757 H 169.502 0.813334 -4.13477 0
M  V30 1758 H 168.226 1.30553 -2.99372 0
M  V30 1759 H 166.885 -0.741874 -3.59015 0
M  V30 1760 H 166.533 1.40083 -4.831 0
M  V30 1761 H 166.233 -0.0104211 -5.87599 0
M  V30 1762 H 167.757 0.907799 -6.03814 0
M  V30 1763 H 169.171 -1.31689 -5.5797 0
M  V30 1764 H 167.568 -2.10711 -5.61891 0
M  V30 1765 H 168.638 -2.37044 -4.23011 0
M  V30 1766 N 169.982 1.44106 -0.638065 0
M  V30 1767 C 170.914 2.28976 0.101205 0
M  V30 1768 C 171.927 1.4167 0.802088 0
M  V30 1769 O 173.116 1.65755 0.662375 0
M  V30 1770 C 170.216 3.18217 1.16581 0
M  V30 1771 C 169.389 4.33978 0.546066 0
M  V30 1772 C 168.448 5.04202 1.50554 0
M  V30 1773 O 167.474 5.59986 1.01999 0
M  V30 1774 N 168.676 5.06296 2.8398 0
M  V30 1775 H 171.441 2.93064 -0.627186 0
M  V30 1776 H 169.002 1.54629 -0.479731 0
M  V30 1777 H 170.994 3.62061 1.80815 0
M  V30 1778 H 169.564 2.55833 1.79634 0
M  V30 1779 H 168.784 3.93239 -0.275046 0
M  V30 1780 H 170.072 5.08675 0.112793 0
M  V30 1781 H 169.47 4.62319 3.26002 0
M  V30 1782 H 168.027 5.53907 3.43556 0
M  V30 1783 N 171.46 0.379036 1.52974 0
M  V30 1784 C 172.706 -0.206727 2.01744 0
M  V30 1785 C 173.039 -1.47314 1.26539 0
M  V30 1786 O 172.314 -1.91084 0.362903 0
M  V30 1787 C 172.597 -0.485066 3.56818 0
M  V30 1788 C 172.45 0.795919 4.42702 0
M  V30 1789 C 173.769 -1.28003 4.21074 0
M  V30 1790 H 170.888 -0.0736607 0.73331 0
M  V30 1791 H 173.53 0.506581 1.83122 0
M  V30 1792 H 171.68 -1.09272 3.72816 0
M  V30 1793 H 173.352 1.43307 4.38476 0
M  V30 1794 H 171.595 1.41344 4.10127 0
M  V30 1795 H 172.266 0.555947 5.49193 0
M  V30 1796 H 174.742 -0.765867 4.08991 0
M  V30 1797 H 173.618 -1.44352 5.29579 0
M  V30 1798 H 173.879 -2.29236 3.78026 0
M  V30 1799 N 172.938 -1.57226 0.108567 0
M  V30 1800 C 173.885 -2.14756 -0.845481 0
M  V30 1801 C 174.855 -1.06971 -1.27068 0
M  V30 1802 O 176.04 -1.34827 -1.35005 0
M  V30 1803 C 173.18 -2.74298 -2.09415 0
M  V30 1804 C 172.293 -3.96358 -1.71826 0
M  V30 1805 C 171.428 -4.44021 -2.9158 0
M  V30 1806 C 170.467 -5.58637 -2.50181 0
M  V30 1807 N 169.604 -6.01091 -3.62814 0
M  V30 1808 H 174.444 -2.95961 -0.348035 0
M  V30 1809 H 171.981 -1.46226 -0.160106 0
M  V30 1810 H 173.939 -3.06945 -2.82561 0
M  V30 1811 H 172.569 -1.95801 -2.56636 0
M  V30 1812 H 171.621 -3.69939 -0.885947 0
M  V30 1813 H 172.933 -4.79504 -1.37394 0
M  V30 1814 H 172.087 -4.78522 -3.72963 0
M  V30 1815 H 170.826 -3.59803 -3.29231 0
M  V30 1816 H 169.831 -5.23751 -1.67228 0
M  V30 1817 H 171.056 -6.44613 -2.13659 0
M  V30 1818 H 169.002 -5.19817 -4.00158 0
M  V30 1819 H 168.919 -6.79066 -3.32273 0
M  V30 1820 H 170.187 -6.40227 -4.44668 0
M  V30 1821 N 174.416 0.165178 -1.56732 0
M  V30 1822 C 175.349 1.23336 -1.91998 0
M  V30 1823 C 176.327 1.42476 -0.783531 0
M  V30 1824 O 177.511 1.57384 -1.03743 0
M  V30 1825 C 174.638 2.59533 -2.17625 0
M  V30 1826 C 173.684 2.57093 -3.40302 0
M  V30 1827 S 174.517 2.05571 -4.9447 0
M  V30 1828 C 175.673 3.43532 -5.23198 0
M  V30 1829 H 175.906 0.932387 -2.82301 0
M  V30 1830 H 173.439 0.370013 -1.49901 0
M  V30 1831 H 175.397 3.37918 -2.3307 0
M  V30 1832 H 174.058 2.86827 -1.28019 0
M  V30 1833 H 173.251 3.57308 -3.55453 0
M  V30 1834 H 172.853 1.86806 -3.24005 0
M  V30 1835 H 175.145 4.39559 -5.15552 0
M  V30 1836 H 176.088 3.33251 -6.2478 0
M  V30 1837 H 176.496 3.39828 -4.50752 0
M  V30 1838 N 175.894 1.51508 0.433938 0
M  V30 1839 C 176.841 1.73068 1.52696 0
M  V30 1840 C 177.811 0.572441 1.55924 0
M  V30 1841 O 178.996 0.807253 1.72882 0
M  V30 1842 C 176.136 1.86474 2.90381 0
M  V30 1843 C 175.249 3.14037 2.96656 0
M  V30 1844 C 174.384 3.18019 4.25485 0
M  V30 1845 C 173.423 4.39882 4.2564 0
M  V30 1846 N 172.56 4.41394 5.45999 0
M  V30 1847 H 177.4 2.66366 1.33615 0
M  V30 1848 H 174.937 1.32008 0.649018 0
M  V30 1849 H 176.895 1.92229 3.70275 0
M  V30 1850 H 175.525 0.965809 3.08013 0
M  V30 1851 H 174.577 3.17575 2.09404 0
M  V30 1852 H 175.889 4.0394 2.92633 0
M  V30 1853 H 175.043 3.22708 5.13755 0
M  V30 1854 H 173.782 2.2601 4.3217 0
M  V30 1855 H 172.787 4.35366 3.35763 0
M  V30 1856 H 174.012 5.33159 4.20617 0
M  V30 1857 H 171.958 3.52258 5.53399 0
M  V30 1858 H 171.875 5.25111 5.4387 0
M  V30 1859 H 173.143 4.50281 6.36292 0
M  V30 1860 N 177.372 -0.689602 1.41712 0
M  V30 1861 C 178.783 -1.26973 1.36875 0
M  V30 1862 C 179.134 -1.96124 0.054748 0
M  V30 1863 O 178.259 -1.99141 -0.84687 0
M  V30 1864 C 178.854 -2.30912 2.47922 0
M  V30 1865 C 177.413 -2.84486 2.46464 0
M  V30 1866 C 176.56 -1.58603 2.27465 0
M  V30 1867 H 179.511 -0.48396 1.51141 0
M  V30 1868 H 179.532 -3.12331 2.17323 0
M  V30 1869 H 179.044 -1.80554 3.43543 0
M  V30 1870 H 177.145 -3.39005 1.54617 0
M  V30 1871 H 177.258 -3.34511 3.42986 0
M  V30 1872 H 175.622 -1.84632 1.75451 0
M  V30 1873 H 176.405 -1.10233 3.25121 0
M  V30 1874 N 178.85 -1.27639 -0.924453 0
M  V30 1875 C 179.797 -1.10644 -2.0255 0
M  V30 1876 C 180.767 -0.00658438 -1.66099 0
M  V30 1877 O 181.952 -0.16952 -1.90045 0
M  V30 1878 C 179.092 -0.76309 -3.36557 0
M  V30 1879 C 178.205 -1.94091 -3.85944 0
M  V30 1880 C 177.34 -1.53914 -5.08413 0
M  V30 1881 C 176.379 -2.68425 -5.50104 0
M  V30 1882 N 175.516 -2.28815 -6.63768 0
M  V30 1883 H 180.356 -2.04858 -2.16419 0
M  V30 1884 H 177.893 -1.01974 -1.06017 0
M  V30 1885 H 179.851 -0.544822 -4.13627 0
M  V30 1886 H 178.481 0.142102 -3.22487 0
M  V30 1887 H 177.533 -2.27162 -3.05125 0
M  V30 1888 H 178.845 -2.7998 -4.12811 0
M  V30 1889 H 177.999 -1.28231 -5.92994 0
M  V30 1890 H 176.738 -0.651391 -4.8333 0
M  V30 1891 H 175.743 -2.94819 -4.64071 0
M  V30 1892 H 176.968 -3.57826 -5.7718 0
M  V30 1893 H 174.914 -1.42495 -6.40337 0
M  V30 1894 H 174.831 -3.08242 -6.90306 0
M  V30 1895 H 176.099 -2.06387 -7.51681 0
M  V30 1896 N 180.328 1.1314 -1.09713 0
M  V30 1897 C 181.577 1.83838 -0.829851 0
M  V30 1898 C 181.89 1.84599 0.646728 0
M  V30 1899 O 183.096 2.51218 1.02965 0
M  V30 1900 C 181.552 3.30069 -1.43466 0
M  V30 1901 C 181.16 3.37688 -2.94399 0
M  V30 1902 C 182.904 4.05788 -1.24645 0
M  V30 1903 C 180.811 4.78209 -3.47952 0
M  V30 1904 H 179.741 0.68877 -0.306777 0
M  V30 1905 H 182.392 1.27448 -1.3202 0
M  V30 1906 H 180.774 3.8628 -0.871996 0
M  V30 1907 H 181.948 2.91456 -3.56918 0
M  V30 1908 H 180.263 2.75436 -3.12289 0
M  V30 1909 H 182.86 5.09535 -1.62107 0
M  V30 1910 H 183.203 4.15878 -0.187357 0
M  V30 1911 H 183.736 3.55915 -1.77678 0
M  V30 1912 H 180.475 4.73311 -4.53495 0
M  V30 1913 H 179.995 5.24924 -2.90198 0
M  V30 1914 H 181.674 5.47133 -3.45332 0
M  V30 1915 N 181.806 0.884767 1.30421 0
M  V30 1916 C 183.034 0.518044 2.0031 0
M  V30 1917 C 183.449 -0.893408 1.66324 0
M  V30 1918 O 182.806 -1.5875 0.900262 0
M  V30 1919 C 182.857 0.682997 3.54989 0
M  V30 1920 O 182.578 2.03888 3.87764 0
M  V30 1921 C 184.079 0.31924 4.42149 0
M  V30 1922 H 181.299 0.200265 0.640418 0
M  V30 1923 H 183.843 1.19001 1.6631 0
M  V30 1924 H 181.998 0.0584052 3.87356 0
M  V30 1925 H 182.412 2.05735 4.82466 0
M  V30 1926 H 183.886 0.485555 5.4986 0
M  V30 1927 H 184.363 -0.742717 4.32875 0
M  V30 1928 H 184.969 0.920147 4.15227 0
M  V30 1929 N 183.284 -1.43765 0.645699 0
M  V30 1930 C 184.7 -1.56509 0.312591 0
M  V30 1931 C 184.9 -1.6307 -1.18365 0
M  V30 1932 O 183.956 -1.58167 -1.96824 0
M  V30 1933 C 185.269 -2.82968 1.01733 0
M  V30 1934 C 186.817 -2.96701 0.996865 0
M  V30 1935 C 187.292 -4.25982 1.68236 0
M  V30 1936 N 188.783 -4.32829 1.64964 0
M  V30 1937 C 189.518 -5.31613 2.14885 0
M  V30 1938 N 189.014 -6.36718 2.73061 0
M  V30 1939 N 190.807 -5.23217 2.05428 0
M  V30 1940 H 182.958 -1.3775 1.61675 0
M  V30 1941 H 185.221 -0.661067 0.679481 0
M  V30 1942 H 184.927 -2.84156 2.0724 0
M  V30 1943 H 184.801 -3.72957 0.564177 0
M  V30 1944 H 187.188 -2.95058 -0.0497719 0
M  V30 1945 H 187.269 -2.08022 1.48865 0
M  V30 1946 H 186.913 -4.28386 2.72852 0
M  V30 1947 H 186.843 -5.13545 1.16529 0
M  V30 1948 H 189.334 -3.57493 1.22503 0
M  V30 1949 H 189.647 -7.08401 3.08848 0
M  V30 1950 H 187.992 -6.37362 2.77118 0
M  V30 1951 H 191.183 -4.40019 1.59689 0
M  V30 1952 H 191.356 -6.00045 2.44643 0
M  V30 1953 N 184.763 -0.387143 -1.52771 0
M  V30 1954 C 186.174 0.0873634 -1.86495 0
M  V30 1955 C 186.525 1.46336 -1.30691 0
M  V30 1956 O 185.65 2.068 -0.637409 0
M  V30 1957 C 186.245 0.165305 -3.38396 0
M  V30 1958 C 184.804 0.584101 -3.7184 0
M  V30 1959 C 183.951 -0.255279 -2.76122 0
M  V30 1960 H 186.902 -0.605104 -1.46711 0
M  V30 1961 H 186.923 0.984848 -3.67534 0
M  V30 1962 H 186.435 -0.836301 -3.78982 0
M  V30 1963 H 184.536 1.59315 -3.36823 0
M  V30 1964 H 184.649 0.343749 -4.77865 0
M  V30 1965 H 183.013 0.279126 -2.53166 0
M  V30 1966 H 183.796 -1.25482 -3.19545 0
M  V30 1967 N 186.241 1.57166 -0.116904 0
M  V30 1968 C 187.652 1.82169 0.408809 0
M  V30 1969 C 188.003 1.03393 1.66746 0
M  V30 1970 O 187.128 0.269886 2.1471 0
M  V30 1971 C 187.723 3.30429 0.748466 0
M  V30 1972 C 186.282 3.5612 1.21882 0
M  V30 1973 C 185.429 2.76374 0.226452 0
M  V30 1974 H 188.38 1.5497 -0.342063 0
M  V30 1975 H 188.401 3.44943 1.60607 0
M  V30 1976 H 187.913 3.87737 -0.167784 0
M  V30 1977 H 186.014 3.04168 2.15204 0
M  V30 1978 H 186.127 4.64705 1.16559 0
M  V30 1979 H 184.491 2.44515 0.713063 0
M  V30 1980 H 185.274 3.3644 -0.682859 0
M  V30 1981 N 187.719 -0.156864 1.56817 0
M  V30 1982 C 188.968 -0.869504 1.81996 0
M  V30 1983 C 189.281 -1.82777 0.696545 0
M  V30 1984 O 190.487 -2.58384 0.833658 0
M  V30 1985 C 188.943 -1.59679 3.22538 0
M  V30 1986 C 188.551 -0.681431 4.42787 0
M  V30 1987 C 190.295 -2.2968 3.56997 0
M  V30 1988 C 188.202 -1.40978 5.74351 0
M  V30 1989 H 187.132 -0.328438 0.678708 0
M  V30 1990 H 189.783 -0.1223 1.83092 0
M  V30 1991 H 188.165 -2.38927 3.158 0
M  V30 1992 H 189.339 0.0751166 4.60739 0
M  V30 1993 H 187.654 -0.0903431 4.16302 0
M  V30 1994 H 190.251 -2.84794 4.52544 0
M  V30 1995 H 190.594 -3.05707 2.82576 0
M  V30 1996 H 191.127 -1.57361 3.65352 0
M  V30 1997 H 187.866 -0.691561 6.51842 0
M  V30 1998 H 187.386 -2.13929 5.60352 0
M  V30 1999 H 189.065 -1.95337 6.16808 0
M  V30 2000 N 189.197 -1.51736 -0.425897 0
M  V30 2001 C 190.145 -1.74464 -1.53834 0
M  V30 2002 C 191.139 -0.611241 -1.57988 0
M  V30 2003 O 192.345 -0.792899 -1.61596 0
M  V30 2004 H 188.72 -0.551437 -0.511293 0
M  V30 2005 H 190.691 -2.67694 -1.31843 0
M  V30 2006 C 189.44 -1.8972 -2.91379 0
M  V30 2007 H 188.763 -2.76344 -2.88919 0
M  V30 2008 H 190.203 -2.09629 -3.68553 0
M  V30 2009 C 188.662 -0.65992 -3.30374 0
M  V30 2010 O 189.192 0.180083 -4.01296 0
M  V30 2011 N 187.398 -0.500677 -2.86254 0
M  V30 2012 H 186.945 -1.18532 -2.28709 0
M  V30 2013 H 186.903 0.325903 -3.12706 0
M  V30 2014 N 190.675 0.682077 -1.42076 0
M  V30 2015 C 191.921 1.44428 -1.42367 0
M  V30 2016 C 192.254 1.94164 -0.0373056 0
M  V30 2017 O 191.529 1.70429 0.937239 0
M  V30 2018 C 191.812 2.64654 -2.44194 0
M  V30 2019 C 191.665 2.20596 -3.91991 0
M  V30 2020 C 192.984 3.66865 -2.431 0
M  V30 2021 H 190.103 0.523834 -0.518428 0
M  V30 2022 H 192.745 0.77576 -1.73442 0
M  V30 2023 H 190.895 3.2169 -2.17826 0
M  V30 2024 H 192.567 1.68783 -4.29313 0
M  V30 2025 H 190.81 1.52242 -4.06208 0
M  V30 2026 H 191.481 3.06921 -4.58807 0
M  V30 2027 H 193.957 3.19531 -2.66532 0
M  V30 2028 H 192.833 4.48577 -3.16339 0
M  V30 2029 H 193.094 4.17493 -1.45437 0
M  V30 2030 N 192.153 1.28127 0.917671 0
M  V30 2031 C 193.1 1.11717 2.0196 0
M  V30 2032 C 194.07 0.0153929 1.66093 0
M  V30 2033 O 195.255 0.179596 1.89953 0
M  V30 2034 C 192.395 0.780927 3.36148 0
M  V30 2035 C 191.508 1.96135 3.84909 0
M  V30 2036 C 190.643 1.56609 5.0759 0
M  V30 2037 C 189.682 2.71339 5.48673 0
M  V30 2038 N 188.819 2.32332 6.62545 0
M  V30 2039 H 193.659 2.06003 2.15329 0
M  V30 2040 H 191.196 1.02535 1.05475 0
M  V30 2041 H 193.154 0.56675 4.13333 0
M  V30 2042 H 191.784 -0.124998 3.22558 0
M  V30 2043 H 190.836 2.28777 3.03916 0
M  V30 2044 H 192.148 2.82165 4.1132 0
M  V30 2045 H 191.302 1.31374 5.92305 0
M  V30 2046 H 190.041 0.677014 4.82978 0
M  V30 2047 H 189.046 2.97276 4.62501 0
M  V30 2048 H 190.271 3.60882 5.75274 0
M  V30 2049 H 188.217 1.45889 6.39572 0
M  V30 2050 H 188.134 3.11899 6.88662 0
M  V30 2051 H 189.402 2.10371 7.50576 0
M  V30 2052 N 193.631 -1.12557 1.10312 0
M  V30 2053 C 194.88 -1.83395 0.839588 0
M  V30 2054 C 195.193 -1.84939 -0.636929 0
M  V30 2055 O 196.399 -2.51761 -1.01631 0
M  V30 2056 C 194.855 -3.29303 1.45215 0
M  V30 2057 C 194.463 -3.36122 2.96186 0
M  V30 2058 C 196.207 -4.05121 1.26796 0
M  V30 2059 C 194.114 -4.76357 3.50483 0
M  V30 2060 H 193.044 -0.687133 0.310425 0
M  V30 2061 H 195.695 -1.26746 1.32694 0
M  V30 2062 H 194.077 -3.85812 0.892469 0
M  V30 2063 H 195.251 -2.89559 3.58458 0
M  V30 2064 H 193.566 -2.73776 3.13745 0
M  V30 2065 H 196.163 -5.08668 1.64806 0
M  V30 2066 H 196.506 -4.15773 0.209409 0
M  V30 2067 H 197.039 -3.54967 1.79563 0
M  V30 2068 H 193.778 -4.70899 4.55998 0
M  V30 2069 H 193.298 -5.23377 2.92978 0
M  V30 2070 H 194.977 -5.45294 3.48228 0
M  V30 2071 N 195.109 -0.891671 -1.2995 0
M  V30 2072 C 196.358 -0.509521 -1.95158 0
M  V30 2073 C 196.671 0.947388 -1.71125 0
M  V30 2074 O 197.877 1.43669 -2.30372 0
M  V30 2075 C 196.333 -0.860315 -3.49466 0
M  V30 2076 C 195.941 -2.33545 -3.8231 0
M  V30 2077 C 197.685 -0.547687 -4.20952 0
M  V30 2078 C 195.592 -2.62752 -5.29826 0
M  V30 2079 H 194.522 -0.18682 -0.730489 0
M  V30 2080 H 197.173 -1.08756 -1.47798 0
M  V30 2081 H 195.555 -0.211285 -3.95436 0
M  V30 2082 H 196.729 -3.02936 -3.47227 0
M  V30 2083 H 195.044 -2.61629 -3.23944 0
M  V30 2084 H 197.641 -0.742854 -5.29515 0
M  V30 2085 H 197.984 0.51332 -4.13123 0
M  V30 2086 H 198.517 -1.1542 -3.80688 0
M  V30 2087 H 195.256 -3.6762 -5.42712 0
M  V30 2088 H 194.776 -1.97977 -5.66185 0
M  V30 2089 H 196.455 -2.48601 -5.97333 0
M  V30 2090 N 196.587 1.43421 -0.653314 0
M  V30 2091 C 197.497 2.34568 0.0388565 0
M  V30 2092 C 198.513 1.53888 0.81207 0
M  V30 2093 O 199.689 1.86539 0.759294 0
M  V30 2094 C 196.754 3.32167 0.993269 0
M  V30 2095 C 195.815 4.28751 0.216977 0
M  V30 2096 C 195.048 5.21688 1.12593 0
M  V30 2097 O 195.271 5.19052 2.36519 0
M  V30 2098 O 194.205 5.98919 0.598284 0
M  V30 2099 H 198.031 2.95251 -0.711386 0
M  V30 2100 H 195.616 1.43564 -0.413502 0
M  V30 2101 H 197.498 3.92183 1.54176 0
M  V30 2102 H 196.173 2.73987 1.72374 0
M  V30 2103 H 195.08 3.72215 -0.375101 0
M  V30 2104 H 196.413 4.89913 -0.473924 0
M  V30 2105 N 198.065 0.39524 1.52563 0
M  V30 2106 C 199.313 -0.184678 2.01254 0
M  V30 2107 C 199.634 -1.46822 1.28329 0
M  V30 2108 O 198.904 -1.91666 0.405094 0
M  V30 2109 H 197.484 -0.0712355 0.743596 0
M  V30 2110 H 200.146 0.528293 1.87603 0
M  V30 2111 H 199.242 -0.390681 3.09645 0
M  V30 2112 N 199.544 -1.57102 0.125237 0
M  V30 2113 C 200.474 -2.18659 -0.819174 0
M  V30 2114 C 201.455 -1.12843 -1.27281 0
M  V30 2115 O 202.64 -1.41104 -1.33429 0
M  V30 2116 C 199.77 -2.79096 -2.06695 0
M  V30 2117 C 198.724 -3.90548 -1.75088 0
M  V30 2118 C 198.05 -4.37821 -3.06948 0
M  V30 2119 C 199.35 -5.12356 -1.01435 0
M  V30 2120 H 201.044 -2.9783 -0.306202 0
M  V30 2121 H 198.59 -1.4326 -0.145839 0
M  V30 2122 H 200.543 -3.2082 -2.73226 0
M  V30 2123 H 199.267 -1.97223 -2.60328 0
M  V30 2124 H 197.926 -3.49409 -1.10944 0
M  V30 2125 H 197.574 -3.52799 -3.58527 0
M  V30 2126 H 197.274 -5.12982 -2.86571 0
M  V30 2127 H 198.798 -4.822 -3.74587 0
M  V30 2128 H 200.212 -5.5106 -1.58132 0
M  V30 2129 H 198.609 -5.9314 -0.911319 0
M  V30 2130 H 199.679 -4.849 -0.00218681 0
M  V30 2131 N 201.022 0.148545 -1.56898 0
M  V30 2132 C 201.969 1.18345 -1.98149 0
M  V30 2133 C 202.939 1.42772 -0.848848 0
M  V30 2134 O 204.124 1.55132 -1.11079 0
M  V30 2135 C 201.264 2.51231 -2.36594 0
M  V30 2136 C 200.377 2.33991 -3.63142 0
M  V30 2137 C 199.512 3.59902 -3.90697 0
M  V30 2138 C 198.551 3.37692 -5.1052 0
M  V30 2139 N 197.688 4.5573 -5.34092 0
M  V30 2140 H 202.528 0.82467 -2.86362 0
M  V30 2141 H 200.065 0.395756 -1.41676 0
M  V30 2142 H 202.023 3.28713 -2.56912 0
M  V30 2143 H 200.653 2.85059 -1.51463 0
M  V30 2144 H 199.705 1.47572 -3.50609 0
M  V30 2145 H 201.017 2.13539 -4.5078 0
M  V30 2146 H 200.171 4.45813 -4.11505 0
M  V30 2147 H 198.91 3.83357 -3.01477 0
M  V30 2148 H 197.915 2.5017 -4.89587 0
M  V30 2149 H 199.14 3.15637 -6.0129 0
M  V30 2150 H 197.086 4.79361 -4.47827 0
M  V30 2151 H 197.003 4.38274 -6.15996 0
M  V30 2152 H 198.271 5.42858 -5.59397 0
M  V30 2153 N 202.5 1.5196 0.417844 0
M  V30 2154 C 203.463 1.74065 1.49111 0
M  V30 2155 C 204.463 0.610537 1.48758 0
M  V30 2156 O 205.653 0.87832 1.50437 0
M  V30 2157 C 202.785 1.81502 2.88565 0
M  V30 2158 H 203.978 2.69869 1.30807 0
M  V30 2159 H 201.531 1.42244 0.647785 0
M  V30 2160 H 202.266 0.875813 3.1225 0
M  V30 2161 H 202.051 2.63651 2.90225 0
M  V30 2162 H 203.541 2.00376 3.66387 0
M  V30 2163 N 203.978 -0.674533 1.42435 0
M  V30 2164 C 205.224 -1.43671 1.43131 0
M  V30 2165 C 205.557 -1.94142 0.0476021 0
M  V30 2166 O 204.832 -1.70924 -0.928188 0
M  V30 2167 C 205.115 -2.63355 2.45594 0
M  V30 2168 C 204.968 -2.18514 3.93156 0
M  V30 2169 C 206.287 -3.65571 2.45043 0
M  V30 2170 H 203.406 -0.521077 0.521198 0
M  V30 2171 H 206.048 -0.766551 1.7385 0
M  V30 2172 H 204.198 -3.2053 2.19528 0
M  V30 2173 H 205.87 -1.66504 4.30202 0
M  V30 2174 H 204.113 -1.50086 4.07009 0
M  V30 2175 H 204.784 -3.04484 4.60428 0
M  V30 2176 H 207.26 -3.18113 2.68223 0
M  V30 2177 H 206.136 -4.46893 3.18713 0
M  V30 2178 H 206.397 -4.16716 1.47649 0
M  V30 2179 N 205.456 -1.28612 -0.910864 0
M  V30 2180 C 206.386 -1.15326 -2.03032 0
M  V30 2181 C 207.367 -0.0502924 -1.70026 0
M  V30 2182 O 208.552 -0.227797 -1.92859 0
M  V30 2183 C 205.682 -0.817343 -3.37545 0
M  V30 2184 C 204.636 -1.8754 -3.84724 0
M  V30 2185 C 203.962 -1.39305 -5.16235 0
M  V30 2186 C 205.262 -3.28244 -4.06267 0
M  V30 2187 H 206.956 -2.08975 -2.14406 0
M  V30 2188 H 204.502 -1.00612 -1.03021 0
M  V30 2189 H 206.455 -0.711151 -4.15356 0
M  V30 2190 H 205.179 0.154846 -3.26233 0
M  V30 2191 H 203.838 -1.97079 -3.09121 0
M  V30 2192 H 203.486 -0.409846 -5.01328 0
M  V30 2193 H 203.186 -2.10057 -5.48771 0
M  V30 2194 H 204.71 -1.30014 -5.96598 0
M  V30 2195 H 206.124 -3.21611 -4.74594 0
M  V30 2196 H 204.521 -3.96855 -4.5014 0
M  V30 2197 H 205.591 -3.72048 -3.10979 0
M  V30 2198 N 206.934 1.1197 -1.10907 0
M  V30 2199 C 208.345 1.65114 -0.871446 0
M  V30 2200 C 208.696 1.86885 0.597353 0
M  V30 2201 O 207.821 1.59896 1.45816 0
M  V30 2202 C 208.416 2.99944 -1.5754 0
M  V30 2203 C 206.975 3.50018 -1.38435 0
M  V30 2204 C 206.122 2.24941 -1.62164 0
M  V30 2205 H 209.073 0.956851 -1.2661 0
M  V30 2206 H 209.094 3.66651 -1.01721 0
M  V30 2207 H 208.606 2.84067 -2.64438 0
M  V30 2208 H 206.707 3.71071 -0.337214 0
M  V30 2209 H 206.82 4.29165 -2.12965 0
M  V30 2210 H 205.184 2.3229 -1.04467 0
M  V30 2211 H 205.967 2.11612 -2.70324 0
M  V30 2212 N 208.412 0.89855 1.29475 0
M  V30 2213 C 209.652 0.530771 1.97388 0
M  V30 2214 C 210.016 -0.905832 1.69289 0
M  V30 2215 O 211.217 -1.38042 2.30646 0
M  V30 2216 C 209.488 0.81369 3.48014 0
M  V30 2217 S 211.047 0.550048 4.35339 0
M  V30 2218 H 207.865 0.196956 0.683176 0
M  V30 2219 H 210.467 1.16074 1.57312 0
M  V30 2220 H 209.171 1.85749 3.65958 0
M  V30 2221 H 208.702 0.171795 3.93025 0
M  V30 2222 H 210.717 -0.605423 4.92493 0
M  V30 2223 N 209.89 -1.43072 0.660911 0
M  V30 2224 C 211.118 -2.06067 0.185422 0
M  V30 2225 C 211.533 -1.49582 -1.15198 0
M  V30 2226 O 210.89 -0.630134 -1.71276 0
M  V30 2227 C 210.941 -3.61371 0.0966523 0
M  V30 2228 O 210.662 -4.15758 1.38119 0
M  V30 2229 C 212.163 -4.41455 -0.403996 0
M  V30 2230 H 209.383 -0.664459 0.0934604 0
M  V30 2231 H 211.927 -1.83447 0.90373 0
M  V30 2232 H 210.082 -3.8315 -0.572259 0
M  V30 2233 H 210.496 -5.09499 1.24542 0
M  V30 2234 H 211.97 -5.50437 -0.415045 0
M  V30 2235 H 212.447 -4.15036 -1.43674 0
M  V30 2236 H 213.053 -4.24663 0.232691 0
M  V30 2237 N 211.368 -0.403325 -1.52352 0
M  V30 2238 C 212.596 0.174012 -2.06167 0
M  V30 2239 C 213.011 1.39347 -1.27388 0
M  V30 2240 O 212.368 1.79597 -0.324201 0
M  V30 2241 C 212.419 0.530223 -3.5759 0
M  V30 2242 O 212.14 -0.640806 -4.33388 0
M  V30 2243 C 213.641 1.16192 -4.27802 0
M  V30 2244 H 210.861 0.0229464 -0.670608 0
M  V30 2245 H 213.405 -0.572604 -1.9632 0
M  V30 2246 H 211.56 1.22673 -3.67464 0
M  V30 2247 H 211.974 -0.344851 -5.23365 0
M  V30 2248 H 213.448 1.36141 -5.34948 0
M  V30 2249 H 213.925 2.13335 -3.83907 0
M  V30 2250 H 214.531 0.505775 -4.22282 0
M  V30 2251 N 212.846 1.57033 -0.133567 0
M  V30 2252 C 213.779 2.11824 0.848872 0
M  V30 2253 C 214.757 1.03833 1.2513 0
M  V30 2254 O 215.941 1.31579 1.34978 0
M  V30 2255 C 213.068 2.62692 2.138 0
M  V30 2256 C 212.114 3.82705 1.88253 0
M  V30 2257 S 212.947 5.2438 1.08563 0
M  V30 2258 C 214.103 5.78627 2.38624 0
M  V30 2259 H 214.336 2.94824 0.38289 0
M  V30 2260 H 211.869 1.5419 0.0804796 0
M  V30 2261 H 213.827 2.92652 2.87863 0
M  V30 2262 H 212.488 1.79847 2.57515 0
M  V30 2263 H 211.681 4.16496 2.83809 0
M  V30 2264 H 211.283 3.53437 1.22305 0
M  V30 2265 H 213.575 5.8924 3.34369 0
M  V30 2266 H 214.518 6.76443 2.09358 0
M  V30 2267 H 214.926 5.06783 2.48658 0
M  V30 2268 N 214.325 -0.140222 1.56975 0
M  V30 2269 C 215.573 -0.850005 1.83356 0
M  V30 2270 C 215.894 -1.81399 0.71551 0
M  V30 2271 O 215.164 -1.94136 -0.262294 0
M  V30 2272 H 213.744 -0.316886 0.676456 0
M  V30 2273 H 216.406 -0.132608 1.94448 0
M  V30 2274 H 215.502 -1.40814 2.78528 0
M  V30 2275 N 215.803 -1.52179 -0.40978 0
M  V30 2276 C 216.751 -1.76086 -1.51975 0
M  V30 2277 C 217.745 -0.627964 -1.57331 0
M  V30 2278 O 218.951 -0.809993 -1.60745 0
M  V30 2279 H 215.326 -0.556829 -0.505416 0
M  V30 2280 H 217.297 -2.69077 -1.28996 0
M  V30 2281 C 216.046 -1.92799 -2.8935 0
M  V30 2282 H 215.369 -2.79392 -2.85972 0
M  V30 2283 H 216.809 -2.13527 -3.66309 0
M  V30 2284 C 215.268 -0.694923 -3.29655 0
M  V30 2285 O 215.798 0.13751 -4.01465 0
M  V30 2286 N 214.004 -0.53101 -2.85707 0
M  V30 2287 H 213.551 -1.20952 -2.27439 0
M  V30 2288 H 213.509 0.292718 -3.13034 0
M  V30 2289 N 217.281 0.66697 -1.42791 0
M  V30 2290 C 218.692 1.2478 -1.38877 0
M  V30 2291 C 219.043 1.96012 -0.0859426 0
M  V30 2292 O 218.168 2.00463 0.815081 0
M  V30 2293 C 218.763 2.26938 -2.51564 0
M  V30 2294 C 217.322 2.80529 -2.50959 0
M  V30 2295 C 216.469 1.54965 -2.29959 0
M  V30 2296 H 219.42 0.459853 -1.51892 0
M  V30 2297 H 219.441 3.08834 -2.22265 0
M  V30 2298 H 218.953 1.75065 -3.46372 0
M  V30 2299 H 217.054 3.36502 -1.59991 0
M  V30 2300 H 217.167 3.29012 -3.48265 0
M  V30 2301 H 215.531 1.81817 -1.78366 0
M  V30 2302 H 216.314 1.05047 -3.26833 0
M  V30 2303 N 218.759 1.29093 0.90403 0
M  V30 2304 C 219.706 1.13853 2.00764 0
M  V30 2305 C 220.676 0.0330084 1.66067 0
M  V30 2306 O 221.861 0.199733 1.89752 0
M  V30 2307 C 219.001 0.816537 3.35301 0
M  V30 2308 C 218.114 2.00206 3.82807 0
M  V30 2309 C 217.249 1.61983 5.059 0
M  V30 2310 C 216.288 2.77143 5.45764 0
M  V30 2311 N 215.425 2.39346 6.60044 0
M  V30 2312 H 220.265 2.08276 2.13132 0
M  V30 2313 H 217.802 1.03648 1.04381 0
M  V30 2314 H 219.76 0.610557 4.12708 0
M  V30 2315 H 218.39 -0.090779 3.22672 0
M  V30 2316 H 217.442 2.31988 3.01473 0
M  V30 2317 H 218.754 2.86512 4.08304 0
M  V30 2318 H 217.908 1.37649 5.90879 0
M  V30 2319 H 216.647 0.728202 4.82233 0
M  V30 2320 H 215.652 3.02165 4.59322 0
M  V30 2321 H 216.877 3.66964 5.71414 0
M  V30 2322 H 214.823 1.52665 6.37989 0
M  V30 2323 H 214.74 3.19185 6.85315 0
M  V30 2324 H 216.008 2.1832 7.48303 0
M  V30 2325 N 220.237 -1.11381 1.11499 0
M  V30 2326 C 221.648 -1.6465 0.880191 0
M  V30 2327 C 221.999 -1.87199 -0.587434 0
M  V30 2328 O 221.124 -1.60667 -1.44966 0
M  V30 2329 C 221.719 -2.99105 1.59128 0
M  V30 2330 C 220.278 -3.49279 1.40289 0
M  V30 2331 C 219.425 -2.24077 1.63354 0
M  V30 2332 H 222.376 -0.950123 1.27116 0
M  V30 2333 H 222.397 -3.66107 1.03664 0
M  V30 2334 H 221.909 -2.82661 2.65941 0
M  V30 2335 H 220.01 -3.70887 0.356888 0
M  V30 2336 H 220.123 -4.2803 2.15238 0
M  V30 2337 H 218.487 -2.31733 1.05698 0
M  V30 2338 H 219.27 -2.10175 2.71443 0
M  V30 2339 N 221.715 -0.905404 -1.28997 0
M  V30 2340 C 222.94 -0.549175 -1.99997 0
M  V30 2341 C 223.365 0.860276 -1.67275 0
M  V30 2342 O 222.723 1.57355 -0.900502 0
M  V30 2343 C 222.771 -0.755185 -3.52604 0
M  V30 2344 O 221.875 0.189692 -4.11964 0
M  V30 2345 H 221.216 -0.213899 -0.628604 0
M  V30 2346 H 223.746 -1.21856 -1.64354 0
M  V30 2347 H 223.756 -0.662045 -4.02593 0
M  V30 2348 H 222.431 -1.78271 -3.75755 0
M  V30 2349 H 221.008 0.0485257 -3.72868 0
M  V30 2350 N 223.193 1.4272 -0.668489 0
M  V30 2351 C 224.439 2.01923 -0.188419 0
M  V30 2352 C 224.772 1.52704 1.19979 0
M  V30 2353 O 224.047 0.726566 1.8042 0
M  V30 2354 C 224.33 3.59451 -0.216085 0
M  V30 2355 C 224.183 4.18864 -1.6393 0
M  V30 2356 C 225.502 4.37903 0.439179 0
M  V30 2357 H 222.621 0.733674 -0.0699412 0
M  V30 2358 H 225.263 1.69822 -0.852076 0
M  V30 2359 H 223.413 3.86929 0.349012 0
M  V30 2360 H 225.085 4.02362 -2.25616 0
M  V30 2361 H 223.328 3.74933 -2.18193 0
M  V30 2362 H 223.999 5.27987 -1.61039 0
M  V30 2363 H 226.475 4.16079 -0.0417878 0
M  V30 2364 H 225.351 5.47519 0.389157 0
M  V30 2365 H 225.612 4.15303 1.51577 0
M  V30 2366 N 224.671 0.411399 1.52136 0
M  V30 2367 C 225.896 -0.165538 2.06738 0
M  V30 2368 C 226.321 -1.379 1.27926 0
M  V30 2369 O 225.679 -1.78628 0.310114 0
M  V30 2370 C 225.727 -0.492124 3.57226 0
M  V30 2371 O 224.831 -1.58276 3.80818 0
M  V30 2372 H 224.172 -0.0132132 0.663869 0
M  V30 2373 H 226.702 0.585253 1.96051 0
M  V30 2374 H 226.712 -0.750104 4.01045 0
M  V30 2375 H 225.387 0.394922 4.14021 0
M  V30 2376 H 223.964 -1.31677 3.48877 0
M  V30 2377 N 226.149 -1.5696 0.141893 0
M  V30 2378 C 227.395 -1.97034 -0.504884 0
M  V30 2379 C 227.75 -1.02518 -1.62812 0
M  V30 2380 O 227.043 -0.0592943 -1.91508 0
M  V30 2381 C 227.237 -3.41242 -1.06249 0
M  V30 2382 C 227.066 -4.497 0.00519653 0
M  V30 2383 C 225.836 -5.03338 0.444873 0
M  V30 2384 C 228.034 -5.08122 0.794767 0
M  V30 2385 N 226.016 -5.95395 1.49593 0
M  V30 2386 C 227.387 -5.96339 1.69645 0
M  V30 2387 C 229.442 -4.9071 0.843122 0
M  V30 2388 C 228.145 -6.69009 2.64233 0
M  V30 2389 C 230.171 -5.64077 1.77681 0
M  V30 2390 C 229.533 -6.51999 2.66603 0
M  V30 2391 H 225.632 -0.766745 -0.153707 0
M  V30 2392 H 228.216 -1.93273 0.235313 0
M  V30 2393 H 226.387 -3.45606 -1.77231 0
M  V30 2394 H 228.119 -3.68389 -1.67546 0
M  V30 2395 H 224.874 -4.73576 0.0480959 0
M  V30 2396 H 225.298 -6.46128 2.02107 0
M  V30 2397 H 229.94 -4.22459 0.169732 0
M  V30 2398 H 227.658 -7.36492 3.32575 0
M  V30 2399 H 231.244 -5.52602 1.81996 0
M  V30 2400 H 230.124 -7.07775 3.37675 0
M  V30 2401 N 227.627 0.131896 -1.57047 0
M  V30 2402 C 228.876 0.84044 -1.83356 0
M  V30 2403 C 229.189 1.81646 -0.725535 0
M  V30 2404 O 230.395 2.57025 -0.874659 0
M  V30 2405 C 228.851 1.54528 -3.25037 0
M  V30 2406 C 228.459 0.610902 -4.43815 0
M  V30 2407 C 230.203 2.23972 -3.60606 0
M  V30 2408 C 228.11 1.31823 -5.76521 0
M  V30 2409 H 227.04 0.317599 -0.683847 0
M  V30 2410 H 229.691 0.0931561 -1.83263 0
M  V30 2411 H 228.073 2.33873 -3.19561 0
M  V30 2412 H 229.247 -0.148407 -4.60561 0
M  V30 2413 H 227.562 0.0241016 -4.16393 0
M  V30 2414 H 230.159 2.77558 -4.57018 0
M  V30 2415 H 230.502 3.01173 -2.87403 0
M  V30 2416 H 231.035 1.51529 -3.6781 0
M  V30 2417 H 227.774 0.587771 -6.52859 0
M  V30 2418 H 227.294 2.04987 -5.63685 0
M  V30 2419 H 228.973 1.855 -6.19838 0
M  V30 2420 N 229.106 1.52395 0.401703 0
M  V30 2421 C 230.053 1.76268 1.48991 0
M  V30 2422 C 231.023 0.605386 1.54675 0
M  V30 2423 O 232.208 0.843742 1.7113 0
M  V30 2424 C 229.348 1.92592 2.86361 0
M  V30 2425 C 228.461 3.20259 2.89928 0
M  V30 2426 C 227.596 3.26972 4.18644 0
M  V30 2427 C 226.635 4.48812 4.16214 0
M  V30 2428 N 225.772 4.52877 5.36514 0
M  V30 2429 H 230.612 2.6914 1.27935 0
M  V30 2430 H 228.149 1.33355 0.620871 0
M  V30 2431 H 230.107 2.0004 3.66115 0
M  V30 2432 H 228.737 1.03093 3.05895 0
M  V30 2433 H 227.789 3.21945 2.02621 0
M  V30 2434 H 229.101 4.10056 2.83999 0
M  V30 2435 H 228.255 3.33533 5.06794 0
M  V30 2436 H 226.994 2.35126 4.27278 0
M  V30 2437 H 225.999 4.4239 3.26453 0
M  V30 2438 H 227.224 5.41961 4.09213 0
M  V30 2439 H 225.17 3.63917 5.45802 0
M  V30 2440 H 225.087 5.36529 5.32609 0
M  V30 2441 H 226.355 4.63676 6.26597 0
M  V30 2442 N 230.584 -0.659388 1.43143 0
M  V30 2443 C 231.832 -1.41654 1.44147 0
M  V30 2444 C 232.153 -1.94893 0.0645739 0
M  V30 2445 O 231.423 -1.74044 -0.899198 0
M  V30 2446 H 230.003 -0.525708 0.530697 0
M  V30 2447 H 232.665 -0.778097 1.78694 0
M  V30 2448 H 231.761 -2.26195 2.1504 0
M  V30 2449 N 232.062 -1.29571 -0.897171 0
M  V30 2450 C 233.339 -1.08365 -1.62839 0
M  V30 2451 C 233.719 0.371331 -2.07808 0
M  V30 2452 O 233.067 1.3606 -1.83576 0
M  V30 2453 C 233.277 -2.0735 -2.80726 0
M  V30 2454 C 234.625 -2.38406 -3.51351 0
M  V30 2455 O 235.649 -2.05564 -2.90898 0
M  V30 2456 O 234.508 -2.9453 -4.60341 0
M  V30 2457 H 231.602 -0.415345 -0.715134 0
M  V30 2458 H 234.148 -1.40952 -0.945018 0
M  V30 2459 H 232.92 -3.05339 -2.44711 0
M  V30 2460 H 232.543 -1.75507 -3.56767 0
M  V30 2461 N 233.54 1.10788 -1.12088 0
M  V30 2462 C 234.765 1.87002 -0.896949 0
M  V30 2463 C 235.19 1.79933 0.548261 0
M  V30 2464 O 234.548 1.16662 1.38779 0
M  V30 2465 C 234.596 3.3349 -1.37174 0
M  V30 2466 O 233.7 4.08745 -0.547831 0
M  V30 2467 H 233.041 0.580397 -0.322545 0
M  V30 2468 H 235.571 1.39996 -1.49206 0
M  V30 2469 H 235.581 3.84339 -1.36922 0
M  V30 2470 H 234.256 3.37951 -2.42408 0
M  V30 2471 H 232.833 3.6776 -0.617034 0
M  V30 2472 N 235.018 0.912232 1.28515 0
M  V30 2473 C 236.429 0.591352 1.77087 0
M  V30 2474 C 236.78 -0.8933 1.74684 0
M  V30 2475 O 235.905 -1.69876 1.34056 0
M  V30 2476 C 236.5 1.06668 3.2157 0
M  V30 2477 C 235.059 0.79675 3.67871 0
M  V30 2478 C 234.206 1.23427 2.48316 0
M  V30 2479 H 237.157 1.09365 1.15 0
M  V30 2480 H 237.178 0.407455 3.78312 0
M  V30 2481 H 236.69 2.14726 3.23287 0
M  V30 2482 H 234.791 -0.270679 3.71616 0
M  V30 2483 H 234.904 1.40343 4.58084 0
M  V30 2484 H 233.268 0.653036 2.46186 0
M  V30 2485 H 234.051 2.32316 2.52753 0
M  V30 2486 N 236.496 -1.42363 0.676048 0
M  V30 2487 C 237.426 -2.33497 0.0124832 0
M  V30 2488 C 238.407 -1.50748 -0.787981 0
M  V30 2489 O 239.592 -1.79346 -0.744884 0
M  V30 2490 C 236.722 -3.34377 -0.938582 0
M  V30 2491 C 235.676 -4.27289 -0.246622 0
M  V30 2492 C 235.002 -5.18386 -1.31071 0
M  V30 2493 C 236.302 -5.14916 0.875125 0
M  V30 2494 H 237.996 -2.89233 0.773593 0
M  V30 2495 H 235.542 -1.39073 0.37346 0
M  V30 2496 H 237.495 -3.97044 -1.41188 0
M  V30 2497 H 236.219 -2.76947 -1.73113 0
M  V30 2498 H 234.878 -3.66018 0.206456 0
M  V30 2499 H 234.526 -4.57282 -2.09528 0
M  V30 2500 H 234.226 -5.81378 -0.852839 0
M  V30 2501 H 235.75 -5.83929 -1.78492 0
M  V30 2502 H 237.164 -5.71262 0.482983 0
M  V30 2503 H 235.561 -5.86747 1.25887 0
M  V30 2504 H 236.631 -4.53242 1.72335 0
M  V30 2505 N 237.974 -0.419461 -1.51915 0
M  V30 2506 C 239.39 -0.0708431 -1.59443 0
M  V30 2507 C 239.59 1.41796 -1.43164 0
M  V30 2508 O 238.646 2.18596 -1.26381 0
M  V30 2509 C 239.959 -0.574991 -2.95151 0
M  V30 2510 C 241.507 -0.533867 -3.08413 0
M  V30 2511 C 241.982 -1.01469 -4.46618 0
M  V30 2512 N 243.473 -0.971939 -4.52888 0
M  V30 2513 C 244.208 -1.31505 -5.58116 0
M  V30 2514 N 243.704 -1.73014 -6.70849 0
M  V30 2515 N 245.497 -1.23436 -5.48379 0
M  V30 2516 H 237.648 -1.38836 -1.60743 0
M  V30 2517 H 239.911 -0.570998 -0.756747 0
M  V30 2518 H 239.617 -1.61597 -3.12377 0
M  V30 2519 H 239.491 0.00979777 -3.77199 0
M  V30 2520 H 241.878 0.498086 -2.90866 0
M  V30 2521 H 241.959 -1.15484 -2.28248 0
M  V30 2522 H 241.603 -2.04502 -4.6491 0
M  V30 2523 H 241.533 -0.370433 -5.25295 0
M  V30 2524 H 244.024 -0.666893 -3.71969 0
M  V30 2525 H 244.337 -1.97479 -7.47143 0
M  V30 2526 H 242.682 -1.76926 -6.72103 0
M  V30 2527 H 245.873 -0.908869 -4.59192 0
M  V30 2528 H 246.046 -1.50506 -6.30279 0
M  V30 2529 N 239.452 1.56882 -0.150215 0
M  V30 2530 C 240.362 2.20494 0.801222 0
M  V30 2531 C 241.378 1.19019 1.26927 0
M  V30 2532 O 242.554 1.51607 1.32579 0
M  V30 2533 C 239.619 2.81659 2.02161 0
M  V30 2534 C 238.68 3.9827 1.60249 0
M  V30 2535 C 237.913 4.56508 2.7647 0
M  V30 2536 O 238.136 4.13627 3.92771 0
M  V30 2537 O 237.07 5.46719 2.51757 0
M  V30 2538 H 240.896 3.02315 0.289717 0
M  V30 2539 H 238.481 1.49202 0.0769684 0
M  V30 2540 H 240.363 3.20522 2.73576 0
M  V30 2541 H 239.038 2.02849 2.52258 0
M  V30 2542 H 237.945 3.64117 0.858477 0
M  V30 2543 H 239.278 4.78609 1.14864 0
M  V30 2544 N 240.93 -0.123565 1.57115 0
M  V30 2545 C 241.878 -1.17082 2.00984 0
M  V30 2546 C 242.872 -1.43136 0.906009 0
M  V30 2547 O 244.078 -1.43152 1.09121 0
M  V30 2548 H 240.453 -0.394653 0.64012 0
M  V30 2549 H 242.424 -0.774292 2.88179 0
M  V30 2550 C 241.173 -2.49057 2.42623 0
M  V30 2551 H 240.496 -2.29846 3.27125 0
M  V30 2552 H 241.936 -3.20906 2.7712 0
M  V30 2553 C 240.395 -3.11305 1.28805 0
M  V30 2554 O 240.925 -3.97171 0.60153 0
M  V30 2555 N 239.131 -2.71111 1.04628 0
M  V30 2556 H 238.678 -2.01382 1.60634 0
M  V30 2557 H 238.636 -3.1309 0.286685 0
M  V30 2558 N 242.408 -1.52605 -0.393616 0
M  V30 2559 C 243.633 -1.71592 -1.16495 0
M  V30 2560 C 244.058 -0.43133 -1.83088 0
M  V30 2561 O 243.416 0.612523 -1.7064 0
M  V30 2562 C 243.464 -2.86318 -2.19213 0
M  V30 2563 O 242.568 -2.52969 -3.257 0
M  V30 2564 H 241.909 -0.570734 -0.33935 0
M  V30 2565 H 244.439 -1.99377 -0.459324 0
M  V30 2566 H 244.449 -3.1168 -2.63286 0
M  V30 2567 H 243.124 -3.79511 -1.7013 0
M  V30 2568 H 241.701 -2.38332 -2.86797 0
M  V30 2569 N 243.887 0.651787 -1.4349 0
M  V30 2570 C 245.303 0.96762 -1.26922 0
M  V30 2571 C 245.503 2.00602 -0.189982 0
M  V30 2572 O 244.559 2.48793 0.431107 0
M  V30 2573 C 245.872 1.45052 -2.63401 0
M  V30 2574 C 247.42 1.5671 -2.70945 0
M  V30 2575 C 247.895 2.0839 -4.07845 0
M  V30 2576 N 249.386 2.1569 -4.09917 0
M  V30 2577 C 250.121 2.56804 -5.12679 0
M  V30 2578 N 249.617 2.97203 -6.25813 0
M  V30 2579 N 251.41 2.56756 -5.00033 0
M  V30 2580 H 243.561 -0.0353158 -2.12371 0
M  V30 2581 H 245.824 0.0467858 -0.946845 0
M  V30 2582 H 245.53 0.761926 -3.43348 0
M  V30 2583 H 245.404 2.42529 -2.88894 0
M  V30 2584 H 247.791 2.2467 -1.9133 0
M  V30 2585 H 247.872 0.57662 -2.49216 0
M  V30 2586 H 247.516 1.41031 -4.87927 0
M  V30 2587 H 247.446 3.08271 -4.26938 0
M  V30 2588 H 249.937 1.87237 -3.28254 0
M  V30 2589 H 250.25 3.27328 -7.00055 0
M  V30 2590 H 248.595 2.95004 -6.29283 0
M  V30 2591 H 251.786 2.24572 -4.10713 0
M  V30 2592 H 251.959 2.88475 -5.80247 0
M  V30 2593 N 245.365 1.30045 0.890287 0
M  V30 2594 C 246.614 1.17929 1.63633 0
M  V30 2595 C 246.927 -0.266204 1.9378 0
M  V30 2596 O 248.133 -0.508804 2.6669 0
M  V30 2597 C 246.589 2.06317 2.94892 0
M  V30 2598 C 246.197 3.55745 2.72305 0
M  V30 2599 C 247.941 2.0295 3.72843 0
M  V30 2600 C 245.848 4.36205 3.99348 0
M  V30 2601 H 244.778 0.437782 0.613892 0
M  V30 2602 H 247.429 1.54754 0.986075 0
M  V30 2603 H 245.811 1.6237 3.61182 0
M  V30 2604 H 246.985 4.07805 2.1455 0
M  V30 2605 H 245.3 3.6088 2.07737 0
M  V30 2606 H 247.897 2.60319 4.67053 0
M  V30 2607 H 248.24 1.0117 4.0382 0
M  V30 2608 H 248.773 2.4499 3.13408 0
M  V30 2609 H 245.512 5.38659 3.73533 0
M  V30 2610 H 245.032 3.8891 4.56628 0
M  V30 2611 H 246.711 4.47362 4.67415 0
M  V30 2612 N 246.843 -1.10192 1.12674 0
M  V30 2613 C 247.806 -2.14786 0.799979 0
M  V30 2614 C 248.806 -1.59711 -0.18685 0
M  V30 2615 O 249.996 -1.74156 0.0392558 0
M  V30 2616 C 247.128 -3.40374 0.189228 0
M  V30 2617 H 248.321 -2.45203 1.72671 0
M  V30 2618 H 245.874 -1.25597 0.930326 0
M  V30 2619 H 246.609 -3.15577 -0.747107 0
M  V30 2620 H 246.394 -3.81637 0.899766 0
M  V30 2621 H 247.884 -4.17594 -0.0228143 0
M  V30 2622 N 248.321 -0.919034 -1.28029 0
M  V30 2623 C 249.567 -0.555757 -1.95036 0
M  V30 2624 C 249.9 0.899198 -1.72128 0
M  V30 2625 O 249.175 1.64023 -1.04531 0
M  V30 2626 C 249.458 -0.872024 -3.49382 0
M  V30 2627 C 249.311 -2.3801 -3.81669 0
M  V30 2628 C 250.63 -0.37185 -4.38526 0
M  V30 2629 H 247.749 -0.203386 -0.708381 0
M  V30 2630 H 250.391 -1.14924 -1.51303 0
M  V30 2631 H 248.541 -0.366946 -3.86763 0
M  V30 2632 H 250.213 -2.9562 -3.54128 0
M  V30 2633 H 248.456 -2.83289 -3.28526 0
M  V30 2634 H 249.127 -2.55192 -4.8947 0
M  V30 2635 H 251.603 -0.804602 -4.08247 0
M  V30 2636 H 250.479 -0.622173 -5.45362 0
M  V30 2637 H 250.74 0.727934 -4.36066 0
M  V30 2638 N 249.799 1.42003 -0.683588 0
M  V30 2639 C 250.729 2.33487 -0.024866 0
M  V30 2640 C 251.71 1.51163 0.779975 0
M  V30 2641 O 252.895 1.79739 0.735362 0
M  V30 2642 C 250.025 3.3487 0.920836 0
M  V30 2643 C 248.979 4.27414 0.223958 0
M  V30 2644 C 248.305 5.19074 1.2832 0
M  V30 2645 C 249.605 5.14445 -0.90242 0
M  V30 2646 H 251.299 2.88819 -0.788921 0
M  V30 2647 H 248.845 1.38873 -0.38083 0
M  V30 2648 H 250.798 3.97787 1.39081 0
M  V30 2649 H 249.522 2.77861 1.71642 0
M  V30 2650 H 248.181 3.65904 -0.225864 0
M  V30 2651 H 247.829 4.58387 2.071 0
M  V30 2652 H 247.529 5.81822 0.821995 0
M  V30 2653 H 249.053 5.84867 1.75392 0
M  V30 2654 H 250.467 5.70998 -0.513272 0
M  V30 2655 H 248.864 5.86072 -1.28997 0
M  V30 2656 H 249.934 4.52322 -1.74737 0
M  V30 2657 N 251.277 0.427512 1.51691 0
M  V30 2658 C 252.187 -0.39527 2.31246 0
M  V30 2659 C 253.203 -1.03674 1.39742 0
M  V30 2660 O 254.379 -1.03425 1.72816 0
M  V30 2661 C 251.444 -1.48706 3.13189 0
M  V30 2662 C 250.505 -0.866743 4.20459 0
M  V30 2663 C 249.738 -1.90651 4.98486 0
M  V30 2664 O 249.961 -3.12733 4.77026 0
M  V30 2665 O 248.895 -1.5025 5.82845 0
M  V30 2666 H 252.721 0.253918 3.02637 0
M  V30 2667 H 250.306 0.190274 1.48183 0
M  V30 2668 H 252.188 -2.12047 3.64162 0
M  V30 2669 H 250.863 -2.12051 2.44573 0
M  V30 2670 H 249.77 -0.195544 3.73589 0
M  V30 2671 H 251.103 -0.276934 4.9142 0
M  V30 2672 N 252.755 -1.56801 0.158532 0
M  V30 2673 C 253.98 -2.01295 -0.499516 0
M  V30 2674 C 254.405 -1.03799 -1.56867 0
M  V30 2675 O 253.763 -0.0155162 -1.81293 0
M  V30 2676 C 253.811 -3.44469 -1.06647 0
M  V30 2677 O 252.915 -3.50012 -2.18095 0
M  V30 2678 H 252.256 -0.652884 -0.12099 0
M  V30 2679 H 254.786 -2.02958 0.258661 0
M  V30 2680 H 254.796 -3.8351 -1.39227 0
M  V30 2681 H 253.471 -4.14932 -0.283581 0
M  V30 2682 H 252.048 -3.22822 -1.86656 0
M  V30 2683 N 254.233 0.115231 -1.57178 0
M  V30 2684 C 255.481 0.820727 -1.84685 0
M  V30 2685 C 255.802 1.80237 -0.744279 0
M  V30 2686 O 255.072 1.94529 0.231375 0
M  V30 2687 H 253.652 0.306084 -0.681411 0
M  V30 2688 H 256.314 0.101656 -1.94635 0
M  V30 2689 H 255.41 1.36366 -2.80733 0
M  V30 2690 N 255.711 1.52812 0.385517 0
M  V30 2691 C 256.936 1.72207 1.15583 0
M  V30 2692 C 257.361 0.441034 1.82857 0
M  V30 2693 O 256.719 -0.603465 1.70962 0
M  V30 2694 C 256.767 2.87476 2.17692 0
M  V30 2695 O 255.871 2.54693 3.24354 0
M  V30 2696 H 255.212 0.572526 0.336319 0
M  V30 2697 H 257.742 1.99618 0.448744 0
M  V30 2698 H 257.752 3.13072 2.6163 0
M  V30 2699 H 256.427 3.80408 1.68115 0
M  V30 2700 H 255.004 2.3985 2.85529 0
M  V30 2701 N 257.189 -0.644168 1.43834 0
M  V30 2702 C 258.119 -1.76814 1.52509 0
M  V30 2703 C 259.1 -1.65823 0.379052 0
M  V30 2704 O 260.285 -1.84781 0.597466 0
M  V30 2705 C 257.415 -3.15288 1.4564 0
M  V30 2706 C 256.369 -3.41053 2.58586 0
M  V30 2707 C 255.695 -4.79421 2.36769 0
M  V30 2708 C 256.995 -3.34902 4.00797 0
M  V30 2709 H 258.689 -1.69812 2.46586 0
M  V30 2710 H 256.235 -0.815542 1.1868 0
M  V30 2711 H 258.188 -3.93681 1.50311 0
M  V30 2712 H 256.912 -3.23043 0.480725 0
M  V30 2713 H 255.571 -2.65035 2.53282 0
M  V30 2714 H 255.219 -4.83863 1.37424 0
M  V30 2715 H 254.919 -4.9762 3.12487 0
M  V30 2716 H 256.443 -5.6006 2.43238 0
M  V30 2717 H 257.857 -4.03218 4.07539 0
M  V30 2718 H 256.254 -3.64637 4.76613 0
M  V30 2719 H 257.324 -2.32928 4.25291 0
M  V30 2720 N 258.668 -1.30515 -0.883378 0
M  V30 2721 C 260.084 -1.08881 -1.16692 0
M  V30 2722 C 260.284 0.149409 -2.00945 0
M  V30 2723 O 259.34 0.84257 -2.38027 0
M  V30 2724 C 260.653 -2.35319 -1.87204 0
M  V30 2725 C 262.201 -2.40799 -1.99962 0
M  V30 2726 C 262.676 -3.67083 -2.73887 0
M  V30 2727 N 264.167 -3.679 -2.81432 0
M  V30 2728 C 264.902 -4.62303 -3.3921 0
M  V30 2729 N 264.398 -5.67052 -3.98025 0
M  V30 2730 N 266.191 -4.49845 -3.3704 0
M  V30 2731 H 258.342 -2.09951 -0.321633 0
M  V30 2732 H 260.605 -0.92556 -0.205043 0
M  V30 2733 H 260.311 -3.25689 -1.3274 0
M  V30 2734 H 260.185 -2.44089 -2.87577 0
M  V30 2735 H 262.572 -1.50907 -2.53597 0
M  V30 2736 H 262.653 -2.36003 -0.98673 0
M  V30 2737 H 262.297 -4.57334 -2.20925 0
M  V30 2738 H 262.227 -3.69141 -3.75556 0
M  V30 2739 H 264.718 -2.92171 -2.39676 0
M  V30 2740 H 265.031 -6.35184 -4.40183 0
M  V30 2741 H 263.376 -5.70842 -3.96439 0
M  V30 2742 H 266.567 -3.67194 -2.90321 0
M  V30 2743 H 266.74 -5.23597 -3.81772 0
M  V30 2744 N 260.146 1.09593 -1.13257 0
M  V30 2745 C 261.395 1.81105 -0.887917 0
M  V30 2746 C 261.708 1.86563 0.587672 0
M  V30 2747 O 262.914 2.54367 0.949204 0
M  V30 2748 C 261.37 3.25338 -1.53895 0
M  V30 2749 C 260.978 3.28151 -3.04994 0
M  V30 2750 C 262.722 4.01617 -1.37492 0
M  V30 2751 C 260.629 4.66897 -3.6299 0
M  V30 2752 H 259.559 0.678661 -0.328534 0
M  V30 2753 H 262.21 1.23183 -1.36008 0
M  V30 2754 H 260.592 3.8331 -0.994446 0
M  V30 2755 H 261.766 2.79953 -3.66009 0
M  V30 2756 H 260.081 2.65361 -3.20893 0
M  V30 2757 H 262.678 5.04119 -1.78235 0
M  V30 2758 H 263.021 4.15072 -0.31957 0
M  V30 2759 H 263.554 3.50082 -1.88912 0
M  V30 2760 H 260.293 4.58643 -4.68323 0
M  V30 2761 H 259.813 5.15426 -3.06752 0
M  V30 2762 H 261.492 5.3587 -3.62563 0
M  V30 2763 N 261.624 0.925811 1.2754 0
M  V30 2764 C 262.574 0.394488 2.24561 0
M  V30 2765 C 263.558 -0.500183 1.52928 0
M  V30 2766 O 264.75 -0.337936 1.73744 0
M  V30 2767 C 261.879 -0.353328 3.41477 0
M  V30 2768 C 260.965 0.557752 4.20416 0
M  V30 2769 N 261.356 1.67674 4.77199 0
M  V30 2770 C 259.654 0.360404 4.44541 0
M  V30 2771 C 260.355 2.24324 5.36706 0
M  V30 2772 N 259.331 1.53305 5.21535 0
M  V30 2773 H 263.133 1.2489 2.66045 0
M  V30 2774 H 260.647 0.779864 1.4245 0
M  V30 2775 H 262.644 -0.7509 4.10082 0
M  V30 2776 H 261.304 -1.20469 3.01525 0
M  V30 2777 H 262.315 2.05915 4.75204 0
M  V30 2778 H 258.992 -0.450454 4.15063 0
M  V30 2779 H 260.382 3.18521 5.91603 0
M  V30 2780 N 263.102 -1.41638 0.69111 0
M  V30 2781 C 264.05 -2.32597 0.0115199 0
M  V30 2782 C 265.044 -1.5072 -0.773296 0
M  V30 2783 O 266.25 -1.66685 -0.67942 0
M  V30 2784 H 262.625 -0.751849 -0.0150746 0
M  V30 2785 H 264.596 -2.87593 0.795791 0
M  V30 2786 C 263.345 -3.35467 -0.914172 0
M  V30 2787 H 262.668 -3.9852 -0.319687 0
M  V30 2788 H 264.108 -4.01662 -1.35808 0
M  V30 2789 C 262.567 -2.69004 -2.02826 0
M  V30 2790 O 263.097 -2.53444 -3.11655 0
M  V30 2791 N 261.303 -2.2777 -1.80469 0
M  V30 2792 H 260.85 -2.40626 -0.919615 0
M  V30 2793 H 260.808 -1.83635 -2.55197 0
M  V30 2794 N 264.58 -0.43555 -1.51462 0
M  V30 2795 C 265.826 0.131709 -2.02372 0
M  V30 2796 C 266.159 1.42516 -1.3192 0
M  V30 2797 O 265.434 1.89606 -0.433573 0
M  V30 2798 C 265.717 0.352301 -3.58373 0
M  V30 2799 C 265.57 -0.959676 -4.39443 0
M  V30 2800 C 266.889 1.12286 -4.25535 0
M  V30 2801 H 264.008 0.0463936 -0.735538 0
M  V30 2802 H 266.65 -0.574197 -1.81116 0
M  V30 2803 H 264.8 0.9536 -3.76615 0
M  V30 2804 H 266.472 -1.59482 -4.32855 0
M  V30 2805 H 264.715 -1.56468 -4.04599 0
M  V30 2806 H 265.386 -0.759394 -5.46752 0
M  V30 2807 H 267.862 0.613545 -4.11552 0
M  V30 2808 H 266.738 1.24598 -5.34571 0
M  V30 2809 H 266.999 2.15048 -3.86273 0
M  V30 2810 N 266.058 1.56714 -0.166846 0
M  V30 2811 C 266.99 2.14914 0.796537 0
M  V30 2812 C 268.003 1.10357 1.19688 0
M  V30 2813 O 269.192 1.37561 1.13751 0
M  V30 2814 C 266.292 2.67326 2.08303 0
M  V30 2815 C 265.465 3.96493 1.84696 0
M  V30 2816 C 264.524 4.34014 2.97521 0
M  V30 2817 O 263.55 5.01973 2.6835 0
M  V30 2818 N 264.752 3.95208 4.25196 0
M  V30 2819 H 267.517 2.98205 0.299006 0
M  V30 2820 H 265.078 1.61892 0.0160839 0
M  V30 2821 H 267.07 2.89428 2.82867 0
M  V30 2822 H 265.64 1.88649 2.4926 0
M  V30 2823 H 264.86 3.82814 0.940602 0
M  V30 2824 H 266.148 4.8086 1.66285 0
M  V30 2825 H 265.546 3.40487 4.51758 0
M  V30 2826 H 264.103 4.2232 4.96477 0
M  V30 2827 N 267.536 -0.106894 1.57237 0
M  V30 2828 C 268.483 -1.13049 2.01217 0
M  V30 2829 C 269.453 -1.40471 0.886403 0
M  V30 2830 O 270.638 -1.52133 1.15153 0
M  V30 2831 C 267.778 -2.4487 2.43172 0
M  V30 2832 C 266.891 -2.24281 3.69218 0
M  V30 2833 C 266.026 -3.49417 4.00101 0
M  V30 2834 C 265.065 -3.24038 5.19294 0
M  V30 2835 N 264.202 -4.41409 5.45988 0
M  V30 2836 H 269.042 -0.748456 2.88448 0
M  V30 2837 H 266.579 -0.358054 1.42676 0
M  V30 2838 H 268.537 -3.21786 2.65537 0
M  V30 2839 H 267.167 -2.80944 1.58967 0
M  V30 2840 H 266.219 -1.38224 3.54398 0
M  V30 2841 H 267.531 -2.01512 4.56283 0
M  V30 2842 H 266.685 -4.34746 4.2318 0
M  V30 2843 H 265.424 -3.75229 3.11535 0
M  V30 2844 H 264.429 -2.37102 4.96047 0
M  V30 2845 H 265.654 -2.99584 6.09447 0
M  V30 2846 H 263.6 -4.67319 4.60379 0
M  V30 2847 H 263.517 -4.21788 6.274 0
M  V30 2848 H 264.785 -5.27836 5.73593 0
M  V30 2849 N 269.014 -1.53014 -0.377408 0
M  V30 2850 C 269.924 -1.81557 -1.48574 0
M  V30 2851 C 270.94 -0.703102 -1.59162 0
M  V30 2852 O 272.116 -0.99192 -1.75279 0
M  V30 2853 C 269.181 -1.9889 -2.83978 0
M  V30 2854 C 268.242 -3.22801 -2.83016 0
M  V30 2855 C 267.475 -3.39298 -4.11962 0
M  V30 2856 O 267.698 -2.60345 -5.0752 0
M  V30 2857 O 266.632 -4.32604 -4.18494 0
M  V30 2858 H 270.458 -2.75695 -1.27382 0
M  V30 2859 H 268.043 -1.38248 -0.566373 0
M  V30 2860 H 269.925 -2.11931 -3.6423 0
M  V30 2861 H 268.6 -1.07942 -3.05172 0
M  V30 2862 H 267.507 -3.15193 -2.01505 0
M  V30 2863 H 268.84 -4.13632 -2.66775 0
M  V30 2864 N 270.492 0.636531 -1.44174 0
M  V30 2865 C 271.769 1.39463 -1.37148 0
M  V30 2866 C 272.149 2.11082 -0.027507 0
M  V30 2867 O 271.497 2.05954 0.989716 0
M  V30 2868 C 271.707 2.36552 -2.56601 0
M  V30 2869 C 273.055 3.00048 -3.00427 0
M  V30 2870 O 274.079 2.46878 -2.56767 0
M  V30 2871 O 272.938 3.96488 -3.76111 0
M  V30 2872 H 270.032 0.623903 -0.542839 0
M  V30 2873 H 272.578 0.662039 -1.56253 0
M  V30 2874 H 271.35 1.82692 -3.46034 0
M  V30 2875 H 270.973 3.17236 -2.39681 0
M  V30 2876 N 271.97 1.30982 0.876444 0
M  V30 2877 C 272.933 1.18054 1.96459 0
M  V30 2878 C 273.933 0.109399 1.60427 0
M  V30 2879 O 275.123 0.358173 1.70478 0
M  V30 2880 C 272.255 0.810616 3.31122 0
M  V30 2881 H 273.448 2.14735 2.09354 0
M  V30 2882 H 271.001 1.145 1.06392 0
M  V30 2883 H 271.736 -0.155322 3.23928 0
M  V30 2884 H 271.521 1.58481 3.58645 0
M  V30 2885 H 273.011 0.743876 4.10921 0
M  V30 2886 N 273.449 -1.08991 1.13837 0
M  V30 2887 C 274.697 -1.80899 0.901098 0
M  V30 2888 C 275.018 -1.86356 -0.574134 0
M  V30 2889 O 274.288 -1.35235 -1.41733 0
M  V30 2890 H 272.868 -0.669966 0.330386 0
M  V30 2891 H 275.53 -1.318 1.43578 0
M  V30 2892 H 274.626 -2.83929 1.29578 0
M  V30 2893 N 274.927 -0.932562 -1.27047 0
M  V30 2894 C 275.859 -0.392734 -2.2581 0
M  V30 2895 C 276.872 0.479241 -1.55586 0
M  V30 2896 O 278.061 0.291078 -1.76111 0
M  V30 2897 C 275.161 0.455456 -3.35826 0
M  V30 2898 C 274.334 -0.398355 -4.35582 0
M  V30 2899 C 273.393 0.387985 -5.24768 0
M  V30 2900 O 272.419 -0.206003 -5.68827 0
M  V30 2901 N 273.621 1.68664 -5.55457 0
M  V30 2902 H 276.386 -1.24173 -2.72766 0
M  V30 2903 H 273.947 -0.800511 -1.40725 0
M  V30 2904 H 275.939 0.988692 -3.92437 0
M  V30 2905 H 274.509 1.20522 -2.88432 0
M  V30 2906 H 273.729 -1.11286 -3.78165 0
M  V30 2907 H 275.017 -0.981889 -4.99236 0
M  V30 2908 H 274.415 2.19147 -5.21528 0
M  V30 2909 H 272.972 2.1663 -6.14748 0
M  V30 2910 N 276.405 1.4127 -0.698611 0
M  V30 2911 C 277.635 2.05205 -0.239644 0
M  V30 2912 C 278.043 1.52684 1.11733 0
M  V30 2913 O 277.386 0.671222 1.70998 0
M  V30 2914 C 277.448 3.59289 -0.123126 0
M  V30 2915 C 277.112 4.34619 -1.41263 0
M  V30 2916 C 278.109 4.63701 -2.35111 0
M  V30 2917 C 275.794 4.73837 -1.66684 0
M  V30 2918 C 277.788 5.30966 -3.52639 0
M  V30 2919 C 275.475 5.40837 -2.84498 0
M  V30 2920 C 276.473 5.69329 -3.77298 0
M  V30 2921 O 276.161 6.34949 -4.93047 0
M  V30 2922 H 275.893 0.66723 -0.108537 0
M  V30 2923 H 278.447 1.81974 -0.952602 0
M  V30 2924 H 276.677 3.81272 0.645628 0
M  V30 2925 H 278.366 4.04797 0.299056 0
M  V30 2926 H 279.132 4.33882 -2.16729 0
M  V30 2927 H 275.011 4.51039 -0.953135 0
M  V30 2928 H 278.555 5.53121 -4.25091 0
M  V30 2929 H 274.452 5.70075 -3.02795 0
M  V30 2930 H 275.22 6.53445 -4.92902 0
M  V30 2931 N 277.883 0.443576 1.51229 0
M  V30 2932 C 279.299 0.0962001 1.5931 0
M  V30 2933 C 279.499 -1.39501 1.45402 0
M  V30 2934 O 278.555 -2.16557 1.29843 0
M  V30 2935 C 279.868 0.621875 2.94199 0
M  V30 2936 C 281.416 0.582865 3.07525 0
M  V30 2937 C 281.891 1.08562 4.44948 0
M  V30 2938 N 283.382 1.04387 4.51284 0
M  V30 2939 C 284.117 1.40368 5.55954 0
M  V30 2940 N 283.613 1.83664 6.68011 0
M  V30 2941 N 285.406 1.32145 5.46346 0
M  V30 2942 H 277.557 1.41376 1.58514 0
M  V30 2943 H 279.82 0.582965 0.747567 0
M  V30 2944 H 279.526 1.66546 3.09767 0
M  V30 2945 H 279.4 0.0502125 3.77167 0
M  V30 2946 H 281.787 -0.451749 2.91622 0
M  V30 2947 H 281.868 1.191 2.26382 0
M  V30 2948 H 281.512 2.11873 4.61598 0
M  V30 2949 H 281.442 0.453956 5.2464 0
M  V30 2950 H 283.933 0.725986 3.70861 0
M  V30 2951 H 284.246 2.0934 7.43906 0
M  V30 2952 H 282.591 1.87596 6.69203 0
M  V30 2953 H 285.782 0.981808 4.57688 0
M  V30 2954 H 285.955 1.60514 6.27805 0
M  V30 2955 N 279.361 -1.56624 0.175154 0
M  V30 2956 C 280.601 -1.98894 -0.471221 0
M  V30 2957 C 280.965 -1.05889 -1.60161 0
M  V30 2958 O 282.166 -1.37315 -2.3108 0
M  V30 2959 C 280.437 -3.44865 -0.938241 0
M  V30 2960 S 281.996 -4.09164 -1.58526 0
M  V30 2961 H 278.814 -0.694686 -0.151434 0
M  V30 2962 H 281.416 -1.93577 0.27352 0
M  V30 2963 H 280.12 -4.10265 -0.10518 0
M  V30 2964 H 279.651 -3.53956 -1.71693 0
M  V30 2965 H 281.666 -4.04528 -2.87352 0
M  V30 2966 N 280.839 0.0985539 -1.57292 0
M  V30 2967 C 282.085 0.803867 -1.86188 0
M  V30 2968 C 282.418 1.78549 -0.763794 0
M  V30 2969 O 281.693 1.93153 0.22855 0
M  V30 2970 C 281.976 1.53568 -3.25713 0
M  V30 2971 C 281.829 0.572277 -4.46145 0
M  V30 2972 C 283.148 2.48708 -3.63087 0
M  V30 2973 H 280.267 0.290781 -0.677211 0
M  V30 2974 H 282.909 0.0675783 -1.8988 0
M  V30 2975 H 281.059 2.16332 -3.22696 0
M  V30 2976 H 282.731 -0.0480894 -4.61275 0
M  V30 2977 H 280.974 -0.114618 -4.33649 0
M  V30 2978 H 281.645 1.12139 -5.40489 0
M  V30 2979 H 284.121 1.96039 -3.67026 0
M  V30 2980 H 282.997 2.96932 -4.61652 0
M  V30 2981 H 283.258 3.32309 -2.91588 0
M  V30 2982 N 282.317 1.53212 0.369288 0
M  V30 2983 C 283.28 1.7872 1.43498 0
M  V30 2984 C 284.28 0.657554 1.46741 0
M  V30 2985 O 285.47 0.925736 1.47566 0
M  V30 2986 C 282.602 1.90591 2.82645 0
M  V30 2987 H 283.795 2.73894 1.22156 0
M  V30 2988 H 281.348 1.44233 0.602203 0
M  V30 2989 H 282.083 0.974709 3.09306 0
M  V30 2990 H 281.868 2.72751 2.8169 0
M  V30 2991 H 283.358 2.11931 3.59826 0
M  V30 2992 N 283.795 -0.628877 1.44509 0
M  V30 2993 C 284.742 -1.74074 1.51549 0
M  V30 2994 C 285.712 -1.62084 0.363021 0
M  V30 2995 O 286.897 -1.81975 0.573567 0
M  V30 2996 C 284.037 -3.12328 1.46784 0
M  V30 2997 C 283.15 -3.35277 2.72422 0
M  V30 2998 C 282.285 -4.63515 2.59475 0
M  V30 2999 C 281.324 -4.7965 3.80266 0
M  V30 3000 N 280.461 -5.99168 3.65981 0
M  V30 3001 H 285.301 -1.67392 2.46544 0
M  V30 3002 H 282.838 -0.816527 1.22357 0
M  V30 3003 H 284.796 -3.92286 1.42012 0
M  V30 3004 H 283.426 -3.18018 0.553544 0
M  V30 3005 H 282.478 -2.49242 2.87372 0
M  V30 3006 H 283.79 -3.43078 3.62076 0
M  V30 3007 H 282.944 -5.51638 2.52548 0
M  V30 3008 H 281.683 -4.58076 1.67384 0
M  V30 3009 H 280.688 -3.89957 3.87574 0
M  V30 3010 H 281.913 -4.86902 4.73395 0
M  V30 3011 H 279.859 -5.94814 2.76644 0
M  V30 3012 H 279.776 -6.08035 4.49254 0
M  V30 3013 H 281.044 -6.89846 3.6295 0
M  V30 3014 N 285.273 -1.31445 -0.869486 0
M  V30 3015 C 286.221 -1.19067 -1.99814 0
M  V30 3016 C 287.215 -0.0988569 -1.69111 0
M  V30 3017 O 288.421 -0.260781 -1.78101 0
M  V30 3018 H 284.796 -0.368677 -0.655425 0
M  V30 3019 H 286.767 -2.14555 -2.07385 0
M  V30 3020 C 285.516 -0.915323 -3.35436 0
M  V30 3021 H 284.839 -1.74759 -3.59582 0
M  V30 3022 H 286.279 -0.868895 -4.15001 0
M  V30 3023 C 284.738 0.381928 -3.34728 0
M  V30 3024 O 285.268 1.39857 -3.76567 0
M  V30 3025 N 283.474 0.398633 -2.87853 0
M  V30 3026 H 283.021 -0.429186 -2.54 0
M  V30 3027 H 282.979 1.26651 -2.87762 0
M  V30 3028 N 286.751 1.08385 -1.14413 0
M  V30 3029 C 287.976 1.85057 -0.936413 0
M  V30 3030 C 288.401 1.81055 0.509971 0
M  V30 3031 O 287.759 1.1958 1.36273 0
M  V30 3032 C 287.807 3.30505 -1.44217 0
M  V30 3033 O 286.911 4.07491 -0.634409 0
M  V30 3034 H 286.252 0.573425 -0.334784 0
M  V30 3035 H 288.782 1.36799 -1.52142 0
M  V30 3036 H 288.792 3.81348 -1.45043 0
M  V30 3037 H 287.467 3.32734 -2.49522 0
M  V30 3038 H 286.044 3.66368 -0.694902 0
M  V30 3039 N 288.23 0.939286 1.26551 0
M  V30 3040 C 289.16 0.465044 2.28822 0
M  V30 3041 C 290.141 -0.480692 1.63167 0
M  V30 3042 O 291.326 -0.382955 1.90387 0
M  V30 3043 C 288.456 -0.27234 3.46231 0
M  V30 3044 C 287.41 0.58666 4.2396 0
M  V30 3045 C 286.736 -0.280573 5.33963 0
M  V30 3046 C 288.036 1.85704 4.88171 0
M  V30 3047 H 289.73 1.31979 2.68741 0
M  V30 3048 H 287.276 0.636061 1.29191 0
M  V30 3049 H 289.229 -0.615133 4.16886 0
M  V30 3050 H 287.953 -1.16121 3.0526 0
M  V30 3051 H 286.612 0.91232 3.55067 0
M  V30 3052 H 286.26 -1.16874 4.89234 0
M  V30 3053 H 285.96 0.29076 5.8688 0
M  V30 3054 H 287.484 -0.618678 6.07458 0
M  V30 3055 H 288.898 1.58161 5.51052 0
M  V30 3056 H 287.295 2.37279 5.51197 0
M  V30 3057 H 288.365 2.56957 4.11219 0
M  V30 3058 N 289.708 -1.40897 0.706093 0
M  V30 3059 C 290.956 -2.00657 0.241054 0
M  V30 3060 C 291.277 -1.56241 -1.16678 0
M  V30 3061 O 290.547 -0.79765 -1.78926 0
M  V30 3062 H 289.127 -0.742018 0.0861308 0
M  V30 3063 H 291.789 -1.72372 0.909604 0
M  V30 3064 H 290.885 -3.10958 0.266705 0
M  V30 3065 N 291.186 -0.45159 -1.50991 0
M  V30 3066 C 292.414 0.108334 -2.06616 0
M  V30 3067 C 292.829 1.35224 -1.31757 0
M  V30 3068 O 292.186 1.78475 -0.381174 0
M  V30 3069 C 292.237 0.41619 -3.59096 0
M  V30 3070 O 291.958 -0.778361 -4.3113 0
M  V30 3071 C 293.459 1.02523 -4.31282 0
M  V30 3072 H 290.679 0.00159995 -0.670998 0
M  V30 3073 H 293.223 -0.634771 -1.94399 0
M  V30 3074 H 291.378 1.10921 -3.71181 0
M  V30 3075 H 291.792 -0.511181 -5.22003 0
M  V30 3076 H 293.266 1.19053 -5.39009 0
M  V30 3077 H 293.743 2.01013 -3.905 0
M  V30 3078 H 294.349 0.371173 -4.23677 0
M  V30 3079 N 292.664 1.56529 -0.183458 0
M  V30 3080 C 293.627 2.17324 0.728223 0
M  V30 3081 C 294.627 1.12453 1.14939 0
M  V30 3082 O 295.817 1.37902 1.06437 0
M  V30 3083 C 292.949 2.76591 1.99274 0
M  V30 3084 H 294.142 2.99241 0.198772 0
M  V30 3085 H 291.695 1.5616 0.0661391 0
M  V30 3086 H 292.43 1.98441 2.56499 0
M  V30 3087 H 292.215 3.5335 1.69959 0
M  V30 3088 H 293.705 3.23311 2.6431 0
M  V30 3089 N 294.142 -0.090211 1.57342 0
M  V30 3090 C 295.372 -0.805055 1.90269 0
M  V30 3091 C 295.78 -1.72561 0.775842 0
M  V30 3092 O 295.123 -1.81839 -0.260843 0
M  V30 3093 C 295.185 -1.66734 3.18497 0
M  V30 3094 C 294.849 -0.918092 4.47683 0
M  V30 3095 C 295.846 -0.245674 5.19319 0
M  V30 3096 C 293.531 -0.890724 4.94339 0
M  V30 3097 C 295.525 0.444088 6.35851 0
M  V30 3098 C 293.212 -0.197179 6.10782 0
M  V30 3099 C 294.21 0.469044 6.81388 0
M  V30 3100 O 293.898 1.15146 7.95611 0
M  V30 3101 H 293.63 -0.235143 0.633785 0
M  V30 3102 H 296.184 -0.0703805 2.05279 0
M  V30 3103 H 294.414 -2.44437 2.99646 0
M  V30 3104 H 296.103 -2.25919 3.37217 0
M  V30 3105 H 296.869 -0.258246 4.84312 0
M  V30 3106 H 292.748 -1.39873 4.39268 0
M  V30 3107 H 296.292 0.964667 6.90898 0
M  V30 3108 H 292.189 -0.18247 6.45242 0
M  V30 3109 H 292.957 1.05885 8.11622 0
M  V30 3110 N 295.62 -1.53406 -0.361157 0
M  V30 3111 C 296.845 -1.74024 -1.12829 0
M  V30 3112 C 297.27 -0.470069 -1.82132 0
M  V30 3113 O 296.628 0.57619 -1.719 0
M  V30 3114 C 296.676 -2.90903 -2.13091 0
M  V30 3115 O 295.78 -2.59821 -3.20261 0
M  V30 3116 H 295.121 -0.577804 -0.327168 0
M  V30 3117 H 297.651 -2.00307 -0.41693 0
M  V30 3118 H 297.661 -3.17194 -2.56616 0
M  V30 3119 H 296.336 -3.83034 -1.62042 0
M  V30 3120 H 294.913 -2.44362 -2.81677 0
M  V30 3121 N 297.098 0.621204 -1.44841 0
M  V30 3122 C 298.045 1.73267 -1.5247 0
M  V30 3123 C 299.015 1.6189 -0.371611 0
M  V30 3124 O 300.2 1.81668 -0.58321 0
M  V30 3125 C 297.34 3.11545 -1.48438 0
M  V30 3126 C 296.453 3.33827 -2.74196 0
M  V30 3127 C 295.588 4.62133 -2.61929 0
M  V30 3128 C 294.627 4.77627 -3.82804 0
M  V30 3129 N 293.764 5.97219 -3.69153 0
M  V30 3130 H 298.604 1.66082 -2.47428 0
M  V30 3131 H 296.141 0.810026 -1.22788 0
M  V30 3132 H 298.099 3.91528 -1.4409 0
M  V30 3133 H 296.729 3.1772 -0.570402 0
M  V30 3134 H 295.781 2.47715 -2.88689 0
M  V30 3135 H 297.093 3.41153 -3.6389 0
M  V30 3136 H 296.247 5.50291 -2.5547 0
M  V30 3137 H 294.986 4.57182 -1.69811 0
M  V30 3138 H 293.991 3.87896 -3.89637 0
M  V30 3139 H 295.216 4.84385 -4.75971 0
M  V30 3140 H 293.162 5.93339 -2.79794 0
M  V30 3141 H 293.079 6.05644 -4.52472 0
M  V30 3142 H 294.347 6.87912 -3.66603 0
M  V30 3143 N 298.576 1.31904 0.862503 0
M  V30 3144 C 299.822 1.22197 1.61851 0
M  V30 3145 C 300.155 -0.217641 1.92977 0
M  V30 3146 O 299.43 -1.15264 1.56666 0
M  V30 3147 C 299.713 2.07378 2.94391 0
M  V30 3148 C 299.566 3.59678 2.70096 0
M  V30 3149 C 300.885 1.92891 3.95577 0
M  V30 3150 H 298.004 0.445255 0.587296 0
M  V30 3151 H 300.646 1.6177 0.99651 0
M  V30 3152 H 298.796 1.73758 3.47477 0
M  V30 3153 H 300.468 4.03472 2.23625 0
M  V30 3154 H 298.711 3.82735 2.04197 0
M  V30 3155 H 299.382 4.14595 3.64438 0
M  V30 3156 H 301.858 2.22327 3.51724 0
M  V30 3157 H 300.734 2.54781 4.86187 0
M  V30 3158 H 300.995 0.894315 4.3296 0
M  V30 3159 N 300.054 -1.07777 1.14986 0
M  V30 3160 C 301.3 -1.80557 0.923422 0
M  V30 3161 C 301.633 -1.86298 -0.548337 0
M  V30 3162 O 300.908 -1.34354 -1.40639 0
M  V30 3163 C 301.191 -3.25839 1.53299 0
M  V30 3164 C 301.044 -3.28269 3.07505 0
M  V30 3165 C 302.363 -4.22991 1.21518 0
M  V30 3166 H 299.482 -0.655493 0.336894 0
M  V30 3167 H 302.124 -1.26144 1.42083 0
M  V30 3168 H 300.274 -3.72306 1.10999 0
M  V30 3169 H 301.946 -2.90079 3.58681 0
M  V30 3170 H 300.189 -2.67355 3.4162 0
M  V30 3171 H 300.86 -4.30691 3.45266 0
M  V30 3172 H 303.336 -3.84894 1.581 0
M  V30 3173 H 302.212 -5.22945 1.66793 0
M  V30 3174 H 302.473 -4.41904 0.131505 0
M  V30 3175 N 301.532 -0.945985 -1.26051 0
M  V30 3176 C 302.479 -0.45809 -2.26208 0
M  V30 3177 C 303.449 0.484816 -1.58867 0
M  V30 3178 O 304.634 0.399969 -1.86561 0
M  V30 3179 C 301.774 0.266131 -3.44072 0
M  V30 3180 C 300.887 -0.713005 -4.26075 0
M  V30 3181 C 300.022 0.0329013 -5.3119 0
M  V30 3182 C 299.061 -0.93774 -6.04874 0
M  V30 3183 N 298.198 -0.223274 -7.01745 0
M  V30 3184 H 303.038 -1.3171 -2.67313 0
M  V30 3185 H 300.575 -0.66069 -1.31428 0
M  V30 3186 H 302.533 0.702514 -4.11243 0
M  V30 3187 H 301.163 1.08925 -3.03867 0
M  V30 3188 H 300.215 -1.26789 -3.58648 0
M  V30 3189 H 301.527 -1.45406 -4.77136 0
M  V30 3190 H 300.681 0.528335 -6.04395 0
M  V30 3191 H 299.42 0.806801 -4.8098 0
M  V30 3192 H 298.425 -1.44425 -5.30492 0
M  V30 3193 H 299.65 -1.71172 -6.57173 0
M  V30 3194 H 297.596 0.532046 -6.53839 0
M  V30 3195 H 297.513 -0.90357 -7.50581 0
M  V30 3196 H 298.781 0.250907 -7.79096 0
M  V30 3197 N 303.011 1.40521 -0.713556 0
M  V30 3198 C 303.941 2.33381 -0.0743864 0
M  V30 3199 C 304.922 1.52784 0.747735 0
M  V30 3200 O 306.107 1.81258 0.697071 0
M  V30 3201 C 303.237 3.36748 0.849598 0
M  V30 3202 C 302.191 4.27793 0.133247 0
M  V30 3203 C 301.517 5.21679 1.17281 0
M  V30 3204 C 302.817 5.12415 -1.01134 0
M  V30 3205 H 304.511 2.87081 -0.850007 0
M  V30 3206 H 302.057 1.38034 -0.410201 0
M  V30 3207 H 304.01 4.00648 1.30612 0
M  V30 3208 H 302.734 2.81439 1.65709 0
M  V30 3209 H 301.393 3.65342 -0.303426 0
M  V30 3210 H 301.041 4.62677 1.9733 0
M  V30 3211 H 300.741 5.83435 0.698397 0
M  V30 3212 H 302.265 5.88456 1.62947 0
M  V30 3213 H 303.679 5.69781 -0.634274 0
M  V30 3214 H 302.076 5.83203 -1.41399 0
M  V30 3215 H 303.146 4.48514 -1.84292 0
M  V30 3216 N 304.489 0.459591 1.5075 0
M  V30 3217 C 305.399 -0.34613 2.32033 0
M  V30 3218 C 306.415 -1.00686 1.41909 0
M  V30 3219 O 307.591 -0.997361 1.7497 0
M  V30 3220 C 304.656 -1.42029 3.16273 0
M  V30 3221 C 303.717 -0.777362 4.22203 0
M  V30 3222 C 302.95 -1.80034 5.02418 0
M  V30 3223 O 303.173 -3.02544 4.83553 0
M  V30 3224 O 302.107 -1.37853 5.85901 0
M  V30 3225 H 305.933 0.318054 3.0203 0
M  V30 3226 H 303.518 0.221663 1.47746 0
M  V30 3227 H 305.4 -2.04275 3.68578 0
M  V30 3228 H 304.075 -2.06815 2.49016 0
M  V30 3229 H 302.982 -0.116256 3.73919 0
M  V30 3230 H 304.315 -0.172634 4.91897 0
M  V30 3231 N 305.967 -1.56429 0.191757 0
M  V30 3232 C 307.213 -1.97777 -0.448554 0
M  V30 3233 C 307.546 -1.07847 -1.61501 0
M  V30 3234 O 306.821 -0.129774 -1.94067 0
M  V30 3235 C 307.104 -3.48362 -0.911906 0
M  V30 3236 C 306.957 -4.4907 0.256136 0
M  V30 3237 C 308.276 -4.02561 -1.77857 0
M  V30 3238 H 305.395 -0.719071 -0.161572 0
M  V30 3239 H 308.037 -1.87896 0.282007 0
M  V30 3240 H 306.187 -3.56914 -1.53442 0
M  V30 3241 H 307.859 -4.5256 0.893733 0
M  V30 3242 H 306.102 -4.24181 0.908436 0
M  V30 3243 H 306.773 -5.51889 -0.11053 0
M  V30 3244 H 309.249 -3.96767 -1.25359 0
M  V30 3245 H 308.125 -5.08301 -2.07174 0
M  V30 3246 H 308.386 -3.47616 -2.73158 0
M  V30 3247 N 307.445 0.0818655 -1.57387 0
M  V30 3248 C 308.355 1.11642 -2.06333 0
M  V30 3249 C 309.371 1.43033 -0.99083 0
M  V30 3250 O 310.547 1.53411 -1.30488 0
M  V30 3251 C 307.612 2.41342 -2.48907 0
M  V30 3252 C 306.673 2.17014 -3.7041 0
M  V30 3253 C 305.906 3.4053 -4.10944 0
M  V30 3254 O 306.129 4.4927 -3.51444 0
M  V30 3255 O 305.063 3.29336 -5.03807 0
M  V30 3256 H 308.889 0.730657 -2.9478 0
M  V30 3257 H 306.474 0.295301 -1.46452 0
M  V30 3258 H 308.356 3.17691 -2.76858 0
M  V30 3259 H 307.031 2.79319 -1.63593 0
M  V30 3260 H 305.938 1.38403 -3.47556 0
M  V30 3261 H 307.271 1.83923 -4.56545 0
M  V30 3262 N 308.923 1.53595 0.353017 0
M  V30 3263 C 310.169 1.70638 1.09593 0
M  V30 3264 C 310.502 0.463286 1.88593 0
M  V30 3265 O 309.777 -0.539597 1.86865 0
M  V30 3266 C 310.06 2.96406 2.04489 0
M  V30 3267 C 309.913 4.30901 1.29014 0
M  V30 3268 C 311.232 3.17812 3.0444 0
M  V30 3269 H 308.351 0.620913 0.397034 0
M  V30 3270 H 310.993 1.86254 0.375446 0
M  V30 3271 H 309.143 2.83223 2.65927 0
M  V30 3272 H 310.815 4.55917 0.702638 0
M  V30 3273 H 309.058 4.29741 0.592071 0
M  V30 3274 H 309.729 5.1506 1.98537 0
M  V30 3275 H 312.205 3.30263 2.53112 0
M  V30 3276 H 311.081 4.07223 3.6805 0
M  V30 3277 H 311.342 2.33669 3.75301 0
M  V30 3278 N 310.401 -0.613514 1.45168 0
M  V30 3279 C 311.648 -1.37268 1.48875 0
M  V30 3280 C 311.976 -1.94077 0.128161 0
M  V30 3281 O 311.231 -1.75178 -0.872416 0
M  V30 3282 C 311.53 -2.54347 2.51083 0
M  V30 3283 C 311.196 -2.1572 3.95949 0
M  V30 3284 C 309.858 -2.04899 4.35396 0
M  V30 3285 C 312.21 -1.85485 4.87078 0
M  V30 3286 C 309.538 -1.62057 5.63875 0
M  V30 3287 C 311.89 -1.4413 6.15962 0
M  V30 3288 C 310.554 -1.31863 6.54346 0
M  V30 3289 H 309.824 -0.502299 0.544773 0
M  V30 3290 H 312.471 -0.694021 1.78481 0
M  V30 3291 H 310.776 -3.27524 2.15024 0
M  V30 3292 H 312.473 -3.12577 2.51191 0
M  V30 3293 H 309.063 -2.25066 3.64751 0
M  V30 3294 H 313.247 -1.92745 4.57343 0
M  V30 3295 H 308.503 -1.51177 5.92415 0
M  V30 3296 H 312.677 -1.19778 6.86022 0
M  V30 3297 H 310.304 -0.984392 7.538 0
M  V30 3298 N 311.879 -1.3236 -0.855495 0
M  V30 3299 C 312.842 -1.21164 -1.94556 0
M  V30 3300 C 313.842 -0.134908 -1.60233 0
M  V30 3301 O 315.032 -0.385249 -1.69887 0
M  V30 3302 C 312.164 -0.863192 -3.29791 0
M  V30 3303 H 313.357 -2.18038 -2.05911 0
M  V30 3304 H 310.91 -1.16179 -1.04557 0
M  V30 3305 H 311.645 0.103769 -3.24134 0
M  V30 3306 H 311.43 -1.64166 -3.56078 0
M  V30 3307 H 312.92 -0.809156 -4.09686 0
M  V30 3308 N 313.357 1.07166 -1.15556 0
M  V30 3309 C 314.773 1.31899 -0.898603 0
M  V30 3310 C 314.973 1.96333 0.453383 0
M  V30 3311 O 314.029 2.22438 1.19489 0
M  V30 3312 C 315.342 2.20826 -2.04099 0
M  V30 3313 C 316.89 2.34269 -2.07574 0
M  V30 3314 C 317.365 3.26546 -3.21141 0
M  V30 3315 N 318.856 3.34127 -3.20801 0
M  V30 3316 C 319.591 4.05595 -4.05315 0
M  V30 3317 N 319.087 4.79661 -4.99897 0
M  V30 3318 N 320.88 4.01555 -3.93332 0
M  V30 3319 H 313.031 0.637302 -2.02613 0
M  V30 3320 H 315.294 0.343468 -0.883591 0
M  V30 3321 H 315 1.80744 -3.01703 0
M  V30 3322 H 314.874 3.21364 -1.97496 0
M  V30 3323 H 317.261 2.73603 -1.10568 0
M  V30 3324 H 317.342 1.33429 -2.18244 0
M  V30 3325 H 316.986 2.87931 -4.184 0
M  V30 3326 H 316.916 4.27345 -3.07708 0
M  V30 3327 H 319.407 2.81336 -2.52306 0
M  V30 3328 H 319.72 5.31694 -5.60822 0
M  V30 3329 H 318.065 4.78671 -5.03884 0
M  V30 3330 H 321.256 3.42806 -3.18751 0
M  V30 3331 H 321.429 4.56987 -4.5942 0
M  V30 3332 N 314.835 0.952656 1.25548 0
M  V30 3333 C 316.084 0.602053 1.92505 0
M  V30 3334 C 316.397 -0.864663 1.75451 0
M  V30 3335 O 317.603 -1.32514 2.36965 0
M  V30 3336 C 316.059 1.02607 3.44963 0
M  V30 3337 C 315.667 2.51519 3.70732 0
M  V30 3338 C 317.411 0.747905 4.1786 0
M  V30 3339 C 315.318 2.87732 5.16686 0
M  V30 3340 H 314.248 0.22146 0.720744 0
M  V30 3341 H 316.899 1.15684 1.42441 0
M  V30 3342 H 315.281 0.399712 3.93978 0
M  V30 3343 H 316.455 3.19157 3.32378 0
M  V30 3344 H 314.77 2.76786 3.11092 0
M  V30 3345 H 317.367 0.994647 5.25367 0
M  V30 3346 H 317.71 -0.315629 4.15102 0
M  V30 3347 H 318.243 1.33452 3.74747 0
M  V30 3348 H 314.982 3.93095 5.24554 0
M  V30 3349 H 314.502 2.24765 5.56094 0
M  V30 3350 H 316.181 2.76817 5.84792 0
M  V30 3351 N 316.313 -1.40141 0.720998 0
M  V30 3352 C 317.243 -2.33339 0.0867621 0
M  V30 3353 C 318.224 -1.53178 -0.739622 0
M  V30 3354 O 319.409 -1.81625 -0.687449 0
M  V30 3355 C 316.539 -3.37194 -0.831728 0
M  V30 3356 C 315.493 -4.27857 -0.110558 0
M  V30 3357 C 314.819 -5.22294 -1.14513 0
M  V30 3358 C 316.119 -5.11872 1.0385 0
M  V30 3359 H 317.813 -2.86626 0.865219 0
M  V30 3360 H 315.359 -1.37814 0.417516 0
M  V30 3361 H 317.312 -4.01335 -1.28485 0
M  V30 3362 H 316.036 -2.82314 -1.64214 0
M  V30 3363 H 314.695 -3.65176 0.322797 0
M  V30 3364 H 314.343 -4.63717 -1.94874 0
M  V30 3365 H 314.043 -5.83797 -0.667446 0
M  V30 3366 H 315.567 -5.89312 -1.59824 0
M  V30 3367 H 316.981 -5.69436 0.664482 0
M  V30 3368 H 315.378 -5.82445 1.4449 0
M  V30 3369 H 316.448 -4.4753 1.86668 0
M  V30 3370 N 317.792 -0.46758 -1.50504 0
M  V30 3371 C 319.208 -0.121533 -1.59137 0
M  V30 3372 C 319.408 1.3717 -1.47603 0
M  V30 3373 O 318.464 2.14464 -1.33272 0
M  V30 3374 C 319.777 -0.6686 -2.93173 0
M  V30 3375 C 321.325 -0.631716 -3.06559 0
M  V30 3376 C 321.8 -1.15627 -4.43164 0
M  V30 3377 N 323.291 -1.11553 -4.49567 0
M  V30 3378 C 324.026 -1.49195 -5.5365 0
M  V30 3379 N 323.522 -1.94269 -6.65005 0
M  V30 3380 N 325.315 -1.4082 -5.44175 0
M  V30 3381 H 317.466 -1.4388 -1.56245 0
M  V30 3382 H 319.729 -0.594784 -0.738198 0
M  V30 3383 H 319.435 -1.71453 -3.07078 0
M  V30 3384 H 319.309 -0.11021 -3.77039 0
M  V30 3385 H 321.696 0.405297 -2.92304 0
M  V30 3386 H 321.777 -1.22687 -2.24458 0
M  V30 3387 H 321.421 -2.1919 -4.58168 0
M  V30 3388 H 321.351 -0.537365 -5.23851 0
M  V30 3389 H 323.842 -0.784895 -3.69659 0
M  V30 3390 H 324.155 -2.21148 -7.40482 0
M  V30 3391 H 322.5 -1.98219 -6.66134 0
M  V30 3392 H 325.691 -1.0545 -4.56068 0
M  V30 3393 H 325.864 -1.70481 -6.25172 0
M  V30 3394 N 319.27 1.56325 -0.20005 0
M  V30 3395 C 320.233 2.18084 0.705132 0
M  V30 3396 C 321.233 1.13666 1.1374 0
M  V30 3397 O 322.423 1.39023 1.04968 0
M  V30 3398 C 319.555 2.78689 1.96329 0
M  V30 3399 H 320.748 2.99435 0.167023 0
M  V30 3400 H 318.301 1.56221 0.0495725 0
M  V30 3401 H 319.036 2.0115 2.5438 0
M  V30 3402 H 318.821 3.55133 1.66202 0
M  V30 3403 H 320.311 3.26096 2.60866 0
M  V30 3404 N 320.748 -0.0735177 1.57428 0
M  V30 3405 C 322.159 -0.625551 1.75908 0
M  V30 3406 C 322.51 -1.78 0.825261 0
M  V30 3407 O 321.635 -2.16398 0.00893964 0
M  V30 3408 C 322.23 -1.14155 3.18989 0
M  V30 3409 C 320.789 -1.63946 3.38819 0
M  V30 3410 C 319.936 -0.558151 2.71625 0
M  V30 3411 H 322.887 0.152647 1.57964 0
M  V30 3412 H 322.908 -2.0104 3.23053 0
M  V30 3413 H 322.42 -0.301116 3.8693 0
M  V30 3414 H 320.521 -2.50321 2.7599 0
M  V30 3415 H 320.634 -1.71759 4.47253 0
M  V30 3416 H 318.998 -1.00278 2.34129 0
M  V30 3417 H 319.781 0.272071 3.4222 0
M  V30 3418 N 322.226 -1.5378 -0.344866 0
M  V30 3419 C 323.136 -1.84667 -1.4469 0
M  V30 3420 C 324.152 -0.736704 -1.57635 0
M  V30 3421 O 325.328 -1.02888 -1.73136 0
M  V30 3422 C 322.393 -2.04869 -2.79696 0
M  V30 3423 C 321.454 -3.28731 -2.76106 0
M  V30 3424 C 320.687 -3.4796 -4.04673 0
M  V30 3425 O 320.91 -2.71052 -5.01883 0
M  V30 3426 O 319.844 -4.41383 -4.09224 0
M  V30 3427 H 323.67 -2.78334 -1.21506 0
M  V30 3428 H 321.255 -1.39418 -0.536921 0
M  V30 3429 H 323.137 -2.19609 -3.59652 0
M  V30 3430 H 321.812 -1.14391 -3.02814 0
M  V30 3431 H 320.719 -3.19396 -1.94774 0
M  V30 3432 H 322.052 -4.19198 -2.57941 0
M  V30 3433 N 323.704 0.605807 -1.45491 0
M  V30 3434 C 324.929 1.39625 -1.53361 0
M  V30 3435 C 325.354 1.87351 -0.167645 0
M  V30 3436 O 324.712 1.60243 0.848051 0
M  V30 3437 C 324.76 2.57559 -2.5238 0
M  V30 3438 O 323.864 3.58248 -2.04285 0
M  V30 3439 H 323.205 0.416771 -0.516912 0
M  V30 3440 H 325.735 0.737103 -1.90861 0
M  V30 3441 H 325.745 3.0478 -2.71244 0
M  V30 3442 H 324.42 2.22171 -3.51586 0
M  V30 3443 H 322.997 3.17664 -1.95305 0
M  V30 3444 N 325.182 1.32811 0.848464 0
M  V30 3445 C 326.132 1.18842 1.94578 0
M  V30 3446 C 327.116 0.0937517 1.60627 0
M  V30 3447 O 328.308 0.320887 1.74067 0
M  V30 3448 C 325.437 0.91999 3.30743 0
M  V30 3449 C 324.523 2.05665 3.70894 0
M  V30 3450 N 324.914 3.30579 3.8282 0
M  V30 3451 C 323.212 1.9612 4.00566 0
M  V30 3452 C 323.913 4.05067 4.17487 0
M  V30 3453 N 322.889 3.33419 4.2934 0
M  V30 3454 H 326.691 2.13536 2.0194 0
M  V30 3455 H 324.205 1.2468 1.0406 0
M  V30 3456 H 326.202 0.800859 4.09136 0
M  V30 3457 H 324.862 -0.0185076 3.24695 0
M  V30 3458 H 325.873 3.65441 3.66978 0
M  V30 3459 H 322.55 1.09871 4.02784 0
M  V30 3460 H 323.94 5.12815 4.34131 0
M  V30 3461 N 326.66 -1.06551 1.16123 0
M  V30 3462 C 327.608 -2.16063 0.861371 0
M  V30 3463 C 328.602 -1.6856 -0.168517 0
M  V30 3464 O 329.808 -1.79986 -0.0227579 0
M  V30 3465 H 326.183 -0.705278 0.260934 0
M  V30 3466 H 328.154 -2.38567 1.79244 0
M  V30 3467 C 326.903 -3.45661 0.376018 0
M  V30 3468 H 326.226 -3.82604 1.15992 0
M  V30 3469 H 327.666 -4.23504 0.204951 0
M  V30 3470 C 326.125 -3.24546 -0.903954 0
M  V30 3471 O 326.655 -3.49865 -1.97377 0
M  V30 3472 N 324.861 -2.77992 -0.846679 0
M  V30 3473 H 324.408 -2.57589 0.0241017 0
M  V30 3474 H 324.366 -2.64244 -1.70359 0
M  V30 3475 N 328.138 -0.959301 -1.25041 0
M  V30 3476 C 329.384 -0.617525 -1.9317 0
M  V30 3477 C 329.717 0.843981 -1.74902 0
M  V30 3478 O 328.992 1.60615 -1.09696 0
M  V30 3479 C 329.275 -0.982736 -3.46431 0
M  V30 3480 C 329.128 -2.50032 -3.73904 0
M  V30 3481 C 330.447 -0.511176 -4.37121 0
M  V30 3482 H 327.566 -0.22582 -0.701552 0
M  V30 3483 H 330.208 -1.19679 -1.4757 0
M  V30 3484 H 328.358 -0.489806 -3.854 0
M  V30 3485 H 330.03 -3.06737 -3.44544 0
M  V30 3486 H 328.273 -2.93598 -3.19348 0
M  V30 3487 H 328.944 -2.70635 -4.81103 0
M  V30 3488 H 331.42 -0.934075 -4.0548 0
M  V30 3489 H 330.296 -0.795361 -5.43107 0
M  V30 3490 H 330.557 0.588834 -4.38161 0
M  V30 3491 N 329.616 1.39756 -0.72842 0
M  V30 3492 C 330.844 2.04948 -0.283528 0
M  V30 3493 C 331.259 1.54908 1.0793 0
M  V30 3494 O 330.616 0.711135 1.68075 0
M  V30 3495 C 330.667 3.60498 -0.268957 0
M  V30 3496 O 330.388 4.08695 -1.57798 0
M  V30 3497 C 331.889 4.4288 0.192912 0
M  V30 3498 H 329.109 0.659243 -0.125056 0
M  V30 3499 H 331.653 1.78927 -0.990226 0
M  V30 3500 H 329.808 3.85444 0.388801 0
M  V30 3501 H 330.222 5.02977 -1.48709 0
M  V30 3502 H 331.696 5.51791 0.151952 0
M  V30 3503 H 332.173 4.21418 1.23708 0
M  V30 3504 H 332.779 4.23069 -0.435039 0
M  V30 3505 N 331.094 0.475555 1.50254 0
M  V30 3506 C 332.341 -0.0778919 2.0235 0
M  V30 3507 C 332.669 -1.39319 1.35722 0
M  V30 3508 O 331.924 -1.89888 0.473395 0
M  V30 3509 C 332.223 -0.305114 3.56095 0
M  V30 3510 C 331.889 0.92903 4.41225 0
M  V30 3511 C 330.551 1.26739 4.6421 0
M  V30 3512 C 332.903 1.75054 4.90923 0
M  V30 3513 C 330.231 2.42724 5.34137 0
M  V30 3514 C 332.583 2.9017 5.62125 0
M  V30 3515 C 331.247 3.24416 5.83362 0
M  V30 3516 H 330.517 -0.0285027 0.740452 0
M  V30 3517 H 333.164 0.630543 1.80821 0
M  V30 3518 H 331.469 -1.09584 3.76163 0
M  V30 3519 H 333.166 -0.747377 3.93974 0
M  V30 3520 H 329.756 0.655428 4.23559 0
M  V30 3521 H 333.94 1.50231 4.73016 0
M  V30 3522 H 329.196 2.69525 5.48786 0
M  V30 3523 H 333.37 3.54169 5.99614 0
M  V30 3524 H 330.997 4.14396 6.37323 0
M  V30 3525 N 332.573 -1.56217 0.208337 0
M  V30 3526 C 333.821 -1.97558 -0.426076 0
M  V30 3527 C 334.142 -1.09683 -1.61229 0
M  V30 3528 O 333.412 -0.170956 -1.95153 0
M  V30 3529 H 331.992 -0.729575 -0.160405 0
M  V30 3530 H 334.654 -1.92606 0.298155 0
M  V30 3531 H 333.75 -3.02672 -0.761312 0
M  V30 3532 N 334.051 0.0651679 -1.57465 0
M  V30 3533 C 335.276 0.779605 -1.9219 0
M  V30 3534 C 335.701 1.69988 -0.805333 0
M  V30 3535 O 335.059 1.79685 0.241435 0
M  V30 3536 C 335.107 1.54364 -3.2589 0
M  V30 3537 O 334.211 2.65474 -3.1559 0
M  V30 3538 H 333.552 0.212249 -0.629163 0
M  V30 3539 H 336.082 0.0314294 -2.04576 0
M  V30 3540 H 336.092 1.92146 -3.59922 0
M  V30 3541 H 334.767 0.868457 -4.06732 0
M  V30 3542 H 333.344 2.30501 -2.93128 0
M  V30 3543 N 335.529 1.53961 0.336706 0
M  V30 3544 C 336.776 1.71536 1.07618 0
M  V30 3545 C 337.104 0.482125 1.8843 0
M  V30 3546 O 336.359 -0.536142 1.88213 0
M  V30 3547 C 336.658 2.93493 2.03953 0
M  V30 3548 C 336.324 4.28811 1.39399 0
M  V30 3549 C 334.986 4.65602 1.21523 0
M  V30 3550 C 337.338 5.12844 0.929541 0
M  V30 3551 C 334.666 5.84037 0.558312 0
M  V30 3552 C 337.018 6.31951 0.286505 0
M  V30 3553 C 335.682 6.67432 0.0954869 0
M  V30 3554 H 334.952 0.627696 0.393801 0
M  V30 3555 H 337.599 1.88186 0.354715 0
M  V30 3556 H 335.904 2.71475 2.82504 0
M  V30 3557 H 337.601 3.04285 2.61174 0
M  V30 3558 H 334.191 3.99858 1.54311 0
M  V30 3559 H 338.375 4.84947 1.05548 0
M  V30 3560 H 333.631 6.10097 0.398995 0
M  V30 3561 H 337.805 6.96352 -0.0814376 0
M  V30 3562 H 335.432 7.59063 -0.415579 0
M  V30 3563 N 337.007 -0.598083 1.45811 0
M  V30 3564 C 338.253 -1.35882 1.50545 0
M  V30 3565 C 338.586 -1.93616 0.150445 0
M  V30 3566 O 337.861 -1.75604 -0.83628 0
M  V30 3567 C 338.144 -2.49966 2.59208 0
M  V30 3568 C 337.997 -1.97367 4.04186 0
M  V30 3569 C 339.316 -3.52068 2.64076 0
M  V30 3570 H 336.435 -0.492717 0.548087 0
M  V30 3571 H 339.077 -0.673319 1.77669 0
M  V30 3572 H 337.227 -3.08443 2.3621 0
M  V30 3573 H 338.899 -1.43466 4.38423 0
M  V30 3574 H 337.142 -1.283 4.14393 0
M  V30 3575 H 337.813 -2.79649 4.75921 0
M  V30 3576 H 340.289 -3.03448 2.84708 0
M  V30 3577 H 339.165 -4.2937 3.41954 0
M  V30 3578 H 339.426 -4.08304 1.69531 0
M  V30 3579 N 338.485 -1.33259 -0.841409 0
M  V30 3580 C 339.713 -1.27605 -1.62864 0
M  V30 3581 C 340.128 0.153507 -1.88175 0
M  V30 3582 O 339.485 1.09485 -1.46011 0
M  V30 3583 C 339.536 -2.04596 -2.98031 0
M  V30 3584 O 339.257 -3.41975 -2.73834 0
M  V30 3585 C 340.758 -2.06122 -3.92465 0
M  V30 3586 H 337.978 -0.439718 -0.506842 0
M  V30 3587 H 340.522 -1.75591 -1.04824 0
M  V30 3588 H 338.677 -1.60299 -3.5268 0
M  V30 3589 H 339.091 -3.81549 -3.59889 0
M  V30 3590 H 340.565 -2.64451 -4.84531 0
M  V30 3591 H 341.042 -1.05083 -4.26444 0
M  V30 3592 H 341.648 -2.50427 -3.43753 0
M  V30 3593 N 339.963 1.05934 -1.16686 0
M  V30 3594 C 340.893 2.1546 -0.899949 0
M  V30 3595 C 341.874 1.69391 0.155154 0
M  V30 3596 O 343.059 1.94199 0.00648693 0
M  V30 3597 C 340.189 3.44939 -0.404241 0
M  V30 3598 C 339.143 4.04536 -1.39767 0
M  V30 3599 C 338.469 5.29268 -0.760216 0
M  V30 3600 C 339.769 4.42893 -2.76845 0
M  V30 3601 H 341.463 2.38046 -1.81588 0
M  V30 3602 H 339.009 1.14404 -0.874514 0
M  V30 3603 H 340.962 4.20901 -0.204971 0
M  V30 3604 H 339.686 3.21983 0.547206 0
M  V30 3605 H 338.345 3.30635 -1.58355 0
M  V30 3606 H 337.993 5.02611 0.197831 0
M  V30 3607 H 337.693 5.70101 -1.42332 0
M  V30 3608 H 339.217 6.07924 -0.57105 0
M  V30 3609 H 340.631 5.09921 -2.62019 0
M  V30 3610 H 339.028 4.94721 -3.39663 0
M  V30 3611 H 340.098 3.53584 -3.31823 0
M  V30 3612 N 341.441 0.965919 1.2453 0
M  V30 3613 C 342.391 0.465731 2.23193 0
M  V30 3614 C 343.375 -0.451277 1.54442 0
M  V30 3615 O 344.567 -0.282489 1.74731 0
M  V30 3616 C 341.696 -0.244511 3.42428 0
M  V30 3617 C 340.782 0.691222 4.18429 0
M  V30 3618 N 341.173 1.82771 4.71623 0
M  V30 3619 C 339.471 0.501649 4.4317 0
M  V30 3620 C 340.172 2.41285 5.29298 0
M  V30 3621 N 339.148 1.69819 5.16394 0
M  V30 3622 H 342.95 1.33291 2.61937 0
M  V30 3623 H 340.464 0.824789 1.39896 0
M  V30 3624 H 342.461 -0.620056 4.12263 0
M  V30 3625 H 341.121 -1.10815 3.05205 0
M  V30 3626 H 342.132 2.20929 4.68413 0
M  V30 3627 H 338.809 -0.318177 4.16286 0
M  V30 3628 H 340.199 3.37181 5.8117 0
M  V30 3629 N 342.919 -1.39368 0.735821 0
M  V30 3630 C 344.159 -2.02349 0.288813 0
M  V30 3631 C 344.523 -1.57127 -1.10341 0
M  V30 3632 O 345.724 -2.12312 -1.64854 0
M  V30 3633 C 343.995 -3.55288 0.387986 0
M  V30 3634 S 345.554 -4.38795 0.0209408 0
M  V30 3635 H 342.372 -0.701944 0.113115 0
M  V30 3636 H 344.974 -1.70164 0.962518 0
M  V30 3637 H 343.678 -3.85691 1.40252 0
M  V30 3638 H 343.209 -3.92227 -0.303512 0
M  V30 3639 H 345.224 -4.81595 -1.19503 0
M  V30 3640 N 344.397 -0.483516 -1.5 0
M  V30 3641 C 345.625 0.0644831 -2.06799 0
M  V30 3642 C 346.04 1.32399 -1.34596 0
M  V30 3643 O 345.397 1.77626 -0.418946 0
M  V30 3644 C 345.448 0.339927 -3.59898 0
M  V30 3645 O 345.169 -0.869635 -4.29382 0
M  V30 3646 C 346.67 0.933515 -4.33359 0
M  V30 3647 H 343.89 -0.0126333 -0.670881 0
M  V30 3648 H 346.434 -0.675864 -1.93009 0
M  V30 3649 H 344.589 1.03022 -3.7345 0
M  V30 3650 H 345.003 -0.62179 -5.20801 0
M  V30 3651 H 346.477 1.07593 -5.41413 0
M  V30 3652 H 346.954 1.92685 -3.94676 0
M  V30 3653 H 347.56 0.281221 -4.24369 0
M  V30 3654 N 345.875 1.56104 -0.216619 0
M  V30 3655 C 346.838 2.18819 0.681962 0
M  V30 3656 C 347.838 1.14866 1.12528 0
M  V30 3657 O 349.028 1.40128 1.03488 0
M  V30 3658 C 346.16 2.80756 1.93362 0
M  V30 3659 H 347.353 2.99595 0.135254 0
M  V30 3660 H 344.906 1.56265 0.0330003 0
M  V30 3661 H 345.641 2.03837 2.52232 0
M  V30 3662 H 345.426 3.56876 1.62426 0
M  V30 3663 H 346.916 3.28844 2.57393 0
M  V30 3664 N 347.353 -0.0568162 1.57498 0
M  V30 3665 C 348.581 -0.765626 1.92213 0
M  V30 3666 C 348.996 -1.70353 0.813961 0
M  V30 3667 O 348.353 -1.81268 -0.211701 0
M  V30 3668 C 348.404 -1.5465 3.2675 0
M  V30 3669 O 348.125 -0.646278 4.33307 0
M  V30 3670 C 349.626 -2.35497 3.75574 0
M  V30 3671 H 346.846 -0.216835 0.634999 0
M  V30 3672 H 349.39 -0.0226146 2.04487 0
M  V30 3673 H 347.545 -2.24165 3.15957 0
M  V30 3674 H 347.959 -1.19093 5.108 0
M  V30 3675 H 349.433 -2.85722 4.72299 0
M  V30 3676 H 349.91 -3.15692 3.05344 0
M  V30 3677 H 350.516 -1.7111 3.8936 0
M  V30 3678 N 348.832 -1.54138 -0.328536 0
M  V30 3679 C 350.08 -1.71765 -1.06496 0
M  V30 3680 C 350.401 -0.49149 -1.88704 0
M  V30 3681 O 349.671 0.494539 -1.89555 0
M  V30 3682 H 348.251 -0.633295 -0.396164 0
M  V30 3683 H 350.913 -1.91429 -0.366176 0
M  V30 3684 H 350.009 -2.5951 -1.73381 0
M  V30 3685 N 350.31 0.590341 -1.46126 0
M  V30 3686 C 351.559 1.34499 -1.50309 0
M  V30 3687 C 351.872 1.94977 -0.156021 0
M  V30 3688 O 353.078 2.71395 -0.0756037 0
M  V30 3689 C 351.534 2.43723 -2.64815 0
M  V30 3690 C 351.142 1.89582 -4.0591 0
M  V30 3691 C 352.886 3.20579 -2.78262 0
M  V30 3692 C 350.793 2.9639 -5.11769 0
M  V30 3693 H 349.723 0.505593 -0.559368 0
M  V30 3694 H 352.374 0.630848 -1.72315 0
M  V30 3695 H 350.756 3.17902 -2.36124 0
M  V30 3696 H 351.93 1.21997 -4.44357 0
M  V30 3697 H 350.245 1.25418 -3.97063 0
M  V30 3698 H 352.842 4.00276 -3.54519 0
M  V30 3699 H 353.185 3.72684 -1.85505 0
M  V30 3700 H 353.718 2.53505 -3.06562 0
M  V30 3701 H 350.457 2.49181 -6.06291 0
M  V30 3702 H 349.977 3.62487 -4.77873 0
M  V30 3703 H 351.656 3.60474 -5.37278 0
M  V30 3704 N 351.788 1.33704 0.83433 0
M  V30 3705 C 353.199 1.22813 1.4062 0
M  V30 3706 C 353.55 -0.151107 1.95617 0
M  V30 3707 O 352.675 -1.05092 1.89168 0
M  V30 3708 C 353.27 2.22355 2.55624 0
M  V30 3709 C 351.829 2.1529 3.08751 0
M  V30 3710 C 350.976 2.09589 1.8157 0
M  V30 3711 H 353.927 1.45236 0.639702 0
M  V30 3712 H 353.948 1.83391 3.33389 0
M  V30 3713 H 353.46 3.22728 2.15566 0
M  V30 3714 H 351.561 1.18235 3.53343 0
M  V30 3715 H 351.674 3.06038 3.68616 0
M  V30 3716 H 350.038 1.55134 2.02004 0
M  V30 3717 H 350.821 3.11777 1.43701 0
M  V30 3718 N 353.266 -1.05314 1.17247 0
M  V30 3719 C 354.512 -1.78557 0.961513 0
M  V30 3720 C 354.845 -1.87419 -0.508697 0
M  V30 3721 O 354.12 -1.37307 -1.37757 0
M  V30 3722 C 354.403 -3.22514 1.60176 0
M  V30 3723 C 354.256 -3.21673 3.14399 0
M  V30 3724 C 355.575 -4.20318 1.30463 0
M  V30 3725 H 352.694 -0.6482 0.350723 0
M  V30 3726 H 355.336 -1.23102 1.44727 0
M  V30 3727 H 353.486 -3.69867 1.18871 0
M  V30 3728 H 355.158 -2.82405 3.64753 0
M  V30 3729 H 353.401 -2.60048 3.47214 0
M  V30 3730 H 354.072 -4.23271 3.54324 0
M  V30 3731 H 356.548 -3.81454 1.66229 0
M  V30 3732 H 355.424 -5.19289 1.77848 0
M  V30 3733 H 355.685 -4.41526 0.22521 0
M  V30 3734 N 354.744 -0.972509 -1.24016 0
M  V30 3735 C 356.155 -0.67517 -1.74064 0
M  V30 3736 C 356.506 0.808939 -1.78747 0
M  V30 3737 O 355.631 1.63286 -1.42009 0
M  V30 3738 C 356.226 -1.21889 -3.16115 0
M  V30 3739 C 354.785 -0.971358 -3.6365 0
M  V30 3740 C 353.932 -1.35134 -2.42145 0
M  V30 3741 H 356.883 -1.14727 -1.09651 0
M  V30 3742 H 356.904 -0.587489 -3.75937 0
M  V30 3743 H 356.416 -2.29906 -3.12674 0
M  V30 3744 H 354.517 0.0930686 -3.72484 0
M  V30 3745 H 354.63 -1.62039 -4.50866 0
M  V30 3746 H 352.994 -0.769751 -2.4279 0
M  V30 3747 H 353.777 -2.4411 -2.41381 0
M  V30 3748 N 356.222 1.38976 -0.743202 0
M  V30 3749 C 357.45 2.04636 -0.30525 0
M  V30 3750 C 357.865 1.56044 1.06281 0
M  V30 3751 O 357.222 0.728921 1.67311 0
M  V30 3752 C 357.273 3.60193 -0.307177 0
M  V30 3753 O 356.994 4.06998 -1.62124 0
M  V30 3754 C 358.495 4.4306 0.145928 0
M  V30 3755 H 355.715 0.65788 -0.132041 0
M  V30 3756 H 358.259 1.77866 -1.00915 0
M  V30 3757 H 356.414 3.85835 0.347898 0
M  V30 3758 H 356.828 5.01371 -1.54036 0
M  V30 3759 H 358.302 5.51921 0.0934183 0
M  V30 3760 H 358.779 4.22706 1.19231 0
M  V30 3761 H 359.385 4.22584 -0.479886 0
M  V30 3762 N 357.7 0.491464 1.49741 0
M  V30 3763 C 358.949 -0.0582189 2.01616 0
M  V30 3764 C 359.262 -1.38927 1.3769 0
M  V30 3765 O 360.468 -2.02509 1.80838 0
M  V30 3766 C 358.924 -0.154235 3.59569 0
M  V30 3767 C 358.532 1.1696 4.32463 0
M  V30 3768 C 360.276 -0.65479 4.1942 0
M  V30 3769 C 358.183 1.03627 5.8225 0
M  V30 3770 H 357.113 -0.0255317 0.753568 0
M  V30 3771 H 359.764 0.629445 1.72367 0
M  V30 3772 H 358.146 -0.906138 3.85493 0
M  V30 3773 H 359.32 1.93405 4.18248 0
M  V30 3774 H 357.635 1.60285 3.84315 0
M  V30 3775 H 360.232 -0.771903 5.29099 0
M  V30 3776 H 360.575 -1.65127 3.8215 0
M  V30 3777 H 361.108 0.040304 3.9778 0
M  V30 3778 H 357.847 2.00672 6.24028 0
M  V30 3779 H 357.367 0.312546 5.98985 0
M  V30 3780 H 359.046 0.711114 6.4308 0
M  V30 3781 N 359.178 -1.55987 0.224894 0
M  V30 3782 C 360.406 -2.02784 -0.410665 0
M  V30 3783 C 360.821 -1.10464 -1.53112 0
M  V30 3784 O 360.178 -0.114871 -1.82138 0
M  V30 3785 C 360.229 -3.49087 -0.939165 0
M  V30 3786 O 359.95 -4.37887 0.136614 0
M  V30 3787 C 361.451 -4.11543 -1.64763 0
M  V30 3788 H 358.671 -0.663484 -0.100148 0
M  V30 3789 H 361.215 -2.01614 0.342326 0
M  V30 3790 H 359.37 -3.50861 -1.64242 0
M  V30 3791 H 359.784 -5.23849 -0.261155 0
M  V30 3792 H 361.258 -5.15673 -1.96939 0
M  V30 3793 H 361.735 -3.56736 -2.56195 0
M  V30 3794 H 362.341 -4.13629 -0.989503 0
M  V30 3795 N 360.656 0.0484629 -1.57525 0
M  V30 3796 C 361.902 0.738854 -1.89506 0
M  V30 3797 C 362.257 1.73989 -0.821319 0
M  V30 3798 O 361.55 1.90825 0.172129 0
M  V30 3799 C 361.744 1.46632 -3.25935 0
M  V30 3800 C 361.573 0.537254 -4.46479 0
M  V30 3801 C 360.343 0.165484 -5.05029 0
M  V30 3802 C 362.541 -0.176085 -5.13998 0
M  V30 3803 N 360.523 -0.766868 -6.09091 0
M  V30 3804 C 361.894 -0.96478 -6.12448 0
M  V30 3805 C 363.949 -0.24509 -4.97296 0
M  V30 3806 C 362.652 -1.8161 -6.95996 0
M  V30 3807 C 364.678 -1.08347 -5.81391 0
M  V30 3808 C 364.04 -1.86014 -6.79395 0
M  V30 3809 H 360.139 0.245067 -0.742608 0
M  V30 3810 H 362.723 -0.000476161 -1.947 0
M  V30 3811 H 360.894 2.17623 -3.21706 0
M  V30 3812 H 362.626 2.10757 -3.45491 0
M  V30 3813 H 359.381 0.523466 -4.70698 0
M  V30 3814 H 359.805 -1.22698 -6.65788 0
M  V30 3815 H 364.447 0.341063 -4.21422 0
M  V30 3816 H 362.165 -2.41313 -7.71229 0
M  V30 3817 H 365.751 -1.14014 -5.70519 0
M  V30 3818 H 364.631 -2.4984 -7.43337 0
M  V30 3819 N 362.134 1.5431 0.320358 0
M  V30 3820 C 363.383 1.7188 1.05546 0
M  V30 3821 C 363.696 0.501143 1.89071 0
M  V30 3822 O 364.902 0.558258 2.65699 0
M  V30 3823 C 363.358 3.04025 1.92605 0
M  V30 3824 C 362.966 4.33207 1.14176 0
M  V30 3825 C 364.71 3.30959 2.65832 0
M  V30 3826 C 362.617 5.56412 2.00399 0
M  V30 3827 H 361.547 0.640547 0.397763 0
M  V30 3828 H 364.198 1.80802 0.313522 0
M  V30 3829 H 362.58 2.89019 2.7071 0
M  V30 3830 H 363.754 4.58989 0.40819 0
M  V30 3831 H 362.069 4.13062 0.526165 0
M  V30 3832 H 364.666 4.20203 3.30656 0
M  V30 3833 H 365.009 2.48979 3.33639 0
M  V30 3834 H 365.542 3.46847 1.94787 0
M  V30 3835 H 362.281 6.41004 1.37094 0
M  V30 3836 H 361.801 5.34844 2.7148 0
M  V30 3837 H 363.48 5.92938 2.58908 0
M  V30 3838 N 363.613 -0.582584 1.46437 0
M  V30 3839 C 364.523 -1.71949 1.59595 0
M  V30 3840 C 365.539 -1.67264 0.479443 0
M  V30 3841 O 366.715 -1.87171 0.743579 0
M  V30 3842 C 363.78 -3.08452 1.58298 0
M  V30 3843 C 362.841 -3.244 2.81182 0
M  V30 3844 C 362.074 -4.54391 2.79937 0
M  V30 3845 O 362.297 -5.38287 1.8869 0
M  V30 3846 O 361.231 -4.73588 3.71481 0
M  V30 3847 H 365.057 -1.63795 2.55744 0
M  V30 3848 H 362.642 -0.749643 1.29231 0
M  V30 3849 H 364.524 -3.89732 1.60271 0
M  V30 3850 H 363.199 -3.17043 0.653094 0
M  V30 3851 H 362.106 -2.42613 2.84763 0
M  V30 3852 H 363.439 -3.20699 3.7338 0
M  V30 3853 N 365.091 -1.34144 -0.827227 0
M  V30 3854 C 366.039 -1.25364 -1.95925 0
M  V30 3855 C 367.033 -0.152608 -1.68711 0
M  V30 3856 O 368.239 -0.317311 -1.77181 0
M  V30 3857 H 364.614 -0.389342 -0.643364 0
M  V30 3858 H 366.585 -2.21045 -2.00454 0
M  V30 3859 C 365.334 -1.02158 -3.32354 0
M  V30 3860 H 364.657 -1.86111 -3.5384 0
M  V30 3861 H 366.097 -1.00048 -4.12027 0
M  V30 3862 C 364.556 0.275244 -3.35774 0
M  V30 3863 O 365.086 1.27806 -3.80826 0
M  V30 3864 N 363.292 0.306853 -2.88975 0
M  V30 3865 H 362.839 -0.509777 -2.52506 0
M  V30 3866 H 362.797 1.17432 -2.91646 0
M  V30 3867 N 366.569 1.04691 -1.17803 0
M  V30 3868 C 367.817 1.7743 -0.967617 0
M  V30 3869 C 368.138 1.88359 0.504574 0
M  V30 3870 O 367.408 1.40402 1.36617 0
M  V30 3871 H 365.988 0.657242 -0.355024 0
M  V30 3872 H 368.65 1.2638 -1.48371 0
M  V30 3873 H 367.746 2.78924 -1.40027 0
M  V30 3874 N 368.047 0.979072 1.23499 0
M  V30 3875 C 368.995 0.510604 2.26926 0
M  V30 3876 C 369.989 -0.431691 1.63807 0
M  V30 3877 O 371.195 -0.30573 1.77385 0
M  V30 3878 H 367.57 0.146688 0.737554 0
M  V30 3879 H 369.541 1.39466 2.63803 0
M  V30 3880 C 368.29 -0.172658 3.47271 0
M  V30 3881 H 367.613 0.543331 3.96091 0
M  V30 3882 H 369.053 -0.464101 4.21452 0
M  V30 3883 C 367.512 -1.40345 3.06276 0
M  V30 3884 O 368.042 -2.49978 3.14442 0
M  V30 3885 N 366.248 -1.27362 2.61203 0
M  V30 3886 H 365.795 -0.381584 2.54758 0
M  V30 3887 H 365.753 -2.09822 2.34141 0
M  V30 3888 N 369.525 -1.3858 0.750561 0
M  V30 3889 C 370.488 -2.28836 0.129152 0
M  V30 3890 C 371.488 -1.47045 -0.650714 0
M  V30 3891 O 372.678 -1.6753 -0.477428 0
M  V30 3892 C 369.81 -3.30751 -0.825622 0
M  V30 3893 H 371.003 -2.85294 0.924516 0
M  V30 3894 H 368.556 -1.47489 0.517376 0
M  V30 3895 H 369.291 -2.79378 -1.64677 0
M  V30 3896 H 369.076 -3.91177 -0.268852 0
M  V30 3897 H 370.566 -3.98249 -1.2565 0
M  V30 3898 N 371.003 -0.499398 -1.49478 0
M  V30 3899 C 372.249 0.0457576 -2.02748 0
M  V30 3900 C 372.582 1.36793 -1.37846 0
M  V30 3901 O 371.857 1.87596 -0.513601 0
M  V30 3902 C 372.14 0.199986 -3.59544 0
M  V30 3903 C 371.993 -1.1452 -4.34977 0
M  V30 3904 C 373.312 0.94137 -4.29914 0
M  V30 3905 H 370.431 0.0151552 -0.736844 0
M  V30 3906 H 373.073 -0.650498 -1.78518 0
M  V30 3907 H 371.223 0.793007 -3.8032 0
M  V30 3908 H 372.895 -1.77697 -4.25701 0
M  V30 3909 H 371.138 -1.73488 -3.97598 0
M  V30 3910 H 371.809 -0.990607 -5.43039 0
M  V30 3911 H 374.285 0.43844 -4.13784 0
M  V30 3912 H 373.161 1.01812 -5.39375 0
M  V30 3913 H 373.422 1.98471 -3.95046 0
M  V30 3914 N 372.481 1.55866 -0.233164 0
M  V30 3915 C 373.706 2.03449 0.402906 0
M  V30 3916 C 374.131 1.11166 1.51736 0
M  V30 3917 O 373.489 0.101996 1.81013 0
M  V30 3918 C 373.537 3.49165 0.9009 0
M  V30 3919 O 372.641 3.60019 2.01147 0
M  V30 3920 H 371.982 0.657913 0.0897025 0
M  V30 3921 H 374.512 2.01493 -0.355201 0
M  V30 3922 H 374.522 3.89716 1.2077 0
M  V30 3923 H 373.197 4.15813 0.0852889 0
M  V30 3924 H 371.774 3.3136 1.71042 0
M  V30 3925 N 373.959 -0.0401083 1.57549 0
M  V30 3926 C 375.184 -0.748931 1.93406 0
M  V30 3927 C 375.609 -1.68686 0.832274 0
M  V30 3928 O 374.967 -1.80047 -0.212818 0
M  V30 3929 C 375.015 -1.4916 3.28304 0
M  V30 3930 O 374.119 -2.6042 3.19774 0
M  V30 3931 H 373.46 -0.202212 0.63246 0
M  V30 3932 H 375.99 0.00112086 2.046 0
M  V30 3933 H 376 -1.86395 3.62934 0
M  V30 3934 H 374.675 -0.80364 4.08062 0
M  V30 3935 H 373.252 -2.25808 2.96758 0
M  V30 3936 N 375.437 -1.54477 -0.31217 0
M  V30 3937 C 376.685 -1.72884 -1.04668 0
M  V30 3938 C 377.006 -0.511477 -1.88173 0
M  V30 3939 O 376.276 0.474407 -1.90069 0
M  V30 3940 H 374.856 -0.637461 -0.389425 0
M  V30 3941 H 377.518 -1.91807 -0.345852 0
M  V30 3942 H 376.614 -2.61334 -1.70619 0
M  V30 3943 N 376.915 0.57481 -1.46744 0
M  V30 3944 C 378.14 1.36341 -1.56288 0
M  V30 3945 C 378.565 1.86954 -0.207347 0
M  V30 3946 O 377.923 1.62006 0.813871 0
M  V30 3947 C 377.971 2.52147 -2.57787 0
M  V30 3948 O 377.075 3.53834 -2.11838 0
M  V30 3949 H 376.416 0.405713 -0.525636 0
M  V30 3950 H 378.946 0.696453 -1.92382 0
M  V30 3951 H 378.956 2.98958 -2.77648 0
M  V30 3952 H 377.631 2.14663 -3.5622 0
M  V30 3953 H 376.208 3.1345 -2.01999 0
M  V30 3954 N 378.394 1.34581 0.820102 0
M  V30 3955 C 379.643 1.26437 1.57151 0
M  V30 3956 C 379.956 -0.163111 1.94919 0
M  V30 3957 O 381.162 -0.366722 2.69012 0
M  V30 3958 C 379.618 2.21658 2.83541 0
M  V30 3959 C 379.226 3.69679 2.53065 0
M  V30 3960 C 380.97 2.22428 3.61561 0
M  V30 3961 C 378.877 4.56761 3.75664 0
M  V30 3962 H 377.807 0.469707 0.589823 0
M  V30 3963 H 380.458 1.59763 0.902656 0
M  V30 3964 H 378.84 1.81287 3.52067 0
M  V30 3965 H 380.014 4.18605 1.92631 0
M  V30 3966 H 378.329 3.71384 1.88316 0
M  V30 3967 H 380.926 2.8471 4.52597 0
M  V30 3968 H 381.269 1.22434 3.97889 0
M  V30 3969 H 381.802 2.61259 2.99981 0
M  V30 3970 H 378.541 5.57702 3.44454 0
M  V30 3971 H 378.061 4.12568 4.35371 0
M  V30 3972 H 379.74 4.71509 4.43044 0
M  V30 3973 N 379.872 -1.04064 1.18357 0
M  V30 3974 C 380.804 -2.12114 0.868358 0
M  V30 3975 C 381.817 -1.62247 -0.134045 0
M  V30 3976 O 383.006 -1.78253 0.0937933 0
M  V30 3977 C 380.106 -3.37773 0.276132 0
M  V30 3978 C 379.279 -4.16874 1.3242 0
M  V30 3979 C 378.338 -5.20861 0.747662 0
M  V30 3980 O 377.364 -5.51141 1.42239 0
M  V30 3981 N 378.566 -5.78715 -0.454823 0
M  V30 3982 H 381.331 -2.39748 1.79836 0
M  V30 3983 H 378.892 -1.20258 1.08396 0
M  V30 3984 H 380.884 -4.04513 -0.123133 0
M  V30 3985 H 379.454 -3.07581 -0.557895 0
M  V30 3986 H 378.674 -3.45456 1.89878 0
M  V30 3987 H 379.962 -4.66516 2.03078 0
M  V30 3988 H 379.36 -5.56415 -1.02073 0
M  V30 3989 H 377.917 -6.46921 -0.79601 0
M  V30 3990 N 381.35 -0.985608 -1.22978 0
M  V30 3991 C 382.26 -0.538548 -2.28335 0
M  V30 3992 C 383.276 0.409163 -1.69121 0
M  V30 3993 O 384.452 0.277797 -1.99475 0
M  V30 3994 C 381.517 0.146867 -3.46389 0
M  V30 3995 C 380.578 -0.842896 -4.20944 0
M  V30 3996 C 379.811 -0.190095 -5.33361 0
M  V30 3997 O 380.034 1.01767 -5.61248 0
M  V30 3998 O 378.968 -0.891289 -5.95264 0
M  V30 3999 H 382.794 -1.41487 -2.68729 0
M  V30 4000 H 380.379 -0.753495 -1.29007 0
M  V30 4001 H 382.261 0.531125 -4.1804 0
M  V30 4002 H 380.936 0.997871 -3.07935 0
M  V30 4003 H 379.843 -1.27795 -3.51595 0
M  V30 4004 H 381.176 -1.66287 -4.6326 0
M  V30 4005 N 382.828 1.3818 -0.7579 0
M  V30 4006 C 384.053 2.04827 -0.325679 0
M  V30 4007 C 384.478 1.56788 1.03919 0
M  V30 4008 O 383.836 0.721811 1.66312 0
M  V30 4009 C 383.884 3.58774 -0.362447 0
M  V30 4010 O 382.988 4.07372 0.642033 0
M  V30 4011 H 382.329 0.64833 -0.143402 0
M  V30 4012 H 384.859 1.7677 -1.03023 0
M  V30 4013 H 384.869 4.07434 -0.214844 0
M  V30 4014 H 383.544 3.93096 -1.35824 0
M  V30 4015 H 382.121 3.70068 0.458688 0
M  V30 4016 N 384.306 0.507319 1.49211 0
M  V30 4017 C 385.552 -0.0350047 2.0277 0
M  V30 4018 C 385.885 -1.3606 1.38569 0
M  V30 4019 O 385.16 -1.87321 0.523542 0
M  V30 4020 C 385.443 -0.180916 3.59645 0
M  V30 4021 C 385.296 1.16825 4.34364 0
M  V30 4022 C 386.615 -0.918558 4.30407 0
M  V30 4023 H 383.734 -0.0112473 0.736914 0
M  V30 4024 H 386.376 0.659956 1.7817 0
M  V30 4025 H 384.526 -0.772826 3.80736 0
M  V30 4026 H 386.198 1.79952 4.24753 0
M  V30 4027 H 384.441 1.75594 3.96673 0
M  V30 4028 H 385.112 1.01939 5.42506 0
M  V30 4029 H 387.588 -0.41649 4.1401 0
M  V30 4030 H 386.464 -0.989505 5.39907 0
M  V30 4031 H 386.725 -1.96373 3.96093 0
M  V30 4032 N 385.784 -1.5574 0.241426 0
M  V30 4033 C 386.731 -2.21149 -0.660432 0
M  V30 4034 C 387.701 -1.17356 -1.17545 0
M  V30 4035 O 388.886 -1.45784 -1.23093 0
M  V30 4036 C 386.026 -2.91059 -1.85414 0
M  V30 4037 C 385.139 -4.09495 -1.37616 0
M  V30 4038 C 384.274 -4.67135 -2.529 0
M  V30 4039 C 383.313 -5.77831 -2.01936 0
M  V30 4040 N 382.45 -6.29677 -3.10566 0
M  V30 4041 H 387.29 -2.97845 -0.095955 0
M  V30 4042 H 384.827 -1.47057 -0.0356024 0
M  V30 4043 H 386.785 -3.29788 -2.5553 0
M  V30 4044 H 385.415 -2.16846 -2.39118 0
M  V30 4045 H 384.467 -3.76117 -0.569235 0
M  V30 4046 H 385.779 -4.89423 -0.962618 0
M  V30 4047 H 384.933 -5.08409 -3.31067 0
M  V30 4048 H 383.672 -3.86411 -2.97553 0
M  V30 4049 H 382.677 -5.36039 -1.22238 0
M  V30 4050 H 383.902 -6.60402 -1.58259 0
M  V30 4051 H 381.848 -5.5186 -3.54664 0
M  V30 4052 H 381.765 -7.04783 -2.73526 0
M  V30 4053 H 383.033 -6.75609 -3.88809 0
M  V30 4054 N 387.262 0.0317525 -1.57568 0
M  V30 4055 C 388.539 0.758366 -1.803 0
M  V30 4056 C 388.919 1.93718 -0.838845 0
M  V30 4057 O 388.267 2.28187 0.119571 0
M  V30 4058 C 388.477 1.19392 -3.27943 0
M  V30 4059 C 389.825 1.61094 -3.92854 0
M  V30 4060 O 390.849 1.28857 -3.32076 0
M  V30 4061 O 389.708 2.20918 -4.99858 0
M  V30 4062 H 386.802 0.366514 -0.741348 0
M  V30 4063 H 389.348 0.00873765 -1.69698 0
M  V30 4064 H 388.12 0.352275 -3.89711 0
M  V30 4065 H 387.743 2.00365 -3.43424 0
M  V30 4066 N 388.74 1.54641 0.303973 0
M  V30 4067 C 390.156 1.45788 0.649463 0
M  V30 4068 C 390.356 0.64666 1.90842 0
M  V30 4069 O 389.412 0.153183 2.52035 0
M  V30 4070 C 390.725 2.89718 0.805227 0
M  V30 4071 C 392.273 2.99742 0.901305 0
M  V30 4072 C 392.748 4.44863 1.08909 0
M  V30 4073 N 394.239 4.48559 1.15536 0
M  V30 4074 C 394.974 5.58026 1.3189 0
M  V30 4075 N 394.47 6.77422 1.45161 0
M  V30 4076 N 396.263 5.45708 1.34755 0
M  V30 4077 H 388.414 2.05854 -0.523237 0
M  V30 4078 H 390.677 0.932186 -0.172431 0
M  V30 4079 H 390.383 3.51666 -0.0489108 0
M  V30 4080 H 390.257 3.36964 1.69513 0
M  V30 4081 H 392.644 2.3791 1.74593 0
M  V30 4082 H 392.725 2.55797 -0.0125531 0
M  V30 4083 H 392.369 5.07288 0.249241 0
M  V30 4084 H 392.299 4.86436 2.01713 0
M  V30 4085 H 394.79 3.6254 1.06646 0
M  V30 4086 H 395.103 7.56604 1.57387 0
M  V30 4087 H 393.448 6.80292 1.42223 0
M  V30 4088 H 396.639 4.51378 1.23996 0
M  V30 4089 H 396.812 6.3107 1.47157 0
M  V30 4090 N 390.218 -0.567019 1.47046 0
M  V30 4091 C 391.464 -1.32658 1.53394 0
M  V30 4092 C 391.797 -1.93254 0.19148 0
M  V30 4093 O 391.072 -1.77338 -0.798844 0
M  V30 4094 C 391.355 -2.44412 2.64452 0
M  V30 4095 C 391.208 -1.88749 4.08282 0
M  V30 4096 C 392.527 -3.46387 2.71485 0
M  V30 4097 H 389.646 -0.48098 0.558415 0
M  V30 4098 H 392.288 -0.635481 1.79058 0
M  V30 4099 H 390.438 -3.03363 2.427 0
M  V30 4100 H 392.11 -1.34134 4.41368 0
M  V30 4101 H 390.353 -1.19481 4.17021 0
M  V30 4102 H 391.024 -2.69491 4.81745 0
M  V30 4103 H 393.5 -2.9734 2.91081 0
M  V30 4104 H 392.376 -4.2202 3.50985 0
M  V30 4105 H 392.637 -4.04616 1.78153 0
M  V30 4106 N 391.696 -1.35014 -0.812953 0
M  V30 4107 C 392.945 -1.27269 -1.56479 0
M  V30 4108 C 393.258 0.152771 -1.95002 0
M  V30 4109 O 394.464 0.352451 -2.69203 0
M  V30 4110 C 392.92 -2.23159 -2.82362 0
M  V30 4111 C 392.528 -3.71016 -2.511 0
M  V30 4112 C 394.272 -2.24342 -3.60376 0
M  V30 4113 C 392.179 -4.58746 -3.73237 0
M  V30 4114 H 391.109 -0.472829 -0.587324 0
M  V30 4115 H 393.76 -1.6024 -0.894171 0
M  V30 4116 H 392.142 -1.83151 -3.51101 0
M  V30 4117 H 393.316 -4.1962 -1.90409 0
M  V30 4118 H 391.631 -3.72378 -1.86343 0
M  V30 4119 H 394.228 -2.87107 -4.51081 0
M  V30 4120 H 394.571 -1.24542 -3.97234 0
M  V30 4121 H 395.104 -2.62846 -2.98591 0
M  V30 4122 H 391.843 -5.59521 -3.41492 0
M  V30 4123 H 391.363 -4.14871 -4.33176 0
M  V30 4124 H 393.042 -4.73852 -4.40537 0
M  V30 4125 N 393.175 1.03435 -1.18907 0
M  V30 4126 C 394.452 1.73778 -0.89781 0
M  V30 4127 C 394.832 2.02458 0.597832 0
M  V30 4128 O 394.18 1.67482 1.55441 0
M  V30 4129 C 394.39 3.01845 -1.75187 0
M  V30 4130 C 395.738 3.7546 -1.9828 0
M  V30 4131 O 396.762 3.11759 -1.72293 0
M  V30 4132 O 395.621 4.89966 -2.42065 0
M  V30 4133 H 392.715 0.75651 -0.334098 0
M  V30 4134 H 395.261 1.09444 -1.29693 0
M  V30 4135 H 394.033 2.76836 -2.76545 0
M  V30 4136 H 393.656 3.73919 -1.35167 0
M  V30 4137 N 394.653 0.992116 1.22453 0
M  V30 4138 C 395.878 0.685644 1.95739 0
M  V30 4139 C 396.303 -0.743 1.72804 0
M  V30 4140 O 395.661 -1.50778 1.00676 0
M  V30 4141 C 395.709 0.996293 3.46564 0
M  V30 4142 O 394.813 0.0945512 4.12292 0
M  V30 4143 H 394.154 0.256694 0.612376 0
M  V30 4144 H 396.684 1.32888 1.5557 0
M  V30 4145 H 396.694 0.93781 3.97076 0
M  V30 4146 H 395.369 2.03733 3.62582 0
M  V30 4147 H 393.946 0.208451 3.72317 0
M  V30 4148 N 396.131 -1.37776 0.765217 0
M  V30 4149 C 397.547 -1.53297 0.444108 0
M  V30 4150 C 397.747 -1.72515 -1.04119 0
M  V30 4151 O 396.803 -1.74278 -1.82711 0
M  V30 4152 C 398.116 -2.73328 1.25349 0
M  V30 4153 C 399.664 -2.87185 1.24473 0
M  V30 4154 C 400.139 -4.10191 2.03733 0
M  V30 4155 N 401.63 -4.17291 2.01053 0
M  V30 4156 C 402.365 -5.11488 2.59166 0
M  V30 4157 N 401.861 -6.11285 3.26041 0
M  V30 4158 N 403.654 -5.03924 2.49032 0
M  V30 4159 H 395.805 -1.23552 1.72768 0
M  V30 4160 H 398.068 -0.601103 0.733062 0
M  V30 4161 H 397.774 -2.6557 2.30577 0
M  V30 4162 H 397.648 -3.66834 0.87823 0
M  V30 4163 H 400.035 -2.94418 0.20047 0
M  V30 4164 H 400.116 -1.94657 1.65959 0
M  V30 4165 H 399.76 -4.0372 3.08176 0
M  V30 4166 H 399.69 -5.01821 1.59633 0
M  V30 4167 H 402.181 -3.45825 1.5236 0
M  V30 4168 H 402.494 -6.79678 3.67774 0
M  V30 4169 H 400.839 -6.11583 3.30138 0
M  V30 4170 H 404.03 -4.24902 1.96407 0
M  V30 4171 H 404.203 -5.77152 2.94617 0
M  V30 4172 N 397.609 -0.515225 -1.4894 0
M  V30 4173 C 398.539 0.244628 -2.32215 0
M  V30 4174 C 399.52 0.949136 -1.41157 0
M  V30 4175 O 400.705 0.937783 -1.70057 0
M  V30 4176 C 397.835 1.30096 -3.22013 0
M  V30 4177 C 396.789 0.715486 -4.21977 0
M  V30 4178 C 396.115 1.87339 -5.00808 0
M  V30 4179 C 397.415 -0.302982 -5.2142 0
M  V30 4180 H 399.109 -0.450501 -2.95991 0
M  V30 4181 H 396.655 -0.218098 -1.42339 0
M  V30 4182 H 398.608 1.84037 -3.79089 0
M  V30 4183 H 397.332 2.02547 -2.56207 0
M  V30 4184 H 395.991 0.197715 -3.66066 0
M  V30 4185 H 395.639 2.58592 -4.31438 0
M  V30 4186 H 395.339 1.48764 -5.68457 0
M  V30 4187 H 396.863 2.41686 -5.60732 0
M  V30 4188 H 398.277 0.148802 -5.73107 0
M  V30 4189 H 396.674 -0.60532 -5.97039 0
M  V30 4190 H 397.744 -1.21395 -4.69459 0
M  V30 4191 N 399.087 1.5561 -0.249682 0
M  V30 4192 C 400.019 2.18834 0.681496 0
M  V30 4193 C 401.032 1.16546 1.1367 0
M  V30 4194 O 402.221 1.43397 1.06299 0
M  V30 4195 C 399.321 2.77992 1.9384 0
M  V30 4196 C 398.494 4.05725 1.63419 0
M  V30 4197 C 397.553 4.49174 2.74096 0
M  V30 4198 O 396.579 5.15492 2.41364 0
M  V30 4199 N 397.781 4.17191 4.03649 0
M  V30 4200 H 400.546 2.9937 0.140514 0
M  V30 4201 H 398.107 1.6175 -0.0697541 0
M  V30 4202 H 400.099 3.04015 2.67127 0
M  V30 4203 H 398.669 2.01596 2.38909 0
M  V30 4204 H 397.889 3.87261 0.736358 0
M  V30 4205 H 399.177 4.88999 1.40562 0
M  V30 4206 H 398.575 3.63955 4.33074 0
M  V30 4207 H 397.132 4.48043 4.73393 0
M  V30 4208 N 400.565 -0.0233959 1.57583 0
M  V30 4209 C 401.495 -1.02162 2.09965 0
M  V30 4210 C 402.476 -1.3735 1.00344 0
M  V30 4211 O 403.661 -1.46135 1.27899 0
M  V30 4212 C 400.791 -2.32081 2.58371 0
M  V30 4213 C 399.745 -2.1112 3.72307 0
M  V30 4214 C 399.071 -3.46848 4.06941 0
M  V30 4215 C 400.371 -1.49276 5.00514 0
M  V30 4216 H 402.065 -0.585557 2.93618 0
M  V30 4217 H 399.611 -0.280218 1.41247 0
M  V30 4218 H 401.564 -3.02249 2.93639 0
M  V30 4219 H 400.288 -2.77758 1.71808 0
M  V30 4220 H 398.947 -1.43384 3.37397 0
M  V30 4221 H 398.595 -3.90184 3.17436 0
M  V30 4222 H 398.295 -3.33646 4.83688 0
M  V30 4223 H 399.819 -4.18369 4.44747 0
M  V30 4224 H 401.233 -2.09368 5.33702 0
M  V30 4225 H 399.63 -1.46632 5.8191 0
M  V30 4226 H 400.7 -0.459217 4.82721 0
M  V30 4227 N 402.043 -1.548 -0.295768 0
M  V30 4228 C 403.29 -1.74329 -1.03032 0
M  V30 4229 C 403.618 -0.531915 -1.87085 0
M  V30 4230 O 402.873 0.486052 -1.89568 0
M  V30 4231 C 403.172 -2.98797 -1.961 0
M  V30 4232 C 402.838 -4.32356 -1.2798 0
M  V30 4233 C 401.5 -4.68661 -1.09135 0
M  V30 4234 C 403.852 -5.15128 -0.793243 0
M  V30 4235 C 401.18 -5.85312 -0.403269 0
M  V30 4236 C 403.532 -6.32488 -0.118854 0
M  V30 4237 C 402.196 -6.6745 0.0815043 0
M  V30 4238 H 401.466 -0.637916 -0.37702 0
M  V30 4239 H 404.113 -1.8906 -0.304696 0
M  V30 4240 H 402.418 -2.78869 -2.75207 0
M  V30 4241 H 404.115 -3.11102 -2.53015 0
M  V30 4242 H 400.705 -4.03808 -1.43655 0
M  V30 4243 H 404.889 -4.87575 -0.92653 0
M  V30 4244 H 400.145 -6.1094 -0.237098 0
M  V30 4245 H 404.319 -6.95892 0.266035 0
M  V30 4246 H 401.946 -7.57695 0.616685 0
M  V30 4247 N 403.521 0.559213 -1.47345 0
M  V30 4248 C 404.77 1.31281 -1.53128 0
M  V30 4249 C 405.083 1.94602 -0.197344 0
M  V30 4250 O 406.289 2.71173 -0.133154 0
M  V30 4251 C 404.745 2.38051 -2.69925 0
M  V30 4252 C 404.353 1.8093 -4.0984 0
M  V30 4253 C 406.097 3.14604 -2.84999 0
M  V30 4254 C 404.004 2.85468 -5.1794 0
M  V30 4255 H 402.934 0.493614 -0.569966 0
M  V30 4256 H 405.585 0.594155 -1.73615 0
M  V30 4257 H 403.967 3.12822 -2.42814 0
M  V30 4258 H 405.141 1.12544 -4.46845 0
M  V30 4259 H 403.456 1.16967 -3.99634 0
M  V30 4260 H 406.053 3.92666 -3.62929 0
M  V30 4261 H 406.396 3.68665 -1.93369 0
M  V30 4262 H 406.929 2.46945 -3.1187 0
M  V30 4263 H 403.668 2.36264 -6.1144 0
M  V30 4264 H 403.188 3.52269 -4.85455 0
M  V30 4265 H 404.867 3.48996 -5.44803 0
M  V30 4266 N 404.999 1.35443 0.805782 0
M  V30 4267 C 406.227 1.31878 1.59423 0
M  V30 4268 C 406.642 -0.103562 1.88516 0
M  V30 4269 O 405.999 -1.05575 1.48863 0
M  V30 4270 C 406.05 2.12426 2.92502 0
M  V30 4271 O 405.771 3.49115 2.6467 0
M  V30 4272 C 407.272 2.16455 3.86862 0
M  V30 4273 H 404.492 0.453002 0.495005 0
M  V30 4274 H 407.036 1.78309 1.00131 0
M  V30 4275 H 405.191 1.69593 3.48306 0
M  V30 4276 H 405.605 3.90957 3.49647 0
M  V30 4277 H 407.079 2.77204 4.77349 0
M  V30 4278 H 407.556 1.16352 4.23508 0
M  V30 4279 H 408.162 2.59453 3.36993 0
M  V30 4280 N 406.477 -1.02803 1.19454 0
M  V30 4281 C 407.424 -2.11099 0.933046 0
M  V30 4282 C 408.394 -1.65571 -0.132447 0
M  V30 4283 O 409.579 -1.90797 0.00987576 0
M  V30 4284 C 406.719 -3.41763 0.478747 0
M  V30 4285 C 405.832 -4.00833 1.6111 0
M  V30 4286 C 404.967 -5.19511 1.10825 0
M  V30 4287 C 404.006 -5.70639 2.21445 0
M  V30 4288 N 403.143 -6.80589 1.72461 0
M  V30 4289 H 407.983 -2.32804 1.86028 0
M  V30 4290 H 405.52 -1.14179 0.927441 0
M  V30 4291 H 407.478 -4.16736 0.196745 0
M  V30 4292 H 406.108 -3.20166 -0.411493 0
M  V30 4293 H 405.16 -3.23066 2.00829 0
M  V30 4294 H 406.472 -4.34794 2.4445 0
M  V30 4295 H 405.626 -6.01645 0.781533 0
M  V30 4296 H 404.365 -4.87086 0.244606 0
M  V30 4297 H 403.37 -4.87116 2.54947 0
M  V30 4298 H 404.595 -6.05102 3.08267 0
M  V30 4299 H 402.541 -6.50016 0.884056 0
M  V30 4300 H 402.458 -7.13681 2.49389 0
M  V30 4301 H 403.726 -7.66317 1.42755 0
M  V30 4302 N 407.956 -0.998596 -1.21925 0
M  V30 4303 C 409.367 -0.711939 -1.72593 0
M  V30 4304 C 409.718 0.770842 -1.80423 0
M  V30 4305 O 408.843 1.60237 -1.4544 0
M  V30 4306 C 409.438 -1.28567 -3.13458 0
M  V30 4307 C 407.997 -1.04828 -3.61508 0
M  V30 4308 C 407.144 -1.4024 -2.39224 0
M  V30 4309 H 410.095 -1.17027 -1.07193 0
M  V30 4310 H 410.116 -0.667098 -3.74607 0
M  V30 4311 H 409.628 -2.36486 -3.07727 0
M  V30 4312 H 407.729 0.0140383 -3.72597 0
M  V30 4313 H 407.842 -1.71566 -4.47328 0
M  V30 4314 H 406.206 -0.821077 -2.41103 0
M  V30 4315 H 406.989 -2.49176 -2.36149 0
M  V30 4316 N 409.434 1.37368 -0.772513 0
M  V30 4317 C 410.682 1.99279 -0.336516 0
M  V30 4318 C 411.003 1.6163 1.09091 0
M  V30 4319 O 410.273 0.882109 1.74916 0
M  V30 4320 H 408.853 0.737063 -0.121435 0
M  V30 4321 H 411.515 1.67836 -0.990809 0
M  V30 4322 H 410.611 3.09332 -0.414763 0
M  V30 4323 N 410.912 0.523116 1.48665 0
M  V30 4324 C 411.842 -0.23231 2.32342 0
M  V30 4325 C 412.823 -0.941637 1.41659 0
M  V30 4326 O 414.008 -0.928751 1.70552 0
M  V30 4327 C 411.138 -1.28387 3.22698 0
M  V30 4328 C 410.092 -0.693098 4.22351 0
M  V30 4329 C 409.418 -1.8468 5.01794 0
M  V30 4330 C 410.718 0.33063 5.21252 0
M  V30 4331 H 412.412 0.466192 2.95748 0
M  V30 4332 H 409.958 0.225643 1.42221 0
M  V30 4333 H 411.911 -1.82024 3.80059 0
M  V30 4334 H 410.635 -2.01186 2.57278 0
M  V30 4335 H 409.294 -0.178299 3.66166 0
M  V30 4336 H 408.942 -2.56301 4.32804 0
M  V30 4337 H 408.642 -1.45747 5.69238 0
M  V30 4338 H 410.166 -2.38709 5.62006 0
M  V30 4339 H 411.58 -0.118407 5.73178 0
M  V30 4340 H 409.977 0.636974 5.9671 0
M  V30 4341 H 411.047 1.23883 4.68808 0
M  V30 4342 N 412.39 -1.55475 0.257931 0
M  V30 4343 C 413.62 -2.03314 -0.367026 0
M  V30 4344 C 414.028 -1.13625 -1.51281 0
M  V30 4345 O 413.371 -0.145334 -1.83124 0
M  V30 4346 C 413.433 -3.47362 -0.926284 0
M  V30 4347 C 413.097 -4.56914 0.0886584 0
M  V30 4348 C 414.094 -5.12013 0.902123 0
M  V30 4349 C 411.779 -5.01827 0.217936 0
M  V30 4350 C 413.773 -6.10529 1.83122 0
M  V30 4351 C 411.46 -6.00172 1.15052 0
M  V30 4352 C 412.458 -6.54402 1.95568 0
M  V30 4353 O 412.146 -7.50827 2.87253 0
M  V30 4354 H 411.878 -0.669976 -0.0900443 0
M  V30 4355 H 414.432 -2.01804 0.382673 0
M  V30 4356 H 412.662 -3.46056 -1.72575 0
M  V30 4357 H 414.351 -3.78637 -1.46249 0
M  V30 4358 H 415.117 -4.78139 0.812891 0
M  V30 4359 H 410.996 -4.59272 -0.398721 0
M  V30 4360 H 414.54 -6.52783 2.46008 0
M  V30 4361 H 410.437 -6.33465 1.24064 0
M  V30 4362 H 411.205 -7.68483 2.81739 0
M  V30 4363 N 413.868 0.0150385 -1.57593 0
M  V30 4364 C 415.096 0.714395 -1.94175 0
M  V30 4365 C 415.511 1.68135 -0.858841 0
M  V30 4366 O 414.868 1.81766 0.163567 0
M  V30 4367 C 414.919 1.45933 -3.30735 0
M  V30 4368 O 414.64 0.531167 -4.34868 0
M  V30 4369 C 416.141 2.25456 -3.81686 0
M  V30 4370 H 413.361 0.199923 -0.640525 0
M  V30 4371 H 415.905 -0.0316096 -2.04476 0
M  V30 4372 H 414.06 2.15709 -3.21789 0
M  V30 4373 H 414.474 1.05509 -5.13778 0
M  V30 4374 H 415.948 2.731 -4.79709 0
M  V30 4375 H 416.425 3.07485 -3.13607 0
M  V30 4376 H 417.031 1.60727 -3.9376 0
M  V30 4377 N 415.346 1.54954 0.287554 0
M  V30 4378 C 416.586 1.76617 1.02887 0
M  V30 4379 C 416.95 0.547759 1.84021 0
M  V30 4380 O 418.151 0.642365 2.61012 0
M  V30 4381 C 416.422 3.02717 1.89993 0
M  V30 4382 S 417.981 3.45438 2.70588 0
M  V30 4383 H 414.799 0.6207 0.346775 0
M  V30 4384 H 417.401 1.93172 0.30082 0
M  V30 4385 H 416.105 3.89503 1.29287 0
M  V30 4386 H 415.636 2.88787 2.67144 0
M  V30 4387 H 417.651 3.03566 3.92508 0
M  V30 4388 N 416.824 -0.551391 1.4764 0
M  V30 4389 C 418.073 -1.30467 1.53822 0
M  V30 4390 C 418.386 -1.94495 0.207661 0
M  V30 4391 O 419.592 -2.71099 0.147533 0
M  V30 4392 C 418.048 -2.36616 2.71184 0
M  V30 4393 C 417.656 -1.78754 4.10793 0
M  V30 4394 C 419.4 -3.13088 2.86663 0
M  V30 4395 C 417.307 -2.82717 5.19447 0
M  V30 4396 H 416.237 -0.490584 0.572576 0
M  V30 4397 H 418.888 -0.58494 1.73927 0
M  V30 4398 H 417.27 -3.11529 2.4447 0
M  V30 4399 H 418.444 -1.10173 4.47435 0
M  V30 4400 H 416.759 -1.14846 4.00249 0
M  V30 4401 H 419.356 -3.90736 3.65007 0
M  V30 4402 H 419.699 -3.67635 1.95321 0
M  V30 4403 H 420.232 -2.45288 3.13175 0
M  V30 4404 H 416.971 -2.33018 6.12685 0
M  V30 4405 H 416.491 -3.4969 4.87316 0
M  V30 4406 H 418.17 -3.46102 5.46646 0
M  V30 4407 N 418.302 -1.35869 -0.798587 0
M  V30 4408 C 419.265 -1.29307 -1.89242 0
M  V30 4409 C 420.265 -0.202747 -1.59517 0
M  V30 4410 O 421.455 -0.456957 -1.681 0
M  V30 4411 C 418.587 -1.00229 -3.25833 0
M  V30 4412 H 419.78 -2.26576 -1.96478 0
M  V30 4413 H 417.333 -1.20509 -0.995358 0
M  V30 4414 H 418.068 -0.033801 -3.24282 0
M  V30 4415 H 417.853 -1.79121 -3.48795 0
M  V30 4416 H 419.343 -0.98219 -4.05885 0
M  V30 4417 N 419.78 1.02168 -1.19998 0
M  V30 4418 C 421.008 1.79296 -1.03249 0
M  V30 4419 C 421.423 1.84103 0.418502 0
M  V30 4420 O 420.78 1.29031 1.29063 0
M  V30 4421 C 420.831 3.24007 -1.60319 0
M  V30 4422 O 420.552 3.19512 -2.99739 0
M  V30 4423 C 422.053 4.17704 -1.48453 0
M  V30 4424 H 419.273 0.564016 -0.363493 0
M  V30 4425 H 421.817 1.28639 -1.58973 0
M  V30 4426 H 419.972 3.7183 -1.08727 0
M  V30 4427 H 420.386 4.10306 -3.26725 0
M  V30 4428 H 421.86 5.17104 -1.93153 0
M  V30 4429 H 422.337 4.37029 -0.436193 0
M  V30 4430 H 422.943 3.7576 -1.99211 0
M  V30 4431 N 421.258 1.00505 1.21394 0
M  V30 4432 C 422.206 0.558623 2.25792 0
M  V30 4433 C 423.2 -0.396848 1.64686 0
M  V30 4434 O 424.406 -0.268035 1.77993 0
M  V30 4435 H 420.781 0.1623 0.734277 0
M  V30 4436 H 422.752 1.4503 2.60785 0
M  V30 4437 C 421.501 -0.0989574 3.47559 0
M  V30 4438 H 420.824 0.627225 3.94849 0
M  V30 4439 H 422.264 -0.3746 4.22342 0
M  V30 4440 C 420.723 -1.33817 3.09184 0
M  V30 4441 O 421.253 -2.43252 3.19674 0
M  V30 4442 N 419.459 -1.21793 2.63846 0
M  V30 4443 H 419.006 -0.32746 2.5551 0
M  V30 4444 H 418.964 -2.04809 2.38539 0
M  V30 4445 N 422.737 -1.36956 0.779787 0
M  V30 4446 C 423.684 -2.30175 0.169697 0
M  V30 4447 C 424.654 -1.51501 -0.68094 0
M  V30 4448 O 425.839 -1.80042 -0.631629 0
M  V30 4449 C 422.979 -3.37985 -0.697131 0
M  V30 4450 C 422.092 -4.31661 0.170992 0
M  V30 4451 C 421.227 -5.2655 -0.701298 0
M  V30 4452 C 420.266 -6.11867 0.168869 0
M  V30 4453 N 419.403 -6.98973 -0.661855 0
M  V30 4454 H 424.243 -2.81767 0.970135 0
M  V30 4455 H 421.78 -1.38699 0.489994 0
M  V30 4456 H 423.738 -3.99128 -1.2146 0
M  V30 4457 H 422.368 -2.87739 -1.46309 0
M  V30 4458 H 421.42 -3.71756 0.80634 0
M  V30 4459 H 422.732 -4.91644 0.841875 0
M  V30 4460 H 421.886 -5.92937 -1.28494 0
M  V30 4461 H 420.625 -4.66998 -1.40584 0
M  V30 4462 H 419.63 -5.44452 0.764986 0
M  V30 4463 H 420.855 -6.73493 0.870863 0
M  V30 4464 H 418.801 -6.41941 -1.35086 0
M  V30 4465 H 418.718 -7.55984 -0.0484447 0
M  V30 4466 H 419.986 -7.6974 -1.22963 0
M  V30 4467 N 424.215 -0.530993 -1.48385 0
M  V30 4468 C 425.165 0.251092 -2.26613 0
M  V30 4469 C 426.149 0.908977 -1.32765 0
M  V30 4470 O 427.341 0.811616 -1.57295 0
M  V30 4471 C 424.47 1.29677 -3.17866 0
M  V30 4472 C 423.556 0.643627 -4.19188 0
M  V30 4473 N 423.947 -0.271223 -5.05072 0
M  V30 4474 C 422.245 0.900711 -4.3681 0
M  V30 4475 C 422.946 -0.648109 -5.78078 0
M  V30 4476 N 421.922 -0.00895987 -5.43599 0
M  V30 4477 H 425.724 -0.452702 -2.90393 0
M  V30 4478 H 423.238 -0.349091 -1.58604 0
M  V30 4479 H 425.235 1.87079 -3.72568 0
M  V30 4480 H 423.895 2.00193 -2.55642 0
M  V30 4481 H 424.906 -0.643883 -5.13882 0
M  V30 4482 H 421.583 1.59636 -3.85775 0
M  V30 4483 H 422.973 -1.39833 -6.57188 0
M  V30 4484 N 425.693 1.55336 -0.266172 0
M  V30 4485 C 426.941 1.99003 0.35246 0
M  V30 4486 C 427.262 1.15591 1.57047 0
M  V30 4487 O 426.532 0.243268 1.94384 0
M  V30 4488 H 425.112 0.735025 0.133217 0
M  V30 4489 H 427.774 1.91367 -0.369434 0
M  V30 4490 H 426.87 3.05289 0.648453 0
M  V30 4491 N 427.171 -0.0066808 1.57599 0
M  V30 4492 C 428.081 -1.01671 2.11424 0
M  V30 4493 C 429.097 -1.38143 1.05795 0
M  V30 4494 O 430.273 -1.47011 1.37658 0
M  V30 4495 C 427.338 -2.29192 2.60139 0
M  V30 4496 C 426.399 -1.99094 3.80342 0
M  V30 4497 C 425.632 -3.20535 4.26724 0
M  V30 4498 O 425.855 -4.3199 3.72479 0
M  V30 4499 O 424.789 -3.04924 5.18946 0
M  V30 4500 H 428.615 -0.589181 2.9793 0
M  V30 4501 H 426.2 -0.225091 1.47695 0
M  V30 4502 H 428.082 -3.0412 2.917 0
M  V30 4503 H 426.757 -2.71195 1.76733 0
M  V30 4504 H 425.664 -1.21663 3.53764 0
M  V30 4505 H 426.997 -1.61931 4.648 0
M  V30 4506 N 428.649 -1.55105 -0.279332 0
M  V30 4507 C 429.596 -1.8755 -1.34513 0
M  V30 4508 C 430.566 -0.726384 -1.49375 0
M  V30 4509 O 431.751 -0.977063 -1.63884 0
M  V30 4510 C 428.891 -2.14738 -2.70151 0
M  V30 4511 C 428.004 -3.42285 -2.63562 0
M  V30 4512 C 427.139 -3.59206 -3.91337 0
M  V30 4513 C 426.178 -4.80467 -3.79233 0
M  V30 4514 N 425.315 -4.94079 -4.98829 0
M  V30 4515 H 430.155 -2.78456 -1.06143 0
M  V30 4516 H 427.692 -1.37867 -0.512936 0
M  V30 4517 H 429.65 -2.28501 -3.49061 0
M  V30 4518 H 428.28 -1.27075 -2.96735 0
M  V30 4519 H 427.332 -3.37029 -1.76397 0
M  V30 4520 H 428.644 -4.31328 -2.50515 0
M  V30 4521 H 427.798 -3.72751 -4.78687 0
M  V30 4522 H 426.537 -2.68337 -4.07243 0
M  V30 4523 H 425.542 -4.66932 -2.90266 0
M  V30 4524 H 426.767 -5.72765 -3.64852 0
M  V30 4525 H 424.713 -4.06139 -5.15158 0
M  V30 4526 H 424.63 -5.77156 -4.8829 0
M  V30 4527 H 425.898 -5.12003 -5.8777 0
M  V30 4528 N 430.127 0.543554 -1.4793 0
M  V30 4529 C 431.374 1.30008 -1.55255 0
M  V30 4530 C 431.702 1.93245 -0.220612 0
M  V30 4531 O 430.957 1.79141 0.787843 0
M  V30 4532 C 431.256 2.42078 -2.62932 0
M  V30 4533 C 430.922 1.96583 -4.0579 0
M  V30 4534 C 429.584 1.83893 -4.44676 0
M  V30 4535 C 431.936 1.62034 -4.95373 0
M  V30 4536 C 429.264 1.34969 -5.70964 0
M  V30 4537 C 431.616 1.14577 -6.22137 0
M  V30 4538 C 430.28 1.00493 -6.59892 0
M  V30 4539 H 429.55 0.475735 -0.568117 0
M  V30 4540 H 432.197 0.608075 -1.81589 0
M  V30 4541 H 430.502 3.16892 -2.30406 0
M  V30 4542 H 432.199 3.00236 -2.65818 0
M  V30 4543 H 428.789 2.07407 -3.75074 0
M  V30 4544 H 432.973 1.70705 -4.66019 0
M  V30 4545 H 428.229 1.2274 -5.98953 0
M  V30 4546 H 432.403 0.869109 -6.90955 0
M  V30 4547 H 430.03 0.623624 -7.57638 0
M  V30 4548 N 431.605 1.3629 0.791371 0
M  V30 4549 C 432.83 1.33726 1.58531 0
M  V30 4550 C 433.255 -0.0794933 1.87932 0
M  V30 4551 O 432.613 -1.05087 1.47738 0
M  V30 4552 C 432.661 2.16425 2.88431 0
M  V30 4553 O 431.765 1.5554 3.81944 0
M  V30 4554 H 431.106 0.457793 0.480959 0
M  V30 4555 H 433.636 1.79547 0.981031 0
M  V30 4556 H 433.646 2.28933 3.37718 0
M  V30 4557 H 432.321 3.19415 2.66359 0
M  V30 4558 H 430.898 1.51961 3.40532 0
M  V30 4559 N 433.083 -1.0153 1.20538 0
M  V30 4560 C 434.311 -1.78746 1.04199 0
M  V30 4561 C 434.726 -1.84323 -0.408733 0
M  V30 4562 O 434.083 -1.29714 -1.28377 0
M  V30 4563 C 434.134 -3.23152 1.62035 0
M  V30 4564 O 433.855 -3.17918 3.0143 0
M  V30 4565 C 435.356 -4.16911 1.50666 0
M  V30 4566 H 432.576 -0.56208 0.366479 0
M  V30 4567 H 435.12 -1.27794 1.59653 0
M  V30 4568 H 433.275 -3.71248 1.10697 0
M  V30 4569 H 433.689 -4.08567 3.28897 0
M  V30 4570 H 435.163 -5.16072 1.95892 0
M  V30 4571 H 435.64 -4.36791 0.459363 0
M  V30 4572 H 436.246 -3.74698 2.01201 0
M  V30 4573 N 434.561 -1.01147 -1.20859 0
M  V30 4574 C 435.524 -0.582224 -2.21682 0
M  V30 4575 C 436.524 0.344887 -1.57058 0
M  V30 4576 O 437.714 0.134281 -1.73682 0
M  V30 4577 C 434.846 0.150496 -3.40568 0
M  V30 4578 H 436.039 -1.47408 -2.61172 0
M  V30 4579 H 433.592 -0.800695 -1.34233 0
M  V30 4580 H 434.327 1.0575 -3.06574 0
M  V30 4581 H 434.112 -0.515444 -3.88697 0
M  V30 4582 H 435.602 0.438344 -4.15293 0
M  V30 4583 N 436.039 1.36541 -0.78704 0
M  V30 4584 C 436.986 2.30082 -0.181901 0
M  V30 4585 C 437.956 1.5186 0.672896 0
M  V30 4586 O 439.141 1.80374 0.622072 0
M  V30 4587 C 436.281 3.3835 0.679197 0
M  V30 4588 C 435.394 4.31565 -0.193882 0
M  V30 4589 C 434.529 5.26915 0.673364 0
M  V30 4590 C 433.568 6.11769 -0.201315 0
M  V30 4591 N 432.705 6.99315 0.624777 0
M  V30 4592 H 437.545 2.81248 -0.985064 0
M  V30 4593 H 435.082 1.38437 -0.497342 0
M  V30 4594 H 437.04 3.99767 1.19341 0
M  V30 4595 H 435.67 2.8851 1.44781 0
M  V30 4596 H 434.722 3.71323 -0.826044 0
M  V30 4597 H 436.034 4.91191 -0.867937 0
M  V30 4598 H 435.188 5.9361 1.25348 0
M  V30 4599 H 433.927 4.67737 1.38105 0
M  V30 4600 H 432.932 5.44039 -0.793849 0
M  V30 4601 H 434.157 6.73022 -0.906568 0
M  V30 4602 H 432.103 6.42648 1.3168 0
M  V30 4603 H 432.02 7.56 0.00835237 0
M  V30 4604 H 433.288 7.70382 1.18879 0
M  V30 4605 N 437.518 0.538854 1.48102 0
M  V30 4606 C 438.481 -0.208395 2.28251 0
M  V30 4607 C 439.481 -0.859656 1.35892 0
M  V30 4608 O 440.671 -0.71834 1.58699 0
M  V30 4609 C 437.803 -1.30252 3.15035 0
M  V30 4610 H 438.996 0.495407 2.9578 0
M  V30 4611 H 436.549 0.295112 1.53489 0
M  V30 4612 H 437.284 -2.0393 2.52157 0
M  V30 4613 H 437.069 -0.840551 3.82985 0
M  V30 4614 H 438.559 -1.82787 3.75471 0
M  V30 4615 N 438.996 -1.55193 0.274407 0
M  V30 4616 C 439.959 -2.212 -0.600279 0
M  V30 4617 C 440.959 -1.18963 -1.08187 0
M  V30 4618 O 442.149 -1.43873 -0.982158 0
M  V30 4619 C 439.281 -2.87739 -1.82809 0
M  V30 4620 H 440.474 -2.9989 -0.0239682 0
M  V30 4621 H 438.027 -1.5628 0.0250192 0
M  V30 4622 H 438.762 -2.13058 -2.44493 0
M  V30 4623 H 438.547 -3.62658 -1.49069 0
M  V30 4624 H 440.037 -3.38171 -2.45011 0
M  V30 4625 N 440.474 -0.00167713 -1.576 0
M  V30 4626 C 441.437 0.974046 -2.07473 0
M  V30 4627 C 442.437 1.27143 -0.984444 0
M  V30 4628 O 443.627 1.21633 -1.24703 0
M  V30 4629 C 440.759 2.29849 -2.51759 0
M  V30 4630 H 441.952 0.54262 -2.9495 0
M  V30 4631 H 439.505 0.245829 -1.54355 0
M  V30 4632 H 440.24 2.77677 -1.67529 0
M  V30 4633 H 440.025 2.09584 -3.31386 0
M  V30 4634 H 441.515 2.9984 -2.90664 0
M  V30 4635 N 441.952 1.55251 0.271103 0
M  V30 4636 C 443.18 1.79974 1.02064 0
M  V30 4637 C 443.595 0.574003 1.79863 0
M  V30 4638 O 442.952 -0.456962 1.76686 0
M  V30 4639 C 443.003 3.02603 1.97772 0
M  V30 4640 O 442.724 4.20443 1.23124 0
M  V30 4641 C 444.225 3.39944 2.84522 0
M  V30 4642 H 441.445 0.599489 0.301419 0
M  V30 4643 H 443.989 2.02268 0.301313 0
M  V30 4644 H 442.144 2.8243 2.65165 0
M  V30 4645 H 442.558 4.89783 1.87651 0
M  V30 4646 H 444.032 4.28915 3.47471 0
M  V30 4647 H 444.509 2.59432 3.54389 0
M  V30 4648 H 445.115 3.62383 2.22618 0
M  V30 4649 N 443.43 -0.535701 1.48216 0
M  V30 4650 C 444.679 -1.28828 1.55197 0
M  V30 4651 C 444.992 -1.94263 0.228278 0
M  V30 4652 O 446.198 -2.70927 0.176278 0
M  V30 4653 C 444.654 -2.33727 2.73678 0
M  V30 4654 C 444.262 -1.74386 4.12666 0
M  V30 4655 C 446.006 -3.1003 2.89968 0
M  V30 4656 C 443.913 -2.77192 5.22416 0
M  V30 4657 H 442.843 -0.484484 0.577747 0
M  V30 4658 H 445.494 -0.56646 1.74538 0
M  V30 4659 H 443.876 -3.08919 2.4776 0
M  V30 4660 H 445.05 -1.05421 4.48579 0
M  V30 4661 H 443.365 -1.10595 4.01445 0
M  V30 4662 H 445.962 -3.86842 3.6913 0
M  V30 4663 H 446.305 -3.65542 1.9921 0
M  V30 4664 H 446.838 -2.41952 3.15759 0
M  V30 4665 H 443.577 -2.26507 6.15122 0
M  V30 4666 H 443.097 -3.44502 4.90998 0
M  V30 4667 H 444.776 -3.40285 5.50286 0
M  V30 4668 N 444.908 -1.36708 -0.784132 0
M  V30 4669 C 446.133 -1.34565 -1.5782 0
M  V30 4670 C 446.558 0.0695257 -1.87971 0
M  V30 4671 O 445.916 1.04302 -1.48293 0
M  V30 4672 C 445.964 -2.17952 -2.87279 0
M  V30 4673 O 445.068 -1.57563 -3.81114 0
M  V30 4674 H 444.409 -0.460337 -0.478524 0
M  V30 4675 H 446.939 -1.80064 -0.971495 0
M  V30 4676 H 446.949 -2.30721 -3.365 0
M  V30 4677 H 445.624 -3.20823 -2.64661 0
M  V30 4678 H 444.201 -1.53764 -3.39722 0
M  V30 4679 N 446.386 1.0089 -1.21074 0
M  V30 4680 C 447.635 1.74019 -1.01981 0
M  V30 4681 C 447.948 1.90408 0.447665 0
M  V30 4682 O 449.154 2.60707 0.757906 0
M  V30 4683 C 447.61 3.13026 -1.77603 0
M  V30 4684 C 447.218 3.04623 -3.28495 0
M  V30 4685 C 448.962 3.90312 -1.66904 0
M  V30 4686 C 446.869 4.38685 -3.96623 0
M  V30 4687 H 445.799 0.652422 -0.377971 0
M  V30 4688 H 448.45 1.12755 -1.44771 0
M  V30 4689 H 446.832 3.74878 -1.27604 0
M  V30 4690 H 448.006 2.52032 -3.85767 0
M  V30 4691 H 446.321 2.40827 -3.39693 0
M  V30 4692 H 448.918 4.8951 -2.15138 0
M  V30 4693 H 449.261 4.11558 -0.62658 0
M  V30 4694 H 449.794 3.35104 -2.14359 0
M  V30 4695 H 446.533 4.22641 -5.01054 0
M  V30 4696 H 446.053 4.91252 -3.4414 0
M  V30 4697 H 447.732 5.075 -4.01314 0
M  V30 4698 N 447.864 1.01787 1.20321 0
M  V30 4699 C 448.827 0.593972 2.2137 0
M  V30 4700 C 449.827 -0.336553 1.57239 0
M  V30 4701 O 451.017 -0.125069 1.7375 0
M  V30 4702 C 448.149 -0.132433 3.40643 0
M  V30 4703 H 449.342 1.48791 2.60387 0
M  V30 4704 H 446.895 0.807803 1.33807 0
M  V30 4705 H 447.63 -1.04123 3.0713 0
M  V30 4706 H 447.415 0.53605 3.88418 0
M  V30 4707 H 448.905 -0.416314 4.1552 0
M  V30 4708 N 449.342 -1.36122 0.79427 0
M  V30 4709 C 450.252 -2.33769 0.197296 0
M  V30 4710 C 451.268 -1.61276 -0.653153 0
M  V30 4711 O 452.444 -1.9323 -0.5678 0
M  V30 4712 C 449.509 -3.40474 -0.654098 0
M  V30 4713 C 448.57 -4.28759 0.215411 0
M  V30 4714 C 447.803 -5.30368 -0.595443 0
M  V30 4715 O 448.026 -5.40211 -1.83107 0
M  V30 4716 O 446.96 -6.019 0.00721351 0
M  V30 4717 H 450.786 -2.86597 1.00478 0
M  V30 4718 H 448.371 -1.38676 0.555818 0
M  V30 4719 H 450.253 -4.05703 -1.13944 0
M  V30 4720 H 448.928 -2.89937 -1.43938 0
M  V30 4721 H 447.835 -3.66554 0.747615 0
M  V30 4722 H 449.168 -4.82661 0.964332 0
M  V30 4723 N 450.82 -0.546701 -1.47814 0
M  V30 4724 C 452.066 -0.0269594 -2.03382 0
M  V30 4725 C 452.421 1.30406 -1.41464 0
M  V30 4726 O 451.714 1.8332 -0.557151 0
M  V30 4727 C 451.908 0.134869 -3.57145 0
M  V30 4728 C 451.737 -1.17891 -4.33972 0
M  V30 4729 C 450.507 -1.74336 -4.74273 0
M  V30 4730 C 452.705 -2.09361 -4.69758 0
M  V30 4731 N 450.687 -2.99829 -5.35701 0
M  V30 4732 C 452.058 -3.19431 -5.31379 0
M  V30 4733 C 454.113 -2.09484 -4.51687 0
M  V30 4734 C 452.816 -4.2971 -5.76838 0
M  V30 4735 C 454.842 -3.18767 -4.98138 0
M  V30 4736 C 454.204 -4.27557 -5.59799 0
M  V30 4737 H 450.303 -0.0517733 -0.780284 0
M  V30 4738 H 452.887 -0.731673 -1.80429 0
M  V30 4739 H 451.058 0.80869 -3.79888 0
M  V30 4740 H 452.79 0.655726 -3.99352 0
M  V30 4741 H 449.545 -1.28265 -4.559 0
M  V30 4742 H 449.969 -3.63765 -5.70968 0
M  V30 4743 H 454.611 -1.26663 -4.03381 0
M  V30 4744 H 452.329 -5.13297 -6.24141 0
M  V30 4745 H 455.915 -3.19937 -4.85934 0
M  V30 4746 H 454.795 -5.10725 -5.95088 0
M  V30 4747 N 452.299 1.55045 -0.282633 0
M  V30 4748 C 453.524 2.04628 0.337977 0
M  V30 4749 C 453.949 1.15937 1.48123 0
M  V30 4750 O 453.307 0.159532 1.80597 0
M  V30 4751 C 453.355 3.51854 0.78936 0
M  V30 4752 O 452.459 3.66236 1.89592 0
M  V30 4753 H 451.8 0.660434 0.0687261 0
M  V30 4754 H 454.33 2.00261 -0.419124 0
M  V30 4755 H 454.34 3.93361 1.08311 0
M  V30 4756 H 453.015 4.15873 -0.0470419 0
M  V30 4757 H 451.592 3.36633 1.60413 0
M  V30 4758 N 453.777 0.010035 1.57597 0
M  V30 4759 C 454.724 -0.978122 2.09049 0
M  V30 4760 C 455.694 -1.33509 0.988159 0
M  V30 4761 O 456.879 -1.43172 1.26121 0
M  V30 4762 C 454.019 -2.26158 2.60666 0
M  V30 4763 C 453.132 -1.96275 3.84838 0
M  V30 4764 C 452.267 -3.18776 4.24918 0
M  V30 4765 C 451.306 -2.84625 5.41899 0
M  V30 4766 N 450.443 -3.99693 5.77226 0
M  V30 4767 H 455.283 -0.532431 2.93205 0
M  V30 4768 H 452.82 -0.251234 1.44939 0
M  V30 4769 H 454.778 -3.01202 2.88675 0
M  V30 4770 H 453.408 -2.68378 1.79369 0
M  V30 4771 H 452.46 -1.11555 3.63675 0
M  V30 4772 H 453.772 -1.67111 4.69974 0
M  V30 4773 H 452.926 -4.02157 4.54262 0
M  V30 4774 H 451.665 -3.51087 3.38511 0
M  V30 4775 H 450.67 -1.99653 5.12268 0
M  V30 4776 H 451.895 -2.53551 6.29991 0
M  V30 4777 H 449.841 -4.31882 4.93776 0
M  V30 4778 H 449.758 -3.74087 6.56959 0
M  V30 4779 H 451.026 -4.83834 6.11167 0
M  V30 4780 N 455.255 -1.55392 -0.262866 0
M  V30 4781 C 456.666 -1.67079 -0.833158 0
M  V30 4782 C 457.017 -0.604539 -1.86654 0
M  V30 4783 O 456.142 0.252138 -2.14926 0
M  V30 4784 C 456.737 -3.02891 -1.51797 0
M  V30 4785 C 455.296 -3.16571 -2.03617 0
M  V30 4786 C 454.443 -2.62909 -0.881701 0
M  V30 4787 H 457.394 -1.58652 -0.0389986 0
M  V30 4788 H 457.415 -2.96445 -2.38538 0
M  V30 4789 H 456.927 -3.80473 -0.765619 0
M  V30 4790 H 455.028 -2.43782 -2.81782 0
M  V30 4791 H 455.141 -4.23271 -2.24452 0
M  V30 4792 H 453.505 -2.20324 -1.27786 0
M  V30 4793 H 454.288 -3.43003 -0.14269 0
M  V30 4794 N 456.733 0.527833 -1.48498 0
M  V30 4795 C 457.665 1.6482 -1.5927 0
M  V30 4796 C 458.678 1.55659 -0.476869 0
M  V30 4797 O 459.867 1.62081 -0.747806 0
M  V30 4798 C 456.967 3.0348 -1.50842 0
M  V30 4799 C 456.14 3.381 -2.77502 0
M  V30 4800 C 455.199 4.5605 -2.62497 0
M  V30 4801 O 454.225 4.59165 -3.36387 0
M  V30 4802 N 455.427 5.54353 -1.72257 0
M  V30 4803 H 458.192 1.56015 -2.55889 0
M  V30 4804 H 455.753 0.715152 -1.45249 0
M  V30 4805 H 457.745 3.80264 -1.38496 0
M  V30 4806 H 456.315 3.06352 -0.621887 0
M  V30 4807 H 455.535 2.50473 -3.04396 0
M  V30 4808 H 456.823 3.58017 -3.61527 0
M  V30 4809 H 456.221 5.54617 -1.11431 0
M  V30 4810 H 454.778 6.30347 -1.65849 0
M  V30 4811 N 458.211 1.37122 0.776871 0
M  V30 4812 C 459.158 1.3247 1.88998 0
M  V30 4813 C 460.128 0.191143 1.64997 0
M  V30 4814 O 461.313 0.379683 1.86984 0
M  V30 4815 C 458.453 1.13241 3.25992 0
M  V30 4816 C 457.566 2.35782 3.61982 0
M  V30 4817 C 456.701 2.09465 4.88158 0
M  V30 4818 C 455.74 3.279 5.16864 0
M  V30 4819 N 454.877 3.01167 6.34226 0
M  V30 4820 H 459.717 2.27642 1.9231 0
M  V30 4821 H 457.254 1.13125 0.94027 0
M  V30 4822 H 459.212 1.00115 4.0501 0
M  V30 4823 H 457.842 0.217186 3.22069 0
M  V30 4824 H 456.894 2.59666 2.77989 0
M  V30 4825 H 458.206 3.24125 3.79137 0
M  V30 4826 H 457.36 1.93341 5.75069 0
M  V30 4827 H 456.099 1.18452 4.73097 0
M  V30 4828 H 455.104 3.44569 4.2843 0
M  V30 4829 H 456.329 4.19757 5.33836 0
M  V30 4830 H 454.275 2.12779 6.20533 0
M  V30 4831 H 454.192 3.83052 6.51772 0
M  V30 4832 H 455.46 2.88649 7.24087 0
M  V30 4833 N 459.689 -1.00246 1.21608 0
M  V30 4834 C 460.966 -1.71336 0.943568 0
M  V30 4835 C 461.346 -2.03972 -0.543943 0
M  V30 4836 O 460.694 -1.71545 -1.50946 0
M  V30 4837 C 460.904 -2.97094 1.83128 0
M  V30 4838 C 462.252 -3.70071 2.08165 0
M  V30 4839 O 463.276 -3.07081 1.80498 0
M  V30 4840 O 462.135 -4.83376 2.54971 0
M  V30 4841 H 459.229 -0.747386 0.354039 0
M  V30 4842 H 461.775 -1.05967 1.32549 0
M  V30 4843 H 460.547 -2.69407 2.83788 0
M  V30 4844 H 460.17 -3.70204 1.45034 0
M  V30 4845 N 461.167 -1.02423 -1.1978 0
M  V30 4846 C 462.115 -0.594474 -2.24875 0
M  V30 4847 C 463.109 0.370598 -1.65296 0
M  V30 4848 O 464.315 0.239684 -1.78397 0
M  V30 4849 H 460.69 -0.173961 -0.731602 0
M  V30 4850 H 462.661 -1.4916 -2.58445 0
M  V30 4851 C 461.41 0.0436512 -3.47673 0
M  V30 4852 H 460.733 -0.689963 -3.93801 0
M  V30 4853 H 462.173 0.307362 -4.22884 0
M  V30 4854 C 460.632 1.28881 -3.11274 0
M  V30 4855 O 461.162 2.38135 -3.23503 0
M  V30 4856 N 459.368 1.1758 -2.6575 0
M  V30 4857 H 458.915 0.286769 -2.55999 0
M  V30 4858 H 458.873 2.00988 -2.41767 0
M  V30 4859 N 462.645 1.35699 -0.801477 0
M  V30 4860 C 463.592 2.29876 -0.206294 0
M  V30 4861 C 464.562 1.52565 0.656752 0
M  V30 4862 O 465.747 1.81024 0.602906 0
M  V30 4863 C 462.887 3.39052 0.643272 0
M  V30 4864 C 462 4.31335 -0.239644 0
M  V30 4865 C 461.135 5.27599 0.61744 0
M  V30 4866 C 460.174 6.11521 -0.26619 0
M  V30 4867 N 459.311 6.99938 0.550571 0
M  V30 4868 H 464.151 2.80187 -1.01484 0
M  V30 4869 H 461.688 1.37902 -0.511997 0
M  V30 4870 H 463.646 4.0101 1.15094 0
M  V30 4871 H 462.276 2.9003 1.41713 0
M  V30 4872 H 461.328 3.70426 -0.865381 0
M  V30 4873 H 462.64 4.90243 -0.919985 0
M  V30 4874 H 461.794 5.94906 1.19045 0
M  V30 4875 H 460.533 4.69176 1.33137 0
M  V30 4876 H 459.538 5.43166 -0.851507 0
M  V30 4877 H 460.763 6.72022 -0.9779 0
M  V30 4878 H 458.709 6.44008 1.24856 0
M  V30 4879 H 458.626 7.55966 -0.071832 0
M  V30 4880 H 459.894 7.71599 1.10702 0
M  V30 4881 N 464.123 0.554532 1.47522 0
M  V30 4882 C 465.371 0.0294208 2.02079 0
M  V30 4883 C 465.692 -1.32411 1.43151 0
M  V30 4884 O 464.962 -1.863 0.605728 0
M  V30 4885 H 463.542 0.00788672 0.746958 0
M  V30 4886 H 466.204 0.723934 1.80956 0
M  V30 4887 H 465.3 -0.0606745 3.12041 0
M  V30 4888 N 465.601 -1.54893 0.290851 0
M  V30 4889 C 466.831 -2.04047 -0.323818 0
M  V30 4890 C 467.239 -1.16809 -1.48837 0
M  V30 4891 O 466.582 -0.184145 -1.82775 0
M  V30 4892 C 466.644 -3.49248 -0.852395 0
M  V30 4893 C 466.308 -4.56623 0.185557 0
M  V30 4894 C 467.305 -5.09985 1.01053 0
M  V30 4895 C 464.99 -5.01252 0.324332 0
M  V30 4896 C 466.984 -6.06507 1.96031 0
M  V30 4897 C 464.671 -5.97596 1.27757 0
M  V30 4898 C 465.669 -6.50107 2.09405 0
M  V30 4899 O 465.357 -7.44565 3.03114 0
M  V30 4900 H 465.089 -0.671735 -0.0758129 0
M  V30 4901 H 467.643 -2.00947 0.425393 0
M  V30 4902 H 465.873 -3.49639 -1.65195 0
M  V30 4903 H 467.562 -3.81654 -1.38185 0
M  V30 4904 H 468.328 -4.76307 0.914129 0
M  V30 4905 H 464.207 -4.60015 -0.301213 0
M  V30 4906 H 467.751 -6.47418 2.598 0
M  V30 4907 H 463.648 -6.30691 1.37473 0
M  V30 4908 H 464.416 -7.62334 2.97976 0
M  V30 4909 N 467.08 -0.0183926 -1.57589 0
M  V30 4910 C 468.32 0.666846 -1.93216 0
M  V30 4911 C 468.684 1.69905 -0.894215 0
M  V30 4912 O 469.885 2.436 -1.13633 0
M  V30 4913 C 468.156 1.27684 -3.33814 0
M  V30 4914 S 469.715 1.98464 -3.91353 0
M  V30 4915 H 466.533 0.219826 -0.676164 0
M  V30 4916 H 469.135 -0.0794893 -1.95338 0
M  V30 4917 H 467.839 0.513006 -4.07181 0
M  V30 4918 H 467.37 2.06071 -3.3511 0
M  V30 4919 H 469.385 3.26189 -3.73918 0
M  V30 4920 N 468.558 1.5553 0.254621 0
M  V30 4921 C 469.521 1.88872 1.29846 0
M  V30 4922 C 470.521 0.764591 1.41459 0
M  V30 4923 O 471.711 1.03265 1.40293 0
M  V30 4924 C 468.843 2.11032 2.67728 0
M  V30 4925 H 470.036 2.82201 1.01502 0
M  V30 4926 H 467.589 1.48303 0.493556 0
M  V30 4927 H 468.324 1.20146 3.01223 0
M  V30 4928 H 468.109 2.92895 2.60682 0
M  V30 4929 H 469.599 2.38038 3.43115 0
M  V30 4930 N 470.036 -0.519951 1.48776 0
M  V30 4931 C 470.968 -1.63973 1.60142 0
M  V30 4932 C 471.981 -1.55404 0.485117 0
M  V30 4933 O 473.17 -1.61682 0.756391 0
M  V30 4934 C 470.27 -3.02676 1.52449 0
M  V30 4935 C 469.443 -3.36624 2.79291 0
M  V30 4936 C 468.502 -4.54652 2.64912 0
M  V30 4937 O 467.528 -4.57374 3.38818 0
M  V30 4938 N 468.73 -5.53432 1.75195 0
M  V30 4939 H 471.495 -1.54656 2.56713 0
M  V30 4940 H 469.056 -0.707439 1.45626 0
M  V30 4941 H 471.048 -3.79525 1.4051 0
M  V30 4942 H 469.618 -3.06018 0.638125 0
M  V30 4943 H 468.838 -2.48855 3.0572 0
M  V30 4944 H 470.126 -3.56094 3.6342 0
M  V30 4945 H 469.524 -5.54018 1.14371 0
M  V30 4946 H 468.081 -6.29459 1.69189 0
M  V30 4947 N 471.514 -1.37532 -0.769588 0
M  V30 4948 C 472.744 -1.35861 -1.55645 0
M  V30 4949 C 473.152 0.0574398 -1.89113 0
M  V30 4950 O 472.495 1.03021 -1.52093 0
M  V30 4951 C 472.557 -2.13431 -2.89288 0
M  V30 4952 C 472.221 -3.62378 -2.78444 0
M  V30 4953 C 473.218 -4.56215 -2.49326 0
M  V30 4954 C 470.903 -4.05529 -2.96398 0
M  V30 4955 C 472.897 -5.91181 -2.38294 0
M  V30 4956 C 470.584 -5.40579 -2.84987 0
M  V30 4957 C 471.582 -6.33218 -2.55975 0
M  V30 4958 O 471.27 -7.65787 -2.44594 0
M  V30 4959 H 471.002 -0.467001 -0.48876 0
M  V30 4960 H 473.556 -1.81505 -0.961515 0
M  V30 4961 H 471.786 -1.62481 -3.50909 0
M  V30 4962 H 473.475 -2.04368 -3.50697 0
M  V30 4963 H 474.241 -4.24187 -2.35139 0
M  V30 4964 H 470.12 -3.33781 -3.1798 0
M  V30 4965 H 473.664 -6.63457 -2.15571 0
M  V30 4966 H 469.561 -5.72209 -2.98743 0
M  V30 4967 H 470.329 -7.76132 -2.59927 0
M  V30 4968 N 472.992 0.995999 -1.22138 0
M  V30 4969 C 474.408 1.25917 -0.980667 0
M  V30 4970 C 474.608 1.98819 0.327604 0
M  V30 4971 O 473.664 2.29587 1.05101 0
M  V30 4972 C 474.977 2.07399 -2.17729 0
M  V30 4973 C 476.525 2.20594 -2.22052 0
M  V30 4974 C 477 3.05462 -3.41258 0
M  V30 4975 N 478.491 3.13049 -3.41401 0
M  V30 4976 C 479.226 3.78997 -4.30289 0
M  V30 4977 N 478.722 4.46899 -5.2939 0
M  V30 4978 N 480.515 3.75728 -4.18073 0
M  V30 4979 H 472.666 0.507158 -2.06256 0
M  V30 4980 H 474.929 0.28658 -0.903646 0
M  V30 4981 H 474.635 1.61191 -3.12586 0
M  V30 4982 H 474.509 3.08154 -2.17534 0
M  V30 4983 H 476.896 2.66017 -1.27745 0
M  V30 4984 H 476.977 1.1928 -2.26287 0
M  V30 4985 H 476.621 2.60739 -4.35864 0
M  V30 4986 H 476.551 4.06911 -3.34262 0
M  V30 4987 H 479.042 2.64721 -2.69688 0
M  V30 4988 H 479.355 4.94952 -5.935 0
M  V30 4989 H 477.7 4.45657 -5.33306 0
M  V30 4990 H 480.891 3.2184 -3.39907 0
M  V30 4991 H 481.064 4.26845 -4.87553 0
M  V30 4992 N 474.47 1.03057 1.19235 0
M  V30 4993 C 475.718 0.726581 1.88587 0
M  V30 4994 C 476.039 -0.747227 1.80115 0
M  V30 4995 O 475.309 -1.53849 1.21274 0
M  V30 4996 H 473.889 0.265768 0.698124 0
M  V30 4997 H 476.551 1.30516 1.44746 0
M  V30 4998 H 475.647 1.0224 2.94879 0
M  V30 4999 N 475.948 -1.35272 0.808662 0
M  V30 5000 C 476.858 -2.33546 0.222079 0
M  V30 5001 C 477.874 -1.6196 -0.636011 0
M  V30 5002 O 479.05 -1.93822 -0.547274 0
M  V30 5003 C 476.115 -3.41148 -0.61795 0
M  V30 5004 C 475.176 -4.28507 0.260875 0
M  V30 5005 C 474.409 -5.3097 -0.539156 0
M  V30 5006 O 474.632 -5.42123 -1.77367 0
M  V30 5007 O 473.566 -6.01858 0.0710526 0
M  V30 5008 H 477.392 -2.85515 1.03512 0
M  V30 5009 H 474.977 -1.38079 0.570495 0
M  V30 5010 H 476.859 -4.06889 -1.09634 0
M  V30 5011 H 475.534 -2.91447 -1.40855 0
M  V30 5012 H 474.441 -3.6574 0.786451 0
M  V30 5013 H 475.774 -4.81611 1.01547 0
M  V30 5014 N 477.426 -0.562348 -1.47226 0
M  V30 5015 C 478.672 -0.0402761 -2.0276 0
M  V30 5016 C 479.005 1.30823 -1.43523 0
M  V30 5017 O 478.28 1.85249 -0.592705 0
M  V30 5018 C 478.563 0.047311 -3.60069 0
M  V30 5019 C 478.416 -1.32865 -4.29729 0
M  V30 5020 C 479.735 0.758182 -4.3352 0
M  V30 5021 H 476.854 -0.0161105 -0.736824 0
M  V30 5022 H 479.496 -0.725628 -1.75598 0
M  V30 5023 H 477.646 0.630986 -3.83342 0
M  V30 5024 H 479.318 -1.95593 -4.17781 0
M  V30 5025 H 477.561 -1.90195 -3.89882 0
M  V30 5026 H 478.232 -1.22004 -5.38349 0
M  V30 5027 H 480.708 0.262546 -4.15271 0
M  V30 5028 H 479.584 0.78844 -5.43208 0
M  V30 5029 H 479.845 1.81537 -4.03109 0
M  V30 5030 N 478.904 1.54736 -0.299062 0
M  V30 5031 C 480.144 2.0201 0.31168 0
M  V30 5032 C 480.508 1.18281 1.5124 0
M  V30 5033 O 481.709 1.55243 2.19438 0
M  V30 5034 C 479.98 3.5123 0.661227 0
M  V30 5035 S 481.539 4.20467 1.2551 0
M  V30 5036 H 478.357 0.704523 0.0957517 0
M  V30 5037 H 480.959 1.90791 -0.426482 0
M  V30 5038 H 479.663 4.09804 -0.221171 0
M  V30 5039 H 479.194 3.66481 1.43023 0
M  V30 5040 H 481.209 4.26083 2.54298 0
M  V30 5041 N 480.382 0.0267497 1.57577 0
M  V30 5042 C 481.33 -0.973923 2.11229 0
M  V30 5043 C 482.324 -1.33849 1.03831 0
M  V30 5044 O 483.53 -1.321 1.22269 0
M  V30 5045 H 479.905 -0.331844 0.674821 0
M  V30 5046 H 481.876 -0.496092 2.94247 0
M  V30 5047 C 480.625 -2.24798 2.65257 0
M  V30 5048 H 479.948 -1.9762 3.47543 0
M  V30 5049 H 481.388 -2.93031 3.06445 0
M  V30 5050 C 479.847 -2.97611 1.57891 0
M  V30 5051 O 480.377 -3.89629 0.97735 0
M  V30 5052 N 478.583 -2.59905 1.29992 0
M  V30 5053 H 478.13 -1.85154 1.79097 0
M  V30 5054 H 478.088 -3.08932 0.583798 0
M  V30 5055 N 481.861 -1.55662 -0.24637 0
M  V30 5056 C 482.824 -1.89558 -1.28842 0
M  V30 5057 C 483.824 -0.772082 -1.41052 0
M  V30 5058 O 485.014 -1.04007 -1.39743 0
M  V30 5059 C 482.146 -2.12449 -2.66605 0
M  V30 5060 H 483.339 -2.82735 -1.00004 0
M  V30 5061 H 480.892 -1.48562 -0.485684 0
M  V30 5062 H 481.627 -1.21742 -3.00582 0
M  V30 5063 H 481.412 -2.94273 -2.59125 0
M  V30 5064 H 482.902 -2.39854 -3.41847 0
M  V30 5065 N 483.339 0.512053 -1.4905 0
M  V30 5066 C 484.585 1.26874 -1.58212 0
M  V30 5067 C 484.918 1.9241 -0.263073 0
M  V30 5068 O 484.193 1.80181 0.732476 0
M  V30 5069 C 484.476 2.34428 -2.73341 0
M  V30 5070 C 484.329 1.73466 -4.15006 0
M  V30 5071 C 485.648 3.36073 -2.84154 0
M  V30 5072 H 482.767 0.459924 -0.575881 0
M  V30 5073 H 485.409 0.568587 -1.81293 0
M  V30 5074 H 483.559 2.94146 -2.53792 0
M  V30 5075 H 485.231 1.17661 -4.46042 0
M  V30 5076 H 483.474 1.03921 -4.21168 0
M  V30 5077 H 484.145 2.51426 -4.91415 0
M  V30 5078 H 486.621 2.86332 -3.01916 0
M  V30 5079 H 485.497 4.08703 -3.66406 0
M  V30 5080 H 485.758 3.97725 -1.93048 0
M  V30 5081 N 484.817 1.37938 0.762283 0
M  V30 5082 C 485.747 1.37176 1.88958 0
M  V30 5083 C 486.728 0.238945 1.68413 0
M  V30 5084 O 487.913 0.440726 1.89133 0
M  V30 5085 C 485.043 1.18742 3.2637 0
M  V30 5086 C 483.997 2.29136 3.61498 0
M  V30 5087 C 483.323 1.95816 4.97554 0
M  V30 5088 C 484.623 3.71363 3.6727 0
M  V30 5089 H 486.317 2.31509 1.89853 0
M  V30 5090 H 483.863 1.11438 0.912005 0
M  V30 5091 H 485.816 1.16837 4.04879 0
M  V30 5092 H 484.54 0.208683 3.25933 0
M  V30 5093 H 483.199 2.30213 2.85303 0
M  V30 5094 H 482.847 0.964475 4.93667 0
M  V30 5095 H 482.547 2.69745 5.22026 0
M  V30 5096 H 484.071 1.95513 5.78452 0
M  V30 5097 H 485.485 3.72364 4.35911 0
M  V30 5098 H 483.882 4.44425 4.03245 0
M  V30 5099 H 484.952 4.04305 2.67704 0
M  V30 5100 N 486.295 -0.989507 1.22664 0
M  V30 5101 C 487.258 -2.06183 1.00106 0
M  V30 5102 C 488.258 -1.60765 -0.0337726 0
M  V30 5103 O 489.448 -1.72989 0.205072 0
M  V30 5104 C 486.58 -3.37021 0.51279 0
M  V30 5105 H 487.773 -2.27629 1.95256 0
M  V30 5106 H 485.326 -1.16158 1.0458 0
M  V30 5107 H 486.061 -3.21261 -0.442917 0
M  V30 5108 H 485.846 -3.71323 1.25942 0
M  V30 5109 H 487.336 -4.1591 0.375315 0
M  V30 5110 N 487.773 -1.03688 -1.18687 0
M  V30 5111 C 488.72 -0.624624 -2.22187 0
M  V30 5112 C 489.69 0.365636 -1.62026 0
M  V30 5113 O 490.875 0.260481 -1.89014 0
M  V30 5114 C 488.015 0.0101738 -3.45099 0
M  V30 5115 C 487.128 -1.02709 -4.19613 0
M  V30 5116 C 486.263 -0.361213 -5.2997 0
M  V30 5117 C 485.302 -1.38384 -5.96252 0
M  V30 5118 N 484.439 -0.743196 -6.98155 0
M  V30 5119 H 489.279 -1.51176 -2.56807 0
M  V30 5120 H 486.816 -0.75636 -1.26165 0
M  V30 5121 H 488.774 0.395528 -4.15321 0
M  V30 5122 H 487.404 0.860848 -3.1111 0
M  V30 5123 H 486.456 -1.53043 -3.48256 0
M  V30 5124 H 487.768 -1.80398 -4.65036 0
M  V30 5125 H 486.922 0.0785537 -6.06649 0
M  V30 5126 H 485.661 0.447799 -4.8564 0
M  V30 5127 H 484.666 -1.83378 -5.18317 0
M  V30 5128 H 485.891 -2.19448 -6.42666 0
M  V30 5129 H 483.837 0.0455789 -6.55984 0
M  V30 5130 H 483.754 -1.45784 -7.41811 0
M  V30 5131 H 485.022 -0.327698 -7.78811 0
M  V30 5132 N 489.251 1.34841 -0.815825 0
M  V30 5133 C 490.528 1.92908 -0.323416 0
M  V30 5134 C 490.908 1.74479 1.18828 0
M  V30 5135 O 490.256 1.11928 1.99209 0
M  V30 5136 C 490.466 3.40957 -0.744952 0
M  V30 5137 C 491.814 4.18107 -0.739716 0
M  V30 5138 O 492.838 3.49511 -0.68708 0
M  V30 5139 O 491.697 5.40517 -0.806456 0
M  V30 5140 H 488.791 0.822436 -0.0867646 0
M  V30 5141 H 491.337 1.4386 -0.90014 0
M  V30 5142 H 490.109 3.4814 -1.78646 0
M  V30 5143 H 489.732 3.97341 -0.143535 0
M  V30 5144 N 490.729 0.570148 1.46925 0
M  V30 5145 C 491.692 -0.159933 2.28641 0
M  V30 5146 C 492.692 -0.830638 1.37685 0
M  V30 5147 O 493.882 -0.684516 1.60187 0
M  V30 5148 C 491.014 -1.2354 3.17727 0
M  V30 5149 H 492.207 0.558035 2.94662 0
M  V30 5150 H 489.76 0.327603 1.52828 0
M  V30 5151 H 490.495 -1.98535 2.56426 0
M  V30 5152 H 490.28 -0.759125 3.84681 0
M  V30 5153 H 491.77 -1.74782 3.79264 0
M  V30 5154 N 492.207 -1.54576 0.307264 0
M  V30 5155 C 493.137 -2.26708 -0.55907 0
M  V30 5156 C 494.118 -1.26893 -1.1328 0
M  V30 5157 O 495.303 -1.55677 -1.16097 0
M  V30 5158 C 492.433 -3.01259 -1.72801 0
M  V30 5159 C 491.387 -4.08275 -1.28435 0
M  V30 5160 C 490.713 -4.70575 -2.53895 0
M  V30 5161 C 492.013 -5.2068 -0.411038 0
M  V30 5162 H 493.707 -2.9937 0.042576 0
M  V30 5163 H 491.253 -1.43983 0.0219173 0
M  V30 5164 H 493.206 -3.50444 -2.34023 0
M  V30 5165 H 491.93 -2.26187 -2.356 0
M  V30 5166 H 490.589 -3.59949 -0.695161 0
M  V30 5167 H 490.237 -3.92136 -3.15021 0
M  V30 5168 H 489.937 -5.42854 -2.24908 0
M  V30 5169 H 491.461 -5.22527 -3.15908 0
M  V30 5170 H 492.875 -5.65721 -0.929097 0
M  V30 5171 H 491.272 -5.99716 -0.214664 0
M  V30 5172 H 492.342 -4.81629 0.562287 0
M  V30 5173 N 493.685 -0.035106 -1.57561 0
M  V30 5174 C 494.931 0.64318 -1.92331 0
M  V30 5175 C 495.264 1.71434 -0.912368 0
M  V30 5176 O 494.539 1.94395 0.0640303 0
M  V30 5177 C 494.822 1.25411 -3.37556 0
M  V30 5178 C 494.675 0.192109 -4.4939 0
M  V30 5179 C 495.994 2.17041 -3.82859 0
M  V30 5180 H 493.113 0.232341 -0.699419 0
M  V30 5181 H 495.755 -0.0935889 -1.89769 0
M  V30 5182 H 493.905 1.88205 -3.39869 0
M  V30 5183 H 495.577 -0.438849 -4.59208 0
M  V30 5184 H 493.82 -0.481725 -4.31117 0
M  V30 5185 H 494.491 0.659292 -5.48049 0
M  V30 5186 H 496.967 1.64228 -3.8232 0
M  V30 5187 H 495.843 2.56738 -4.85157 0
M  V30 5188 H 496.104 3.06401 -3.18702 0
M  V30 5189 N 495.163 1.55791 0.238111 0
M  V30 5190 C 496.41 1.78033 0.964907 0
M  V30 5191 C 496.738 0.600984 1.84982 0
M  V30 5192 O 495.993 -0.41536 1.91241 0
M  V30 5193 C 496.292 3.05869 1.84875 0
M  V30 5194 C 495.958 4.36808 1.11846 0
M  V30 5195 C 494.62 4.72388 0.916662 0
M  V30 5196 C 496.972 5.17717 0.60151 0
M  V30 5197 C 494.3 5.86406 0.185756 0
M  V30 5198 C 496.652 6.32494 -0.115972 0
M  V30 5199 C 495.316 6.66688 -0.329168 0
M  V30 5200 H 494.586 0.651469 0.353085 0
M  V30 5201 H 497.233 1.90061 0.234318 0
M  V30 5202 H 495.538 2.88891 2.64668 0
M  V30 5203 H 497.235 3.20278 2.41294 0
M  V30 5204 H 493.825 4.08862 1.28569 0
M  V30 5205 H 498.009 4.90678 0.744932 0
M  V30 5206 H 493.265 6.11399 0.0101886 0
M  V30 5207 H 497.439 6.94425 -0.524127 0
M  V30 5208 H 495.066 7.54884 -0.897474 0
M  V30 5209 N 496.642 -0.504142 1.49319 0
M  V30 5210 C 497.572 -1.61473 1.68667 0
M  V30 5211 C 498.553 -1.61455 0.535378 0
M  V30 5212 O 499.738 -1.78245 0.770868 0
M  V30 5213 C 496.868 -2.99971 1.75028 0
M  V30 5214 C 495.822 -3.14854 2.89916 0
M  V30 5215 C 495.148 -4.54671 2.81387 0
M  V30 5216 C 496.448 -2.95176 4.30893 0
M  V30 5217 H 498.142 -1.45535 2.61648 0
M  V30 5218 H 495.688 -0.698711 1.25913 0
M  V30 5219 H 497.641 -3.77562 1.8715 0
M  V30 5220 H 496.365 -3.1699 0.786441 0
M  V30 5221 H 495.024 -2.39687 2.77391 0
M  V30 5222 H 494.672 -4.68562 1.82917 0
M  V30 5223 H 494.372 -4.6557 3.58494 0
M  V30 5224 H 495.896 -5.34327 2.95512 0
M  V30 5225 H 497.31 -3.62538 4.44116 0
M  V30 5226 H 495.707 -3.17549 5.09198 0
M  V30 5227 H 496.777 -1.91332 4.45556 0
M  V30 5228 N 498.12 -1.38341 -0.754957 0
M  V30 5229 C 499.068 -1.35573 -1.89005 0
M  V30 5230 C 500.062 -0.241824 -1.67665 0
M  V30 5231 O 501.268 -0.410785 -1.7525 0
M  V30 5232 H 497.643 -0.422898 -0.621821 0
M  V30 5233 H 499.614 -2.31359 -1.88455 0
M  V30 5234 C 498.363 -1.19631 -3.26471 0
M  V30 5235 H 497.686 -2.04605 -3.43477 0
M  V30 5236 H 499.126 -1.21748 -4.06144 0
M  V30 5237 C 497.585 0.0968705 -3.36761 0
M  V30 5238 O 498.115 1.07439 -3.87066 0
M  V30 5239 N 496.321 0.153242 -2.90196 0
M  V30 5240 H 495.868 -0.642908 -2.49448 0
M  V30 5241 H 495.826 1.01807 -2.9746 0
M  V30 5242 N 499.598 0.982988 -1.23187 0
M  V30 5243 C 500.826 1.75921 -1.08901 0
M  V30 5244 C 501.241 1.85341 0.359719 0
M  V30 5245 O 500.598 1.33072 1.24892 0
M  V30 5246 C 500.649 3.18742 -1.70545 0
M  V30 5247 O 500.37 3.09814 -3.09753 0
M  V30 5248 C 501.871 4.1277 -1.61667 0
M  V30 5249 H 499.091 0.552166 -0.381252 0
M  V30 5250 H 501.635 1.23516 -1.62985 0
M  V30 5251 H 499.79 3.68182 -1.20501 0
M  V30 5252 H 500.204 3.99703 -3.39614 0
M  V30 5253 H 501.678 5.10697 -2.09506 0
M  V30 5254 H 502.155 4.3542 -0.575009 0
M  V30 5255 H 502.761 3.69232 -2.11064 0
M  V30 5256 N 501.076 1.04316 1.18135 0
M  V30 5257 C 502.301 0.768047 1.92655 0
M  V30 5258 C 502.726 -0.66904 1.758 0
M  V30 5259 O 502.084 -1.46372 1.06981 0
M  V30 5260 C 502.132 1.14239 3.42026 0
M  V30 5261 O 501.236 0.269333 4.1152 0
M  V30 5262 H 500.577 0.282436 0.600937 0
M  V30 5263 H 503.107 1.39367 1.49793 0
M  V30 5264 H 503.117 1.10538 3.92741 0
M  V30 5265 H 501.792 2.18928 3.53615 0
M  V30 5266 H 500.369 0.366175 3.71098 0
M  V30 5267 N 502.554 -1.34406 0.822964 0
M  V30 5268 C 503.784 -2.02214 0.423424 0
M  V30 5269 C 504.192 -1.62124 -0.975322 0
M  V30 5270 O 503.535 -0.822452 -1.6426 0
M  V30 5271 C 503.597 -3.56721 0.446107 0
M  V30 5272 C 503.261 -4.20136 1.79819 0
M  V30 5273 C 504.258 -4.4065 2.75904 0
M  V30 5274 C 501.943 -4.56906 2.08669 0
M  V30 5275 C 503.937 -4.9706 3.99012 0
M  V30 5276 C 501.624 -5.13026 3.32036 0
M  V30 5277 C 502.622 -5.33047 4.27024 0
M  V30 5278 O 502.31 -5.87979 5.48211 0
M  V30 5279 H 502.042 -0.654748 0.168169 0
M  V30 5280 H 504.596 -1.72659 1.11257 0
M  V30 5281 H 502.826 -3.85537 -0.299734 0
M  V30 5282 H 504.515 -4.05845 0.0666114 0
M  V30 5283 H 505.281 -4.12607 2.54912 0
M  V30 5284 H 501.16 -4.40626 1.35535 0
M  V30 5285 H 504.704 -5.12603 4.73164 0
M  V30 5286 H 500.601 -5.40498 3.52891 0
M  V30 5287 H 501.369 -6.06413 5.49732 0
M  V30 5288 N 504.032 -0.577932 -1.46621 0
M  V30 5289 C 504.995 0.147805 -2.28723 0
M  V30 5290 C 505.995 0.823325 -1.38123 0
M  V30 5291 O 507.185 0.676011 -1.60548 0
M  V30 5292 C 504.317 1.21853 -3.18378 0
M  V30 5293 H 505.51 -0.573654 -2.94362 0
M  V30 5294 H 503.063 -0.335703 -1.52652 0
M  V30 5295 H 503.798 1.97173 -2.57475 0
M  V30 5296 H 503.583 0.738714 -3.85078 0
M  V30 5297 H 505.073 1.72768 -3.80186 0
M  V30 5298 N 505.51 1.54411 -0.315457 0
M  V30 5299 C 506.787 1.92562 0.343398 0
M  V30 5300 C 507.167 1.24423 1.70535 0
M  V30 5301 O 506.515 0.385051 2.25232 0
M  V30 5302 C 506.725 3.46168 0.443687 0
M  V30 5303 C 508.073 4.18659 0.707783 0
M  V30 5304 O 509.097 3.52281 0.52693 0
M  V30 5305 O 507.956 5.36198 1.05612 0
M  V30 5306 H 505.05 0.80379 0.194552 0
M  V30 5307 H 507.596 1.65738 -0.364577 0
M  V30 5308 H 506.368 3.8792 -0.513172 0
M  V30 5309 H 505.991 3.79073 1.19956 0
M  V30 5310 N 506.988 0.0434614 1.5754 0
M  V30 5311 C 508.399 -0.493343 1.80064 0
M  V30 5312 C 508.75 -1.71388 0.955023 0
M  V30 5313 O 507.875 -2.15736 0.169434 0
M  V30 5314 C 508.47 -0.90179 3.26578 0
M  V30 5315 C 507.029 -1.38362 3.50047 0
M  V30 5316 C 506.176 -0.355129 2.75017 0
M  V30 5317 H 509.127 0.2694 1.56397 0
M  V30 5318 H 509.148 -1.76523 3.37075 0
M  V30 5319 H 508.66 -0.013271 3.88098 0
M  V30 5320 H 506.761 -2.29159 2.93798 0
M  V30 5321 H 506.874 -1.3811 4.58762 0
M  V30 5322 H 505.238 -0.826348 2.40922 0
M  V30 5323 H 506.021 0.525172 3.39259 0
M  V30 5324 N 508.466 -1.55915 -0.229846 0
M  V30 5325 C 509.376 -1.94891 -1.30593 0
M  V30 5326 C 510.392 -0.851604 -1.51736 0
M  V30 5327 O 511.568 -1.15447 -1.65027 0
M  V30 5328 C 508.633 -2.25052 -2.63728 0
M  V30 5329 C 507.694 -3.48306 -2.5096 0
M  V30 5330 C 506.927 -3.77019 -3.77747 0
M  V30 5331 O 507.15 -3.07534 -4.80395 0
M  V30 5332 O 506.084 -4.70523 -3.75356 0
M  V30 5333 H 509.91 -2.86581 -1.00525 0
M  V30 5334 H 507.495 -1.43017 -0.432025 0
M  V30 5335 H 509.377 -2.45682 -3.42372 0
M  V30 5336 H 508.052 -1.36538 -2.93495 0
M  V30 5337 H 506.959 -3.32964 -1.70546 0
M  V30 5338 H 508.292 -4.37177 -2.26136 0
M  V30 5339 N 509.944 0.496216 -1.49584 0
M  V30 5340 C 510.854 1.62352 -1.69349 0
M  V30 5341 C 511.87 1.64184 -0.576147 0
M  V30 5342 O 513.046 1.82517 -0.85144 0
M  V30 5343 C 510.111 2.98698 -1.76013 0
M  V30 5344 C 509.172 3.07454 -2.99617 0
M  V30 5345 C 508.405 4.37296 -3.05953 0
M  V30 5346 O 508.628 5.2637 -2.19752 0
M  V30 5347 O 507.562 4.51124 -3.9846 0
M  V30 5348 H 511.388 1.48606 -2.64859 0
M  V30 5349 H 508.973 0.673022 -1.33382 0
M  V30 5350 H 510.855 3.79725 -1.82721 0
M  V30 5351 H 509.53 3.12696 -0.836828 0
M  V30 5352 H 508.437 2.25597 -2.98424 0
M  V30 5353 H 509.77 2.98385 -3.91443 0
M  V30 5354 N 511.423 1.38739 0.74761 0
M  V30 5355 C 512.386 1.36241 1.84312 0
M  V30 5356 C 513.386 0.261811 1.58654 0
M  V30 5357 O 514.576 0.519031 1.66288 0
M  V30 5358 C 511.708 1.12253 3.21888 0
M  V30 5359 H 512.901 2.33712 1.87933 0
M  V30 5360 H 510.454 1.2412 0.949946 0
M  V30 5361 H 511.189 0.154133 3.23934 0
M  V30 5362 H 510.974 1.91943 3.41907 0
M  V30 5363 H 512.464 1.13215 4.0196 0
M  V30 5364 N 512.901 -0.976442 1.23707 0
M  V30 5365 C 513.833 -2.07212 0.979574 0
M  V30 5366 C 514.846 -1.6273 -0.0478528 0
M  V30 5367 O 516.035 -1.77506 0.18815 0
M  V30 5368 C 513.135 -3.35835 0.45479 0
M  V30 5369 C 512.308 -4.09268 1.54331 0
M  V30 5370 C 511.367 -5.16166 1.02271 0
M  V30 5371 O 510.393 -5.42827 1.71254 0
M  V30 5372 N 511.595 -5.80313 -0.147419 0
M  V30 5373 H 514.36 -2.29878 1.92292 0
M  V30 5374 H 511.921 -1.14343 1.14618 0
M  V30 5375 H 513.913 -4.04597 0.0914631 0
M  V30 5376 H 512.483 -3.10106 -0.394068 0
M  V30 5377 H 511.703 -3.34906 2.07923 0
M  V30 5378 H 512.991 -4.55095 2.27522 0
M  V30 5379 H 512.389 -5.61043 -0.724353 0
M  V30 5380 H 510.946 -6.50231 -0.451972 0
M  V30 5381 N 514.379 -1.04941 -1.1758 0
M  V30 5382 C 515.289 -0.658826 -2.25159 0
M  V30 5383 C 516.305 0.318941 -1.71052 0
M  V30 5384 O 517.481 0.171669 -2.00667 0
M  V30 5385 C 514.546 -0.0369522 -3.4668 0
M  V30 5386 C 513.607 -1.06484 -4.15884 0
M  V30 5387 C 512.84 -0.472551 -5.31604 0
M  V30 5388 O 513.063 0.718736 -5.65854 0
M  V30 5389 O 511.997 -1.20557 -5.89703 0
M  V30 5390 H 515.823 -1.55533 -2.60851 0
M  V30 5391 H 513.408 -0.820819 -1.24832 0
M  V30 5392 H 515.29 0.308784 -4.20267 0
M  V30 5393 H 513.965 0.833238 -3.12792 0
M  V30 5394 H 512.872 -1.46253 -3.44327 0
M  V30 5395 H 514.205 -1.9061 -4.53794 0
M  V30 5396 N 515.857 1.33968 -0.830081 0
M  V30 5397 C 516.787 2.31911 -0.271911 0
M  V30 5398 C 517.768 1.58571 0.61556 0
M  V30 5399 O 518.953 1.86514 0.540946 0
M  V30 5400 C 516.083 3.42737 0.561146 0
M  V30 5401 C 515.037 4.27383 -0.229789 0
M  V30 5402 C 514.363 5.29742 0.726463 0
M  V30 5403 C 515.663 5.02 -1.44197 0
M  V30 5404 H 517.357 2.78844 -1.09025 0
M  V30 5405 H 514.903 1.34061 -0.52571 0
M  V30 5406 H 516.856 4.10276 0.961867 0
M  V30 5407 H 515.58 2.94471 1.41261 0
M  V30 5408 H 514.239 3.61456 -0.611964 0
M  V30 5409 H 513.887 4.77736 1.57408 0
M  V30 5410 H 513.587 5.87255 0.20142 0
M  V30 5411 H 515.111 6.00149 1.12489 0
M  V30 5412 H 516.525 5.62355 -1.11488 0
M  V30 5413 H 514.922 5.69122 -1.90317 0
M  V30 5414 H 515.992 4.31281 -2.2164 0
M  V30 5415 N 517.335 0.585699 1.46312 0
M  V30 5416 C 518.265 -0.133556 2.33118 0
M  V30 5417 C 519.246 -0.880707 1.45525 0
M  V30 5418 O 520.431 -0.855579 1.74337 0
M  V30 5419 C 517.561 -1.14585 3.27853 0
M  V30 5420 C 516.515 -0.513341 4.2491 0
M  V30 5421 C 515.841 -1.63231 5.09175 0
M  V30 5422 C 517.141 0.551413 5.19381 0
M  V30 5423 H 518.835 0.59121 2.93505 0
M  V30 5424 H 516.381 0.285761 1.41136 0
M  V30 5425 H 518.334 -1.65741 3.87438 0
M  V30 5426 H 517.058 -1.90093 2.65579 0
M  V30 5427 H 515.717 -0.0228349 3.66593 0
M  V30 5428 H 515.365 -2.37713 4.43285 0
M  V30 5429 H 515.065 -1.21473 5.74907 0
M  V30 5430 H 516.589 -2.14658 5.71624 0
M  V30 5431 H 518.003 0.124804 5.73164 0
M  V30 5432 H 516.4 0.889486 5.93471 0
M  V30 5433 H 517.47 1.43655 4.63132 0
M  V30 5434 N 518.813 -1.54241 0.323641 0
M  V30 5435 C 520.059 -2.00867 -0.279323 0
M  V30 5436 C 520.392 -1.21146 -1.5178 0
M  V30 5437 O 519.667 -0.29378 -1.92269 0
M  V30 5438 C 519.95 -3.54837 -0.613387 0
M  V30 5439 C 519.803 -4.45284 0.635803 0
M  V30 5440 C 521.122 -4.16186 -1.43099 0
M  V30 5441 H 518.241 -0.730177 -0.100049 0
M  V30 5442 H 520.883 -1.84829 0.440235 0
M  V30 5443 H 519.033 -3.68634 -1.22641 0
M  V30 5444 H 520.705 -4.43357 1.27406 0
M  V30 5445 H 518.948 -4.14956 1.26466 0
M  V30 5446 H 519.619 -5.5084 0.357597 0
M  V30 5447 H 522.095 -4.05964 -0.912814 0
M  V30 5448 H 520.971 -5.24031 -1.6335 0
M  V30 5449 H 521.232 -3.69516 -2.42715 0
M  V30 5450 N 520.291 -0.0518155 -1.57515 0
M  V30 5451 C 521.241 0.932017 -2.0808 0
M  V30 5452 C 522.225 1.27141 -0.986098 0
M  V30 5453 O 523.417 1.25373 -1.24943 0
M  V30 5454 C 520.546 2.20665 -2.62986 0
M  V30 5455 C 519.632 1.89462 -3.79427 0
M  V30 5456 N 520.023 1.28621 -4.89173 0
M  V30 5457 C 518.321 2.19327 -3.88345 0
M  V30 5458 C 519.022 1.15062 -5.70207 0
M  V30 5459 N 517.998 1.65372 -5.17835 0
M  V30 5460 H 521.8 0.456964 -2.90326 0
M  V30 5461 H 519.314 0.152619 -1.61681 0
M  V30 5462 H 521.311 2.92044 -2.97516 0
M  V30 5463 H 519.971 2.68776 -1.8218 0
M  V30 5464 H 520.982 0.958341 -5.08956 0
M  V30 5465 H 517.659 2.69955 -3.18482 0
M  V30 5466 H 519.049 0.678243 -6.68468 0
M  V30 5467 N 521.769 1.56035 0.221574 0
M  V30 5468 C 522.997 1.8313 0.962864 0
M  V30 5469 C 523.412 0.630934 1.77946 0
M  V30 5470 O 522.769 -0.400519 1.78051 0
M  V30 5471 C 522.82 3.08742 1.88045 0
M  V30 5472 O 522.541 4.24147 1.09686 0
M  V30 5473 C 524.042 3.48824 2.73563 0
M  V30 5474 H 521.262 0.608775 0.282194 0
M  V30 5475 H 523.806 2.03124 0.23681 0
M  V30 5476 H 521.961 2.90723 2.56045 0
M  V30 5477 H 522.375 4.95505 1.71974 0
M  V30 5478 H 523.849 4.39752 3.3365 0
M  V30 5479 H 524.326 2.70575 3.45956 0
M  V30 5480 H 524.932 3.69282 2.10976 0
M  V30 5481 N 523.247 -0.488276 1.49845 0
M  V30 5482 C 524.21 -1.57069 1.66919 0
M  V30 5483 C 525.21 -1.51445 0.540479 0
M  V30 5484 O 526.4 -1.5437 0.807188 0
M  V30 5485 C 523.532 -2.96718 1.67844 0
M  V30 5486 H 524.725 -1.43254 2.63474 0
M  V30 5487 H 522.278 -0.713435 1.39068 0
M  V30 5488 H 523.013 -3.15996 0.7292 0
M  V30 5489 H 522.798 -3.02208 2.49826 0
M  V30 5490 H 524.288 -3.75335 1.83066 0
M  V30 5491 N 524.725 -1.39134 -0.740242 0
M  V30 5492 C 525.971 -1.37278 -1.50088 0
M  V30 5493 C 526.326 0.0329967 -1.92372 0
M  V30 5494 O 525.619 0.998447 -1.63529 0
M  V30 5495 C 525.813 -2.27457 -2.75678 0
M  V30 5496 C 525.642 -3.76662 -2.45674 0
M  V30 5497 C 524.412 -4.45617 -2.38229 0
M  V30 5498 C 526.61 -4.6877 -2.11563 0
M  V30 5499 N 524.592 -5.80187 -2.00641 0
M  V30 5500 C 525.963 -5.91951 -1.84376 0
M  V30 5501 C 528.018 -4.56843 -1.97987 0
M  V30 5502 C 526.721 -7.04538 -1.4498 0
M  V30 5503 C 528.747 -5.69347 -1.59994 0
M  V30 5504 C 528.109 -6.91597 -1.33687 0
M  V30 5505 H 524.208 -0.557611 -0.548265 0
M  V30 5506 H 526.792 -1.74638 -0.860784 0
M  V30 5507 H 524.963 -1.92263 -3.37475 0
M  V30 5508 H 526.695 -2.16631 -3.41838 0
M  V30 5509 H 523.45 -3.98993 -2.5515 0
M  V30 5510 H 523.874 -6.51387 -1.84454 0
M  V30 5511 H 528.516 -3.62868 -2.16995 0
M  V30 5512 H 526.234 -7.98419 -1.24712 0
M  V30 5513 H 529.82 -5.62104 -1.50102 0
M  V30 5514 H 528.7 -7.77176 -1.04728 0
M  V30 5515 N 526.204 0.969867 -1.24223 0
M  V30 5516 C 527.152 2.08535 -1.03034 0
M  V30 5517 C 528.146 1.69366 0.0340379 0
M  V30 5518 O 529.352 1.79597 -0.12034 0
M  V30 5519 H 525.727 0.682313 -0.316154 0
M  V30 5520 H 527.698 2.23569 -1.97635 0
M  V30 5521 C 526.447 3.4158 -0.649509 0
M  V30 5522 H 525.77 3.72177 -1.46028 0
M  V30 5523 H 527.21 4.20536 -0.540841 0
M  V30 5524 C 525.669 3.30703 0.643194 0
M  V30 5525 O 526.199 3.64443 1.68951 0
M  V30 5526 N 524.405 2.83841 0.623095 0
M  V30 5527 H 523.952 2.56583 -0.228719 0
M  V30 5528 H 523.91 2.76946 1.48823 0
M  V30 5529 N 527.682 1.05563 1.17022 0
M  V30 5530 C 528.592 0.670758 2.24807 0
M  V30 5531 C 529.608 -0.309865 1.71219 0
M  V30 5532 O 530.784 -0.161025 2.00755 0
M  V30 5533 C 527.849 0.055337 3.46656 0
M  V30 5534 C 526.91 1.08688 4.15314 0
M  V30 5535 C 526.143 0.500736 5.31346 0
M  V30 5536 O 526.366 -0.688718 5.66227 0
M  V30 5537 O 525.3 1.23683 5.89055 0
M  V30 5538 H 529.126 1.56914 2.60023 0
M  V30 5539 H 526.711 0.827428 1.24395 0
M  V30 5540 H 528.593 -0.286492 4.20425 0
M  V30 5541 H 527.268 -0.816638 3.13229 0
M  V30 5542 H 526.175 1.48077 3.43546 0
M  V30 5543 H 527.508 1.93014 4.52777 0
M  V30 5544 N 529.16 -1.33526 0.837174 0
M  V30 5545 C 530.09 -2.31764 0.284206 0
M  V30 5546 C 531.071 -1.58896 -0.607142 0
M  V30 5547 O 532.256 -1.86798 -0.531047 0
M  V30 5548 C 529.386 -3.43029 -0.542962 0
M  V30 5549 C 528.34 -4.27255 0.252451 0
M  V30 5550 C 527.666 -5.3012 -0.69836 0
M  V30 5551 C 528.966 -5.01229 1.46858 0
M  V30 5552 H 530.66 -2.78262 1.10502 0
M  V30 5553 H 528.206 -1.3378 0.532812 0
M  V30 5554 H 530.159 -4.1078 -0.940096 0
M  V30 5555 H 528.883 -2.95216 -1.39697 0
M  V30 5556 H 527.542 -3.61127 0.631124 0
M  V30 5557 H 527.19 -4.78564 -1.54872 0
M  V30 5558 H 526.89 -5.87353 -0.170274 0
M  V30 5559 H 528.414 -6.00737 -1.09305 0
M  V30 5560 H 529.828 -5.61756 1.14469 0
M  V30 5561 H 528.225 -5.68104 1.93333 0
M  V30 5562 H 529.295 -4.301 2.23924 0
M  V30 5563 N 530.638 -0.59345 -1.46 0
M  V30 5564 C 531.585 0.133618 -2.30413 0
M  V30 5565 C 532.555 0.873736 -1.41262 0
M  V30 5566 O 533.74 0.862279 -1.70204 0
M  V30 5567 C 530.88 1.13434 -3.25924 0
M  V30 5568 C 529.993 0.39656 -4.30176 0
M  V30 5569 C 529.128 1.38575 -5.12806 0
M  V30 5570 C 528.167 0.634984 -6.08797 0
M  V30 5571 N 527.304 1.57276 -6.84258 0
M  V30 5572 H 532.144 -0.592252 -2.92055 0
M  V30 5573 H 529.681 -0.303874 -1.43927 0
M  V30 5574 H 531.639 1.72752 -3.79753 0
M  V30 5575 H 530.269 1.82779 -2.66067 0
M  V30 5576 H 529.321 -0.311861 -3.79119 0
M  V30 5577 H 530.633 -0.189869 -4.98438 0
M  V30 5578 H 529.787 2.05141 -5.70966 0
M  V30 5579 H 528.526 2.00611 -4.44529 0
M  V30 5580 H 527.531 -0.0443925 -5.49782 0
M  V30 5581 H 528.756 0.0198678 -6.79097 0
M  V30 5582 H 526.702 2.18103 -6.18682 0
M  V30 5583 H 526.619 1.03941 -7.48821 0
M  V30 5584 H 527.887 2.22844 -7.46968 0
M  V30 5585 N 532.116 1.54067 -0.331816 0
M  V30 5586 C 533.362 2.01012 0.268667 0
M  V30 5587 C 533.695 1.2195 1.51136 0
M  V30 5588 O 532.97 0.303972 1.9211 0
M  V30 5589 C 533.253 3.55158 0.59456 0
M  V30 5590 C 533.106 4.4494 -0.659409 0
M  V30 5591 C 534.425 4.16939 1.4089 0
M  V30 5592 H 531.544 0.730698 0.0961756 0
M  V30 5593 H 534.186 1.84593 -0.450031 0
M  V30 5594 H 532.336 3.6928 1.20685 0
M  V30 5595 H 534.008 4.42675 -1.29756 0
M  V30 5596 H 532.251 4.1428 -1.28665 0
M  V30 5597 H 532.922 5.50643 -0.386804 0
M  V30 5598 H 535.398 4.06443 0.891272 0
M  V30 5599 H 534.274 5.24889 1.60569 0
M  V30 5600 H 534.535 3.70798 2.40752 0
M  V30 5601 N 533.594 0.0601682 1.57485 0
M  V30 5602 C 534.84 -0.612501 1.93329 0
M  V30 5603 C 535.173 -1.6996 0.939526 0
M  V30 5604 O 534.448 -1.94472 -0.0330957 0
M  V30 5605 C 534.731 -1.20025 3.39508 0
M  V30 5606 C 534.584 -0.12059 4.49638 0
M  V30 5607 C 535.903 -2.10923 3.86264 0
M  V30 5608 H 533.022 -0.221185 0.703027 0
M  V30 5609 H 535.664 0.123768 1.89596 0
M  V30 5610 H 533.814 -1.82774 3.42821 0
M  V30 5611 H 535.486 0.51185 4.58452 0
M  V30 5612 H 533.729 0.550251 4.30296 0
M  V30 5613 H 534.4 -0.572019 5.49028 0
M  V30 5614 H 536.876 -1.58124 3.84884 0
M  V30 5615 H 535.752 -2.48987 4.8918 0
M  V30 5616 H 536.013 -3.01292 3.23536 0
M  V30 5617 N 535.072 -1.5615 -0.213296 0
M  V30 5618 C 536.297 -1.83986 -0.957282 0
M  V30 5619 C 536.722 -0.641526 -1.76822 0
M  V30 5620 O 536.08 0.409722 -1.7661 0
M  V30 5621 C 536.128 -3.09889 -1.84393 0
M  V30 5622 O 535.232 -2.89163 -2.94038 0
M  V30 5623 H 534.573 -0.606357 -0.270605 0
M  V30 5624 H 537.103 -2.03369 -0.224111 0
M  V30 5625 H 537.113 -3.40209 -2.25215 0
M  V30 5626 H 535.788 -3.96735 -1.24795 0
M  V30 5627 H 534.365 -2.70097 -2.57103 0
M  V30 5628 N 536.55 0.480323 -1.50102 0
M  V30 5629 C 537.961 1.06142 -1.53593 0
M  V30 5630 C 538.312 1.93335 -0.334055 0
M  V30 5631 O 537.437 2.09188 0.55403 0
M  V30 5632 C 538.032 1.9317 -2.78336 0
M  V30 5633 C 536.591 2.46405 -2.84538 0
M  V30 5634 C 535.738 1.24521 -2.4777 0
M  V30 5635 H 538.689 0.26333 -1.565 0
M  V30 5636 H 538.71 2.78123 -2.59669 0
M  V30 5637 H 538.222 1.29683 -3.65792 0
M  V30 5638 H 536.323 3.13472 -2.01411 0
M  V30 5639 H 536.436 2.82143 -3.87211 0
M  V30 5640 H 534.8 1.57706 -2.00003 0
M  V30 5641 H 535.583 0.627102 -3.37524 0
M  V30 5642 N 538.028 1.39524 0.732853 0
M  V30 5643 C 539.274 1.37068 1.49467 0
M  V30 5644 C 539.607 -0.0327166 1.94172 0
M  V30 5645 O 538.882 -0.998071 1.66939 0
M  V30 5646 C 539.165 2.34494 2.73285 0
M  V30 5647 C 539.018 3.83784 2.34585 0
M  V30 5648 C 540.337 2.29717 3.75391 0
M  V30 5649 H 537.456 0.499206 0.542183 0
M  V30 5650 H 540.098 1.70532 0.837783 0
M  V30 5651 H 538.248 2.06087 3.29333 0
M  V30 5652 H 539.92 4.22949 1.84151 0
M  V30 5653 H 538.163 4.00455 1.66787 0
M  V30 5654 H 538.834 4.47444 3.23262 0
M  V30 5655 H 541.31 2.54839 3.28932 0
M  V30 5656 H 540.186 2.99962 4.59689 0
M  V30 5657 H 540.447 1.30291 4.22465 0
M  V30 5658 N 539.506 -0.963266 1.24736 0
M  V30 5659 C 540.746 -1.72172 1.10165 0
M  V30 5660 C 541.11 -1.88731 -0.352784 0
M  V30 5661 O 542.311 -2.61549 -0.620107 0
M  V30 5662 C 540.582 -3.0724 1.82589 0
M  V30 5663 S 542.141 -3.98449 1.83803 0
M  V30 5664 H 538.959 -0.591901 0.393922 0
M  V30 5665 H 541.561 -1.14955 1.58132 0
M  V30 5666 H 540.265 -2.92851 2.87518 0
M  V30 5667 H 539.796 -3.69521 1.34973 0
M  V30 5668 H 541.811 -4.87805 0.908883 0
M  V30 5669 N 540.985 -1.06182 -1.16461 0
M  V30 5670 C 542.401 -0.785065 -1.38956 0
M  V30 5671 C 542.601 0.616103 -1.9185 0
M  V30 5672 O 541.657 1.37686 -2.11657 0
M  V30 5673 C 542.97 -1.84902 -2.37132 0
M  V30 5674 C 544.518 -1.8724 -2.50819 0
M  V30 5675 C 544.993 -2.92686 -3.52277 0
M  V30 5676 N 546.484 -2.91712 -3.59803 0
M  V30 5677 C 547.219 -3.69949 -4.38093 0
M  V30 5678 N 546.715 -4.58 -5.19815 0
M  V30 5679 N 548.508 -3.58346 -4.33064 0
M  V30 5680 H 540.659 -1.96569 -0.804634 0
M  V30 5681 H 542.922 -0.851747 -0.416211 0
M  V30 5682 H 542.628 -2.85518 -2.0536 0
M  V30 5683 H 542.502 -1.69908 -3.36766 0
M  V30 5684 H 544.889 -0.872827 -2.81897 0
M  V30 5685 H 544.97 -2.06311 -1.51226 0
M  V30 5686 H 544.614 -3.92835 -3.21937 0
M  V30 5687 H 544.544 -2.70864 -4.51598 0
M  V30 5688 H 547.035 -2.27876 -3.01464 0
M  V30 5689 H 547.348 -5.14357 -5.76764 0
M  V30 5690 H 545.693 -4.62056 -5.19162 0
M  V30 5691 H 548.884 -2.88943 -3.68279 0
M  V30 5692 H 549.057 -4.19563 -4.93833 0
M  V30 5693 N 542.463 1.3308 -0.844243 0
M  V30 5694 C 543.874 1.7992 -0.498566 0
M  V30 5695 C 544.225 1.69808 0.982834 0
M  V30 5696 O 543.35 1.25051 1.7661 0
M  V30 5697 C 543.945 3.26677 -0.898204 0
M  V30 5698 C 542.504 3.71513 -0.604583 0
M  V30 5699 C 541.651 2.54393 -1.10362 0
M  V30 5700 H 544.602 1.20526 -1.03244 0
M  V30 5701 H 544.623 3.79918 -0.21039 0
M  V30 5702 H 544.135 3.34004 -1.97643 0
M  V30 5703 H 542.236 3.69708 0.46335 0
M  V30 5704 H 542.349 4.64755 -1.16358 0
M  V30 5705 H 540.713 2.49246 -0.524273 0
M  V30 5706 H 541.496 2.6448 -2.18873 0
M  V30 5707 N 543.941 0.601185 1.45683 0
M  V30 5708 C 544.904 -0.111398 2.28929 0
M  V30 5709 C 545.904 -0.801246 1.39416 0
M  V30 5710 O 547.094 -0.650383 1.61603 0
M  V30 5711 C 544.226 -1.16773 3.20276 0
M  V30 5712 H 545.419 0.620412 2.93413 0
M  V30 5713 H 542.972 0.359946 1.52099 0
M  V30 5714 H 543.707 -1.93051 2.60579 0
M  V30 5715 H 543.492 -0.677358 3.86205 0
M  V30 5716 H 544.982 -1.66698 3.82886 0
M  V30 5717 N 545.419 -1.53889 0.339982 0
M  V30 5718 C 546.382 -2.23547 -0.50592 0
M  V30 5719 C 547.382 -1.23445 -1.03044 0
M  V30 5720 O 548.572 -1.47909 -0.920253 0
M  V30 5721 C 545.704 -2.95234 -1.7044 0
M  V30 5722 H 546.897 -2.99722 0.103247 0
M  V30 5723 H 544.45 -1.56033 0.0912804 0
M  V30 5724 H 545.185 -2.23236 -2.35236 0
M  V30 5725 H 544.97 -3.68654 -1.33553 0
M  V30 5726 H 546.46 -3.48258 -2.30447 0
M  V30 5727 N 546.897 -0.0685191 -1.57451 0
M  V30 5728 C 547.807 0.914677 -2.16034 0
M  V30 5729 C 548.823 1.32938 -1.12265 0
M  V30 5730 O 549.999 1.40275 -1.44516 0
M  V30 5731 C 547.064 2.16519 -2.70777 0
M  V30 5732 C 546.125 1.80721 -3.89408 0
M  V30 5733 C 545.358 2.9981 -4.41531 0
M  V30 5734 O 545.581 4.13727 -3.92666 0
M  V30 5735 O 544.515 2.79817 -5.32903 0
M  V30 5736 H 548.341 0.446364 -3.00402 0
M  V30 5737 H 545.926 0.154367 -1.486 0
M  V30 5738 H 547.808 2.89856 -3.05878 0
M  V30 5739 H 546.483 2.62454 -1.89471 0
M  V30 5740 H 545.39 1.04646 -3.59166 0
M  V30 5741 H 546.723 1.39571 -4.71997 0
M  V30 5742 N 548.375 1.56261 0.205012 0
M  V30 5743 C 549.338 1.92908 1.23771 0
M  V30 5744 C 550.338 0.809208 1.38955 0
M  V30 5745 O 551.528 1.07676 1.36936 0
M  V30 5746 C 548.66 2.19442 2.60879 0
M  V30 5747 H 549.853 2.85287 0.924728 0
M  V30 5748 H 547.406 1.49798 0.446125 0
M  V30 5749 H 548.141 1.29668 2.97248 0
M  V30 5750 H 547.926 3.0104 2.51232 0
M  V30 5751 H 549.416 2.48833 3.35368 0
M  V30 5752 N 549.853 -0.472356 1.50355 0
M  V30 5753 C 550.783 -1.57859 1.72055 0
M  V30 5754 C 551.764 -1.60283 0.569505 0
M  V30 5755 O 552.949 -1.7657 0.808503 0
M  V30 5756 C 550.079 -2.96191 1.81351 0
M  V30 5757 C 549.033 -3.08633 2.96529 0
M  V30 5758 C 548.359 -4.486 2.90968 0
M  V30 5759 C 549.659 -2.85969 4.37057 0
M  V30 5760 H 551.353 -1.39953 2.64676 0
M  V30 5761 H 548.899 -0.671846 1.27367 0
M  V30 5762 H 550.852 -3.73507 1.95117 0
M  V30 5763 H 549.576 -3.15251 0.853502 0
M  V30 5764 H 548.235 -2.33749 2.82413 0
M  V30 5765 H 547.883 -4.64577 1.92815 0
M  V30 5766 H 547.583 -4.57861 3.68289 0
M  V30 5767 H 549.107 -5.27938 3.0678 0
M  V30 5768 H 550.521 -3.53036 4.51706 0
M  V30 5769 H 548.918 -3.06677 5.15819 0
M  V30 5770 H 549.988 -1.81838 4.49514 0
M  V30 5771 N 551.331 -1.39911 -0.725443 0
M  V30 5772 C 552.261 -1.42138 -1.85254 0
M  V30 5773 C 553.242 -0.283513 -1.67721 0
M  V30 5774 O 554.427 -0.490717 -1.87898 0
M  V30 5775 C 551.557 -1.27354 -3.23107 0
M  V30 5776 C 550.511 -2.3864 -3.55296 0
M  V30 5777 C 549.837 -2.08939 -4.92188 0
M  V30 5778 C 551.137 -3.8097 -3.57295 0
M  V30 5779 H 552.831 -2.36461 -1.83648 0
M  V30 5780 H 550.377 -1.13817 -0.882138 0
M  V30 5781 H 552.33 -1.2753 -4.01639 0
M  V30 5782 H 551.054 -0.295025 -3.25265 0
M  V30 5783 H 549.713 -2.37696 -2.79099 0
M  V30 5784 H 549.361 -1.09502 -4.90936 0
M  V30 5785 H 549.061 -2.83491 -5.14691 0
M  V30 5786 H 550.585 -2.10781 -5.73065 0
M  V30 5787 H 551.999 -3.8379 -4.25885 0
M  V30 5788 H 550.396 -4.5496 -3.9132 0
M  V30 5789 H 551.466 -4.11261 -2.5689 0
M  V30 5790 N 552.809 0.956637 -1.25245 0
M  V30 5791 C 554.049 1.71585 -1.11076 0
M  V30 5792 C 554.413 1.88916 0.34277 0
M  V30 5793 O 555.614 2.61875 0.606227 0
M  V30 5794 C 553.885 3.06267 -1.84215 0
M  V30 5795 S 555.444 3.97469 -1.85914 0
M  V30 5796 H 552.262 0.589803 -0.397055 0
M  V30 5797 H 554.864 1.14114 -1.58739 0
M  V30 5798 H 553.568 2.91322 -2.89067 0
M  V30 5799 H 553.099 3.688 -1.36931 0
M  V30 5800 H 555.114 4.87316 -0.93474 0
M  V30 5801 N 554.287 1.06798 1.15896 0
M  V30 5802 C 555.235 0.677525 2.22514 0
M  V30 5803 C 556.229 -0.308994 1.66558 0
M  V30 5804 O 557.435 -0.173308 1.79164 0
M  V30 5805 H 553.81 0.200994 0.724642 0
M  V30 5806 H 555.781 1.5865 2.52731 0
M  V30 5807 C 554.53 0.0854153 3.47595 0
M  V30 5808 H 553.853 0.835645 3.90969 0
M  V30 5809 H 555.293 -0.150199 4.23734 0
M  V30 5810 C 553.752 -1.1724 3.15843 0
M  V30 5811 O 554.282 -2.25965 3.32119 0
M  V30 5812 N 552.488 -1.07636 2.69931 0
M  V30 5813 H 552.035 -0.191559 2.56887 0
M  V30 5814 H 551.993 -1.91876 2.4906 0
M  V30 5815 N 555.766 -1.3263 0.851289 0
M  V30 5816 C 556.716 -2.26451 0.265302 0
M  V30 5817 C 557.7 -1.49814 -0.586899 0
M  V30 5818 O 558.892 -1.71525 -0.436834 0
M  V30 5819 C 556.021 -3.38895 -0.548212 0
M  V30 5820 C 555.107 -4.2292 0.316189 0
M  V30 5821 N 555.498 -4.86014 1.40084 0
M  V30 5822 C 553.796 -4.45876 0.105356 0
M  V30 5823 C 554.497 -5.48667 1.93235 0
M  V30 5824 N 553.473 -5.29455 1.232 0
M  V30 5825 H 557.275 -2.72757 1.09457 0
M  V30 5826 H 554.789 -1.4668 0.697047 0
M  V30 5827 H 556.786 -4.05111 -0.984402 0
M  V30 5828 H 555.446 -2.94135 -1.37531 0
M  V30 5829 H 556.457 -4.86212 1.78377 0
M  V30 5830 H 553.134 -4.11804 -0.687299 0
M  V30 5831 H 554.524 -6.08865 2.84135 0
M  V30 5832 N 557.244 -0.608902 -1.45362 0
M  V30 5833 C 558.493 -0.10218 -2.01441 0
M  V30 5834 C 558.806 1.27546 -1.48295 0
M  V30 5835 O 560.012 1.87498 -1.96359 0
M  V30 5836 C 558.468 -0.131985 -3.59658 0
M  V30 5837 C 558.076 -1.50956 -4.21801 0
M  V30 5838 C 559.82 0.319427 -4.23296 0
M  V30 5839 C 557.727 -1.49568 -5.72174 0
M  V30 5840 H 556.657 -0.0344314 -0.753213 0
M  V30 5841 H 559.308 -0.764426 -1.6682 0
M  V30 5842 H 557.69 0.596939 -3.91475 0
M  V30 5843 H 558.864 -2.26029 -4.01556 0
M  V30 5844 H 557.179 -1.90318 -3.70362 0
M  V30 5845 H 559.776 0.349013 -5.3356 0
M  V30 5846 H 560.119 1.34237 -3.94064 0
M  V30 5847 H 560.652 -0.356273 -3.96201 0
M  V30 5848 H 557.391 -2.49626 -6.06108 0
M  V30 5849 H 556.911 -0.787542 -5.94607 0
M  V30 5850 H 558.59 -1.21989 -6.35396 0
M  V30 5851 N 558.722 1.53707 -0.348139 0
M  V30 5852 C 559.969 2.00988 0.246966 0
M  V30 5853 C 560.297 1.23586 1.50189 0
M  V30 5854 O 559.552 0.312817 1.93184 0
M  V30 5855 C 559.851 3.52292 0.602061 0
M  V30 5856 C 559.517 4.47453 -0.556509 0
M  V30 5857 C 558.179 4.73188 -0.874446 0
M  V30 5858 C 560.531 5.03851 -1.33354 0
M  V30 5859 C 557.859 5.52577 -1.9717 0
M  V30 5860 C 560.211 5.84437 -2.42108 0
M  V30 5861 C 558.875 6.08465 -2.74456 0
M  V30 5862 H 558.145 0.735469 0.0903712 0
M  V30 5863 H 560.792 1.85464 -0.477001 0
M  V30 5864 H 559.097 3.65672 1.40681 0
M  V30 5865 H 560.794 3.86337 1.07447 0
M  V30 5866 H 557.384 4.27558 -0.298652 0
M  V30 5867 H 561.568 4.8393 -1.10117 0
M  V30 5868 H 556.824 5.69418 -2.22651 0
M  V30 5869 H 560.998 6.27151 -3.02745 0
M  V30 5870 H 558.625 6.69768 -3.59604 0
M  V30 5871 N 560.2 0.0768682 1.57412 0
M  V30 5872 C 561.132 -0.918248 2.10002 0
M  V30 5873 C 562.145 -1.25808 1.03325 0
M  V30 5874 O 563.334 -1.21438 1.30824 0
M  V30 5875 C 560.434 -2.23263 2.54964 0
M  V30 5876 C 559.607 -2.07088 3.8527 0
M  V30 5877 C 558.666 -3.21876 4.16272 0
M  V30 5878 O 557.692 -2.96643 4.8579 0
M  V30 5879 N 558.894 -4.4712 3.70221 0
M  V30 5880 H 561.659 -0.469209 2.96004 0
M  V30 5881 H 559.22 -0.108725 1.61535 0
M  V30 5882 H 561.212 -2.9897 2.72762 0
M  V30 5883 H 559.782 -2.59649 1.74072 0
M  V30 5884 H 559.002 -1.15818 3.76802 0
M  V30 5885 H 560.29 -1.93537 4.70554 0
M  V30 5886 H 559.688 -4.70506 3.1407 0
M  V30 5887 H 558.245 -5.19837 3.93209 0
M  V30 5888 N 561.678 -1.56367 -0.196722 0
M  V30 5889 C 562.588 -1.97617 -1.2643 0
M  V30 5890 C 563.604 -0.883598 -1.49895 0
M  V30 5891 O 564.78 -1.18921 -1.62541 0
M  V30 5892 C 561.845 -2.30595 -2.58895 0
M  V30 5893 C 560.906 -3.53551 -2.43516 0
M  V30 5894 C 560.139 -3.84946 -3.69665 0
M  V30 5895 O 560.362 -3.17655 -4.73763 0
M  V30 5896 O 559.296 -4.78379 -3.65291 0
M  V30 5897 H 563.122 -2.88648 -0.944233 0
M  V30 5898 H 560.707 -1.43901 -0.401592 0
M  V30 5899 H 562.589 -2.52889 -3.37083 0
M  V30 5900 H 561.264 -1.42732 -2.90533 0
M  V30 5901 H 560.171 -3.36507 -1.63445 0
M  V30 5902 H 561.504 -4.41875 -2.16812 0
M  V30 5903 N 563.156 0.464375 -1.50603 0
M  V30 5904 C 564.396 1.22573 -1.6357 0
M  V30 5905 C 564.76 1.89111 -0.331834 0
M  V30 5906 O 565.961 2.66679 -0.336999 0
M  V30 5907 C 564.232 2.23643 -2.7878 0
M  V30 5908 S 565.791 3.08628 -3.1192 0
M  V30 5909 H 562.609 0.416058 -0.576556 0
M  V30 5910 H 565.211 0.521637 -1.88412 0
M  V30 5911 H 563.915 1.73354 -3.7199 0
M  V30 5912 H 563.446 2.98672 -2.56044 0
M  V30 5913 H 565.461 4.24904 -2.56264 0
M  V30 5914 N 564.634 1.40294 0.718013 0
M  V30 5915 C 565.859 1.41941 1.5122 0
M  V30 5916 C 566.284 0.0202371 1.88089 0
M  V30 5917 O 565.642 -0.971078 1.53101 0
M  V30 5918 C 565.69 2.3141 2.76554 0
M  V30 5919 O 564.794 1.75567 3.73162 0
M  V30 5920 H 564.135 0.482644 0.456016 0
M  V30 5921 H 566.665 1.84494 0.884478 0
M  V30 5922 H 566.675 2.46513 3.25108 0
M  V30 5923 H 565.35 3.33085 2.49053 0
M  V30 5924 H 563.927 1.69798 3.31999 0
M  V30 5925 N 566.112 -0.949982 1.2575 0
M  V30 5926 C 567.523 -1.50989 1.09815 0
M  V30 5927 C 567.874 -1.93497 -0.324556 0
M  V30 5928 O 566.999 -1.79068 -1.21506 0
M  V30 5929 C 567.594 -2.74394 1.98729 0
M  V30 5930 C 566.153 -3.26682 1.86965 0
M  V30 5931 C 565.3 -1.99498 1.92603 0
M  V30 5932 H 568.251 -0.766387 1.38968 0
M  V30 5933 H 568.272 -3.48383 1.53001 0
M  V30 5934 H 567.784 -2.43425 3.02268 0
M  V30 5935 H 565.885 -3.62461 0.863279 0
M  V30 5936 H 565.998 -3.94383 2.72027 0
M  V30 5937 H 564.362 -2.15005 1.36546 0
M  V30 5938 H 565.145 -1.70871 2.97755 0
M  V30 5939 N 567.59 -1.07411 -1.15328 0
M  V30 5940 C 568.838 -0.796073 -1.85761 0
M  V30 5941 C 569.159 0.679864 -1.82764 0
M  V30 5942 O 568.429 1.49242 -1.269 0
M  V30 5943 H 567.009 -0.291495 -0.687779 0
M  V30 5944 H 569.671 -1.35799 -1.39802 0
M  V30 5945 H 568.767 -1.13114 -2.90881 0
M  V30 5946 N 569.068 1.32177 -0.85831 0
M  V30 5947 C 570.314 1.97417 -0.46417 0
M  V30 5948 C 570.647 1.67746 0.978514 0
M  V30 5949 O 569.922 0.967654 1.68721 0
M  V30 5950 C 570.205 3.53069 -0.708094 0
M  V30 5951 C 570.058 3.92357 -2.19946 0
M  V30 5952 C 571.377 4.39783 -0.166881 0
M  V30 5953 H 568.496 0.717097 -0.17012 0
M  V30 5954 H 571.138 1.56499 -1.07741 0
M  V30 5955 H 569.288 3.88054 -0.186128 0
M  V30 5956 H 570.96 3.67533 -2.78779 0
M  V30 5957 H 569.203 3.41384 -2.67656 0
M  V30 5958 H 569.874 5.00841 -2.32082 0
M  V30 5959 H 572.35 4.11556 -0.613285 0
M  V30 5960 H 571.226 5.47671 -0.367093 0
M  V30 5961 H 571.487 4.32196 0.930559 0
M  V30 5962 N 570.547 0.616602 1.45037 0
M  V30 5963 C 571.793 0.115501 2.02471 0
M  V30 5964 C 572.126 -1.25406 1.4828 0
M  V30 5965 O 571.401 -1.82922 0.661051 0
M  V30 5966 C 571.684 0.0863588 3.59996 0
M  V30 5967 C 571.537 1.48723 4.24501 0
M  V30 5968 C 572.856 -0.596762 4.36035 0
M  V30 5969 H 569.975 0.0434461 0.735718 0
M  V30 5970 H 572.617 0.7903 1.72784 0
M  V30 5971 H 570.767 -0.488277 3.85419 0
M  V30 5972 H 572.439 2.10964 4.10234 0
M  V30 5973 H 570.682 2.04534 3.82555 0
M  V30 5974 H 571.353 1.419 5.3345 0
M  V30 5975 H 573.829 -0.10824 4.15959 0
M  V30 5976 H 572.705 -0.586289 5.4576 0
M  V30 5977 H 572.966 -1.66451 4.09569 0
M  V30 5978 N 572.025 -1.5352 0.356285 0
M  V30 5979 C 573.436 -1.86282 -0.12492 0
M  V30 5980 C 573.787 -1.27717 -1.48939 0
M  V30 5981 O 572.912 -0.595614 -2.08042 0
M  V30 5982 C 573.507 -3.37995 -0.23345 0
M  V30 5983 C 572.066 -3.70588 -0.658899 0
M  V30 5984 C 571.213 -2.76581 0.199596 0
M  V30 5985 H 574.164 -1.47901 0.575423 0
M  V30 5986 H 574.185 -3.65475 -1.0587 0
M  V30 5987 H 573.697 -3.8059 0.759776 0
M  V30 5988 H 571.798 -3.33544 -1.66069 0
M  V30 5989 H 571.911 -4.77076 -0.439957 0
M  V30 5990 H 570.275 -2.52552 -0.330076 0
M  V30 5991 H 571.058 -3.22008 1.19019 0
M  V30 5992 N 573.503 -0.0852151 -1.57369 0
M  V30 5993 C 574.731 0.58946 -1.98325 0
M  V30 5994 C 575.146 1.62333 -0.96403 0
M  V30 5995 O 574.503 1.82438 0.0476395 0
M  V30 5996 C 574.554 1.24604 -3.39347 0
M  V30 5997 O 574.275 0.253532 -4.37366 0
M  V30 5998 C 575.776 2.00726 -3.95252 0
M  V30 5999 H 572.996 0.158783 -0.651942 0
M  V30 6000 H 575.54 -0.161584 -2.03861 0
M  V30 6001 H 573.695 1.94808 -3.34856 0
M  V30 6002 H 574.109 0.726207 -5.19448 0
M  V30 6003 H 575.583 2.42039 -4.96106 0
M  V30 6004 H 576.06 2.86919 -3.32527 0
M  V30 6005 H 576.666 1.3536 -4.03185 0
M  V30 6006 N 574.981 1.5647 0.188427 0
M  V30 6007 C 576.392 1.70864 0.752494 0
M  V30 6008 C 576.743 0.692905 1.83557 0
M  V30 6009 O 575.868 -0.149307 2.15884 0
M  V30 6010 C 576.463 3.09789 1.37173 0
M  V30 6011 C 575.022 3.25925 1.88281 0
M  V30 6012 C 574.169 2.66817 0.755259 0
M  V30 6013 H 577.12 1.58657 -0.0367408 0
M  V30 6014 H 577.141 3.07489 2.24122 0
M  V30 6015 H 576.653 3.83693 0.583219 0
M  V30 6016 H 574.754 2.56948 2.6983 0
M  V30 6017 H 574.867 4.33498 2.04001 0
M  V30 6018 H 573.231 2.2617 1.17128 0
M  V30 6019 H 574.014 3.43294 -0.0211237 0
M  V30 6020 N 576.459 -0.456382 1.50847 0
M  V30 6021 C 577.708 -1.2042 1.61808 0
M  V30 6022 C 578.021 -1.9278 0.330932 0
M  V30 6023 O 579.227 -2.69612 0.319643 0
M  V30 6024 C 577.683 -2.18891 2.85683 0
M  V30 6025 C 577.291 -1.52267 4.2133 0
M  V30 6026 C 579.035 -2.94224 3.05994 0
M  V30 6027 C 576.942 -2.4911 5.36375 0
M  V30 6028 H 575.872 -0.453177 0.602616 0
M  V30 6029 H 578.523 -0.473144 1.77295 0
M  V30 6030 H 576.905 -2.95351 2.63787 0
M  V30 6031 H 578.079 -0.814949 4.53536 0
M  V30 6032 H 576.394 -0.891594 4.06743 0
M  V30 6033 H 578.991 -3.66732 3.89117 0
M  V30 6034 H 579.334 -3.54469 2.18306 0
M  V30 6035 H 579.867 -2.24874 3.28141 0
M  V30 6036 H 576.606 -1.93582 6.26264 0
M  V30 6037 H 576.126 -3.17991 5.08569 0
M  V30 6038 H 577.805 -3.10637 5.67551 0
M  V30 6039 N 577.937 -1.40673 -0.710563 0
M  V30 6040 C 579.348 -1.34975 -1.28991 0
M  V30 6041 C 579.699 -0.0256272 -1.96183 0
M  V30 6042 O 578.824 0.876339 -1.97862 0
M  V30 6043 C 579.419 -2.44467 -2.34567 0
M  V30 6044 C 577.978 -2.42213 -2.88114 0
M  V30 6045 C 577.125 -2.25085 -1.61963 0
M  V30 6046 H 580.076 -1.50406 -0.506343 0
M  V30 6047 H 580.097 -2.12663 -3.15523 0
M  V30 6048 H 579.609 -3.40825 -1.85634 0
M  V30 6049 H 577.71 -1.49568 -3.41263 0
M  V30 6050 H 577.823 -3.37983 -3.39565 0
M  V30 6051 H 576.187 -1.72691 -1.87216 0
M  V30 6052 H 576.97 -3.23449 -1.15047 0
M  V30 6053 N 579.415 0.9433 -1.26252 0
M  V30 6054 C 580.664 1.68369 -1.11062 0
M  V30 6055 C 580.977 1.92514 0.346104 0
M  V30 6056 O 582.183 2.64358 0.618646 0
M  V30 6057 C 580.639 3.03171 -1.93946 0
M  V30 6058 C 580.247 2.86782 -3.4418 0
M  V30 6059 C 581.991 3.80916 -1.87359 0
M  V30 6060 C 579.898 4.17044 -4.19319 0
M  V30 6061 H 578.828 0.631469 -0.412023 0
M  V30 6062 H 581.479 1.04922 -1.50544 0
M  V30 6063 H 579.861 3.67587 -1.47296 0
M  V30 6064 H 581.035 2.31229 -3.98585 0
M  V30 6065 H 579.35 2.22482 -3.51981 0
M  V30 6066 H 581.947 4.77417 -2.40784 0
M  V30 6067 H 582.29 4.07658 -0.843857 0
M  V30 6068 H 582.823 3.2327 -2.31821 0
M  V30 6069 H 579.562 3.95487 -5.22753 0
M  V30 6070 H 579.082 4.72319 -3.69696 0
M  V30 6071 H 580.761 4.85513 -4.27651 0
M  V30 6072 N 580.893 1.08022 1.14757 0
M  V30 6073 C 582.133 0.816959 1.87364 0
M  V30 6074 C 582.497 -0.645407 1.80827 0
M  V30 6075 O 583.698 -1.024 2.48531 0
M  V30 6076 C 581.969 1.31961 3.32146 0
M  V30 6077 S 583.528 1.18806 4.2241 0
M  V30 6078 H 580.346 0.295862 0.646519 0
M  V30 6079 H 582.948 1.3807 1.38408 0
M  V30 6080 H 581.652 2.37847 3.3445 0
M  V30 6081 H 581.183 0.751371 3.86158 0
M  V30 6082 H 583.198 0.129865 4.9603 0
M  V30 6083 N 582.371 -1.3172 0.865308 0
M  V30 6084 C 583.787 -1.4958 0.556596 0
M  V30 6085 C 583.987 -1.79763 -0.910353 0
M  V30 6086 O 583.043 -1.87351 -1.6928 0
M  V30 6087 C 584.356 -2.63277 1.45279 0
M  V30 6088 C 585.904 -2.77161 1.45433 0
M  V30 6089 C 586.379 -3.93949 2.33598 0
M  V30 6090 N 587.87 -4.01228 2.31453 0
M  V30 6091 C 588.605 -4.90855 2.96393 0
M  V30 6092 N 588.101 -5.85416 3.70486 0
M  V30 6093 N 589.894 -4.84063 2.85726 0
M  V30 6094 H 582.045 -1.10396 1.81456 0
M  V30 6095 H 584.308 -0.54507 0.775631 0
M  V30 6096 H 584.014 -2.47734 2.49641 0
M  V30 6097 H 583.888 -3.59309 1.14792 0
M  V30 6098 H 586.275 -2.9212 0.41831 0
M  V30 6099 H 586.356 -1.8181 1.79941 0
M  V30 6100 H 586 -3.79748 3.37274 0
M  V30 6101 H 585.93 -4.88598 1.96417 0
M  V30 6102 H 588.421 -3.3357 1.77593 0
M  V30 6103 H 588.734 -6.50525 4.17178 0
M  V30 6104 H 587.079 -5.85409 3.74594 0
M  V30 6105 H 590.27 -4.09163 2.27384 0
M  V30 6106 H 590.443 -5.53708 3.36617 0
M  V30 6107 N 583.85 -0.624285 -1.44708 0
M  V30 6108 C 584.76 0.0861083 -2.34442 0
M  V30 6109 C 585.776 0.84291 -1.5222 0
M  V30 6110 O 586.952 0.796723 -1.84971 0
M  V30 6111 C 584.017 1.05999 -3.30099 0
M  V30 6112 C 583.077 0.303316 -4.28227 0
M  V30 6113 C 582.311 1.23081 -5.19314 0
M  V30 6114 O 582.534 2.46929 -5.14181 0
M  V30 6115 O 581.468 0.71883 -5.97592 0
M  V30 6116 H 585.293 -0.651756 -2.96624 0
M  V30 6117 H 582.879 -0.384493 -1.44368 0
M  V30 6118 H 584.76 1.62046 -3.88997 0
M  V30 6119 H 583.436 1.77859 -2.70459 0
M  V30 6120 H 582.343 -0.300033 -3.72895 0
M  V30 6121 H 583.676 -0.375123 -4.90768 0
M  V30 6122 N 585.328 1.53329 -0.364422 0
M  V30 6123 C 586.558 2.05359 0.226096 0
M  V30 6124 C 586.966 1.23777 1.43094 0
M  V30 6125 O 586.309 0.271139 1.81688 0
M  V30 6126 C 586.371 3.52918 0.684794 0
M  V30 6127 C 586.035 4.55218 -0.403206 0
M  V30 6128 C 587.032 5.04583 -1.2527 0
M  V30 6129 C 584.717 4.99134 -0.563117 0
M  V30 6130 C 586.711 5.96463 -2.24745 0
M  V30 6131 C 584.398 5.9082 -1.56124 0
M  V30 6132 C 585.396 6.39375 -2.40184 0
M  V30 6133 O 585.084 7.29255 -3.38293 0
M  V30 6134 H 584.816 0.674588 0.0436772 0
M  V30 6135 H 587.37 1.98688 -0.520782 0
M  V30 6136 H 585.6 3.57122 1.48326 0
M  V30 6137 H 587.289 3.87812 1.19818 0
M  V30 6138 H 588.055 4.71403 -1.14034 0
M  V30 6139 H 583.934 4.60928 0.0813909 0
M  V30 6140 H 587.478 6.34285 -2.90393 0
M  V30 6141 H 583.375 6.23414 -1.67407 0
M  V30 6142 H 584.143 7.47249 -3.34009 0
M  V30 6143 N 586.806 0.0935595 1.57322 0
M  V30 6144 C 588.046 -0.573901 1.96178 0
M  V30 6145 C 588.41 -1.65445 0.97426 0
M  V30 6146 O 589.611 -2.37901 1.25126 0
M  V30 6147 C 587.882 -1.11612 3.39526 0
M  V30 6148 S 589.441 -1.79566 4.00377 0
M  V30 6149 H 586.259 -0.187315 0.685882 0
M  V30 6150 H 588.861 0.172597 1.94737 0
M  V30 6151 H 587.565 -0.31815 4.09165 0
M  V30 6152 H 587.096 -1.89848 3.4456 0
M  V30 6153 H 589.111 -3.07978 3.89056 0
M  V30 6154 N 588.284 -1.56567 -0.180126 0
M  V30 6155 C 589.214 -1.98753 -1.22553 0
M  V30 6156 C 590.195 -0.86175 -1.46656 0
M  V30 6157 O 591.38 -1.12719 -1.58139 0
M  V30 6158 C 588.51 -2.33988 -2.56645 0
M  V30 6159 C 587.464 -3.49445 -2.47128 0
M  V30 6160 C 586.79 -3.70397 -3.8563 0
M  V30 6161 C 588.09 -4.83171 -1.98352 0
M  V30 6162 H 589.784 -2.86332 -0.874896 0
M  V30 6163 H 587.33 -1.37757 -0.419414 0
M  V30 6164 H 589.283 -2.62097 -3.29974 0
M  V30 6165 H 588.007 -1.43309 -2.93479 0
M  V30 6166 H 586.666 -3.2145 -1.76254 0
M  V30 6167 H 586.314 -2.77023 -4.19842 0
M  V30 6168 H 586.014 -4.48077 -3.80132 0
M  V30 6169 H 587.538 -4.00897 -4.60558 0
M  V30 6170 H 588.952 -5.10213 -2.61449 0
M  V30 6171 H 587.349 -5.64425 -2.03823 0
M  V30 6172 H 588.419 -4.75753 -0.937402 0
M  V30 6173 N 589.762 0.448376 -1.51087 0
M  V30 6174 C 590.725 1.52588 -1.71025 0
M  V30 6175 C 591.725 1.49958 -0.580442 0
M  V30 6176 O 592.915 1.52176 -0.847833 0
M  V30 6177 C 590.047 2.92163 -1.75652 0
M  V30 6178 H 591.24 1.36218 -2.67179 0
M  V30 6179 H 588.793 0.676313 -1.4091 0
M  V30 6180 H 589.528 3.13951 -0.812724 0
M  V30 6181 H 589.313 2.95478 -2.57751 0
M  V30 6182 H 590.803 3.70349 -1.92953 0
M  V30 6183 N 591.24 1.41047 0.703093 0
M  V30 6184 C 592.486 1.40207 1.46526 0
M  V30 6185 C 592.819 0.00847763 1.94198 0
M  V30 6186 O 592.094 -0.962437 1.69019 0
M  V30 6187 C 592.377 2.40238 2.6825 0
M  V30 6188 C 592.23 3.88674 2.26391 0
M  V30 6189 C 593.549 2.37627 3.70434 0
M  V30 6190 H 590.668 0.510594 0.531472 0
M  V30 6191 H 593.31 1.72271 0.801422 0
M  V30 6192 H 591.46 2.13026 3.24888 0
M  V30 6193 H 593.132 4.2676 1.75138 0
M  V30 6194 H 591.375 4.03903 1.58255 0
M  V30 6195 H 592.046 4.542 3.13698 0
M  V30 6196 H 594.522 2.61759 3.23452 0
M  V30 6197 H 593.398 3.09645 4.53223 0
M  V30 6198 H 593.659 1.39223 4.19606 0
M  V30 6199 N 592.718 -0.936591 1.26751 0
M  V30 6200 C 593.665 -2.03597 1.08706 0
M  V30 6201 C 594.635 -1.66097 -0.00926542 0
M  V30 6202 O 595.82 -1.90199 0.151377 0
M  V30 6203 C 592.96 -3.3727 0.73094 0
M  V30 6204 C 592.073 -3.87778 1.90399 0
M  V30 6205 C 591.208 -5.09859 1.49056 0
M  V30 6206 C 590.247 -5.5264 2.63164 0
M  V30 6207 N 589.384 -6.65921 2.22471 0
M  V30 6208 H 594.224 -2.18364 2.02784 0
M  V30 6209 H 591.761 -1.06985 1.00958 0
M  V30 6210 H 593.719 -4.14128 0.505328 0
M  V30 6211 H 592.349 -3.22337 -0.172868 0
M  V30 6212 H 591.401 -3.07279 2.2424 0
M  V30 6213 H 592.713 -4.15464 2.76028 0
M  V30 6214 H 591.867 -5.9419 1.22567 0
M  V30 6215 H 590.606 -4.8393 0.60524 0
M  V30 6216 H 589.611 -4.66863 2.90377 0
M  V30 6217 H 590.836 -5.80568 3.52303 0
M  V30 6218 H 588.782 -6.41667 1.36379 0
M  V30 6219 H 588.699 -6.93216 3.01641 0
M  V30 6220 H 589.967 -7.53616 1.99205 0
M  V30 6221 N 594.196 -1.08629 -1.14182 0
M  V30 6222 C 595.106 -0.730126 -2.22949 0
M  V30 6223 C 596.122 0.26436 -1.7198 0
M  V30 6224 O 597.298 0.107742 -2.01112 0
M  V30 6225 C 594.363 -0.147227 -3.46387 0
M  V30 6226 C 593.424 -1.19662 -4.12286 0
M  V30 6227 C 592.657 -0.641437 -5.29831 0
M  V30 6228 O 592.88 0.538351 -5.67854 0
M  V30 6229 O 591.814 -1.39257 -5.85569 0
M  V30 6230 H 595.64 -1.63753 -2.55771 0
M  V30 6231 H 593.225 -0.860118 -1.22157 0
M  V30 6232 H 595.107 0.174923 -4.21037 0
M  V30 6233 H 593.782 0.733304 -3.15285 0
M  V30 6234 H 592.689 -1.57133 -3.395 0
M  V30 6235 H 594.022 -2.0495 -4.475 0
M  V30 6236 N 595.674 1.31259 -0.872281 0
M  V30 6237 C 596.604 2.30929 -0.345554 0
M  V30 6238 C 597.585 1.60449 0.5648 0
M  V30 6239 O 598.77 1.8814 0.481335 0
M  V30 6240 C 595.9 3.44348 0.451823 0
M  V30 6241 C 594.854 4.26435 -0.365641 0
M  V30 6242 C 594.18 5.31785 0.557562 0
M  V30 6243 C 595.48 4.97159 -1.60095 0
M  V30 6244 H 597.174 2.75234 -1.17841 0
M  V30 6245 H 594.72 1.3232 -0.568094 0
M  V30 6246 H 596.673 4.13128 0.830854 0
M  V30 6247 H 595.397 2.98816 1.31821 0
M  V30 6248 H 594.056 3.59326 -0.726649 0
M  V30 6249 H 593.704 4.82502 1.4213 0
M  V30 6250 H 593.404 5.87598 0.0144878 0
M  V30 6251 H 594.928 6.03424 0.933387 0
M  V30 6252 H 596.342 5.58523 -1.29323 0
M  V30 6253 H 594.739 5.62779 -2.08327 0
M  V30 6254 H 595.809 4.24012 -2.35249 0
M  V30 6255 N 597.152 0.631951 1.44375 0
M  V30 6256 C 598.399 0.136767 2.02038 0
M  V30 6257 C 598.727 -1.24168 1.49709 0
M  V30 6258 O 597.982 -1.83809 0.671763 0
M  V30 6259 C 598.281 0.0735861 3.57324 0
M  V30 6260 C 597.947 1.39092 4.28911 0
M  V30 6261 C 596.609 1.75171 4.48184 0
M  V30 6262 C 598.961 2.26042 4.69632 0
M  V30 6263 C 596.289 2.97907 5.05439 0
M  V30 6264 C 598.641 3.4805 5.28246 0
M  V30 6265 C 597.305 3.84351 5.45738 0
M  V30 6266 H 596.575 0.0500466 0.739308 0
M  V30 6267 H 599.222 0.818429 1.7313 0
M  V30 6268 H 597.527 -0.691449 3.8565 0
M  V30 6269 H 599.224 -0.326091 3.99672 0
M  V30 6270 H 595.814 1.10015 4.1424 0
M  V30 6271 H 599.998 1.99463 4.54454 0
M  V30 6272 H 595.254 3.26108 5.17169 0
M  V30 6273 H 599.428 4.15658 5.5875 0
M  V30 6274 H 597.055 4.79538 5.8987 0
M  V30 6275 N 598.631 -1.53133 0.372548 0
M  V30 6276 C 599.871 -2.03267 -0.214943 0
M  V30 6277 C 600.235 -1.25362 -1.45425 0
M  V30 6278 O 601.436 -1.65536 -2.11781 0
M  V30 6279 C 599.707 -3.53985 -0.492897 0
M  V30 6280 S 601.266 -4.25977 -1.05307 0
M  V30 6281 H 598.084 -0.708289 -0.062029 0
M  V30 6282 H 600.686 -1.88539 0.517025 0
M  V30 6283 H 599.39 -4.08282 0.416442 0
M  V30 6284 H 598.921 -3.72887 -1.25375 0
M  V30 6285 H 600.936 -4.37731 -2.33679 0
M  V30 6286 N 600.109 -0.101901 -1.5727 0
M  V30 6287 C 601.072 0.840129 -2.13247 0
M  V30 6288 C 602.072 1.20625 -1.06331 0
M  V30 6289 O 603.262 1.13456 -1.32186 0
M  V30 6290 C 600.394 2.13372 -2.65867 0
M  V30 6291 H 601.587 0.353945 -2.97804 0
M  V30 6292 H 599.14 0.147167 -1.55606 0
M  V30 6293 H 599.875 2.66461 -1.84849 0
M  V30 6294 H 599.66 1.88085 -3.44044 0
M  V30 6295 H 601.15 2.80748 -3.09145 0
M  V30 6296 N 601.587 1.56661 0.17182 0
M  V30 6297 C 602.534 1.96371 1.21273 0
M  V30 6298 C 603.504 0.82756 1.44016 0
M  V30 6299 O 604.689 1.08764 1.56764 0
M  V30 6300 C 601.829 2.32838 2.54716 0
M  V30 6301 C 600.942 3.59628 2.39356 0
M  V30 6302 C 600.077 3.85311 3.65662 0
M  V30 6303 C 599.116 5.0545 3.45234 0
M  V30 6304 N 598.253 5.27268 4.63608 0
M  V30 6305 H 603.093 2.85106 0.86709 0
M  V30 6306 H 600.63 1.41073 0.416744 0
M  V30 6307 H 602.588 2.52004 3.3249 0
M  V30 6308 H 601.218 1.47214 2.87277 0
M  V30 6309 H 600.27 3.4838 1.52761 0
M  V30 6310 H 601.582 4.4756 2.20207 0
M  V30 6311 H 600.736 4.04841 4.51872 0
M  V30 6312 H 599.475 2.95753 3.8779 0
M  V30 6313 H 598.48 4.85819 2.5741 0
M  V30 6314 H 599.705 5.96538 3.24529 0
M  V30 6315 H 597.651 4.40662 4.85956 0
M  V30 6316 H 597.568 6.09422 4.4737 0
M  V30 6317 H 598.836 5.51277 5.51103 0
M  V30 6318 N 603.065 -0.440357 1.51323 0
M  V30 6319 C 603.975 -1.55955 1.75258 0
M  V30 6320 C 604.991 -1.61933 0.636687 0
M  V30 6321 O 606.167 -1.79231 0.918593 0
M  V30 6322 C 603.232 -2.9196 1.86977 0
M  V30 6323 C 602.293 -2.96122 3.10822 0
M  V30 6324 C 601.526 -4.2564 3.21973 0
M  V30 6325 O 601.749 -5.17851 2.39137 0
M  V30 6326 O 600.683 -4.36025 4.14929 0
M  V30 6327 H 604.509 -1.38673 2.70191 0
M  V30 6328 H 602.094 -0.623055 1.35788 0
M  V30 6329 H 603.976 -3.72682 1.96688 0
M  V30 6330 H 602.651 -3.09375 0.952307 0
M  V30 6331 H 601.558 -2.14366 3.06591 0
M  V30 6332 H 602.891 -2.83651 4.02247 0
M  V30 6333 N 604.543 -1.41418 -0.695603 0
M  V30 6334 C 605.789 -1.41983 -1.45645 0
M  V30 6335 C 606.144 -0.0282216 -1.92379 0
M  V30 6336 O 605.437 0.945916 -1.66622 0
M  V30 6337 C 605.631 -2.36112 -2.68302 0
M  V30 6338 C 605.46 -3.84288 -2.33566 0
M  V30 6339 C 604.23 -4.52971 -2.23932 0
M  V30 6340 C 606.428 -4.75264 -1.96543 0
M  V30 6341 N 604.41 -5.86276 -1.82081 0
M  V30 6342 C 605.781 -5.97517 -1.6545 0
M  V30 6343 C 607.836 -4.62911 -1.83352 0
M  V30 6344 C 606.539 -7.08793 -1.22492 0
M  V30 6345 C 608.565 -5.74149 -1.41799 0
M  V30 6346 C 607.927 -6.95501 -1.11617 0
M  V30 6347 H 604.026 -0.574771 -0.530247 0
M  V30 6348 H 606.61 -1.77289 -0.804788 0
M  V30 6349 H 604.781 -2.02902 -3.31188 0
M  V30 6350 H 606.513 -2.27397 -3.34773 0
M  V30 6351 H 603.268 -4.06909 -2.42327 0
M  V30 6352 H 603.692 -6.56926 -1.63638 0
M  V30 6353 H 608.334 -3.69588 -2.05341 0
M  V30 6354 H 606.052 -8.01982 -0.992482 0
M  V30 6355 H 609.638 -5.66595 -1.32143 0
M  V30 6356 H 608.518 -7.80114 -0.799493 0
M  V30 6357 N 606.021 0.929856 -1.27246 0
M  V30 6358 C 606.951 2.04722 -1.12299 0
M  V30 6359 C 607.932 1.70082 -0.0250464 0
M  V30 6360 O 609.117 1.93176 -0.199141 0
M  V30 6361 C 606.247 3.38721 -0.767145 0
M  V30 6362 C 605.201 3.87466 -1.81808 0
M  V30 6363 C 604.527 5.18246 -1.31626 0
M  V30 6364 C 605.827 4.11095 -3.22177 0
M  V30 6365 H 607.521 2.17485 -2.05769 0
M  V30 6366 H 605.067 1.04503 -0.990715 0
M  V30 6367 H 607.02 4.16366 -0.649413 0
M  V30 6368 H 605.744 3.25967 0.203259 0
M  V30 6369 H 604.403 3.12012 -1.92468 0
M  V30 6370 H 604.051 5.01881 -0.335378 0
M  V30 6371 H 603.751 5.51829 -2.01887 0
M  V30 6372 H 605.275 5.98462 -1.21143 0
M  V30 6373 H 606.689 4.79316 -3.1453 0
M  V30 6374 H 605.086 4.55982 -3.90129 0
M  V30 6375 H 606.156 3.16468 -3.67391 0
M  V30 6376 N 607.499 1.09233 1.13605 0
M  V30 6377 C 608.745 0.828385 1.8511 0
M  V30 6378 C 609.078 -0.64437 1.83198 0
M  V30 6379 O 608.353 -1.47428 1.26867 0
M  V30 6380 C 608.636 1.36167 3.33363 0
M  V30 6381 C 608.489 2.90038 3.438 0
M  V30 6382 C 609.808 0.993819 4.28732 0
M  V30 6383 H 606.927 0.30239 0.672108 0
M  V30 6384 H 609.569 1.35339 1.33355 0
M  V30 6385 H 607.719 0.9151 3.77569 0
M  V30 6386 H 609.391 3.43128 3.08319 0
M  V30 6387 H 607.634 3.27271 2.84739 0
M  V30 6388 H 608.305 3.22428 4.48045 0
M  V30 6389 H 610.781 1.37893 3.92587 0
M  V30 6390 H 609.657 1.39403 5.30903 0
M  V30 6391 H 609.918 -0.0982206 4.41991 0
M  V30 6392 N 608.977 -1.30795 0.87923 0
M  V30 6393 C 609.91 -2.26396 0.286404 0
M  V30 6394 C 610.888 -1.51528 -0.589748 0
M  V30 6395 O 612.072 -1.80566 -0.541119 0
M  V30 6396 C 609.199 -3.33458 -0.593581 0
M  V30 6397 C 608.245 -4.2597 0.21247 0
M  V30 6398 S 609.078 -5.11132 1.59702 0
M  V30 6399 C 610.234 -6.21705 0.723408 0
M  V30 6400 H 610.467 -2.7633 1.09677 0
M  V30 6401 H 608 -1.38703 0.678305 0
M  V30 6402 H 609.958 -3.9561 -1.09557 0
M  V30 6403 H 608.619 -2.82259 -1.37799 0
M  V30 6404 H 607.812 -5.01907 -0.458822 0
M  V30 6405 H 607.414 -3.68363 0.646883 0
M  V30 6406 H 609.706 -6.77472 -0.0620739 0
M  V30 6407 H 610.649 -6.93007 1.4542 0
M  V30 6408 H 611.057 -5.63771 0.286855 0
M  V30 6409 N 610.455 -0.639598 -1.44038 0
M  V30 6410 C 611.365 0.0612377 -2.3452 0
M  V30 6411 C 612.381 0.826717 -1.53106 0
M  V30 6412 O 613.557 0.777059 -1.85806 0
M  V30 6413 C 610.622 1.02492 -3.31204 0
M  V30 6414 C 609.683 0.25788 -4.28525 0
M  V30 6415 C 608.916 1.17566 -5.2059 0
M  V30 6416 O 609.139 2.41461 -5.16771 0
M  V30 6417 O 608.073 0.655407 -5.98321 0
M  V30 6418 H 611.899 -0.68318 -2.95916 0
M  V30 6419 H 609.484 -0.399784 -1.43952 0
M  V30 6420 H 611.366 1.57911 -3.90694 0
M  V30 6421 H 610.041 1.7498 -2.7233 0
M  V30 6422 H 608.948 -0.339566 -3.72556 0
M  V30 6423 H 610.281 -0.427154 -4.90343 0
M  V30 6424 N 611.933 1.52934 -0.380664 0
M  V30 6425 C 612.843 2.29921 0.466192 0
M  V30 6426 C 613.859 1.36488 1.07922 0
M  V30 6427 O 615.035 1.69553 1.0869 0
M  V30 6428 C 612.1 3.08468 1.58266 0
M  V30 6429 C 611.161 4.17595 0.995627 0
M  V30 6430 C 610.394 4.92387 2.05889 0
M  V30 6431 O 610.617 4.67184 3.27254 0
M  V30 6432 O 609.551 5.77949 1.68102 0
M  V30 6433 H 613.377 3.03274 -0.160735 0
M  V30 6434 H 610.962 1.48698 -0.144617 0
M  V30 6435 H 612.844 3.57469 2.23145 0
M  V30 6436 H 611.519 2.37937 2.19471 0
M  V30 6437 H 610.426 3.72811 0.310332 0
M  V30 6438 H 611.759 4.90336 0.427918 0
M  V30 6439 N 613.412 0.11024 1.57214 0
M  V30 6440 C 614.359 -0.843195 2.14846 0
M  V30 6441 C 615.329 -1.26954 1.07107 0
M  V30 6442 O 616.514 -1.34861 1.34971 0
M  V30 6443 C 613.654 -2.09123 2.74521 0
M  V30 6444 C 612.767 -1.71404 3.96541 0
M  V30 6445 C 611.902 -2.91107 4.44331 0
M  V30 6446 C 610.941 -2.49586 5.58903 0
M  V30 6447 N 610.078 -3.62175 6.01477 0
M  V30 6448 H 614.918 -0.344886 2.95998 0
M  V30 6449 H 612.455 -0.15855 1.46243 0
M  V30 6450 H 614.413 -2.82234 3.07246 0
M  V30 6451 H 613.043 -2.56427 1.96074 0
M  V30 6452 H 612.095 -0.88201 3.70033 0
M  V30 6453 H 613.407 -1.36884 4.7965 0
M  V30 6454 H 612.561 -3.72454 4.78919 0
M  V30 6455 H 611.3 -3.28848 3.60153 0
M  V30 6456 H 610.305 -1.6667 5.23929 0
M  V30 6457 H 611.53 -2.12973 6.4484 0
M  V30 6458 H 609.476 -3.99605 5.20242 0
M  V30 6459 H 609.393 -3.3155 6.79419 0
M  V30 6460 H 610.661 -4.43987 6.407 0
M  V30 6461 N 614.89 -1.56749 -0.16351 0
M  V30 6462 C 616.118 -1.86577 -0.894233 0
M  V30 6463 C 616.533 -0.696543 -1.75481 0
M  V30 6464 O 615.89 0.334161 -1.79415 0
M  V30 6465 C 615.941 -3.15508 -1.76456 0
M  V30 6466 O 615.662 -4.27926 -0.938685 0
M  V30 6467 C 617.163 -3.58737 -2.60428 0
M  V30 6468 H 614.383 -0.618829 -0.259405 0
M  V30 6469 H 616.927 -2.03863 -0.161259 0
M  V30 6470 H 615.082 -3.00025 -2.45079 0
M  V30 6471 H 615.496 -5.01546 -1.53465 0
M  V30 6472 H 616.97 -4.51832 -3.17099 0
M  V30 6473 H 617.447 -2.83229 -3.35675 0
M  V30 6474 H 618.053 -3.76858 -1.97125 0
M  V30 6475 N 616.368 0.432326 -1.51554 0
M  V30 6476 C 617.318 1.52366 -1.69614 0
M  V30 6477 C 618.302 1.51205 -0.550083 0
M  V30 6478 O 619.494 1.57573 -0.806206 0
M  V30 6479 C 616.623 2.90513 -1.82913 0
M  V30 6480 C 615.709 2.9641 -3.03318 0
M  V30 6481 N 616.1 2.72043 -4.26411 0
M  V30 6482 C 614.398 3.27572 -3.02675 0
M  V30 6483 C 615.099 2.83912 -5.07709 0
M  V30 6484 N 614.075 3.15798 -4.42462 0
M  V30 6485 H 617.877 1.32285 -2.62446 0
M  V30 6486 H 615.391 0.639708 -1.4927 0
M  V30 6487 H 617.388 3.69032 -1.93962 0
M  V30 6488 H 616.048 3.1161 -0.912655 0
M  V30 6489 H 617.059 2.46876 -4.55272 0
M  V30 6490 H 613.736 3.54411 -2.20678 0
M  V30 6491 H 615.126 2.68984 -6.15709 0
M  V30 6492 N 617.846 1.41785 0.688094 0
M  V30 6493 C 619.262 1.24419 0.999608 0
M  V30 6494 C 619.462 0.138868 2.01021 0
M  V30 6495 O 618.518 -0.494283 2.47615 0
M  V30 6496 C 619.831 2.59625 1.51709 0
M  V30 6497 C 621.379 2.66869 1.63554 0
M  V30 6498 C 621.854 4.0241 2.18702 0
M  V30 6499 N 623.345 4.04295 2.26053 0
M  V30 6500 C 624.08 5.05977 2.69768 0
M  V30 6501 N 623.576 6.18047 3.13033 0
M  V30 6502 N 625.369 4.93336 2.69398 0
M  V30 6503 H 617.52 2.12392 0.0187427 0
M  V30 6504 H 619.783 0.945347 0.0708673 0
M  V30 6505 H 619.489 3.41297 0.849059 0
M  V30 6506 H 619.363 2.82628 2.49803 0
M  V30 6507 H 621.75 1.8555 2.29467 0
M  V30 6508 H 621.831 2.47668 0.639857 0
M  V30 6509 H 621.475 4.8418 1.53402 0
M  V30 6510 H 621.405 4.18955 3.19037 0
M  V30 6511 H 623.896 3.23383 1.9553 0
M  V30 6512 H 624.209 6.91498 3.45038 0
M  V30 6513 H 622.554 6.21572 3.10923 0
M  V30 6514 H 625.745 4.04865 2.34952 0
M  V30 6515 H 625.918 5.72717 3.03148 0
M  V30 6516 N 619.324 -0.923095 1.27737 0
M  V30 6517 C 620.572 -1.66797 1.14119 0
M  V30 6518 C 620.893 -1.92479 -0.312541 0
M  V30 6519 O 620.163 -1.53432 -1.218 0
M  V30 6520 H 618.743 -0.618196 0.419336 0
M  V30 6521 H 621.405 -1.10815 1.60331 0
M  V30 6522 H 620.501 -2.63424 1.67374 0
M  V30 6523 N 620.802 -1.09834 -1.13024 0
M  V30 6524 C 621.732 -0.763451 -2.20666 0
M  V30 6525 C 622.713 0.260778 -1.68089 0
M  V30 6526 O 623.898 0.127915 -1.93778 0
M  V30 6527 C 621.028 -0.187744 -3.46792 0
M  V30 6528 C 619.982 -1.14196 -4.12484 0
M  V30 6529 C 619.308 -0.427755 -5.32986 0
M  V30 6530 C 620.608 -2.48607 -4.59338 0
M  V30 6531 H 622.302 -1.66347 -2.48936 0
M  V30 6532 H 619.848 -0.801261 -1.19649 0
M  V30 6533 H 621.801 0.0586375 -4.21359 0
M  V30 6534 H 620.525 0.747485 -3.17931 0
M  V30 6535 H 619.184 -1.37369 -3.3989 0
M  V30 6536 H 618.832 0.511747 -5.0039 0
M  V30 6537 H 618.532 -1.06403 -5.77886 0
M  V30 6538 H 620.056 -0.189772 -6.10305 0
M  V30 6539 H 621.47 -2.29618 -5.25308 0
M  V30 6540 H 619.867 -3.08062 -5.14993 0
M  V30 6541 H 620.937 -3.09062 -3.73642 0
M  V30 6542 N 622.28 1.30327 -0.886154 0
M  V30 6543 C 623.51 1.99964 -0.519421 0
M  V30 6544 C 623.918 1.66593 0.89686 0
M  V30 6545 O 623.261 0.899886 1.60149 0
M  V30 6546 C 623.323 3.54187 -0.615795 0
M  V30 6547 C 622.987 4.11078 -1.9966 0
M  V30 6548 C 623.984 4.26985 -2.96614 0
M  V30 6549 C 621.669 4.46429 -2.30231 0
M  V30 6550 C 623.663 4.77456 -4.22273 0
M  V30 6551 C 621.35 4.966 -3.56135 0
M  V30 6552 C 622.348 5.12066 -4.5197 0
M  V30 6553 O 622.036 5.61154 -5.7564 0
M  V30 6554 H 621.768 0.645979 -0.199217 0
M  V30 6555 H 624.322 1.67154 -1.19368 0
M  V30 6556 H 622.552 3.86528 0.115448 0
M  V30 6557 H 624.241 4.05065 -0.26017 0
M  V30 6558 H 625.007 3.99975 -2.74308 0
M  V30 6559 H 620.886 4.33658 -1.56404 0
M  V30 6560 H 624.43 4.89444 -4.97082 0
M  V30 6561 H 620.327 5.23045 -3.78277 0
M  V30 6562 H 621.095 5.79494 -5.78039 0
M  V30 6563 N 623.758 0.647228 1.43697 0
M  V30 6564 C 625.174 0.314256 1.56476 0
M  V30 6565 C 625.374 -1.18191 1.63196 0
M  V30 6566 O 624.43 -1.96655 1.58376 0
M  V30 6567 C 625.743 1.02034 2.82859 0
M  V30 6568 C 627.291 1.00002 2.96595 0
M  V30 6569 C 627.766 1.68689 4.25803 0
M  V30 6570 N 629.257 1.65424 4.32654 0
M  V30 6571 C 629.992 2.1545 5.31384 0
M  V30 6572 N 629.488 2.73738 6.36427 0
M  V30 6573 N 631.281 2.05985 5.22998 0
M  V30 6574 H 623.432 1.61821 1.37578 0
M  V30 6575 H 625.695 0.680184 0.660344 0
M  V30 6576 H 625.401 2.07542 2.83935 0
M  V30 6577 H 625.275 0.568146 3.72897 0
M  V30 6578 H 627.662 -0.0466319 2.95063 0
M  V30 6579 H 627.743 1.49086 2.07863 0
M  V30 6580 H 627.387 2.73308 4.28095 0
M  V30 6581 H 627.317 1.17076 5.13421 0
M  V30 6582 H 629.808 1.22884 3.57363 0
M  V30 6583 H 630.121 3.09602 7.08072 0
M  V30 6584 H 628.466 2.77796 6.37067 0
M  V30 6585 H 631.657 1.60157 4.39849 0
M  V30 6586 H 631.83 2.45281 5.99784 0
M  V30 6587 N 625.236 -1.5273 0.388769 0
M  V30 6588 C 626.461 -2.0647 -0.19621 0
M  V30 6589 C 626.886 -1.25865 -1.39784 0
M  V30 6590 O 626.244 -0.283562 -1.79069 0
M  V30 6591 C 626.292 -3.56456 -0.5451 0
M  V30 6592 O 625.396 -3.78426 -1.63912 0
M  V30 6593 H 624.737 -0.663599 -0.023067 0
M  V30 6594 H 627.267 -1.96898 0.556084 0
M  V30 6595 H 627.277 -3.99888 -0.809557 0
M  V30 6596 H 625.952 -4.14561 0.333417 0
M  V30 6597 H 624.529 -3.46884 -1.36842 0
M  V30 6598 N 626.714 -0.118576 -1.57153 0
M  V30 6599 C 627.624 0.845484 -2.18835 0
M  V30 6600 C 628.64 1.29299 -1.16438 0
M  V30 6601 O 629.816 1.35607 -1.48905 0
M  V30 6602 C 626.881 2.07795 -2.77529 0
M  V30 6603 C 625.942 1.6824 -3.9496 0
M  V30 6604 C 625.175 2.85612 -4.50845 0
M  V30 6605 O 625.398 4.01025 -4.05629 0
M  V30 6606 O 624.332 2.62721 -5.41536 0
M  V30 6607 H 628.158 0.350568 -3.0167 0
M  V30 6608 H 625.743 0.107013 -1.49016 0
M  V30 6609 H 627.625 2.79978 -3.14945 0
M  V30 6610 H 626.3 2.56294 -1.97725 0
M  V30 6611 H 625.207 0.931663 -3.62313 0
M  V30 6612 H 626.54 1.24484 -4.76198 0
M  V30 6613 N 628.193 1.56834 0.155195 0
M  V30 6614 C 629.126 1.9278 1.22111 0
M  V30 6615 C 630.104 0.792588 1.41975 0
M  V30 6616 O 631.288 1.04743 1.5672 0
M  V30 6617 C 628.415 2.19273 2.58142 0
M  V30 6618 C 627.461 3.41932 2.54921 0
M  V30 6619 S 628.294 4.95769 2.02418 0
M  V30 6620 C 629.45 5.25375 3.40194 0
M  V30 6621 H 629.683 2.82889 0.914393 0
M  V30 6622 H 627.216 1.50133 0.360461 0
M  V30 6623 H 629.174 2.35217 3.36427 0
M  V30 6624 H 627.835 1.29843 2.86007 0
M  V30 6625 H 627.028 3.57721 3.55038 0
M  V30 6626 H 626.63 3.25188 1.8474 0
M  V30 6627 H 628.922 5.1834 4.36268 0
M  V30 6628 H 629.865 6.26889 3.29266 0
M  V30 6629 H 630.273 4.52906 3.36951 0
M  V30 6630 N 629.671 -0.424282 1.51781 0
M  V30 6631 C 630.621 -1.51464 1.70419 0
M  V30 6632 C 631.605 -1.50911 0.558094 0
M  V30 6633 O 632.797 -1.57143 0.814552 0
M  V30 6634 C 629.926 -2.89539 1.84451 0
M  V30 6635 C 629.012 -2.94798 3.04886 0
M  V30 6636 N 629.403 -2.69778 4.27848 0
M  V30 6637 C 627.701 -3.25962 3.04408 0
M  V30 6638 C 628.402 -2.81216 5.09208 0
M  V30 6639 N 627.378 -3.13447 4.44131 0
M  V30 6640 H 631.18 -1.30892 2.63144 0
M  V30 6641 H 628.694 -0.631783 1.49607 0
M  V30 6642 H 630.691 -3.67998 1.95917 0
M  V30 6643 H 629.351 -3.11121 0.929168 0
M  V30 6644 H 630.362 -2.44458 4.56575 0
M  V30 6645 H 627.039 -3.53236 2.22555 0
M  V30 6646 H 628.429 -2.65715 6.17127 0
M  V30 6647 N 631.149 -1.42148 -0.680565 0
M  V30 6648 C 632.079 -1.4796 -1.80638 0
M  V30 6649 C 633.06 -0.336728 -1.66734 0
M  V30 6650 O 634.245 -0.550247 -1.86242 0
M  V30 6651 C 631.375 -1.37569 -3.18892 0
M  V30 6652 C 630.329 -2.49823 -3.47524 0
M  V30 6653 C 629.655 -2.24491 -4.85291 0
M  V30 6654 C 630.955 -3.92144 -3.44994 0
M  V30 6655 H 632.649 -2.42184 -1.76032 0
M  V30 6656 H 630.195 -1.16566 -0.845481 0
M  V30 6657 H 632.148 -1.40243 -3.97379 0
M  V30 6658 H 630.872 -0.398357 -3.24162 0
M  V30 6659 H 629.531 -2.46455 -2.71395 0
M  V30 6660 H 629.179 -1.25066 -4.87204 0
M  V30 6661 H 628.879 -2.99722 -5.05411 0
M  V30 6662 H 630.403 -2.28906 -5.66069 0
M  V30 6663 H 631.817 -3.97145 -4.13459 0
M  V30 6664 H 630.214 -4.67179 -3.76648 0
M  V30 6665 H 631.284 -4.19225 -2.43676 0
M  V30 6666 N 632.627 0.916307 -1.28225 0
M  V30 6667 C 633.557 2.0352 -1.14464 0
M  V30 6668 C 634.538 1.70045 -0.0430844 0
M  V30 6669 O 635.723 1.92954 -0.219619 0
M  V30 6670 C 632.853 3.37889 -0.803027 0
M  V30 6671 C 631.807 3.85516 -1.85908 0
M  V30 6672 C 631.133 5.1682 -1.37116 0
M  V30 6673 C 632.433 4.07655 -3.26519 0
M  V30 6674 H 634.127 2.1529 -2.08064 0
M  V30 6675 H 631.673 1.03446 -1.00174 0
M  V30 6676 H 633.626 4.15654 -0.693537 0
M  V30 6677 H 632.35 3.26164 0.168674 0
M  V30 6678 H 631.009 3.09953 -1.95767 0
M  V30 6679 H 630.657 5.01497 -0.38859 0
M  V30 6680 H 630.357 5.49657 -2.07728 0
M  V30 6681 H 631.881 5.97143 -1.27484 0
M  V30 6682 H 633.295 4.75953 -3.19596 0
M  V30 6683 H 631.692 4.51818 -3.94943 0
M  V30 6684 H 632.762 3.12553 -3.70727 0
M  V30 6685 N 634.105 1.10431 1.1244 0
M  V30 6686 C 635.33 0.869089 1.88313 0
M  V30 6687 C 635.755 -0.574912 1.79099 0
M  V30 6688 O 635.113 -1.40496 1.14589 0
M  V30 6689 C 635.161 1.32208 3.3549 0
M  V30 6690 O 634.265 0.487092 4.09513 0
M  V30 6691 H 633.606 0.313894 0.585121 0
M  V30 6692 H 636.136 1.47111 1.42195 0
M  V30 6693 H 636.146 1.31201 3.86329 0
M  V30 6694 H 634.821 2.37364 3.41513 0
M  V30 6695 H 633.398 0.562372 3.68635 0
M  V30 6696 N 635.583 -1.29855 0.893053 0
M  V30 6697 C 636.829 -1.96116 0.516349 0
M  V30 6698 C 637.162 -1.70281 -0.933695 0
M  V30 6699 O 636.437 -1.01205 -1.66096 0
M  V30 6700 C 636.72 -3.51068 0.801455 0
M  V30 6701 C 636.573 -3.86387 2.30272 0
M  V30 6702 C 637.892 -4.39186 0.283423 0
M  V30 6703 H 635.011 -0.712335 0.189072 0
M  V30 6704 H 637.653 -1.53587 1.11852 0
M  V30 6705 H 635.803 -3.87424 0.288949 0
M  V30 6706 H 637.475 -3.60012 2.88425 0
M  V30 6707 H 635.718 -3.34167 2.76613 0
M  V30 6708 H 636.389 -4.94512 2.45279 0
M  V30 6709 H 638.865 -4.09785 0.722187 0
M  V30 6710 H 637.741 -5.46505 0.512169 0
M  V30 6711 H 638.002 -4.34511 -0.815643 0
M  V30 6712 N 637.061 -0.65484 -1.43351 0
M  V30 6713 C 638.472 -0.248506 -1.85039 0
M  V30 6714 C 638.823 1.20526 -1.54816 0
M  V30 6715 O 637.948 1.92016 -0.99794 0
M  V30 6716 C 638.543 -0.444241 -3.35875 0
M  V30 6717 C 637.102 -0.0922108 -3.76287 0
M  V30 6718 C 636.249 -0.746327 -2.67068 0
M  V30 6719 H 639.2 -0.8584 -1.33481 0
M  V30 6720 H 639.221 0.309762 -3.79237 0
M  V30 6721 H 638.733 -1.50239 -3.5784 0
M  V30 6722 H 636.834 0.96328 -3.59933 0
M  V30 6723 H 636.947 -0.518807 -4.76283 0
M  V30 6724 H 635.311 -0.179416 -2.54067 0
M  V30 6725 H 636.094 -1.80754 -2.91861 0
M  V30 6726 N 638.539 1.52521 -0.396863 0
M  V30 6727 C 639.449 2.30403 0.44178 0
M  V30 6728 C 640.465 1.37625 1.06468 0
M  V30 6729 O 641.641 1.70697 1.06886 0
M  V30 6730 C 638.706 3.1013 1.54986 0
M  V30 6731 C 637.767 4.18628 0.951279 0
M  V30 6732 C 637 4.94543 2.00655 0
M  V30 6733 O 637.223 4.70629 3.22281 0
M  V30 6734 O 636.157 5.797 1.61962 0
M  V30 6735 H 639.983 3.03087 -0.192892 0
M  V30 6736 H 637.568 1.48537 -0.16038 0
M  V30 6737 H 639.45 3.59816 2.19341 0
M  V30 6738 H 638.125 2.40251 2.16935 0
M  V30 6739 H 637.032 3.73119 0.270773 0
M  V30 6740 H 638.365 4.90763 0.375887 0
M  V30 6741 N 640.017 0.126909 1.57088 0
M  V30 6742 C 641.257 -0.53216 1.97351 0
M  V30 6743 C 641.621 -1.63342 1.00913 0
M  V30 6744 O 642.822 -2.35194 1.30144 0
M  V30 6745 C 641.093 -1.04385 3.41817 0
M  V30 6746 S 642.652 -1.71033 4.04095 0
M  V30 6747 H 639.47 -0.172724 0.689701 0
M  V30 6748 H 642.072 0.213865 1.94327 0
M  V30 6749 H 640.776 -0.231289 4.09748 0
M  V30 6750 H 640.307 -1.82496 3.48509 0
M  V30 6751 H 642.322 -2.99656 3.95501 0
M  V30 6752 N 641.495 -1.56914 -0.146875 0
M  V30 6753 C 642.72 -1.87881 -0.878386 0
M  V30 6754 C 643.145 -0.715945 -1.73942 0
M  V30 6755 O 642.503 0.334447 -1.78189 0
M  V30 6756 C 642.551 -3.17431 -1.71084 0
M  V30 6757 O 641.655 -3.01374 -2.81509 0
M  V30 6758 H 640.996 -0.617289 -0.244644 0
M  V30 6759 H 643.526 -2.04136 -0.137654 0
M  V30 6760 H 643.536 -3.49455 -2.10582 0
M  V30 6761 H 642.211 -4.01671 -1.07856 0
M  V30 6762 H 640.788 -2.80758 -2.45416 0
M  V30 6763 N 642.974 0.416227 -1.52004 0
M  V30 6764 C 643.921 1.50666 -1.74838 0
M  V30 6765 C 644.891 1.55245 -0.590599 0
M  V30 6766 O 646.076 1.71928 -0.827374 0
M  V30 6767 C 643.216 2.88185 -1.89851 0
M  V30 6768 C 642.329 2.92971 -3.17478 0
M  V30 6769 C 641.464 4.21745 -3.22962 0
M  V30 6770 C 640.503 4.20478 -4.4482 0
M  V30 6771 N 639.64 5.40811 -4.47736 0
M  V30 6772 H 644.48 1.30498 -2.67907 0
M  V30 6773 H 642.017 0.633568 -1.32757 0
M  V30 6774 H 643.975 3.68007 -1.96537 0
M  V30 6775 H 642.605 3.06865 -1.00169 0
M  V30 6776 H 641.657 2.05684 -3.19997 0
M  V30 6777 H 642.969 2.87899 -4.07328 0
M  V30 6778 H 642.123 5.09954 -3.28682 0
M  V30 6779 H 640.862 4.29503 -2.31038 0
M  V30 6780 H 639.867 3.30659 -4.39254 0
M  V30 6781 H 641.092 4.14366 -5.38031 0
M  V30 6782 H 639.038 5.4925 -3.58692 0
M  V30 6783 H 638.955 5.37705 -5.31422 0
M  V30 6784 H 640.223 6.30993 -4.57676 0
M  V30 6785 N 644.452 1.42507 0.673017 0
M  V30 6786 C 645.382 1.48916 1.79851 0
M  V30 6787 C 646.363 0.345566 1.66553 0
M  V30 6788 O 647.548 0.560116 1.85947 0
M  V30 6789 C 644.678 1.39258 3.18158 0
M  V30 6790 C 643.632 2.51662 3.46194 0
M  V30 6791 C 642.958 2.27062 4.84094 0
M  V30 6792 C 644.258 3.93968 3.42909 0
M  V30 6793 H 645.952 2.43114 1.74745 0
M  V30 6794 H 643.498 1.17013 0.839288 0
M  V30 6795 H 645.451 1.42349 3.96629 0
M  V30 6796 H 644.175 0.415542 3.23946 0
M  V30 6797 H 642.834 2.47891 2.70084 0
M  V30 6798 H 642.482 1.27648 4.86534 0
M  V30 6799 H 642.182 3.02398 5.03815 0
M  V30 6800 H 643.706 2.31905 5.64847 0
M  V30 6801 H 645.12 3.99332 4.11347 0
M  V30 6802 H 643.517 4.6917 3.74165 0
M  V30 6803 H 644.587 4.20512 2.41449 0
M  V30 6804 N 645.93 -0.909495 1.28709 0
M  V30 6805 C 647.341 -1.47419 1.14563 0
M  V30 6806 C 647.692 -1.94432 -0.262832 0
M  V30 6807 O 646.817 -1.82842 -1.15748 0
M  V30 6808 C 647.412 -2.67933 2.07358 0
M  V30 6809 C 645.971 -3.20568 1.97264 0
M  V30 6810 C 645.118 -1.93269 1.98852 0
M  V30 6811 H 648.069 -0.721787 1.41336 0
M  V30 6812 H 648.09 -3.43339 1.64007 0
M  V30 6813 H 647.602 -2.33685 3.09859 0
M  V30 6814 H 645.703 -3.59531 0.978157 0
M  V30 6815 H 645.816 -3.85529 2.84436 0
M  V30 6816 H 644.18 -2.10553 1.43317 0
M  V30 6817 H 644.963 -1.61312 3.0304 0
M  V30 6818 N 647.408 -1.11026 -1.11852 0
M  V30 6819 C 648.633 -0.879064 -1.87849 0
M  V30 6820 C 649.058 0.565406 -1.79401 0
M  V30 6821 O 648.416 1.39886 -1.15333 0
M  V30 6822 C 648.464 -1.33985 -3.34784 0
M  V30 6823 O 647.568 -0.508803 -4.09249 0
M  V30 6824 H 646.909 -0.316992 -0.583448 0
M  V30 6825 H 649.439 -1.47863 -1.41413 0
M  V30 6826 H 649.449 -1.33248 -3.85628 0
M  V30 6827 H 648.124 -2.39172 -3.40249 0
M  V30 6828 H 646.701 -0.581913 -3.68332 0
M  V30 6829 N 648.886 1.2938 -0.899927 0
M  V30 6830 C 649.819 2.25911 -0.322386 0
M  V30 6831 C 650.797 1.52447 0.565567 0
M  V30 6832 O 651.981 1.81404 0.512324 0
M  V30 6833 C 649.108 3.3436 0.540455 0
M  V30 6834 C 648.154 4.25579 -0.280211 0
M  V30 6835 S 648.987 5.08526 -1.67814 0
M  V30 6836 C 650.143 6.20476 -0.822224 0
M  V30 6837 H 650.376 2.7455 -1.1406 0
M  V30 6838 H 647.909 1.37606 -0.700285 0
M  V30 6839 H 649.867 3.97303 1.0325 0
M  V30 6840 H 648.528 2.84416 1.33291 0
M  V30 6841 H 647.721 5.02574 0.378915 0
M  V30 6842 H 647.323 3.67287 -0.705405 0
M  V30 6843 H 649.615 6.77485 -0.0457138 0
M  V30 6844 H 650.558 6.90606 -1.56426 0
M  V30 6845 H 650.966 5.63243 -0.37651 0
M  V30 6846 N 650.364 0.662433 1.43002 0
M  V30 6847 C 651.314 -0.0460442 2.27954 0
M  V30 6848 C 652.298 -0.785753 1.40409 0
M  V30 6849 O 653.49 -0.666701 1.63964 0
M  V30 6850 C 650.619 -1.00532 3.2825 0
M  V30 6851 C 649.705 -0.263604 4.2328 0
M  V30 6852 N 650.096 0.724855 5.00579 0
M  V30 6853 C 648.394 -0.503778 4.43146 0
M  V30 6854 C 649.095 1.16594 5.69895 0
M  V30 6855 N 648.071 0.498345 5.41311 0
M  V30 6856 H 651.873 0.712314 2.85137 0
M  V30 6857 H 649.387 0.490469 1.54817 0
M  V30 6858 H 651.384 -1.52775 3.87899 0
M  V30 6859 H 650.044 -1.76364 2.72628 0
M  V30 6860 H 651.055 1.10393 5.05998 0
M  V30 6861 H 647.732 -1.24255 3.98581 0
M  V30 6862 H 649.122 1.98434 6.4193 0
M  V30 6863 N 651.842 -1.52309 0.404946 0
M  V30 6864 C 653.088 -2.02731 -0.164857 0
M  V30 6865 C 653.443 -1.28543 -1.43159 0
M  V30 6866 O 652.736 -0.381883 -1.87756 0
M  V30 6867 C 652.93 -3.54284 -0.470895 0
M  V30 6868 C 652.759 -4.43152 0.764625 0
M  V30 6869 C 651.529 -4.88594 1.28858 0
M  V30 6870 C 653.727 -4.874 1.64152 0
M  V30 6871 N 651.709 -5.61577 2.48001 0
M  V30 6872 C 653.08 -5.59121 2.67924 0
M  V30 6873 C 655.135 -4.69421 1.65978 0
M  V30 6874 C 653.838 -6.14772 3.73427 0
M  V30 6875 C 655.864 -5.25966 2.70396 0
M  V30 6876 C 655.226 -5.97606 3.7289 0
M  V30 6877 H 651.325 -0.78169 -0.0220025 0
M  V30 6878 H 653.909 -1.86522 0.558354 0
M  V30 6879 H 652.08 -3.70574 -1.16315 0
M  V30 6880 H 653.812 -3.91394 -1.02921 0
M  V30 6881 H 650.567 -4.6596 0.847232 0
M  V30 6882 H 650.991 -6.02712 3.08329 0
M  V30 6883 H 655.633 -4.13524 0.88079 0
M  V30 6884 H 653.351 -6.69743 4.52184 0
M  V30 6885 H 656.937 -5.13926 2.72711 0
M  V30 6886 H 655.817 -6.40577 4.52361 0
M  V30 6887 N 653.32 -0.135238 -1.57019 0
M  V30 6888 C 654.597 0.563227 -1.87316 0
M  V30 6889 C 654.977 1.83749 -1.03921 0
M  V30 6890 O 654.325 2.2817 -0.122675 0
M  V30 6891 C 654.535 0.840031 -3.3874 0
M  V30 6892 C 655.883 1.18598 -4.077 0
M  V30 6893 O 656.907 0.92977 -3.43851 0
M  V30 6894 O 655.766 1.66758 -5.20436 0
M  V30 6895 H 652.86 0.285971 -0.775983 0
M  V30 6896 H 655.406 -0.170965 -1.68837 0
M  V30 6897 H 654.178 -0.0622785 -3.9125 0
M  V30 6898 H 653.801 1.62882 -3.62706 0
M  V30 6899 N 654.798 1.5699 0.138552 0
M  V30 6900 C 656.209 1.73171 0.697754 0
M  V30 6901 C 656.56 0.750952 1.8126 0
M  V30 6902 O 655.685 -0.080549 2.1625 0
M  V30 6903 C 656.28 3.13996 1.27248 0
M  V30 6904 C 654.839 3.3175 1.77816 0
M  V30 6905 C 653.986 2.69084 0.669991 0
M  V30 6906 H 656.937 1.5846 -0.0871979 0
M  V30 6907 H 656.958 3.14463 2.14227 0
M  V30 6908 H 656.47 3.85354 0.460855 0
M  V30 6909 H 654.571 2.65403 2.61519 0
M  V30 6910 H 654.684 4.39768 1.90107 0
M  V30 6911 H 653.048 2.29782 1.09874 0
M  V30 6912 H 653.831 3.43053 -0.130329 0
M  V30 6913 N 656.276 -0.40816 1.52223 0
M  V30 6914 C 657.504 -1.17672 1.70179 0
M  V30 6915 C 657.919 -1.84257 0.411696 0
M  V30 6916 O 657.276 -1.7192 -0.612354 0
M  V30 6917 C 657.327 -2.23911 2.83806 0
M  V30 6918 O 657.048 -1.60044 4.0782 0
M  V30 6919 C 658.549 -3.1364 3.13281 0
M  V30 6920 H 655.769 -0.353562 0.570293 0
M  V30 6921 H 658.313 -0.480083 1.98785 0
M  V30 6922 H 656.468 -2.89242 2.57717 0
M  V30 6923 H 656.882 -2.30484 4.71145 0
M  V30 6924 H 658.356 -3.84255 3.96298 0
M  V30 6925 H 658.833 -3.76066 2.26872 0
M  V30 6926 H 659.439 -2.53977 3.41139 0
M  V30 6927 N 657.755 -1.42862 -0.66545 0
M  V30 6928 C 658.718 -1.46756 -1.76055 0
M  V30 6929 C 659.718 -0.353866 -1.56858 0
M  V30 6930 O 660.908 -0.615099 -1.62979 0
M  V30 6931 C 658.04 -1.30829 -3.14796 0
M  V30 6932 H 659.233 -2.44271 -1.73987 0
M  V30 6933 H 656.786 -1.29447 -0.875965 0
M  V30 6934 H 657.521 -0.342733 -3.22484 0
M  V30 6935 H 657.306 -2.11551 -3.30134 0
M  V30 6936 H 658.796 -1.36458 -3.94676 0
M  V30 6937 N 659.233 0.902656 -1.29189 0
M  V30 6938 C 660.473 1.6672 -1.18254 0
M  V30 6939 C 660.837 1.90199 0.262336 0
M  V30 6940 O 662.038 2.6421 0.494612 0
M  V30 6941 C 660.309 2.98178 -1.9704 0
M  V30 6942 S 661.868 3.89226 -2.02605 0
M  V30 6943 H 658.686 0.572432 -0.421714 0
M  V30 6944 H 661.288 1.07279 -1.63436 0
M  V30 6945 H 659.992 2.788 -3.01163 0
M  V30 6946 H 659.523 3.62661 -1.5245 0
M  V30 6947 H 661.538 4.82913 -1.14059 0
M  V30 6948 N 660.711 1.11618 1.11262 0
M  V30 6949 C 661.674 0.779447 2.15539 0
M  V30 6950 C 662.674 -0.202081 1.59525 0
M  V30 6951 O 663.864 0.0226356 1.74185 0
M  V30 6952 C 660.996 0.15674 3.40539 0
M  V30 6953 H 662.189 1.70324 2.4684 0
M  V30 6954 H 659.742 0.918298 1.26479 0
M  V30 6955 H 660.477 -0.777186 3.1485 0
M  V30 6956 H 660.262 0.863308 3.82478 0
M  V30 6957 H 661.752 -0.062661 4.17553 0
M  V30 6958 N 662.189 -1.289 0.906776 0
M  V30 6959 C 663.605 -1.47733 0.603902 0
M  V30 6960 C 663.805 -1.82568 -0.852702 0
M  V30 6961 O 662.861 -1.92642 -1.63234 0
M  V30 6962 C 664.174 -2.58522 1.53581 0
M  V30 6963 C 665.722 -2.72394 1.54177 0
M  V30 6964 C 666.197 -3.86318 2.46013 0
M  V30 6965 N 667.688 -3.93661 2.441 0
M  V30 6966 C 668.423 -4.81177 3.11859 0
M  V30 6967 N 667.919 -5.73333 3.88923 0
M  V30 6968 N 669.712 -4.74728 3.00981 0
M  V30 6969 H 661.863 -1.04567 1.84877 0
M  V30 6970 H 664.126 -0.520118 0.792579 0
M  V30 6971 H 663.832 -2.39667 2.57396 0
M  V30 6972 H 663.706 -3.55475 1.26165 0
M  V30 6973 H 666.093 -2.90641 0.511034 0
M  V30 6974 H 666.174 -1.75993 1.85634 0
M  V30 6975 H 665.818 -3.68826 3.49185 0
M  V30 6976 H 665.748 -4.82102 2.11862 0
M  V30 6977 H 668.239 -3.27751 1.88115 0
M  V30 6978 H 668.552 -6.36923 4.37663 0
M  V30 6979 H 666.897 -5.73196 3.93029 0
M  V30 6980 H 670.088 -4.01722 2.40286 0
M  V30 6981 H 670.261 -5.42719 3.54062 0
M  V30 6982 N 663.667 -0.670007 -1.42649 0
M  V30 6983 C 664.597 -0.00258501 -2.335 0
M  V30 6984 C 665.578 0.794364 -1.50412 0
M  V30 6985 O 666.763 0.75248 -1.79029 0
M  V30 6986 C 663.893 0.952748 -3.33976 0
M  V30 6987 C 662.847 0.264733 -4.2718 0
M  V30 6988 C 662.173 1.33267 -5.17826 0
M  V30 6989 C 663.473 -0.853289 -5.15283 0
M  V30 6990 H 665.167 -0.761326 -2.89559 0
M  V30 6991 H 662.713 -0.367561 -1.3923 0
M  V30 6992 H 664.666 1.4287 -3.96442 0
M  V30 6993 H 663.39 1.74285 -2.7621 0
M  V30 6994 H 662.049 -0.190938 -3.66102 0
M  V30 6995 H 661.697 2.11464 -4.5639 0
M  V30 6996 H 661.397 0.877476 -5.81011 0
M  V30 6997 H 662.921 1.80965 -5.83167 0
M  V30 6998 H 664.335 -0.458763 -5.71462 0
M  V30 6999 H 662.732 -1.23398 -5.87276 0
M  V30 7000 H 663.802 -1.70412 -4.53969 0
M  V30 7001 N 665.145 1.52092 -0.413018 0
M  V30 7002 C 666.556 1.86617 0.0556967 0
M  V30 7003 C 666.907 1.33156 1.44097 0
M  V30 7004 O 666.032 0.672417 2.05688 0
M  V30 7005 C 666.627 3.38628 0.107844 0
M  V30 7006 C 665.186 3.72778 0.520904 0
M  V30 7007 C 664.333 2.75649 -0.302109 0
M  V30 7008 H 667.284 1.45663 -0.629919 0
M  V30 7009 H 667.305 3.69152 0.922324 0
M  V30 7010 H 666.817 3.77508 -0.900506 0
M  V30 7011 H 664.918 3.39478 1.53575 0
M  V30 7012 H 665.031 4.7838 0.262591 0
M  V30 7013 H 663.395 2.53603 0.236115 0
M  V30 7014 H 664.178 3.17369 -1.30888 0
M  V30 7015 N 666.623 0.143563 1.56945 0
M  V30 7016 C 667.573 -0.809115 2.1316 0
M  V30 7017 C 668.557 -1.21176 1.05855 0
M  V30 7018 O 669.749 -1.17875 1.3204 0
M  V30 7019 C 666.878 -2.04957 2.75405 0
M  V30 7020 C 665.964 -1.67018 3.89828 0
M  V30 7021 N 666.355 -0.998822 4.9584 0
M  V30 7022 C 664.653 -1.96313 4.00471 0
M  V30 7023 C 665.354 -0.816217 5.75945 0
M  V30 7024 N 664.33 -1.349 5.26596 0
M  V30 7025 H 668.132 -0.286919 2.92496 0
M  V30 7026 H 665.646 -0.0580948 1.62296 0
M  V30 7027 H 667.643 -2.74201 3.14037 0
M  V30 7028 H 666.303 -2.57697 1.97541 0
M  V30 7029 H 667.314 -0.659975 5.13678 0
M  V30 7030 H 663.991 -2.50927 3.33679 0
M  V30 7031 H 665.381 -0.287353 6.71285 0
M  V30 7032 N 668.101 -1.57061 -0.130224 0
M  V30 7033 C 669.031 -2.02552 -1.16168 0
M  V30 7034 C 670.012 -0.907971 -1.4384 0
M  V30 7035 O 671.197 -1.17693 -1.54473 0
M  V30 7036 C 668.327 -2.42035 -2.49071 0
M  V30 7037 C 667.281 -3.5713 -2.35886 0
M  V30 7038 C 666.607 -3.82478 -3.7365 0
M  V30 7039 C 667.907 -4.89236 -1.8288 0
M  V30 7040 H 669.601 -2.8897 -0.783359 0
M  V30 7041 H 667.147 -1.39021 -0.375376 0
M  V30 7042 H 669.1 -2.72462 -3.21469 0
M  V30 7043 H 667.824 -1.52573 -2.88771 0
M  V30 7044 H 666.483 -3.26895 -1.65938 0
M  V30 7045 H 666.131 -2.9024 -4.10816 0
M  V30 7046 H 665.831 -4.59944 -3.65685 0
M  V30 7047 H 667.355 -4.15347 -4.47571 0
M  V30 7048 H 668.769 -5.18272 -2.45085 0
M  V30 7049 H 667.166 -5.70624 -1.85763 0
M  V30 7050 H 668.236 -4.78494 -0.785571 0
M  V30 7051 N 669.579 0.400081 -1.52437 0
M  V30 7052 C 670.856 1.15973 -1.57511 0
M  V30 7053 C 671.236 2.0798 -0.361572 0
M  V30 7054 O 670.584 2.19032 0.650929 0
M  V30 7055 C 670.794 1.92912 -2.90837 0
M  V30 7056 C 672.142 2.48662 -3.44169 0
M  V30 7057 O 673.166 2.03081 -2.92637 0
M  V30 7058 O 672.025 3.31894 -4.34176 0
M  V30 7059 H 669.119 0.530023 -0.634827 0
M  V30 7060 H 671.665 0.40613 -1.64769 0
M  V30 7061 H 670.437 1.25564 -3.70607 0
M  V30 7062 H 670.06 2.75257 -2.86913 0
M  V30 7063 N 671.057 1.43213 0.657864 0
M  V30 7064 C 672.287 1.478 1.44356 0
M  V30 7065 C 672.695 0.0930206 1.88971 0
M  V30 7066 O 672.038 -0.906089 1.59799 0
M  V30 7067 C 672.1 2.35745 2.71412 0
M  V30 7068 C 671.764 3.83359 2.48767 0
M  V30 7069 C 672.761 4.74585 2.12285 0
M  V30 7070 C 670.446 4.27799 2.63235 0
M  V30 7071 C 672.44 6.08247 1.90562 0
M  V30 7072 C 670.127 5.61516 2.41128 0
M  V30 7073 C 671.125 6.51557 2.04847 0
M  V30 7074 O 670.813 7.82802 1.82967 0
M  V30 7075 H 670.545 0.504363 0.450104 0
M  V30 7076 H 673.099 1.88572 0.814241 0
M  V30 7077 H 671.329 1.89852 3.36887 0
M  V30 7078 H 673.018 2.31589 3.33348 0
M  V30 7079 H 673.784 4.41531 2.00687 0
M  V30 7080 H 669.663 3.57993 2.90451 0
M  V30 7081 H 673.207 6.78489 1.62168 0
M  V30 7082 H 669.104 5.94139 2.52327 0
M  V30 7083 H 669.872 7.94332 1.97429 0
M  V30 7084 N 672.536 -0.895792 1.29666 0
M  V30 7085 C 673.484 -2.02173 1.15017 0
M  V30 7086 C 674.478 -1.69276 0.0647651 0
M  V30 7087 O 675.684 -1.7859 0.224846 0
M  V30 7088 H 672.059 -0.662719 0.355397 0
M  V30 7089 H 674.03 -2.11666 2.10334 0
M  V30 7090 C 672.779 -3.37212 0.847555 0
M  V30 7091 H 672.102 -3.6303 1.67479 0
M  V30 7092 H 673.542 -4.16668 0.785106 0
M  V30 7093 C 672.001 -3.33891 -0.44929 0
M  V30 7094 O 672.531 -3.73673 -1.47415 0
M  V30 7095 N 670.737 -2.86991 -0.456547 0
M  V30 7096 H 670.284 -2.54813 0.377925 0
M  V30 7097 H 670.242 -2.85152 -1.32423 0
M  V30 7098 N 674.014 -1.12206 -1.10668 0
M  V30 7099 C 674.961 -0.787716 -2.16942 0
M  V30 7100 C 675.931 0.244442 -1.64291 0
M  V30 7101 O 677.116 0.119558 -1.90425 0
M  V30 7102 C 674.256 -0.24584 -3.44223 0
M  V30 7103 C 673.369 -1.33552 -4.10838 0
M  V30 7104 C 672.504 -0.753337 -5.25831 0
M  V30 7105 C 671.543 -1.82231 -5.84344 0
M  V30 7106 N 670.68 -1.25902 -6.90719 0
M  V30 7107 H 675.52 -1.69809 -2.44885 0
M  V30 7108 H 673.057 -0.847862 -1.20207 0
M  V30 7109 H 675.015 0.0863639 -4.17111 0
M  V30 7110 H 673.645 0.627702 -3.16638 0
M  V30 7111 H 672.697 -1.78454 -3.35944 0
M  V30 7112 H 674.009 -2.14396 -4.50373 0
M  V30 7113 H 673.163 -0.37166 -6.05561 0
M  V30 7114 H 671.902 0.0863297 -4.87624 0
M  V30 7115 H 670.907 -2.2132 -5.03287 0
M  V30 7116 H 672.132 -2.66515 -6.24617 0
M  V30 7117 H 670.078 -0.44114 -6.54515 0
M  V30 7118 H 669.995 -2.00408 -7.28953 0
M  V30 7119 H 671.263 -0.904498 -7.74235 0
M  V30 7120 N 675.492 1.28418 -0.913599 0
M  V30 7121 C 676.402 2.31043 -0.406965 0
M  V30 7122 C 677.418 1.66501 0.505298 0
M  V30 7123 O 678.594 1.97558 0.391522 0
M  V30 7124 C 675.659 3.4498 0.344901 0
M  V30 7125 C 674.72 4.25078 -0.600563 0
M  V30 7126 C 673.953 5.33575 0.115516 0
M  V30 7127 O 674.176 5.54503 1.33727 0
M  V30 7128 O 673.11 5.9939 -0.549095 0
M  V30 7129 H 676.936 2.76387 -1.25873 0
M  V30 7130 H 674.521 1.33109 -0.678415 0
M  V30 7131 H 676.403 4.14314 0.769542 0
M  V30 7132 H 675.078 3.01719 1.1725 0
M  V30 7133 H 673.985 3.58334 -1.0746 0
M  V30 7134 H 675.318 4.72018 -1.39497 0
M  V30 7135 N 676.97 0.677563 1.42291 0
M  V30 7136 C 677.918 -0.0106755 2.32598 0
M  V30 7137 C 678.912 -0.787643 1.49975 0
M  V30 7138 O 680.118 -0.695295 1.66029 0
M  V30 7139 H 676.493 -0.0222482 0.751671 0
M  V30 7140 H 678.464 0.768312 2.88339 0
M  V30 7141 C 677.213 -0.946142 3.3458 0
M  V30 7142 H 676.536 -0.357701 3.98197 0
M  V30 7143 H 677.976 -1.39634 4.00348 0
M  V30 7144 C 676.435 -2.05383 2.67057 0
M  V30 7145 O 676.965 -3.1406 2.50458 0
M  V30 7146 N 675.171 -1.82635 2.26038 0
M  V30 7147 H 674.718 -0.942534 2.39737 0
M  V30 7148 H 674.676 -2.56937 1.81192 0
M  V30 7149 N 678.448 -1.51871 0.421078 0
M  V30 7150 C 679.378 -2.30231 -0.389363 0
M  V30 7151 C 680.359 -1.34946 -1.03555 0
M  V30 7152 O 681.544 -1.63859 -1.04229 0
M  V30 7153 C 678.674 -3.13247 -1.49979 0
M  V30 7154 C 677.628 -4.16677 -0.977966 0
M  V30 7155 C 676.954 -4.88112 -2.1829 0
M  V30 7156 C 678.254 -5.22295 -0.0236775 0
M  V30 7157 H 679.948 -2.98229 0.264524 0
M  V30 7158 H 677.494 -1.43424 0.12866 0
M  V30 7159 H 679.447 -3.66838 -2.07383 0
M  V30 7160 H 678.171 -2.4304 -2.18173 0
M  V30 7161 H 676.83 -3.64114 -0.426245 0
M  V30 7162 H 676.478 -4.14423 -2.85066 0
M  V30 7163 H 676.178 -5.58041 -1.84021 0
M  V30 7164 H 677.702 -5.44521 -2.76278 0
M  V30 7165 H 679.116 -5.71055 -0.506899 0
M  V30 7166 H 677.513 -5.99656 0.230782 0
M  V30 7167 H 678.583 -4.76131 0.917999 0
M  V30 7168 N 679.926 -0.151884 -1.56866 0
M  V30 7169 C 680.873 0.785936 -2.17006 0
M  V30 7170 C 681.843 1.2407 -1.10435 0
M  V30 7171 O 683.028 1.31235 -1.38499 0
M  V30 7172 C 680.168 2.01771 -2.79969 0
M  V30 7173 C 679.281 1.6083 -4.00946 0
M  V30 7174 C 678.416 2.79224 -4.51893 0
M  V30 7175 C 677.455 2.3468 -5.65324 0
M  V30 7176 N 676.592 3.461 -6.10867 0
M  V30 7177 H 681.432 0.266286 -2.96808 0
M  V30 7178 H 678.969 0.11972 -1.46612 0
M  V30 7179 H 680.927 2.73989 -3.14621 0
M  V30 7180 H 679.557 2.51139 -2.02803 0
M  V30 7181 H 678.609 0.783592 -3.72242 0
M  V30 7182 H 679.921 1.24119 -4.83111 0
M  V30 7183 H 679.075 3.59625 -4.88625 0
M  V30 7184 H 677.814 3.19183 -3.68746 0
M  V30 7185 H 676.819 1.52721 -5.28163 0
M  V30 7186 H 678.044 1.95801 -6.5026 0
M  V30 7187 H 675.99 3.85671 -5.30654 0
M  V30 7188 H 675.907 3.1342 -6.87971 0
M  V30 7189 H 677.175 4.26844 -6.52246 0
M  V30 7190 N 681.404 1.57128 0.121893 0
M  V30 7191 C 682.632 1.88883 0.844451 0
M  V30 7192 C 683.047 0.742824 1.73573 0
M  V30 7193 O 682.404 -0.286475 1.80238 0
M  V30 7194 C 682.455 3.20076 1.68029 0
M  V30 7195 O 682.176 4.30264 0.824898 0
M  V30 7196 C 683.677 3.65515 2.50826 0
M  V30 7197 H 680.897 0.62549 0.242907 0
M  V30 7198 H 683.441 2.04219 0.107151 0
M  V30 7199 H 681.596 3.06418 2.37038 0
M  V30 7200 H 682.01 5.05439 1.40113 0
M  V30 7201 H 683.484 4.60081 3.05008 0
M  V30 7202 H 683.961 2.92029 3.28048 0
M  V30 7203 H 684.567 3.81952 1.87064 0
M  V30 7204 N 682.882 -0.391992 1.52647 0
M  V30 7205 C 684.129 -1.13732 1.67545 0
M  V30 7206 C 684.457 -1.90045 0.413881 0
M  V30 7207 O 683.712 -1.86157 -0.603646 0
M  V30 7208 C 684.011 -2.14401 2.85949 0
M  V30 7209 C 683.677 -1.54767 4.23507 0
M  V30 7210 C 682.339 -1.38229 4.60919 0
M  V30 7211 C 684.691 -1.11382 5.0916 0
M  V30 7212 C 682.019 -0.7685 5.81645 0
M  V30 7213 C 684.371 -0.514143 6.30507 0
M  V30 7214 C 683.035 -0.33604 6.66654 0
M  V30 7215 H 682.305 -0.416174 0.613091 0
M  V30 7216 H 684.952 -0.422327 1.86785 0
M  V30 7217 H 683.257 -2.92108 2.61114 0
M  V30 7218 H 684.954 -2.71974 2.94671 0
M  V30 7219 H 681.544 -1.68626 3.94035 0
M  V30 7220 H 685.728 -1.22962 4.80826 0
M  V30 7221 H 680.984 -0.618681 6.08262 0
M  V30 7222 H 685.158 -0.169657 6.96193 0
M  V30 7223 H 682.785 0.14166 7.60068 0
M  V30 7224 N 684.36 -1.4356 -0.65026 0
M  V30 7225 C 685.771 -1.40324 -1.2315 0
M  V30 7226 C 686.122 -0.108812 -1.95898 0
M  V30 7227 O 685.247 0.79163 -2.01401 0
M  V30 7228 C 685.842 -2.54195 -2.23987 0
M  V30 7229 C 684.401 -2.54215 -2.77582 0
M  V30 7230 C 683.548 -2.31752 -1.5227 0
M  V30 7231 H 686.499 -1.52418 -0.442095 0
M  V30 7232 H 686.52 -2.25854 -3.0622 0
M  V30 7233 H 686.032 -3.48392 -1.71011 0
M  V30 7234 H 684.133 -1.63907 -3.34612 0
M  V30 7235 H 684.246 -3.52081 -3.24925 0
M  V30 7236 H 682.61 -1.80476 -1.79723 0
M  V30 7237 H 683.393 -3.28037 -1.01225 0
M  V30 7238 N 685.838 0.888903 -1.30139 0
M  V30 7239 C 687.249 1.45578 -1.16893 0
M  V30 7240 C 687.6 1.94825 0.231866 0
M  V30 7241 O 686.725 1.84661 1.12824 0
M  V30 7242 C 687.32 2.646 -2.11595 0
M  V30 7243 C 685.879 3.17389 -2.02339 0
M  V30 7244 C 685.026 1.90081 -2.01902 0
M  V30 7245 H 687.977 0.69921 -1.42467 0
M  V30 7246 H 687.998 3.40687 -1.69449 0
M  V30 7247 H 687.51 2.28726 -3.13538 0
M  V30 7248 H 685.611 3.5793 -1.03523 0
M  V30 7249 H 685.724 3.80955 -2.90534 0
M  V30 7250 H 684.088 2.08246 -1.46648 0
M  V30 7251 H 684.871 1.5647 -3.05568 0
M  V30 7252 N 687.317 1.12792 1.10072 0
M  V30 7253 C 688.25 0.742921 2.15768 0
M  V30 7254 C 689.228 -0.267714 1.60381 0
M  V30 7255 O 690.412 -0.160782 1.87813 0
M  V30 7256 C 687.539 0.100244 3.38552 0
M  V30 7257 C 686.585 1.07831 4.12644 0
M  V30 7258 S 687.418 2.60765 4.6772 0
M  V30 7259 C 688.574 1.97838 5.9381 0
M  V30 7260 H 688.807 1.63822 2.48092 0
M  V30 7261 H 686.34 0.947385 1.21918 0
M  V30 7262 H 688.298 -0.264175 4.09649 0
M  V30 7263 H 686.959 -0.772223 3.04459 0
M  V30 7264 H 686.152 0.576325 5.00694 0
M  V30 7265 H 685.754 1.38586 3.47376 0
M  V30 7266 H 688.046 1.32341 6.64449 0
M  V30 7267 H 688.989 2.83943 6.48677 0
M  V30 7268 H 689.397 1.43267 5.46017 0
M  V30 7269 N 688.795 -1.27931 0.920396 0
M  V30 7270 C 690.023 -1.98805 0.573087 0
M  V30 7271 C 690.438 -1.68724 -0.847201 0
M  V30 7272 O 689.795 -0.943699 -1.56207 0
M  V30 7273 C 689.846 -3.52971 0.780633 0
M  V30 7274 O 689.567 -3.81994 2.14504 0
M  V30 7275 C 691.068 -4.411 0.44105 0
M  V30 7276 H 688.288 -0.634651 0.21785 0
M  V30 7277 H 690.832 -1.62965 1.23542 0
M  V30 7278 H 688.987 -3.87048 0.165204 0
M  V30 7279 H 689.401 -4.76609 2.18962 0
M  V30 7280 H 690.875 -5.48312 0.637006 0
M  V30 7281 H 691.352 -4.34758 -0.62306 0
M  V30 7282 H 691.958 -4.12532 1.0343 0
M  V30 7283 N 690.273 -0.685099 -1.4193 0
M  V30 7284 C 691.498 -0.218842 -2.06242 0
M  V30 7285 C 691.923 1.11923 -1.51178 0
M  V30 7286 O 691.281 1.69837 -0.634446 0
M  V30 7287 C 691.329 -0.175592 -3.60172 0
M  V30 7288 O 690.433 0.852776 -4.03487 0
M  V30 7289 H 689.774 -0.109531 -0.654904 0
M  V30 7290 H 692.304 -0.937013 -1.81882 0
M  V30 7291 H 692.314 -0.00291151 -4.08 0
M  V30 7292 H 690.989 -1.15222 -3.99621 0
M  V30 7293 H 689.566 0.650301 -3.67186 0
M  V30 7294 N 691.751 1.51645 -0.429126 0
M  V30 7295 C 692.976 2.06917 0.141399 0
M  V30 7296 C 693.401 1.29527 1.36398 0
M  V30 7297 O 692.759 0.33094 1.78254 0
M  V30 7298 C 692.807 3.57776 0.4504 0
M  V30 7299 O 691.911 3.82639 1.53821 0
M  V30 7300 H 691.252 0.663978 0.0054647 0
M  V30 7301 H 693.782 1.95355 -0.608093 0
M  V30 7302 H 693.792 4.01894 0.703249 0
M  V30 7303 H 692.467 4.13532 -0.443213 0
M  V30 7304 H 691.044 3.5039 1.27597 0
M  V30 7305 N 693.229 0.160201 1.56784 0
M  V30 7306 C 694.176 -0.774416 2.1742 0
M  V30 7307 C 695.146 -1.23483 1.11091 0
M  V30 7308 O 696.331 -1.30499 1.39193 0
M  V30 7309 C 693.471 -2.00283 2.81035 0
M  V30 7310 C 692.584 -1.58701 4.01793 0
M  V30 7311 C 691.719 -2.76824 4.53367 0
M  V30 7312 C 690.758 -2.31679 5.66561 0
M  V30 7313 N 689.895 -3.42856 6.12694 0
M  V30 7314 H 694.735 -0.250542 2.96945 0
M  V30 7315 H 692.272 -0.111943 1.46673 0
M  V30 7316 H 694.23 -2.72316 3.16069 0
M  V30 7317 H 692.86 -2.5006 2.04132 0
M  V30 7318 H 691.912 -0.76384 3.72652 0
M  V30 7319 H 693.224 -1.21555 4.83762 0
M  V30 7320 H 692.378 -3.57029 4.90525 0
M  V30 7321 H 691.117 -3.17223 3.70433 0
M  V30 7322 H 690.122 -1.49917 5.28966 0
M  V30 7323 H 691.347 -1.9235 6.5129 0
M  V30 7324 H 689.293 -3.82852 5.32692 0
M  V30 7325 H 689.21 -3.09767 6.89624 0
M  V30 7326 H 690.478 -4.23379 6.545 0
M  V30 7327 N 694.707 -1.5719 -0.113559 0
M  V30 7328 C 696.118 -1.74259 -0.670116 0
M  V30 7329 C 696.469 -0.779694 -1.80042 0
M  V30 7330 O 695.594 0.0461353 -2.16351 0
M  V30 7331 C 696.189 -3.15981 -1.22236 0
M  V30 7332 C 694.748 -3.34537 -1.72516 0
M  V30 7333 C 693.895 -2.70116 -0.627098 0
M  V30 7334 H 696.846 -1.58301 0.112396 0
M  V30 7335 H 696.867 -3.17832 -2.09197 0
M  V30 7336 H 696.379 -3.86038 -0.39949 0
M  V30 7337 H 694.48 -2.6953 -2.57263 0
M  V30 7338 H 694.593 -4.42737 -1.83086 0
M  V30 7339 H 692.957 -2.31501 -1.06204 0
M  V30 7340 H 693.74 -3.42802 0.184889 0
M  V30 7341 N 696.185 0.383891 -1.52853 0
M  V30 7342 C 697.41 1.154 -1.7233 0
M  V30 7343 C 697.835 1.82809 -0.44298 0
M  V30 7344 O 697.193 1.71026 0.601645 0
M  V30 7345 C 697.241 2.17386 -2.87708 0
M  V30 7346 O 696.345 3.24082 -2.55038 0
M  V30 7347 H 695.686 0.335709 -0.572883 0
M  V30 7348 H 698.216 0.44662 -1.99666 0
M  V30 7349 H 698.226 2.61296 -3.1335 0
M  V30 7350 H 696.901 1.6771 -3.80587 0
M  V30 7351 H 695.478 2.85273 -2.40153 0
M  V30 7352 N 697.663 1.43903 0.642637 0
M  V30 7353 C 698.909 1.46296 1.40447 0
M  V30 7354 C 699.242 0.0908361 1.93987 0
M  V30 7355 O 698.517 -0.889884 1.72949 0
M  V30 7356 C 698.8 2.51399 2.57819 0
M  V30 7357 C 698.653 3.97926 2.09702 0
M  V30 7358 C 699.972 2.53125 3.60022 0
M  V30 7359 H 697.091 0.532676 0.509338 0
M  V30 7360 H 699.733 1.75515 0.727635 0
M  V30 7361 H 697.883 2.26614 3.1556 0
M  V30 7362 H 699.555 4.33804 1.5688 0
M  V30 7363 H 697.798 4.10252 1.40982 0
M  V30 7364 H 698.469 4.67096 2.94152 0
M  V30 7365 H 700.945 2.75242 3.12059 0
M  V30 7366 H 699.821 3.28589 4.39682 0
M  V30 7367 H 700.082 1.56895 4.13324 0
M  V30 7368 N 699.141 -0.881989 1.30609 0
M  V30 7369 C 700.418 -1.61563 1.10258 0
M  V30 7370 C 700.798 -2.08228 -0.347053 0
M  V30 7371 O 700.146 -1.85151 -1.33908 0
M  V30 7372 C 700.356 -2.78287 2.10612 0
M  V30 7373 C 701.704 -3.48545 2.4249 0
M  V30 7374 O 702.728 -2.88479 2.08945 0
M  V30 7375 O 701.587 -4.56873 2.99883 0
M  V30 7376 H 698.681 -0.710238 0.423663 0
M  V30 7377 H 701.227 -0.928503 1.42045 0
M  V30 7378 H 699.999 -2.41131 3.08174 0
M  V30 7379 H 699.622 -3.54695 1.79659 0
M  V30 7380 N 700.619 -1.13374 -1.09472 0
M  V30 7381 C 701.868 -0.889844 -1.8101 0
M  V30 7382 C 702.181 0.585686 -1.86625 0
M  V30 7383 O 703.387 0.946497 -2.54467 0
M  V30 7384 C 701.843 -1.54241 -3.25174 0
M  V30 7385 C 701.451 -3.05343 -3.27826 0
M  V30 7386 C 703.195 -1.37919 -4.0147 0
M  V30 7387 C 701.102 -3.63486 -4.6651 0
M  V30 7388 H 700.032 -0.329256 -0.678311 0
M  V30 7389 H 702.683 -1.36139 -1.23038 0
M  V30 7390 H 701.065 -0.998525 -3.83204 0
M  V30 7391 H 702.239 -3.66307 -2.79563 0
M  V30 7392 H 700.554 -3.21175 -2.65019 0
M  V30 7393 H 703.151 -1.78771 -5.03929 0
M  V30 7394 H 703.494 -0.323987 -4.15037 0
M  V30 7395 H 704.027 -1.89284 -3.49881 0
M  V30 7396 H 700.766 -4.68811 -4.58145 0
M  V30 7397 H 700.286 -3.073 -5.15099 0
M  V30 7398 H 701.965 -3.63134 -5.35484 0
M  V30 7399 N 702.098 1.27442 -0.927168 0
M  V30 7400 C 703.509 1.76385 -0.611979 0
M  V30 7401 C 703.86 1.75715 0.872853 0
M  V30 7402 O 702.985 1.3603 1.683 0
M  V30 7403 C 703.58 3.20303 -1.10414 0
M  V30 7404 C 702.139 3.66916 -0.839628 0
M  V30 7405 C 701.286 2.46859 -1.26317 0
M  V30 7406 H 704.237 1.13716 -1.107 0
M  V30 7407 H 704.258 3.77811 -0.451578 0
M  V30 7408 H 703.77 3.20759 -2.18484 0
M  V30 7409 H 701.871 3.71906 0.227292 0
M  V30 7410 H 701.984 4.56415 -1.45679 0
M  V30 7411 H 700.348 2.45407 -0.681723 0
M  V30 7412 H 701.131 2.50025 -2.3525 0
M  V30 7413 N 703.576 0.692616 1.41565 0
M  V30 7414 C 704.524 0.0139952 2.32596 0
M  V30 7415 C 705.518 -0.771691 1.50802 0
M  V30 7416 O 706.724 -0.677646 1.66757 0
M  V30 7417 H 703.099 -0.0142745 0.751865 0
M  V30 7418 H 705.07 0.798851 2.87508 0
M  V30 7419 C 703.819 -0.910602 3.35564 0
M  V30 7420 H 703.142 -0.315446 3.98554 0
M  V30 7421 H 704.582 -1.3538 4.01806 0
M  V30 7422 C 703.041 -2.02539 2.6922 0
M  V30 7423 O 703.571 -3.11386 2.53775 0
M  V30 7424 N 701.777 -1.80227 2.27962 0
M  V30 7425 H 701.324 -0.917054 2.40724 0
M  V30 7426 H 701.282 -2.55001 1.83907 0
M  V30 7427 N 705.054 -1.51416 0.437162 0
M  V30 7428 C 705.984 -2.30631 -0.364922 0
M  V30 7429 C 706.965 -1.36037 -1.02118 0
M  V30 7430 O 708.15 -1.64956 -1.02485 0
M  V30 7431 C 705.28 -3.1482 -1.46648 0
M  V30 7432 C 704.234 -4.17691 -0.933717 0
M  V30 7433 C 703.56 -4.904 -2.13101 0
M  V30 7434 C 704.86 -5.2229 0.0317201 0
M  V30 7435 H 706.554 -2.97932 0.29614 0
M  V30 7436 H 704.1 -1.4328 0.143865 0
M  V30 7437 H 706.053 -3.69017 -2.03481 0
M  V30 7438 H 704.777 -2.4534 -2.15583 0
M  V30 7439 H 703.436 -3.64545 -0.387602 0
M  V30 7440 H 703.084 -4.17423 -2.80654 0
M  V30 7441 H 702.784 -5.59962 -1.78092 0
M  V30 7442 H 704.308 -5.4742 -2.70487 0
M  V30 7443 H 705.722 -5.7156 -0.446302 0
M  V30 7444 H 704.119 -5.99378 0.29437 0
M  V30 7445 H 705.189 -4.75131 0.968447 0
M  V30 7446 N 706.532 -0.168513 -1.56696 0
M  V30 7447 C 707.943 0.348694 -1.83415 0
M  V30 7448 C 708.294 1.63257 -1.0882 0
M  V30 7449 O 707.419 2.13707 -0.340333 0
M  V30 7450 C 708.014 0.639423 -3.32711 0
M  V30 7451 C 706.573 1.10108 -3.59935 0
M  V30 7452 C 705.72 0.135464 -2.76969 0
M  V30 7453 H 708.671 -0.392829 -1.53761 0
M  V30 7454 H 708.692 1.49179 -3.50037 0
M  V30 7455 H 708.204 -0.295173 -3.86976 0
M  V30 7456 H 706.305 2.05088 -3.11079 0
M  V30 7457 H 706.418 1.01218 -4.68286 0
M  V30 7458 H 704.782 0.632286 -2.46727 0
M  V30 7459 H 705.565 -0.793104 -3.34013 0
M  V30 7460 N 708.01 1.57248 0.105221 0
M  V30 7461 C 709.235 1.90143 0.828264 0
M  V30 7462 C 709.66 0.761811 1.71983 0
M  V30 7463 O 709.018 -0.287086 1.79013 0
M  V30 7464 C 709.066 3.21856 1.62608 0
M  V30 7465 O 708.17 3.08732 2.7342 0
M  V30 7466 H 707.511 0.623558 0.228192 0
M  V30 7467 H 710.041 2.0443 0.0834826 0
M  V30 7468 H 710.051 3.54916 2.01243 0
M  V30 7469 H 708.726 4.0439 0.971687 0
M  V30 7470 H 707.303 2.87167 2.37886 0
M  V30 7471 N 709.488 -0.375779 1.53054 0
M  V30 7472 C 710.713 -1.14484 1.7294 0
M  V30 7473 C 711.138 -1.82572 0.452668 0
M  V30 7474 O 710.496 -1.71343 -0.592567 0
M  V30 7475 C 710.544 -2.15857 2.88857 0
M  V30 7476 O 709.648 -3.22725 2.56753 0
M  V30 7477 H 708.989 -0.332666 0.574656 0
M  V30 7478 H 711.519 -0.436025 1.999 0
M  V30 7479 H 711.529 -2.59631 3.14731 0
M  V30 7480 H 710.204 -1.65689 3.81471 0
M  V30 7481 H 708.781 -2.83996 2.41663 0
M  V30 7482 N 710.966 -1.44241 -0.634997 0
M  V30 7483 C 712.191 -1.50516 -1.42687 0
M  V30 7484 C 712.616 -0.129864 -1.87651 0
M  V30 7485 O 711.974 0.880164 -1.58502 0
M  V30 7486 C 712.022 -2.4714 -2.62591 0
M  V30 7487 O 711.126 -1.97025 -3.62291 0
M  V30 7488 H 710.467 -0.50841 -0.427101 0
M  V30 7489 H 712.997 -1.89337 -0.775408 0
M  V30 7490 H 713.007 -2.65048 -3.10183 0
M  V30 7491 H 711.682 -3.47039 -2.29209 0
M  V30 7492 H 710.259 -1.88866 -3.21534 0
M  V30 7493 N 712.444 0.87505 -1.31075 0
M  V30 7494 C 713.669 1.66583 -1.23551 0
M  V30 7495 C 714.094 1.87067 0.19686 0
M  V30 7496 O 713.452 1.40877 1.1412 0
M  V30 7497 C 713.5 3.01401 -1.97965 0
M  V30 7498 O 712.604 3.90923 -1.31351 0
M  V30 7499 H 711.945 0.508645 -0.426821 0
M  V30 7500 H 714.475 1.09139 -1.7306 0
M  V30 7501 H 714.485 3.51374 -2.07366 0
M  V30 7502 H 713.16 2.85812 -3.02133 0
M  V30 7503 H 711.737 3.49369 -1.30368 0
M  V30 7504 N 713.922 1.13953 1.08869 0
M  V30 7505 C 715.147 0.928559 1.85452 0
M  V30 7506 C 715.572 -0.517642 1.80837 0
M  V30 7507 O 714.93 -1.36779 1.19001 0
M  V30 7508 C 714.978 1.42814 3.31114 0
M  V30 7509 O 714.082 0.617129 4.07756 0
M  V30 7510 H 713.423 0.33235 0.574839 0
M  V30 7511 H 715.953 1.5156 1.37443 0
M  V30 7512 H 715.963 1.43425 3.8196 0
M  V30 7513 H 714.638 2.48109 3.33788 0
M  V30 7514 H 713.215 0.679365 3.66659 0
M  V30 7515 N 715.4 -1.26948 0.933913 0
M  V30 7516 C 716.625 -1.98724 0.593589 0
M  V30 7517 C 717.05 -1.6915 -0.822801 0
M  V30 7518 O 716.408 -0.93533 -1.5531 0
M  V30 7519 C 716.456 -3.50834 0.833542 0
M  V30 7520 O 715.56 -4.12284 -0.0978788 0
M  V30 7521 H 714.901 -0.623683 0.227849 0
M  V30 7522 H 717.431 -1.61599 1.25486 0
M  V30 7523 H 717.441 -4.01018 0.75156 0
M  V30 7524 H 716.116 -3.71691 1.86597 0
M  V30 7525 H 714.693 -3.72884 0.0345443 0
M  V30 7526 N 716.879 -0.700114 -1.41195 0
M  V30 7527 C 718.126 -0.233006 -2.01155 0
M  V30 7528 C 718.454 1.16883 -1.55462 0
M  V30 7529 O 717.709 1.80395 -0.758695 0
M  V30 7530 C 718.008 -0.243986 -3.56566 0
M  V30 7531 C 717.674 -1.59397 -4.21786 0
M  V30 7532 C 716.336 -1.96355 -4.39316 0
M  V30 7533 C 718.688 -2.48192 -4.58312 0
M  V30 7534 C 716.016 -3.21683 -4.9065 0
M  V30 7535 C 718.368 -3.72857 -5.11039 0
M  V30 7536 C 717.032 -4.09951 -5.26779 0
M  V30 7537 H 716.302 -0.085263 -0.736078 0
M  V30 7538 H 718.949 -0.9001 -1.69028 0
M  V30 7539 H 717.254 0.506663 -3.8851 0
M  V30 7540 H 718.951 0.135031 -4.00773 0
M  V30 7541 H 715.541 -1.29654 -4.08519 0
M  V30 7542 H 719.725 -2.20918 -4.4442 0
M  V30 7543 H 714.981 -3.50412 -5.01021 0
M  V30 7544 H 719.155 -4.41844 -5.38282 0
M  V30 7545 H 716.782 -5.07136 -5.66319 0
M  V30 7546 N 718.357 1.51182 -0.445186 0
M  V30 7547 C 719.582 2.07056 0.119445 0
M  V30 7548 C 720.007 1.30966 1.35016 0
M  V30 7549 O 719.365 0.349827 1.77893 0
M  V30 7550 C 719.413 3.58234 0.412428 0
M  V30 7551 O 718.517 3.84249 1.49754 0
M  V30 7552 H 717.858 0.663998 -0.00157797 0
M  V30 7553 H 720.388 1.94699 -0.628779 0
M  V30 7554 H 720.398 4.02617 0.660583 0
M  V30 7555 H 719.073 4.13038 -0.487049 0
M  V30 7556 H 717.65 3.51724 1.23873 0
M  V30 7557 N 719.835 0.176821 1.56605 0
M  V30 7558 C 721.081 -0.467406 1.9734 0
M  V30 7559 C 721.414 -1.62523 1.06301 0
M  V30 7560 O 720.689 -1.94182 0.11125 0
M  V30 7561 C 720.972 -0.945106 3.47476 0
M  V30 7562 C 720.825 0.213273 4.49294 0
M  V30 7563 C 722.144 -1.8169 4.00845 0
M  V30 7564 H 719.263 -0.168426 0.717497 0
M  V30 7565 H 721.905 0.264065 1.88156 0
M  V30 7566 H 720.055 -1.56841 3.55434 0
M  V30 7567 H 721.727 0.850508 4.53392 0
M  V30 7568 H 719.97 0.867918 4.25029 0
M  V30 7569 H 720.641 -0.163187 5.51759 0
M  V30 7570 H 723.117 -1.29139 3.95553 0
M  V30 7571 H 721.993 -2.12015 5.06301 0
M  V30 7572 H 722.254 -2.76463 3.44994 0
M  V30 7573 N 721.313 -1.57302 -0.09688 0
M  V30 7574 C 722.538 -1.9058 -0.818169 0
M  V30 7575 C 722.963 -0.770921 -1.71576 0
M  V30 7576 O 722.321 0.277588 -1.79162 0
M  V30 7577 C 722.369 -3.22714 -1.60898 0
M  V30 7578 O 721.473 -3.10178 -2.71779 0
M  V30 7579 H 720.814 -0.624759 -0.224882 0
M  V30 7580 H 723.344 -2.04471 -0.07264 0
M  V30 7581 H 723.354 -3.55978 -1.99358 0
M  V30 7582 H 722.029 -4.04899 -0.950227 0
M  V30 7583 H 720.606 -2.88424 -2.3636 0
M  V30 7584 N 722.791 0.367657 -1.53252 0
M  V30 7585 C 724.202 0.944563 -1.61043 0
M  V30 7586 C 724.553 1.90325 -0.476546 0
M  V30 7587 O 723.678 2.12721 0.397333 0
M  V30 7588 C 724.273 1.71992 -2.91898 0
M  V30 7589 C 722.832 2.2462 -3.02031 0
M  V30 7590 C 721.979 1.05799 -2.56324 0
M  V30 7591 H 724.93 0.146516 -1.58022 0
M  V30 7592 H 724.951 2.58095 -2.79584 0
M  V30 7593 H 724.463 1.02192 -3.74404 0
M  V30 7594 H 722.564 2.97668 -2.24108 0
M  V30 7595 H 722.677 2.52644 -4.07073 0
M  V30 7596 H 721.041 1.42435 -2.1115 0
M  V30 7597 H 721.824 0.375008 -3.41246 0
M  V30 7598 N 724.269 1.44576 0.627338 0
M  V30 7599 C 725.497 1.51048 1.41394 0
M  V30 7600 C 725.912 0.136568 1.88305 0
M  V30 7601 O 725.269 -0.858251 1.6106 0
M  V30 7602 C 725.32 2.47837 2.63172 0
M  V30 7603 O 725.041 3.79887 2.18215 0
M  V30 7604 C 726.542 2.63811 3.56257 0
M  V30 7605 H 723.762 0.512171 0.4335 0
M  V30 7606 H 726.306 1.89576 0.766878 0
M  V30 7607 H 724.461 2.12433 3.23961 0
M  V30 7608 H 724.875 4.32177 2.97192 0
M  V30 7609 H 726.349 3.35554 4.38301 0
M  V30 7610 H 726.826 1.69169 4.05313 0
M  V30 7611 H 727.432 3.0013 3.01333 0
M  V30 7612 N 725.747 -0.868086 1.31537 0
M  V30 7613 C 726.977 -1.65162 1.24118 0
M  V30 7614 C 727.385 -1.88187 -0.195558 0
M  V30 7615 O 726.728 -1.44154 -1.13866 0
M  V30 7616 C 726.79 -3.04119 1.91708 0
M  V30 7617 C 726.454 -3.04194 3.4105 0
M  V30 7618 C 727.451 -2.82016 4.36764 0
M  V30 7619 C 725.136 -3.25256 3.82772 0
M  V30 7620 C 727.13 -2.80881 5.72175 0
M  V30 7621 C 724.817 -3.23749 5.18295 0
M  V30 7622 C 725.815 -3.01589 6.12808 0
M  V30 7623 O 725.503 -2.9993 7.45853 0
M  V30 7624 H 725.235 -0.521597 0.430015 0
M  V30 7625 H 727.789 -1.09165 1.73989 0
M  V30 7626 H 726.019 -3.61849 1.36389 0
M  V30 7627 H 727.708 -3.64701 1.78179 0
M  V30 7628 H 728.474 -2.65525 4.05859 0
M  V30 7629 H 724.353 -3.41534 3.09638 0
M  V30 7630 H 727.897 -2.63503 6.45919 0
M  V30 7631 H 723.794 -3.39781 5.48834 0
M  V30 7632 H 724.562 -3.15979 7.55049 0
M  V30 7633 N 727.225 -1.14528 -1.08264 0
M  V30 7634 C 728.45 -0.938381 -1.84957 0
M  V30 7635 C 728.875 0.508044 -1.81109 0
M  V30 7636 O 728.233 1.36146 -1.19724 0
M  V30 7637 C 728.281 -1.44568 -3.30352 0
M  V30 7638 O 727.385 -0.638745 -4.07423 0
M  V30 7639 H 726.726 -0.335394 -0.573068 0
M  V30 7640 H 729.256 -1.52287 -1.36637 0
M  V30 7641 H 729.266 -1.45449 -3.81194 0
M  V30 7642 H 727.941 -2.49876 -3.32468 0
M  V30 7643 H 726.518 -0.698801 -3.66294 0
M  V30 7644 N 728.703 1.26451 -0.940633 0
M  V30 7645 C 729.636 2.24771 -0.394094 0
M  V30 7646 C 730.614 1.54169 0.516781 0
M  V30 7647 O 731.798 1.82942 0.454352 0
M  V30 7648 C 728.925 3.3591 0.433807 0
M  V30 7649 C 727.971 4.24472 -0.415464 0
M  V30 7650 S 728.804 5.0293 -1.83907 0
M  V30 7651 C 729.96 6.17546 -1.01921 0
M  V30 7652 H 730.193 2.70782 -1.22737 0
M  V30 7653 H 727.726 1.35308 -0.743709 0
M  V30 7654 H 729.684 4.00387 0.905576 0
M  V30 7655 H 728.345 2.88512 1.24175 0
M  V30 7656 H 727.538 5.03525 0.218833 0
M  V30 7657 H 727.14 3.64857 -0.821897 0
M  V30 7658 H 729.432 6.76996 -0.261227 0
M  V30 7659 H 730.375 6.8528 -1.78318 0
M  V30 7660 H 730.783 5.6176 -0.555511 0
M  V30 7661 N 730.181 0.707592 1.40822 0
M  V30 7662 C 731.409 0.253073 2.05346 0
M  V30 7663 C 731.824 -1.10218 1.53289 0
M  V30 7664 O 731.181 -1.69112 0.686105 0
M  V30 7665 C 731.232 0.215411 3.60858 0
M  V30 7666 O 730.953 1.51714 4.10992 0
M  V30 7667 C 732.454 -0.258636 4.42545 0
M  V30 7668 H 729.674 0.115256 0.661027 0
M  V30 7669 H 732.218 0.963555 1.80377 0
M  V30 7670 H 730.373 -0.445978 3.84824 0
M  V30 7671 H 730.787 1.41226 5.05129 0
M  V30 7672 H 732.261 -0.233849 5.51504 0
M  V30 7673 H 732.738 -1.2995 4.19535 0
M  V30 7674 H 733.344 0.372186 4.23668 0
M  V30 7675 N 731.66 -1.50943 0.453197 0
M  V30 7676 C 732.906 -2.02512 -0.108082 0
M  V30 7677 C 733.239 -1.33574 -1.40967 0
M  V30 7678 O 732.514 -0.455671 -1.89087 0
M  V30 7679 C 732.797 -3.58759 -0.310453 0
M  V30 7680 C 732.65 -4.38293 1.0109 0
M  V30 7681 C 733.969 -4.26816 -1.07313 0
M  V30 7682 H 731.088 -0.73603 -0.0378064 0
M  V30 7683 H 733.73 -1.80433 0.595295 0
M  V30 7684 H 731.88 -3.77702 -0.909582 0
M  V30 7685 H 733.552 -4.30964 1.64523 0
M  V30 7686 H 731.795 -4.02745 1.61179 0
M  V30 7687 H 732.466 -5.45828 0.82315 0
M  V30 7688 H 734.942 -4.1224 -0.565473 0
M  V30 7689 H 733.818 -5.35989 -1.1835 0
M  V30 7690 H 734.079 -3.88757 -2.10525 0
M  V30 7691 N 733.138 -0.185124 -1.56509 0
M  V30 7692 C 734.387 0.456421 -1.96468 0
M  V30 7693 C 734.7 1.63448 -1.07444 0
M  V30 7694 O 735.906 2.34316 -1.37143 0
M  V30 7695 C 734.362 0.863404 -3.4939 0
M  V30 7696 C 733.97 -0.289815 -4.47062 0
M  V30 7697 C 735.714 1.47259 -3.98139 0
M  V30 7698 C 733.621 0.137571 -5.9124 0
M  V30 7699 H 732.551 0.17429 -0.733579 0
M  V30 7700 H 735.202 -0.275554 -1.81419 0
M  V30 7701 H 733.584 1.65176 -3.59907 0
M  V30 7702 H 734.758 -1.06728 -4.4827 0
M  V30 7703 H 733.073 -0.809851 -4.08449 0
M  V30 7704 H 735.67 1.80463 -5.03326 0
M  V30 7705 H 736.013 2.3755 -3.41871 0
M  V30 7706 H 736.546 0.748405 -3.90696 0
M  V30 7707 H 733.285 -0.730907 -6.51412 0
M  V30 7708 H 732.805 0.8801 -5.93308 0
M  V30 7709 H 734.484 0.576771 -6.44424 0
M  V30 7710 N 734.616 1.57351 0.0885366 0
M  V30 7711 C 735.865 1.85604 0.789556 0
M  V30 7712 C 736.178 0.775352 1.79576 0
M  V30 7713 O 737.384 0.945206 2.54515 0
M  V30 7714 C 735.84 3.29175 1.45506 0
M  V30 7715 C 735.448 4.45331 0.488278 0
M  V30 7716 C 737.192 3.66646 2.13942 0
M  V30 7717 C 735.099 5.79937 1.15874 0
M  V30 7718 H 734.029 0.692346 0.298619 0
M  V30 7719 H 736.68 1.83451 0.0425821 0
M  V30 7720 H 735.062 3.25889 2.24972 0
M  V30 7721 H 736.236 4.59977 -0.275359 0
M  V30 7722 H 734.551 4.16301 -0.0907363 0
M  V30 7723 H 737.148 4.64498 2.6485 0
M  V30 7724 H 737.491 2.956 2.93132 0
M  V30 7725 H 738.024 3.71848 1.41328 0
M  V30 7726 H 734.763 6.54232 0.407508 0
M  V30 7727 H 734.283 5.69123 1.89364 0
M  V30 7728 H 735.962 6.24718 1.68336 0
M  V30 7729 N 736.094 -0.359525 1.53444 0
M  V30 7730 C 737.319 -1.12644 1.74144 0
M  V30 7731 C 737.744 -1.82082 0.472007 0
M  V30 7732 O 737.102 -1.71962 -0.57436 0
M  V30 7733 C 737.15 -2.12781 2.9113 0
M  V30 7734 O 736.254 -3.19984 2.60162 0
M  V30 7735 H 735.595 -0.326553 0.578152 0
M  V30 7736 H 738.125 -0.414798 2.00351 0
M  V30 7737 H 738.135 -2.56278 3.17467 0
M  V30 7738 H 736.81 -1.61634 3.83207 0
M  V30 7739 H 735.387 -2.81417 2.44661 0
M  V30 7740 N 737.572 -1.44907 -0.619662 0
M  V30 7741 C 738.821 -1.47569 -1.37501 0
M  V30 7742 C 739.134 -0.116707 -1.95252 0
M  V30 7743 O 740.34 -0.020909 -2.71492 0
M  V30 7744 C 738.796 -2.59851 -2.49009 0
M  V30 7745 C 738.404 -4.02008 -1.97722 0
M  V30 7746 C 740.148 -2.71746 -3.2612 0
M  V30 7747 C 738.055 -5.05693 -3.0664 0
M  V30 7748 H 736.985 -0.549068 -0.51676 0
M  V30 7749 H 739.636 -1.71009 -0.665437 0
M  V30 7750 H 738.018 -2.29671 -3.22594 0
M  V30 7751 H 739.192 -4.41809 -1.30925 0
M  V30 7752 H 737.507 -3.94456 -1.33392 0
M  V30 7753 H 740.104 -3.46382 -4.07337 0
M  V30 7754 H 740.447 -1.77959 -3.76346 0
M  V30 7755 H 740.98 -3.01392 -2.5963 0
M  V30 7756 H 737.719 -6.01148 -2.61345 0
M  V30 7757 H 737.239 -4.70473 -3.72042 0
M  V30 7758 H 738.918 -5.29906 -3.71226 0
M  V30 7759 N 739.05 0.861098 -1.31996 0
M  V30 7760 C 739.983 1.97266 -1.14724 0
M  V30 7761 C 740.961 1.62528 -0.0483789 0
M  V30 7762 O 742.145 1.87366 -0.206478 0
M  V30 7763 C 739.272 3.30181 -0.754861 0
M  V30 7764 C 738.318 3.839 -1.85804 0
M  V30 7765 S 739.151 4.08274 -3.46515 0
M  V30 7766 C 740.307 5.44174 -3.09235 0
M  V30 7767 H 740.54 2.11614 -2.08822 0
M  V30 7768 H 738.073 1.01232 -1.16582 0
M  V30 7769 H 740.031 4.06996 -0.535232 0
M  V30 7770 H 738.692 3.13655 0.167155 0
M  V30 7771 H 737.885 4.80013 -1.53633 0
M  V30 7772 H 737.487 3.13907 -2.03318 0
M  V30 7773 H 739.779 6.26172 -2.58679 0
M  V30 7774 H 740.722 5.81301 -4.04345 0
M  V30 7775 H 741.13 5.0787 -2.46431 0
M  V30 7776 N 740.528 1.15101 1.07655 0
M  V30 7777 C 741.753 0.948177 1.84457 0
M  V30 7778 C 742.178 -0.498432 1.81376 0
M  V30 7779 O 741.536 -1.35509 1.20445 0
M  V30 7780 C 741.584 1.46318 3.29581 0
M  V30 7781 O 740.688 0.660342 4.07079 0
M  V30 7782 H 740.029 0.338428 0.571281 0
M  V30 7783 H 742.559 1.5301 1.35828 0
M  V30 7784 H 742.569 1.47468 3.80417 0
M  V30 7785 H 741.244 2.51635 3.31138 0
M  V30 7786 H 739.821 0.718216 3.65918 0
M  V30 7787 N 742.006 -1.2595 0.947325 0
M  V30 7788 C 743.231 -1.98083 0.614633 0
M  V30 7789 C 743.656 -1.70013 -0.804815 0
M  V30 7790 O 743.014 -0.95175 -1.54309 0
M  V30 7791 C 743.062 -3.4993 0.870706 0
M  V30 7792 O 742.166 -4.12364 -0.0541451 0
M  V30 7793 H 741.507 -0.621232 0.234451 0
M  V30 7794 H 744.037 -1.60259 1.27193 0
M  V30 7795 H 744.047 -4.00198 0.794051 0
M  V30 7796 H 742.722 -3.69691 1.90529 0
M  V30 7797 H 741.299 -3.72826 0.0740917 0
M  V30 7798 N 743.484 -0.715051 -1.40445 0
M  V30 7799 C 744.731 -0.254328 -2.00897 0
M  V30 7800 C 745.059 1.15228 -1.56693 0
M  V30 7801 O 744.314 1.7958 -0.777786 0
M  V30 7802 C 744.613 -0.281791 -3.56287 0
M  V30 7803 C 744.279 -1.63862 -4.20071 0
M  V30 7804 C 742.941 -2.01003 -4.37208 0
M  V30 7805 C 745.293 -2.53039 -4.55654 0
M  V30 7806 C 742.621 -3.26869 -4.8721 0
M  V30 7807 C 744.973 -3.78256 -5.07055 0
M  V30 7808 C 743.637 -4.15515 -5.22401 0
M  V30 7809 H 742.907 -0.0930652 -0.735133 0
M  V30 7810 H 745.554 -0.917977 -1.68064 0
M  V30 7811 H 743.859 0.465428 -3.89026 0
M  V30 7812 H 745.556 0.0925158 -4.00893 0
M  V30 7813 H 742.146 -1.33979 -4.07121 0
M  V30 7814 H 746.33 -2.2562 -4.42051 0
M  V30 7815 H 741.586 -3.55706 -4.97276 0
M  V30 7816 H 745.76 -4.47528 -5.33565 0
M  V30 7817 H 743.387 -5.13114 -5.60909 0
M  V30 7818 N 744.962 1.50701 -0.461195 0
M  V30 7819 C 745.925 2.2686 0.326679 0
M  V30 7820 C 746.925 1.31243 0.929085 0
M  V30 7821 O 748.115 1.54754 0.799807 0
M  V30 7822 C 745.247 3.07844 1.46441 0
M  V30 7823 H 746.44 2.97954 -0.341095 0
M  V30 7824 H 743.993 1.54814 -0.214984 0
M  V30 7825 H 744.728 2.41223 2.16753 0
M  V30 7826 H 744.513 3.78101 1.03836 0
M  V30 7827 H 746.003 3.65469 2.02044 0
M  V30 7828 N 746.441 0.193421 1.56409 0
M  V30 7829 C 747.69 -0.445995 1.96707 0
M  V30 7830 C 748.003 -1.62876 1.08309 0
M  V30 7831 O 749.209 -2.33586 1.38383 0
M  V30 7832 C 747.665 -0.844863 3.49843 0
M  V30 7833 C 747.273 0.31352 4.46902 0
M  V30 7834 C 749.017 -1.45146 3.98915 0
M  V30 7835 C 746.924 -0.106214 5.91305 0
M  V30 7836 H 745.854 -0.170398 0.734493 0
M  V30 7837 H 748.505 0.285172 1.81271 0
M  V30 7838 H 746.887 -1.63265 3.60778 0
M  V30 7839 H 748.061 1.09103 4.47698 0
M  V30 7840 H 746.376 0.8315 4.08014 0
M  V30 7841 H 748.973 -1.77792 5.04276 0
M  V30 7842 H 749.316 -2.35734 3.43126 0
M  V30 7843 H 749.849 -0.727675 3.91088 0
M  V30 7844 H 746.588 0.765442 6.51016 0
M  V30 7845 H 746.108 -0.848623 5.93766 0
M  V30 7846 H 747.787 -0.542588 6.44721 0
M  V30 7847 N 747.919 -1.57396 -0.0801906 0
M  V30 7848 C 749.166 -1.86836 -0.780927 0
M  V30 7849 C 749.494 -0.784012 -1.77999 0
M  V30 7850 O 748.749 0.220881 -1.94449 0
M  V30 7851 C 749.048 -3.22915 -1.53169 0
M  V30 7852 C 748.714 -4.45843 -0.67339 0
M  V30 7853 C 747.376 -4.79213 -0.436829 0
M  V30 7854 C 749.728 -5.21142 -0.0776786 0
M  V30 7855 C 747.056 -5.853 0.405062 0
M  V30 7856 C 749.408 -6.28119 0.751619 0
M  V30 7857 C 748.072 -6.59995 0.998131 0
M  V30 7858 H 747.342 -0.683682 -0.285761 0
M  V30 7859 H 749.989 -1.91454 -0.0419435 0
M  V30 7860 H 748.294 -3.14049 -2.34265 0
M  V30 7861 H 749.991 -3.42926 -2.07853 0
M  V30 7862 H 746.581 -4.19721 -0.867891 0
M  V30 7863 H 750.765 -4.95682 -0.247572 0
M  V30 7864 H 746.021 -6.084 0.60488 0
M  V30 7865 H 750.195 -6.8563 1.22 0
M  V30 7866 H 747.822 -7.42027 1.65227 0
M  V30 7867 N 749.397 0.351382 -1.53633 0
M  V30 7868 C 750.643 1.09411 -1.70754 0
M  V30 7869 C 750.976 1.88544 -0.465293 0
M  V30 7870 O 750.251 1.86923 0.537608 0
M  V30 7871 C 750.534 2.04173 -2.96623 0
M  V30 7872 C 750.387 1.28556 -4.31038 0
M  V30 7873 C 751.706 3.04102 -3.18136 0
M  V30 7874 H 748.825 0.396373 -0.621335 0
M  V30 7875 H 751.467 0.373464 -1.86293 0
M  V30 7876 H 749.617 2.65625 -2.83506 0
M  V30 7877 H 751.289 0.697786 -4.55992 0
M  V30 7878 H 749.532 0.587498 -4.29803 0
M  V30 7879 H 750.203 1.97989 -5.15271 0
M  V30 7880 H 752.679 2.5276 -3.30532 0
M  V30 7881 H 751.555 3.67616 -4.07615 0
M  V30 7882 H 751.816 3.75053 -2.34068 0
M  V30 7883 N 750.875 1.45233 0.611969 0
M  V30 7884 C 751.805 1.5641 1.73373 0
M  V30 7885 C 752.786 0.415896 1.64937 0
M  V30 7886 O 753.971 0.638478 1.83404 0
M  V30 7887 C 751.101 1.52627 3.11965 0
M  V30 7888 C 750.055 2.66119 3.35208 0
M  V30 7889 C 749.381 2.4739 4.74028 0
M  V30 7890 C 750.681 4.08157 3.25891 0
M  V30 7891 H 752.375 2.50307 1.64277 0
M  V30 7892 H 749.921 1.20467 0.788904 0
M  V30 7893 H 751.874 1.59043 3.90235 0
M  V30 7894 H 750.598 0.552564 3.21892 0
M  V30 7895 H 749.257 2.59123 2.59327 0
M  V30 7896 H 748.905 1.48168 4.80682 0
M  V30 7897 H 748.605 3.23494 4.90536 0
M  V30 7898 H 750.129 2.55653 5.54503 0
M  V30 7899 H 751.543 4.1642 3.9404 0
M  V30 7900 H 749.94 4.84617 3.5393 0
M  V30 7901 H 751.01 4.30374 2.23397 0
M  V30 7902 N 752.353 -0.854086 1.3245 0
M  V30 7903 C 753.283 -1.97827 1.24044 0
M  V30 7904 C 754.264 -1.69646 0.124166 0
M  V30 7905 O 755.449 -1.91687 0.31143 0
M  V30 7906 C 752.579 -3.33673 0.963324 0
M  V30 7907 C 751.533 -3.76207 2.04089 0
M  V30 7908 C 750.859 -5.0969 1.61618 0
M  V30 7909 C 752.159 -3.91612 3.45597 0
M  V30 7910 H 753.853 -2.05118 2.18099 0
M  V30 7911 H 751.399 -0.985489 1.04996 0
M  V30 7912 H 753.352 -4.11871 0.891061 0
M  V30 7913 H 752.076 -3.26597 -0.0128649 0
M  V30 7914 H 750.735 -3.0026 2.10332 0
M  V30 7915 H 750.383 -4.99072 0.627418 0
M  V30 7916 H 750.083 -5.3912 2.33717 0
M  V30 7917 H 751.607 -5.90381 1.55829 0
M  V30 7918 H 753.021 -4.60163 3.4194 0
M  V30 7919 H 751.418 -4.3246 4.16051 0
M  V30 7920 H 752.488 -2.9451 3.85217 0
M  V30 7921 N 753.831 -1.1567 -1.07043 0
M  V30 7922 C 755.059 -0.957471 -1.83412 0
M  V30 7923 C 755.474 0.494271 -1.82215 0
M  V30 7924 O 754.831 1.34288 -1.23584 0
M  V30 7925 C 754.882 -1.46784 -3.30359 0
M  V30 7926 O 754.603 -2.86271 -3.31633 0
M  V30 7927 C 756.104 -1.31054 -4.23485 0
M  V30 7928 H 753.324 -0.33986 -0.578564 0
M  V30 7929 H 755.868 -1.53518 -1.35102 0
M  V30 7930 H 754.023 -0.932586 -3.76007 0
M  V30 7931 H 754.437 -3.0948 -4.23465 0
M  V30 7932 H 755.911 -1.71605 -5.24648 0
M  V30 7933 H 756.388 -0.255107 -4.38458 0
M  V30 7934 H 756.994 -1.83503 -3.83676 0
M  V30 7935 N 755.309 1.25446 -0.953992 0
M  V30 7936 C 756.558 1.92441 -0.604101 0
M  V30 7937 C 756.871 1.75543 0.862796 0
M  V30 7938 O 758.077 2.37106 1.32262 0
M  V30 7939 C 756.533 3.44854 -1.02974 0
M  V30 7940 C 756.141 3.70464 -2.51914 0
M  V30 7941 C 757.885 4.1778 -0.752352 0
M  V30 7942 C 755.792 5.1638 -2.88281 0
M  V30 7943 H 754.722 0.720508 -0.222227 0
M  V30 7944 H 757.373 1.42318 -1.15836 0
M  V30 7945 H 755.755 3.93935 -0.403904 0
M  V30 7946 H 756.929 3.32038 -3.19511 0
M  V30 7947 H 755.244 3.10797 -2.77117 0
M  V30 7948 H 757.841 5.25261 -1.00024 0
M  V30 7949 H 758.184 4.15135 0.311212 0
M  V30 7950 H 758.717 3.74605 -1.33851 0
M  V30 7951 H 755.456 5.24135 -3.93653 0
M  V30 7952 H 754.976 5.55855 -2.25357 0
M  V30 7953 H 756.655 5.84497 -2.77439 0
M  V30 7954 N 756.787 0.722489 1.40064 0
M  V30 7955 C 758.015 0.274838 2.05066 0
M  V30 7956 C 758.43 -1.08586 1.54449 0
M  V30 7957 O 757.787 -1.68375 0.704003 0
M  V30 7958 C 757.838 0.253673 3.60609 0
M  V30 7959 O 757.559 1.56064 4.0936 0
M  V30 7960 C 759.06 -0.211684 4.42794 0
M  V30 7961 H 756.28 0.12226 0.659768 0
M  V30 7962 H 758.824 0.982632 1.79345 0
M  V30 7963 H 756.979 -0.405137 3.85276 0
M  V30 7964 H 757.393 1.46576 5.03603 0
M  V30 7965 H 758.867 -0.175341 5.51721 0
M  V30 7966 H 759.344 -1.25493 4.2089 0
M  V30 7967 H 759.95 0.4171 4.2325 0
M  V30 7968 N 758.265 -1.50454 0.469181 0
M  V30 7969 C 759.493 -2.06729 -0.0842134 0
M  V30 7970 C 759.908 -1.33326 -1.33677 0
M  V30 7971 O 759.265 -0.401977 -1.78018 0
M  V30 7972 C 759.316 -3.59557 -0.374253 0
M  V30 7973 O 759.037 -4.30192 0.828622 0
M  V30 7974 C 760.538 -4.32449 -0.974824 0
M  V30 7975 H 757.758 -0.670971 0.006231 0
M  V30 7976 H 760.302 -1.93645 0.657415 0
M  V30 7977 H 758.457 -3.7245 -1.06581 0
M  V30 7978 H 758.871 -5.21371 0.572066 0
M  V30 7979 H 760.345 -5.40361 -1.12755 0
M  V30 7980 H 760.822 -3.92819 -1.96442 0
M  V30 7981 H 761.428 -4.24082 -0.321703 0
M  V30 7982 N 759.743 -0.201713 -1.56304 0
M  V30 7983 C 760.673 0.71155 -2.22394 0
M  V30 7984 C 761.654 1.21625 -1.18917 0
M  V30 7985 O 762.839 1.26388 -1.47444 0
M  V30 7986 C 759.969 1.92837 -2.88845 0
M  V30 7987 C 758.923 1.55831 -3.98623 0
M  V30 7988 C 758.249 2.85228 -4.52271 0
M  V30 7989 C 759.549 0.763249 -5.16693 0
M  V30 7990 H 761.243 0.160573 -2.98969 0
M  V30 7991 H 758.789 0.0757916 -1.438 0
M  V30 7992 H 760.742 2.57253 -3.33764 0
M  V30 7993 H 759.466 2.50398 -2.09686 0
M  V30 7994 H 758.125 0.9377 -3.54405 0
M  V30 7995 H 757.773 3.40893 -3.69866 0
M  V30 7996 H 757.473 2.6121 -5.26349 0
M  V30 7997 H 758.997 3.50622 -4.99897 0
M  V30 7998 H 760.411 1.31066 -5.58117 0
M  V30 7999 H 758.808 0.620935 -5.96879 0
M  V30 8000 H 759.878 -0.234322 -4.84334 0
M  V30 8001 N 761.222 1.57436 0.0718424 0
M  V30 8002 C 762.452 1.91196 0.782795 0
M  V30 8003 C 762.86 0.795927 1.71644 0
M  V30 8004 O 762.203 -0.239604 1.82131 0
M  V30 8005 C 762.265 3.20421 1.63005 0
M  V30 8006 C 761.929 4.48724 0.865782 0
M  V30 8007 C 762.926 5.19571 0.185051 0
M  V30 8008 C 760.611 4.95345 0.832971 0
M  V30 8009 C 762.605 6.3529 -0.518264 0
M  V30 8010 C 760.292 6.1097 0.125884 0
M  V30 8011 C 761.29 6.80794 -0.548533 0
M  V30 8012 O 760.978 7.94213 -1.24423 0
M  V30 8013 H 760.71 0.636486 0.227731 0
M  V30 8014 H 763.264 2.05348 0.0464187 0
M  V30 8015 H 761.494 3.02478 2.40923 0
M  V30 8016 H 763.183 3.39831 2.21968 0
M  V30 8017 H 763.949 4.8458 0.201707 0
M  V30 8018 H 759.828 4.40871 1.34737 0
M  V30 8019 H 763.372 6.89725 -1.04523 0
M  V30 8020 H 759.269 6.45411 0.107155 0
M  V30 8021 H 760.037 8.10331 -1.1535 0
M  V30 8022 N 762.7 -0.34323 1.53817 0
M  V30 8023 C 763.94 -1.09188 1.72793 0
M  V30 8024 C 764.304 -1.85876 0.481062 0
M  V30 8025 O 765.505 -2.63158 0.547851 0
M  V30 8026 C 763.776 -2.00783 2.9567 0
M  V30 8027 S 765.335 -2.82866 3.35459 0
M  V30 8028 H 762.153 -0.368926 0.607795 0
M  V30 8029 H 764.755 -0.370265 1.91962 0
M  V30 8030 H 763.459 -1.43245 3.84589 0
M  V30 8031 H 762.99 -2.77381 2.78968 0
M  V30 8032 H 765.005 -4.03196 2.89218 0
M  V30 8033 N 764.178 -1.45556 -0.604258 0
M  V30 8034 C 765.418 -1.51289 -1.37445 0
M  V30 8035 C 765.782 -0.152112 -1.91397 0
M  V30 8036 O 766.983 -0.0841419 -2.68668 0
M  V30 8037 C 765.254 -2.5646 -2.48924 0
M  V30 8038 S 766.813 -2.81442 -3.36654 0
M  V30 8039 H 763.631 -0.534774 -0.468549 0
M  V30 8040 H 766.233 -1.82657 -0.696902 0
M  V30 8041 H 764.937 -3.53995 -2.07644 0
M  V30 8042 H 764.468 -2.26753 -3.21476 0
M  V30 8043 H 766.483 -2.15074 -4.47166 0
M  V30 8044 N 765.656 0.84705 -1.32902 0
M  V30 8045 C 767.072 1.13645 -1.12058 0
M  V30 8046 C 767.272 2.01281 0.093937 0
M  V30 8047 O 766.328 2.4026 0.776608 0
M  V30 8048 C 767.641 1.80644 -2.40392 0
M  V30 8049 C 769.189 1.93246 -2.46221 0
M  V30 8050 C 769.664 2.6366 -3.74496 0
M  V30 8051 N 771.155 2.71179 -3.75521 0
M  V30 8052 C 771.89 3.26332 -4.71482 0
M  V30 8053 N 771.386 3.82236 -5.77813 0
M  V30 8054 N 773.179 3.24507 -4.58968 0
M  V30 8055 H 765.33 0.263612 -2.10758 0
M  V30 8056 H 767.593 0.17944 -0.930863 0
M  V30 8057 H 767.299 1.23708 -3.29225 0
M  V30 8058 H 767.173 2.80736 -2.51926 0
M  V30 8059 H 769.56 2.49338 -1.57843 0
M  V30 8060 H 769.641 0.921272 -2.38634 0
M  V30 8061 H 769.285 2.08229 -4.63253 0
M  V30 8062 H 769.215 3.65234 -3.79357 0
M  V30 8063 H 771.706 2.31527 -2.9867 0
M  V30 8064 H 772.019 4.22499 -6.47082 0
M  V30 8065 H 770.364 3.80546 -5.81558 0
M  V30 8066 H 773.555 2.80085 -3.7506 0
M  V30 8067 H 773.728 3.67188 -5.33926 0
M  V30 8068 N 767.134 1.16236 1.06428 0
M  V30 8069 C 768.55 0.906983 1.31324 0
M  V30 8070 C 768.75 -0.440872 1.96618 0
M  V30 8071 O 767.806 -1.1807 2.23194 0
M  V30 8072 C 769.119 2.05501 2.19522 0
M  V30 8073 C 770.667 2.09061 2.32943 0
M  V30 8074 C 771.142 3.23214 3.24495 0
M  V30 8075 N 772.633 3.22922 3.32078 0
M  V30 8076 C 773.368 4.07889 4.03006 0
M  V30 8077 N 772.864 5.02941 4.76469 0
M  V30 8078 N 774.657 3.95881 3.99043 0
M  V30 8079 H 766.808 2.03015 0.624388 0
M  V30 8080 H 769.071 0.88576 0.337835 0
M  V30 8081 H 768.777 3.02847 1.78819 0
M  V30 8082 H 768.651 1.99538 3.201 0
M  V30 8083 H 771.038 1.12308 2.72893 0
M  V30 8084 H 771.119 2.19089 1.32037 0
M  V30 8085 H 770.763 4.20225 2.85261 0
M  V30 8086 H 770.693 3.10423 4.25377 0
M  V30 8087 H 773.184 2.54093 2.79724 0
M  V30 8088 H 773.497 5.64196 5.28112 0
M  V30 8089 H 771.842 5.06922 4.75453 0
M  V30 8090 H 775.033 3.20927 3.40769 0
M  V30 8091 H 775.206 4.62321 4.54052 0
M  V30 8092 N 768.612 -1.24939 0.960631 0
M  V30 8093 C 770.028 -1.45039 0.666018 0
M  V30 8094 C 770.228 -1.86021 -0.774501 0
M  V30 8095 O 769.284 -1.99392 -1.54916 0
M  V30 8096 C 770.597 -2.51775 1.64408 0
M  V30 8097 C 772.145 -2.6561 1.65592 0
M  V30 8098 C 772.62 -3.75536 2.62177 0
M  V30 8099 N 774.111 -3.82954 2.60577 0
M  V30 8100 C 774.846 -4.67517 3.31987 0
M  V30 8101 N 774.342 -5.56321 4.1289 0
M  V30 8102 N 776.135 -4.61535 3.20845 0
M  V30 8103 H 768.286 -0.96632 1.89145 0
M  V30 8104 H 770.549 -0.486034 0.813926 0
M  V30 8105 H 770.255 -2.28534 2.67329 0
M  V30 8106 H 770.129 -3.49804 1.41128 0
M  V30 8107 H 772.516 -2.88212 0.633846 0
M  V30 8108 H 772.597 -1.67962 1.92931 0
M  V30 8109 H 772.241 -3.53684 3.64514 0
M  V30 8110 H 772.171 -4.72682 2.32119 0
M  V30 8111 H 774.662 -3.19478 2.01847 0
M  V30 8112 H 774.975 -6.17787 4.64283 0
M  V30 8113 H 773.32 -5.5601 4.16987 0
M  V30 8114 H 776.511 -3.91169 2.57108 0
M  V30 8115 H 776.684 -5.27214 3.76762 0
M  V30 8116 N 770.09 -0.729906 -1.39679 0
M  V30 8117 C 771.037 -0.0866063 -2.30637 0
M  V30 8118 C 772.007 0.735115 -1.48947 0
M  V30 8119 O 773.192 0.696125 -1.77648 0
M  V30 8120 C 770.332 0.818524 -3.35252 0
M  V30 8121 C 769.445 -0.0152635 -4.31997 0
M  V30 8122 C 768.58 0.890669 -5.2368 0
M  V30 8123 C 767.619 0.0518246 -6.12078 0
M  V30 8124 N 766.756 0.913411 -6.96133 0
M  V30 8125 H 771.596 -0.867925 -2.85081 0
M  V30 8126 H 769.133 -0.439673 -1.40376 0
M  V30 8127 H 771.091 1.3577 -3.9449 0
M  V30 8128 H 769.721 1.56587 -2.82277 0
M  V30 8129 H 768.773 -0.671794 -3.74421 0
M  V30 8130 H 770.085 -0.664086 -4.9436 0
M  V30 8131 H 769.239 1.49787 -5.87919 0
M  V30 8132 H 767.978 1.57328 -4.61627 0
M  V30 8133 H 766.983 -0.568209 -5.46856 0
M  V30 8134 H 768.208 -0.627497 -6.76195 0
M  V30 8135 H 766.154 1.58141 -6.36653 0
M  V30 8136 H 766.071 0.320952 -7.55318 0
M  V30 8137 H 767.339 1.50633 -7.64807 0
M  V30 8138 N 771.568 1.50203 -0.477153 0
M  V30 8139 C 772.5 2.26508 0.350239 0
M  V30 8140 C 773.513 1.32081 0.95176 0
M  V30 8141 O 774.702 1.57546 0.839139 0
M  V30 8142 C 771.802 3.0361 1.50579 0
M  V30 8143 C 770.975 4.25438 1.01595 0
M  V30 8144 C 770.034 4.84783 2.04626 0
M  V30 8145 O 769.06 5.45528 1.62442 0
M  V30 8146 N 770.262 4.72318 3.37485 0
M  V30 8147 H 773.027 2.98155 -0.30394 0
M  V30 8148 H 770.588 1.58938 -0.308289 0
M  V30 8149 H 772.58 3.4019 2.1921 0
M  V30 8150 H 771.15 2.34724 2.06455 0
M  V30 8151 H 770.37 3.93894 0.155316 0
M  V30 8152 H 771.658 5.04413 0.666694 0
M  V30 8153 H 771.056 4.24022 3.74462 0
M  V30 8154 H 769.613 5.13149 4.01897 0
M  V30 8155 N 773.046 0.209999 1.56195 0
M  V30 8156 C 774.292 -0.418742 1.99043 0
M  V30 8157 C 774.647 -1.58201 1.095 0
M  V30 8158 O 773.94 -1.91069 0.1425 0
M  V30 8159 C 774.134 -0.91312 3.45539 0
M  V30 8160 C 773.963 0.200706 4.49252 0
M  V30 8161 C 772.733 0.663287 5.00928 0
M  V30 8162 C 774.931 1.01493 5.04186 0
M  V30 8163 N 772.913 1.75338 5.88328 0
M  V30 8164 C 774.284 1.95411 5.884 0
M  V30 8165 C 776.339 1.05567 4.8658 0
M  V30 8166 C 775.042 2.93069 6.56889 0
M  V30 8167 C 777.068 2.02037 5.55819 0
M  V30 8168 C 776.43 2.94697 6.39791 0
M  V30 8169 H 772.529 -0.120226 0.772703 0
M  V30 8170 H 775.113 0.319119 1.92067 0
M  V30 8171 H 773.284 -1.62038 3.52985 0
M  V30 8172 H 775.016 -1.51371 3.75325 0
M  V30 8173 H 771.771 0.253945 4.72919 0
M  V30 8174 H 772.195 2.30007 6.3673 0
M  V30 8175 H 776.837 0.353242 4.21322 0
M  V30 8176 H 774.555 3.6428 7.21336 0
M  V30 8177 H 778.141 2.05849 5.44167 0
M  V30 8178 H 777.021 3.68128 6.92425 0
M  V30 8179 N 774.524 -1.57472 -0.0634922 0
M  V30 8180 C 775.471 -2.04258 -1.07457 0
M  V30 8181 C 776.441 -0.924804 -1.37973 0
M  V30 8182 O 777.626 -1.19305 -1.48899 0
M  V30 8183 C 774.766 -2.49832 -2.38071 0
M  V30 8184 C 773.879 -3.75263 -2.14014 0
M  V30 8185 C 773.014 -4.09585 -3.38251 0
M  V30 8186 C 772.053 -5.28032 -3.09594 0
M  V30 8187 N 771.19 -5.57953 -4.26185 0
M  V30 8188 H 776.03 -2.90402 -0.668626 0
M  V30 8189 H 773.567 -1.43609 -0.318572 0
M  V30 8190 H 775.525 -2.7431 -3.14341 0
M  V30 8191 H 774.155 -1.66654 -2.76453 0
M  V30 8192 H 773.207 -3.58075 -1.28399 0
M  V30 8193 H 774.519 -4.61667 -1.88852 0
M  V30 8194 H 773.673 -4.35008 -4.2291 0
M  V30 8195 H 772.412 -3.21765 -3.66495 0
M  V30 8196 H 771.417 -5.02397 -2.23332 0
M  V30 8197 H 772.642 -6.17477 -2.82663 0
M  V30 8198 H 770.588 -4.73092 -4.54445 0
M  V30 8199 H 770.505 -6.38793 -4.04326 0
M  V30 8200 H 771.773 -5.87931 -5.11817 0
M  V30 8201 N 776.003 0.335068 -1.53997 0
M  V30 8202 C 776.951 1.43206 -1.83289 0
M  V30 8203 C 777.945 1.54081 -0.703953 0
M  V30 8204 O 779.151 1.56603 -0.887432 0
M  V30 8205 H 775.526 0.477655 -0.580818 0
M  V30 8206 H 777.497 1.15719 -2.75049 0
M  V30 8207 C 776.246 2.79602 -2.06683 0
M  V30 8208 H 775.569 2.72004 -2.93008 0
M  V30 8209 H 777.009 3.55459 -2.31139 0
M  V30 8210 C 775.468 3.25873 -0.854883 0
M  V30 8211 O 775.998 4.01657 -0.0584648 0
M  V30 8212 N 774.204 2.82777 -0.669729 0
M  V30 8213 H 773.751 2.21269 -1.31901 0
M  V30 8214 H 773.709 3.1409 0.13969 0
M  V30 8215 N 777.481 1.45874 0.596531 0
M  V30 8216 C 778.428 1.55389 1.70655 0
M  V30 8217 C 779.398 0.399036 1.61236 0
M  V30 8218 O 780.583 0.61396 1.80652 0
M  V30 8219 C 777.723 1.53705 3.0898 0
M  V30 8220 C 776.836 2.79823 3.29125 0
M  V30 8221 C 775.971 2.69735 4.5762 0
M  V30 8222 C 775.01 3.90856 4.71061 0
M  V30 8223 N 774.147 3.79237 5.90867 0
M  V30 8224 H 778.987 2.50211 1.61859 0
M  V30 8225 H 776.524 1.24146 0.789069 0
M  V30 8226 H 778.482 1.50715 3.89026 0
M  V30 8227 H 777.112 0.624247 3.16706 0
M  V30 8228 H 776.164 2.92852 2.42779 0
M  V30 8229 H 777.476 3.69628 3.34927 0
M  V30 8230 H 776.63 2.64773 5.45875 0
M  V30 8231 H 775.369 1.77547 4.54234 0
M  V30 8232 H 774.374 3.96164 3.81227 0
M  V30 8233 H 775.599 4.84124 4.76236 0
M  V30 8234 H 773.545 2.89825 5.88504 0
M  V30 8235 H 773.462 4.62686 5.97877 0
M  V30 8236 H 774.73 3.78227 6.8159 0
M  V30 8237 N 778.959 -0.83999 1.33349 0
M  V30 8238 C 779.906 -1.94972 1.23509 0
M  V30 8239 C 780.876 -1.65709 0.113967 0
M  V30 8240 O 782.061 -1.88552 0.292045 0
M  V30 8241 C 779.201 -3.30919 0.979105 0
M  V30 8242 C 778.314 -3.72587 2.18639 0
M  V30 8243 C 777.449 -4.97397 1.86465 0
M  V30 8244 C 776.488 -5.31597 3.03432 0
M  V30 8245 N 775.625 -6.47584 2.71254 0
M  V30 8246 H 780.465 -2.0272 2.18423 0
M  V30 8247 H 778.002 -0.992017 1.08616 0
M  V30 8248 H 779.96 -4.09239 0.811126 0
M  V30 8249 H 778.59 -3.22731 0.0667099 0
M  V30 8250 H 777.642 -2.89799 2.46416 0
M  V30 8251 H 778.954 -3.93844 3.06086 0
M  V30 8252 H 778.108 -5.83462 1.66305 0
M  V30 8253 H 776.847 -4.78107 0.96254 0
M  V30 8254 H 775.852 -4.44037 3.24208 0
M  V30 8255 H 777.077 -5.52836 3.94397 0
M  V30 8256 H 775.023 -6.29783 1.836 0
M  V30 8257 H 774.94 -6.68931 3.52231 0
M  V30 8258 H 776.208 -7.36764 2.54558 0
M  V30 8259 N 780.437 -1.16799 -1.0581 0
M  V30 8260 C 781.853 -0.913935 -1.30841 0
M  V30 8261 C 782.053 0.430439 -1.96849 0
M  V30 8262 O 781.109 1.16885 -2.23817 0
M  V30 8263 C 782.422 -2.06662 -2.18429 0
M  V30 8264 C 783.97 -2.10294 -2.31831 0
M  V30 8265 C 784.445 -3.2493 -3.22776 0
M  V30 8266 N 785.936 -3.24678 -3.30361 0
M  V30 8267 C 786.671 -4.10021 -4.00837 0
M  V30 8268 N 786.167 -5.05461 -4.73795 0
M  V30 8269 N 787.96 -3.97991 -3.96937 0
M  V30 8270 H 780.111 -2.03343 -0.613613 0
M  V30 8271 H 782.374 -0.88754 -0.333133 0
M  V30 8272 H 782.08 -3.03791 -1.77211 0
M  V30 8273 H 781.954 -2.01233 -3.19038 0
M  V30 8274 H 784.341 -1.13754 -2.72294 0
M  V30 8275 H 784.422 -2.19786 -1.30873 0
M  V30 8276 H 784.066 -4.21731 -2.83028 0
M  V30 8277 H 783.996 -3.12674 -4.23725 0
M  V30 8278 H 786.487 -2.55573 -2.78372 0
M  V30 8279 H 786.8 -5.66989 -5.25113 0
M  V30 8280 H 785.145 -5.09436 -4.72758 0
M  V30 8281 H 788.336 -3.2273 -3.39062 0
M  V30 8282 H 788.509 -4.64722 -4.51594 0
M  V30 8283 N 781.915 1.24427 -0.967243 0
M  V30 8284 C 782.825 2.29109 -0.504592 0
M  V30 8285 C 783.841 1.68495 0.434224 0
M  V30 8286 O 785.017 1.99041 0.307379 0
M  V30 8287 C 782.082 3.46133 0.198273 0
M  V30 8288 C 781.143 4.22149 -0.780313 0
M  V30 8289 C 780.376 5.33585 -0.110896 0
M  V30 8290 O 780.599 5.59676 1.10088 0
M  V30 8291 O 779.533 5.96522 -0.802823 0
M  V30 8292 H 783.359 2.708 -1.37482 0
M  V30 8293 H 780.944 1.30111 -0.73426 0
M  V30 8294 H 782.826 4.17205 0.593124 0
M  V30 8295 H 781.501 3.0642 1.04347 0
M  V30 8296 H 780.408 3.53454 -1.22561 0
M  V30 8297 H 781.741 4.65677 -1.59392 0
M  V30 8298 N 783.393 0.737304 1.3929 0
M  V30 8299 C 784.618 0.295237 2.05288 0
M  V30 8300 C 785.043 -1.06235 1.55228 0
M  V30 8301 O 784.401 -1.67365 0.697043 0
M  V30 8302 C 784.449 0.309146 3.59272 0
M  V30 8303 O 783.553 -0.702437 4.06374 0
M  V30 8304 H 782.894 0.133762 0.650387 0
M  V30 8305 H 785.424 1.00387 1.78279 0
M  V30 8306 H 785.434 0.154336 4.07708 0
M  V30 8307 H 784.109 1.29974 3.95069 0
M  V30 8308 H 782.686 -0.513574 3.69346 0
M  V30 8309 N 784.871 -1.49948 0.485112 0
M  V30 8310 C 785.834 -2.27351 -0.290546 0
M  V30 8311 C 786.834 -1.32704 -0.908087 0
M  V30 8312 O 788.024 -1.56007 -0.775085 0
M  V30 8313 C 785.156 -3.10135 -1.41524 0
M  V30 8314 H 786.349 -2.97374 0.388454 0
M  V30 8315 H 783.902 -1.54453 0.239586 0
M  V30 8316 H 784.637 -2.44641 -2.12888 0
M  V30 8317 H 784.422 -3.79705 -0.978074 0
M  V30 8318 H 785.912 -3.68638 -1.96204 0
M  V30 8319 N 786.349 -0.21828 -1.56081 0
M  V30 8320 C 787.312 0.679633 -2.18892 0
M  V30 8321 C 788.312 1.12405 -1.14986 0
M  V30 8322 O 789.502 1.03339 -1.40238 0
M  V30 8323 C 786.634 1.93063 -2.80962 0
M  V30 8324 H 787.827 0.132066 -2.99609 0
M  V30 8325 H 785.38 0.0313374 -1.56269 0
M  V30 8326 H 786.115 2.52015 -2.04106 0
M  V30 8327 H 785.9 1.62046 -3.57048 0
M  V30 8328 H 787.39 2.57043 -3.29118 0
M  V30 8329 N 787.827 1.57504 0.0551401 0
M  V30 8330 C 789.073 1.88334 0.752216 0
M  V30 8331 C 789.406 0.812742 1.76375 0
M  V30 8332 O 788.681 -0.175198 1.93709 0
M  V30 8333 C 788.964 3.29824 1.44528 0
M  V30 8334 C 788.817 4.47553 0.449026 0
M  V30 8335 C 790.136 3.69808 2.38601 0
M  V30 8336 H 787.255 0.684973 0.271995 0
M  V30 8337 H 789.897 1.89994 0.0151895 0
M  V30 8338 H 788.047 3.28539 2.07351 0
M  V30 8339 H 789.719 4.60967 -0.175277 0
M  V30 8340 H 787.962 4.33168 -0.234162 0
M  V30 8341 H 788.633 5.43376 0.971917 0
M  V30 8342 H 791.109 3.72293 1.85842 0
M  V30 8343 H 789.985 4.69665 2.84088 0
M  V30 8344 H 790.246 3.00641 3.24141 0
M  V30 8345 N 789.305 -0.326896 1.54172 0
M  V30 8346 C 790.533 -1.08486 1.76177 0
M  V30 8347 C 790.948 -1.81815 0.508788 0
M  V30 8348 O 790.305 -1.74924 -0.520362 0
M  V30 8349 C 790.356 -2.08552 2.95276 0
M  V30 8350 O 790.077 -1.38202 4.15731 0
M  V30 8351 C 791.578 -2.96593 3.29466 0
M  V30 8352 H 788.798 -0.322835 0.588233 0
M  V30 8353 H 791.342 -0.374036 2.0105 0
M  V30 8354 H 789.497 -2.75174 2.72687 0
M  V30 8355 H 789.911 -2.05186 4.827 0
M  V30 8356 H 791.385 -3.62708 4.16109 0
M  V30 8357 H 791.862 -3.63511 2.46487 0
M  V30 8358 H 792.468 -2.35537 3.54122 0
M  V30 8359 N 790.784 -1.46188 -0.588786 0
M  V30 8360 C 791.714 -1.59148 -1.70863 0
M  V30 8361 C 792.695 -0.442083 -1.64255 0
M  V30 8362 O 793.88 -0.667575 -1.82365 0
M  V30 8363 C 791.01 -1.5757 -3.09498 0
M  V30 8364 C 789.964 -2.71418 -3.30932 0
M  V30 8365 C 789.29 -2.549 -4.70032 0
M  V30 8366 C 790.59 -4.1329 -3.19356 0
M  V30 8367 H 792.284 -2.52889 -1.60274 0
M  V30 8368 H 789.83 -1.21707 -0.769638 0
M  V30 8369 H 791.783 -1.65231 -3.87655 0
M  V30 8370 H 790.507 -0.603705 -3.20972 0
M  V30 8371 H 789.166 -2.63216 -2.55172 0
M  V30 8372 H 788.814 -1.55797 -4.78264 0
M  V30 8373 H 788.514 -3.31257 -4.85327 0
M  V30 8374 H 790.038 -2.64443 -5.50366 0
M  V30 8375 H 791.452 -4.22636 -3.87365 0
M  V30 8376 H 789.849 -4.90187 -3.46175 0
M  V30 8377 H 790.919 -4.33874 -2.16522 0
M  V30 8378 N 792.262 0.832906 -1.33792 0
M  V30 8379 C 793.49 1.62048 -1.28639 0
M  V30 8380 C 793.905 1.88269 0.141522 0
M  V30 8381 O 793.262 1.46706 1.08553 0
M  V30 8382 C 793.313 2.96722 -2.0649 0
M  V30 8383 O 793.034 2.7165 -3.43712 0
M  V30 8384 C 794.535 3.91144 -2.08617 0
M  V30 8385 H 791.755 0.504032 -0.442937 0
M  V30 8386 H 794.299 1.03704 -1.76255 0
M  V30 8387 H 792.454 3.51652 -1.62541 0
M  V30 8388 H 792.868 3.57453 -3.83833 0
M  V30 8389 H 794.342 4.82837 -2.67531 0
M  V30 8390 H 794.819 4.25766 -1.07796 0
M  V30 8391 H 795.425 3.42152 -2.52611 0
M  V30 8392 N 793.74 1.17359 1.05189 0
M  V30 8393 C 794.968 0.986529 1.81866 0
M  V30 8394 C 795.383 -0.46522 1.82979 0
M  V30 8395 O 794.74 -1.32305 1.25705 0
M  V30 8396 C 794.791 1.52021 3.27982 0
M  V30 8397 O 794.512 2.91511 3.27037 0
M  V30 8398 C 796.013 1.37774 4.21347 0
M  V30 8399 H 793.233 0.349021 0.573084 0
M  V30 8400 H 795.777 1.55648 1.32643 0
M  V30 8401 H 793.932 0.992287 3.74476 0
M  V30 8402 H 794.346 3.16178 4.18488 0
M  V30 8403 H 795.82 1.7993 5.21852 0
M  V30 8404 H 796.297 0.32483 4.37997 0
M  V30 8405 H 796.903 1.89583 3.80708 0
M  V30 8406 N 795.218 -1.23913 0.973828 0
M  V30 8407 C 796.148 -2.27453 0.527969 0
M  V30 8408 C 797.129 -1.6443 -0.435513 0
M  V30 8409 O 798.314 -1.9137 -0.330306 0
M  V30 8410 C 795.444 -3.4685 -0.176757 0
M  V30 8411 C 794.398 -4.22181 0.703352 0
M  V30 8412 C 793.724 -5.34534 -0.133215 0
M  V30 8413 C 795.024 -4.82865 1.99096 0
M  V30 8414 H 796.718 -2.65 1.3934 0
M  V30 8415 H 794.264 -1.27388 0.671446 0
M  V30 8416 H 796.217 -4.18424 -0.499934 0
M  V30 8417 H 794.941 -3.08346 -1.07659 0
M  V30 8418 H 793.6 -3.52416 1.00989 0
M  V30 8419 H 793.248 -4.92271 -1.03338 0
M  V30 8420 H 792.948 -5.85855 0.452494 0
M  V30 8421 H 794.472 -6.08933 -0.450924 0
M  V30 8422 H 795.886 -5.46481 1.73297 0
M  V30 8423 H 794.283 -5.44444 2.52389 0
M  V30 8424 H 795.353 -4.03977 2.68199 0
M  V30 8425 N 796.696 -0.74468 -1.38897 0
M  V30 8426 C 798.107 -0.36568 -1.83084 0
M  V30 8427 C 798.458 1.10436 -1.62168 0
M  V30 8428 O 797.583 1.85281 -1.11804 0
M  V30 8429 C 798.178 -0.656946 -3.3237 0
M  V30 8430 C 796.737 -0.331329 -3.74939 0
M  V30 8431 C 795.884 -0.914661 -2.61781 0
M  V30 8432 H 798.835 -0.941551 -1.27752 0
M  V30 8433 H 798.856 0.0679546 -3.80439 0
M  V30 8434 H 798.368 -1.72693 -3.47561 0
M  V30 8435 H 796.469 0.732426 -3.6533 0
M  V30 8436 H 796.582 -0.820655 -4.72019 0
M  V30 8437 H 794.946 -0.34063 -2.52412 0
M  V30 8438 H 795.729 -1.98949 -2.79775 0
M  V30 8439 N 798.174 1.49689 -0.493057 0
M  V30 8440 C 799.399 2.07331 0.0535114 0
M  V30 8441 C 799.824 1.35196 1.30781 0
M  V30 8442 O 799.182 0.406246 1.7669 0
M  V30 8443 C 799.23 3.59364 0.29825 0
M  V30 8444 O 798.334 3.88819 1.37454 0
M  V30 8445 H 797.675 0.663612 -0.0227018 0
M  V30 8446 H 800.205 1.926 -0.690402 0
M  V30 8447 H 800.215 4.04515 0.532159 0
M  V30 8448 H 798.89 4.1128 -0.618207 0
M  V30 8449 H 797.467 3.55487 1.12621 0
M  V30 8450 N 799.652 0.226554 1.55963 0
M  V30 8451 C 800.562 -0.692725 2.24139 0
M  V30 8452 C 801.578 -1.20971 1.25068 0
M  V30 8453 O 802.754 -1.25027 1.57893 0
M  V30 8454 C 799.819 -1.88183 2.91184 0
M  V30 8455 C 798.88 -1.40633 4.05612 0
M  V30 8456 C 798.113 -2.53875 4.6945 0
M  V30 8457 O 798.336 -3.72129 4.32292 0
M  V30 8458 O 797.27 -2.24792 5.58348 0
M  V30 8459 H 801.096 -0.141921 3.03368 0
M  V30 8460 H 798.681 -0.0041049 1.49399 0
M  V30 8461 H 800.563 -2.57617 3.33484 0
M  V30 8462 H 799.238 -2.42064 2.14911 0
M  V30 8463 H 798.145 -0.67986 3.67871 0
M  V30 8464 H 799.478 -0.913838 4.83642 0
M  V30 8465 N 801.13 -1.57531 -0.0467866 0
M  V30 8466 C 802.06 -2.08425 -1.05268 0
M  V30 8467 C 803.041 -0.982941 -1.38825 0
M  V30 8468 O 804.226 -1.25716 -1.48018 0
M  V30 8469 C 801.356 -2.54897 -2.35891 0
M  V30 8470 C 800.31 -3.69132 -2.16623 0
M  V30 8471 C 799.636 -4.01747 -3.52851 0
M  V30 8472 C 800.936 -4.98243 -1.56689 0
M  V30 8473 H 802.63 -2.92716 -0.62908 0
M  V30 8474 H 800.176 -1.40816 -0.301156 0
M  V30 8475 H 802.129 -2.8912 -3.06574 0
M  V30 8476 H 800.853 -1.67666 -2.80278 0
M  V30 8477 H 799.512 -3.35231 -1.48377 0
M  V30 8478 H 799.16 -3.11608 -3.94853 0
M  V30 8479 H 798.86 -4.78681 -3.4079 0
M  V30 8480 H 800.384 -4.38487 -4.24925 0
M  V30 8481 H 801.798 -5.30535 -2.17268 0
M  V30 8482 H 800.195 -5.79669 -1.55255 0
M  V30 8483 H 801.265 -4.81986 -0.530827 0
M  V30 8484 N 802.608 0.318715 -1.54344 0
M  V30 8485 C 803.538 1.39751 -1.87061 0
M  V30 8486 C 804.519 1.53741 -0.727848 0
M  V30 8487 O 805.704 1.67541 -0.982016 0
M  V30 8488 C 802.834 2.76446 -2.10226 0
M  V30 8489 C 801.788 2.77239 -3.26071 0
M  V30 8490 C 801.114 4.17056 -3.34617 0
M  V30 8491 C 802.414 2.40555 -4.63606 0
M  V30 8492 H 804.108 1.12619 -2.77412 0
M  V30 8493 H 801.654 0.540318 -1.33479 0
M  V30 8494 H 803.607 3.51985 -2.31699 0
M  V30 8495 H 802.331 3.05066 -1.16629 0
M  V30 8496 H 800.99 2.04155 -3.04493 0
M  V30 8497 H 800.638 4.42824 -2.3857 0
M  V30 8498 H 800.338 4.18492 -4.12478 0
M  V30 8499 H 801.862 4.94401 -3.5833 0
M  V30 8500 H 803.276 3.05808 -4.84927 0
M  V30 8501 H 801.673 2.53234 -5.44052 0
M  V30 8502 H 802.743 1.35698 -4.65526 0
M  V30 8503 N 804.086 1.46499 0.581025 0
M  V30 8504 C 805.016 1.60052 1.70017 0
M  V30 8505 C 805.997 0.450788 1.64018 0
M  V30 8506 O 807.182 0.677237 1.82009 0
M  V30 8507 C 804.312 1.5921 3.08658 0
M  V30 8508 C 803.266 2.73169 3.29488 0
M  V30 8509 C 802.592 2.57389 4.68674 0
M  V30 8510 C 803.892 4.14978 3.1716 0
M  V30 8511 H 805.586 2.53735 1.5893 0
M  V30 8512 H 803.132 1.22113 0.763173 0
M  V30 8513 H 805.085 1.67285 3.86773 0
M  V30 8514 H 803.809 0.620718 3.20647 0
M  V30 8515 H 802.468 2.64566 2.53773 0
M  V30 8516 H 802.116 1.58331 4.77431 0
M  V30 8517 H 801.816 3.33826 4.83564 0
M  V30 8518 H 803.34 2.67358 5.48956 0
M  V30 8519 H 804.754 4.24684 3.85119 0
M  V30 8520 H 803.151 4.92016 3.4357 0
M  V30 8521 H 804.221 4.35016 2.14218 0
M  V30 8522 N 805.565 -0.825799 1.34232 0
M  V30 8523 C 806.842 -1.56741 1.17011 0
M  V30 8524 C 807.222 -2.09512 -0.258425 0
M  V30 8525 O 806.57 -1.90664 -1.25935 0
M  V30 8526 C 806.78 -2.69104 2.22225 0
M  V30 8527 C 808.128 -3.37947 2.57055 0
M  V30 8528 O 809.152 -2.79358 2.20992 0
M  V30 8529 O 808.011 -4.43743 3.1899 0
M  V30 8530 H 805.105 -0.69163 0.453405 0
M  V30 8531 H 807.651 -0.867422 1.45856 0
M  V30 8532 H 806.423 -2.27844 3.18124 0
M  V30 8533 H 806.046 -3.46756 1.94541 0
M  V30 8534 N 807.043 -1.17915 -1.04565 0
M  V30 8535 C 808.459 -0.927761 -1.29864 0
M  V30 8536 C 808.659 0.409536 -1.97294 0
M  V30 8537 O 807.715 1.14505 -2.25044 0
M  V30 8538 C 809.028 -2.08967 -2.16225 0
M  V30 8539 C 810.576 -2.12741 -2.29587 0
M  V30 8540 C 811.051 -3.28335 -3.19312 0
M  V30 8541 N 812.542 -3.28164 -3.26898 0
M  V30 8542 C 813.277 -4.14249 -3.96466 0
M  V30 8543 N 812.773 -5.10457 -4.68407 0
M  V30 8544 N 814.566 -4.02179 -3.92694 0
M  V30 8545 H 806.717 -2.03983 -0.592011 0
M  V30 8546 H 808.98 -0.891023 -0.323701 0
M  V30 8547 H 808.686 -3.05654 -1.73979 0
M  V30 8548 H 808.56 -2.04606 -3.16885 0
M  V30 8549 H 810.947 -1.16636 -2.71072 0
M  V30 8550 H 811.028 -2.21162 -1.28535 0
M  V30 8551 H 810.672 -4.2471 -2.78539 0
M  V30 8552 H 810.602 -3.17151 -4.20384 0
M  V30 8553 H 813.093 -2.58511 -2.75646 0
M  V30 8554 H 813.406 -5.72526 -5.1907 0
M  V30 8555 H 811.751 -5.14422 -4.67328 0
M  V30 8556 H 814.942 -3.26308 -3.3562 0
M  V30 8557 H 815.115 -4.69486 -4.4664 0
M  V30 8558 N 808.521 1.23394 -0.980386 0
M  V30 8559 C 809.451 2.2717 -0.540024 0
M  V30 8560 C 810.432 1.64659 0.426787 0
M  V30 8561 O 811.617 1.91543 0.320153 0
M  V30 8562 C 808.747 3.46939 0.15836 0
M  V30 8563 C 807.701 4.21802 -0.725732 0
M  V30 8564 C 807.027 5.34597 0.104866 0
M  V30 8565 C 808.327 4.81802 -2.01654 0
M  V30 8566 H 810.021 2.64257 -1.40743 0
M  V30 8567 H 807.567 1.2703 -0.678193 0
M  V30 8568 H 809.52 4.18683 0.477737 0
M  V30 8569 H 808.244 3.08912 1.06022 0
M  V30 8570 H 806.903 3.51875 -1.02857 0
M  V30 8571 H 806.551 4.92812 1.00726 0
M  V30 8572 H 806.251 5.85607 -0.483557 0
M  V30 8573 H 807.775 6.09163 0.418624 0
M  V30 8574 H 809.189 5.45554 -1.76193 0
M  V30 8575 H 807.586 5.43098 -2.55273 0
M  V30 8576 H 808.656 4.02549 -2.70338 0
M  V30 8577 N 809.999 0.752036 1.385 0
M  V30 8578 C 810.949 0.0990189 2.27785 0
M  V30 8579 C 811.933 -0.694867 1.45122 0
M  V30 8580 O 813.125 -0.561077 1.67872 0
M  V30 8581 C 810.254 -0.794531 3.33979 0
M  V30 8582 C 809.34 0.00611984 4.241 0
M  V30 8583 N 809.731 1.04174 4.94956 0
M  V30 8584 C 808.029 -0.220934 4.45452 0
M  V30 8585 C 808.73 1.52601 5.61327 0
M  V30 8586 N 807.706 0.84159 5.37046 0
M  V30 8587 H 811.508 0.892208 2.8003 0
M  V30 8588 H 809.022 0.587934 1.51384 0
M  V30 8589 H 811.019 -1.27797 3.96829 0
M  V30 8590 H 809.679 -1.58669 2.83292 0
M  V30 8591 H 810.69 1.42349 4.97953 0
M  V30 8592 H 807.367 -0.986556 4.05676 0
M  V30 8593 H 808.757 2.38857 6.2801 0
M  V30 8594 N 811.477 -1.49425 0.500989 0
M  V30 8595 C 812.888 -1.86624 0.0532011 0
M  V30 8596 C 813.239 -1.41331 -1.36088 0
M  V30 8597 O 812.364 -0.791195 -2.01418 0
M  V30 8598 C 812.959 -3.38681 0.0897693 0
M  V30 8599 C 811.518 -3.75181 -0.302677 0
M  V30 8600 C 810.665 -2.73419 0.462307 0
M  V30 8601 H 813.616 -1.41743 0.713773 0
M  V30 8602 H 813.637 -3.73902 -0.705528 0
M  V30 8603 H 813.149 -3.71616 1.11907 0
M  V30 8604 H 811.25 -3.47855 -1.33521 0
M  V30 8605 H 811.363 -4.79097 0.0167653 0
M  V30 8606 H 809.727 -2.54548 -0.0878557 0
M  V30 8607 H 810.51 -3.09198 1.49169 0
M  V30 8608 N 812.955 -0.234822 -1.55841 0
M  V30 8609 C 813.903 0.686145 -2.22249 0
M  V30 8610 C 814.897 1.18948 -1.20614 0
M  V30 8611 O 816.103 1.14777 -1.38659 0
M  V30 8612 H 812.478 0.239724 -0.712767 0
M  V30 8613 H 814.449 0.102762 -2.98223 0
M  V30 8614 C 813.198 1.8776 -2.92646 0
M  V30 8615 H 812.521 1.49943 -3.70617 0
M  V30 8616 H 813.961 2.4995 -3.42493 0
M  V30 8617 C 812.42 2.74127 -1.95847 0
M  V30 8618 O 812.95 3.7329 -1.48384 0
M  V30 8619 N 811.156 2.4044 -1.63209 0
M  V30 8620 H 810.703 1.59854 -2.02001 0
M  V30 8621 H 810.661 2.98504 -0.987063 0
M  V30 8622 N 814.433 1.57553 0.0384317 0
M  V30 8623 C 815.844 1.77258 0.586211 0
M  V30 8624 C 816.195 0.864706 1.76117 0
M  V30 8625 O 815.32 0.057141 2.16325 0
M  V30 8626 C 815.915 3.21453 1.07021 0
M  V30 8627 C 814.474 3.42387 1.56358 0
M  V30 8628 C 813.621 2.72801 0.497508 0
M  V30 8629 H 816.572 1.57585 -0.187796 0
M  V30 8630 H 816.593 3.27451 1.93794 0
M  V30 8631 H 816.105 3.87505 0.214851 0
M  V30 8632 H 814.206 2.81497 2.44111 0
M  V30 8633 H 814.319 4.50968 1.61754 0
M  V30 8634 H 812.683 2.36305 0.95038 0
M  V30 8635 H 813.466 3.41529 -0.348234 0
M  V30 8636 N 815.911 -0.310526 1.54511 0
M  V30 8637 C 816.844 -1.40693 1.79668 0
M  V30 8638 C 817.822 -1.49159 0.64734 0
M  V30 8639 O 819.006 -1.66367 0.886239 0
M  V30 8640 C 816.133 -2.78685 1.92491 0
M  V30 8641 C 815.179 -2.87688 3.14861 0
M  V30 8642 S 816.012 -2.50759 4.7316 0
M  V30 8643 C 817.168 -3.90797 4.88906 0
M  V30 8644 H 817.401 -1.19142 2.72383 0
M  V30 8645 H 814.934 -0.508103 1.458 0
M  V30 8646 H 816.892 -3.58168 2.00563 0
M  V30 8647 H 815.553 -2.9751 1.00731 0
M  V30 8648 H 814.746 -3.8888 3.20607 0
M  V30 8649 H 814.348 -2.16189 3.05186 0
M  V30 8650 H 816.64 -4.85693 4.72344 0
M  V30 8651 H 817.583 -3.90027 5.91003 0
M  V30 8652 H 817.991 -3.80357 4.1712 0
M  V30 8653 N 817.389 -1.46805 -0.573248 0
M  V30 8654 C 818.619 -1.55965 -1.35494 0
M  V30 8655 C 819.027 -0.203038 -1.88107 0
M  V30 8656 O 818.37 0.81138 -1.6481 0
M  V30 8657 C 818.432 -2.51168 -2.57206 0
M  V30 8658 C 818.096 -3.97211 -2.25993 0
M  V30 8659 C 819.093 -4.86155 -1.84254 0
M  V30 8660 C 816.778 -4.42419 -2.37846 0
M  V30 8661 C 818.772 -6.18323 -1.54776 0
M  V30 8662 C 816.459 -5.74619 -2.0798 0
M  V30 8663 C 817.457 -6.62392 -1.66511 0
M  V30 8664 O 817.145 -7.92137 -1.37016 0
M  V30 8665 H 816.877 -0.529748 -0.419932 0
M  V30 8666 H 819.431 -1.92998 -0.702914 0
M  V30 8667 H 817.661 -2.09171 -3.25245 0
M  V30 8668 H 819.35 -2.50631 -3.19279 0
M  V30 8669 H 820.116 -4.52481 -1.74603 0
M  V30 8670 H 815.995 -3.74319 -2.69085 0
M  V30 8671 H 819.539 -6.8679 -1.22334 0
M  V30 8672 H 815.436 -6.0784 -2.17258 0
M  V30 8673 H 816.204 -8.04492 -1.50782 0
M  V30 8674 N 818.867 0.818669 -1.34668 0
M  V30 8675 C 819.799 1.93754 -1.22442 0
M  V30 8676 C 820.812 1.62103 -0.150501 0
M  V30 8677 O 822.001 1.73898 -0.402728 0
M  V30 8678 C 819.101 3.27806 -0.860031 0
M  V30 8679 C 818.274 3.8745 -2.02981 0
M  V30 8680 C 817.333 4.99887 -1.64314 0
M  V30 8681 O 816.359 5.17957 -2.36029 0
M  V30 8682 N 817.561 5.77795 -0.55976 0
M  V30 8683 H 820.326 2.04773 -2.18833 0
M  V30 8684 H 817.887 0.995472 -1.27679 0
M  V30 8685 H 819.879 4.00478 -0.583068 0
M  V30 8686 H 818.449 3.12597 0.0138253 0
M  V30 8687 H 817.669 3.07119 -2.47127 0
M  V30 8688 H 818.957 4.2403 -2.81204 0
M  V30 8689 H 818.355 5.65688 0.0363329 0
M  V30 8690 H 816.912 6.50899 -0.342541 0
M  V30 8691 N 820.346 1.18468 1.03938 0
M  V30 8692 C 821.762 0.934635 1.29371 0
M  V30 8693 C 821.962 -0.399067 1.97509 0
M  V30 8694 O 821.018 -1.13309 2.25648 0
M  V30 8695 C 822.331 2.10111 2.15114 0
M  V30 8696 C 823.879 2.13955 2.28456 0
M  V30 8697 C 824.354 3.30024 3.17566 0
M  V30 8698 N 825.845 3.29893 3.25153 0
M  V30 8699 C 826.58 4.16346 3.94263 0
M  V30 8700 N 826.076 5.12934 4.65693 0
M  V30 8701 N 827.869 4.04256 3.90556 0
M  V30 8702 H 820.02 2.04294 0.581185 0
M  V30 8703 H 822.283 0.892727 0.318971 0
M  V30 8704 H 821.989 3.06572 1.72355 0
M  V30 8705 H 821.863 2.06283 3.15796 0
M  V30 8706 H 824.25 1.18072 2.7045 0
M  V30 8707 H 824.331 2.2184 1.2736 0
M  V30 8708 H 823.975 4.26181 2.76283 0
M  V30 8709 H 823.905 3.19376 4.18697 0
M  V30 8710 H 826.396 2.59969 2.74271 0
M  V30 8711 H 826.709 5.75271 5.16026 0
M  V30 8712 H 825.054 5.16893 4.64593 0
M  V30 8713 H 828.245 3.28083 3.33885 0
M  V30 8714 H 828.418 4.71848 4.44144 0
M  V30 8715 N 821.824 -1.22873 0.986916 0
M  V30 8716 C 822.757 -2.23154 0.477245 0
M  V30 8717 C 823.735 -1.55981 -0.459206 0
M  V30 8718 O 824.919 -1.84503 -0.386141 0
M  V30 8719 C 822.046 -3.37289 -0.308838 0
M  V30 8720 C 821.092 -4.22637 0.572717 0
M  V30 8721 S 821.925 -4.95758 2.02446 0
M  V30 8722 C 823.081 -6.13338 1.2477 0
M  V30 8723 H 823.314 -2.6604 1.32702 0
M  V30 8724 H 820.847 -1.32455 0.793415 0
M  V30 8725 H 822.805 -4.03472 -0.756351 0
M  V30 8726 H 821.466 -2.92922 -1.13381 0
M  V30 8727 H 820.659 -5.0399 -0.0318024 0
M  V30 8728 H 820.261 -3.61555 0.956746 0
M  V30 8729 H 822.553 -6.7556 0.51231 0
M  V30 8730 H 823.496 -6.78189 2.03629 0
M  V30 8731 H 823.904 -5.59311 0.763622 0
M  V30 8732 N 823.302 -0.75937 -1.38099 0
M  V30 8733 C 824.713 -0.385078 -1.82686 0
M  V30 8734 C 825.064 1.0871 -1.6333 0
M  V30 8735 O 824.189 1.84084 -1.13762 0
M  V30 8736 C 824.784 -0.692161 -3.31654 0
M  V30 8737 C 823.343 -0.371077 -3.74566 0
M  V30 8738 C 822.49 -0.942375 -2.60796 0
M  V30 8739 H 825.441 -0.955048 -1.26746 0
M  V30 8740 H 825.462 0.0276001 -3.8049 0
M  V30 8741 H 824.974 -1.76369 -3.4571 0
M  V30 8742 H 823.075 0.693637 -3.66087 0
M  V30 8743 H 823.188 -0.870672 -4.71122 0
M  V30 8744 H 821.552 -0.367383 -2.52036 0
M  V30 8745 H 822.335 -2.01905 -2.77649 0
M  V30 8746 N 824.78 1.49157 -0.508906 0
M  V30 8747 C 825.71 2.32109 0.254469 0
M  V30 8748 C 826.691 1.40754 0.955111 0
M  V30 8749 O 827.876 1.69658 0.944983 0
M  V30 8750 C 825.006 3.21458 1.3146 0
M  V30 8751 C 823.96 4.2167 0.733368 0
M  V30 8752 C 823.286 5.00009 1.8946 0
M  V30 8753 C 824.586 5.21544 -0.280875 0
M  V30 8754 H 826.28 2.9618 -0.43795 0
M  V30 8755 H 823.826 1.4243 -0.212062 0
M  V30 8756 H 825.779 3.78305 1.85643 0
M  V30 8757 H 824.503 2.55346 2.03632 0
M  V30 8758 H 823.162 3.65979 0.213231 0
M  V30 8759 H 822.81 4.30338 2.60419 0
M  V30 8760 H 822.51 5.67821 1.51173 0
M  V30 8761 H 824.034 5.59702 2.44061 0
M  V30 8762 H 825.448 5.73039 0.173095 0
M  V30 8763 H 823.845 5.97291 -0.580006 0
M  V30 8764 H 824.915 4.69969 -1.19404 0
M  V30 8765 N 826.258 0.243083 1.55714 0
M  V30 8766 C 827.188 -0.652336 2.24203 0
M  V30 8767 C 828.169 -1.1843 1.221 0
M  V30 8768 O 829.354 -1.22435 1.50743 0
M  V30 8769 C 826.484 -1.85111 2.93856 0
M  V30 8770 C 825.438 -1.45208 4.02615 0
M  V30 8771 C 824.764 -2.73137 4.59674 0
M  V30 8772 C 826.064 -0.625988 5.18535 0
M  V30 8773 H 827.758 -0.0812504 2.9929 0
M  V30 8774 H 825.304 -0.0376388 1.43951 0
M  V30 8775 H 827.257 -2.48314 3.40468 0
M  V30 8776 H 825.981 -2.44751 2.16251 0
M  V30 8777 H 824.64 -0.843406 3.56766 0
M  V30 8778 H 824.288 -3.30967 3.78774 0
M  V30 8779 H 823.988 -2.47163 5.33089 0
M  V30 8780 H 825.512 -3.37245 5.09017 0
M  V30 8781 H 826.926 -1.16223 5.61396 0
M  V30 8782 H 825.323 -0.462465 5.98315 0
M  V30 8783 H 826.393 0.362652 4.83542 0
M  V30 8784 N 827.736 -1.57571 -0.0300757 0
M  V30 8785 C 828.666 -2.0953 -1.03051 0
M  V30 8786 C 829.647 -0.99761 -1.37774 0
M  V30 8787 O 830.832 -1.27279 -1.46676 0
M  V30 8788 C 827.962 -2.57385 -2.33174 0
M  V30 8789 C 826.916 -3.71409 -2.12696 0
M  V30 8790 C 826.242 -4.05467 -3.4857 0
M  V30 8791 C 827.542 -4.99877 -1.51396 0
M  V30 8792 H 829.236 -2.93367 -0.597999 0
M  V30 8793 H 826.782 -1.41127 -0.286203 0
M  V30 8794 H 828.735 -2.92355 -3.03491 0
M  V30 8795 H 827.459 -1.70629 -2.78484 0
M  V30 8796 H 826.118 -3.36786 -1.44813 0
M  V30 8797 H 825.766 -3.15779 -3.91526 0
M  V30 8798 H 825.466 -4.82269 -3.35694 0
M  V30 8799 H 826.99 -4.4297 -4.2025 0
M  V30 8800 H 828.404 -5.3281 -2.11629 0
M  V30 8801 H 826.801 -5.81283 -1.49098 0
M  V30 8802 H 827.871 -4.82522 -0.479676 0
M  V30 8803 N 829.214 0.302327 -1.54673 0
M  V30 8804 C 830.162 1.39286 -1.86285 0
M  V30 8805 C 831.156 1.52553 -0.736478 0
M  V30 8806 O 832.362 1.54686 -0.92045 0
M  V30 8807 H 828.737 0.465228 -0.590819 0
M  V30 8808 H 830.708 1.09859 -2.77441 0
M  V30 8809 C 829.457 2.75155 -2.12567 0
M  V30 8810 H 828.78 2.65728 -2.98712 0
M  V30 8811 H 830.22 3.50476 -2.38627 0
M  V30 8812 C 828.679 3.23987 -0.923813 0
M  V30 8813 O 829.209 4.01443 -0.143649 0
M  V30 8814 N 827.415 2.81293 -0.72956 0
M  V30 8815 H 826.962 2.18421 -1.36565 0
M  V30 8816 H 826.92 3.14315 0.0730351 0
M  V30 8817 N 830.692 1.47107 0.565454 0
M  V30 8818 C 832.103 1.47266 1.1476 0
M  V30 8819 C 832.454 0.222841 1.9493 0
M  V30 8820 O 831.579 -0.672862 2.05673 0
M  V30 8821 C 832.174 2.66822 2.08785 0
M  V30 8822 C 830.733 2.69967 2.62288 0
M  V30 8823 C 829.88 2.40236 1.38499 0
M  V30 8824 H 832.831 1.54736 0.352479 0
M  V30 8825 H 832.852 2.43323 2.92531 0
M  V30 8826 H 832.364 3.5777 1.50408 0
M  V30 8827 H 830.465 1.83137 3.24487 0
M  V30 8828 H 830.578 3.70426 3.03845 0
M  V30 8829 H 828.942 1.90648 1.68895 0
M  V30 8830 H 829.725 3.33381 0.819274 0
M  V30 8831 N 832.17 -0.811516 1.35101 0
M  V30 8832 C 833.117 -1.92308 1.27617 0
M  V30 8833 C 834.087 -1.6543 0.149091 0
M  V30 8834 O 835.272 -1.8789 0.331974 0
M  V30 8835 C 832.412 -3.28768 1.04908 0
M  V30 8836 C 831.525 -3.67865 2.26493 0
M  V30 8837 C 830.66 -4.9333 1.96974 0
M  V30 8838 C 829.699 -5.25041 3.1464 0
M  V30 8839 N 828.836 -6.41685 2.84929 0
M  V30 8840 H 833.676 -1.98041 2.22674 0
M  V30 8841 H 831.213 -0.968755 1.10696 0
M  V30 8842 H 833.171 -4.07426 0.897749 0
M  V30 8843 H 831.801 -3.22517 0.135151 0
M  V30 8844 H 830.853 -2.84507 2.52507 0
M  V30 8845 H 832.165 -3.87263 3.14371 0
M  V30 8846 H 831.319 -5.79803 1.78643 0
M  V30 8847 H 830.058 -4.75958 1.06374 0
M  V30 8848 H 829.063 -4.3706 3.33554 0
M  V30 8849 H 830.288 -5.44346 4.06035 0
M  V30 8850 H 828.234 -6.25747 1.96918 0
M  V30 8851 H 828.151 -6.6131 3.66341 0
M  V30 8852 H 829.419 -7.31198 2.70128 0
M  V30 8853 N 833.648 -1.19017 -1.03309 0
M  V30 8854 C 834.578 -0.94772 -2.13402 0
M  V30 8855 C 835.559 0.117383 -1.69694 0
M  V30 8856 O 836.744 -0.0367733 -1.94165 0
M  V30 8857 C 833.874 -0.480977 -3.43953 0
M  V30 8858 C 832.828 -1.48743 -4.01322 0
M  V30 8859 C 832.154 -0.877924 -5.27443 0
M  V30 8860 C 833.454 -2.86642 -4.36616 0
M  V30 8861 H 835.148 -1.86846 -2.33942 0
M  V30 8862 H 832.694 -0.899781 -1.12427 0
M  V30 8863 H 834.647 -0.298677 -4.2034 0
M  V30 8864 H 833.371 0.475348 -3.23122 0
M  V30 8865 H 832.03 -1.65681 -3.27025 0
M  V30 8866 H 831.678 0.0858232 -5.02927 0
M  V30 8867 H 831.378 -1.54996 -5.66789 0
M  V30 8868 H 832.902 -0.706326 -6.06501 0
M  V30 8869 H 834.316 -2.73312 -5.03958 0
M  V30 8870 H 832.713 -3.50599 -4.87032 0
M  V30 8871 H 833.783 -3.39617 -3.46105 0
M  V30 8872 N 835.127 1.22348 -0.993418 0
M  V30 8873 C 836.057 2.26584 -0.564088 0
M  V30 8874 C 837.038 1.65102 0.409298 0
M  V30 8875 O 838.223 1.91872 0.299819 0
M  V30 8876 C 835.353 3.47087 0.121554 0
M  V30 8877 C 834.307 4.21009 -0.770429 0
M  V30 8878 C 833.633 5.34678 0.0481586 0
M  V30 8879 C 834.933 4.79636 -2.06752 0
M  V30 8880 H 836.627 2.62749 -1.43538 0
M  V30 8881 H 834.173 1.26303 -0.691628 0
M  V30 8882 H 836.126 4.19166 0.433303 0
M  V30 8883 H 834.85 3.1002 1.0274 0
M  V30 8884 H 833.509 3.50764 -1.06583 0
M  V30 8885 H 833.157 4.93852 0.954933 0
M  V30 8886 H 832.857 5.85061 -0.545641 0
M  V30 8887 H 834.381 6.09573 0.353991 0
M  V30 8888 H 835.795 5.43654 -1.81969 0
M  V30 8889 H 834.192 5.4036 -2.61019 0
M  V30 8890 H 835.262 3.99659 -2.74592 0
M  V30 8891 N 836.605 0.766683 1.37694 0
M  V30 8892 C 837.83 0.338715 2.04615 0
M  V30 8893 C 838.255 -1.02918 1.57447 0
M  V30 8894 O 837.613 -1.65849 0.732386 0
M  V30 8895 C 837.661 0.385284 3.58536 0
M  V30 8896 O 836.765 -0.616081 4.07772 0
M  V30 8897 H 836.106 0.147527 0.647404 0
M  V30 8898 H 838.636 1.04146 1.7611 0
M  V30 8899 H 838.646 0.240782 4.07289 0
M  V30 8900 H 837.321 1.38325 3.92223 0
M  V30 8901 H 835.898 -0.435115 3.70353 0
M  V30 8902 N 838.083 -1.48885 0.516809 0
M  V30 8903 C 839.013 -2.32241 -0.242157 0
M  V30 8904 C 839.994 -1.41258 -0.947633 0
M  V30 8905 O 841.179 -1.70156 -0.935973 0
M  V30 8906 C 838.309 -3.22151 -1.29754 0
M  V30 8907 C 837.263 -4.22053 -0.710995 0
M  V30 8908 C 836.589 -5.01007 -1.86806 0
M  V30 8909 C 837.889 -5.21388 0.30853 0
M  V30 8910 H 839.583 -2.95943 0.453651 0
M  V30 8911 H 837.129 -1.42316 0.219612 0
M  V30 8912 H 839.082 -3.79284 -1.83634 0
M  V30 8913 H 837.806 -2.56423 -2.02274 0
M  V30 8914 H 836.465 -3.66087 -0.193819 0
M  V30 8915 H 836.113 -4.31713 -2.58133 0
M  V30 8916 H 835.813 -5.68615 -1.48159 0
M  V30 8917 H 837.337 -5.60989 -2.4109 0
M  V30 8918 H 838.751 -5.73122 -0.142703 0
M  V30 8919 H 837.148 -5.96975 0.611673 0
M  V30 8920 H 838.218 -4.69329 1.21894 0
M  V30 8921 N 839.561 -0.251338 -1.55583 0
M  V30 8922 C 840.471 0.656978 -2.25213 0
M  V30 8923 C 841.487 1.18966 -1.26977 0
M  V30 8924 O 842.663 1.22499 -1.59862 0
M  V30 8925 C 839.728 1.83527 -2.94141 0
M  V30 8926 C 838.789 1.34162 -4.07798 0
M  V30 8927 C 838.022 2.46375 -4.73429 0
M  V30 8928 O 838.245 3.65205 -4.38157 0
M  V30 8929 O 837.179 2.15881 -5.61853 0
M  V30 8930 H 841.005 0.0936395 -3.03556 0
M  V30 8931 H 838.59 -0.0196638 -1.49387 0
M  V30 8932 H 840.472 2.52279 -3.3754 0
M  V30 8933 H 839.147 2.38614 -2.18735 0
M  V30 8934 H 838.054 0.621249 -3.68906 0
M  V30 8935 H 839.387 0.836779 -4.85035 0
M  V30 8936 N 841.039 1.57585 0.0217189 0
M  V30 8937 C 842.269 1.9359 0.721572 0
M  V30 8938 C 842.677 0.850132 1.69025 0
M  V30 8939 O 842.02 -0.181539 1.82801 0
M  V30 8940 C 842.082 3.25445 1.52729 0
M  V30 8941 C 841.746 4.51251 0.722586 0
M  V30 8942 C 842.743 5.19896 0.0196598 0
M  V30 8943 C 840.428 4.97745 0.674959 0
M  V30 8944 C 842.422 6.33319 -0.720114 0
M  V30 8945 C 840.109 6.11062 -0.068555 0
M  V30 8946 C 841.107 6.78704 -0.764845 0
M  V30 8947 O 840.795 7.89852 -1.49627 0
M  V30 8948 H 840.527 0.643409 0.207366 0
M  V30 8949 H 843.081 2.05391 -0.0189346 0
M  V30 8950 H 841.311 3.0999 2.31178 0
M  V30 8951 H 843 3.46721 2.11044 0
M  V30 8952 H 843.766 4.84977 0.0474394 0
M  V30 8953 H 839.645 4.44934 1.20643 0
M  V30 8954 H 843.189 6.86051 -1.26413 0
M  V30 8955 H 839.086 6.45425 -0.0982318 0
M  V30 8956 H 839.854 8.06251 -1.41071 0
M  V30 8957 N 842.517 -0.29412 1.54831 0
M  V30 8958 C 843.928 -0.866651 1.65366 0
M  V30 8959 C 844.279 -1.87834 0.56681 0
M  V30 8960 O 843.404 -2.14374 -0.295389 0
M  V30 8961 C 843.999 -1.57869 2.99771 0
M  V30 8962 C 842.558 -2.09954 3.12404 0
M  V30 8963 C 841.705 -0.934492 2.6108 0
M  V30 8964 H 844.656 -0.0709551 1.58541 0
M  V30 8965 H 844.677 -2.44462 2.91579 0
M  V30 8966 H 844.189 -0.84212 3.78853 0
M  V30 8967 H 842.29 -2.86637 2.38055 0
M  V30 8968 H 842.403 -2.32934 4.18663 0
M  V30 8969 H 840.767 -1.32199 2.17705 0
M  V30 8970 H 841.55 -0.211768 3.42646 0
M  V30 8971 N 843.995 -1.47404 -0.557645 0
M  V30 8972 C 845.411 -1.32913 -0.88353 0
M  V30 8973 C 845.611 -0.31929 -1.98954 0
M  V30 8974 O 844.667 0.26934 -2.51059 0
M  V30 8975 C 845.98 -2.72229 -1.27718 0
M  V30 8976 C 847.528 -2.8051 -1.38863 0
M  V30 8977 C 848.003 -4.20466 -1.81583 0
M  V30 8978 N 849.494 -4.23005 -1.88735 0
M  V30 8979 C 850.229 -5.2821 -2.23118 0
M  V30 8980 N 849.725 -6.4372 -2.56117 0
M  V30 8981 N 851.518 -5.15588 -2.23888 0
M  V30 8982 H 843.669 -2.11698 0.172557 0
M  V30 8983 H 845.932 -0.947889 0.0145334 0
M  V30 8984 H 845.638 -3.47556 -0.538329 0
M  V30 8985 H 845.512 -3.03971 -2.23342 0
M  V30 8986 H 847.899 -2.05457 -2.11829 0
M  V30 8987 H 847.98 -2.52423 -0.414274 0
M  V30 8988 H 847.624 -4.96025 -1.09187 0
M  V30 8989 H 847.554 -4.45977 -2.80021 0
M  V30 8990 H 850.045 -3.39674 -1.65621 0
M  V30 8991 H 850.358 -7.19754 -2.81378 0
M  V30 8992 H 848.703 -6.47041 -2.53698 0
M  V30 8993 H 851.894 -4.24374 -1.97546 0
M  V30 8994 H 852.067 -5.97685 -2.50353 0
M  V30 8995 N 845.473 0.80434 -1.35529 0
M  V30 8996 C 846.421 1.93769 -1.28671 0
M  V30 8997 C 847.415 1.68428 -0.181222 0
M  V30 8998 O 848.621 1.76617 -0.347338 0
M  V30 8999 H 844.996 0.636663 -0.400206 0
M  V30 9000 H 846.967 1.96673 -2.24415 0
M  V30 9001 C 845.716 3.30572 -1.07784 0
M  V30 9002 H 845.039 3.5063 -1.9209 0
M  V30 9003 H 846.479 4.1027 -1.07027 0
M  V30 9004 C 844.938 3.36193 0.218213 0
M  V30 9005 O 845.468 3.82941 1.21323 0
M  V30 9006 N 843.674 2.89455 0.257761 0
M  V30 9007 H 843.221 2.51604 -0.552562 0
M  V30 9008 H 843.179 2.93597 1.12465 0
M  V30 9009 N 846.951 1.19563 1.02676 0
M  V30 9010 C 847.899 0.931942 2.13114 0
M  V30 9011 C 848.893 -0.113007 1.69023 0
M  V30 9012 O 850.099 0.0364298 1.79963 0
M  V30 9013 H 846.474 0.283981 0.696318 0
M  V30 9014 H 848.445 1.86991 2.32545 0
M  V30 9015 C 847.194 0.489461 3.44238 0
M  V30 9016 H 846.517 1.28508 3.78584 0
M  V30 9017 H 847.957 0.34408 4.22602 0
M  V30 9018 C 846.416 -0.796761 3.27343 0
M  V30 9019 O 846.946 -1.85767 3.56165 0
M  V30 9020 N 845.152 -0.754824 2.80626 0
M  V30 9021 H 844.699 0.108778 2.5737 0
M  V30 9022 H 844.657 -1.6158 2.69702 0
M  V30 9023 N 848.429 -1.21819 0.999893 0
M  V30 9024 C 849.678 -1.90066 0.675108 0
M  V30 9025 C 849.991 -1.78624 -0.79705 0
M  V30 9026 O 851.197 -2.41851 -1.23371 0
M  V30 9027 C 849.653 -3.40795 1.15702 0
M  V30 9028 C 849.261 -3.60859 2.6549 0
M  V30 9029 C 851.005 -4.147 0.906889 0
M  V30 9030 C 848.912 -5.05324 3.07248 0
M  V30 9031 H 847.842 -0.711763 0.248815 0
M  V30 9032 H 850.493 -1.3792 1.21038 0
M  V30 9033 H 848.875 -3.92164 0.549832 0
M  V30 9034 H 850.049 -3.19951 3.31614 0
M  V30 9035 H 848.364 -3.00298 2.88461 0
M  V30 9036 H 850.961 -5.21187 1.1945 0
M  V30 9037 H 851.304 -4.16004 -0.156923 0
M  V30 9038 H 851.837 -3.69379 1.47662 0
M  V30 9039 H 848.576 -5.09164 4.12834 0
M  V30 9040 H 848.096 -5.47108 2.45832 0
M  V30 9041 H 849.775 -5.73797 2.98941 0
M  V30 9042 N 849.908 -0.773975 -1.37286 0
M  V30 9043 C 850.818 -0.162571 -2.34036 0
M  V30 9044 C 851.834 0.677022 -1.60289 0
M  V30 9045 O 853.01 0.596423 -1.92366 0
M  V30 9046 C 850.075 0.70457 -3.39465 0
M  V30 9047 C 849.136 -0.151738 -4.29032 0
M  V30 9048 C 848.369 0.674111 -5.29426 0
M  V30 9049 O 848.592 1.91107 -5.37433 0
M  V30 9050 O 847.526 0.0821398 -6.01844 0
M  V30 9051 H 851.352 -0.962119 -2.88057 0
M  V30 9052 H 848.937 -0.53517 -1.39486 0
M  V30 9053 H 850.819 1.19954 -4.03967 0
M  V30 9054 H 849.494 1.48227 -2.87768 0
M  V30 9055 H 848.401 -0.693118 -3.67623 0
M  V30 9056 H 849.734 -0.892575 -4.84039 0
M  V30 9057 N 851.386 1.48609 -0.524698 0
M  V30 9058 C 852.616 2.06599 0.00741868 0
M  V30 9059 C 853.024 1.3823 1.29186 0
M  V30 9060 O 852.367 0.461962 1.77797 0
M  V30 9061 C 852.429 3.58184 0.307324 0
M  V30 9062 C 852.093 4.48391 -0.882864 0
M  V30 9063 C 853.09 4.88485 -1.77984 0
M  V30 9064 C 850.775 4.90367 -1.08837 0
M  V30 9065 C 852.769 5.69319 -2.86627 0
M  V30 9066 C 850.456 5.70972 -2.17794 0
M  V30 9067 C 851.454 6.10355 -3.06523 0
M  V30 9068 O 851.142 6.89343 -4.13596 0
M  V30 9069 H 850.874 0.675421 -0.0279846 0
M  V30 9070 H 853.428 1.92058 -0.7282 0
M  V30 9071 H 851.658 3.70818 1.09685 0
M  V30 9072 H 853.347 3.98318 0.780886 0
M  V30 9073 H 854.113 4.56682 -1.63299 0
M  V30 9074 H 849.992 4.592 -0.407035 0
M  V30 9075 H 853.536 5.99978 -3.55911 0
M  V30 9076 H 849.433 6.02188 -2.32465 0
M  V30 9077 H 850.201 7.07689 -4.1124 0
M  V30 9078 N 852.864 0.259585 1.55447 0
M  V30 9079 C 854.11 -0.362143 1.9954 0
M  V30 9080 C 854.443 -1.5666 1.14767 0
M  V30 9081 O 853.718 -1.93319 0.214025 0
M  V30 9082 C 854.001 -0.759588 3.51998 0
M  V30 9083 C 853.854 0.451134 4.47532 0
M  V30 9084 C 855.173 -1.60186 4.09913 0
M  V30 9085 H 852.292 -0.130157 0.725416 0
M  V30 9086 H 854.934 0.363431 1.86492 0
M  V30 9087 H 853.084 -1.3778 3.63248 0
M  V30 9088 H 854.756 1.08965 4.48246 0
M  V30 9089 H 852.999 1.092 4.19831 0
M  V30 9090 H 853.67 0.129518 5.51848 0
M  V30 9091 H 856.146 -1.0799 4.01842 0
M  V30 9092 H 855.022 -1.84879 5.16828 0
M  V30 9093 H 855.283 -2.57787 3.59163 0
M  V30 9094 N 854.342 -1.57594 -0.0133615 0
M  V30 9095 C 855.758 -1.5527 -0.369255 0
M  V30 9096 C 855.958 -0.987751 -1.7563 0
M  V30 9097 O 855.014 -0.615683 -2.44879 0
M  V30 9098 C 856.327 -2.99602 -0.25672 0
M  V30 9099 C 857.875 -3.11227 -0.332647 0
M  V30 9100 C 858.35 -4.57321 -0.249387 0
M  V30 9101 N 859.841 -4.62177 -0.3077 0
M  V30 9102 C 860.576 -5.72781 -0.26641 0
M  V30 9103 N 860.072 -6.92575 -0.176494 0
M  V30 9104 N 861.865 -5.61204 -0.317295 0
M  V30 9105 H 854.016 -1.92662 0.894154 0
M  V30 9106 H 856.279 -0.884352 0.341505 0
M  V30 9107 H 855.985 -3.44723 0.697072 0
M  V30 9108 H 855.859 -3.6246 -1.04415 0
M  V30 9109 H 858.246 -2.66045 -1.27688 0
M  V30 9110 H 858.327 -2.51171 0.484412 0
M  V30 9111 H 857.971 -5.03174 0.691242 0
M  V30 9112 H 857.901 -5.15306 -1.08476 0
M  V30 9113 H 860.392 -3.75994 -0.379069 0
M  V30 9114 H 860.705 -7.72653 -0.150518 0
M  V30 9115 H 859.05 -6.94854 -0.142314 0
M  V30 9116 H 862.241 -4.66509 -0.385643 0
M  V30 9117 H 862.414 -6.47388 -0.28165 0
M  V30 9118 N 855.82 0.285905 -1.54985 0
M  V30 9119 C 857.097 1.0397 -1.65679 0
M  V30 9120 C 857.477 2.04725 -0.514851 0
M  V30 9121 O 856.825 2.23257 0.486663 0
M  V30 9122 C 857.035 1.70807 -3.04345 0
M  V30 9123 C 858.383 2.22447 -3.61666 0
M  V30 9124 O 859.407 1.80815 -3.06895 0
M  V30 9125 O 858.266 2.98773 -4.57599 0
M  V30 9126 H 855.36 0.481473 -0.672394 0
M  V30 9127 H 857.906 0.282789 -1.67327 0
M  V30 9128 H 856.678 0.977271 -3.789 0
M  V30 9129 H 856.301 2.53217 -3.06541 0
M  V30 9130 N 857.298 1.47698 0.54982 0
M  V30 9131 C 858.547 1.53961 1.30303 0
M  V30 9132 C 858.86 0.209731 1.94472 0
M  V30 9133 O 860.066 0.150418 2.71083 0
M  V30 9134 C 858.522 2.71436 2.36328 0
M  V30 9135 C 858.13 4.10983 1.78316 0
M  V30 9136 C 859.874 2.86996 3.12783 0
M  V30 9137 C 857.781 5.19747 2.82164 0
M  V30 9138 H 856.711 0.573098 0.489975 0
M  V30 9139 H 859.362 1.73989 0.583089 0
M  V30 9140 H 857.744 2.44801 3.11269 0
M  V30 9141 H 858.918 4.47552 1.09697 0
M  V30 9142 H 857.233 4.00371 1.1442 0
M  V30 9143 H 859.83 3.65422 3.90347 0
M  V30 9144 H 860.173 1.95712 3.67427 0
M  V30 9145 H 860.706 3.13436 2.44954 0
M  V30 9146 H 857.445 6.12932 2.32366 0
M  V30 9147 H 856.965 4.87688 3.49171 0
M  V30 9148 H 858.644 5.47014 3.4552 0
M  V30 9149 N 858.776 -0.797141 1.35954 0
M  V30 9150 C 860.024 -1.55161 1.29497 0
M  V30 9151 C 860.345 -1.94582 -0.127659 0
M  V30 9152 O 859.615 -1.64343 -1.06622 0
M  V30 9153 H 858.195 -0.575413 0.47635 0
M  V30 9154 H 860.857 -0.950282 1.70164 0
M  V30 9155 H 859.953 -2.46272 1.9172 0
M  V30 9156 N 860.254 -1.20106 -1.0204 0
M  V30 9157 C 861.164 -0.962051 -2.13967 0
M  V30 9158 C 862.18 0.0808053 -1.73812 0
M  V30 9159 O 863.356 -0.105774 -2.01122 0
M  V30 9160 C 860.421 -0.513108 -3.42882 0
M  V30 9161 C 859.482 -1.62636 -3.97301 0
M  V30 9162 C 858.715 -1.19875 -5.20063 0
M  V30 9163 O 858.938 -0.0658423 -5.70362 0
M  V30 9164 O 857.872 -2.00467 -5.67536 0
M  V30 9165 H 861.698 -1.8991 -2.36998 0
M  V30 9166 H 859.283 -0.984608 -1.12365 0
M  V30 9167 H 861.165 -0.271797 -4.20523 0
M  V30 9168 H 859.84 0.395402 -3.21276 0
M  V30 9169 H 858.747 -1.92192 -3.20957 0
M  V30 9170 H 860.08 -2.51174 -4.23288 0
M  V30 9171 N 861.732 1.21287 -1.00634 0
M  V30 9172 C 862.98 1.90013 -0.688438 0
M  V30 9173 C 863.301 1.78573 0.783365 0
M  V30 9174 O 862.571 1.1815 1.56261 0
M  V30 9175 H 861.151 0.703336 -0.251648 0
M  V30 9176 H 863.813 1.47346 -1.27574 0
M  V30 9177 H 862.909 2.96879 -0.962781 0
M  V30 9178 N 863.21 0.781244 1.36873 0
M  V30 9179 C 864.173 0.180094 2.28491 0
M  V30 9180 C 865.173 -0.617798 1.48458 0
M  V30 9181 O 866.363 -0.439991 1.68552 0
M  V30 9182 C 863.495 -0.751741 3.32508 0
M  V30 9183 H 864.688 0.987837 2.83164 0
M  V30 9184 H 862.241 0.550102 1.463 0
M  V30 9185 H 862.976 -1.58413 2.82977 0
M  V30 9186 H 862.761 -0.181649 3.91679 0
M  V30 9187 H 864.251 -1.16748 4.00949 0
M  V30 9188 N 864.689 -1.48329 0.532571 0
M  V30 9189 C 865.936 -2.025 -0.000582356 0
M  V30 9190 C 866.264 -1.40942 -1.34036 0
M  V30 9191 O 865.519 -0.545545 -1.87942 0
M  V30 9192 C 865.818 -3.57 -0.168943 0
M  V30 9193 C 865.484 -4.37357 1.0968 0
M  V30 9194 C 864.146 -4.59033 1.44369 0
M  V30 9195 C 866.498 -4.83882 1.93669 0
M  V30 9196 C 863.826 -5.24481 2.62939 0
M  V30 9197 C 866.178 -5.50637 3.11419 0
M  V30 9198 C 864.842 -5.70551 3.46451 0
M  V30 9199 H 864.112 -0.741 -0.000213099 0
M  V30 9200 H 866.759 -1.78282 0.699117 0
M  V30 9201 H 865.064 -3.80072 -0.951429 0
M  V30 9202 H 866.761 -3.9654 -0.596422 0
M  V30 9203 H 863.351 -4.20748 0.816655 0
M  V30 9204 H 867.535 -4.66936 1.6818 0
M  V30 9205 H 862.791 -5.38096 2.9028 0
M  V30 9206 H 866.965 -5.85655 3.76803 0
M  V30 9207 H 864.592 -6.21037 4.38425 0
M  V30 9208 N 866.167 -0.267825 -1.55308 0
M  V30 9209 C 867.415 0.350343 -1.9904 0
M  V30 9210 C 867.736 1.56924 -1.15758 0
M  V30 9211 O 867.006 1.94358 -0.245336 0
M  V30 9212 H 865.586 0.132435 -0.735167 0
M  V30 9213 H 868.248 -0.371471 -1.91327 0
M  V30 9214 H 867.344 0.645203 -3.05358 0
M  V30 9215 N 867.645 1.57599 0.00500368 0
M  V30 9216 C 869.061 1.55463 0.361015 0
M  V30 9217 C 869.261 0.997051 1.75103 0
M  V30 9218 O 868.317 0.628661 2.44549 0
M  V30 9219 C 869.63 2.99734 0.240828 0
M  V30 9220 C 871.178 3.11399 0.316138 0
M  V30 9221 C 871.653 4.57446 0.22513 0
M  V30 9222 N 873.144 4.62334 0.283186 0
M  V30 9223 C 873.879 5.72914 0.23603 0
M  V30 9224 N 873.375 6.92659 0.139762 0
M  V30 9225 N 875.168 5.61364 0.287529 0
M  V30 9226 H 867.319 1.92185 -0.904359 0
M  V30 9227 H 869.582 0.882529 -0.34619 0
M  V30 9228 H 869.288 3.44348 -0.715343 0
M  V30 9229 H 869.162 3.63009 1.02491 0
M  V30 9230 H 871.549 2.66718 1.26275 0
M  V30 9231 H 871.63 2.50911 -0.497725 0
M  V30 9232 H 871.274 5.02801 -0.717917 0
M  V30 9233 H 871.204 5.15874 1.05742 0
M  V30 9234 H 873.695 3.7619 0.359123 0
M  V30 9235 H 874.008 7.72722 0.10954 0
M  V30 9236 H 872.353 6.9492 0.105462 0
M  V30 9237 H 875.544 4.66707 0.360897 0
M  V30 9238 H 875.717 6.47528 0.247313 0
M  V30 9239 N 869.123 -0.277682 1.55134 0
M  V30 9240 C 870.369 -1.0114 1.7578 0
M  V30 9241 C 870.702 -1.86109 0.554719 0
M  V30 9242 O 869.977 -1.89275 -0.447813 0
M  V30 9243 C 870.26 -1.89789 3.06027 0
M  V30 9244 C 870.113 -1.07844 4.3668 0
M  V30 9245 C 871.432 -2.88577 3.32282 0
M  V30 9246 H 868.551 -0.366277 0.639539 0
M  V30 9247 H 871.193 -0.284155 1.87863 0
M  V30 9248 H 869.343 -2.51796 2.95856 0
M  V30 9249 H 871.015 -0.479432 4.58802 0
M  V30 9250 H 869.258 -0.381764 4.32117 0
M  V30 9251 H 869.929 -1.73179 5.24131 0
M  V30 9252 H 872.405 -2.36702 3.42215 0
M  V30 9253 H 871.281 -3.47749 4.2469 0
M  V30 9254 H 871.542 -3.63458 2.51696 0
M  V30 9255 N 870.601 -1.47988 -0.541979 0
M  V30 9256 C 871.848 -1.55393 -1.29843 0
M  V30 9257 C 872.176 -0.222668 -1.93221 0
M  V30 9258 O 871.431 0.785936 -1.79225 0
M  V30 9259 C 871.73 -2.63189 -2.41798 0
M  V30 9260 C 871.396 -4.05999 -1.96151 0
M  V30 9261 C 870.058 -4.44872 -1.83419 0
M  V30 9262 C 872.41 -4.95545 -1.61507 0
M  V30 9263 C 869.738 -5.71108 -1.34361 0
M  V30 9264 C 872.09 -6.22259 -1.13915 0
M  V30 9265 C 870.754 -6.59998 -0.997911 0
M  V30 9266 H 870.024 -0.568623 -0.47513 0
M  V30 9267 H 872.671 -1.81654 -0.606142 0
M  V30 9268 H 870.976 -2.30743 -3.16647 0
M  V30 9269 H 872.673 -2.66138 -2.99953 0
M  V30 9270 H 869.263 -3.75294 -2.07008 0
M  V30 9271 H 873.447 -4.662 -1.70209 0
M  V30 9272 H 868.703 -5.99083 -1.22103 0
M  V30 9273 H 872.877 -6.91048 -0.861755 0
M  V30 9274 H 870.504 -7.57704 -0.615561 0
M  V30 9275 N 872.079 0.78992 -1.36375 0
M  V30 9276 C 873.011 1.91113 -1.26524 0
M  V30 9277 C 874.024 1.61747 -0.184851 0
M  V30 9278 O 875.213 1.73004 -0.439524 0
M  V30 9279 C 872.313 3.25908 -0.92937 0
M  V30 9280 C 871.486 3.83057 -2.11154 0
M  V30 9281 C 870.545 4.96289 -1.74881 0
M  V30 9282 O 869.571 5.12834 -2.46962 0
M  V30 9283 N 870.773 5.76478 -0.682193 0
M  V30 9284 H 873.538 2.00085 -2.23128 0
M  V30 9285 H 871.099 0.968165 -1.29762 0
M  V30 9286 H 873.091 3.99151 -0.667884 0
M  V30 9287 H 871.661 3.12556 -0.0524843 0
M  V30 9288 H 870.881 3.01808 -2.53586 0
M  V30 9289 H 872.169 4.1797 -2.90135 0
M  V30 9290 H 871.567 5.65638 -0.0836661 0
M  V30 9291 H 870.124 6.50026 -0.480529 0
M  V30 9292 N 873.557 1.20646 1.01402 0
M  V30 9293 C 874.52 0.959314 2.08158 0
M  V30 9294 C 875.52 -0.0661558 1.60664 0
M  V30 9295 O 876.71 0.170177 1.73367 0
M  V30 9296 C 873.842 0.444785 3.37986 0
M  V30 9297 H 875.035 1.90631 2.31517 0
M  V30 9298 H 872.588 1.02219 1.18241 0
M  V30 9299 H 873.323 -0.507553 3.20304 0
M  V30 9300 H 873.108 1.18435 3.73785 0
M  V30 9301 H 874.598 0.291443 4.16582 0
M  V30 9302 N 875.035 -1.20752 1.01276 0
M  V30 9303 C 876.451 -1.42084 0.726934 0
M  V30 9304 C 876.651 -1.89138 -0.694907 0
M  V30 9305 O 875.707 -2.05783 -1.4632 0
M  V30 9306 C 877.02 -2.44575 1.74938 0
M  V30 9307 C 878.568 -2.58347 1.76708 0
M  V30 9308 C 879.043 -3.64078 2.77869 0
M  V30 9309 N 880.534 -3.71558 2.76585 0
M  V30 9310 C 881.269 -4.53016 3.51517 0
M  V30 9311 N 880.765 -5.38309 4.36114 0
M  V30 9312 N 882.558 -4.47512 3.40132 0
M  V30 9313 H 874.709 -0.885228 1.93074 0
M  V30 9314 H 876.972 -0.451075 0.833808 0
M  V30 9315 H 876.678 -2.1699 2.76782 0
M  V30 9316 H 876.552 -3.43503 1.55838 0
M  V30 9317 H 878.939 -2.85265 0.755516 0
M  V30 9318 H 879.02 -1.59628 1.99882 0
M  V30 9319 H 878.664 -3.37905 3.79187 0
M  V30 9320 H 878.594 -4.62412 2.51958 0
M  V30 9321 H 881.085 -3.10629 2.15216 0
M  V30 9322 H 881.398 -5.9754 4.90068 0
M  V30 9323 H 879.743 -5.37824 4.40194 0
M  V30 9324 H 882.934 -3.79912 2.73467 0
M  V30 9325 H 883.107 -5.10759 3.98784 0
M  V30 9326 N 876.513 -0.788492 -1.36457 0
M  V30 9327 C 877.476 -0.192209 -2.28393 0
M  V30 9328 C 878.476 0.609916 -1.48784 0
M  V30 9329 O 879.666 0.431046 -1.68783 0
M  V30 9330 C 876.798 0.734096 -3.32902 0
M  V30 9331 H 877.991 -1.00284 -2.82636 0
M  V30 9332 H 875.544 -0.557852 -1.46006 0
M  V30 9333 H 876.279 1.5691 -2.83813 0
M  V30 9334 H 876.064 0.160875 -3.9177 0
M  V30 9335 H 877.554 1.1462 -4.01562 0
M  V30 9336 N 877.991 1.48044 -0.54043 0
M  V30 9337 C 879.402 1.86418 -0.102662 0
M  V30 9338 C 879.753 1.4489 1.32293 0
M  V30 9339 O 878.878 0.844319 1.99249 0
M  V30 9340 C 879.473 3.38324 -0.179533 0
M  V30 9341 C 878.032 3.75852 0.203098 0
M  V30 9342 C 877.179 2.72097 -0.534637 0
M  V30 9343 H 880.13 1.398 -0.751103 0
M  V30 9344 H 880.151 3.75641 0.606147 0
M  V30 9345 H 879.663 3.68518 -1.21721 0
M  V30 9346 H 877.764 3.51272 1.24252 0
M  V30 9347 H 877.877 4.78884 -0.143784 0
M  V30 9348 H 876.241 2.54692 0.0203358 0
M  V30 9349 H 877.024 3.05135 -1.57314 0
M  V30 9350 N 879.47 0.276058 1.55163 0
M  V30 9351 C 880.718 -0.339782 1.99223 0
M  V30 9352 C 881.039 -1.56307 1.16589 0
M  V30 9353 O 880.309 -1.94225 0.25564 0
M  V30 9354 H 878.889 -0.128534 0.735859 0
M  V30 9355 H 881.551 0.381612 1.91128 0
M  V30 9356 H 880.647 -0.629 3.05696 0
M  V30 9357 N 880.948 -1.576 0.00335426 0
M  V30 9358 C 881.878 -2.11668 -0.985839 0
M  V30 9359 C 882.859 -1.02661 -1.35627 0
M  V30 9360 O 884.044 -1.30361 -1.43943 0
M  V30 9361 C 881.174 -2.62273 -2.27662 0
M  V30 9362 C 880.128 -3.75837 -2.0477 0
M  V30 9363 C 879.454 -4.12769 -3.39891 0
M  V30 9364 C 880.754 -5.02975 -1.40759 0
M  V30 9365 H 882.448 -2.9457 -0.535637 0
M  V30 9366 H 879.994 -1.41702 -0.256204 0
M  V30 9367 H 881.947 -2.98727 -2.97221 0
M  V30 9368 H 880.671 -1.76498 -2.74802 0
M  V30 9369 H 879.33 -3.39782 -1.37636 0
M  V30 9370 H 878.978 -3.24013 -3.8474 0
M  V30 9371 H 878.678 -4.89281 -3.25389 0
M  V30 9372 H 880.202 -4.51784 -4.1076 0
M  V30 9373 H 881.616 -5.37179 -2.00279 0
M  V30 9374 H 880.013 -5.84315 -1.36734 0
M  V30 9375 H 881.083 -4.83431 -0.377218 0
M  V30 9376 N 882.426 0.269451 -1.5528 0
M  V30 9377 C 883.356 1.33729 -1.91413 0
M  V30 9378 C 884.337 1.51348 -0.776391 0
M  V30 9379 O 885.522 1.64332 -1.03482 0
M  V30 9380 C 882.652 2.69618 -2.18914 0
M  V30 9381 C 881.606 2.66725 -3.34726 0
M  V30 9382 C 880.932 4.06199 -3.47716 0
M  V30 9383 C 882.232 2.25684 -4.71025 0
M  V30 9384 H 883.926 1.03736 -2.80854 0
M  V30 9385 H 881.472 0.497579 -1.3513 0
M  V30 9386 H 883.425 3.44436 -2.42779 0
M  V30 9387 H 882.149 3.01201 -1.26275 0
M  V30 9388 H 880.808 1.94365 -3.10834 0
M  V30 9389 H 880.456 4.3501 -2.52537 0
M  V30 9390 H 880.156 4.05157 -4.25583 0
M  V30 9391 H 881.68 4.8275 -3.73877 0
M  V30 9392 H 883.094 2.90225 -4.94411 0
M  V30 9393 H 881.491 2.35797 -5.51833 0
M  V30 9394 H 882.561 1.20819 -4.69607 0
M  V30 9395 N 883.904 1.48273 0.534124 0
M  V30 9396 C 885.315 1.49667 1.1161 0
M  V30 9397 C 885.666 0.264139 1.94414 0
M  V30 9398 O 884.791 -0.629084 2.07054 0
M  V30 9399 C 885.386 2.71191 2.03079 0
M  V30 9400 C 883.945 2.7547 2.56502 0
M  V30 9401 C 883.092 2.43119 1.33373 0
M  V30 9402 H 886.043 1.55449 0.319578 0
M  V30 9403 H 886.064 2.49473 2.87304 0
M  V30 9404 H 885.576 3.60879 1.42785 0
M  V30 9405 H 883.677 1.89979 3.20529 0
M  V30 9406 H 883.79 3.76787 2.95919 0
M  V30 9407 H 882.154 1.94187 1.64813 0
M  V30 9408 H 882.937 3.35044 0.748375 0
M  V30 9409 N 885.382 -0.782676 1.36792 0
M  V30 9410 C 886.612 -1.56934 1.3437 0
M  V30 9411 C 887.02 -1.89049 -0.0754828 0
M  V30 9412 O 886.363 -1.51103 -1.04467 0
M  V30 9413 C 886.425 -2.91311 2.10661 0
M  V30 9414 C 886.089 -2.81889 3.59705 0
M  V30 9415 C 887.086 -2.53668 4.53815 0
M  V30 9416 C 884.771 -3.00254 4.02682 0
M  V30 9417 C 886.765 -2.43925 5.8888 0
M  V30 9418 C 884.452 -2.90132 5.37835 0
M  V30 9419 C 885.45 -2.62006 6.30747 0
M  V30 9420 O 885.138 -2.5189 7.63418 0
M  V30 9421 H 884.87 -0.493194 0.462316 0
M  V30 9422 H 887.424 -0.978791 1.80579 0
M  V30 9423 H 885.654 -3.52443 1.59125 0
M  V30 9424 H 887.343 -3.52632 2.01012 0
M  V30 9425 H 888.109 -2.39176 4.21924 0
M  V30 9426 H 883.988 -3.21151 3.30731 0
M  V30 9427 H 887.532 -2.21892 6.6137 0
M  V30 9428 H 883.429 -3.04189 5.69332 0
M  V30 9429 H 884.197 -2.67321 7.73616 0
M  V30 9430 N 886.86 -1.21182 -1.00761 0
M  V30 9431 C 887.77 -0.984691 -2.12934 0
M  V30 9432 C 888.786 0.0623657 -1.73888 0
M  V30 9433 O 889.962 -0.1271 -2.00999 0
M  V30 9434 C 887.027 -0.549447 -3.42319 0
M  V30 9435 C 886.088 -1.66841 -3.95553 0
M  V30 9436 C 885.321 -1.25384 -5.18763 0
M  V30 9437 O 885.544 -0.126333 -5.7026 0
M  V30 9438 O 884.478 -2.06475 -5.65377 0
M  V30 9439 H 888.304 -1.92413 -2.3497 0
M  V30 9440 H 885.889 -0.99647 -1.11314 0
M  V30 9441 H 887.771 -0.316384 -4.20211 0
M  V30 9442 H 886.446 0.361304 -3.21677 0
M  V30 9443 H 885.353 -1.95585 -3.189 0
M  V30 9444 H 886.686 -2.55649 -4.206 0
M  V30 9445 N 888.338 1.20213 -1.01915 0
M  V30 9446 C 889.749 1.7136 -0.741131 0
M  V30 9447 C 890.1 1.81705 0.740107 0
M  V30 9448 O 889.225 1.48139 1.57746 0
M  V30 9449 C 889.82 3.11231 -1.33869 0
M  V30 9450 C 888.379 3.59677 -1.10948 0
M  V30 9451 C 887.526 2.36809 -1.4428 0
M  V30 9452 H 890.477 1.05191 -1.1883 0
M  V30 9453 H 890.498 3.7342 -0.730585 0
M  V30 9454 H 890.01 3.03669 -2.41675 0
M  V30 9455 H 888.111 3.72568 -0.0492052 0
M  V30 9456 H 888.224 4.44351 -1.79134 0
M  V30 9457 H 886.588 2.39674 -0.861881 0
M  V30 9458 H 887.371 2.31886 -2.53148 0
M  V30 9459 N 889.816 0.795718 1.36037 0
M  V30 9460 C 891.063 0.371024 1.99072 0
M  V30 9461 C 891.391 -1.05896 1.63145 0
M  V30 9462 O 890.646 -1.7474 0.881163 0
M  V30 9463 C 890.945 0.489038 3.54038 0
M  V30 9464 C 890.611 1.88075 4.09803 0
M  V30 9465 C 889.273 2.26152 4.24745 0
M  V30 9466 C 891.625 2.79174 4.40126 0
M  V30 9467 C 888.953 3.54718 4.67324 0
M  V30 9468 C 891.305 4.07175 4.8414 0
M  V30 9469 C 889.969 4.45266 4.97287 0
M  V30 9470 H 889.239 0.135767 0.728456 0
M  V30 9471 H 891.886 1.0144 1.62426 0
M  V30 9472 H 890.191 -0.237823 3.91078 0
M  V30 9473 H 891.888 0.141374 4.00751 0
M  V30 9474 H 888.478 1.57488 3.98617 0
M  V30 9475 H 892.662 2.51009 4.28145 0
M  V30 9476 H 887.918 3.84093 4.75691 0
M  V30 9477 H 892.092 4.77875 5.06565 0
M  V30 9478 H 889.719 5.44943 5.30038 0
M  V30 9479 N 891.294 -1.47756 0.548274 0
M  V30 9480 C 892.522 -2.06884 0.0254873 0
M  V30 9481 C 892.937 -1.40225 -1.26422 0
M  V30 9482 O 892.294 -0.495776 -1.75637 0
M  V30 9483 C 892.345 -3.61036 -0.183134 0
M  V30 9484 O 892.066 -4.25195 1.05549 0
M  V30 9485 C 893.567 -4.37008 -0.744222 0
M  V30 9486 H 890.787 -0.669697 0.041789 0
M  V30 9487 H 893.331 -1.89888 0.759138 0
M  V30 9488 H 891.486 -3.77576 -0.866886 0
M  V30 9489 H 891.9 -5.17606 0.847629 0
M  V30 9490 H 893.374 -5.45579 -0.839529 0
M  V30 9491 H 893.851 -4.0268 -1.75344 0
M  V30 9492 H 894.457 -4.25191 -0.0964542 0
M  V30 9493 N 892.772 -0.284283 -1.55015 0
M  V30 9494 C 893.705 0.640779 -2.19019 0
M  V30 9495 C 894.683 1.14541 -1.15409 0
M  V30 9496 O 895.867 1.21669 -1.43975 0
M  V30 9497 C 892.994 1.87488 -2.82074 0
M  V30 9498 C 892.04 1.50494 -3.99066 0
M  V30 9499 S 892.873 0.575218 -5.32402 0
M  V30 9500 C 894.029 1.81749 -5.98931 0
M  V30 9501 H 894.262 0.0969761 -2.97142 0
M  V30 9502 H 891.795 -0.0684929 -1.54248 0
M  V30 9503 H 893.753 2.58319 -3.19032 0
M  V30 9504 H 892.414 2.38984 -2.03828 0
M  V30 9505 H 891.607 2.42349 -4.41908 0
M  V30 9506 H 891.209 0.876741 -3.63578 0
M  V30 9507 H 893.501 2.76026 -6.18721 0
M  V30 9508 H 894.444 1.43192 -6.93471 0
M  V30 9509 H 894.852 1.98661 -5.28388 0
M  V30 9510 N 894.251 1.57596 -0.0117121 0
M  V30 9511 C 895.497 1.91355 0.671661 0
M  V30 9512 C 895.83 0.886818 1.72769 0
M  V30 9513 O 895.105 -0.0928813 1.94278 0
M  V30 9514 C 895.388 3.35657 1.30409 0
M  V30 9515 C 895.241 4.49055 0.2588 0
M  V30 9516 C 896.56 3.79595 2.22701 0
M  V30 9517 H 893.679 0.695893 0.242698 0
M  V30 9518 H 896.321 1.89887 -0.0654071 0
M  V30 9519 H 894.471 3.37038 1.9323 0
M  V30 9520 H 896.143 4.59809 -0.370631 0
M  V30 9521 H 894.386 4.31785 -0.417672 0
M  V30 9522 H 895.057 5.4701 0.740578 0
M  V30 9523 H 897.533 3.7984 1.69885 0
M  V30 9524 H 896.409 4.81292 2.63912 0
M  V30 9525 H 896.67 3.14118 3.11098 0
M  V30 9526 N 895.729 -0.261212 1.5542 0
M  V30 9527 C 896.692 -1.30645 1.8832 0
M  V30 9528 C 897.692 -1.41782 0.758588 0
M  V30 9529 O 898.882 -1.40729 1.02669 0
M  V30 9530 C 896.014 -2.6862 2.09895 0
M  V30 9531 H 897.207 -1.02698 2.81768 0
M  V30 9532 H 894.76 -0.499838 1.48092 0
M  V30 9533 H 895.495 -3.0173 1.18868 0
M  V30 9534 H 895.28 -2.61921 2.91787 0
M  V30 9535 H 896.77 -3.44121 2.36581 0
M  V30 9536 N 897.207 -1.48554 -0.526253 0
M  V30 9537 C 898.453 -1.56994 -1.28378 0
M  V30 9538 C 898.786 -0.244701 -1.92652 0
M  V30 9539 O 898.061 0.749636 -1.79473 0
M  V30 9540 C 898.344 -2.71092 -2.37026 0
M  V30 9541 C 898.197 -4.13331 -1.77418 0
M  V30 9542 C 899.516 -2.80934 -3.38769 0
M  V30 9543 H 896.635 -0.571466 -0.465398 0
M  V30 9544 H 899.277 -1.80742 -0.585861 0
M  V30 9545 H 897.427 -2.50973 -2.96555 0
M  V30 9546 H 899.099 -4.44899 -1.21912 0
M  V30 9547 H 897.342 -4.20158 -1.07936 0
M  V30 9548 H 898.013 -4.88994 -2.56104 0
M  V30 9549 H 900.489 -2.9917 -2.892 0
M  V30 9550 H 899.365 -3.62489 -4.12181 0
M  V30 9551 H 899.626 -1.89244 -3.99549 0
M  V30 9552 N 898.685 0.775411 -1.37205 0
M  V30 9553 C 899.632 1.88857 -1.32671 0
M  V30 9554 C 900.602 1.64976 -0.192899 0
M  V30 9555 O 901.787 1.86944 -0.381673 0
M  V30 9556 C 898.927 3.25871 -1.13588 0
M  V30 9557 C 898.04 3.61731 -2.36167 0
M  V30 9558 C 897.175 4.87934 -2.09985 0
M  V30 9559 C 896.214 5.16514 -3.2845 0
M  V30 9560 N 895.351 6.33905 -3.01842 0
M  V30 9561 H 900.191 1.92068 -2.27846 0
M  V30 9562 H 897.728 0.939066 -1.13225 0
M  V30 9563 H 899.686 4.04903 -1.00546 0
M  V30 9564 H 898.316 3.22045 -0.220613 0
M  V30 9565 H 897.368 2.77712 -2.59962 0
M  V30 9566 H 898.68 3.78792 -3.24528 0
M  V30 9567 H 897.834 5.74863 -1.93953 0
M  V30 9568 H 896.573 4.7297 -1.18956 0
M  V30 9569 H 895.578 4.28063 -3.45025 0
M  V30 9570 H 896.803 5.33389 -4.20325 0
M  V30 9571 H 894.749 6.20306 -2.13439 0
M  V30 9572 H 894.666 6.51364 -3.83746 0
M  V30 9573 H 895.934 7.23779 -2.8942 0
M  V30 9574 N 900.163 1.21714 1.00117 0
M  V30 9575 C 901.096 0.923113 2.08696 0
M  V30 9576 C 902.074 -0.130827 1.62073 0
M  V30 9577 O 903.258 -0.00103064 1.885 0
M  V30 9578 C 900.385 0.386807 3.36484 0
M  V30 9579 C 899.431 1.42414 4.0202 0
M  V30 9580 S 900.264 2.99466 4.43937 0
M  V30 9581 C 901.42 2.47452 5.74907 0
M  V30 9582 H 901.653 1.84258 2.33315 0
M  V30 9583 H 899.186 1.0473 1.1345 0
M  V30 9584 H 901.144 0.0839547 4.10414 0
M  V30 9585 H 899.805 -0.511413 3.09909 0
M  V30 9586 H 898.998 0.998593 4.94008 0
M  V30 9587 H 898.6 1.67527 3.34381 0
M  V30 9588 H 900.892 1.88177 6.50842 0
M  V30 9589 H 901.835 3.37898 6.22279 0
M  V30 9590 H 902.243 1.89027 5.31911 0
M  V30 9591 N 901.641 -1.19671 1.02551 0
M  V30 9592 C 902.571 -2.25009 0.623965 0
M  V30 9593 C 903.552 -1.66129 -0.36538 0
M  V30 9594 O 904.737 -1.92599 -0.248842 0
M  V30 9595 C 901.867 -3.47287 -0.0294869 0
M  V30 9596 C 900.821 -4.18818 0.881781 0
M  V30 9597 C 900.147 -5.34618 0.0936189 0
M  V30 9598 C 901.447 -4.73986 2.19396 0
M  V30 9599 H 903.141 -2.58851 1.50454 0
M  V30 9600 H 900.687 -1.24425 0.724872 0
M  V30 9601 H 902.64 -4.20168 -0.322016 0
M  V30 9602 H 901.364 -3.12635 -0.944838 0
M  V30 9603 H 900.023 -3.47815 1.15845 0
M  V30 9604 H 899.671 -4.9621 -0.823661 0
M  V30 9605 H 899.371 -5.83409 0.700568 0
M  V30 9606 H 900.895 -6.10297 -0.192249 0
M  V30 9607 H 902.309 -5.38639 1.96319 0
M  V30 9608 H 900.706 -5.3325 2.75254 0
M  V30 9609 H 901.776 -3.92238 2.85092 0
M  V30 9610 N 903.119 -0.802921 -1.35613 0
M  V30 9611 C 904.066 -0.20874 -2.29854 0
M  V30 9612 C 905.036 0.655128 -1.52634 0
M  V30 9613 O 906.221 0.600979 -1.81088 0
M  V30 9614 C 903.361 0.639663 -3.3912 0
M  V30 9615 C 902.474 -0.244234 -4.31309 0
M  V30 9616 C 901.609 0.611825 -5.27665 0
M  V30 9617 C 900.648 -0.272698 -6.11492 0
M  V30 9618 N 899.785 0.543122 -6.99996 0
M  V30 9619 H 904.625 -1.01782 -2.80079 0
M  V30 9620 H 902.162 -0.513465 -1.37848 0
M  V30 9621 H 904.12 1.14668 -4.01132 0
M  V30 9622 H 902.75 1.41404 -2.9018 0
M  V30 9623 H 901.802 -0.869322 -3.70334 0
M  V30 9624 H 903.114 -0.925202 -4.90144 0
M  V30 9625 H 902.268 1.18412 -5.95032 0
M  V30 9626 H 901.007 1.32637 -4.69317 0
M  V30 9627 H 900.012 -0.857287 -5.43075 0
M  V30 9628 H 901.237 -0.985051 -6.71918 0
M  V30 9629 H 899.183 1.24171 -6.44141 0
M  V30 9630 H 899.1 -0.0798767 -7.55958 0
M  V30 9631 H 900.368 1.09881 -7.71717 0
M  V30 9632 N 904.597 1.47463 -0.556102 0
M  V30 9633 C 905.507 2.33785 0.195378 0
M  V30 9634 C 906.523 1.48123 0.913 0
M  V30 9635 O 907.699 1.81053 0.882141 0
M  V30 9636 C 904.764 3.24795 1.21282 0
M  V30 9637 C 903.825 4.26346 0.502747 0
M  V30 9638 C 903.058 5.13007 1.47172 0
M  V30 9639 O 903.281 5.02103 2.70646 0
M  V30 9640 O 902.215 5.93588 0.996814 0
M  V30 9641 H 906.041 2.99341 -0.512676 0
M  V30 9642 H 903.626 1.46004 -0.31673 0
M  V30 9643 H 905.508 3.81015 1.80016 0
M  V30 9644 H 904.183 2.61868 1.90282 0
M  V30 9645 H 903.09 3.73889 -0.125757 0
M  V30 9646 H 904.423 4.91984 -0.145779 0
M  V30 9647 N 906.075 0.2925 1.54862 0
M  V30 9648 C 906.985 -0.597036 2.26876 0
M  V30 9649 C 908.001 -1.15558 1.30086 0
M  V30 9650 O 909.177 -1.18217 1.63054 0
M  V30 9651 C 906.242 -1.75664 2.98903 0
M  V30 9652 C 905.303 -1.23303 4.11212 0
M  V30 9653 C 904.536 -2.33736 4.79795 0
M  V30 9654 O 904.759 -3.53459 4.47686 0
M  V30 9655 O 903.693 -2.00908 5.67379 0
M  V30 9656 H 907.519 -0.0131242 3.03697 0
M  V30 9657 H 905.104 0.0592642 1.49282 0
M  V30 9658 H 906.986 -2.43241 3.4411 0
M  V30 9659 H 905.661 -2.32731 2.24984 0
M  V30 9660 H 904.568 -0.523222 3.70423 0
M  V30 9661 H 905.901 -0.707887 4.87083 0
M  V30 9662 N 907.553 -1.57587 0.0200696 0
M  V30 9663 C 908.516 -2.08595 -0.949767 0
M  V30 9664 C 909.516 -0.999215 -1.25985 0
M  V30 9665 O 910.706 -1.26115 -1.2017 0
M  V30 9666 C 907.838 -2.54424 -2.26895 0
M  V30 9667 H 909.031 -2.95563 -0.508161 0
M  V30 9668 H 906.584 -1.54631 -0.227798 0
M  V30 9669 H 907.319 -1.70758 -2.75703 0
M  V30 9670 H 907.104 -3.3381 -2.05702 0
M  V30 9671 H 908.594 -2.94144 -2.96427 0
M  V30 9672 N 909.032 0.252966 -1.55557 0
M  V30 9673 C 910.257 1.0038 -1.8149 0
M  V30 9674 C 910.682 1.78397 -0.596318 0
M  V30 9675 O 910.04 1.7551 0.454535 0
M  V30 9676 C 910.088 1.9222 -3.05096 0
M  V30 9677 O 909.192 3.01302 -2.81587 0
M  V30 9678 H 908.533 0.285949 -0.599274 0
M  V30 9679 H 911.063 0.275795 -2.02733 0
M  V30 9680 H 911.073 2.338 -3.34368 0
M  V30 9681 H 909.748 1.34852 -3.93431 0
M  V30 9682 H 908.325 2.63894 -2.63466 0
M  V30 9683 N 910.51 1.48831 0.518367 0
M  V30 9684 C 911.473 1.63721 1.604 0
M  V30 9685 C 912.473 0.509857 1.52503 0
M  V30 9686 O 913.663 0.775922 1.55965 0
M  V30 9687 C 910.795 1.61831 3.00039 0
M  V30 9688 H 911.988 2.60534 1.48533 0
M  V30 9689 H 909.541 1.37602 0.741309 0
M  V30 9690 H 910.276 0.665387 3.17401 0
M  V30 9691 H 910.061 2.43686 3.0718 0
M  V30 9692 H 911.551 1.75467 3.78947 0
M  V30 9693 N 911.988 -0.768124 1.37614 0
M  V30 9694 C 913.265 -1.51637 1.23554 0
M  V30 9695 C 913.645 -2.1042 -0.169331 0
M  V30 9696 O 912.993 -1.95834 -1.17735 0
M  V30 9697 C 913.203 -2.59436 2.33439 0
M  V30 9698 C 914.551 -3.2674 2.71157 0
M  V30 9699 O 915.575 -2.69733 2.32642 0
M  V30 9700 O 914.434 -4.29814 3.37524 0
M  V30 9701 H 911.528 -0.671778 0.482332 0
M  V30 9702 H 914.074 -0.804779 1.49403 0
M  V30 9703 H 912.846 -2.14146 3.27502 0
M  V30 9704 H 912.469 -3.38192 2.09073 0
M  V30 9705 N 913.466 -1.22244 -0.994698 0
M  V30 9706 C 914.399 -0.934168 -2.08203 0
M  V30 9707 C 915.377 0.122231 -1.6214 0
M  V30 9708 O 916.561 -0.00896598 -1.88498 0
M  V30 9709 C 913.688 -0.404646 -3.36274 0
M  V30 9710 C 912.734 -1.44544 -4.01259 0
M  V30 9711 S 913.567 -3.01816 -4.42343 0
M  V30 9712 C 914.723 -2.50497 -5.73587 0
M  V30 9713 H 914.956 -1.85493 -2.32335 0
M  V30 9714 H 912.489 -1.0533 -1.12893 0
M  V30 9715 H 914.447 -0.105719 -4.10364 0
M  V30 9716 H 913.108 0.494971 -3.10176 0
M  V30 9717 H 912.301 -1.02478 -4.93472 0
M  V30 9718 H 911.903 -1.69298 -3.33488 0
M  V30 9719 H 914.195 -1.91626 -6.49835 0
M  V30 9720 H 915.138 -3.41193 -6.20478 0
M  V30 9721 H 915.546 -1.91845 -5.30901 0
M  V30 9722 N 914.944 1.19125 -1.03184 0
M  V30 9723 C 915.876 2.21914 -0.573294 0
M  V30 9724 C 916.889 1.5894 0.352397 0
M  V30 9725 O 918.078 1.77883 0.148318 0
M  V30 9726 C 915.178 3.38403 0.18355 0
M  V30 9727 C 914.351 4.3096 -0.747817 0
M  V30 9728 C 913.41 5.26188 -0.0358489 0
M  V30 9729 O 912.436 5.65321 -0.663388 0
M  V30 9730 N 913.638 5.67235 1.23387 0
M  V30 9731 H 916.403 2.61881 -1.45734 0
M  V30 9732 H 913.964 1.33821 -0.911231 0
M  V30 9733 H 915.956 3.99124 0.669468 0
M  V30 9734 H 914.526 2.97201 0.969043 0
M  V30 9735 H 913.746 3.67976 -1.41377 0
M  V30 9736 H 915.034 4.89708 -1.38071 0
M  V30 9737 H 914.432 5.37481 1.76439 0
M  V30 9738 H 912.989 6.30196 1.66423 0
M  V30 9739 N 916.422 0.810101 1.35185 0
M  V30 9740 C 917.385 0.22852 2.28058 0
M  V30 9741 C 918.385 -0.586168 1.49735 0
M  V30 9742 O 919.575 -0.40414 1.69447 0
M  V30 9743 C 916.707 -0.681041 3.34028 0
M  V30 9744 H 917.9 1.04768 2.81005 0
M  V30 9745 H 915.453 0.58101 1.451 0
M  V30 9746 H 916.188 -1.52375 2.86273 0
M  V30 9747 H 915.973 -0.0985276 3.91976 0
M  V30 9748 H 917.463 -1.08217 4.03335 0
M  V30 9749 N 917.9 -1.47166 0.563914 0
M  V30 9750 C 919.177 -1.95586 -0.0236172 0
M  V30 9751 C 919.557 -1.50655 -1.47872 0
M  V30 9752 O 918.905 -0.748479 -2.15894 0
M  V30 9753 C 919.115 -3.48762 0.128841 0
M  V30 9754 C 920.463 -4.24598 -0.0130544 0
M  V30 9755 O 921.487 -3.56155 0.0567242 0
M  V30 9756 O 920.346 -5.46253 -0.164332 0
M  V30 9757 H 917.44 -0.824793 -0.0603789 0
M  V30 9758 H 919.986 -1.57536 0.63091 0
M  V30 9759 H 918.758 -3.74291 1.14113 0
M  V30 9760 H 918.381 -3.93594 -0.56299 0
M  V30 9761 N 919.378 -0.300708 -1.54705 0
M  V30 9762 C 920.625 0.308654 -2.00134 0
M  V30 9763 C 920.953 1.53918 -1.1891 0
M  V30 9764 O 920.208 1.94054 -0.253263 0
M  V30 9765 C 920.507 0.710108 -3.50275 0
M  V30 9766 C 920.173 -0.418651 -4.48952 0
M  V30 9767 C 918.835 -0.728524 -4.75653 0
M  V30 9768 C 921.187 -1.17797 -5.07714 0
M  V30 9769 C 918.515 -1.80085 -5.58378 0
M  V30 9770 C 920.867 -2.24022 -5.91606 0
M  V30 9771 C 919.531 -2.55616 -6.16617 0
M  V30 9772 H 918.801 0.112945 -0.732342 0
M  V30 9773 H 921.448 -0.419744 -1.86843 0
M  V30 9774 H 919.753 1.51859 -3.61173 0
M  V30 9775 H 921.45 1.19277 -3.8285 0
M  V30 9776 H 918.04 -0.167034 -4.28274 0
M  V30 9777 H 922.224 -0.951835 -4.87087 0
M  V30 9778 H 917.48 -2.05036 -5.75995 0
M  V30 9779 H 921.654 -2.83317 -6.36164 0
M  V30 9780 H 919.281 -3.38839 -6.80509 0
M  V30 9781 N 920.856 1.57574 -0.0284266 0
M  V30 9782 C 921.788 2.07079 0.982391 0
M  V30 9783 C 922.801 0.994078 1.28926 0
M  V30 9784 O 923.99 1.27028 1.25404 0
M  V30 9785 C 921.09 2.47978 2.30998 0
M  V30 9786 C 920.263 3.7872 2.18838 0
M  V30 9787 C 919.322 4.06177 3.34524 0
M  V30 9788 O 918.348 4.76438 3.11441 0
M  V30 9789 N 919.55 3.56297 4.58293 0
M  V30 9790 H 922.315 2.94421 0.560011 0
M  V30 9791 H 919.876 1.61124 0.158347 0
M  V30 9792 H 921.868 2.63439 3.07216 0
M  V30 9793 H 920.438 1.66005 2.64879 0
M  V30 9794 H 919.658 3.73062 1.27351 0
M  V30 9795 H 920.946 4.6438 2.07915 0
M  V30 9796 H 920.344 2.99453 4.79942 0
M  V30 9797 H 918.901 3.77038 5.31682 0
M  V30 9798 N 922.334 -0.244713 1.55689 0
M  V30 9799 C 923.75 -0.593331 1.48161 0
M  V30 9800 C 923.95 -1.88234 0.719047 0
M  V30 9801 O 923.006 -2.51266 0.249292 0
M  V30 9802 C 924.319 -0.694032 2.92581 0
M  V30 9803 C 925.867 -0.786213 3.02965 0
M  V30 9804 C 926.342 -0.918457 4.48696 0
M  V30 9805 N 927.833 -0.983272 4.52643 0
M  V30 9806 C 928.568 -1.1049 5.62654 0
M  V30 9807 N 928.064 -1.19193 6.8247 0
M  V30 9808 N 929.857 -1.13823 5.50455 0
M  V30 9809 H 922.008 0.601446 2.03707 0
M  V30 9810 H 924.271 0.207894 0.924924 0
M  V30 9811 H 923.977 0.183133 3.51223 0
M  V30 9812 H 923.851 -1.56525 3.4319 0
M  V30 9813 H 926.238 -1.65383 2.44402 0
M  V30 9814 H 926.319 0.110202 2.55563 0
M  V30 9815 H 925.963 -0.0553881 5.0787 0
M  V30 9816 H 925.893 -1.82994 4.93782 0
M  V30 9817 H 928.384 -0.927269 3.66347 0
M  V30 9818 H 928.697 -1.28387 7.62061 0
M  V30 9819 H 927.042 -1.16147 6.85226 0
M  V30 9820 H 930.233 -1.06673 4.55783 0
M  V30 9821 H 930.406 -1.22957 6.36228 0
M  V30 9822 N 923.813 -1.49104 -0.510467 0
M  V30 9823 C 924.723 -1.67792 -1.6396 0
M  V30 9824 C 925.739 -0.560454 -1.64727 0
M  V30 9825 O 926.915 -0.833985 -1.83321 0
M  V30 9826 C 923.98 -1.73154 -3.00364 0
M  V30 9827 C 923.041 -2.9667 -3.10299 0
M  V30 9828 C 922.274 -3.01767 -4.40196 0
M  V30 9829 O 922.497 -2.1472 -5.28443 0
M  V30 9830 O 921.431 -3.94137 -4.54906 0
M  V30 9831 H 925.257 -2.63428 -1.51126 0
M  V30 9832 H 922.842 -1.32734 -0.685719 0
M  V30 9833 H 924.724 -1.79089 -3.81451 0
M  V30 9834 H 923.399 -0.806952 -3.1348 0
M  V30 9835 H 922.306 -2.96257 -2.28435 0
M  V30 9836 H 923.639 -3.88578 -3.02106 0
M  V30 9837 N 925.291 0.760815 -1.38019 0
M  V30 9838 C 926.254 1.85604 -1.34476 0
M  V30 9839 C 927.254 1.58897 -0.24666 0
M  V30 9840 O 928.444 1.66776 -0.50314 0
M  V30 9841 C 925.576 3.22945 -1.09176 0
M  V30 9842 H 926.769 1.90155 -2.31908 0
M  V30 9843 H 924.322 0.961746 -1.23208 0
M  V30 9844 H 925.057 3.24066 -0.123216 0
M  V30 9845 H 924.842 3.43723 -1.88672 0
M  V30 9846 H 926.332 4.03022 -1.09375 0
M  V30 9847 N 926.769 1.22769 0.988202 0
M  V30 9848 C 927.732 1.00325 2.06076 0
M  V30 9849 C 928.732 -0.0320618 1.60768 0
M  V30 9850 O 929.922 0.206912 1.72967 0
M  V30 9851 C 927.054 0.516376 3.36966 0
M  V30 9852 H 928.247 1.95499 2.27421 0
M  V30 9853 H 925.8 1.04704 1.16047 0
M  V30 9854 H 926.535 -0.439498 3.21308 0
M  V30 9855 H 926.32 1.26337 3.71189 0
M  V30 9856 H 927.81 0.37974 4.1587 0
M  V30 9857 N 928.247 -1.18576 1.03814 0
M  V30 9858 C 929.177 -2.24334 0.647795 0
M  V30 9859 C 930.158 -1.66508 -0.34774 0
M  V30 9860 O 931.343 -1.92852 -0.228401 0
M  V30 9861 C 928.473 -3.47299 0.00734922 0
M  V30 9862 C 927.427 -4.17859 0.926152 0
M  V30 9863 C 926.753 -5.34489 0.150317 0
M  V30 9864 C 928.053 -4.71632 2.24411 0
M  V30 9865 H 929.747 -2.57241 1.53191 0
M  V30 9866 H 927.293 -1.23649 0.738028 0
M  V30 9867 H 929.246 -4.20486 -0.277434 0
M  V30 9868 H 927.97 -3.13619 -0.911626 0
M  V30 9869 H 926.629 -3.46567 1.19528 0
M  V30 9870 H 926.277 -4.97056 -0.770985 0
M  V30 9871 H 925.977 -5.82633 0.762407 0
M  V30 9872 H 927.501 -6.10467 -0.127508 0
M  V30 9873 H 928.915 -5.36526 2.02021 0
M  V30 9874 H 927.312 -5.303 2.80894 0
M  V30 9875 H 928.382 -3.89192 2.89236 0
M  V30 9876 N 929.725 -0.817259 -1.34754 0
M  V30 9877 C 930.658 -0.180483 -2.27485 0
M  V30 9878 C 931.636 0.659792 -1.48612 0
M  V30 9879 O 932.82 0.624761 -1.77845 0
M  V30 9880 C 929.947 0.748487 -3.30326 0
M  V30 9881 C 928.993 -0.0135304 -4.26498 0
M  V30 9882 S 929.826 -1.35685 -5.18025 0
M  V30 9883 C 930.982 -0.432605 -6.24403 0
M  V30 9884 H 931.215 -0.966677 -2.81145 0
M  V30 9885 H 928.748 -0.612864 -1.41716 0
M  V30 9886 H 930.706 1.27893 -3.90069 0
M  V30 9887 H 929.367 1.50816 -2.75524 0
M  V30 9888 H 928.56 0.692454 -4.9922 0
M  V30 9889 H 928.162 -0.474344 -3.7098 0
M  V30 9890 H 930.454 0.378035 -6.76444 0
M  V30 9891 H 931.397 -1.12934 -6.99036 0
M  V30 9892 H 931.805 -0.0235533 -5.64495 0
M  V30 9893 N 931.203 1.46865 -0.571711 0
M  V30 9894 C 932.166 2.28658 0.157499 0
M  V30 9895 C 933.166 1.37773 0.829172 0
M  V30 9896 O 934.356 1.6026 0.682811 0
M  V30 9897 C 931.488 3.17859 1.23202 0
M  V30 9898 H 932.681 2.94603 -0.561171 0
M  V30 9899 H 930.234 1.52793 -0.329229 0
M  V30 9900 H 930.969 2.56637 1.98262 0
M  V30 9901 H 930.754 3.84762 0.755031 0
M  V30 9902 H 932.244 3.7945 1.74378 0
M  V30 9903 N 932.681 0.308908 1.54543 0
M  V30 9904 C 933.591 -0.572939 2.27496 0
M  V30 9905 C 934.607 -1.14171 1.31305 0
M  V30 9906 O 935.783 -1.16481 1.64299 0
M  V30 9907 C 932.848 -1.72483 3.0075 0
M  V30 9908 C 931.909 -1.18934 4.12496 0
M  V30 9909 C 931.142 -2.28634 4.82247 0
M  V30 9910 O 931.365 -3.48691 4.5141 0
M  V30 9911 O 930.299 -1.94879 5.69478 0
M  V30 9912 H 934.125 0.0190877 3.03694 0
M  V30 9913 H 931.71 0.0750943 1.49211 0
M  V30 9914 H 933.592 -2.39578 3.46671 0
M  V30 9915 H 932.267 -2.30332 2.2744 0
M  V30 9916 H 931.174 -0.483904 3.70957 0
M  V30 9917 H 932.507 -0.656185 4.87806 0
M  V30 9918 N 934.159 -1.57557 0.0367827 0
M  V30 9919 C 935.406 -1.92114 -0.640185 0
M  V30 9920 C 935.734 -0.913887 -1.71693 0
M  V30 9921 O 934.989 0.0760343 -1.95552 0
M  V30 9922 C 935.288 -3.33387 -1.28794 0
M  V30 9923 C 934.954 -4.4961 -0.340819 0
M  V30 9924 C 933.616 -4.81133 -0.0801574 0
M  V30 9925 C 935.968 -5.20283 0.309106 0
M  V30 9926 C 933.296 -5.80683 0.838107 0
M  V30 9927 C 935.648 -6.20813 1.21547 0
M  V30 9928 C 934.312 -6.50773 1.48495 0
M  V30 9929 H 933.582 -0.702996 -0.23426 0
M  V30 9930 H 936.229 -1.91238 0.100188 0
M  V30 9931 H 934.534 -3.30561 -2.10324 0
M  V30 9932 H 936.231 -3.57399 -1.81843 0
M  V30 9933 H 932.821 -4.25002 -0.554161 0
M  V30 9934 H 937.005 -4.96153 0.120794 0
M  V30 9935 H 932.261 -6.02238 1.05451 0
M  V30 9936 H 936.435 -6.74692 1.72522 0
M  V30 9937 H 934.062 -7.27727 2.19814 0
M  V30 9938 N 935.637 0.236453 -1.55816 0
M  V30 9939 C 936.914 0.986463 -1.68903 0
M  V30 9940 C 937.294 2.02984 -0.579722 0
M  V30 9941 O 936.642 2.24693 0.415389 0
M  V30 9942 C 936.852 1.61038 -3.09625 0
M  V30 9943 C 938.2 2.10829 -3.6856 0
M  V30 9944 O 939.224 1.7096 -3.12492 0
M  V30 9945 O 938.083 2.84064 -4.66873 0
M  V30 9946 H 935.177 0.459837 -0.687371 0
M  V30 9947 H 937.723 0.229412 -1.68142 0
M  V30 9948 H 936.495 0.856232 -3.81817 0
M  V30 9949 H 936.118 2.43336 -3.14441 0
M  V30 9950 N 937.115 1.49373 0.502552 0
M  V30 9951 C 938.063 1.66411 1.62512 0
M  V30 9952 C 939.057 0.530062 1.60893 0
M  V30 9953 O 940.263 0.709648 1.65421 0
M  V30 9954 H 936.638 0.524707 0.538689 0
M  V30 9955 H 938.609 2.60639 1.45293 0
M  V30 9956 C 937.358 1.74648 3.00655 0
M  V30 9957 H 936.681 2.61285 3.02606 0
M  V30 9958 H 938.121 1.90605 3.78742 0
M  V30 9959 C 936.58 0.490963 3.33303 0
M  V30 9960 O 937.11 -0.384039 3.9986 0
M  V30 9961 N 935.316 0.354375 2.88431 0
M  V30 9962 H 934.863 1.06742 2.34444 0
M  V30 9963 H 934.821 -0.484593 3.10643 0
M  V30 9964 N 938.594 -0.753485 1.38421 0
M  V30 9965 C 940.005 -1.33081 1.30944 0
M  V30 9966 C 940.356 -1.96169 -0.0347124 0
M  V30 9967 O 939.481 -1.95073 -0.936768 0
M  V30 9968 C 940.076 -2.41973 2.37138 0
M  V30 9969 C 938.635 -2.95426 2.33239 0
M  V30 9970 C 937.782 -1.68808 2.19998 0
M  V30 9971 H 940.733 -0.552354 1.48777 0
M  V30 9972 H 940.754 -3.21913 2.02859 0
M  V30 9973 H 940.266 -1.96027 3.34956 0
M  V30 9974 H 938.367 -3.45701 1.39003 0
M  V30 9975 H 938.48 -3.49798 3.27381 0
M  V30 9976 H 936.844 -1.92438 1.66852 0
M  V30 9977 H 937.627 -1.24939 3.19758 0
M  V30 9978 N 940.072 -1.23292 -0.981677 0
M  V30 9979 C 941.02 -1.0104 -2.09508 0
M  V30 9980 C 942.014 0.0501977 -1.69326 0
M  V30 9981 O 943.22 -0.103197 -1.79704 0
M  V30 9982 H 939.595 -0.309629 -0.685298 0
M  V30 9983 H 941.566 -1.95493 -2.25444 0
M  V30 9984 C 940.315 -0.616885 -3.42184 0
M  V30 9985 H 939.638 -1.4247 -3.73554 0
M  V30 9986 H 941.078 -0.500688 -4.21033 0
M  V30 9987 C 939.537 0.674721 -3.30074 0
M  V30 9988 O 940.067 1.72421 -3.62814 0
M  V30 9989 N 938.273 0.650151 -2.83234 0
M  V30 9990 H 937.82 -0.204225 -2.56789 0
M  V30 9991 H 937.778 1.51458 -2.75514 0
M  V30 9992 N 941.55 1.18024 -1.04442 0
M  V30 9993 C 942.799 1.8743 -0.745185 0
M  V30 9994 C 943.112 1.81459 0.730206 0
M  V30 9995 O 944.318 2.46263 1.1431 0
M  V30 9996 C 942.774 3.36266 -1.28271 0
M  V30 9997 C 942.382 3.50757 -2.787 0
M  V30 9998 C 944.126 4.11048 -1.06018 0
M  V30 9999 C 942.033 4.93573 -3.25791 0
M  V30 10000 H 940.963 0.702038 -0.27506 0
M  V30 10001 H 943.614 1.33333 -1.26073 0
M  V30 10002 H 941.996 3.89853 -0.695002 0
M  V30 10003 H 943.17 3.07423 -3.43261 0
M  V30 10004 H 941.485 2.89385 -2.99408 0
M  V30 10005 H 944.082 5.16395 -1.38711 0
M  V30 10006 H 944.425 4.163 0.00241716 0
M  V30 10007 H 944.958 3.63644 -1.61269 0
M  V30 10008 H 941.697 4.93491 -4.31447 0
M  V30 10009 H 941.217 5.37607 -2.65968 0
M  V30 10010 H 942.896 5.62307 -3.20031 0
M  V30 10011 N 943.028 0.824394 1.34319 0
M  V30 10012 C 944.274 0.413779 1.98534 0
M  V30 10013 C 944.607 -1.02089 1.65201 0
M  V30 10014 O 943.882 -1.71129 0.924402 0
M  V30 10015 C 944.165 0.61801 3.54757 0
M  V30 10016 C 944.018 2.0989 3.97827 0
M  V30 10017 C 945.337 0.0549041 4.40066 0
M  V30 10018 H 942.456 0.151815 0.721194 0
M  V30 10019 H 945.098 1.03723 1.5919 0
M  V30 10020 H 943.248 0.0873107 3.88402 0
M  V30 10021 H 944.92 2.69335 3.74508 0
M  V30 10022 H 943.163 2.58881 3.48085 0
M  V30 10023 H 943.834 2.1926 5.06586 0
M  V30 10024 H 946.31 0.508348 4.12983 0
M  V30 10025 H 945.186 0.227595 5.48428 0
M  V30 10026 H 945.447 -1.04025 4.29687 0
M  V30 10027 N 944.506 -1.46559 0.579492 0
M  V30 10028 C 945.453 -2.30275 -0.155598 0
M  V30 10029 C 946.423 -1.40422 -0.887175 0
M  V30 10030 O 947.608 -1.69373 -0.878481 0
M  V30 10031 C 944.748 -3.24827 -1.16539 0
M  V30 10032 C 943.861 -4.29778 -0.43759 0
M  V30 10033 C 942.996 -5.11461 -1.43462 0
M  V30 10034 C 942.035 -6.08164 -0.693048 0
M  V30 10035 N 941.172 -6.82726 -1.63799 0
M  V30 10036 H 946.012 -2.92607 0.564356 0
M  V30 10037 H 943.549 -1.44211 0.290126 0
M  V30 10038 H 945.507 -3.78088 -1.76368 0
M  V30 10039 H 944.137 -2.64311 -1.8531 0
M  V30 10040 H 943.189 -3.794 0.27567 0
M  V30 10041 H 944.501 -4.98597 0.142298 0
M  V30 10042 H 943.655 -5.68982 -2.1058 0
M  V30 10043 H 942.394 -4.42595 -2.04844 0
M  V30 10044 H 941.399 -5.49799 -0.00807093 0
M  V30 10045 H 942.624 -6.79047 -0.0846678 0
M  V30 10046 H 940.57 -6.16572 -2.23997 0
M  V30 10047 H 940.487 -7.47795 -1.11082 0
M  V30 10048 H 941.755 -7.44807 -2.29962 0
M  V30 10049 N 945.984 -0.3171 -1.54377 0
M  V30 10050 C 946.914 0.544623 -2.2706 0
M  V30 10051 C 947.895 1.12469 -1.27611 0
M  V30 10052 O 949.08 1.15103 -1.56413 0
M  V30 10053 C 946.21 1.70879 -3.02353 0
M  V30 10054 C 945.164 1.25833 -4.09084 0
M  V30 10055 C 944.49 2.50894 -4.72182 0
M  V30 10056 C 945.79 0.377876 -5.20931 0
M  V30 10057 H 947.484 -0.0616372 -2.99337 0
M  V30 10058 H 945.03 -0.0310848 -1.43966 0
M  V30 10059 H 946.983 2.31787 -3.51927 0
M  V30 10060 H 945.707 2.34155 -2.27682 0
M  V30 10061 H 944.366 0.672228 -3.60384 0
M  V30 10062 H 944.014 3.12518 -3.94134 0
M  V30 10063 H 943.714 2.21447 -5.44275 0
M  V30 10064 H 945.238 3.12575 -5.24528 0
M  V30 10065 H 946.652 0.893056 -5.66302 0
M  V30 10066 H 945.049 0.176474 -5.9984 0
M  V30 10067 H 946.119 -0.592943 -4.81261 0
M  V30 10068 N 947.462 1.57535 -0.0451378 0
M  V30 10069 C 948.392 2.14208 0.929372 0
M  V30 10070 C 949.373 1.06221 1.32858 0
M  V30 10071 O 950.558 1.34132 1.40436 0
M  V30 10072 C 947.688 2.68217 2.20629 0
M  V30 10073 C 946.642 3.81134 1.94734 0
M  V30 10074 C 945.968 4.21636 3.28828 0
M  V30 10075 C 947.268 5.06531 1.27374 0
M  V30 10076 H 948.962 2.95886 0.457348 0
M  V30 10077 H 946.508 1.42332 0.218544 0
M  V30 10078 H 948.461 3.06502 2.89196 0
M  V30 10079 H 947.185 1.83722 2.70026 0
M  V30 10080 H 945.844 3.43312 1.28579 0
M  V30 10081 H 945.492 3.34099 3.76014 0
M  V30 10082 H 945.192 4.97736 3.12302 0
M  V30 10083 H 946.716 4.62516 3.98637 0
M  V30 10084 H 948.13 5.423 1.85967 0
M  V30 10085 H 946.527 5.87735 1.21194 0
M  V30 10086 H 947.597 4.84261 0.248913 0
M  V30 10087 N 948.94 -0.228186 1.55939 0
M  V30 10088 C 950.188 -0.951668 1.78291 0
M  V30 10089 C 950.509 -1.85132 0.612474 0
M  V30 10090 O 949.779 -1.92356 -0.370942 0
M  V30 10091 H 948.359 -0.354388 0.657585 0
M  V30 10092 H 951.021 -0.241635 1.93396 0
M  V30 10093 H 950.117 -1.56239 2.70177 0
M  V30 10094 N 950.418 -1.49637 -0.494624 0
M  V30 10095 C 951.664 -1.59681 -1.25019 0
M  V30 10096 C 951.997 -0.285511 -1.9209 0
M  V30 10097 O 951.272 0.711398 -1.81023 0
M  V30 10098 C 951.555 -2.76058 -2.31222 0
M  V30 10099 C 951.408 -4.17002 -1.68611 0
M  V30 10100 C 952.727 -2.88056 -3.32734 0
M  V30 10101 H 949.846 -0.581209 -0.453172 0
M  V30 10102 H 952.488 -1.81944 -0.547391 0
M  V30 10103 H 950.638 -2.57207 -2.91164 0
M  V30 10104 H 952.31 -4.47385 -1.12447 0
M  V30 10105 H 950.553 -4.22352 -0.989991 0
M  V30 10106 H 951.224 -4.94316 -2.45674 0
M  V30 10107 H 953.7 -3.05237 -2.82789 0
M  V30 10108 H 952.576 -3.71151 -4.04399 0
M  V30 10109 H 952.837 -1.97676 -3.95445 0
M  V30 10110 N 951.896 0.746133 -1.38819 0
M  V30 10111 C 953.136 1.51821 -1.36857 0
M  V30 10112 C 953.5 1.9196 0.0391461 0
M  V30 10113 O 954.701 2.68172 0.183689 0
M  V30 10114 C 952.972 2.73214 -2.3041 0
M  V30 10115 S 954.531 3.62995 -2.46536 0
M  V30 10116 H 951.349 0.51945 -0.485482 0
M  V30 10117 H 953.951 0.875244 -1.74813 0
M  V30 10118 H 952.655 2.41847 -3.31569 0
M  V30 10119 H 952.186 3.42449 -1.9363 0
M  V30 10120 H 954.201 4.66353 -1.69498 0
M  V30 10121 N 953.375 1.23811 0.975125 0
M  V30 10122 C 954.338 1.02505 2.05001 0
M  V30 10123 C 955.338 -0.0150084 1.60793 0
M  V30 10124 O 956.528 0.225246 1.72738 0
M  V30 10125 C 953.66 0.552087 3.364 0
M  V30 10126 H 954.853 1.979 2.25335 0
M  V30 10127 H 952.406 1.05929 1.1493 0
M  V30 10128 H 953.141 -0.405394 3.21756 0
M  V30 10129 H 952.926 1.30267 3.69828 0
M  V30 10130 H 954.416 0.423828 4.15444 0
M  V30 10131 N 954.853 -1.17469 1.05066 0
M  V30 10132 C 956.099 -1.87976 0.761113 0
M  V30 10133 C 956.432 -1.80756 -0.709995 0
M  V30 10134 O 955.707 -1.21469 -1.51906 0
M  V30 10135 C 955.99 -3.38055 1.2406 0
M  V30 10136 C 955.843 -3.54032 2.77455 0
M  V30 10137 C 957.162 -4.32036 0.838612 0
M  V30 10138 H 954.281 -0.682573 0.277963 0
M  V30 10139 H 956.923 -1.38147 1.30443 0
M  V30 10140 H 955.073 -3.80622 0.778388 0
M  V30 10141 H 956.745 -3.20489 3.3179 0
M  V30 10142 H 954.988 -2.96352 3.16793 0
M  V30 10143 H 955.659 -4.59377 3.06066 0
M  V30 10144 H 958.135 -3.97303 1.23651 0
M  V30 10145 H 957.011 -5.35583 1.20173 0
M  V30 10146 H 957.272 -4.41349 -0.257498 0
M  V30 10147 N 956.331 -0.831506 -1.3388 0
M  V30 10148 C 957.579 -0.422837 -1.97627 0
M  V30 10149 C 957.9 1.01961 -1.6622 0
M  V30 10150 O 957.17 1.70916 -0.957323 0
M  V30 10151 H 955.75 -0.153365 -0.731087 0
M  V30 10152 H 958.412 -1.06284 -1.6337 0
M  V30 10153 H 957.508 -0.548858 -3.07236 0
M  V30 10154 N 957.809 1.4625 -0.587256 0
M  V30 10155 C 958.756 2.30354 0.143384 0
M  V30 10156 C 959.726 1.40891 0.879716 0
M  V30 10157 O 960.911 1.69837 0.869486 0
M  V30 10158 C 958.051 3.25441 1.14815 0
M  V30 10159 C 957.164 4.30004 0.414792 0
M  V30 10160 C 956.299 5.12214 1.40748 0
M  V30 10161 C 955.338 6.08523 0.660786 0
M  V30 10162 N 954.475 6.83585 1.60176 0
M  V30 10163 H 959.315 2.92304 -0.579866 0
M  V30 10164 H 956.852 1.44055 -0.29777 0
M  V30 10165 H 958.81 3.79018 1.7436 0
M  V30 10166 H 957.44 2.6529 1.83906 0
M  V30 10167 H 956.492 3.79248 -0.295787 0
M  V30 10168 H 957.804 4.98515 -0.168738 0
M  V30 10169 H 956.958 5.70091 2.0756 0
M  V30 10170 H 955.697 4.43675 2.02494 0
M  V30 10171 H 954.702 5.49796 -0.0210864 0
M  V30 10172 H 955.927 6.79083 0.0486551 0
M  V30 10173 H 953.873 6.17752 2.20724 0
M  V30 10174 H 953.79 7.48373 1.07115 0
M  V30 10175 H 955.058 7.46016 2.26009 0
M  V30 10176 N 959.287 0.325282 1.54207 0
M  V30 10177 C 960.698 -0.162426 1.85992 0
M  V30 10178 C 961.049 -1.51482 1.2469 0
M  V30 10179 O 960.174 -2.092 0.553578 0
M  V30 10180 C 960.769 -0.3015 3.37456 0
M  V30 10181 C 959.328 -0.73343 3.69185 0
M  V30 10182 C 958.475 0.143831 2.76927 0
M  V30 10183 H 961.426 0.545508 1.4903 0
M  V30 10184 H 961.447 -1.13212 3.63268 0
M  V30 10185 H 960.959 0.682942 3.82044 0
M  V30 10186 H 959.06 -1.72755 3.30131 0
M  V30 10187 H 959.173 -0.535987 4.76092 0
M  V30 10188 H 957.537 -0.380892 2.51836 0
M  V30 10189 H 958.32 1.12507 3.24341 0
M  V30 10190 N 960.765 -1.57509 0.0534917 0
M  V30 10191 C 961.698 -2.0723 -0.955554 0
M  V30 10192 C 962.676 -0.973313 -1.30251 0
M  V30 10193 O 963.86 -1.24541 -1.41498 0
M  V30 10194 C 960.987 -2.51473 -2.2689 0
M  V30 10195 C 960.033 -3.7263 -2.07482 0
M  V30 10196 S 960.866 -5.18177 -1.35104 0
M  V30 10197 C 962.022 -5.65736 -2.67757 0
M  V30 10198 H 962.255 -2.92494 -0.532407 0
M  V30 10199 H 959.788 -1.53581 -0.158831 0
M  V30 10200 H 961.746 -2.77626 -3.02381 0
M  V30 10201 H 960.407 -1.66511 -2.66332 0
M  V30 10202 H 959.6 -4.01515 -3.04633 0
M  V30 10203 H 959.202 -3.46756 -1.4013 0
M  V30 10204 H 961.494 -5.71463 -3.63918 0
M  V30 10205 H 962.437 -6.64914 -2.43506 0
M  V30 10206 H 962.845 -4.93475 -2.74123 0
M  V30 10207 N 962.243 0.219913 -1.56058 0
M  V30 10208 C 963.483 0.951113 -1.80923 0
M  V30 10209 C 963.847 1.81465 -0.627247 0
M  V30 10210 O 965.048 2.57972 -0.755237 0
M  V30 10211 C 963.319 1.76652 -3.10691 0
M  V30 10212 S 964.878 2.55314 -3.56876 0
M  V30 10213 H 961.696 0.319461 -0.635189 0
M  V30 10214 H 964.298 0.216551 -1.94297 0
M  V30 10215 H 963.002 1.12231 -3.94756 0
M  V30 10216 H 962.533 2.54335 -3.00128 0
M  V30 10217 H 964.548 3.78938 -3.20344 0
M  V30 10218 N 963.721 1.49897 0.486681 0
M  V30 10219 C 964.651 1.7054 1.59494 0
M  V30 10220 C 965.632 0.554184 1.60819 0
M  V30 10221 O 966.817 0.791617 1.77333 0
M  V30 10222 C 963.947 1.78517 2.97908 0
M  V30 10223 C 962.901 2.93571 3.11449 0
M  V30 10224 C 962.227 2.86674 4.51356 0
M  V30 10225 C 963.527 4.34308 2.90127 0
M  V30 10226 H 965.221 2.63329 1.42472 0
M  V30 10227 H 962.767 1.2672 0.683969 0
M  V30 10228 H 964.72 1.91544 3.75352 0
M  V30 10229 H 963.444 0.823381 3.16051 0
M  V30 10230 H 962.103 2.80169 2.36433 0
M  V30 10231 H 961.751 1.88373 4.66395 0
M  V30 10232 H 961.451 3.63903 4.61355 0
M  V30 10233 H 962.975 3.01728 5.30841 0
M  V30 10234 H 964.389 4.48317 3.57331 0
M  V30 10235 H 962.786 5.12869 3.11585 0
M  V30 10236 H 963.856 4.47759 1.86119 0
M  V30 10237 N 965.199 -0.738761 1.39212 0
M  V30 10238 C 966.129 -1.86602 1.40364 0
M  V30 10239 C 967.11 -1.67984 0.267495 0
M  V30 10240 O 968.295 -1.88358 0.472765 0
M  V30 10241 C 965.425 -3.24308 1.24265 0
M  V30 10242 C 964.379 -3.57557 2.35239 0
M  V30 10243 C 963.705 -4.94159 2.04233 0
M  V30 10244 C 965.005 -3.60914 3.77543 0
M  V30 10245 H 966.699 -1.85896 2.34698 0
M  V30 10246 H 964.245 -0.892959 1.1297 0
M  V30 10247 H 966.198 -4.02838 1.23692 0
M  V30 10248 H 964.922 -3.25531 0.263974 0
M  V30 10249 H 963.581 -2.81354 2.35022 0
M  V30 10250 H 963.229 -4.91959 1.04813 0
M  V30 10251 H 962.929 -5.17373 2.78567 0
M  V30 10252 H 964.453 -5.7505 2.05303 0
M  V30 10253 H 965.867 -4.29528 3.79709 0
M  V30 10254 H 964.264 -3.95644 4.51205 0
M  V30 10255 H 965.334 -2.60803 4.08791 0
M  V30 10256 N 966.677 -1.24326 -0.968545 0
M  V30 10257 C 967.924 -1.08245 -1.71141 0
M  V30 10258 C 968.252 0.378842 -1.90775 0
M  V30 10259 O 967.507 1.29634 -1.46607 0
M  V30 10260 C 967.806 -1.76644 -3.10695 0
M  V30 10261 C 967.472 -3.26572 -3.10905 0
M  V30 10262 C 966.134 -3.67475 -3.10669 0
M  V30 10263 C 968.486 -4.22422 -3.05302 0
M  V30 10264 C 965.814 -5.02666 -3.02562 0
M  V30 10265 C 968.166 -5.57619 -2.98737 0
M  V30 10266 C 966.83 -5.9787 -2.9683 0
M  V30 10267 H 966.1 -0.396098 -0.626249 0
M  V30 10268 H 968.747 -1.54418 -1.13258 0
M  V30 10269 H 967.052 -1.22864 -3.72037 0
M  V30 10270 H 968.749 -1.61668 -3.66967 0
M  V30 10271 H 965.339 -2.94017 -3.11852 0
M  V30 10272 H 969.523 -3.91821 -3.04614 0
M  V30 10273 H 964.779 -5.3305 -2.99446 0
M  V30 10274 H 968.953 -6.31595 -2.93361 0
M  V30 10275 H 966.58 -7.02587 -2.90303 0
M  V30 10276 N 968.156 1.1691 -1.05688 0
M  V30 10277 C 969.066 2.24735 -0.67315 0
M  V30 10278 C 970.082 1.71252 0.308043 0
M  V30 10279 O 971.258 2.00772 0.158889 0
M  V30 10280 C 968.323 3.4665 -0.059026 0
M  V30 10281 C 967.384 4.15198 -1.0913 0
M  V30 10282 C 966.617 5.31292 -0.50639 0
M  V30 10283 O 966.84 5.663 0.682692 0
M  V30 10284 O 965.774 5.88923 -1.2431 0
M  V30 10285 H 969.6 2.59855 -1.57191 0
M  V30 10286 H 967.185 1.24306 -0.828751 0
M  V30 10287 H 969.067 4.20455 0.282018 0
M  V30 10288 H 967.742 3.13316 0.813304 0
M  V30 10289 H 966.649 3.43389 -1.48442 0
M  V30 10290 H 967.982 4.52571 -1.93495 0
M  V30 10291 N 969.634 0.838594 1.33437 0
M  V30 10292 C 970.864 0.446995 2.01707 0
M  V30 10293 C 971.272 -0.956335 1.63251 0
M  V30 10294 O 970.615 -1.63289 0.841566 0
M  V30 10295 C 970.677 0.487707 3.56176 0
M  V30 10296 C 970.341 1.8471 4.18009 0
M  V30 10297 C 971.338 2.81028 4.374 0
M  V30 10298 C 969.023 2.13987 4.54439 0
M  V30 10299 C 971.017 4.04785 4.92369 0
M  V30 10300 C 968.704 3.38 5.09116 0
M  V30 10301 C 969.702 4.33216 5.28027 0
M  V30 10302 O 969.39 5.55036 5.81541 0
M  V30 10303 H 969.122 0.175799 0.652741 0
M  V30 10304 H 971.676 1.13265 1.71348 0
M  V30 10305 H 969.906 -0.254719 3.8586 0
M  V30 10306 H 971.595 0.113971 4.0574 0
M  V30 10307 H 972.361 2.5971 4.09604 0
M  V30 10308 H 968.24 1.40668 4.39014 0
M  V30 10309 H 971.784 4.79114 5.07046 0
M  V30 10310 H 967.681 3.59175 5.36343 0
M  V30 10311 H 968.449 5.56772 5.99956 0
M  V30 10312 N 971.112 -1.45937 0.595003 0
M  V30 10313 C 972.045 -2.27491 -0.179775 0
M  V30 10314 C 973.023 -1.36376 -0.88545 0
M  V30 10315 O 974.207 -1.65797 -0.896863 0
M  V30 10316 C 971.334 -3.1443 -1.25902 0
M  V30 10317 C 970.38 -4.21396 -0.657847 0
M  V30 10318 S 971.213 -5.32923 0.524689 0
M  V30 10319 C 972.369 -6.2343 -0.555452 0
M  V30 10320 H 972.602 -2.92855 0.512173 0
M  V30 10321 H 970.135 -1.49595 0.382199 0
M  V30 10322 H 972.093 -3.65081 -1.87687 0
M  V30 10323 H 970.754 -2.48356 -1.92297 0
M  V30 10324 H 969.947 -4.82102 -1.46948 0
M  V30 10325 H 969.549 -3.73822 -0.115403 0
M  V30 10326 H 971.841 -6.62066 -1.43789 0
M  V30 10327 H 972.784 -7.08098 0.0151431 0
M  V30 10328 H 973.192 -5.57831 -0.865125 0
M  V30 10329 N 972.59 -0.333456 -1.54032 0
M  V30 10330 C 973.553 0.515392 -2.2333 0
M  V30 10331 C 974.553 1.03566 -1.23007 0
M  V30 10332 O 975.743 0.926514 -1.47517 0
M  V30 10333 C 972.875 1.7169 -2.94508 0
M  V30 10334 H 974.068 -0.0905407 -2.99763 0
M  V30 10335 H 971.621 -0.0846651 -1.56071 0
M  V30 10336 H 972.356 2.3618 -2.22237 0
M  V30 10337 H 972.141 1.35115 -3.68085 0
M  V30 10338 H 973.631 2.31922 -3.47278 0
M  V30 10339 N 974.068 1.57479 -0.061844 0
M  V30 10340 C 975.298 1.97142 0.61794 0
M  V30 10341 C 975.706 0.938533 1.64281 0
M  V30 10342 O 975.049 -0.084385 1.83506 0
M  V30 10343 C 975.111 3.33083 1.35263 0
M  V30 10344 C 974.775 4.54447 0.482372 0
M  V30 10345 C 975.772 5.1927 -0.255954 0
M  V30 10346 C 973.457 5.00623 0.410167 0
M  V30 10347 C 975.451 6.28612 -1.05481 0
M  V30 10348 C 973.138 6.09839 -0.392369 0
M  V30 10349 C 974.136 6.73696 -1.12354 0
M  V30 10350 O 973.824 7.80811 -1.91285 0
M  V30 10351 H 973.556 0.653497 0.172969 0
M  V30 10352 H 976.11 2.05002 -0.127781 0
M  V30 10353 H 974.34 3.21808 2.14421 0
M  V30 10354 H 976.029 3.5742 1.92368 0
M  V30 10355 H 976.795 4.84546 -0.209703 0
M  V30 10356 H 972.674 4.50704 0.968883 0
M  V30 10357 H 976.218 6.78385 -1.62602 0
M  V30 10358 H 972.115 6.43997 -0.44022 0
M  V30 10359 H 972.883 7.9764 -1.83611 0
M  V30 10360 N 975.546 -0.211634 1.56173 0
M  V30 10361 C 976.794 -0.932704 1.7929 0
M  V30 10362 C 977.115 -1.84472 0.632076 0
M  V30 10363 O 976.385 -1.92739 -0.350519 0
M  V30 10364 H 974.965 -0.347393 0.661307 0
M  V30 10365 H 977.627 -0.22111 1.93642 0
M  V30 10366 H 976.723 -1.53365 2.71819 0
M  V30 10367 N 977.024 -1.50153 -0.478725 0
M  V30 10368 C 978.301 -1.51274 -1.23999 0
M  V30 10369 C 978.681 -0.253048 -2.09578 0
M  V30 10370 O 978.029 0.763827 -2.15355 0
M  V30 10371 C 978.239 -2.80423 -2.07759 0
M  V30 10372 C 979.587 -3.30788 -2.66204 0
M  V30 10373 O 980.611 -2.81693 -2.18008 0
M  V30 10374 O 979.47 -4.1635 -3.53999 0
M  V30 10375 H 976.564 -0.606438 -0.562283 0
M  V30 10376 H 979.11 -1.62436 -0.491171 0
M  V30 10377 H 977.882 -3.63584 -1.44645 0
M  V30 10378 H 977.505 -2.72228 -2.89789 0
M  V30 10379 N 978.502 0.731368 -1.39602 0
M  V30 10380 C 979.432 1.85855 -1.41351 0
M  V30 10381 C 980.413 1.67839 -0.2764 0
M  V30 10382 O 981.598 1.88104 -0.482747 0
M  V30 10383 C 978.728 3.23644 -1.25983 0
M  V30 10384 C 977.682 3.56304 -2.37132 0
M  V30 10385 C 977.008 4.93069 -2.0685 0
M  V30 10386 C 978.308 3.58906 -3.79452 0
M  V30 10387 H 980.002 1.84648 -2.3568 0
M  V30 10388 H 977.548 0.886955 -1.13442 0
M  V30 10389 H 979.501 4.02176 -1.25826 0
M  V30 10390 H 978.225 3.25387 -0.281234 0
M  V30 10391 H 976.884 2.80104 -2.36511 0
M  V30 10392 H 976.532 4.91396 -1.0742 0
M  V30 10393 H 976.232 5.15888 -2.81306 0
M  V30 10394 H 977.756 5.73953 -2.0835 0
M  V30 10395 H 979.17 4.27508 -3.81982 0
M  V30 10396 H 977.567 3.93246 -4.53297 0
M  V30 10397 H 978.637 2.58631 -4.10168 0
M  V30 10398 N 979.98 1.24838 0.961938 0
M  V30 10399 C 980.928 1.0436 2.07874 0
M  V30 10400 C 981.922 -0.0232531 1.69384 0
M  V30 10401 O 983.128 0.131773 1.79517 0
M  V30 10402 H 979.503 0.320492 0.680286 0
M  V30 10403 H 981.474 1.99055 2.22306 0
M  V30 10404 C 980.223 0.671246 3.41159 0
M  V30 10405 H 979.546 1.48395 3.7124 0
M  V30 10406 H 980.986 0.567608 4.20184 0
M  V30 10407 C 979.445 -0.622124 3.31106 0
M  V30 10408 O 979.975 -1.66627 3.65511 0
M  V30 10409 N 978.181 -0.605009 2.84232 0
M  V30 10410 H 977.728 0.245052 2.56432 0
M  V30 10411 H 977.686 -1.47056 2.77888 0
M  V30 10412 N 981.458 -1.16348 1.06306 0
M  V30 10413 C 982.368 -2.24375 0.685059 0
M  V30 10414 C 983.384 -1.71413 -0.298956 0
M  V30 10415 O 984.56 -2.00854 -0.148239 0
M  V30 10416 C 981.625 -3.46614 0.0774088 0
M  V30 10417 C 980.686 -4.14613 1.11331 0
M  V30 10418 C 979.919 -5.31016 0.534559 0
M  V30 10419 O 980.142 -5.66654 -0.65265 0
M  V30 10420 O 979.076 -5.88256 1.27431 0
M  V30 10421 H 982.902 -2.59018 1.58566 0
M  V30 10422 H 980.487 -1.23865 0.835332 0
M  V30 10423 H 982.369 -4.20599 -0.259716 0
M  V30 10424 H 981.044 -3.13743 -0.796677 0
M  V30 10425 H 979.951 -3.42597 1.50261 0
M  V30 10426 H 981.284 -4.51538 1.95893 0
M  V30 10427 N 982.937 -0.845659 -1.3299 0
M  V30 10428 C 984.184 -0.444653 -1.97558 0
M  V30 10429 C 984.512 0.997682 -1.66963 0
M  V30 10430 O 983.767 1.71349 -0.94541 0
M  V30 10431 C 984.066 -0.6201 -3.51979 0
M  V30 10432 C 983.732 -2.03155 -4.02541 0
M  V30 10433 C 982.394 -2.4176 -4.16059 0
M  V30 10434 C 984.746 -2.95317 -4.29462 0
M  V30 10435 C 982.074 -3.71818 -4.53837 0
M  V30 10436 C 984.426 -4.24863 -4.68694 0
M  V30 10437 C 983.09 -4.63416 -4.80419 0
M  V30 10438 H 982.36 -0.16271 -0.722915 0
M  V30 10439 H 985.007 -1.07399 -1.58549 0
M  V30 10440 H 983.312 0.092513 -3.91691 0
M  V30 10441 H 985.009 -0.290012 -3.9995 0
M  V30 10442 H 981.599 -1.72174 -3.92497 0
M  V30 10443 H 985.783 -2.66726 -4.18534 0
M  V30 10444 H 981.039 -4.01484 -4.61108 0
M  V30 10445 H 985.213 -4.96347 -4.8848 0
M  V30 10446 H 982.84 -5.6424 -5.09448 0
M  V30 10447 N 984.415 1.45619 -0.602734 0
M  V30 10448 C 985.345 2.33258 0.106342 0
M  V30 10449 C 986.326 1.46543 0.863664 0
M  V30 10450 O 987.511 1.75324 0.835175 0
M  V30 10451 C 984.641 3.29168 1.10751 0
M  V30 10452 C 983.595 4.25481 0.463717 0
M  V30 10453 C 982.921 5.11046 1.57278 0
M  V30 10454 C 984.221 5.18702 -0.61199 0
M  V30 10455 H 985.915 2.92795 -0.625423 0
M  V30 10456 H 983.461 1.40793 -0.302213 0
M  V30 10457 H 985.414 3.89346 1.61208 0
M  V30 10458 H 984.138 2.6778 1.8698 0
M  V30 10459 H 982.797 3.66595 -0.0199496 0
M  V30 10460 H 982.445 4.46029 2.32524 0
M  V30 10461 H 982.145 5.76286 1.14755 0
M  V30 10462 H 983.669 5.74091 2.07972 0
M  V30 10463 H 985.083 5.72979 -0.191686 0
M  V30 10464 H 983.48 5.92393 -0.958686 0
M  V30 10465 H 984.55 4.61424 -1.4905 0
M  V30 10466 N 985.893 0.34162 1.53853 0
M  V30 10467 C 987.309 -0.0103769 1.59597 0
M  V30 10468 C 987.509 -1.48897 1.35764 0
M  V30 10469 O 986.565 -2.24743 1.15095 0
M  V30 10470 C 987.878 0.424067 2.97695 0
M  V30 10471 C 989.426 0.376247 3.1073 0
M  V30 10472 C 989.901 0.786129 4.51203 0
M  V30 10473 N 991.392 0.74024 4.57247 0
M  V30 10474 C 992.127 1.02937 5.64085 0
M  V30 10475 N 991.623 1.38655 6.78783 0
M  V30 10476 N 993.416 0.953734 5.5395 0
M  V30 10477 H 985.567 1.30477 1.67599 0
M  V30 10478 H 987.83 0.531753 0.78482 0
M  V30 10479 H 987.536 1.45493 3.20195 0
M  V30 10480 H 987.41 -0.201713 3.7666 0
M  V30 10481 H 989.797 -0.645441 2.87955 0
M  V30 10482 H 989.878 1.0372 2.33828 0
M  V30 10483 H 989.522 1.80582 4.74713 0
M  V30 10484 H 989.452 0.102671 5.265 0
M  V30 10485 H 991.943 0.476763 3.7488 0
M  V30 10486 H 992.256 1.59206 7.56223 0
M  V30 10487 H 990.601 1.42498 6.80235 0
M  V30 10488 H 993.792 0.674044 4.63222 0
M  V30 10489 H 993.965 1.18241 6.37121 0
M  V30 10490 N 987.371 -1.57444 0.0701946 0
M  V30 10491 C 988.596 -1.98171 -0.61181 0
M  V30 10492 C 989.021 -0.94823 -1.62451 0
M  V30 10493 O 988.379 0.0863553 -1.81094 0
M  V30 10494 C 988.427 -3.37934 -1.2583 0
M  V30 10495 O 987.531 -3.37207 -2.37414 0
M  V30 10496 H 986.872 -0.645056 -0.157477 0
M  V30 10497 H 989.402 -2.04091 0.144235 0
M  V30 10498 H 989.412 -3.75083 -1.60552 0
M  V30 10499 H 988.087 -4.12684 -0.516234 0
M  V30 10500 H 986.664 -3.11826 -2.04497 0
M  V30 10501 N 988.849 0.203349 -1.56283 0
M  V30 10502 C 989.782 1.27982 -1.88934 0
M  V30 10503 C 990.76 1.44345 -0.748555 0
M  V30 10504 O 991.944 1.59867 -0.998741 0
M  V30 10505 C 989.071 2.64762 -2.11231 0
M  V30 10506 C 988.117 2.65315 -3.33932 0
M  V30 10507 S 988.95 2.17568 -4.8931 0
M  V30 10508 C 990.106 3.56189 -5.14665 0
M  V30 10509 H 990.339 1.00095 -2.79943 0
M  V30 10510 H 987.872 0.406458 -1.48954 0
M  V30 10511 H 989.83 3.43501 -2.2476 0
M  V30 10512 H 988.491 2.89864 -1.20986 0
M  V30 10513 H 987.684 3.6587 -3.46634 0
M  V30 10514 H 987.286 1.94652 -3.19353 0
M  V30 10515 H 989.578 4.52001 -5.0468 0
M  V30 10516 H 990.521 3.48387 -6.16467 0
M  V30 10517 H 990.929 3.50719 -4.42331 0
M  V30 10518 N 990.327 1.50405 0.470755 0
M  V30 10519 C 991.552 1.65442 1.25075 0
M  V30 10520 C 991.977 0.337612 1.85045 0
M  V30 10521 O 991.335 -0.698555 1.67302 0
M  V30 10522 C 991.383 2.74793 2.33498 0
M  V30 10523 O 990.487 2.36069 3.3815 0
M  V30 10524 H 989.828 0.552728 0.367951 0
M  V30 10525 H 992.358 1.96782 0.560177 0
M  V30 10526 H 992.368 2.97879 2.78804 0
M  V30 10527 H 991.043 3.70363 1.8922 0
M  V30 10528 H 989.62 2.2343 2.98552 0
M  V30 10529 N 991.805 -0.723954 1.39988 0
M  V30 10530 C 993.216 -1.30273 1.33738 0
M  V30 10531 C 993.567 -1.96199 0.00690581 0
M  V30 10532 O 992.692 -1.97016 -0.895179 0
M  V30 10533 C 993.287 -2.36889 2.42217 0
M  V30 10534 C 991.846 -2.90412 2.39453 0
M  V30 10535 C 990.993 -1.64103 2.2353 0
M  V30 10536 H 993.944 -0.520672 1.49916 0
M  V30 10537 H 993.965 -3.17538 2.09642 0
M  V30 10538 H 993.477 -1.88878 3.39038 0
M  V30 10539 H 991.578 -3.42674 1.46304 0
M  V30 10540 H 991.691 -3.42775 3.34727 0
M  V30 10541 H 990.055 -1.88855 1.70897 0
M  V30 10542 H 990.838 -1.18128 3.22336 0
M  V30 10543 N 993.283 -1.25346 -0.955304 0
M  V30 10544 C 994.233 -1.02358 -2.03732 0
M  V30 10545 C 995.217 0.0392941 -1.60852 0
M  V30 10546 O 996.409 -0.175959 -1.76123 0
M  V30 10547 C 993.538 -0.643552 -3.37214 0
M  V30 10548 C 992.624 -1.74315 -3.8662 0
M  V30 10549 N 993.015 -2.97816 -4.08827 0
M  V30 10550 C 991.313 -1.62351 -4.15401 0
M  V30 10551 C 992.014 -3.69185 -4.4953 0
M  V30 10552 N 990.99 -2.96803 -4.55422 0
M  V30 10553 H 994.792 -1.96119 -2.18894 0
M  V30 10554 H 992.306 -1.15655 -1.14007 0
M  V30 10555 H 994.303 -0.460053 -4.14354 0
M  V30 10556 H 992.963 0.286738 -3.23431 0
M  V30 10557 H 993.974 -3.33868 -3.95919 0
M  V30 10558 H 990.651 -0.762133 -4.10485 0
M  V30 10559 H 992.041 -4.7519 -4.7502 0
M  V30 10560 N 994.761 1.15782 -1.06922 0
M  V30 10561 C 995.989 1.90355 -0.81072 0
M  V30 10562 C 996.404 1.77779 0.635614 0
M  V30 10563 O 995.761 1.12675 1.43564 0
M  V30 10564 C 995.812 3.4085 -1.2043 0
M  V30 10565 O 995.533 3.53057 -2.59388 0
M  V30 10566 C 997.034 4.32457 -0.974473 0
M  V30 10567 H 994.254 0.60343 -0.293451 0
M  V30 10568 H 996.798 1.46723 -1.42452 0
M  V30 10569 H 994.953 3.82162 -0.634909 0
M  V30 10570 H 995.367 4.46426 -2.75326 0
M  V30 10571 H 996.841 5.36488 -1.29942 0
M  V30 10572 H 997.318 4.39109 0.0894481 0
M  V30 10573 H 997.924 3.96882 -1.52856 0
M  V30 10574 N 996.239 0.8527 1.3254 0
M  V30 10575 C 997.485 0.455798 1.97612 0
M  V30 10576 C 997.818 -0.985616 1.6733 0
M  V30 10577 O 997.093 -1.69129 0.960493 0
M  V30 10578 C 997.376 0.69312 3.53366 0
M  V30 10579 C 997.229 2.18281 3.93285 0
M  V30 10580 C 998.548 0.148236 4.3985 0
M  V30 10581 H 995.667 0.167078 0.717812 0
M  V30 10582 H 998.309 1.07076 1.56954 0
M  V30 10583 H 996.459 0.169677 3.88129 0
M  V30 10584 H 998.131 2.77218 3.68711 0
M  V30 10585 H 996.374 2.66206 3.42515 0
M  V30 10586 H 997.045 2.29957 5.01821 0
M  V30 10587 H 999.521 0.595834 4.11812 0
M  V30 10588 H 998.397 0.343873 5.47822 0
M  V30 10589 H 998.658 -0.948872 4.31797 0
M  V30 10590 N 997.718 -1.45297 0.610449 0
M  V30 10591 C 998.958 -2.04105 0.109802 0
M  V30 10592 C 999.322 -1.46818 -1.23727 0
M  V30 10593 O 1000.52 -1.96997 -1.82881 0
M  V30 10594 C 998.794 -3.57323 0.0741377 0
M  V30 10595 S 1000.35 -4.3728 -0.364901 0
M  V30 10596 H 997.171 -0.709171 0.050967 0
M  V30 10597 H 999.773 -1.77967 0.809194 0
M  V30 10598 H 998.477 -3.96528 1.05801 0
M  V30 10599 H 998.008 -3.8804 -0.647158 0
M  V30 10600 H 1000.02 -4.69224 -1.61379 0
M  V30 10601 N 999.196 -0.349774 -1.5367 0
M  V30 10602 C 1000.42 0.248692 -2.05904 0
M  V30 10603 C 1000.85 1.42942 -1.22267 0
M  V30 10604 O 1000.2 1.79732 -0.237899 0
M  V30 10605 C 1000.25 0.635639 -3.54953 0
M  V30 10606 O 999.356 1.7349 -3.74132 0
M  V30 10607 H 998.697 0.0399477 -0.662797 0
M  V30 10608 H 1001.23 -0.505795 -1.9825 0
M  V30 10609 H 1001.24 0.911064 -3.97698 0
M  V30 10610 H 999.912 -0.227805 -4.15276 0
M  V30 10611 H 998.489 1.45626 -3.43289 0
M  V30 10612 N 1000.67 1.57404 -0.0785433 0
M  V30 10613 C 1001.6 2.16131 0.883726 0
M  V30 10614 C 1002.58 1.09015 1.30575 0
M  V30 10615 O 1003.77 1.3708 1.37559 0
M  V30 10616 C 1000.9 2.72836 2.1489 0
M  V30 10617 C 999.854 3.85178 1.86605 0
M  V30 10618 C 999.18 4.28516 3.1981 0
M  V30 10619 C 1000.48 5.09118 1.16601 0
M  V30 10620 H 1002.17 2.9679 0.394484 0
M  V30 10621 H 999.72 1.42763 0.188304 0
M  V30 10622 H 1001.67 3.12567 2.8263 0
M  V30 10623 H 1000.4 1.89408 2.66068 0
M  V30 10624 H 999.056 3.45962 1.21268 0
M  V30 10625 H 998.704 3.42 3.68843 0
M  V30 10626 H 998.404 5.04249 3.01674 0
M  V30 10627 H 999.928 4.70868 3.88737 0
M  V30 10628 H 1001.34 5.46123 1.74422 0
M  V30 10629 H 999.739 5.90173 1.087 0
M  V30 10630 H 1000.81 4.8468 0.146138 0
M  V30 10631 N 1002.15 -0.195058 1.56388 0
M  V30 10632 C 1003.38 -0.935745 1.85091 0
M  V30 10633 C 1003.8 -1.76061 0.662118 0
M  V30 10634 O 1003.16 -1.77076 -0.389083 0
M  V30 10635 C 1003.21 -1.80764 3.1202 0
M  V30 10636 O 1002.31 -2.90643 2.92575 0
M  V30 10637 H 1001.65 -0.26351 0.609474 0
M  V30 10638 H 1004.18 -0.200362 2.03617 0
M  V30 10639 H 1004.19 -2.21229 3.42815 0
M  V30 10640 H 1002.87 -1.20157 3.98165 0
M  V30 10641 H 1001.44 -2.53934 2.73079 0
M  V30 10642 N 1003.63 -1.50653 -0.462772 0
M  V30 10643 C 1004.58 -1.66509 -1.55752 0
M  V30 10644 C 1005.56 -0.519508 -1.52282 0
M  V30 10645 O 1006.76 -0.774296 -1.59166 0
M  V30 10646 C 1003.88 -1.77023 -2.94139 0
M  V30 10647 C 1002.97 -2.97284 -3.02461 0
M  V30 10648 N 1003.36 -4.20843 -2.80579 0
M  V30 10649 C 1001.66 -2.96014 -3.33604 0
M  V30 10650 C 1002.36 -5.01886 -2.94084 0
M  V30 10651 N 1001.34 -4.3601 -3.24648 0
M  V30 10652 H 1005.14 -2.59727 -1.37546 0
M  V30 10653 H 1002.65 -1.47951 -0.669653 0
M  V30 10654 H 1004.65 -1.86488 -3.72864 0
M  V30 10655 H 1003.31 -0.849688 -3.13385 0
M  V30 10656 H 1004.32 -4.50206 -2.55998 0
M  V30 10657 H 1001 -2.13493 -3.58786 0
M  V30 10658 H 1002.39 -6.10164 -2.81334 0
M  V30 10659 N 1005.11 0.71652 -1.4037 0
M  V30 10660 C 1006.33 1.51069 -1.42102 0
M  V30 10661 C 1006.76 1.88087 -0.0222387 0
M  V30 10662 O 1006.12 1.53204 0.969448 0
M  V30 10663 C 1006.16 2.76307 -2.31704 0
M  V30 10664 O 1005.27 3.72975 -1.75964 0
M  V30 10665 H 1004.61 0.455502 -0.483129 0
M  V30 10666 H 1007.14 0.882514 -1.84588 0
M  V30 10667 H 1007.15 3.24846 -2.46859 0
M  V30 10668 H 1005.82 2.48698 -3.3335 0
M  V30 10669 H 1004.4 3.31818 -1.70151 0
M  V30 10670 N 1006.59 1.25851 0.948643 0
M  V30 10671 C 1007.86 1.01717 1.67072 0
M  V30 10672 C 1008.24 -0.454749 2.06144 0
M  V30 10673 O 1007.59 -1.43345 1.77945 0
M  V30 10674 C 1007.8 1.95872 2.88852 0
M  V30 10675 C 1009.15 2.24057 3.60671 0
M  V30 10676 O 1010.17 1.93678 2.98944 0
M  V30 10677 O 1009.03 2.75745 4.71833 0
M  V30 10678 H 1006.13 0.386198 0.731287 0
M  V30 10679 H 1008.67 1.37031 1.00104 0
M  V30 10680 H 1007.44 2.95233 2.56814 0
M  V30 10681 H 1007.07 1.60992 3.63548 0
M  V30 10682 N 1008.06 -1.15214 1.07534 0
M  V30 10683 C 1008.99 -2.2216 0.718837 0
M  V30 10684 C 1009.98 -1.6753 -0.29459 0
M  V30 10685 O 1011.16 -1.93481 -0.166931 0
M  V30 10686 C 1008.29 -3.471 0.117836 0
M  V30 10687 C 1007.24 -4.14701 1.05862 0
M  V30 10688 C 1006.57 -5.3374 0.320284 0
M  V30 10689 C 1007.87 -4.64254 2.39302 0
M  V30 10690 H 1009.56 -2.52237 1.61297 0
M  V30 10691 H 1007.11 -1.21239 0.776992 0
M  V30 10692 H 1009.06 -4.21156 -0.143519 0
M  V30 10693 H 1007.79 -3.16361 -0.811389 0
M  V30 10694 H 1006.45 -3.42589 1.30493 0
M  V30 10695 H 1006.09 -4.99257 -0.61246 0
M  V30 10696 H 1005.79 -5.79912 0.947381 0
M  V30 10697 H 1007.32 -6.10563 0.0667721 0
M  V30 10698 H 1008.73 -5.29827 2.18988 0
M  V30 10699 H 1007.13 -5.21095 2.97623 0
M  V30 10700 H 1008.2 -3.79793 3.01472 0
M  V30 10701 N 1009.54 -0.859717 -1.32086 0
M  V30 10702 C 1010.77 -0.478865 -2.01796 0
M  V30 10703 C 1011.19 0.918274 -1.64163 0
M  V30 10704 O 1010.55 1.60409 -0.844896 0
M  V30 10705 C 1010.6 -0.631356 -3.5503 0
M  V30 10706 O 1009.7 0.333712 -4.11048 0
M  V30 10707 H 1009.04 -0.191775 -0.635703 0
M  V30 10708 H 1011.57 -1.16031 -1.68517 0
M  V30 10709 H 1011.58 -0.520783 -4.04663 0
M  V30 10710 H 1010.26 -1.65015 -3.81763 0
M  V30 10711 H 1008.84 0.178953 -3.7247 0
M  V30 10712 N 1011.02 1.44971 -0.618145 0
M  V30 10713 C 1011.95 2.27748 0.143561 0
M  V30 10714 C 1012.93 1.37768 0.863642 0
M  V30 10715 O 1014.12 1.67203 0.870373 0
M  V30 10716 C 1011.24 3.16394 1.20883 0
M  V30 10717 C 1010.29 4.22389 0.590724 0
M  V30 10718 S 1011.12 5.32021 -0.609406 0
M  V30 10719 C 1012.28 6.24235 0.456199 0
M  V30 10720 H 1012.51 2.92003 -0.558699 0
M  V30 10721 H 1010.04 1.48968 -0.40595 0
M  V30 10722 H 1012 3.6802 1.81855 0
M  V30 10723 H 1010.66 2.51384 1.88322 0
M  V30 10724 H 1009.86 4.84379 1.3926 0
M  V30 10725 H 1009.46 3.73958 0.055917 0
M  V30 10726 H 1011.75 6.64269 1.33238 0
M  V30 10727 H 1012.69 7.07985 -0.127794 0
M  V30 10728 H 1013.1 5.59137 0.776269 0
M  V30 10729 N 1012.5 0.357919 1.53482 0
M  V30 10730 C 1013.91 0.00655107 1.59599 0
M  V30 10731 C 1014.11 -1.47449 1.37336 0
M  V30 10732 O 1013.17 -2.2351 1.17472 0
M  V30 10733 C 1014.48 0.455617 2.97228 0
M  V30 10734 C 1016.03 0.409183 3.10314 0
M  V30 10735 C 1016.51 0.833941 4.50344 0
M  V30 10736 N 1018 0.788695 4.56436 0
M  V30 10737 C 1018.73 1.08914 5.62961 0
M  V30 10738 N 1018.23 1.45847 6.77274 0
M  V30 10739 N 1020.02 1.01243 5.52907 0
M  V30 10740 H 1012.17 1.32248 1.66206 0
M  V30 10741 H 1014.44 0.540047 0.779136 0
M  V30 10742 H 1014.14 1.48881 3.18634 0
M  V30 10743 H 1014.02 -0.161751 3.76853 0
M  V30 10744 H 1016.4 -0.614863 2.88623 0
M  V30 10745 H 1016.48 1.06195 2.32715 0
M  V30 10746 H 1016.13 1.85607 4.72771 0
M  V30 10747 H 1016.06 0.158507 5.26361 0
M  V30 10748 H 1018.55 0.516497 3.74354 0
M  V30 10749 H 1018.86 1.67218 7.54492 0
M  V30 10750 H 1017.21 1.49705 6.78685 0
M  V30 10751 H 1020.4 0.723137 4.62481 0
M  V30 10752 H 1020.57 1.24991 6.35831 0
M  V30 10753 N 1013.98 -1.5736 0.0868897 0
M  V30 10754 C 1014.94 -2.12436 -0.860439 0
M  V30 10755 C 1015.94 -1.05175 -1.21634 0
M  V30 10756 O 1017.13 -1.31098 -1.14713 0
M  V30 10757 C 1014.26 -2.63818 -2.159 0
M  V30 10758 H 1015.45 -2.97453 -0.382346 0
M  V30 10759 H 1013.01 -1.55458 -0.162009 0
M  V30 10760 H 1013.74 -1.82298 -2.68212 0
M  V30 10761 H 1013.53 -3.42234 -1.91359 0
M  V30 10762 H 1015.02 -3.06452 -2.83685 0
M  V30 10763 N 1015.45 0.186762 -1.56489 0
M  V30 10764 C 1016.39 1.25565 -1.91745 0
M  V30 10765 C 1017.4 1.4128 -0.80894 0
M  V30 10766 O 1018.59 1.41558 -1.08737 0
M  V30 10767 C 1015.69 2.62662 -2.14154 0
M  V30 10768 C 1014.86 2.68448 -3.45333 0
M  V30 10769 C 1013.92 3.86798 -3.56754 0
M  V30 10770 O 1012.95 3.73514 -4.29507 0
M  V30 10771 N 1014.15 5.02607 -2.90459 0
M  V30 10772 H 1016.91 0.956351 -2.84032 0
M  V30 10773 H 1014.47 0.376631 -1.57458 0
M  V30 10774 H 1016.47 3.40277 -2.19075 0
M  V30 10775 H 1015.04 2.85046 -1.28326 0
M  V30 10776 H 1014.26 1.77044 -3.52206 0
M  V30 10777 H 1015.54 2.69311 -4.31682 0
M  V30 10778 H 1014.94 5.163 -2.31194 0
M  V30 10779 H 1013.5 5.78139 -3.00996 0
M  V30 10780 N 1016.93 1.50896 0.454776 0
M  V30 10781 C 1018.18 1.6294 1.20741 0
M  V30 10782 C 1018.51 0.336339 1.91265 0
M  V30 10783 O 1017.79 -0.663153 1.82846 0
M  V30 10784 C 1018.07 2.82092 2.23822 0
M  V30 10785 C 1017.92 4.21326 1.57495 0
M  V30 10786 C 1019.24 2.96777 3.24979 0
M  V30 10787 H 1016.36 0.59302 0.437603 0
M  V30 10788 H 1019 1.83331 0.498959 0
M  V30 10789 H 1017.15 2.64837 2.84243 0
M  V30 10790 H 1018.82 4.50209 1.00546 0
M  V30 10791 H 1017.07 4.24829 0.877664 0
M  V30 10792 H 1017.74 5.00656 2.32482 0
M  V30 10793 H 1020.21 3.12627 2.74597 0
M  V30 10794 H 1019.09 3.81742 3.94416 0
M  V30 10795 H 1019.35 2.08091 3.90065 0
M  V30 10796 N 1018.41 -0.709066 1.40748 0
M  V30 10797 C 1019.64 -1.50313 1.42901 0
M  V30 10798 C 1020.06 -1.88072 0.032213 0
M  V30 10799 O 1019.42 -1.53716 -0.96131 0
M  V30 10800 C 1019.47 -2.75074 2.33166 0
M  V30 10801 O 1018.57 -3.72036 1.7794 0
M  V30 10802 H 1017.91 -0.452934 0.485538 0
M  V30 10803 H 1020.44 -0.872712 1.85054 0
M  V30 10804 H 1020.45 -3.23532 2.48578 0
M  V30 10805 H 1019.13 -2.46927 3.34664 0
M  V30 10806 H 1017.7 -3.30911 1.71908 0
M  V30 10807 N 1019.89 -1.26353 -0.941956 0
M  V30 10808 C 1021.11 -1.14731 -1.72776 0
M  V30 10809 C 1021.54 0.293766 -1.85792 0
M  V30 10810 O 1020.9 1.21284 -1.34759 0
M  V30 10811 C 1020.95 -1.82041 -3.11277 0
M  V30 10812 O 1020.05 -1.10867 -3.97218 0
M  V30 10813 H 1019.39 -0.399823 -0.53013 0
M  V30 10814 H 1021.92 -1.67157 -1.17981 0
M  V30 10815 H 1021.93 -1.88834 -3.61671 0
M  V30 10816 H 1020.61 -2.86879 -3.0112 0
M  V30 10817 H 1019.18 -1.12044 -3.55669 0
M  V30 10818 N 1021.37 1.14642 -1.08144 0
M  V30 10819 C 1022.78 1.6719 -0.830923 0
M  V30 10820 C 1023.13 1.85373 0.642749 0
M  V30 10821 O 1022.25 1.56293 1.49671 0
M  V30 10822 C 1022.85 3.03697 -1.50179 0
M  V30 10823 C 1021.41 3.5329 -1.29858 0
M  V30 10824 C 1020.56 2.28828 -1.5663 0
M  V30 10825 H 1023.51 0.987441 -1.24239 0
M  V30 10826 H 1023.53 3.69023 -0.9275 0
M  V30 10827 H 1023.04 2.90431 -2.57432 0
M  V30 10828 H 1021.14 3.71783 -0.246626 0
M  V30 10829 H 1021.25 4.34231 -2.02436 0
M  V30 10830 H 1019.62 2.34769 -0.987716 0
M  V30 10831 H 1020.4 2.18141 -2.65084 0
M  V30 10832 N 1022.85 0.866709 1.31628 0
M  V30 10833 C 1024.09 0.475086 1.96437 0
M  V30 10834 C 1024.41 -0.975179 1.68865 0
M  V30 10835 O 1023.68 -1.68317 1.0023 0
M  V30 10836 H 1022.26 0.172695 0.726764 0
M  V30 10837 H 1024.93 1.10578 1.60494 0
M  V30 10838 H 1024.02 0.630123 3.05673 0
M  V30 10839 N 1024.32 -1.44642 0.625825 0
M  V30 10840 C 1025.73 -1.85502 0.211175 0
M  V30 10841 C 1026.09 -1.52356 -1.2362 0
M  V30 10842 O 1025.21 -0.959051 -1.93988 0
M  V30 10843 C 1025.81 -3.36702 0.37648 0
M  V30 10844 C 1024.36 -3.76396 0.0163795 0
M  V30 10845 C 1023.51 -2.68517 0.692368 0
M  V30 10846 H 1026.46 -1.35183 0.831333 0
M  V30 10847 H 1026.48 -3.78536 -0.386106 0
M  V30 10848 H 1026 -3.60795 1.42999 0
M  V30 10849 H 1024.1 -3.57919 -1.0356 0
M  V30 10850 H 1024.21 -4.77231 0.422742 0
M  V30 10851 H 1022.57 -2.54377 0.128191 0
M  V30 10852 H 1023.36 -2.95444 1.74837 0
M  V30 10853 N 1025.8 -0.366053 -1.5329 0
M  V30 10854 C 1027.21 0.113056 -1.86357 0
M  V30 10855 C 1027.56 1.48123 -1.28662 0
M  V30 10856 O 1026.69 2.07658 -0.608849 0
M  V30 10857 C 1027.28 0.211923 -3.38137 0
M  V30 10858 C 1025.84 0.635289 -3.71 0
M  V30 10859 C 1024.99 -0.217203 -2.76448 0
M  V30 10860 H 1027.94 -0.584829 -1.47531 0
M  V30 10861 H 1027.96 1.0354 -3.66142 0
M  V30 10862 H 1027.47 -0.783994 -3.80099 0
M  V30 10863 H 1025.57 1.63942 -3.34595 0
M  V30 10864 H 1025.69 0.409571 -4.77346 0
M  V30 10865 H 1024.05 0.313988 -2.52757 0
M  V30 10866 H 1024.83 -1.21067 -3.21244 0
M  V30 10867 N 1027.28 1.57312 -0.0952337 0
M  V30 10868 C 1028.69 1.81589 0.433875 0
M  V30 10869 C 1029.04 1.01086 1.68155 0
M  V30 10870 O 1028.17 0.240272 2.15062 0
M  V30 10871 C 1028.76 3.29366 0.793931 0
M  V30 10872 C 1027.32 3.54407 1.26778 0
M  V30 10873 C 1026.47 2.76035 0.264518 0
M  V30 10874 H 1029.42 1.55426 -0.320675 0
M  V30 10875 H 1029.44 3.42697 1.65345 0
M  V30 10876 H 1028.95 3.87932 -0.114334 0
M  V30 10877 H 1027.05 3.01173 2.19376 0
M  V30 10878 H 1027.17 4.63055 1.22952 0
M  V30 10879 H 1025.53 2.43509 0.746691 0
M  V30 10880 H 1026.31 3.37349 -0.636429 0
M  V30 10881 N 1028.76 -0.17846 1.56586 0
M  V30 10882 C 1029.69 -1.22342 1.98884 0
M  V30 10883 C 1030.67 -1.46564 0.86331 0
M  V30 10884 O 1031.85 -1.58019 1.12887 0
M  V30 10885 C 1028.98 -2.56396 2.34261 0
M  V30 10886 C 1027.94 -2.46756 3.49708 0
M  V30 10887 C 1027.26 -3.85235 3.70807 0
M  V30 10888 C 1028.56 -1.97838 4.83381 0
M  V30 10889 H 1030.26 -0.871848 2.86425 0
M  V30 10890 H 1027.8 -0.417948 1.37801 0
M  V30 10891 H 1029.76 -3.29695 2.62448 0
M  V30 10892 H 1028.48 -2.93327 1.43621 0
M  V30 10893 H 1027.14 -1.75912 3.21637 0
M  V30 10894 H 1026.79 -4.19547 2.7747 0
M  V30 10895 H 1026.49 -3.79655 4.48481 0
M  V30 10896 H 1028.01 -4.60131 4.01387 0
M  V30 10897 H 1029.43 -2.60906 5.10491 0
M  V30 10898 H 1027.82 -2.03223 5.64642 0
M  V30 10899 H 1028.89 -0.932339 4.75852 0
M  V30 10900 N 1030.24 -1.51135 -0.446768 0
M  V30 10901 C 1031.46 -1.67411 -1.22427 0
M  V30 10902 C 1031.89 -0.367009 -1.84485 0
M  V30 10903 O 1031.24 0.67185 -1.68392 0
M  V30 10904 C 1031.29 -2.78473 -2.29096 0
M  V30 10905 O 1030.4 -2.41419 -3.34351 0
M  V30 10906 H 1029.74 -0.558512 -0.359111 0
M  V30 10907 H 1032.27 -1.97648 -0.5288 0
M  V30 10908 H 1032.28 -3.02277 -2.7403 0
M  V30 10909 H 1030.95 -3.73326 -1.83304 0
M  V30 10910 H 1029.53 -2.28152 -2.9496 0
M  V30 10911 N 1031.71 0.701592 -1.41122 0
M  V30 10912 C 1032.95 1.4739 -1.41618 0
M  V30 10913 C 1033.32 1.91987 -0.0219443 0
M  V30 10914 O 1034.52 2.6862 0.0982793 0
M  V30 10915 C 1032.79 2.65745 -2.38986 0
M  V30 10916 S 1034.35 3.54968 -2.5796 0
M  V30 10917 H 1031.17 0.503742 -0.501762 0
M  V30 10918 H 1033.77 0.819186 -1.77509 0
M  V30 10919 H 1032.47 2.31176 -3.39096 0
M  V30 10920 H 1032 3.36115 -2.04426 0
M  V30 10921 H 1034.02 4.60724 -1.84249 0
M  V30 10922 N 1033.19 1.2685 0.935242 0
M  V30 10923 C 1034.15 1.08975 2.01636 0
M  V30 10924 C 1035.15 0.0361543 1.60759 0
M  V30 10925 O 1036.34 0.280087 1.71934 0
M  V30 10926 C 1033.48 0.658831 3.34473 0
M  V30 10927 H 1034.67 2.04968 2.18925 0
M  V30 10928 H 1032.22 1.09531 1.11501 0
M  V30 10929 H 1032.96 -0.302824 3.22883 0
M  V30 10930 H 1032.74 1.41967 3.65497 0
M  V30 10931 H 1034.23 0.555783 4.13885 0
M  V30 10932 N 1034.67 -1.14067 1.0875 0
M  V30 10933 C 1035.58 -2.22871 0.732498 0
M  V30 10934 C 1036.6 -1.72008 -0.26253 0
M  V30 10935 O 1037.77 -2.01123 -0.105601 0
M  V30 10936 C 1034.84 -3.46371 0.150913 0
M  V30 10937 C 1033.9 -4.12158 1.201 0
M  V30 10938 C 1033.13 -5.29763 0.647075 0
M  V30 10939 O 1033.35 -5.67911 -0.532307 0
M  V30 10940 O 1032.29 -5.8542 1.3988 0
M  V30 10941 H 1036.11 -2.55596 1.64025 0
M  V30 10942 H 1033.7 -1.22065 0.861417 0
M  V30 10943 H 1035.58 -4.21055 -0.170442 0
M  V30 10944 H 1034.26 -3.15362 -0.729948 0
M  V30 10945 H 1033.16 -3.39332 1.57494 0
M  V30 10946 H 1034.5 -4.47282 2.05426 0
M  V30 10947 N 1036.15 -0.873678 -1.31166 0
M  V30 10948 C 1037.08 -0.289389 -2.27366 0
M  V30 10949 C 1038.09 0.549667 -1.5324 0
M  V30 10950 O 1039.28 0.371056 -1.74601 0
M  V30 10951 C 1036.38 0.60807 -3.334 0
M  V30 10952 C 1035.56 -0.199379 -4.36945 0
M  V30 10953 C 1034.61 0.626798 -5.22454 0
M  V30 10954 O 1033.64 0.0535121 -5.69175 0
M  V30 10955 N 1034.84 1.93809 -5.47191 0
M  V30 10956 H 1037.61 -1.1161 -2.78143 0
M  V30 10957 H 1035.17 -0.735529 -1.44228 0
M  V30 10958 H 1037.16 1.16656 -3.87522 0
M  V30 10959 H 1035.73 1.33545 -2.82638 0
M  V30 10960 H 1034.95 -0.939316 -3.82845 0
M  V30 10961 H 1036.24 -0.75329 -5.03193 0
M  V30 10962 H 1035.64 2.42693 -5.10995 0
M  V30 10963 H 1034.19 2.44428 -6.04234 0
M  V30 10964 N 1037.63 1.44308 -0.633487 0
M  V30 10965 C 1038.56 2.33431 0.0568402 0
M  V30 10966 C 1039.54 1.48342 0.832386 0
M  V30 10967 O 1040.72 1.77056 0.797798 0
M  V30 10968 C 1037.85 3.31443 1.03743 0
M  V30 10969 C 1036.81 4.26368 0.373362 0
M  V30 10970 C 1036.13 5.14267 1.46403 0
M  V30 10971 C 1037.43 5.17287 -0.721876 0
M  V30 10972 H 1039.13 2.91402 -0.687388 0
M  V30 10973 H 1036.67 1.4012 -0.332009 0
M  V30 10974 H 1038.63 3.92677 1.52913 0
M  V30 10975 H 1037.35 2.71686 1.81258 0
M  V30 10976 H 1036.01 3.6647 -0.0977053 0
M  V30 10977 H 1035.66 4.50861 2.23011 0
M  V30 10978 H 1035.36 5.7859 1.02506 0
M  V30 10979 H 1036.88 5.78373 1.95748 0
M  V30 10980 H 1038.29 5.72444 -0.313181 0
M  V30 10981 H 1036.69 5.90226 -1.08413 0
M  V30 10982 H 1037.76 4.58159 -1.58804 0
M  V30 10983 N 1039.1 0.374177 1.53094 0
M  V30 10984 C 1040.34 -0.21278 2.03289 0
M  V30 10985 C 1040.71 -1.45291 1.25517 0
M  V30 10986 O 1041.91 -2.11605 1.65761 0
M  V30 10987 C 1040.18 -0.48913 3.54037 0
M  V30 10988 S 1041.74 -1.04853 4.26088 0
M  V30 10989 H 1038.56 -0.0612752 0.708355 0
M  V30 10990 H 1041.16 0.519031 1.88484 0
M  V30 10991 H 1039.86 0.420786 4.08237 0
M  V30 10992 H 1039.39 -1.24978 3.7302 0
M  V30 10993 H 1041.41 -2.33213 4.3798 0
M  V30 10994 N 1040.58 -1.57259 0.103575 0
M  V30 10995 C 1041.83 -1.93832 -0.55786 0
M  V30 10996 C 1042.14 -0.988087 -1.68808 0
M  V30 10997 O 1043.35 -1.24786 -2.41124 0
M  V30 10998 C 1041.81 -3.44433 -1.04373 0
M  V30 10999 C 1041.41 -4.47963 0.0571971 0
M  V30 11000 C 1043.16 -3.89953 -1.67742 0
M  V30 11001 C 1041.07 -5.89727 -0.444505 0
M  V30 11002 H 1040 -0.723536 -0.212161 0
M  V30 11003 H 1042.65 -1.82606 0.180944 0
M  V30 11004 H 1041.03 -3.50841 -1.83648 0
M  V30 11005 H 1042.2 -4.53209 0.83298 0
M  V30 11006 H 1040.52 -4.12104 0.596588 0
M  V30 11007 H 1043.11 -4.93272 -2.06365 0
M  V30 11008 H 1043.46 -3.2907 -2.54988 0
M  V30 11009 H 1043.99 -3.86281 -0.950342 0
M  V30 11010 H 1040.73 -6.5433 0.391543 0
M  V30 11011 H 1040.25 -5.87935 -1.18711 0
M  V30 11012 H 1041.93 -6.40558 -0.910739 0
M  V30 11013 N 1042.06 0.170153 -1.56679 0
M  V30 11014 C 1043.02 1.19443 -1.95617 0
M  V30 11015 C 1044.02 1.37118 -0.83996 0
M  V30 11016 O 1045.21 1.34504 -1.10699 0
M  V30 11017 C 1042.35 2.55926 -2.25199 0
M  V30 11018 H 1043.54 0.86095 -2.87276 0
M  V30 11019 H 1041.09 0.412646 -1.50755 0
M  V30 11020 H 1041.83 2.94286 -1.36257 0
M  V30 11021 H 1041.61 2.44464 -3.06562 0
M  V30 11022 H 1043.1 3.29742 -2.56242 0
M  V30 11023 N 1043.54 1.5137 0.438746 0
M  V30 11024 C 1044.95 1.39514 0.775116 0
M  V30 11025 C 1045.15 0.47638 1.95788 0
M  V30 11026 O 1044.21 -0.0689832 2.52406 0
M  V30 11027 C 1045.52 2.81517 1.05681 0
M  V30 11028 C 1047.07 2.90658 1.16133 0
M  V30 11029 C 1047.55 4.33566 1.47597 0
M  V30 11030 N 1049.04 4.36665 1.54524 0
M  V30 11031 C 1049.77 5.4427 1.80438 0
M  V30 11032 N 1049.27 6.62037 2.04154 0
M  V30 11033 N 1051.06 5.31749 1.82208 0
M  V30 11034 H 1043.21 2.09657 -0.340237 0
M  V30 11035 H 1045.48 0.943736 -0.0898115 0
M  V30 11036 H 1045.18 3.50734 0.260441 0
M  V30 11037 H 1045.06 3.20757 1.98481 0
M  V30 11038 H 1047.44 2.2164 1.94833 0
M  V30 11039 H 1047.52 2.54917 0.212376 0
M  V30 11040 H 1047.17 5.03133 0.694251 0
M  V30 11041 H 1047.1 4.66819 2.43696 0
M  V30 11042 H 1049.59 3.51761 1.38105 0
M  V30 11043 H 1049.9 7.39838 2.23293 0
M  V30 11044 H 1048.25 6.65155 2.01479 0
M  V30 11045 H 1051.44 4.3873 1.63198 0
M  V30 11046 H 1051.61 6.15689 2.02067 0
M  V30 11047 N 1045.02 -0.694098 1.41492 0
M  V30 11048 C 1045.95 -1.81943 1.39389 0
M  V30 11049 C 1046.96 -1.6009 0.295836 0
M  V30 11050 O 1048.15 -1.69565 0.557658 0
M  V30 11051 C 1045.25 -3.18731 1.15167 0
M  V30 11052 C 1044.42 -3.67601 2.37041 0
M  V30 11053 C 1043.48 -4.83063 2.08654 0
M  V30 11054 O 1042.51 -4.94603 2.81704 0
M  V30 11055 N 1043.71 -5.70409 1.0777 0
M  V30 11056 H 1046.48 -1.84239 2.36381 0
M  V30 11057 H 1044.04 -0.876475 1.36123 0
M  V30 11058 H 1046.03 -3.93602 0.941264 0
M  V30 11059 H 1044.6 -3.11452 0.267673 0
M  V30 11060 H 1043.82 -2.83622 2.73774 0
M  V30 11061 H 1045.11 -3.96991 3.18239 0
M  V30 11062 H 1044.5 -5.63718 0.473123 0
M  V30 11063 H 1043.06 -6.45172 0.927177 0
M  V30 11064 N 1046.49 -1.27344 -0.928501 0
M  V30 11065 C 1047.74 -1.13804 -1.67859 0
M  V30 11066 C 1048.07 0.31555 -1.91619 0
M  V30 11067 O 1047.35 1.23087 -1.50599 0
M  V30 11068 C 1047.63 -1.9213 -3.04562 0
M  V30 11069 C 1047.48 -3.45468 -2.88048 0
M  V30 11070 C 1048.8 -1.72513 -4.04879 0
M  V30 11071 H 1045.92 -0.414796 -0.609191 0
M  V30 11072 H 1048.56 -1.5649 -1.07753 0
M  V30 11073 H 1046.71 -1.55853 -3.55868 0
M  V30 11074 H 1048.39 -3.9157 -2.43865 0
M  V30 11075 H 1046.63 -3.71849 -2.23407 0
M  V30 11076 H 1047.3 -3.95515 -3.85061 0
M  V30 11077 H 1049.78 -2.04143 -3.62581 0
M  V30 11078 H 1048.65 -2.29713 -4.98521 0
M  V30 11079 H 1048.91 -0.672856 -4.3695 0
M  V30 11080 N 1047.97 1.13488 -1.09353 0
M  V30 11081 C 1048.94 2.17066 -0.735863 0
M  V30 11082 C 1049.94 1.59086 0.234181 0
M  V30 11083 O 1051.13 1.74196 0.012463 0
M  V30 11084 C 1048.26 3.40786 -0.0880975 0
M  V30 11085 H 1049.45 2.50221 -1.65316 0
M  V30 11086 H 1047 1.28304 -0.89263 0
M  V30 11087 H 1047.74 3.1322 0.840462 0
M  V30 11088 H 1047.52 3.8414 -0.786073 0
M  V30 11089 H 1049.01 4.17342 0.146775 0
M  V30 11090 N 1049.45 0.880621 1.30701 0
M  V30 11091 C 1050.41 0.349087 2.26526 0
M  V30 11092 C 1051.41 -0.505973 1.52632 0
M  V30 11093 O 1052.6 -0.313751 1.71351 0
M  V30 11094 C 1049.74 -0.503023 3.37168 0
M  V30 11095 H 1050.93 1.19516 2.75056 0
M  V30 11096 H 1048.48 0.657107 1.41816 0
M  V30 11097 H 1049.22 -1.36986 2.93948 0
M  V30 11098 H 1049 0.109389 3.91947 0
M  V30 11099 H 1050.49 -0.866845 4.08504 0
M  V30 11100 N 1050.93 -1.4397 0.641131 0
M  V30 11101 C 1052.18 -2.01548 0.149333 0
M  V30 11102 C 1052.5 -1.50759 -1.23679 0
M  V30 11103 O 1051.77 -0.715257 -1.82376 0
M  V30 11104 H 1050.35 -0.745173 0.0522161 0
M  V30 11105 H 1053.01 -1.7634 0.830082 0
M  V30 11106 H 1052.11 -3.11851 0.124676 0
M  V30 11107 N 1052.41 -0.382291 -1.52893 0
M  V30 11108 C 1053.34 0.500194 -2.22651 0
M  V30 11109 C 1054.32 1.06969 -1.22459 0
M  V30 11110 O 1055.5 1.12267 -1.51422 0
M  V30 11111 C 1052.63 1.6917 -2.93427 0
M  V30 11112 C 1051.68 1.24811 -4.07829 0
M  V30 11113 S 1052.51 0.235466 -5.34982 0
M  V30 11114 C 1053.66 1.43292 -6.09277 0
M  V30 11115 H 1053.9 -0.0921913 -2.97157 0
M  V30 11116 H 1051.43 -0.16645 -1.535 0
M  V30 11117 H 1053.39 2.37507 -3.34815 0
M  V30 11118 H 1052.05 2.25537 -2.18613 0
M  V30 11119 H 1051.24 2.13754 -4.56426 0
M  V30 11120 H 1050.84 0.643744 -3.68418 0
M  V30 11121 H 1053.14 2.36118 -6.35023 0
M  V30 11122 H 1054.08 0.988003 -7.01173 0
M  V30 11123 H 1054.49 1.64655 -5.39953 0
M  V30 11124 N 1053.89 1.57202 -0.111913 0
M  V30 11125 C 1054.85 2.13778 0.826534 0
M  V30 11126 C 1055.85 1.07097 1.19945 0
M  V30 11127 O 1057.04 1.32906 1.12613 0
M  V30 11128 C 1054.17 2.6722 2.11675 0
M  V30 11129 H 1055.36 2.98023 0.334975 0
M  V30 11130 H 1052.92 1.55696 0.137256 0
M  V30 11131 H 1053.65 1.86542 2.65278 0
M  V30 11132 H 1053.44 3.45235 1.8589 0
M  V30 11133 H 1054.93 3.10926 2.78774 0
M  V30 11134 N 1055.36 -0.161842 1.56767 0
M  V30 11135 C 1056.59 -0.890953 1.86402 0
M  V30 11136 C 1057 -1.75918 0.696373 0
M  V30 11137 O 1056.34 -1.80461 -0.343463 0
M  V30 11138 C 1056.41 -1.81079 3.10565 0
M  V30 11139 C 1056.07 -1.12121 4.43032 0
M  V30 11140 C 1057.07 -0.482152 5.17659 0
M  V30 11141 C 1054.75 -1.11514 4.89765 0
M  V30 11142 C 1056.75 0.153772 6.37214 0
M  V30 11143 C 1054.43 -0.4754 6.09248 0
M  V30 11144 C 1055.43 0.157944 6.82817 0
M  V30 11145 O 1055.12 0.787579 8.00033 0
M  V30 11146 H 1054.85 -0.26379 0.622407 0
M  V30 11147 H 1057.41 -0.163884 2.04745 0
M  V30 11148 H 1055.64 -2.57842 2.88192 0
M  V30 11149 H 1057.32 -2.41056 3.26568 0
M  V30 11150 H 1058.09 -0.478752 4.82631 0
M  V30 11151 H 1053.97 -1.59752 4.32435 0
M  V30 11152 H 1057.51 0.648716 6.94577 0
M  V30 11153 H 1053.41 -0.476416 6.43739 0
M  V30 11154 H 1054.18 0.687769 8.15605 0
M  V30 11155 N 1056.84 -1.516 -0.430713 0
M  V30 11156 C 1057.77 -1.76342 -1.53054 0
M  V30 11157 C 1058.75 -0.61349 -1.58652 0
M  V30 11158 O 1059.94 -0.856888 -1.74273 0
M  V30 11159 C 1057.07 -1.8945 -2.91077 0
M  V30 11160 C 1056.02 -3.04928 -3.00339 0
M  V30 11161 C 1055.35 -3.03228 -4.40405 0
M  V30 11162 C 1056.65 -4.44777 -2.73808 0
M  V30 11163 H 1058.34 -2.68435 -1.326 0
M  V30 11164 H 1055.89 -1.29171 -0.636466 0
M  V30 11165 H 1057.84 -2.05343 -3.67984 0
M  V30 11166 H 1056.56 -0.940114 -3.12777 0
M  V30 11167 H 1055.22 -2.88751 -2.25872 0
M  V30 11168 H 1054.87 -2.05553 -4.59083 0
M  V30 11169 H 1054.57 -3.80776 -4.47531 0
M  V30 11170 H 1056.1 -3.21222 -5.19277 0
M  V30 11171 H 1057.51 -4.6127 -3.40445 0
M  V30 11172 H 1055.91 -5.2408 -2.92335 0
M  V30 11173 H 1056.98 -4.54358 -1.69372 0
M  V30 11174 N 1058.32 0.686584 -1.41858 0
M  V30 11175 C 1059.54 1.4802 -1.45275 0
M  V30 11176 C 1059.97 1.87997 -0.0621297 0
M  V30 11177 O 1059.33 1.55226 0.936733 0
M  V30 11178 C 1059.38 2.7133 -2.37513 0
M  V30 11179 O 1058.48 3.69159 -1.83836 0
M  V30 11180 H 1057.82 0.445152 -0.492682 0
M  V30 11181 H 1060.35 0.843161 -1.86419 0
M  V30 11182 H 1060.36 3.19537 -2.53693 0
M  V30 11183 H 1059.04 2.41571 -3.3855 0
M  V30 11184 H 1057.61 3.28134 -1.77151 0
M  V30 11185 N 1059.8 1.27835 0.921735 0
M  V30 11186 C 1060.71 1.12904 2.05645 0
M  V30 11187 C 1061.72 0.0575704 1.73905 0
M  V30 11188 O 1062.9 0.265261 1.99645 0
M  V30 11189 C 1059.96 0.783957 3.3772 0
M  V30 11190 C 1059.03 1.93694 3.8312 0
M  V30 11191 C 1058.26 1.60823 5.08893 0
M  V30 11192 O 1058.48 0.518873 5.68035 0
M  V30 11193 O 1057.42 2.44932 5.49811 0
M  V30 11194 H 1061.24 2.08143 2.21157 0
M  V30 11195 H 1058.83 1.07078 1.04185 0
M  V30 11196 H 1060.71 0.605107 4.17033 0
M  V30 11197 H 1059.38 -0.138849 3.23402 0
M  V30 11198 H 1058.29 2.17089 3.04669 0
M  V30 11199 H 1059.62 2.84016 4.0199 0
M  V30 11200 N 1061.28 -1.12907 1.09954 0
M  V30 11201 C 1062.69 -1.363 0.830326 0
M  V30 11202 C 1062.89 -1.93772 -0.552694 0
M  V30 11203 O 1061.95 -2.1607 -1.30652 0
M  V30 11204 C 1063.26 -2.30925 1.92598 0
M  V30 11205 C 1064.81 -2.44528 1.95385 0
M  V30 11206 C 1065.28 -3.42464 3.0411 0
M  V30 11207 N 1066.77 -3.50018 3.03384 0
M  V30 11208 C 1067.51 -4.25693 3.84152 0
M  V30 11209 N 1067.01 -5.04476 4.74843 0
M  V30 11210 N 1068.8 -4.21049 3.7239 0
M  V30 11211 H 1060.95 -0.739571 1.99108 0
M  V30 11212 H 1063.21 -0.387983 0.86497 0
M  V30 11213 H 1062.92 -1.95861 2.92115 0
M  V30 11214 H 1062.79 -3.30997 1.80889 0
M  V30 11215 H 1065.18 -2.78875 0.965037 0
M  V30 11216 H 1065.26 -1.44361 2.11172 0
M  V30 11217 H 1064.9 -3.08847 4.03207 0
M  V30 11218 H 1064.83 -4.42448 2.85565 0
M  V30 11219 H 1067.33 -2.93809 2.37665 0
M  V30 11220 H 1067.64 -5.59541 5.33042 0
M  V30 11221 H 1065.98 -5.0369 4.78875 0
M  V30 11222 H 1069.17 -3.5858 3.00895 0
M  V30 11223 H 1069.35 -4.79771 4.35572 0
M  V30 11224 N 1062.75 -0.88754 -1.30232 0
M  V30 11225 C 1063.7 -0.354497 -2.28061 0
M  V30 11226 C 1064.67 0.556732 -1.56492 0
M  V30 11227 O 1065.86 0.484597 -1.84543 0
M  V30 11228 C 1063 0.422701 -3.42501 0
M  V30 11229 C 1062.11 -0.518036 -4.28883 0
M  V30 11230 C 1061.24 0.275011 -5.30488 0
M  V30 11231 C 1060.28 -0.661032 -6.0852 0
M  V30 11232 N 1059.42 0.0968509 -7.02033 0
M  V30 11233 H 1064.26 -1.19388 -2.73039 0
M  V30 11234 H 1061.8 -0.600091 -1.34303 0
M  V30 11235 H 1063.75 0.889249 -4.07613 0
M  V30 11236 H 1062.38 1.22664 -2.98586 0
M  V30 11237 H 1061.44 -1.10308 -3.64055 0
M  V30 11238 H 1062.75 -1.23504 -4.83268 0
M  V30 11239 H 1061.9 0.803301 -6.01358 0
M  V30 11240 H 1060.64 1.02522 -4.76802 0
M  V30 11241 H 1059.65 -1.20093 -5.36524 0
M  V30 11242 H 1060.87 -1.41037 -6.64293 0
M  V30 11243 H 1058.82 0.829548 -6.50734 0
M  V30 11244 H 1058.73 -0.560476 -7.5392 0
M  V30 11245 H 1060 0.6058 -7.77142 0
M  V30 11246 N 1064.23 1.43628 -0.648757 0
M  V30 11247 C 1065.48 2.01864 -0.160336 0
M  V30 11248 C 1065.81 1.51148 1.22412 0
M  V30 11249 O 1065.06 0.693168 1.83013 0
M  V30 11250 C 1065.36 3.57214 -0.115282 0
M  V30 11251 C 1065.03 4.27258 -1.44088 0
M  V30 11252 C 1063.69 4.46109 -1.8039 0
M  V30 11253 C 1066.04 4.66962 -2.31508 0
M  V30 11254 C 1063.37 5.01928 -3.03785 0
M  V30 11255 C 1065.72 5.24148 -3.54191 0
M  V30 11256 C 1064.39 5.41216 -3.90694 0
M  V30 11257 H 1063.66 0.738674 -0.0586712 0
M  V30 11258 H 1066.3 1.72163 -0.838578 0
M  V30 11259 H 1064.61 3.86431 0.646395 0
M  V30 11260 H 1066.3 4.00025 0.279425 0
M  V30 11261 H 1062.89 4.12928 -1.14842 0
M  V30 11262 H 1067.08 4.52095 -2.04753 0
M  V30 11263 H 1062.33 5.13328 -3.32122 0
M  V30 11264 H 1066.51 5.53861 -4.22151 0
M  V30 11265 H 1064.14 5.84234 -4.8639 0
M  V30 11266 N 1065.71 0.390394 1.52688 0
M  V30 11267 C 1066.96 -0.191729 2.01892 0
M  V30 11268 C 1067.29 -1.4637 1.27631 0
M  V30 11269 O 1066.56 -1.90809 0.377094 0
M  V30 11270 C 1066.85 -0.458535 3.57169 0
M  V30 11271 C 1066.7 0.828796 4.42098 0
M  V30 11272 C 1068.02 -1.2487 4.22014 0
M  V30 11273 H 1065.14 -0.0682091 0.733837 0
M  V30 11274 H 1067.78 0.520176 1.82741 0
M  V30 11275 H 1065.93 -1.06498 3.73618 0
M  V30 11276 H 1067.6 1.46562 4.37398 0
M  V30 11277 H 1065.85 1.44388 4.09066 0
M  V30 11278 H 1066.52 0.596746 5.48765 0
M  V30 11279 H 1068.99 -0.735452 4.09549 0
M  V30 11280 H 1067.87 -1.40412 5.30637 0
M  V30 11281 H 1068.13 -2.2642 3.79719 0
M  V30 11282 N 1067.19 -1.57141 0.120249 0
M  V30 11283 C 1068.14 -2.11936 -0.84067 0
M  V30 11284 C 1069.12 -1.04044 -1.22734 0
M  V30 11285 O 1070.31 -1.30275 -1.19822 0
M  V30 11286 C 1067.44 -2.72332 -2.09023 0
M  V30 11287 C 1066.53 -3.87306 -1.72786 0
M  V30 11288 N 1066.92 -4.94302 -1.07232 0
M  V30 11289 C 1065.22 -3.97513 -2.02236 0
M  V30 11290 C 1065.92 -5.7467 -0.901626 0
M  V30 11291 N 1064.9 -5.24535 -1.42702 0
M  V30 11292 H 1068.7 -2.92038 -0.330308 0
M  V30 11293 H 1066.21 -1.62192 -0.0821814 0
M  V30 11294 H 1068.21 -3.09932 -2.78833 0
M  V30 11295 H 1066.87 -1.93693 -2.60601 0
M  V30 11296 H 1067.88 -5.12641 -0.736158 0
M  V30 11297 H 1064.56 -3.29917 -2.55853 0
M  V30 11298 H 1065.95 -6.70785 -0.386974 0
M  V30 11299 N 1068.67 0.153526 -1.5685 0
M  V30 11300 C 1070.08 0.505939 -1.51368 0
M  V30 11301 C 1070.28 1.83721 -0.82757 0
M  V30 11302 O 1069.34 2.49385 -0.395364 0
M  V30 11303 C 1070.65 0.522269 -2.9613 0
M  V30 11304 C 1072.2 0.608238 -3.07033 0
M  V30 11305 C 1072.67 0.655292 -4.53288 0
M  V30 11306 N 1074.17 0.717695 -4.57606 0
M  V30 11307 C 1074.9 0.774977 -5.68139 0
M  V30 11308 N 1074.4 0.792003 -6.88258 0
M  V30 11309 N 1076.19 0.81536 -5.56155 0
M  V30 11310 H 1068.34 -0.71919 -1.99853 0
M  V30 11311 H 1070.6 -0.261466 -0.91123 0
M  V30 11312 H 1070.31 -0.387595 -3.49558 0
M  V30 11313 H 1070.18 1.3625 -3.51733 0
M  V30 11314 H 1072.57 1.50852 -2.53629 0
M  V30 11315 H 1072.65 -0.259014 -2.54485 0
M  V30 11316 H 1072.3 -0.240809 -5.07329 0
M  V30 11317 H 1072.23 1.53894 -5.03611 0
M  V30 11318 H 1074.72 0.7121 -3.7113 0
M  V30 11319 H 1075.03 0.837378 -7.6825 0
M  V30 11320 H 1073.37 0.759986 -6.90832 0
M  V30 11321 H 1076.57 0.799183 -4.61227 0
M  V30 11322 H 1076.74 0.856537 -6.42314 0
M  V30 11323 N 1070.14 1.51827 0.422667 0
M  V30 11324 C 1071.42 1.55772 1.18299 0
M  V30 11325 C 1071.8 0.330657 2.08494 0
M  V30 11326 O 1071.15 -0.683373 2.18042 0
M  V30 11327 C 1071.36 2.87941 1.97208 0
M  V30 11328 C 1072.71 3.4044 2.53744 0
M  V30 11329 O 1073.73 2.8959 2.07403 0
M  V30 11330 O 1072.59 4.29201 3.38303 0
M  V30 11331 H 1069.68 0.626889 0.539388 0
M  V30 11332 H 1072.23 1.64147 0.430545 0
M  V30 11333 H 1071 3.68702 1.31052 0
M  V30 11334 H 1070.63 2.82795 2.79486 0
M  V30 11335 N 1071.62 -0.679052 1.4222 0
M  V30 11336 C 1072.55 -1.80481 1.48152 0
M  V30 11337 C 1073.53 -1.66698 0.338502 0
M  V30 11338 O 1074.72 -1.86183 0.552228 0
M  V30 11339 C 1071.85 -3.18746 1.37908 0
M  V30 11340 C 1070.8 -3.47258 2.50192 0
M  V30 11341 C 1070.13 -4.85052 2.25008 0
M  V30 11342 C 1071.43 -3.44576 3.92511 0
M  V30 11343 H 1073.12 -1.75774 2.42371 0
M  V30 11344 H 1070.67 -0.844241 1.16656 0
M  V30 11345 H 1072.62 -3.97229 1.40666 0
M  V30 11346 H 1071.35 -3.24119 0.401806 0
M  V30 11347 H 1070 -2.71133 2.46744 0
M  V30 11348 H 1069.65 -4.8707 1.25584 0
M  V30 11349 H 1069.35 -5.05092 3.00259 0
M  V30 11350 H 1070.88 -5.65825 2.29508 0
M  V30 11351 H 1072.29 -4.13036 3.97585 0
M  V30 11352 H 1070.69 -3.76151 4.67579 0
M  V30 11353 H 1071.76 -2.4323 4.19484 0
M  V30 11354 N 1073.1 -1.28322 -0.914942 0
M  V30 11355 C 1074.06 -1.12169 -1.99877 0
M  V30 11356 C 1075.06 -0.0617252 -1.60681 0
M  V30 11357 O 1076.25 -0.307405 -1.71466 0
M  V30 11358 C 1073.39 -0.711959 -3.33383 0
M  V30 11359 H 1074.58 -2.08425 -2.15636 0
M  V30 11360 H 1072.13 -1.11291 -1.09745 0
M  V30 11361 H 1072.87 0.251418 -3.23324 0
M  V30 11362 H 1072.65 -1.47764 -3.63192 0
M  V30 11363 H 1074.14 -0.621558 -4.12948 0
M  V30 11364 N 1074.58 1.12322 -1.10551 0
M  V30 11365 C 1075.81 1.87679 -0.87087 0
M  V30 11366 C 1076.22 1.79711 0.578733 0
M  V30 11367 O 1075.58 1.17185 1.39907 0
M  V30 11368 C 1075.63 3.36846 -1.31213 0
M  V30 11369 O 1075.35 3.44626 -2.70489 0
M  V30 11370 C 1076.85 4.29138 -1.11156 0
M  V30 11371 H 1074.07 0.593788 -0.3125 0
M  V30 11372 H 1076.62 1.42116 -1.47048 0
M  V30 11373 H 1074.77 3.79948 -0.756169 0
M  V30 11374 H 1075.18 4.37441 -2.89389 0
M  V30 11375 H 1076.66 5.32082 -1.46944 0
M  V30 11376 H 1077.14 4.39171 -0.0502963 0
M  V30 11377 H 1077.74 3.91818 -1.65405 0
M  V30 11378 N 1076.06 0.894434 1.2976 0
M  V30 11379 C 1077.47 0.589778 1.48303 0
M  V30 11380 C 1077.67 -0.870085 1.81746 0
M  V30 11381 O 1076.73 -1.65065 1.91076 0
M  V30 11382 C 1078.04 1.51107 2.59975 0
M  V30 11383 C 1079.59 1.51571 2.73853 0
M  V30 11384 C 1080.06 2.42316 3.88648 0
M  V30 11385 N 1081.56 2.40333 3.95973 0
M  V30 11386 C 1082.29 3.07254 4.84131 0
M  V30 11387 N 1081.79 3.83435 5.77018 0
M  V30 11388 N 1083.58 2.96438 4.77578 0
M  V30 11389 H 1075.73 1.83871 1.06327 0
M  V30 11390 H 1077.99 0.78758 0.527657 0
M  V30 11391 H 1077.7 2.55097 2.42112 0
M  V30 11392 H 1077.57 1.22767 3.56662 0
M  V30 11393 H 1079.96 0.483277 2.91116 0
M  V30 11394 H 1080.04 1.83946 1.77757 0
M  V30 11395 H 1079.69 3.4565 3.72141 0
M  V30 11396 H 1079.62 2.07252 4.84101 0
M  V30 11397 H 1082.11 1.84979 3.29532 0
M  V30 11398 H 1082.42 4.31565 6.4107 0
M  V30 11399 H 1080.76 3.87542 5.7692 0
M  V30 11400 H 1083.96 2.36442 4.03996 0
M  V30 11401 H 1084.13 3.48867 5.46073 0
M  V30 11402 N 1077.53 -1.43282 0.656365 0
M  V30 11403 C 1078.48 -2.32556 -0.0452037 0
M  V30 11404 C 1079.48 -1.48789 -0.80982 0
M  V30 11405 O 1080.68 -1.64979 -0.719865 0
M  V30 11406 H 1077.06 -0.751258 -0.0334043 0
M  V30 11407 H 1079.03 -2.89448 0.725423 0
M  V30 11408 C 1077.78 -3.33138 -0.995706 0
M  V30 11409 H 1077.1 -3.97622 -0.416774 0
M  V30 11410 H 1078.54 -3.98231 -1.45562 0
M  V30 11411 C 1077 -2.63978 -2.09325 0
M  V30 11412 O 1077.53 -2.45769 -3.17743 0
M  V30 11413 N 1075.74 -2.23301 -1.8597 0
M  V30 11414 H 1075.28 -2.38312 -0.97802 0
M  V30 11415 H 1075.24 -1.77358 -2.59599 0
M  V30 11416 N 1079.01 -0.398486 -1.52479 0
M  V30 11417 C 1080.25 0.180412 -2.03602 0
M  V30 11418 C 1080.62 1.43276 -1.27812 0
M  V30 11419 O 1081.82 2.08941 -1.69107 0
M  V30 11420 C 1080.09 0.432744 -3.5477 0
M  V30 11421 S 1081.65 0.980612 -4.27703 0
M  V30 11422 H 1078.47 0.0499981 -0.70924 0
M  V30 11423 H 1081.07 -0.548952 -1.87635 0
M  V30 11424 H 1079.77 -0.48568 -4.07516 0
M  V30 11425 H 1079.3 1.19028 -3.74961 0
M  V30 11426 H 1081.32 2.26216 -4.41634 0
M  V30 11427 N 1080.49 1.57075 -0.12858 0
M  V30 11428 C 1081.42 2.18833 0.814519 0
M  V30 11429 C 1082.4 1.13114 1.2704 0
M  V30 11430 O 1083.59 1.41387 1.33129 0
M  V30 11431 C 1080.72 2.79535 2.06101 0
M  V30 11432 C 1079.67 3.9092 1.74257 0
M  V30 11433 C 1079 4.38473 3.06015 0
M  V30 11434 C 1080.3 5.1257 1.00345 0
M  V30 11435 H 1081.99 2.97895 0.299862 0
M  V30 11436 H 1079.54 1.4329 0.14279 0
M  V30 11437 H 1081.49 3.21401 2.72543 0
M  V30 11438 H 1080.21 1.97777 2.59907 0
M  V30 11439 H 1078.87 3.49645 1.102 0
M  V30 11440 H 1078.52 3.53561 3.57776 0
M  V30 11441 H 1078.22 5.13591 2.85479 0
M  V30 11442 H 1079.75 4.82997 3.7356 0
M  V30 11443 H 1081.16 5.51395 1.56959 0
M  V30 11444 H 1079.56 5.93333 0.898693 0
M  V30 11445 H 1080.63 4.84899 -0.0081335 0
M  V30 11446 N 1081.97 -0.145205 1.5693 0
M  V30 11447 C 1083.22 -0.858786 1.83719 0
M  V30 11448 C 1083.55 -1.80738 0.710452 0
M  V30 11449 O 1082.82 -1.92389 -0.285791 0
M  V30 11450 C 1083.11 -1.6317 3.2101 0
M  V30 11451 C 1082.96 -0.704472 4.44249 0
M  V30 11452 C 1084.28 -2.59377 3.55544 0
M  V30 11453 H 1081.4 -0.310757 0.66828 0
M  V30 11454 H 1084.04 -0.123918 1.89595 0
M  V30 11455 H 1082.19 -2.25816 3.16132 0
M  V30 11456 H 1083.86 -0.08887 4.61214 0
M  V30 11457 H 1082.1 -0.0141693 4.33798 0
M  V30 11458 H 1082.78 -1.28135 5.36922 0
M  V30 11459 H 1085.25 -2.06848 3.61044 0
M  V30 11460 H 1084.13 -3.10506 4.52634 0
M  V30 11461 H 1084.39 -3.40819 2.81594 0
M  V30 11462 N 1083.45 -1.52049 -0.414609 0
M  V30 11463 C 1084.7 -1.65511 -1.15977 0
M  V30 11464 C 1085.02 -0.384703 -1.91168 0
M  V30 11465 O 1084.29 0.600247 -1.86477 0
M  V30 11466 H 1082.87 -0.610039 -0.431116 0
M  V30 11467 H 1085.53 -1.8907 -0.473139 0
M  V30 11468 H 1084.62 -2.4936 -1.87686 0
M  V30 11469 N 1084.93 0.6715 -1.42579 0
M  V30 11470 C 1085.84 1.81435 -1.48723 0
M  V30 11471 C 1086.85 1.69895 -0.375716 0
M  V30 11472 O 1088.03 1.91388 -0.627115 0
M  V30 11473 C 1085.09 3.17599 -1.39038 0
M  V30 11474 C 1084.15 3.41071 -2.60709 0
M  V30 11475 C 1083.39 4.7074 -2.51476 0
M  V30 11476 O 1083.61 5.48868 -1.55243 0
M  V30 11477 O 1082.54 4.95528 -3.41666 0
M  V30 11478 H 1086.37 1.79206 -2.45191 0
M  V30 11479 H 1083.95 0.827666 -1.24379 0
M  V30 11480 H 1085.84 3.98847 -1.3601 0
M  V30 11481 H 1084.51 3.20458 -0.456966 0
M  V30 11482 H 1083.42 2.59659 -2.69311 0
M  V30 11483 H 1084.75 3.43045 -3.5296 0
M  V30 11484 N 1086.4 1.28806 0.908124 0
M  V30 11485 C 1087.35 1.13083 2.03261 0
M  V30 11486 C 1088.35 0.0486094 1.6933 0
M  V30 11487 O 1089.55 0.207794 1.78797 0
M  V30 11488 H 1085.93 0.349057 0.666081 0
M  V30 11489 H 1087.9 2.08304 2.13663 0
M  V30 11490 C 1086.65 0.815339 3.38005 0
M  V30 11491 H 1085.97 1.64007 3.64612 0
M  V30 11492 H 1087.41 0.745311 4.17398 0
M  V30 11493 C 1085.87 -0.48113 3.33447 0
M  V30 11494 O 1086.4 -1.50974 3.7225 0
M  V30 11495 N 1084.6 -0.483912 2.86543 0
M  V30 11496 H 1084.15 0.353593 2.55162 0
M  V30 11497 H 1084.11 -1.35138 2.83875 0
M  V30 11498 N 1087.88 -1.11734 1.11145 0
M  V30 11499 C 1088.81 -2.16847 0.710809 0
M  V30 11500 C 1089.79 -1.59966 -0.291494 0
M  V30 11501 O 1090.98 -1.87554 -0.188645 0
M  V30 11502 C 1088.1 -3.38663 0.0499744 0
M  V30 11503 C 1087.15 -4.14199 1.01693 0
M  V30 11504 S 1087.98 -4.7154 2.53793 0
M  V30 11505 C 1089.14 -5.96682 1.89001 0
M  V30 11506 H 1089.37 -2.50497 1.60121 0
M  V30 11507 H 1086.9 -1.23311 0.929182 0
M  V30 11508 H 1088.86 -4.09212 -0.324959 0
M  V30 11509 H 1087.52 -3.03279 -0.817335 0
M  V30 11510 H 1086.72 -5.01494 0.501933 0
M  V30 11511 H 1086.32 -3.49395 1.33414 0
M  V30 11512 H 1088.61 -6.6634 1.22462 0
M  V30 11513 H 1089.55 -6.52821 2.74282 0
M  V30 11514 H 1089.96 -5.48084 1.35145 0
M  V30 11515 N 1089.36 -0.901303 -1.29284 0
M  V30 11516 C 1090.61 -0.528826 -1.95784 0
M  V30 11517 C 1090.94 0.922833 -1.70873 0
M  V30 11518 O 1090.21 1.65448 -1.0226 0
M  V30 11519 C 1090.5 -0.823793 -3.50551 0
M  V30 11520 C 1090.35 -2.32727 -3.84913 0
M  V30 11521 C 1091.67 -0.311382 -4.38997 0
M  V30 11522 H 1088.79 -0.193604 -0.711116 0
M  V30 11523 H 1091.43 -1.12828 -1.52872 0
M  V30 11524 H 1089.58 -0.313612 -3.87232 0
M  V30 11525 H 1091.25 -2.90712 -3.58168 0
M  V30 11526 H 1089.49 -2.78735 -3.32399 0
M  V30 11527 H 1090.17 -2.48423 -4.9294 0
M  V30 11528 H 1092.64 -0.748265 -4.09317 0
M  V30 11529 H 1091.52 -0.546957 -5.46168 0
M  V30 11530 H 1091.78 0.787959 -4.35021 0
M  V30 11531 N 1090.84 1.42931 -0.663954 0
M  V30 11532 C 1092.08 2.01982 -0.182007 0
M  V30 11533 C 1092.42 1.52323 1.20463 0
M  V30 11534 O 1091.69 0.720834 1.80649 0
M  V30 11535 C 1091.97 3.59518 -0.204671 0
M  V30 11536 C 1091.83 4.19382 -1.62599 0
M  V30 11537 C 1093.15 4.37762 0.45308 0
M  V30 11538 H 1090.27 0.733892 -0.0676115 0
M  V30 11539 H 1092.91 1.70092 -0.84668 0
M  V30 11540 H 1091.06 3.86816 0.361295 0
M  V30 11541 H 1092.73 4.03076 -2.24337 0
M  V30 11542 H 1090.97 3.75623 -2.17001 0
M  V30 11543 H 1091.64 5.28496 -1.59362 0
M  V30 11544 H 1094.12 4.1609 -0.0285774 0
M  V30 11545 H 1093 5.47392 0.406538 0
M  V30 11546 H 1093.26 4.1482 1.52895 0
M  V30 11547 N 1092.32 0.406567 1.52266 0
M  V30 11548 C 1093.26 -0.420182 2.26943 0
M  V30 11549 C 1094.23 -1.04323 1.29251 0
M  V30 11550 O 1095.42 -1.06799 1.5811 0
M  V30 11551 C 1092.56 -1.5323 3.09216 0
M  V30 11552 C 1091.67 -0.930419 4.21862 0
M  V30 11553 C 1090.81 -2.01502 4.91498 0
M  V30 11554 C 1089.84 -1.38994 5.9611 0
M  V30 11555 N 1088.98 -2.41458 6.59274 0
M  V30 11556 H 1093.82 0.223066 2.97164 0
M  V30 11557 H 1091.36 0.121842 1.46595 0
M  V30 11558 H 1093.32 -2.18803 3.5522 0
M  V30 11559 H 1091.95 -2.14561 2.41171 0
M  V30 11560 H 1091 -0.163809 3.80047 0
M  V30 11561 H 1092.31 -0.433785 4.9691 0
M  V30 11562 H 1091.46 -2.74807 5.40894 0
M  V30 11563 H 1090.2 -2.5453 4.16012 0
M  V30 11564 H 1089.21 -0.642213 5.46036 0
M  V30 11565 H 1090.43 -0.867386 6.73538 0
M  V30 11566 H 1088.38 -2.93623 5.86619 0
M  V30 11567 H 1088.3 -1.96599 7.2999 0
M  V30 11568 H 1089.56 -3.14341 7.13309 0
M  V30 11569 N 1093.79 -1.57004 0.136909 0
M  V30 11570 C 1095.04 -1.94972 -0.51662 0
M  V30 11571 C 1095.36 -1.02367 -1.66674 0
M  V30 11572 O 1096.56 -1.29873 -2.38423 0
M  V30 11573 C 1095.02 -3.4657 -0.970435 0
M  V30 11574 C 1094.63 -4.47741 0.152204 0
M  V30 11575 C 1096.37 -3.93423 -1.59432 0
M  V30 11576 C 1094.28 -5.90537 -0.319315 0
M  V30 11577 H 1093.21 -0.727873 -0.196766 0
M  V30 11578 H 1095.86 -1.82181 0.219637 0
M  V30 11579 H 1094.24 -3.54657 -1.76165 0
M  V30 11580 H 1095.41 -4.5134 0.928925 0
M  V30 11581 H 1093.73 -4.10746 0.683867 0
M  V30 11582 H 1096.33 -4.97539 -1.95856 0
M  V30 11583 H 1096.67 -3.34404 -2.47951 0
M  V30 11584 H 1097.2 -3.8821 -0.868193 0
M  V30 11585 H 1093.94 -6.53352 0.530248 0
M  V30 11586 H 1093.46 -5.90321 -1.06213 0
M  V30 11587 H 1095.14 -6.42346 -0.774662 0
M  V30 11588 N 1095.27 0.136881 -1.57004 0
M  V30 11589 C 1096.24 1.15267 -1.98106 0
M  V30 11590 C 1097.24 1.35305 -0.868856 0
M  V30 11591 O 1098.43 1.32126 -1.13527 0
M  V30 11592 C 1095.56 2.51092 -2.30577 0
M  V30 11593 H 1096.75 0.799821 -2.89038 0
M  V30 11594 H 1094.3 0.380576 -1.51596 0
M  V30 11595 H 1095.04 2.9133 -1.42469 0
M  V30 11596 H 1094.82 2.37906 -3.11678 0
M  V30 11597 H 1096.31 3.24232 -2.63179 0
M  V30 11598 N 1096.75 1.52266 0.40654 0
M  V30 11599 C 1098.03 1.57018 1.1664 0
M  V30 11600 C 1098.41 0.352752 2.08132 0
M  V30 11601 O 1097.76 -0.660208 2.18754 0
M  V30 11602 C 1097.97 2.90016 1.94143 0
M  V30 11603 C 1099.31 3.43112 2.50119 0
M  V30 11604 O 1100.34 2.91773 2.0432 0
M  V30 11605 O 1099.2 4.32765 3.33731 0
M  V30 11606 H 1096.29 0.632574 0.532709 0
M  V30 11607 H 1098.84 1.64595 0.413111 0
M  V30 11608 H 1097.61 3.70071 1.27134 0
M  V30 11609 H 1097.23 2.85744 2.76471 0
M  V30 11610 N 1098.23 -0.663929 1.42933 0
M  V30 11611 C 1099.48 -1.42393 1.43981 0
M  V30 11612 C 1099.8 -1.94407 0.0601802 0
M  V30 11613 O 1099.06 -1.72019 -0.933172 0
M  V30 11614 C 1099.36 -2.62976 2.4203 0
M  V30 11615 C 1099.02 -2.29441 3.88159 0
M  V30 11616 C 1097.69 -2.20007 4.27961 0
M  V30 11617 C 1100.04 -2.02413 4.8029 0
M  V30 11618 C 1097.37 -1.81686 5.57859 0
M  V30 11619 C 1099.72 -1.65592 6.10542 0
M  V30 11620 C 1098.38 -1.54676 6.49332 0
M  V30 11621 H 1097.65 -0.521051 0.526865 0
M  V30 11622 H 1100.3 -0.756042 1.75944 0
M  V30 11623 H 1098.6 -3.34847 2.03433 0
M  V30 11624 H 1100.3 -3.21174 2.40101 0
M  V30 11625 H 1096.89 -2.3769 3.56653 0
M  V30 11626 H 1101.07 -2.08628 4.5032 0
M  V30 11627 H 1096.33 -1.71812 5.86763 0
M  V30 11628 H 1100.5 -1.43707 6.81411 0
M  V30 11629 H 1098.13 -1.24752 7.49894 0
M  V30 11630 N 1099.71 -1.29285 -0.901281 0
M  V30 11631 C 1100.95 -1.16934 -1.64836 0
M  V30 11632 C 1101.28 0.279826 -1.92982 0
M  V30 11633 O 1100.55 1.19179 -1.55478 0
M  V30 11634 H 1099.13 -0.429768 -0.61099 0
M  V30 11635 H 1101.79 -1.62189 -1.08077 0
M  V30 11636 H 1100.88 -1.71821 -2.60545 0
M  V30 11637 N 1101.18 1.11143 -1.11736 0
M  V30 11638 C 1102.11 2.19339 -0.800795 0
M  V30 11639 C 1103.1 1.68508 0.23221 0
M  V30 11640 O 1104.28 1.93967 0.0950063 0
M  V30 11641 C 1101.41 3.46424 -0.246579 0
M  V30 11642 C 1100.36 4.10487 -1.21181 0
M  V30 11643 C 1099.69 5.32183 -0.518158 0
M  V30 11644 C 1100.99 4.55052 -2.56368 0
M  V30 11645 H 1102.68 2.46077 -1.70548 0
M  V30 11646 H 1100.23 1.18271 -0.821454 0
M  V30 11647 H 1102.18 4.21398 -0.0128889 0
M  V30 11648 H 1100.91 3.19154 0.693415 0
M  V30 11649 H 1099.57 3.3751 -1.43118 0
M  V30 11650 H 1099.21 5.01187 0.426742 0
M  V30 11651 H 1098.91 5.75997 -1.16196 0
M  V30 11652 H 1100.44 6.09895 -0.293333 0
M  V30 11653 H 1101.85 5.21335 -2.38501 0
M  V30 11654 H 1100.25 5.0969 -3.16758 0
M  V30 11655 H 1101.32 3.68343 -3.1536 0
M  V30 11656 N 1102.66 0.908147 1.28804 0
M  V30 11657 C 1103.89 0.553431 1.9988 0
M  V30 11658 C 1104.31 -0.856714 1.67458 0
M  V30 11659 O 1103.67 -1.57163 0.903849 0
M  V30 11660 C 1103.72 0.762688 3.52442 0
M  V30 11661 O 1102.82 -0.180924 4.12003 0
M  V30 11662 H 1102.16 0.215237 0.628147 0
M  V30 11663 H 1104.69 1.22205 1.64095 0
M  V30 11664 H 1104.7 0.670612 4.02451 0
M  V30 11665 H 1103.38 1.79071 3.75375 0
M  V30 11666 H 1101.96 -0.0405897 3.72878 0
M  V30 11667 N 1104.14 -1.42577 0.671525 0
M  V30 11668 C 1105.56 -1.5592 0.340769 0
M  V30 11669 C 1105.76 -1.65179 -1.15405 0
M  V30 11670 O 1104.81 -1.61691 -1.93939 0
M  V30 11671 C 1106.13 -2.81087 1.06821 0
M  V30 11672 C 1107.67 -2.94855 1.05022 0
M  V30 11673 C 1108.15 -4.22878 1.75892 0
M  V30 11674 N 1109.64 -4.29783 1.72744 0
M  V30 11675 C 1110.37 -5.2765 2.24439 0
M  V30 11676 N 1109.87 -6.31689 2.84501 0
M  V30 11677 N 1111.66 -5.19426 2.14832 0
M  V30 11678 H 1103.81 -1.34811 1.64133 0
M  V30 11679 H 1106.08 -0.648704 0.691294 0
M  V30 11680 H 1105.78 -2.80371 2.12332 0
M  V30 11681 H 1105.66 -3.71879 0.631356 0
M  V30 11682 H 1108.04 -2.951 0.00345633 0
M  V30 11683 H 1108.13 -2.05303 1.52592 0
M  V30 11684 H 1107.77 -4.23394 2.80535 0
M  V30 11685 H 1107.7 -5.1136 1.25773 0
M  V30 11686 H 1110.19 -3.55225 1.28932 0
M  V30 11687 H 1110.5 -7.02715 3.21575 0
M  V30 11688 H 1108.85 -6.3226 2.88569 0
M  V30 11689 H 1112.04 -4.37067 1.676 0
M  V30 11690 H 1112.21 -5.95535 2.55426 0
M  V30 11691 N 1105.62 -0.414636 -1.52048 0
M  V30 11692 C 1106.57 0.422766 -2.28726 0
M  V30 11693 C 1107.56 1.04099 -1.3364 0
M  V30 11694 O 1108.77 0.978559 -1.51077 0
M  V30 11695 H 1105.14 0.155123 -0.735827 0
M  V30 11696 H 1107.11 -0.245091 -2.97392 0
M  V30 11697 C 1105.86 1.52418 -3.12513 0
M  V30 11698 H 1105.18 1.05781 -3.85552 0
M  V30 11699 H 1106.62 2.08382 -3.6926 0
M  V30 11700 C 1105.08 2.49465 -2.26426 0
M  V30 11701 O 1105.61 3.53479 -1.90829 0
M  V30 11702 N 1103.82 2.19806 -1.90088 0
M  V30 11703 H 1103.37 1.35253 -2.19236 0
M  V30 11704 H 1103.32 2.84984 -1.32783 0
M  V30 11705 N 1107.1 1.56929 -0.145233 0
M  V30 11706 C 1108.35 1.95243 0.506273 0
M  V30 11707 C 1108.66 1.0325 1.66129 0
M  V30 11708 O 1109.86 1.31135 2.37731 0
M  V30 11709 C 1108.32 3.47079 0.952042 0
M  V30 11710 C 1107.93 4.47654 -0.175947 0
M  V30 11711 C 1109.67 3.94263 1.57344 0
M  V30 11712 C 1107.58 5.90698 0.287993 0
M  V30 11713 H 1106.51 0.728906 0.192903 0
M  V30 11714 H 1109.16 1.82062 -0.229295 0
M  V30 11715 H 1107.54 3.55587 1.74282 0
M  V30 11716 H 1108.72 4.50841 -0.952848 0
M  V30 11717 H 1107.03 4.10377 -0.70564 0
M  V30 11718 H 1109.63 4.9857 1.93214 0
M  V30 11719 H 1109.97 3.35714 2.46174 0
M  V30 11720 H 1110.5 3.88665 0.847593 0
M  V30 11721 H 1107.24 6.53061 -0.564889 0
M  V30 11722 H 1106.76 5.90876 1.03081 0
M  V30 11723 H 1108.44 6.42747 0.740586 0
M  V30 11724 N 1108.58 -0.128553 1.57075 0
M  V30 11725 C 1109.81 -0.851214 1.8825 0
M  V30 11726 C 1110.21 -1.74402 0.733531 0
M  V30 11727 O 1109.56 -1.81149 -0.305108 0
M  V30 11728 C 1109.62 -1.74451 3.14336 0
M  V30 11729 C 1109.28 -1.02699 4.45311 0
M  V30 11730 C 1110.28 -0.37224 5.18566 0
M  V30 11731 C 1107.96 -1.01101 4.9202 0
M  V30 11732 C 1109.96 0.2889 6.36745 0
M  V30 11733 C 1107.65 -0.346063 6.10119 0
M  V30 11734 C 1108.64 0.302744 6.82329 0
M  V30 11735 O 1108.33 0.9571 7.98182 0
M  V30 11736 H 1108.06 -0.250529 0.627863 0
M  V30 11737 H 1110.62 -0.120418 2.05047 0
M  V30 11738 H 1108.85 -2.51671 2.93596 0
M  V30 11739 H 1110.54 -2.34075 3.31608 0
M  V30 11740 H 1111.3 -0.376271 4.83538 0
M  V30 11741 H 1107.18 -1.50543 4.35727 0
M  V30 11742 H 1110.73 0.795901 6.93045 0
M  V30 11743 H 1106.62 -0.339762 6.44605 0
M  V30 11744 H 1107.39 0.860616 8.13963 0
M  V30 11745 N 1110.05 -1.5248 -0.398459 0
M  V30 11746 C 1111.28 -1.71221 -1.17039 0
M  V30 11747 C 1111.7 -0.425515 -1.83224 0
M  V30 11748 O 1111.06 0.617938 -1.70444 0
M  V30 11749 C 1111.11 -2.8562 -2.20121 0
M  V30 11750 O 1110.21 -2.51934 -3.26501 0
M  V30 11751 H 1109.55 -0.569654 -0.34116 0
M  V30 11752 H 1112.08 -1.99231 -0.465652 0
M  V30 11753 H 1112.09 -3.10842 -2.64275 0
M  V30 11754 H 1110.77 -3.78969 -1.71334 0
M  V30 11755 H 1109.35 -2.3742 -2.87552 0
M  V30 11756 N 1111.53 0.65634 -1.43283 0
M  V30 11757 C 1112.49 1.75117 -1.47874 0
M  V30 11758 C 1113.49 1.56629 -0.363846 0
M  V30 11759 O 1114.68 1.62584 -0.625464 0
M  V30 11760 C 1111.82 3.13957 -1.32831 0
M  V30 11761 H 1113.01 1.72429 -2.45374 0
M  V30 11762 H 1110.56 0.867704 -1.30002 0
M  V30 11763 H 1111.3 3.22259 -0.36326 0
M  V30 11764 H 1111.08 3.28781 -2.13649 0
M  V30 11765 H 1112.57 3.93799 -1.38969 0
M  V30 11766 N 1113.01 1.29761 0.894412 0
M  V30 11767 C 1114.29 1.08711 1.62608 0
M  V30 11768 C 1114.67 -0.366907 2.07887 0
M  V30 11769 O 1114.01 -1.35669 1.83865 0
M  V30 11770 C 1114.22 2.07947 2.80284 0
M  V30 11771 C 1115.57 2.39153 3.50843 0
M  V30 11772 O 1116.6 2.06183 2.9046 0
M  V30 11773 O 1115.46 2.95509 4.59713 0
M  V30 11774 H 1112.55 0.416866 0.714249 0
M  V30 11775 H 1115.1 1.41153 0.942015 0
M  V30 11776 H 1113.87 3.05859 2.44061 0
M  V30 11777 H 1113.49 1.76266 3.56393 0
M  V30 11778 N 1114.49 -1.10549 1.12324 0
M  V30 11779 C 1115.72 -1.86 0.899312 0
M  V30 11780 C 1116.13 -1.80881 -0.554854 0
M  V30 11781 O 1115.47 -1.19485 -1.39531 0
M  V30 11782 C 1115.53 -3.35384 1.29452 0
M  V30 11783 C 1115.19 -3.64263 2.75974 0
M  V30 11784 C 1116.19 -3.60962 3.74169 0
M  V30 11785 C 1113.88 -3.92976 3.1285 0
M  V30 11786 C 1115.87 -3.85966 5.07256 0
M  V30 11787 C 1113.56 -4.17637 4.4612 0
M  V30 11788 C 1114.56 -4.14122 5.43132 0
M  V30 11789 O 1114.24 -4.38156 6.73999 0
M  V30 11790 H 1113.98 -0.594743 0.321337 0
M  V30 11791 H 1116.53 -1.40674 1.49667 0
M  V30 11792 H 1114.76 -3.81361 0.640358 0
M  V30 11793 H 1116.45 -3.9222 1.04491 0
M  V30 11794 H 1117.21 -3.38819 3.47025 0
M  V30 11795 H 1113.09 -3.94843 2.3795 0
M  V30 11796 H 1116.64 -3.83138 5.82967 0
M  V30 11797 H 1112.53 -4.39258 4.72993 0
M  V30 11798 H 1113.3 -4.55677 6.79927 0
M  V30 11799 N 1115.97 -0.914965 -1.28321 0
M  V30 11800 C 1117.2 -0.563835 -1.98757 0
M  V30 11801 C 1117.6 0.859528 -1.68549 0
M  V30 11802 O 1116.95 1.58105 -0.935336 0
M  V30 11803 C 1117.01 -0.694539 -3.52727 0
M  V30 11804 C 1116.67 -2.08767 -4.06528 0
M  V30 11805 C 1117.67 -3.06052 -4.20272 0
M  V30 11806 C 1115.35 -2.40118 -4.4119 0
M  V30 11807 C 1117.35 -4.32803 -4.67932 0
M  V30 11808 C 1115.04 -3.67108 -4.88544 0
M  V30 11809 C 1116.03 -4.63265 -5.01871 0
M  V30 11810 O 1115.72 -5.87997 -5.48192 0
M  V30 11811 H 1115.45 -0.213557 -0.641381 0
M  V30 11812 H 1118.01 -1.23062 -1.64453 0
M  V30 11813 H 1116.24 0.0293186 -3.86689 0
M  V30 11814 H 1117.93 -0.350335 -4.04385 0
M  V30 11815 H 1118.69 -2.8315 -3.93765 0
M  V30 11816 H 1114.57 -1.66025 -4.30066 0
M  V30 11817 H 1118.12 -5.07861 -4.78249 0
M  V30 11818 H 1114.01 -3.89834 -5.14489 0
M  V30 11819 H 1114.78 -5.90804 -5.66474 0
M  V30 11820 N 1117.44 1.42219 -0.679077 0
M  V30 11821 C 1118.39 2.308 -0.00340316 0
M  V30 11822 C 1119.36 1.462 0.788334 0
M  V30 11823 O 1120.55 1.75023 0.759716 0
M  V30 11824 C 1117.69 3.32084 0.938854 0
M  V30 11825 C 1116.8 4.31772 0.140485 0
M  V30 11826 C 1115.93 5.20128 1.07888 0
M  V30 11827 C 1114.97 6.11493 0.27245 0
M  V30 11828 N 1114.11 6.92388 1.16378 0
M  V30 11829 H 1118.95 2.88024 -0.764587 0
M  V30 11830 H 1116.49 1.41869 -0.38878 0
M  V30 11831 H 1118.44 3.89339 1.49903 0
M  V30 11832 H 1117.07 2.76448 1.66662 0
M  V30 11833 H 1116.13 3.76599 -0.536376 0
M  V30 11834 H 1117.44 4.96432 -0.485433 0
M  V30 11835 H 1116.59 5.82137 1.70884 0
M  V30 11836 H 1115.33 4.55655 1.73868 0
M  V30 11837 H 1114.34 5.48549 -0.370693 0
M  V30 11838 H 1115.56 6.78017 -0.383315 0
M  V30 11839 H 1113.51 6.30538 1.8099 0
M  V30 11840 H 1113.42 7.5367 0.593043 0
M  V30 11841 H 1114.69 7.58879 1.78107 0
M  V30 11842 N 1118.92 0.422693 1.51826 0
M  V30 11843 C 1119.88 -0.384307 2.25955 0
M  V30 11844 C 1120.88 -0.962184 1.28836 0
M  V30 11845 O 1122.07 -0.838931 1.52668 0
M  V30 11846 C 1119.21 -1.54228 3.04018 0
M  V30 11847 H 1120.4 0.265157 2.98726 0
M  V30 11848 H 1117.95 0.175515 1.55311 0
M  V30 11849 H 1118.69 -2.22822 2.35629 0
M  V30 11850 H 1118.47 -1.13425 3.75336 0
M  V30 11851 H 1119.96 -2.1128 3.60209 0
M  V30 11852 N 1120.4 -1.5685 0.153553 0
M  V30 11853 C 1121.35 -2.18385 -0.800667 0
M  V30 11854 C 1122.34 -1.14272 -1.25053 0
M  V30 11855 O 1123.55 -1.32509 -1.21825 0
M  V30 11856 H 1119.92 -0.699352 -0.276425 0
M  V30 11857 H 1121.89 -2.97287 -0.257535 0
M  V30 11858 C 1120.64 -2.82497 -2.02708 0
M  V30 11859 H 1119.97 -3.62328 -1.68992 0
M  V30 11860 H 1121.41 -3.29047 -2.67403 0
M  V30 11861 C 1119.86 -1.81343 -2.8393 0
M  V30 11862 O 1120.39 -1.28793 -3.80493 0
M  V30 11863 N 1118.6 -1.50499 -2.48593 0
M  V30 11864 H 1118.15 -1.93425 -1.70131 0
M  V30 11865 H 1118.11 -0.830672 -3.03228 0
M  V30 11866 N 1121.88 0.120221 -1.57141 0
M  V30 11867 C 1122.79 1.16641 -2.03549 0
M  V30 11868 C 1123.8 1.45407 -0.955656 0
M  V30 11869 O 1124.98 1.56547 -1.26708 0
M  V30 11870 C 1122.04 2.4734 -2.42948 0
M  V30 11871 C 1121.11 2.25982 -3.65008 0
M  V30 11872 C 1120.34 3.50449 -4.02518 0
M  V30 11873 O 1120.56 4.57706 -3.40384 0
M  V30 11874 O 1119.5 3.41524 -4.95626 0
M  V30 11875 H 1123.32 0.802323 -2.9291 0
M  V30 11876 H 1120.91 0.330927 -1.45689 0
M  V30 11877 H 1122.79 3.24348 -2.69029 0
M  V30 11878 H 1121.46 2.83225 -1.56733 0
M  V30 11879 H 1120.37 1.46837 -3.44078 0
M  V30 11880 H 1121.7 1.95002 -4.51924 0
M  V30 11881 N 1123.36 1.52689 0.390367 0
M  V30 11882 C 1124.3 1.78007 1.4972 0
M  V30 11883 C 1125.3 0.647948 1.56518 0
M  V30 11884 O 1126.5 0.830398 1.59701 0
M  V30 11885 H 1122.88 0.56322 0.498284 0
M  V30 11886 H 1124.85 2.70698 1.25559 0
M  V30 11887 C 1123.6 1.96469 2.86872 0
M  V30 11888 H 1122.92 2.83012 2.82391 0
M  V30 11889 H 1124.36 2.18174 3.6356 0
M  V30 11890 C 1122.82 0.736847 3.28743 0
M  V30 11891 O 1123.35 -0.0863743 4.01607 0
M  V30 11892 N 1121.56 0.56735 2.85008 0
M  V30 11893 H 1121.1 1.23838 2.2588 0
M  V30 11894 H 1121.06 -0.252831 3.13382 0
M  V30 11895 N 1124.83 -0.648732 1.43629 0
M  V30 11896 C 1126.11 -1.4062 1.35961 0
M  V30 11897 C 1126.49 -2.11098 0.00961023 0
M  V30 11898 O 1125.84 -2.05107 -1.00714 0
M  V30 11899 C 1126.05 -2.38719 2.54586 0
M  V30 11900 C 1127.4 -3.02584 2.97873 0
M  V30 11901 O 1128.42 -2.49046 2.54665 0
M  V30 11902 O 1127.28 -3.99662 3.72736 0
M  V30 11903 H 1124.37 -0.628483 0.53753 0
M  V30 11904 H 1126.92 -0.675263 1.55687 0
M  V30 11905 H 1125.69 -1.85619 3.44472 0
M  V30 11906 H 1125.32 -3.19257 2.36983 0
M  V30 11907 N 1126.31 -1.30234 -0.887518 0
M  V30 11908 C 1127.28 -1.16384 -1.97452 0
M  V30 11909 C 1128.28 -0.0957942 -1.60514 0
M  V30 11910 O 1129.47 -0.343706 -1.70776 0
M  V30 11911 C 1126.6 -0.782514 -3.31797 0
M  V30 11912 H 1127.79 -2.12952 -2.11167 0
M  V30 11913 H 1125.34 -1.13594 -1.07359 0
M  V30 11914 H 1126.08 0.18278 -3.23785 0
M  V30 11915 H 1125.86 -1.55434 -3.59976 0
M  V30 11916 H 1127.35 -0.709011 -4.11537 0
M  V30 11917 N 1127.79 1.09952 -1.12909 0
M  V30 11918 C 1129.04 1.81386 -0.882163 0
M  V30 11919 C 1129.35 1.86376 0.593592 0
M  V30 11920 O 1130.56 2.54064 0.957275 0
M  V30 11921 C 1129.01 3.25824 -1.52861 0
M  V30 11922 C 1128.62 3.29117 -3.0395 0
M  V30 11923 C 1130.37 4.02051 -1.36216 0
M  V30 11924 C 1128.27 4.68047 -3.61505 0
M  V30 11925 H 1127.2 0.679701 -0.326378 0
M  V30 11926 H 1129.85 1.23614 -1.35616 0
M  V30 11927 H 1128.24 3.83624 -0.982271 0
M  V30 11928 H 1129.41 2.81114 -3.65119 0
M  V30 11929 H 1127.73 2.66379 -3.20049 0
M  V30 11930 H 1130.32 5.04683 -1.76633 0
M  V30 11931 H 1130.67 4.15171 -0.306391 0
M  V30 11932 H 1131.2 3.5068 -1.87799 0
M  V30 11933 H 1127.94 4.60128 -4.66865 0
M  V30 11934 H 1127.46 5.16397 -3.05114 0
M  V30 11935 H 1129.14 5.37018 -3.6086 0
M  V30 11936 N 1129.27 0.921757 1.27833 0
M  V30 11937 C 1130.68 0.604496 1.76643 0
M  V30 11938 C 1131.03 -0.880294 1.75343 0
M  V30 11939 O 1130.16 -1.68875 1.35315 0
M  V30 11940 C 1130.75 1.09055 3.20768 0
M  V30 11941 C 1129.31 0.824066 3.67268 0
M  V30 11942 C 1128.46 1.25269 2.47392 0
M  V30 11943 H 1131.41 1.10217 1.14184 0
M  V30 11944 H 1131.43 0.435558 3.77999 0
M  V30 11945 H 1130.94 2.17122 3.21682 0
M  V30 11946 H 1129.04 -0.243055 3.71806 0
M  V30 11947 H 1129.15 1.43743 4.57028 0
M  V30 11948 H 1127.52 0.671313 2.45694 0
M  V30 11949 H 1128.3 2.34188 2.5102 0
M  V30 11950 N 1130.75 -1.41857 0.686609 0
M  V30 11951 C 1132 -2.00594 0.21095 0
M  V30 11952 C 1132.31 -1.54974 -1.19341 0
M  V30 11953 O 1133.51 -2.0621 -1.76607 0
M  V30 11954 C 1131.97 -3.58418 0.326261 0
M  V30 11955 C 1131.58 -4.13022 1.73542 0
M  V30 11956 C 1133.32 -4.24404 -0.0900816 0
M  V30 11957 C 1131.23 -5.6325 1.80287 0
M  V30 11958 H 1130.16 -0.75025 0.0751077 0
M  V30 11959 H 1132.81 -1.62442 0.853508 0
M  V30 11960 H 1131.19 -3.9413 -0.384394 0
M  V30 11961 H 1132.37 -3.88747 2.47411 0
M  V30 11962 H 1130.68 -3.5953 2.10065 0
M  V30 11963 H 1133.28 -5.34666 -0.060004 0
M  V30 11964 H 1133.62 -4.00745 -1.12733 0
M  V30 11965 H 1134.15 -3.93695 0.569979 0
M  V30 11966 H 1130.89 -5.91724 2.82034 0
M  V30 11967 H 1130.41 -5.89479 1.1079 0
M  V30 11968 H 1132.09 -6.2787 1.56167 0
M  V30 11969 N 1132.22 -0.430739 -1.51599 0
M  V30 11970 C 1133.64 -0.0826902 -1.59386 0
M  V30 11971 C 1133.84 1.40729 -1.44214 0
M  V30 11972 O 1132.9 2.1765 -1.28002 0
M  V30 11973 C 1134.21 -0.59691 -2.94716 0
M  V30 11974 C 1135.76 -0.556772 -3.08008 0
M  V30 11975 C 1136.23 -1.04786 -4.45852 0
M  V30 11976 N 1137.72 -1.00557 -4.52153 0
M  V30 11977 C 1138.46 -1.35649 -5.57124 0
M  V30 11978 N 1137.95 -1.77994 -6.69545 0
M  V30 11979 N 1139.75 -1.27508 -5.47447 0
M  V30 11980 H 1131.9 -1.40027 -1.59707 0
M  V30 11981 H 1134.16 -0.576606 -0.752482 0
M  V30 11982 H 1133.87 -1.63914 -3.11167 0
M  V30 11983 H 1133.74 -0.0182342 -3.77196 0
M  V30 11984 H 1136.13 0.476457 -2.91228 0
M  V30 11985 H 1136.21 -1.17177 -2.27383 0
M  V30 11986 H 1135.85 -2.07952 -4.63377 0
M  V30 11987 H 1135.78 -0.409461 -5.25006 0
M  V30 11988 H 1138.27 -0.694518 -3.71463 0
M  V30 11989 H 1138.59 -2.03026 -7.45654 0
M  V30 11990 H 1136.93 -1.81916 -6.70769 0
M  V30 11991 H 1140.12 -0.942969 -4.58504 0
M  V30 11992 H 1140.3 -1.55185 -6.29143 0
M  V30 11993 N 1133.7 1.56767 -0.161869 0
M  V30 11994 C 1134.95 1.97661 0.479751 0
M  V30 11995 C 1135.3 1.04583 1.61493 0
M  V30 11996 O 1134.6 0.0836772 1.91417 0
M  V30 11997 C 1134.79 3.42567 1.01894 0
M  V30 11998 C 1134.62 4.49657 -0.0624633 0
M  V30 11999 C 1133.39 5.0273 -0.508935 0
M  V30 12000 C 1135.59 5.07069 -0.85941 0
M  V30 12001 N 1133.57 5.93442 -1.57163 0
M  V30 12002 C 1134.94 5.94131 -1.77225 0
M  V30 12003 C 1137 4.89596 -0.905543 0
M  V30 12004 C 1135.7 6.6559 -2.72731 0
M  V30 12005 C 1137.72 5.61769 -1.8485 0
M  V30 12006 C 1137.09 6.48551 -2.74884 0
M  V30 12007 H 1133.19 0.76864 0.14393 0
M  V30 12008 H 1135.77 1.92957 -0.259906 0
M  V30 12009 H 1133.94 3.47835 1.72815 0
M  V30 12010 H 1135.67 3.70493 1.62841 0
M  V30 12011 H 1132.43 4.73476 -0.1084 0
M  V30 12012 H 1132.85 6.43502 -2.10319 0
M  V30 12013 H 1137.49 4.22209 -0.223516 0
M  V30 12014 H 1135.21 7.32197 -3.41927 0
M  V30 12015 H 1138.8 5.50239 -1.89018 0
M  V30 12016 H 1137.68 7.03417 -3.46661 0
M  V30 12017 N 1135.18 -0.111886 1.57202 0
M  V30 12018 C 1136.11 -1.16749 1.96074 0
M  V30 12019 C 1137.09 -1.39735 0.831438 0
M  V30 12020 O 1138.28 -1.53772 1.09025 0
M  V30 12021 C 1135.4 -2.51996 2.26308 0
M  V30 12022 C 1134.45 -2.45394 3.48832 0
M  V30 12023 S 1135.28 -1.8867 5.01163 0
M  V30 12024 C 1136.44 -3.25576 5.34557 0
M  V30 12025 H 1136.67 -0.836033 2.85303 0
M  V30 12026 H 1134.2 -0.318922 1.5107 0
M  V30 12027 H 1136.16 -3.29813 2.44405 0
M  V30 12028 H 1134.82 -2.82317 1.3768 0
M  V30 12029 H 1134.02 -3.45038 3.67376 0
M  V30 12030 H 1133.62 -1.75702 3.30159 0
M  V30 12031 H 1135.91 -4.21807 5.30174 0
M  V30 12032 H 1136.85 -3.11853 6.35731 0
M  V30 12033 H 1137.26 -3.24333 4.62026 0
M  V30 12034 N 1136.66 -1.52894 -0.382264 0
M  V30 12035 C 1138.07 -1.60135 -0.959887 0
M  V30 12036 C 1138.42 -0.458363 -1.90771 0
M  V30 12037 O 1137.55 0.417614 -2.12332 0
M  V30 12038 C 1138.14 -2.90243 -1.74769 0
M  V30 12039 C 1136.7 -2.99874 -2.27491 0
M  V30 12040 C 1135.85 -2.55302 -1.0824 0
M  V30 12041 H 1138.8 -1.57875 -0.161589 0
M  V30 12042 H 1138.82 -2.77108 -2.60751 0
M  V30 12043 H 1138.33 -3.73412 -1.0576 0
M  V30 12044 H 1136.43 -2.21258 -2.99793 0
M  V30 12045 H 1136.54 -4.04643 -2.56516 0
M  V30 12046 H 1134.91 -2.09781 -1.44444 0
M  V30 12047 H 1135.69 -3.40872 -0.407553 0
M  V30 12048 N 1138.14 0.641106 -1.43971 0
M  V30 12049 C 1139.55 1.22254 -1.41106 0
M  V30 12050 C 1139.9 1.95825 -0.121284 0
M  V30 12051 O 1139.02 2.01901 0.77879 0
M  V30 12052 C 1139.62 2.22364 -2.55617 0
M  V30 12053 C 1138.18 2.75957 -2.55978 0
M  V30 12054 C 1137.33 1.50792 -2.32717 0
M  V30 12055 H 1140.28 0.432381 -1.52696 0
M  V30 12056 H 1140.3 3.04775 -2.27799 0
M  V30 12057 H 1139.81 1.68789 -3.49474 0
M  V30 12058 H 1137.91 3.33562 -1.66034 0
M  V30 12059 H 1138.02 3.22676 -3.54142 0
M  V30 12060 H 1136.39 1.7857 -1.81617 0
M  V30 12061 H 1137.17 0.991343 -3.28675 0
M  V30 12062 N 1139.62 1.30703 0.880598 0
M  V30 12063 C 1140.53 1.19389 2.01949 0
M  V30 12064 C 1141.54 0.112868 1.73634 0
M  V30 12065 O 1142.72 0.328643 1.98701 0
M  V30 12066 C 1139.78 0.891004 3.35055 0
M  V30 12067 C 1138.84 2.05784 3.76764 0
M  V30 12068 C 1138.08 1.76931 5.03519 0
M  V30 12069 O 1138.3 0.699326 5.66097 0
M  V30 12070 O 1137.23 2.623 5.4174 0
M  V30 12071 H 1141.06 2.15073 2.14423 0
M  V30 12072 H 1138.64 1.10339 1.00726 0
M  V30 12073 H 1140.53 0.737476 4.14897 0
M  V30 12074 H 1139.2 -0.0358909 3.2368 0
M  V30 12075 H 1138.11 2.26672 2.97608 0
M  V30 12076 H 1139.44 2.96661 3.9275 0
M  V30 12077 N 1141.09 -1.09351 1.1349 0
M  V30 12078 C 1142.32 -1.85844 0.92069 0
M  V30 12079 C 1142.74 -1.80616 -0.525303 0
M  V30 12080 O 1142.1 -1.1842 -1.37282 0
M  V30 12081 C 1142.15 -3.31716 1.4141 0
M  V30 12082 O 1141.25 -4.08014 0.599838 0
M  V30 12083 H 1140.59 -0.576242 0.32991 0
M  V30 12084 H 1143.12 -1.38084 1.50976 0
M  V30 12085 H 1143.13 -3.82564 1.41805 0
M  V30 12086 H 1141.81 -3.34837 2.46692 0
M  V30 12087 H 1140.39 -3.66944 0.663816 0
M  V30 12088 N 1142.57 -0.928524 -1.27343 0
M  V30 12089 C 1143.82 -0.565207 -1.93619 0
M  V30 12090 C 1144.13 0.897988 -1.73769 0
M  V30 12091 O 1145.34 1.37012 -2.34393 0
M  V30 12092 C 1143.8 -0.960052 -3.46859 0
M  V30 12093 C 1143.4 -2.44399 -3.75464 0
M  V30 12094 C 1145.15 -0.668026 -4.19211 0
M  V30 12095 C 1143.05 -2.77819 -5.22083 0
M  V30 12096 H 1141.98 -0.207665 -0.724839 0
M  V30 12097 H 1144.64 -1.12945 -1.44623 0
M  V30 12098 H 1143.02 -0.324454 -3.94669 0
M  V30 12099 H 1144.19 -3.12756 -3.38408 0
M  V30 12100 H 1142.51 -2.70799 -3.16317 0
M  V30 12101 H 1145.1 -0.894207 -5.2717 0
M  V30 12102 H 1145.45 0.394788 -4.14424 0
M  V30 12103 H 1145.98 -1.26276 -3.77226 0
M  V30 12104 H 1142.72 -3.83013 -5.3196 0
M  V30 12105 H 1142.24 -2.14112 -5.60282 0
M  V30 12106 H 1143.92 -2.65607 -5.89968 0
M  V30 12107 N 1144.05 1.41491 -0.694123 0
M  V30 12108 C 1145.3 2.01252 -0.224477 0
M  V30 12109 C 1145.62 1.54965 1.17541 0
M  V30 12110 O 1144.88 0.751041 1.80715 0
M  V30 12111 C 1145.18 3.56666 -0.228869 0
M  V30 12112 C 1144.84 4.22458 -1.57608 0
M  V30 12113 C 1143.51 4.40144 -1.94491 0
M  V30 12114 C 1145.86 4.5936 -2.46247 0
M  V30 12115 C 1143.19 4.92009 -3.196 0
M  V30 12116 C 1145.54 5.12615 -3.70687 0
M  V30 12117 C 1144.2 5.28512 -4.07715 0
M  V30 12118 H 1143.47 0.736433 -0.0821419 0
M  V30 12119 H 1146.12 1.69408 -0.892926 0
M  V30 12120 H 1144.42 3.88292 0.523128 0
M  V30 12121 H 1146.12 4.00712 0.152019 0
M  V30 12122 H 1142.71 4.09065 -1.27921 0
M  V30 12123 H 1146.9 4.45352 -2.19032 0
M  V30 12124 H 1142.15 5.02502 -3.48285 0
M  V30 12125 H 1146.33 5.4015 -4.39558 0
M  V30 12126 H 1143.95 5.68464 -5.0473 0
M  V30 12127 N 1145.53 0.438773 1.51369 0
M  V30 12128 C 1146.76 -0.125665 2.06217 0
M  V30 12129 C 1147.17 -1.36887 1.30609 0
M  V30 12130 O 1146.51 -1.80149 0.359433 0
M  V30 12131 C 1146.57 -0.511846 3.55838 0
M  V30 12132 C 1146.23 0.624755 4.52709 0
M  V30 12133 C 1147.23 1.49731 4.97872 0
M  V30 12134 C 1144.92 0.805895 4.95793 0
M  V30 12135 C 1146.91 2.53569 5.84792 0
M  V30 12136 C 1144.6 1.84755 5.82502 0
M  V30 12137 C 1145.6 2.71083 6.269 0
M  V30 12138 O 1145.28 3.7346 7.11887 0
M  V30 12139 H 1145.02 -0.0107227 0.675915 0
M  V30 12140 H 1147.57 0.617071 1.95912 0
M  V30 12141 H 1145.8 -1.30731 3.63932 0
M  V30 12142 H 1147.49 -1.0076 3.93195 0
M  V30 12143 H 1148.25 1.36891 4.65281 0
M  V30 12144 H 1144.13 0.14352 4.60777 0
M  V30 12145 H 1147.68 3.20984 6.19367 0
M  V30 12146 H 1143.57 1.97614 6.14507 0
M  V30 12147 H 1144.34 3.70058 7.30068 0
M  V30 12148 N 1147.01 -1.56678 0.170181 0
M  V30 12149 C 1147.95 -2.19222 -0.777459 0
M  V30 12150 C 1148.95 -1.15592 -1.23834 0
M  V30 12151 O 1150.15 -1.33794 -1.20412 0
M  V30 12152 H 1146.53 -0.702244 -0.268992 0
M  V30 12153 H 1148.5 -2.97543 -0.225989 0
M  V30 12154 C 1147.25 -2.84631 -1.997 0
M  V30 12155 H 1146.57 -3.641 -1.65139 0
M  V30 12156 H 1148.01 -3.31864 -2.63898 0
M  V30 12157 C 1146.47 -1.84345 -2.81991 0
M  V30 12158 O 1147 -1.32821 -3.79106 0
M  V30 12159 N 1145.21 -1.53127 -2.46983 0
M  V30 12160 H 1144.75 -1.95219 -1.6807 0
M  V30 12161 H 1144.71 -0.862787 -3.0233 0
M  V30 12162 N 1148.48 0.103547 -1.57259 0
M  V30 12163 C 1149.9 0.457527 -1.52901 0
M  V30 12164 C 1150.1 1.80995 -0.8856 0
M  V30 12165 O 1149.16 2.48001 -0.474504 0
M  V30 12166 C 1150.47 0.427793 -2.97641 0
M  V30 12167 C 1152.02 0.51025 -3.08813 0
M  V30 12168 C 1152.49 0.51075 -4.55143 0
M  V30 12169 N 1153.98 0.571748 -4.59658 0
M  V30 12170 C 1154.72 0.593836 -5.70317 0
M  V30 12171 N 1154.21 0.572638 -6.90429 0
M  V30 12172 N 1156.01 0.638011 -5.58467 0
M  V30 12173 H 1148.16 -0.782408 -1.97464 0
M  V30 12174 H 1150.42 -0.290324 -0.90245 0
M  V30 12175 H 1150.13 -0.498608 -3.48148 0
M  V30 12176 H 1150 1.24991 -3.55889 0
M  V30 12177 H 1152.39 1.42707 -2.583 0
M  V30 12178 H 1152.47 -0.339846 -2.53532 0
M  V30 12179 H 1152.11 -0.40209 -5.06306 0
M  V30 12180 H 1152.04 1.37794 -5.08252 0
M  V30 12181 H 1154.53 0.593668 -3.73208 0
M  V30 12182 H 1154.85 0.592542 -7.70525 0
M  V30 12183 H 1153.19 0.539818 -6.929 0
M  V30 12184 H 1156.38 0.652042 -4.63536 0
M  V30 12185 H 1156.56 0.651756 -6.44714 0
M  V30 12186 N 1149.96 1.53094 0.37415 0
M  V30 12187 C 1151.19 1.72508 1.13687 0
M  V30 12188 C 1151.6 0.449922 1.83773 0
M  V30 12189 O 1150.94 -0.586391 1.74089 0
M  V30 12190 C 1151 2.82965 2.21746 0
M  V30 12191 C 1150.67 4.23599 1.71501 0
M  V30 12192 C 1151.67 5.06245 1.1837 0
M  V30 12193 C 1149.35 4.69978 1.77273 0
M  V30 12194 C 1151.34 6.33357 0.71679 0
M  V30 12195 C 1149.03 5.9707 1.30194 0
M  V30 12196 C 1150.03 6.7859 0.774856 0
M  V30 12197 O 1149.72 8.03298 0.310981 0
M  V30 12198 H 1149.45 0.580611 0.346218 0
M  V30 12199 H 1152 2.00596 0.441614 0
M  V30 12200 H 1150.23 2.5033 2.9474 0
M  V30 12201 H 1151.92 2.90638 2.83345 0
M  V30 12202 H 1152.69 4.71591 1.13256 0
M  V30 12203 H 1148.57 4.06605 2.17241 0
M  V30 12204 H 1152.11 6.96934 0.30471 0
M  V30 12205 H 1148.01 6.31225 1.34999 0
M  V30 12206 H 1148.78 8.17364 0.431098 0
M  V30 12207 N 1151.44 -0.633461 1.44309 0
M  V30 12208 C 1152.67 -1.42033 1.50447 0
M  V30 12209 C 1153.08 -1.88362 0.128585 0
M  V30 12210 O 1152.44 -1.60695 -0.865071 0
M  V30 12211 C 1152.49 -2.6422 2.46719 0
M  V30 12212 O 1152.21 -2.19823 3.78958 0
M  V30 12213 C 1153.71 -3.57372 2.62298 0
M  V30 12214 H 1150.93 -0.435667 0.510329 0
M  V30 12215 H 1153.48 -0.774907 1.8925 0
M  V30 12216 H 1151.63 -3.24859 2.11058 0
M  V30 12217 H 1152.05 -2.99022 4.30913 0
M  V30 12218 H 1153.52 -4.39719 3.33693 0
M  V30 12219 H 1154 -4.06026 1.67449 0
M  V30 12220 H 1154.6 -3.02603 2.9885 0
M  V30 12221 N 1152.92 -1.31168 -0.873655 0
M  V30 12222 C 1154.15 -1.23595 -1.65927 0
M  V30 12223 C 1154.56 0.199349 -1.87745 0
M  V30 12224 O 1153.92 1.13013 -1.43298 0
M  V30 12225 C 1153.97 -1.97268 -3.02932 0
M  V30 12226 O 1153.69 -3.35196 -2.82091 0
M  V30 12227 C 1155.19 -1.9649 -3.97374 0
M  V30 12228 H 1152.41 -0.427228 -0.517414 0
M  V30 12229 H 1154.96 -1.72983 -1.09074 0
M  V30 12230 H 1153.11 -1.51651 -3.56484 0
M  V30 12231 H 1153.52 -3.7266 -3.69087 0
M  V30 12232 H 1155 -2.52557 -4.90835 0
M  V30 12233 H 1155.48 -0.946525 -4.28879 0
M  V30 12234 H 1156.08 -2.4197 -3.49758 0
M  V30 12235 N 1154.4 1.08748 -1.14068 0
M  V30 12236 C 1155.31 2.19123 -0.837998 0
M  V30 12237 C 1156.32 1.73065 0.180164 0
M  V30 12238 O 1157.5 2.01398 0.00952285 0
M  V30 12239 C 1154.56 3.45257 -0.316 0
M  V30 12240 C 1153.62 4.05959 -1.39628 0
M  V30 12241 C 1152.86 5.26072 -0.899095 0
M  V30 12242 O 1153.08 5.69804 0.260744 0
M  V30 12243 O 1152.01 5.7808 -1.67652 0
M  V30 12244 H 1155.84 2.4748 -1.76033 0
M  V30 12245 H 1153.43 1.17816 -0.918675 0
M  V30 12246 H 1155.31 4.21389 -0.0306425 0
M  V30 12247 H 1153.98 3.18486 0.578654 0
M  V30 12248 H 1152.89 3.31432 -1.73505 0
M  V30 12249 H 1154.22 4.36971 -2.26533 0
M  V30 12250 N 1155.87 0.935264 1.26849 0
M  V30 12251 C 1157.1 0.595704 1.98661 0
M  V30 12252 C 1157.52 -0.821001 1.69237 0
M  V30 12253 O 1156.88 -1.55211 0.936982 0
M  V30 12254 C 1156.93 0.837275 3.50745 0
M  V30 12255 O 1156.03 -0.0934914 4.12294 0
M  V30 12256 H 1155.38 0.228512 0.623441 0
M  V30 12257 H 1157.91 1.25658 1.61466 0
M  V30 12258 H 1157.92 0.755827 4.00938 0
M  V30 12259 H 1156.59 1.86993 3.71492 0
M  V30 12260 H 1155.17 0.0385124 3.7288 0
M  V30 12261 N 1157.35 -1.41121 0.701616 0
M  V30 12262 C 1158.63 -1.9492 0.162911 0
M  V30 12263 C 1159.01 -1.64064 -1.32839 0
M  V30 12264 O 1158.36 -0.950848 -2.07777 0
M  V30 12265 C 1158.57 -3.45946 0.460673 0
M  V30 12266 C 1159.92 -4.22789 0.391706 0
M  V30 12267 O 1160.94 -3.53993 0.395931 0
M  V30 12268 O 1159.8 -5.45332 0.357071 0
M  V30 12269 H 1156.89 -0.826793 0.0185103 0
M  V30 12270 H 1159.44 -1.50805 0.778192 0
M  V30 12271 H 1158.21 -3.61711 1.49269 0
M  V30 12272 H 1157.83 -3.97168 -0.185277 0
M  V30 12273 N 1158.83 -0.446794 -1.51134 0
M  V30 12274 C 1160.08 0.116666 -2.02464 0
M  V30 12275 C 1160.41 1.41532 -1.32975 0
M  V30 12276 O 1159.68 1.89278 -0.447651 0
M  V30 12277 C 1159.97 0.325659 -3.58624 0
M  V30 12278 C 1159.82 -0.992307 -4.38718 0
M  V30 12279 C 1161.14 1.09121 -4.26357 0
M  V30 12280 H 1158.26 0.0409262 -0.735863 0
M  V30 12281 H 1160.9 -0.587641 -1.80684 0
M  V30 12282 H 1159.05 0.925585 -3.77313 0
M  V30 12283 H 1160.72 -1.62694 -4.31658 0
M  V30 12284 H 1158.97 -1.5947 -4.03425 0
M  V30 12285 H 1159.64 -0.800005 -5.46172 0
M  V30 12286 H 1162.11 0.582944 -4.11996 0
M  V30 12287 H 1160.99 1.20621 -5.35483 0
M  V30 12288 H 1161.25 2.12171 -3.87861 0
M  V30 12289 N 1160.31 1.56586 -0.178487 0
M  V30 12290 C 1161.55 1.98159 0.45876 0
M  V30 12291 C 1161.91 1.0629 1.60375 0
M  V30 12292 O 1161.2 0.103975 1.91318 0
M  V30 12293 C 1161.4 3.43629 0.982552 0
M  V30 12294 C 1161.23 4.49565 -0.110152 0
M  V30 12295 C 1160 5.02162 -0.562228 0
M  V30 12296 C 1162.19 5.06129 -0.913143 0
M  V30 12297 N 1160.18 5.91741 -1.63449 0
M  V30 12298 C 1161.55 5.92217 -1.83517 0
M  V30 12299 C 1163.6 4.88608 -0.957421 0
M  V30 12300 C 1162.3 6.6266 -2.79775 0
M  V30 12301 C 1164.33 5.59777 -1.90798 0
M  V30 12302 C 1163.69 6.45599 -2.81747 0
M  V30 12303 H 1159.79 0.770124 0.13577 0
M  V30 12304 H 1162.38 1.92671 -0.280358 0
M  V30 12305 H 1160.55 3.49649 1.69117 0
M  V30 12306 H 1162.28 3.72199 1.58902 0
M  V30 12307 H 1159.03 4.73334 -0.158612 0
M  V30 12308 H 1159.46 6.41235 -2.17132 0
M  V30 12309 H 1164.1 4.21948 -0.268285 0
M  V30 12310 H 1161.82 7.28529 -3.49673 0
M  V30 12311 H 1165.4 5.48204 -1.94844 0
M  V30 12312 H 1164.28 6.99701 -3.54102 0
M  V30 12313 N 1161.79 -0.095206 1.57312 0
M  V30 12314 C 1162.75 -1.09974 2.01093 0
M  V30 12315 C 1163.75 -1.32954 0.904424 0
M  V30 12316 O 1164.94 -1.29069 1.16991 0
M  V30 12317 C 1162.07 -2.4489 2.37153 0
M  V30 12318 H 1163.26 -0.722906 2.91057 0
M  V30 12319 H 1160.82 -0.340249 1.52552 0
M  V30 12320 H 1161.55 -2.8745 1.50143 0
M  V30 12321 H 1161.34 -2.29559 3.17876 0
M  V30 12322 H 1162.83 -3.17141 2.71683 0
M  V30 12323 N 1163.26 -1.53291 -0.366026 0
M  V30 12324 C 1164.49 -1.73108 -1.1277 0
M  V30 12325 C 1164.9 -0.459662 -1.83531 0
M  V30 12326 O 1164.25 0.577151 -1.74398 0
M  V30 12327 C 1164.31 -2.84137 -2.20242 0
M  V30 12328 C 1163.97 -4.24503 -1.69252 0
M  V30 12329 C 1164.97 -5.06866 -1.15684 0
M  V30 12330 C 1162.65 -4.70912 -1.74778 0
M  V30 12331 C 1164.65 -6.33728 -0.683191 0
M  V30 12332 C 1162.33 -5.97752 -1.27025 0
M  V30 12333 C 1163.33 -6.78992 -0.738858 0
M  V30 12334 O 1163.02 -8.03452 -0.268375 0
M  V30 12335 H 1162.75 -0.582439 -0.343134 0
M  V30 12336 H 1165.31 -2.00828 -0.430969 0
M  V30 12337 H 1163.54 -2.5189 -2.93408 0
M  V30 12338 H 1165.23 -2.92136 -2.818 0
M  V30 12339 H 1165.99 -4.72185 -1.10753 0
M  V30 12340 H 1161.87 -4.07751 -2.15081 0
M  V30 12341 H 1165.41 -6.97086 -0.267746 0
M  V30 12342 H 1161.31 -6.31933 -1.31649 0
M  V30 12343 H 1162.08 -8.17581 -0.387745 0
M  V30 12344 N 1164.74 0.6258 -1.44643 0
M  V30 12345 C 1165.99 1.38251 -1.47414 0
M  V30 12346 C 1166.31 1.94689 -0.110043 0
M  V30 12347 O 1165.58 1.76095 0.858333 0
M  V30 12348 H 1164.16 0.513179 -0.542823 0
M  V30 12349 H 1166.82 0.736179 -1.80462 0
M  V30 12350 H 1165.92 2.21115 -2.2026 0
M  V30 12351 N 1166.22 1.31629 0.866686 0
M  V30 12352 C 1167.47 1.21683 1.62238 0
M  V30 12353 C 1167.8 -0.223767 1.92907 0
M  V30 12354 O 1167.07 -1.15761 1.563 0
M  V30 12355 C 1167.36 2.06443 2.95048 0
M  V30 12356 C 1167.21 3.58818 2.71237 0
M  V30 12357 C 1168.53 1.91634 3.96187 0
M  V30 12358 H 1165.65 0.443389 0.588707 0
M  V30 12359 H 1168.29 1.61453 1.00164 0
M  V30 12360 H 1166.44 1.72654 3.48027 0
M  V30 12361 H 1168.11 4.0276 2.24905 0
M  V30 12362 H 1166.36 3.82085 2.05411 0
M  V30 12363 H 1167.03 4.13436 3.65752 0
M  V30 12364 H 1169.5 2.21209 3.52428 0
M  V30 12365 H 1168.38 2.53236 4.86993 0
M  V30 12366 H 1168.64 0.880564 4.33242 0
M  V30 12367 N 1167.7 -1.08142 1.14644 0
M  V30 12368 C 1168.95 -1.80849 0.917685 0
M  V30 12369 C 1169.28 -1.86123 -0.554249 0
M  V30 12370 O 1168.55 -1.33907 -1.41065 0
M  V30 12371 C 1168.84 -3.26325 1.52264 0
M  V30 12372 C 1168.69 -3.29244 3.06461 0
M  V30 12373 C 1170.01 -4.23375 1.20175 0
M  V30 12374 H 1167.13 -0.656559 0.334812 0
M  V30 12375 H 1169.77 -1.26595 1.41682 0
M  V30 12376 H 1167.92 -3.72656 1.09817 0
M  V30 12377 H 1169.59 -2.91216 3.57758 0
M  V30 12378 H 1167.83 -2.68438 3.40769 0
M  V30 12379 H 1168.51 -4.31785 3.43897 0
M  V30 12380 H 1170.98 -3.85394 1.56877 0
M  V30 12381 H 1169.86 -5.23472 1.65132 0
M  V30 12382 H 1170.12 -4.41944 0.117474 0
M  V30 12383 N 1169.18 -0.941978 -1.26351 0
M  V30 12384 C 1170.11 -0.469913 -2.28723 0
M  V30 12385 C 1171.09 0.477218 -1.63269 0
M  V30 12386 O 1172.27 0.378902 -1.90468 0
M  V30 12387 C 1169.4 0.264971 -3.46288 0
M  V30 12388 C 1168.36 -0.595682 -4.23834 0
M  V30 12389 C 1167.68 0.269208 -5.34022 0
M  V30 12390 C 1168.98 -1.86743 -4.87775 0
M  V30 12391 H 1170.68 -1.32551 -2.6846 0
M  V30 12392 H 1168.22 -0.638809 -1.29055 0
M  V30 12393 H 1170.18 0.606259 -4.17016 0
M  V30 12394 H 1168.9 1.15471 -3.05506 0
M  V30 12395 H 1167.56 -0.919875 -3.54872 0
M  V30 12396 H 1167.21 1.15832 -4.89481 0
M  V30 12397 H 1166.91 -0.30325 -5.86817 0
M  V30 12398 H 1168.43 0.605748 -6.07588 0
M  V30 12399 H 1169.85 -1.59333 -5.50714 0
M  V30 12400 H 1168.24 -2.38452 -5.50691 0
M  V30 12401 H 1169.31 -2.57831 -4.10671 0
M  V30 12402 N 1170.66 1.40747 -0.709091 0
M  V30 12403 C 1171.9 2.01796 -0.254976 0
M  V30 12404 C 1172.26 1.55202 1.13711 0
M  V30 12405 O 1171.55 0.759312 1.75912 0
M  V30 12406 C 1171.74 3.56404 -0.266685 0
M  V30 12407 C 1171.57 4.18005 -1.65837 0
M  V30 12408 C 1170.34 4.51719 -2.26447 0
M  V30 12409 C 1172.54 4.43302 -2.60744 0
M  V30 12410 N 1170.52 4.9868 -3.58039 0
M  V30 12411 C 1171.89 4.92185 -3.77033 0
M  V30 12412 C 1173.95 4.25332 -2.58839 0
M  V30 12413 C 1172.65 5.24984 -4.91715 0
M  V30 12414 C 1174.68 4.59228 -3.72644 0
M  V30 12415 C 1174.04 5.08294 -4.87664 0
M  V30 12416 H 1170.14 0.769549 -0.138991 0
M  V30 12417 H 1172.72 1.71081 -0.929488 0
M  V30 12418 H 1170.89 3.86562 0.377365 0
M  V30 12419 H 1172.63 4.04188 0.203528 0
M  V30 12420 H 1169.38 4.38631 -1.78605 0
M  V30 12421 H 1169.8 5.2655 -4.25528 0
M  V30 12422 H 1174.45 3.86623 -1.71121 0
M  V30 12423 H 1172.16 5.6261 -5.80082 0
M  V30 12424 H 1175.75 4.4697 -3.72437 0
M  V30 12425 H 1174.63 5.3403 -5.74267 0
M  V30 12426 N 1172.13 0.454803 1.50895 0
M  V30 12427 C 1173.04 -0.353495 2.31921 0
M  V30 12428 C 1174.06 -1.01136 1.41589 0
M  V30 12429 O 1175.24 -1.00291 1.74653 0
M  V30 12430 C 1172.3 -1.43032 3.15821 0
M  V30 12431 C 1171.36 -0.790763 4.21954 0
M  V30 12432 C 1170.59 -1.81628 5.01843 0
M  V30 12433 O 1170.82 -3.04078 4.8259 0
M  V30 12434 O 1169.75 -1.39713 5.8546 0
M  V30 12435 H 1173.58 0.308463 3.02129 0
M  V30 12436 H 1171.16 0.216971 1.47816 0
M  V30 12437 H 1173.04 -2.05444 3.67927 0
M  V30 12438 H 1171.72 -2.07605 2.48358 0
M  V30 12439 H 1170.63 -0.128127 3.73881 0
M  V30 12440 H 1171.96 -0.188251 4.9184 0
M  V30 12441 N 1173.61 -1.56489 0.186789 0
M  V30 12442 C 1174.86 -1.96517 -0.45433 0
M  V30 12443 C 1175.17 -1.07618 -1.63333 0
M  V30 12444 O 1176.38 -1.37392 -2.3417 0
M  V30 12445 C 1174.84 -3.49482 -0.859685 0
M  V30 12446 C 1174.44 -4.47031 0.294572 0
M  V30 12447 C 1176.19 -3.98296 -1.46835 0
M  V30 12448 C 1174.09 -5.91254 -0.131279 0
M  V30 12449 H 1173.02 -0.733765 -0.17351 0
M  V30 12450 H 1175.68 -1.8139 0.277485 0
M  V30 12451 H 1174.06 -3.60082 -1.64793 0
M  V30 12452 H 1175.23 -4.48156 1.07205 0
M  V30 12453 H 1173.55 -4.08362 0.814197 0
M  V30 12454 H 1176.14 -5.03518 -1.79928 0
M  V30 12455 H 1176.49 -3.42123 -2.37186 0
M  V30 12456 H 1177.02 -3.90776 -0.744247 0
M  V30 12457 H 1173.76 -6.51334 0.737839 0
M  V30 12458 H 1173.28 -5.93401 -0.873786 0
M  V30 12459 H 1174.96 -6.44485 -0.569913 0
M  V30 12460 N 1175.09 0.086862 -1.5736 0
M  V30 12461 C 1176.34 0.78884 -1.86504 0
M  V30 12462 C 1176.66 1.78329 -0.77646 0
M  V30 12463 O 1175.92 1.94354 0.229122 0
M  V30 12464 C 1176.22 1.54537 -3.22263 0
M  V30 12465 C 1175.88 0.692284 -4.45554 0
M  V30 12466 C 1174.55 0.45714 -4.79024 0
M  V30 12467 C 1176.9 0.0997695 -5.21105 0
M  V30 12468 C 1174.23 -0.380247 -5.85466 0
M  V30 12469 C 1176.58 -0.724986 -6.28432 0
M  V30 12470 C 1175.24 -0.970144 -6.60412 0
M  V30 12471 H 1174.51 0.288657 -0.682465 0
M  V30 12472 H 1177.16 0.050059 -1.91435 0
M  V30 12473 H 1175.46 2.35594 -3.13053 0
M  V30 12474 H 1177.16 2.09305 -3.42042 0
M  V30 12475 H 1173.75 0.885675 -4.19349 0
M  V30 12476 H 1177.94 0.268583 -4.95573 0
M  V30 12477 H 1173.19 -0.579084 -6.08651 0
M  V30 12478 H 1177.37 -1.19093 -6.86141 0
M  V30 12479 H 1174.99 -1.6208 -7.42721 0
M  V30 12480 N 1176.57 1.53483 0.357892 0
M  V30 12481 C 1177.79 1.74264 1.12458 0
M  V30 12482 C 1178.22 0.473944 1.82031 0
M  V30 12483 O 1177.58 -0.57253 1.72023 0
M  V30 12484 C 1177.62 2.91356 2.12471 0
M  V30 12485 O 1176.73 2.60502 3.19707 0
M  V30 12486 H 1176.07 0.578499 0.325937 0
M  V30 12487 H 1178.6 2.00395 0.412666 0
M  V30 12488 H 1178.61 3.1774 2.5594 0
M  V30 12489 H 1177.28 3.83378 1.61226 0
M  V30 12490 H 1175.86 2.44961 2.81156 0
M  V30 12491 N 1178.05 -0.61812 1.44973 0
M  V30 12492 C 1179.28 -1.40225 1.51725 0
M  V30 12493 C 1179.68 -1.88643 0.145098 0
M  V30 12494 O 1179.03 -1.62237 -0.861677 0
M  V30 12495 C 1179.09 -2.64808 2.4314 0
M  V30 12496 C 1178.75 -2.381 3.90073 0
M  V30 12497 C 1179.75 -1.99116 4.80259 0
M  V30 12498 C 1177.43 -2.51338 4.34896 0
M  V30 12499 C 1179.43 -1.73716 6.13271 0
M  V30 12500 C 1177.12 -2.25552 5.67952 0
M  V30 12501 C 1178.11 -1.86801 6.56958 0
M  V30 12502 O 1177.8 -1.6131 7.8755 0
M  V30 12503 H 1177.53 -0.436024 0.516584 0
M  V30 12504 H 1180.09 -0.761929 1.90745 0
M  V30 12505 H 1178.32 -3.31524 1.9907 0
M  V30 12506 H 1180.01 -3.26835 2.40694 0
M  V30 12507 H 1180.77 -1.88435 4.46897 0
M  V30 12508 H 1176.65 -2.80468 3.65867 0
M  V30 12509 H 1180.2 -1.43395 6.82703 0
M  V30 12510 H 1176.09 -2.35847 6.00872 0
M  V30 12511 H 1176.86 -1.75449 7.99475 0
M  V30 12512 N 1179.52 -1.32087 -0.859693 0
M  V30 12513 C 1180.77 -1.22119 -1.61033 0
M  V30 12514 C 1181.09 0.218289 -1.93774 0
M  V30 12515 O 1180.36 1.14172 -1.5919 0
M  V30 12516 H 1178.94 -0.448989 -0.597008 0
M  V30 12517 H 1181.6 -1.65545 -1.02863 0
M  V30 12518 H 1180.7 -1.80023 -2.54947 0
M  V30 12519 N 1181 1.07532 -1.15215 0
M  V30 12520 C 1181.93 2.1668 -0.870171 0
M  V30 12521 C 1182.91 1.69161 0.178483 0
M  V30 12522 O 1184.1 1.94172 0.0332489 0
M  V30 12523 C 1181.23 3.45464 -0.356666 0
M  V30 12524 C 1180.18 4.06424 -1.34179 0
M  V30 12525 C 1179.51 5.30266 -0.687206 0
M  V30 12526 C 1180.81 4.46666 -2.70715 0
M  V30 12527 H 1182.5 2.40526 -1.7829 0
M  V30 12528 H 1180.05 1.15598 -0.858665 0
M  V30 12529 H 1182 4.21144 -0.146947 0
M  V30 12530 H 1180.72 3.21199 0.591527 0
M  V30 12531 H 1179.38 3.32786 -1.53783 0
M  V30 12532 H 1179.03 5.0229 0.267077 0
M  V30 12533 H 1178.73 5.72009 -1.34462 0
M  V30 12534 H 1180.26 6.08653 -0.487218 0
M  V30 12535 H 1181.67 5.13483 -2.54966 0
M  V30 12536 H 1180.07 4.99355 -3.32813 0
M  V30 12537 H 1181.14 3.58123 -3.26919 0
M  V30 12538 N 1182.48 0.948665 1.2585 0
M  V30 12539 C 1183.41 0.421458 2.25292 0
M  V30 12540 C 1184.43 -0.459389 1.56184 0
M  V30 12541 O 1185.61 -0.268627 1.76467 0
M  V30 12542 C 1182.71 -0.412653 3.36378 0
M  V30 12543 C 1181.89 0.453792 4.3504 0
M  V30 12544 C 1180.95 -0.321127 5.25219 0
M  V30 12545 O 1179.97 0.278424 5.68519 0
M  V30 12546 N 1181.17 -1.61576 5.5756 0
M  V30 12547 H 1183.94 1.27636 2.71162 0
M  V30 12548 H 1181.5 0.818367 1.39694 0
M  V30 12549 H 1183.49 -0.938637 3.93664 0
M  V30 12550 H 1182.06 -1.16839 2.89944 0
M  V30 12551 H 1181.28 1.16093 3.76718 0
M  V30 12552 H 1182.57 1.04538 4.97945 0
M  V30 12553 H 1181.97 -2.12488 5.24276 0
M  V30 12554 H 1180.53 -2.08783 6.17457 0
M  V30 12555 N 1183.96 -1.40369 0.716545 0
M  V30 12556 C 1185.37 -1.83783 0.328719 0
M  V30 12557 C 1185.72 -1.5991 -1.13681 0
M  V30 12558 O 1184.85 -1.08048 -1.87496 0
M  V30 12559 C 1185.44 -3.33626 0.589848 0
M  V30 12560 C 1184 -3.7553 0.25572 0
M  V30 12561 C 1183.15 -2.63571 0.861733 0
M  V30 12562 H 1186.1 -1.29623 0.915621 0
M  V30 12563 H 1186.12 -3.80225 -0.14459 0
M  V30 12564 H 1185.63 -3.5097 1.65655 0
M  V30 12565 H 1183.73 -3.63781 -0.805883 0
M  V30 12566 H 1183.84 -4.73577 0.725388 0
M  V30 12567 H 1182.21 -2.53047 0.289706 0
M  V30 12568 H 1182.99 -2.83727 1.93272 0
M  V30 12569 N 1185.44 -0.462799 -1.50652 0
M  V30 12570 C 1186.67 0.0928413 -2.06391 0
M  V30 12571 C 1187.07 1.34791 -1.3277 0
M  V30 12572 O 1186.42 1.79555 -0.388048 0
M  V30 12573 C 1186.48 0.45517 -3.56607 0
M  V30 12574 C 1186.14 -0.696698 -4.51658 0
M  V30 12575 C 1187.14 -1.57633 -4.95427 0
M  V30 12576 C 1184.83 -0.884669 -4.94448 0
M  V30 12577 C 1186.82 -2.62841 -5.80684 0
M  V30 12578 C 1184.51 -1.93998 -5.79489 0
M  V30 12579 C 1185.5 -2.81022 -6.22508 0
M  V30 12580 O 1185.19 -3.84738 -7.05856 0
M  V30 12581 H 1184.92 -3.18898e-05 -0.676 0
M  V30 12582 H 1187.48 -0.648161 -1.94905 0
M  V30 12583 H 1185.71 1.24924 -3.65966 0
M  V30 12584 H 1187.4 0.944923 -3.94748 0
M  V30 12585 H 1188.16 -1.44276 -4.63044 0
M  V30 12586 H 1184.04 -0.216807 -4.6049 0
M  V30 12587 H 1187.59 -3.30797 -6.14182 0
M  V30 12588 H 1183.48 -2.07366 -6.11285 0
M  V30 12589 H 1184.25 -3.81626 -7.24088 0
M  V30 12590 N 1186.91 1.56388 -0.195085 0
M  V30 12591 C 1188.14 2.0167 0.448637 0
M  V30 12592 C 1188.55 1.07439 1.55736 0
M  V30 12593 O 1187.9 0.071441 1.83561 0
M  V30 12594 C 1187.96 3.43348 1.06547 0
M  V30 12595 C 1187.62 4.569 0.0954901 0
M  V30 12596 C 1188.62 5.15232 -0.695116 0
M  V30 12597 C 1186.3 5.02298 -0.0155889 0
M  V30 12598 C 1188.3 6.1741 -1.58377 0
M  V30 12599 C 1185.98 6.0432 -0.907799 0
M  V30 12600 C 1186.98 6.6175 -1.69045 0
M  V30 12601 O 1186.67 7.6179 -2.56771 0
M  V30 12602 H 1186.4 0.665805 0.116962 0
M  V30 12603 H 1188.96 2.03182 -0.301062 0
M  V30 12604 H 1187.19 3.38823 1.86376 0
M  V30 12605 H 1188.88 3.72438 1.61385 0
M  V30 12606 H 1189.64 4.81026 -0.619604 0
M  V30 12607 H 1185.52 4.57293 0.583424 0
M  V30 12608 H 1189.06 6.62164 -2.1951 0
M  V30 12609 H 1184.96 6.37949 -0.984427 0
M  V30 12610 H 1185.73 7.79209 -2.50551 0
M  V30 12611 N 1188.39 -0.0785156 1.57404 0
M  V30 12612 C 1189.64 -0.777399 1.8655 0
M  V30 12613 C 1189.96 -1.78451 0.786142 0
M  V30 12614 O 1189.23 -1.95016 -0.185911 0
M  V30 12615 H 1187.81 -0.290097 0.688369 0
M  V30 12616 H 1190.47 -0.0562017 1.94819 0
M  V30 12617 H 1189.57 -1.29776 2.83839 0
M  V30 12618 N 1189.87 -1.5367 -0.349747 0
M  V30 12619 C 1190.8 -1.7603 -1.4522 0
M  V30 12620 C 1191.78 -0.609171 -1.50758 0
M  V30 12621 O 1192.97 -0.843613 -1.68569 0
M  V30 12622 C 1190.09 -1.85336 -2.83493 0
M  V30 12623 C 1189.14 -3.07438 -2.95608 0
M  V30 12624 S 1189.97 -4.66625 -2.62719 0
M  V30 12625 C 1191.13 -4.78802 -4.03112 0
M  V30 12626 H 1191.36 -2.69263 -1.26035 0
M  V30 12627 H 1188.89 -1.4446 -0.545044 0
M  V30 12628 H 1190.85 -1.91383 -3.63157 0
M  V30 12629 H 1189.51 -0.931267 -2.99977 0
M  V30 12630 H 1188.71 -3.10606 -3.96913 0
M  V30 12631 H 1188.31 -2.99585 -2.23886 0
M  V30 12632 H 1190.6 -4.5983 -4.97557 0
M  V30 12633 H 1191.54 -5.80886 -4.04941 0
M  V30 12634 H 1191.95 -4.07305 -3.90849 0
M  V30 12635 N 1191.35 0.610423 -1.45298 0
M  V30 12636 C 1192.31 1.70324 -1.5337 0
M  V30 12637 C 1193.31 1.55393 -0.413492 0
M  V30 12638 O 1194.5 1.60512 -0.676872 0
M  V30 12639 C 1191.63 3.09572 -1.42752 0
M  V30 12640 H 1192.83 1.64535 -2.50736 0
M  V30 12641 H 1190.38 0.825906 -1.32697 0
M  V30 12642 H 1191.11 3.2094 -0.465601 0
M  V30 12643 H 1190.9 3.21817 -2.24 0
M  V30 12644 H 1192.39 3.89178 -1.51427 0
M  V30 12645 N 1192.83 1.32541 0.852676 0
M  V30 12646 C 1193.78 1.18224 1.94954 0
M  V30 12647 C 1194.76 0.0886514 1.60656 0
M  V30 12648 O 1195.95 0.315359 1.74168 0
M  V30 12649 C 1193.08 0.909484 3.31034 0
M  V30 12650 C 1192.17 2.04486 3.71546 0
M  V30 12651 N 1192.56 3.29362 3.83868 0
M  V30 12652 C 1190.86 1.94848 4.01186 0
M  V30 12653 C 1191.56 4.0374 4.18771 0
M  V30 12654 N 1190.53 3.32054 4.30396 0
M  V30 12655 H 1194.34 2.12893 2.02617 0
M  V30 12656 H 1191.85 1.24349 1.04456 0
M  V30 12657 H 1193.85 0.787865 4.09388 0
M  V30 12658 H 1192.51 -0.0288163 3.24687 0
M  V30 12659 H 1193.52 3.64274 3.68137 0
M  V30 12660 H 1190.19 1.08591 4.0313 0
M  V30 12661 H 1191.58 5.11434 4.35757 0
M  V30 12662 N 1194.3 -1.0692 1.15784 0
M  V30 12663 C 1195.21 -2.17762 0.872753 0
M  V30 12664 C 1196.23 -1.73329 -0.152608 0
M  V30 12665 O 1197.41 -2.01387 0.022519 0
M  V30 12666 C 1194.47 -3.4471 0.370887 0
M  V30 12667 C 1193.53 -4.03686 1.46069 0
M  V30 12668 C 1192.77 -5.24575 0.982675 0
M  V30 12669 O 1192.99 -5.70146 -0.17006 0
M  V30 12670 O 1191.92 -5.7534 1.76828 0
M  V30 12671 H 1195.75 -2.44648 1.79948 0
M  V30 12672 H 1193.33 -1.1634 0.937303 0
M  V30 12673 H 1195.22 -4.21287 0.0976779 0
M  V30 12674 H 1193.89 -3.19366 -0.527912 0
M  V30 12675 H 1192.8 -3.28629 1.78756 0
M  V30 12676 H 1194.13 -4.33312 2.33456 0
M  V30 12677 N 1195.78 -0.955326 -1.25345 0
M  V30 12678 C 1196.69 -0.482707 -2.2958 0
M  V30 12679 C 1197.71 0.450283 -1.68073 0
M  V30 12680 O 1198.88 0.326358 -1.98738 0
M  V30 12681 C 1195.95 0.231293 -3.45928 0
M  V30 12682 C 1195.01 -0.739995 -4.22874 0
M  V30 12683 C 1194.24 -0.0599748 -5.33666 0
M  V30 12684 O 1194.47 1.15423 -5.586 0
M  V30 12685 O 1193.4 -0.745865 -5.97261 0
M  V30 12686 H 1197.23 -1.34892 -2.72099 0
M  V30 12687 H 1194.81 -0.721812 -1.30806 0
M  V30 12688 H 1196.69 0.632908 -4.1662 0
M  V30 12689 H 1195.37 1.07267 -3.0541 0
M  V30 12690 H 1194.28 -1.19183 -3.54607 0
M  V30 12691 H 1195.61 -1.54941 -4.67177 0
M  V30 12692 N 1197.26 1.39987 -0.723979 0
M  V30 12693 C 1198.51 2.01028 -0.267511 0
M  V30 12694 C 1198.84 1.57295 1.13894 0
M  V30 12695 O 1198.12 0.796805 1.7743 0
M  V30 12696 C 1198.4 3.58326 -0.356971 0
M  V30 12697 C 1198.25 4.12109 -1.8024 0
M  V30 12698 C 1199.57 4.39289 0.267003 0
M  V30 12699 H 1196.69 0.730364 -0.0986775 0
M  V30 12700 H 1199.33 1.66348 -0.91806 0
M  V30 12701 H 1197.48 3.88001 0.196908 0
M  V30 12702 H 1199.15 3.93199 -2.41231 0
M  V30 12703 H 1197.4 3.66082 -2.32737 0
M  V30 12704 H 1198.07 5.21261 -1.81634 0
M  V30 12705 H 1200.54 4.15595 -0.20503 0
M  V30 12706 H 1199.42 5.48624 0.174004 0
M  V30 12707 H 1199.68 4.20931 1.35164 0
M  V30 12708 N 1198.74 0.470782 1.50404 0
M  V30 12709 C 1199.99 -0.0859981 2.01517 0
M  V30 12710 C 1200.3 -1.40811 1.35763 0
M  V30 12711 O 1201.51 -2.04982 1.7803 0
M  V30 12712 C 1199.96 -0.203773 3.59323 0
M  V30 12713 C 1199.57 1.10989 4.34034 0
M  V30 12714 C 1201.32 -0.712528 4.18477 0
M  V30 12715 C 1199.22 0.955928 5.83623 0
M  V30 12716 H 1198.15 -0.0359142 0.753144 0
M  V30 12717 H 1200.8 0.605631 1.73218 0
M  V30 12718 H 1199.19 -0.959177 3.84208 0
M  V30 12719 H 1200.36 1.87623 4.20873 0
M  V30 12720 H 1198.67 1.54973 3.86487 0
M  V30 12721 H 1201.27 -0.844745 5.27985 0
M  V30 12722 H 1201.61 -1.70377 3.79838 0
M  V30 12723 H 1202.15 -0.0145179 3.97797 0
M  V30 12724 H 1198.89 1.92054 6.26734 0
M  V30 12725 H 1198.41 0.22997 5.99359 0
M  V30 12726 H 1200.09 0.622423 6.43999 0
M  V30 12727 N 1200.22 -1.56282 0.203376 0
M  V30 12728 C 1201.45 -2.01905 -0.437936 0
M  V30 12729 C 1201.86 -1.08263 -1.55164 0
M  V30 12730 O 1201.2 -0.0811746 -1.83521 0
M  V30 12731 C 1201.26 -3.43908 -1.04725 0
M  V30 12732 C 1200.92 -4.56944 -0.0712582 0
M  V30 12733 C 1201.92 -5.14856 0.72243 0
M  V30 12734 C 1199.61 -5.02282 0.0422267 0
M  V30 12735 C 1201.6 -6.16562 1.61649 0
M  V30 12736 C 1199.29 -6.0383 0.939835 0
M  V30 12737 C 1200.29 -6.60844 1.72552 0
M  V30 12738 O 1199.97 -7.60417 2.60808 0
M  V30 12739 H 1199.71 -0.666416 -0.11343 0
M  V30 12740 H 1202.26 -2.03019 0.311833 0
M  V30 12741 H 1200.49 -3.39806 -1.84577 0
M  V30 12742 H 1202.18 -3.73288 -1.59407 0
M  V30 12743 H 1202.94 -4.80691 0.645105 0
M  V30 12744 H 1198.82 -4.57596 -0.559165 0
M  V30 12745 H 1202.37 -6.6099 2.23019 0
M  V30 12746 H 1198.26 -6.37418 1.01824 0
M  V30 12747 H 1199.03 -7.77869 2.54679 0
M  V30 12748 N 1201.7 0.070167 -1.57444 0
M  V30 12749 C 1202.93 0.78076 -1.91279 0
M  V30 12750 C 1203.33 1.71559 -0.797754 0
M  V30 12751 O 1202.68 1.82156 0.237665 0
M  V30 12752 C 1202.74 1.62664 -3.20594 0
M  V30 12753 C 1202.4 0.861007 -4.48816 0
M  V30 12754 C 1203.4 0.179522 -5.1959 0
M  V30 12755 C 1201.08 0.8277 -4.95434 0
M  V30 12756 C 1203.08 -0.525024 -6.35234 0
M  V30 12757 C 1200.77 0.119382 -6.10983 0
M  V30 12758 C 1201.76 -0.555778 -6.80735 0
M  V30 12759 O 1201.45 -1.25268 -7.9408 0
M  V30 12760 H 1201.18 0.227053 -0.636728 0
M  V30 12761 H 1203.74 0.0442334 -2.05352 0
M  V30 12762 H 1201.97 2.40601 -3.02734 0
M  V30 12763 H 1203.66 2.21606 -3.40067 0
M  V30 12764 H 1204.42 0.19655 -4.84602 0
M  V30 12765 H 1200.3 1.34268 -4.41014 0
M  V30 12766 H 1203.85 -1.05257 -6.89613 0
M  V30 12767 H 1199.74 0.100287 -6.45422 0
M  V30 12768 H 1200.51 -1.16212 -8.10208 0
M  V30 12769 N 1203.17 1.53854 0.341593 0
M  V30 12770 C 1204.42 1.71447 1.08322 0
M  V30 12771 C 1204.75 0.477289 1.88243 0
M  V30 12772 O 1204.03 -0.525695 1.87261 0
M  V30 12773 C 1204.31 2.97917 2.02281 0
M  V30 12774 C 1204.16 4.31847 1.25809 0
M  V30 12775 C 1205.48 3.20065 3.0207 0
M  V30 12776 H 1202.6 0.623847 0.392408 0
M  V30 12777 H 1205.24 1.86527 0.361594 0
M  V30 12778 H 1203.39 2.85191 2.63815 0
M  V30 12779 H 1205.07 4.56427 0.668737 0
M  V30 12780 H 1203.31 4.30169 0.560119 0
M  V30 12781 H 1203.98 5.16522 1.94704 0
M  V30 12782 H 1206.46 3.32135 2.50651 0
M  V30 12783 H 1205.33 4.09947 3.65013 0
M  V30 12784 H 1205.59 2.36452 3.73554 0
M  V30 12785 N 1204.65 -0.602709 1.4562 0
M  V30 12786 C 1206.07 -0.923983 1.30133 0
M  V30 12787 C 1206.27 -1.99842 0.25796 0
M  V30 12788 O 1205.32 -2.50112 -0.346414 0
M  V30 12789 C 1206.64 -1.36029 2.68173 0
M  V30 12790 C 1208.18 -1.47423 2.76108 0
M  V30 12791 C 1208.66 -1.94427 4.14683 0
M  V30 12792 N 1210.15 -2.01653 4.17002 0
M  V30 12793 C 1210.89 -2.39255 5.211 0
M  V30 12794 N 1210.38 -2.75791 6.3554 0
M  V30 12795 N 1212.17 -2.39636 5.08459 0
M  V30 12796 H 1204.33 0.107377 2.12128 0
M  V30 12797 H 1206.59 -0.0146216 0.947887 0
M  V30 12798 H 1206.29 -0.644949 3.45736 0
M  V30 12799 H 1206.17 -2.32584 2.96959 0
M  V30 12800 H 1208.56 -2.18047 1.98845 0
M  V30 12801 H 1208.64 -0.4917 2.5103 0
M  V30 12802 H 1208.28 -1.24389 4.92433 0
M  V30 12803 H 1208.21 -2.93603 4.37156 0
M  V30 12804 H 1210.7 -1.75988 3.3442 0
M  V30 12805 H 1211.01 -3.03378 7.10761 0
M  V30 12806 H 1209.36 -2.73475 6.38934 0
M  V30 12807 H 1212.55 -2.10502 4.18098 0
M  V30 12808 H 1212.72 -2.68614 5.89704 0
M  V30 12809 N 1206.13 -1.32992 -0.845635 0
M  V30 12810 C 1207.41 -1.14671 -1.58461 0
M  V30 12811 C 1207.79 0.289498 -2.09106 0
M  V30 12812 O 1207.13 1.28751 -1.88773 0
M  V30 12813 C 1207.34 -2.18206 -2.72373 0
M  V30 12814 C 1208.69 -2.5201 -3.41726 0
M  V30 12815 O 1209.72 -2.16821 -2.82608 0
M  V30 12816 O 1208.58 -3.12368 -4.48429 0
M  V30 12817 H 1205.67 -0.443088 -0.698285 0
M  V30 12818 H 1208.22 -1.44552 -0.888978 0
M  V30 12819 H 1206.99 -3.14707 -2.32541 0
M  V30 12820 H 1206.61 -1.89372 -3.49605 0
M  V30 12821 N 1207.61 1.06304 -1.1635 0
M  V30 12822 C 1208.86 1.78747 -0.943074 0
M  V30 12823 C 1209.18 1.87646 0.530483 0
M  V30 12824 O 1208.45 1.38506 1.38538 0
M  V30 12825 H 1207.03 0.662072 -0.345932 0
M  V30 12826 H 1209.69 1.28413 -1.46615 0
M  V30 12827 H 1208.78 2.80828 -1.3617 0
M  V30 12828 N 1209.09 0.96196 1.24836 0
M  V30 12829 C 1210.03 0.479282 2.27609 0
M  V30 12830 C 1211.03 -0.454224 1.63197 0
M  V30 12831 O 1212.23 -0.330146 1.76946 0
M  V30 12832 H 1208.61 0.13651 0.739506 0
M  V30 12833 H 1210.58 1.35817 2.657 0
M  V30 12834 C 1209.33 -0.220499 3.47 0
M  V30 12835 H 1208.65 0.488694 3.96802 0
M  V30 12836 H 1210.09 -0.522137 4.20773 0
M  V30 12837 C 1208.55 -1.44552 3.04313 0
M  V30 12838 O 1209.08 -2.54287 3.10967 0
M  V30 12839 N 1207.29 -1.3095 2.59423 0
M  V30 12840 H 1206.83 -0.416656 2.54208 0
M  V30 12841 H 1206.79 -2.13029 2.31227 0
M  V30 12842 N 1210.56 -1.39601 0.731392 0
M  V30 12843 C 1211.81 -1.99821 0.274661 0
M  V30 12844 C 1212.13 -1.58693 -1.1435 0
M  V30 12845 O 1213.33 -2.11724 -1.69957 0
M  V30 12846 C 1211.79 -3.57199 0.440124 0
M  V30 12847 C 1211.4 -4.07292 1.86594 0
M  V30 12848 C 1213.14 -4.24476 0.0449851 0
M  V30 12849 C 1211.05 -5.57229 1.98115 0
M  V30 12850 H 1209.98 -0.747481 0.0989383 0
M  V30 12851 H 1212.63 -1.59645 0.904755 0
M  V30 12852 H 1211.01 -3.95153 -0.25881 0
M  V30 12853 H 1212.18 -3.80679 2.59654 0
M  V30 12854 H 1210.5 -3.52665 2.21397 0
M  V30 12855 H 1213.1 -5.34587 0.110126 0
M  V30 12856 H 1213.44 -4.04129 -0.999269 0
M  V30 12857 H 1213.97 -3.91683 0.694942 0
M  V30 12858 H 1210.71 -5.82452 3.00716 0
M  V30 12859 H 1210.23 -5.85656 1.29487 0
M  V30 12860 H 1211.91 -6.22584 1.76063 0
M  V30 12861 N 1212.04 -0.478751 -1.50152 0
M  V30 12862 C 1212.97 0.301182 -2.31549 0
M  V30 12863 C 1213.95 0.983276 -1.38801 0
M  V30 12864 O 1215.14 0.978973 -1.67719 0
M  V30 12865 C 1212.27 1.3791 -3.18745 0
M  V30 12866 C 1211.22 0.818175 -4.20107 0
M  V30 12867 C 1210.55 1.99496 -4.9609 0
M  V30 12868 C 1211.85 -0.17574 -5.22004 0
M  V30 12869 H 1213.54 -0.378188 -2.97002 0
M  V30 12870 H 1211.09 -0.183323 -1.42828 0
M  V30 12871 H 1213.04 1.93227 -3.74488 0
M  V30 12872 H 1211.77 2.08735 -2.51192 0
M  V30 12873 H 1210.42 0.286924 -3.65475 0
M  V30 12874 H 1210.07 2.69036 -4.25004 0
M  V30 12875 H 1209.77 1.62582 -5.6466 0
M  V30 12876 H 1211.3 2.55288 -5.54671 0
M  V30 12877 H 1212.71 0.288513 -5.72574 0
M  V30 12878 H 1211.11 -0.459549 -5.98338 0
M  V30 12879 H 1212.18 -1.09911 -4.72279 0
M  V30 12880 N 1213.52 1.56172 -0.211661 0
M  V30 12881 C 1214.75 2.02874 0.430905 0
M  V30 12882 C 1215.17 1.09064 1.53254 0
M  V30 12883 O 1214.53 0.0770408 1.81136 0
M  V30 12884 C 1214.58 3.4789 0.948933 0
M  V30 12885 O 1213.68 3.57213 2.0609 0
M  V30 12886 H 1213.02 0.656614 0.0987607 0
M  V30 12887 H 1215.55 2.01964 -0.327399 0
M  V30 12888 H 1215.56 3.88015 1.2613 0
M  V30 12889 H 1214.24 4.15656 0.142584 0
M  V30 12890 H 1212.81 3.28971 1.75592 0
M  V30 12891 N 1215 -0.0618163 1.57479 0
M  V30 12892 C 1216.24 -0.764296 1.89573 0
M  V30 12893 C 1216.6 -1.74235 0.806605 0
M  V30 12894 O 1217.8 -2.49067 1.0109 0
M  V30 12895 C 1216.07 -1.44503 3.26885 0
M  V30 12896 S 1217.63 -2.1812 3.80748 0
M  V30 12897 H 1214.45 -0.253946 0.664103 0
M  V30 12898 H 1217.05 -0.0200064 1.9549 0
M  V30 12899 H 1215.76 -0.719525 4.04043 0
M  V30 12900 H 1215.29 -2.22855 3.2419 0
M  V30 12901 H 1217.3 -3.44793 3.56837 0
M  V30 12902 N 1216.48 -1.54033 -0.333429 0
M  V30 12903 C 1217.89 -1.63107 -0.908455 0
M  V30 12904 C 1218.24 -0.518823 -1.89216 0
M  V30 12905 O 1217.36 0.34985 -2.13553 0
M  V30 12906 C 1217.96 -2.95657 -1.65447 0
M  V30 12907 C 1216.52 -3.0696 -2.17836 0
M  V30 12908 C 1215.66 -2.58617 -1.00063 0
M  V30 12909 H 1218.62 -1.58309 -0.11128 0
M  V30 12910 H 1218.64 -2.85263 -2.51804 0
M  V30 12911 H 1218.15 -3.76588 -0.938263 0
M  V30 12912 H 1216.25 -2.30683 -2.92602 0
M  V30 12913 H 1216.36 -4.12599 -2.43513 0
M  V30 12914 H 1214.73 -2.1427 -1.37697 0
M  V30 12915 H 1215.51 -3.41996 -0.298901 0
M  V30 12916 N 1217.95 0.594978 -1.45938 0
M  V30 12917 C 1218.86 1.73296 -1.58132 0
M  V30 12918 C 1219.88 1.67665 -0.465245 0
M  V30 12919 O 1221.06 1.87794 -0.727684 0
M  V30 12920 C 1218.12 3.09783 -1.55677 0
M  V30 12921 C 1217.18 3.26772 -2.78422 0
M  V30 12922 C 1216.42 4.56748 -2.76075 0
M  V30 12923 O 1216.64 5.39867 -1.84119 0
M  V30 12924 O 1215.57 4.76721 -3.67452 0
M  V30 12925 H 1219.4 1.65957 -2.54346 0
M  V30 12926 H 1216.98 0.760572 -1.28591 0
M  V30 12927 H 1218.87 3.91077 -1.56961 0
M  V30 12928 H 1217.54 3.17585 -0.626191 0
M  V30 12929 H 1216.45 2.45018 -2.82696 0
M  V30 12930 H 1217.78 3.23853 -3.70648 0
M  V30 12931 N 1219.43 1.33438 0.838571 0
M  V30 12932 C 1220.38 1.23698 1.96981 0
M  V30 12933 C 1221.37 0.138299 1.68835 0
M  V30 12934 O 1222.58 0.302278 1.77444 0
M  V30 12935 H 1218.96 0.383874 0.646641 0
M  V30 12936 H 1220.93 2.19337 2.02321 0
M  V30 12937 C 1219.68 0.993362 3.33208 0
M  V30 12938 H 1219 1.83104 3.55405 0
M  V30 12939 H 1220.44 0.965517 4.1286 0
M  V30 12940 C 1218.9 -0.303701 3.35528 0
M  V30 12941 O 1219.43 -1.3103 3.79729 0
M  V30 12942 N 1217.63 -0.331342 2.88705 0
M  V30 12943 H 1217.18 0.488351 2.52929 0
M  V30 12944 H 1217.14 -1.199 2.9064 0
M  V30 12945 N 1220.91 -1.05686 1.16912 0
M  V30 12946 C 1222.15 -1.80177 0.965182 0
M  V30 12947 C 1222.51 -1.85437 -0.497698 0
M  V30 12948 O 1223.72 -2.5597 -0.82054 0
M  V30 12949 C 1221.99 -3.20441 1.58279 0
M  V30 12950 S 1223.55 -4.11472 1.52435 0
M  V30 12951 H 1220.36 -0.620595 0.346962 0
M  V30 12952 H 1222.97 -1.26841 1.48767 0
M  V30 12953 H 1221.67 -3.14211 2.64006 0
M  V30 12954 H 1221.2 -3.78853 1.05989 0
M  V30 12955 H 1223.22 -4.93373 0.528876 0
M  V30 12956 N 1222.39 -0.968567 -1.24324 0
M  V30 12957 C 1223.8 -0.66964 -1.74278 0
M  V30 12958 C 1224.15 0.81461 -1.7849 0
M  V30 12959 O 1223.28 1.63736 -1.4149 0
M  V30 12960 C 1223.87 -1.20885 -3.165 0
M  V30 12961 C 1222.43 -0.959808 -3.63957 0
M  V30 12962 C 1221.58 -1.34365 -2.42573 0
M  V30 12963 H 1224.53 -1.14379 -1.10015 0
M  V30 12964 H 1224.55 -0.57555 -3.76122 0
M  V30 12965 H 1224.06 -2.28912 -3.13402 0
M  V30 12966 H 1222.16 0.104894 -3.72452 0
M  V30 12967 H 1222.27 -1.60606 -4.51378 0
M  V30 12968 H 1220.64 -0.762039 -2.43033 0
M  V30 12969 H 1221.42 -2.43343 -2.42155 0
M  V30 12970 N 1223.87 1.39211 -0.738786 0
M  V30 12971 C 1225.11 2.00733 -0.288817 0
M  V30 12972 C 1225.45 1.58494 1.1222 0
M  V30 12973 O 1224.72 0.815579 1.76575 0
M  V30 12974 C 1225 3.57928 -0.394956 0
M  V30 12975 C 1224.86 4.10174 -1.84601 0
M  V30 12976 C 1226.18 4.39548 0.220395 0
M  V30 12977 H 1223.29 0.729276 -0.106418 0
M  V30 12978 H 1225.94 1.65365 -0.935652 0
M  V30 12979 H 1224.09 3.88188 0.155744 0
M  V30 12980 H 1225.76 3.90618 -2.45388 0
M  V30 12981 H 1224 3.63593 -2.36607 0
M  V30 12982 H 1224.67 5.19305 -1.87152 0
M  V30 12983 H 1227.15 4.15354 -0.249098 0
M  V30 12984 H 1226.02 5.48778 0.115806 0
M  V30 12985 H 1226.29 4.22341 1.30691 0
M  V30 12986 N 1225.34 0.486708 1.49896 0
M  V30 12987 C 1226.25 -0.304222 2.32619 0
M  V30 12988 C 1227.27 -0.981103 1.43702 0
M  V30 12989 O 1228.45 -0.965639 1.76741 0
M  V30 12990 C 1225.51 -1.36301 3.18783 0
M  V30 12991 C 1224.57 -0.701082 4.23537 0
M  V30 12992 C 1223.81 -1.70943 5.05583 0
M  V30 12993 O 1224.03 -2.93773 4.88931 0
M  V30 12994 O 1222.96 -1.27263 5.88292 0
M  V30 12995 H 1226.79 0.37248 3.01407 0
M  V30 12996 H 1224.37 0.248277 1.47323 0
M  V30 12997 H 1226.26 -1.97594 3.72202 0
M  V30 12998 H 1224.93 -2.0229 2.52706 0
M  V30 12999 H 1223.84 -0.0487926 3.74068 0
M  V30 13000 H 1225.17 -0.0838817 4.92129 0
M  V30 13001 N 1226.82 -1.56058 0.219941 0
M  V30 13002 C 1227.75 -2.2321 -0.685547 0
M  V30 13003 C 1228.73 -1.20328 -1.20229 0
M  V30 13004 O 1229.92 -1.48909 -1.24659 0
M  V30 13005 C 1227.05 -2.91076 -1.89452 0
M  V30 13006 C 1226 -4.00415 -1.51169 0
M  V30 13007 C 1225.33 -4.55569 -2.79931 0
M  V30 13008 C 1226.63 -5.17549 -0.702896 0
M  V30 13009 H 1228.32 -2.99136 -0.125671 0
M  V30 13010 H 1225.87 -1.43879 -0.0590043 0
M  V30 13011 H 1227.82 -3.36744 -2.53341 0
M  V30 13012 H 1226.55 -2.12594 -2.47934 0
M  V30 13013 H 1225.21 -3.55475 -0.896275 0
M  V30 13014 H 1224.85 -3.73819 -3.36553 0
M  V30 13015 H 1224.55 -5.29361 -2.55049 0
M  V30 13016 H 1226.08 -5.03955 -3.44764 0
M  V30 13017 H 1227.49 -5.59608 -1.24544 0
M  V30 13018 H 1225.89 -5.97563 -0.551234 0
M  V30 13019 H 1226.96 -4.84027 0.29083 0
M  V30 13020 N 1228.3 0.053464 -1.57509 0
M  V30 13021 C 1229.53 0.760429 -1.92096 0
M  V30 13022 C 1229.94 1.70703 -0.815905 0
M  V30 13023 O 1229.28 1.82398 0.218332 0
M  V30 13024 C 1229.34 1.59255 -3.22301 0
M  V30 13025 C 1229.01 0.813355 -4.49704 0
M  V30 13026 C 1230.01 0.124402 -5.19751 0
M  V30 13027 C 1227.69 0.775106 -4.96284 0
M  V30 13028 C 1229.68 -0.59237 -6.34641 0
M  V30 13029 C 1227.37 0.0545728 -6.11076 0
M  V30 13030 C 1228.37 -0.627948 -6.80107 0
M  V30 13031 O 1228.06 -1.33683 -7.92707 0
M  V30 13032 H 1227.79 0.220287 -0.639101 0
M  V30 13033 H 1230.34 0.0224505 -2.05388 0
M  V30 13034 H 1228.57 2.37376 -3.05269 0
M  V30 13035 H 1230.26 2.17987 -3.42398 0
M  V30 13036 H 1231.03 0.145141 -4.84783 0
M  V30 13037 H 1226.91 1.29583 -4.42413 0
M  V30 13038 H 1230.45 -1.12565 -6.88458 0
M  V30 13039 H 1226.35 0.0318254 -6.45492 0
M  V30 13040 H 1227.12 -1.24799 -8.0893 0
M  V30 13041 N 1229.78 1.54207 0.325255 0
M  V30 13042 C 1230.73 1.84197 1.42036 0
M  V30 13043 C 1231.72 0.71375 1.53629 0
M  V30 13044 O 1232.93 0.897385 1.56035 0
M  V30 13045 H 1229.3 0.583848 0.473947 0
M  V30 13046 H 1231.27 2.7578 1.13965 0
M  V30 13047 C 1230.02 2.08459 2.78281 0
M  V30 13048 H 1229.35 2.94734 2.70133 0
M  V30 13049 H 1230.79 2.33398 3.5398 0
M  V30 13050 C 1229.24 0.875615 3.25322 0
M  V30 13051 O 1229.77 0.0840387 4.01612 0
M  V30 13052 N 1227.98 0.687721 2.82345 0
M  V30 13053 H 1227.53 1.33307 2.20425 0
M  V30 13054 H 1227.49 -0.119687 3.14172 0
M  V30 13055 N 1231.26 -0.58723 1.46251 0
M  V30 13056 C 1232.19 -1.70694 1.5933 0
M  V30 13057 C 1233.17 -1.64208 0.443831 0
M  V30 13058 O 1234.35 -1.82294 0.669516 0
M  V30 13059 C 1231.48 -3.0933 1.579 0
M  V30 13060 C 1230.44 -3.30643 2.7177 0
M  V30 13061 C 1229.76 -4.69761 2.554 0
M  V30 13062 C 1231.06 -3.18916 4.1363 0
M  V30 13063 H 1232.76 -1.60004 2.53059 0
M  V30 13064 H 1230.3 -0.768343 1.21789 0
M  V30 13065 H 1232.26 -3.87479 1.65644 0
M  V30 13066 H 1230.98 -3.20907 0.60712 0
M  V30 13067 H 1229.64 -2.54892 2.63488 0
M  V30 13068 H 1229.29 -4.78098 1.56306 0
M  V30 13069 H 1228.99 -4.84974 3.31774 0
M  V30 13070 H 1230.51 -5.50084 2.65028 0
M  V30 13071 H 1231.93 -3.86915 4.23048 0
M  V30 13072 H 1230.32 -3.45653 4.90555 0
M  V30 13073 H 1231.39 -2.1606 4.34104 0
M  V30 13074 N 1232.74 -1.33881 -0.831482 0
M  V30 13075 C 1233.67 -1.19089 -1.94661 0
M  V30 13076 C 1234.65 -0.0845706 -1.6238 0
M  V30 13077 O 1235.83 -0.248163 -1.86859 0
M  V30 13078 C 1232.96 -0.828223 -3.28418 0
M  V30 13079 C 1232 -1.94309 -3.79666 0
M  V30 13080 S 1232.84 -3.55524 -4.00454 0
M  V30 13081 C 1233.99 -3.21279 -5.3715 0
M  V30 13082 H 1234.23 -2.13484 -2.0691 0
M  V30 13083 H 1231.76 -1.18809 -0.986098 0
M  V30 13084 H 1233.72 -0.625759 -4.05702 0
M  V30 13085 H 1232.38 0.0972457 -3.13949 0
M  V30 13086 H 1231.57 -1.64288 -4.76472 0
M  V30 13087 H 1231.17 -2.1026 -3.093 0
M  V30 13088 H 1233.46 -2.72563 -6.20255 0
M  V30 13089 H 1234.41 -4.17193 -5.7215 0
M  V30 13090 H 1234.82 -2.57683 -5.02255 0
M  V30 13091 N 1234.21 1.05064 -1.1747 0
M  V30 13092 C 1235.63 1.30256 -0.922248 0
M  V30 13093 C 1235.83 1.97119 0.417896 0
M  V30 13094 O 1234.89 2.24557 1.15457 0
M  V30 13095 C 1236.2 2.17109 -2.08049 0
M  V30 13096 C 1237.75 2.30487 -2.11766 0
M  V30 13097 C 1238.22 3.20701 -3.26979 0
M  V30 13098 N 1239.71 3.28287 -3.26775 0
M  V30 13099 C 1240.45 3.98218 -4.12565 0
M  V30 13100 N 1239.94 4.70567 -5.08467 0
M  V30 13101 N 1241.74 3.94395 -4.00511 0
M  V30 13102 H 1233.89 0.600653 -2.0373 0
M  V30 13103 H 1236.15 0.327475 -0.889643 0
M  V30 13104 H 1235.86 1.75273 -3.04914 0
M  V30 13105 H 1235.73 3.1775 -2.03261 0
M  V30 13106 H 1238.12 2.71564 -1.15486 0
M  V30 13107 H 1238.2 1.29471 -2.20615 0
M  V30 13108 H 1237.84 2.80337 -4.23525 0
M  V30 13109 H 1237.77 4.21725 -3.15366 0
M  V30 13110 H 1240.26 2.76739 -2.5734 0
M  V30 13111 H 1240.58 5.21492 -5.70321 0
M  V30 13112 H 1238.92 4.69505 -5.12436 0
M  V30 13113 H 1242.11 3.37 -3.24882 0
M  V30 13114 H 1242.29 4.48626 -4.67588 0
M  V30 13115 N 1235.69 0.975146 1.23809 0
M  V30 13116 C 1236.62 0.530389 2.27396 0
M  V30 13117 C 1237.6 -0.433763 1.64476 0
M  V30 13118 O 1238.79 -0.32827 1.91405 0
M  V30 13119 C 1235.92 -0.173066 3.46869 0
M  V30 13120 C 1234.87 0.707844 4.22106 0
M  V30 13121 C 1234.2 -0.127527 5.34548 0
M  V30 13122 C 1235.5 1.99609 4.82652 0
M  V30 13123 H 1237.19 1.39622 2.64851 0
M  V30 13124 H 1234.74 0.672802 1.27316 0
M  V30 13125 H 1236.69 -0.495481 4.18477 0
M  V30 13126 H 1235.41 -1.0733 3.0846 0
M  V30 13127 H 1234.07 1.01364 3.52308 0
M  V30 13128 H 1233.72 -1.02814 4.9238 0
M  V30 13129 H 1233.42 0.458728 5.85807 0
M  V30 13130 H 1234.95 -0.444443 6.0898 0
M  V30 13131 H 1236.36 1.73878 5.46296 0
M  V30 13132 H 1234.76 2.52969 5.44175 0
M  V30 13133 H 1235.83 2.68629 4.03691 0
M  V30 13134 N 1237.17 -1.38817 0.746158 0
M  V30 13135 C 1238.41 -2.02129 0.303843 0
M  V30 13136 C 1238.77 -1.57943 -1.0917 0
M  V30 13137 O 1239.97 -2.13532 -1.63272 0
M  V30 13138 C 1238.25 -3.5499 0.414379 0
M  V30 13139 S 1239.8 -4.38767 0.0535495 0
M  V30 13140 H 1236.62 -0.701084 0.118329 0
M  V30 13141 H 1239.22 -1.69444 0.975137 0
M  V30 13142 H 1237.93 -3.84638 1.43114 0
M  V30 13143 H 1237.46 -3.92442 -0.274355 0
M  V30 13144 H 1239.47 -4.82469 -1.15921 0
M  V30 13145 N 1238.65 -0.49465 -1.49636 0
M  V30 13146 C 1239.89 0.0442152 -2.03352 0
M  V30 13147 C 1240.25 1.35275 -1.36815 0
M  V30 13148 O 1239.54 1.85158 -0.492671 0
M  V30 13149 C 1239.74 0.259743 -3.56455 0
M  V30 13150 C 1239.56 -1.02635 -4.37831 0
M  V30 13151 C 1238.33 -1.57636 -4.80082 0
M  V30 13152 C 1240.53 -1.92797 -4.76795 0
M  V30 13153 N 1238.51 -2.80902 -5.45864 0
M  V30 13154 C 1239.89 -3.00644 -5.4223 0
M  V30 13155 C 1241.94 -1.93552 -4.5874 0
M  V30 13156 C 1240.64 -4.09265 -5.91519 0
M  V30 13157 C 1242.67 -3.01144 -5.08986 0
M  V30 13158 C 1242.03 -4.07709 -5.74415 0
M  V30 13159 H 1238.13 -0.0244415 -0.781618 0
M  V30 13160 H 1240.71 -0.668098 -1.82878 0
M  V30 13161 H 1238.89 0.941108 -3.76826 0
M  V30 13162 H 1240.62 0.795048 -3.96814 0
M  V30 13163 H 1237.37 -1.12236 -4.60109 0
M  V30 13164 H 1237.8 -3.43565 -5.83345 0
M  V30 13165 H 1242.44 -1.12473 -4.07566 0
M  V30 13166 H 1240.16 -4.91146 -6.41717 0
M  V30 13167 H 1243.74 -3.02739 -4.9683 0
M  V30 13168 H 1242.62 -4.89591 -6.12593 0
M  V30 13169 N 1240.13 1.55939 -0.228214 0
M  V30 13170 C 1241.35 2.0332 0.409364 0
M  V30 13171 C 1241.78 1.10683 1.52088 0
M  V30 13172 O 1241.13 0.0962484 1.81044 0
M  V30 13173 C 1241.18 3.48877 0.911981 0
M  V30 13174 O 1240.29 3.59378 2.02289 0
M  V30 13175 H 1239.63 0.657625 0.0917909 0
M  V30 13176 H 1242.16 2.01605 -0.348802 0
M  V30 13177 H 1242.17 3.89331 1.22007 0
M  V30 13178 H 1240.84 4.15783 0.0984902 0
M  V30 13179 H 1239.42 3.30815 1.72093 0
M  V30 13180 N 1241.6 -0.0451101 1.57535 0
M  V30 13181 C 1242.55 -1.05066 2.05499 0
M  V30 13182 C 1243.52 -1.36884 0.940843 0
M  V30 13183 O 1244.71 -1.47497 1.21034 0
M  V30 13184 C 1241.85 -2.35139 2.52594 0
M  V30 13185 C 1240.96 -2.0962 3.77735 0
M  V30 13186 C 1240.09 -3.33447 4.13505 0
M  V30 13187 C 1239.13 -3.03411 5.31609 0
M  V30 13188 N 1238.27 -4.19644 5.62888 0
M  V30 13189 H 1243.11 -0.63469 2.91163 0
M  V30 13190 H 1240.65 -0.30179 1.43971 0
M  V30 13191 H 1242.61 -3.11118 2.7796 0
M  V30 13192 H 1241.24 -2.74489 1.69869 0
M  V30 13193 H 1240.29 -1.24211 3.59549 0
M  V30 13194 H 1241.6 -1.83452 4.63839 0
M  V30 13195 H 1240.75 -4.17805 4.39914 0
M  V30 13196 H 1239.49 -3.62715 3.2602 0
M  V30 13197 H 1238.5 -2.17453 5.04969 0
M  V30 13198 H 1239.72 -2.75438 6.20734 0
M  V30 13199 H 1237.67 -4.48893 4.78363 0
M  V30 13200 H 1237.59 -3.96843 6.43468 0
M  V30 13201 H 1238.85 -5.04921 5.93865 0
M  V30 13202 N 1243.08 -1.54377 -0.317073 0
M  V30 13203 C 1244.01 -1.8721 -1.39552 0
M  V30 13204 C 1244.99 -0.729483 -1.53664 0
M  V30 13205 O 1246.18 -0.983799 -1.67437 0
M  V30 13206 C 1243.31 -2.1052 -2.76222 0
M  V30 13207 C 1242.26 -3.26366 -2.76892 0
M  V30 13208 C 1241.59 -3.35061 -4.16699 0
M  V30 13209 C 1242.89 -4.63862 -2.40061 0
M  V30 13210 H 1244.58 -2.77532 -1.12323 0
M  V30 13211 H 1242.13 -1.33536 -0.538897 0
M  V30 13212 H 1244.08 -2.32073 -3.51739 0
M  V30 13213 H 1242.81 -1.16953 -3.04942 0
M  V30 13214 H 1241.46 -3.0471 -2.03831 0
M  V30 13215 H 1241.11 -2.39041 -4.4257 0
M  V30 13216 H 1240.81 -4.12923 -4.18053 0
M  V30 13217 H 1242.34 -3.58856 -4.94019 0
M  V30 13218 H 1243.75 -4.85252 -3.05292 0
M  V30 13219 H 1242.15 -5.44321 -2.52655 0
M  V30 13220 H 1243.22 -4.6567 -1.35202 0
M  V30 13221 N 1244.56 0.579466 -1.4656 0
M  V30 13222 C 1245.97 1.1616 -1.46164 0
M  V30 13223 C 1246.32 1.95134 -0.20423 0
M  V30 13224 O 1245.45 2.05022 0.692457 0
M  V30 13225 C 1246.04 2.11322 -2.64818 0
M  V30 13226 C 1244.6 2.64852 -2.67452 0
M  V30 13227 C 1243.75 1.40786 -2.38903 0
M  V30 13228 H 1246.7 0.367229 -1.54393 0
M  V30 13229 H 1246.72 2.94839 -2.4052 0
M  V30 13230 H 1246.23 1.53815 -3.56318 0
M  V30 13231 H 1244.33 3.26219 -1.80032 0
M  V30 13232 H 1244.45 3.07366 -3.67509 0
M  V30 13233 H 1242.81 1.70707 -1.89027 0
M  V30 13234 H 1243.59 0.851049 -3.32584 0
M  V30 13235 N 1246.04 1.3432 0.824371 0
M  V30 13236 C 1247 1.25672 1.91675 0
M  V30 13237 C 1248 0.172269 1.59875 0
M  V30 13238 O 1249.19 0.424794 1.68941 0
M  V30 13239 C 1246.32 0.939928 3.27686 0
M  V30 13240 H 1247.52 2.22785 2.00766 0
M  V30 13241 H 1245.07 1.18587 1.01817 0
M  V30 13242 H 1245.8 -0.0280898 3.24288 0
M  V30 13243 H 1245.59 1.72432 3.5215 0
M  V30 13244 H 1247.08 0.904553 4.07686 0
M  V30 13245 N 1247.52 -1.0444 1.18026 0
M  V30 13246 C 1248.79 -1.74533 0.883045 0
M  V30 13247 C 1249.17 -2.01944 -0.614975 0
M  V30 13248 O 1248.52 -1.66158 -1.56855 0
M  V30 13249 C 1248.73 -3.0332 1.72621 0
M  V30 13250 C 1250.08 -3.77128 1.9509 0
M  V30 13251 O 1251.1 -3.13209 1.69643 0
M  V30 13252 O 1249.96 -4.92001 2.37903 0
M  V30 13253 H 1247.06 -0.759315 0.327673 0
M  V30 13254 H 1249.6 -1.10539 1.2876 0
M  V30 13255 H 1248.37 -2.79171 2.74188 0
M  V30 13256 H 1248 -3.75052 1.31993 0
M  V30 13257 N 1248.99 -0.981699 -1.2329 0
M  V30 13258 C 1250.41 -0.690539 -1.43888 0
M  V30 13259 C 1250.61 0.742816 -1.87309 0
M  V30 13260 O 1249.67 1.5151 -2.01993 0
M  V30 13261 C 1250.98 -1.68657 -2.48948 0
M  V30 13262 C 1252.53 -1.70076 -2.62761 0
M  V30 13263 C 1253 -2.68513 -3.71032 0
M  V30 13264 N 1254.49 -2.67039 -3.78476 0
M  V30 13265 C 1255.23 -3.39874 -4.61815 0
M  V30 13266 N 1254.72 -4.22273 -5.49233 0
M  V30 13267 N 1256.52 -3.28633 -4.56023 0
M  V30 13268 H 1248.67 -1.90758 -0.934077 0
M  V30 13269 H 1250.93 -0.822058 -0.472149 0
M  V30 13270 H 1250.64 -2.7117 -2.23964 0
M  V30 13271 H 1250.51 -1.47045 -3.47358 0
M  V30 13272 H 1252.9 -0.682673 -2.87095 0
M  V30 13273 H 1252.98 -1.95754 -1.64663 0
M  V30 13274 H 1252.62 -3.70464 -3.47446 0
M  V30 13275 H 1252.55 -2.40109 -4.68674 0
M  V30 13276 H 1255.04 -2.07241 -3.16006 0
M  V30 13277 H 1255.36 -4.74702 -6.09818 0
M  V30 13278 H 1253.7 -4.26364 -5.48852 0
M  V30 13279 H 1256.89 -2.6371 -3.86749 0
M  V30 13280 H 1257.07 -3.85656 -5.20743 0
M  V30 13281 N 1250.47 1.3842 -0.753509 0
M  V30 13282 C 1251.88 1.82847 -0.377331 0
M  V30 13283 C 1252.23 1.62867 1.09401 0
M  V30 13284 O 1251.36 1.12981 1.84565 0
M  V30 13285 C 1251.95 3.31945 -0.678095 0
M  V30 13286 C 1250.51 3.7472 -0.355196 0
M  V30 13287 C 1249.66 2.61193 -0.931311 0
M  V30 13288 H 1252.61 1.2715 -0.949667 0
M  V30 13289 H 1252.63 3.80475 0.0437292 0
M  V30 13290 H 1252.14 3.46455 -1.74902 0
M  V30 13291 H 1250.25 3.65789 0.70915 0
M  V30 13292 H 1250.36 4.71487 -0.850693 0
M  V30 13293 H 1248.72 2.5219 -0.356695 0
M  V30 13294 H 1249.51 2.78503 -2.00727 0
M  V30 13295 N 1251.95 0.502579 1.49372 0
M  V30 13296 C 1253.18 -0.0403087 2.07361 0
M  V30 13297 C 1253.6 -1.29918 1.36026 0
M  V30 13298 O 1252.96 -1.76428 0.417488 0
M  V30 13299 C 1253.01 -0.275362 3.59547 0
M  V30 13300 O 1252.11 -1.34975 3.89686 0
M  V30 13301 H 1251.45 0.0269268 0.663454 0
M  V30 13302 H 1253.98 0.702652 1.92156 0
M  V30 13303 H 1253.99 -0.506392 4.04845 0
M  V30 13304 H 1252.67 0.644382 4.10878 0
M  V30 13305 H 1251.24 -1.10355 3.56197 0
M  V30 13306 N 1253.43 -1.55816 0.23648 0
M  V30 13307 C 1254.68 -1.98686 -0.391146 0
M  V30 13308 C 1255 -1.12443 -1.58703 0
M  V30 13309 O 1254.26 -0.172805 -1.94936 0
M  V30 13310 C 1254.56 -3.47039 -0.85434 0
M  V30 13311 C 1254.22 -4.50299 0.232651 0
M  V30 13312 C 1252.89 -4.78259 0.531218 0
M  V30 13313 C 1255.24 -5.1215 0.967027 0
M  V30 13314 C 1252.57 -5.65347 1.56842 0
M  V30 13315 C 1254.92 -6.00363 1.99367 0
M  V30 13316 C 1253.58 -6.2666 2.299 0
M  V30 13317 H 1252.85 -0.727045 -0.14313 0
M  V30 13318 H 1255.5 -1.88419 0.342125 0
M  V30 13319 H 1253.8 -3.54585 -1.66663 0
M  V30 13320 H 1255.5 -3.7759 -1.35005 0
M  V30 13321 H 1252.09 -4.28599 -0.0102014 0
M  V30 13322 H 1256.27 -4.90606 0.749609 0
M  V30 13323 H 1251.53 -5.83981 1.81043 0
M  V30 13324 H 1255.7 -6.47335 2.56769 0
M  V30 13325 H 1253.33 -6.93938 3.1041 0
M  V30 13326 N 1254.91 0.036755 -1.57557 0
M  V30 13327 C 1256.13 0.741086 -1.93172 0
M  V30 13328 C 1256.55 1.69303 -0.835589 0
M  V30 13329 O 1255.91 1.81523 0.1886 0
M  V30 13330 C 1255.96 1.50477 -3.28693 0
M  V30 13331 O 1255.68 0.591046 -4.34095 0
M  V30 13332 C 1257.18 2.30695 -3.78543 0
M  V30 13333 H 1254.4 0.208731 -0.637709 0
M  V30 13334 H 1256.94 -0.00342776 -2.045 0
M  V30 13335 H 1255.1 2.20123 -3.18786 0
M  V30 13336 H 1255.51 1.12579 -5.12276 0
M  V30 13337 H 1256.99 2.79685 -4.759 0
M  V30 13338 H 1257.46 3.11778 -3.0934 0
M  V30 13339 H 1258.07 1.66138 -3.91508 0
M  V30 13340 N 1256.39 1.54543 0.308881 0
M  V30 13341 C 1257.61 1.77753 1.06857 0
M  V30 13342 C 1258.04 0.531616 1.80431 0
M  V30 13343 O 1257.39 -0.517513 1.73757 0
M  V30 13344 C 1257.44 2.97968 2.03094 0
M  V30 13345 O 1256.55 2.70541 3.11257 0
M  V30 13346 H 1255.89 0.588576 0.307368 0
M  V30 13347 H 1258.42 2.01607 0.348703 0
M  V30 13348 H 1258.43 3.25722 2.45702 0
M  V30 13349 H 1257.1 3.88314 1.48948 0
M  V30 13350 H 1255.68 2.53781 2.7322 0
M  V30 13351 N 1257.86 -0.571685 1.46866 0
M  V30 13352 C 1259.11 -1.32574 1.5201 0
M  V30 13353 C 1259.43 -1.94762 0.180838 0
M  V30 13354 O 1260.63 -2.71276 0.110158 0
M  V30 13355 C 1259.09 -2.40331 2.67897 0
M  V30 13356 C 1258.7 -1.84398 4.08291 0
M  V30 13357 C 1260.44 -3.17009 2.82321 0
M  V30 13358 C 1258.35 -2.89849 5.15501 0
M  V30 13359 H 1257.28 -0.498428 0.565761 0
M  V30 13360 H 1259.93 -0.608853 1.73105 0
M  V30 13361 H 1258.31 -3.14869 2.40153 0
M  V30 13362 H 1259.48 -1.16329 4.45875 0
M  V30 13363 H 1257.8 -1.20351 3.98628 0
M  V30 13364 H 1260.4 -3.95729 3.59587 0
M  V30 13365 H 1260.74 -3.70292 1.90236 0
M  V30 13366 H 1261.27 -2.4958 3.09765 0
M  V30 13367 H 1258.01 -2.4144 6.09415 0
M  V30 13368 H 1257.53 -3.56372 4.82451 0
M  V30 13369 H 1259.21 -3.53603 5.41825 0
M  V30 13370 N 1259.34 -1.34755 -0.817236 0
M  V30 13371 C 1260.29 -1.23351 -1.91751 0
M  V30 13372 C 1261.28 -0.131215 -1.60364 0
M  V30 13373 O 1262.47 -0.361425 -1.73271 0
M  V30 13374 C 1259.6 -0.996932 -3.28506 0
M  V30 13375 C 1258.68 -2.14265 -3.65993 0
M  V30 13376 N 1259.07 -3.39424 -3.75 0
M  V30 13377 C 1257.37 -2.05416 -3.95879 0
M  V30 13378 C 1258.07 -4.14701 -4.07919 0
M  V30 13379 N 1257.05 -3.43349 -4.21441 0
M  V30 13380 H 1260.85 -2.18191 -1.96901 0
M  V30 13381 H 1258.36 -1.27075 -1.01122 0
M  V30 13382 H 1260.36 -0.89613 -4.07155 0
M  V30 13383 H 1259.02 -0.0572789 -3.24649 0
M  V30 13384 H 1260.03 -3.73907 -3.58349 0
M  V30 13385 H 1256.71 -1.19242 -4.0011 0
M  V30 13386 H 1258.1 -5.22808 -4.22044 0
M  V30 13387 N 1260.82 1.03812 -1.18578 0
M  V30 13388 C 1262.24 1.29271 -0.936011 0
M  V30 13389 C 1262.44 1.97551 0.396965 0
M  V30 13390 O 1261.49 2.25769 1.13069 0
M  V30 13391 C 1262.8 2.1489 -2.1034 0
M  V30 13392 C 1264.35 2.28228 -2.14198 0
M  V30 13393 C 1264.83 3.17214 -3.30362 0
M  V30 13394 N 1266.32 3.24802 -3.30239 0
M  V30 13395 C 1267.05 3.9382 -4.16765 0
M  V30 13396 N 1266.55 4.65147 -5.1343 0
M  V30 13397 N 1268.34 3.90125 -4.04671 0
M  V30 13398 H 1260.49 0.579011 -2.04356 0
M  V30 13399 H 1262.76 0.318021 -0.893066 0
M  V30 13400 H 1262.46 1.72029 -3.06755 0
M  V30 13401 H 1262.34 3.15576 -2.06619 0
M  V30 13402 H 1264.72 2.70324 -1.18359 0
M  V30 13403 H 1264.8 1.27124 -2.21976 0
M  V30 13404 H 1264.45 2.75829 -4.26475 0
M  V30 13405 H 1264.38 4.18356 -3.19821 0
M  V30 13406 H 1266.87 2.73994 -2.60261 0
M  V30 13407 H 1267.18 5.15414 -5.7582 0
M  V30 13408 H 1265.53 4.64043 -5.17387 0
M  V30 13409 H 1268.72 3.33536 -3.28438 0
M  V30 13410 H 1268.89 4.43641 -4.7232 0
M  V30 13411 N 1262.3 0.988223 1.22768 0
M  V30 13412 C 1263.55 0.656941 1.90702 0
M  V30 13413 C 1263.86 -0.814058 1.77855 0
M  V30 13414 O 1265.07 -1.25673 2.40663 0
M  V30 13415 C 1263.52 1.12445 3.41883 0
M  V30 13416 C 1263.13 2.62034 3.63376 0
M  V30 13417 C 1264.87 0.867277 4.15546 0
M  V30 13418 C 1262.78 3.02412 5.08233 0
M  V30 13419 H 1261.71 0.242012 0.714105 0
M  V30 13420 H 1264.36 1.19716 1.39069 0
M  V30 13421 H 1262.74 0.512386 3.92671 0
M  V30 13422 H 1263.92 3.28546 3.23101 0
M  V30 13423 H 1262.23 2.85583 3.03037 0
M  V30 13424 H 1264.83 1.14471 5.22303 0
M  V30 13425 H 1265.17 -0.196611 4.15835 0
M  V30 13426 H 1265.71 1.4413 3.70771 0
M  V30 13427 H 1262.44 4.07957 5.1308 0
M  V30 13428 H 1261.96 2.406 5.49429 0
M  V30 13429 H 1263.64 2.93452 5.76624 0
M  V30 13430 N 1263.78 -1.38018 0.760839 0
M  V30 13431 C 1264.71 -2.32995 0.153557 0
M  V30 13432 C 1265.69 -1.55234 -0.695448 0
M  V30 13433 O 1266.87 -1.8352 -0.635148 0
M  V30 13434 C 1264 -3.39437 -0.734811 0
M  V30 13435 C 1262.96 -4.27998 0.0120287 0
M  V30 13436 C 1262.28 -5.25359 -0.995067 0
M  V30 13437 C 1263.58 -5.08687 1.18468 0
M  V30 13438 H 1265.28 -2.8403 0.946956 0
M  V30 13439 H 1262.82 -1.36562 0.456816 0
M  V30 13440 H 1264.77 -4.0485 -1.16938 0
M  V30 13441 H 1263.5 -2.86901 -1.56061 0
M  V30 13442 H 1262.16 -3.64102 0.427254 0
M  V30 13443 H 1261.81 -4.69108 -1.81512 0
M  V30 13444 H 1261.51 -5.85469 -0.499969 0
M  V30 13445 H 1263.03 -5.93648 -1.4288 0
M  V30 13446 H 1264.44 -5.67299 0.8273 0
M  V30 13447 H 1262.84 -5.78068 1.61112 0
M  V30 13448 H 1263.91 -4.42 1.99409 0
M  V30 13449 N 1265.25 -0.510493 -1.49103 0
M  V30 13450 C 1266.16 0.267176 -2.33074 0
M  V30 13451 C 1267.18 0.958117 -1.45245 0
M  V30 13452 O 1268.36 0.937399 -1.78255 0
M  V30 13453 C 1265.42 1.31212 -3.20911 0
M  V30 13454 C 1264.48 0.633613 -4.24598 0
M  V30 13455 C 1263.71 1.62878 -5.08239 0
M  V30 13456 O 1263.94 2.85958 -4.93543 0
M  V30 13457 O 1262.87 1.17887 -5.90242 0
M  V30 13458 H 1266.7 -0.420384 -3.00776 0
M  V30 13459 H 1264.28 -0.271683 -1.46909 0
M  V30 13460 H 1266.16 1.91647 -3.75299 0
M  V30 13461 H 1264.84 1.98244 -2.55892 0
M  V30 13462 H 1263.75 -0.0107246 -3.74098 0
M  V30 13463 H 1265.08 0.0055777 -4.922 0
M  V30 13464 N 1266.73 1.55688 -0.24474 0
M  V30 13465 C 1268.15 1.59219 0.110159 0
M  V30 13466 C 1268.35 1.26187 1.57096 0
M  V30 13467 O 1267.4 1.00815 2.31501 0
M  V30 13468 C 1268.72 2.99764 -0.237075 0
M  V30 13469 C 1270.26 3.12475 -0.181198 0
M  V30 13470 C 1270.74 4.55236 -0.502435 0
M  V30 13471 N 1272.23 4.60981 -0.452855 0
M  V30 13472 C 1272.97 5.69418 -0.674605 0
M  V30 13473 N 1272.46 6.86125 -0.959366 0
M  V30 13474 N 1274.25 5.5883 -0.605459 0
M  V30 13475 H 1266.41 1.7543 -1.19741 0
M  V30 13476 H 1268.67 0.816537 -0.481634 0
M  V30 13477 H 1268.37 3.28666 -1.25185 0
M  V30 13478 H 1268.25 3.74662 0.436859 0
M  V30 13479 H 1270.64 2.83355 0.824248 0
M  V30 13480 H 1270.72 2.39857 -0.888952 0
M  V30 13481 H 1270.36 4.85077 -1.50543 0
M  V30 13482 H 1270.29 5.26111 0.226773 0
M  V30 13483 H 1272.78 3.77128 -0.241401 0
M  V30 13484 H 1273.09 7.64699 -1.11605 0
M  V30 13485 H 1271.44 6.87814 -0.996816 0
M  V30 13486 H 1274.63 4.6653 -0.383053 0
M  V30 13487 H 1274.8 6.43268 -0.781673 0
M  V30 13488 N 1268.21 -0.0283989 1.57574 0
M  V30 13489 C 1269.14 -1.06191 2.01987 0
M  V30 13490 C 1270.12 -1.35131 0.90434 0
M  V30 13491 O 1271.3 -1.47777 1.17023 0
M  V30 13492 C 1268.43 -2.39646 2.39348 0
M  V30 13493 C 1267.48 -2.26558 3.6135 0
M  V30 13494 S 1268.31 -1.61839 5.10459 0
M  V30 13495 C 1269.47 -2.96783 5.51063 0
M  V30 13496 H 1269.7 -0.683625 2.89333 0
M  V30 13497 H 1267.23 -0.238394 1.52548 0
M  V30 13498 H 1269.19 -3.16394 2.61544 0
M  V30 13499 H 1267.85 -2.74622 1.52452 0
M  V30 13500 H 1267.04 -3.25079 3.85149 0
M  V30 13501 H 1266.65 -1.57954 3.39008 0
M  V30 13502 H 1268.94 -3.93111 5.51788 0
M  V30 13503 H 1269.88 -2.77716 6.51367 0
M  V30 13504 H 1270.29 -2.99386 4.78569 0
M  V30 13505 N 1269.69 -1.54705 -0.300681 0
M  V30 13506 C 1270.93 -1.75738 -1.04381 0
M  V30 13507 C 1271.29 -0.532138 -1.84478 0
M  V30 13508 O 1272.49 -0.620213 -2.61547 0
M  V30 13509 C 1270.76 -3.01095 -1.92553 0
M  V30 13510 S 1272.32 -3.43132 -2.73507 0
M  V30 13511 H 1269.14 -0.617737 -0.352025 0
M  V30 13512 H 1271.74 -1.9291 -0.317187 0
M  V30 13513 H 1270.45 -3.88393 -1.32585 0
M  V30 13514 H 1269.98 -2.86512 -2.69582 0
M  V30 13515 H 1271.99 -3.00227 -3.95067 0
M  V30 13516 N 1271.17 0.563888 -1.47167 0
M  V30 13517 C 1272.08 1.69903 -1.61772 0
M  V30 13518 C 1273.09 1.6664 -0.500705 0
M  V30 13519 O 1274.27 1.86209 -0.767354 0
M  V30 13520 C 1271.33 3.06411 -1.62213 0
M  V30 13521 C 1270.39 3.20793 -2.8529 0
M  V30 13522 C 1269.63 4.50789 -2.85701 0
M  V30 13523 O 1269.85 5.3584 -1.95529 0
M  V30 13524 O 1268.78 4.68819 -3.77481 0
M  V30 13525 H 1272.61 1.60525 -2.57809 0
M  V30 13526 H 1270.2 0.733125 -1.30175 0
M  V30 13527 H 1272.08 3.87659 -1.65221 0
M  V30 13528 H 1270.75 3.16186 -0.693415 0
M  V30 13529 H 1269.66 2.38967 -2.87829 0
M  V30 13530 H 1270.99 3.15918 -3.77434 0
M  V30 13531 N 1272.64 1.35187 0.810078 0
M  V30 13532 C 1274.06 1.15149 1.10512 0
M  V30 13533 C 1274.26 -0.038394 2.01463 0
M  V30 13534 O 1273.32 -0.710056 2.42311 0
M  V30 13535 C 1274.63 2.45282 1.73946 0
M  V30 13536 C 1276.18 2.51457 1.86382 0
M  V30 13537 C 1276.65 3.81625 2.53232 0
M  V30 13538 N 1278.14 3.82856 2.6072 0
M  V30 13539 C 1278.88 4.80302 3.13206 0
M  V30 13540 N 1278.37 5.88134 3.66156 0
M  V30 13541 N 1280.17 4.67743 3.11726 0
M  V30 13542 H 1272.32 2.11405 0.205391 0
M  V30 13543 H 1274.58 0.935457 0.153702 0
M  V30 13544 H 1274.29 3.32512 1.14582 0
M  V30 13545 H 1274.16 2.59573 2.73682 0
M  V30 13546 H 1276.55 1.64659 2.44891 0
M  V30 13547 H 1276.63 2.41084 0.855113 0
M  V30 13548 H 1276.27 4.68819 1.95375 0
M  V30 13549 H 1276.2 3.89285 3.54633 0
M  V30 13550 H 1278.69 3.04941 2.23203 0
M  V30 13551 H 1279.01 6.58487 4.04494 0
M  V30 13552 H 1277.35 5.91831 3.64364 0
M  V30 13553 H 1280.54 3.82642 2.69635 0
M  V30 13554 H 1280.72 5.43849 3.52324 0
M  V30 13555 N 1274.12 -1.03182 1.19127 0
M  V30 13556 C 1275.09 -2.09559 0.928307 0
M  V30 13557 C 1276.09 -1.60548 -0.0899992 0
M  V30 13558 O 1277.28 -1.736 0.144422 0
M  V30 13559 C 1274.41 -3.38609 0.394561 0
M  V30 13560 H 1275.6 -2.34321 1.87173 0
M  V30 13561 H 1273.15 -1.19746 1.00452 0
M  V30 13562 H 1273.89 -3.19515 -0.555046 0
M  V30 13563 H 1273.67 -3.75502 1.12873 0
M  V30 13564 H 1275.16 -4.16969 0.229569 0
M  V30 13565 N 1275.6 -0.99472 -1.22242 0
M  V30 13566 C 1276.51 -0.555502 -2.27928 0
M  V30 13567 C 1277.53 0.396584 -1.6942 0
M  V30 13568 O 1278.7 0.262965 -1.99676 0
M  V30 13569 C 1275.77 0.121121 -3.46488 0
M  V30 13570 C 1274.83 -0.874155 -4.20306 0
M  V30 13571 C 1274.06 -0.229726 -5.33205 0
M  V30 13572 O 1274.28 0.975935 -5.61989 0
M  V30 13573 O 1273.22 -0.935501 -5.94586 0
M  V30 13574 H 1277.04 -1.4348 -2.6767 0
M  V30 13575 H 1274.63 -0.763061 -1.28444 0
M  V30 13576 H 1276.51 0.500043 -4.18423 0
M  V30 13577 H 1275.19 0.974959 -3.08668 0
M  V30 13578 H 1274.09 -1.30404 -3.50636 0
M  V30 13579 H 1275.43 -1.69725 -4.62011 0
M  V30 13580 N 1277.08 1.37613 -0.768148 0
M  V30 13581 C 1278.33 1.99384 -0.330187 0
M  V30 13582 C 1278.65 1.61283 1.09604 0
M  V30 13583 O 1277.92 0.876551 1.75195 0
M  V30 13584 H 1276.5 0.737445 -0.119095 0
M  V30 13585 H 1279.16 1.6815 -0.985476 0
M  V30 13586 H 1278.26 3.09462 -0.40494 0
M  V30 13587 N 1278.56 0.518393 1.4883 0
M  V30 13588 C 1279.78 -0.0162 2.06894 0
M  V30 13589 C 1280.2 -1.29222 1.37649 0
M  V30 13590 O 1279.56 -1.766 0.460288 0
M  V30 13591 C 1279.61 -0.255836 3.60594 0
M  V30 13592 O 1279.33 0.969612 4.27235 0
M  V30 13593 C 1280.83 -0.832117 4.3542 0
M  V30 13594 H 1278.05 0.0282877 0.670403 0
M  V30 13595 H 1280.59 0.720726 1.91379 0
M  V30 13596 H 1278.75 -0.942782 3.75753 0
M  V30 13597 H 1279.16 0.743172 5.19208 0
M  V30 13598 H 1280.64 -0.949279 5.43776 0
M  V30 13599 H 1281.11 -1.83421 3.99066 0
M  V30 13600 H 1281.72 -0.1821 4.2491 0
M  V30 13601 N 1280.03 -1.55556 0.252993 0
M  V30 13602 C 1281.28 -1.99385 -0.370599 0
M  V30 13603 C 1281.61 -1.14101 -1.57145 0
M  V30 13604 O 1280.89 -0.205828 -1.93408 0
M  V30 13605 C 1281.17 -3.51672 -0.774503 0
M  V30 13606 C 1281.02 -4.47719 0.432159 0
M  V30 13607 C 1282.34 -4.0923 -1.61923 0
M  V30 13608 H 1279.46 -0.724858 -0.133231 0
M  V30 13609 H 1282.1 -1.86644 0.355522 0
M  V30 13610 H 1280.25 -3.62661 -1.39318 0
M  V30 13611 H 1281.93 -4.48704 1.07063 0
M  V30 13612 H 1280.17 -4.2029 1.07419 0
M  V30 13613 H 1280.84 -5.51898 0.106123 0
M  V30 13614 H 1283.32 -4.01381 -1.09693 0
M  V30 13615 H 1282.19 -5.16039 -1.87068 0
M  V30 13616 H 1282.45 -3.58067 -2.59307 0
M  V30 13617 N 1281.51 0.0200419 -1.57587 0
M  V30 13618 C 1282.74 0.724241 -1.94344 0
M  V30 13619 C 1283.16 1.67612 -0.853688 0
M  V30 13620 O 1282.52 1.80303 0.189873 0
M  V30 13621 C 1282.57 1.44967 -3.30177 0
M  V30 13622 O 1281.67 2.56326 -3.23064 0
M  V30 13623 H 1281.01 0.194142 -0.634984 0
M  V30 13624 H 1283.54 -0.0271756 -2.04582 0
M  V30 13625 H 1283.55 1.81758 -3.65278 0
M  V30 13626 H 1282.23 0.75161 -4.09052 0
M  V30 13627 H 1280.81 2.22011 -2.99609 0
M  V30 13628 N 1282.99 1.54862 0.292472 0
M  V30 13629 C 1284.24 1.74807 1.02813 0
M  V30 13630 C 1284.57 0.536935 1.8663 0
M  V30 13631 O 1283.84 -0.465854 1.88839 0
M  V30 13632 C 1284.13 3.04202 1.927 0
M  V30 13633 C 1283.98 4.35631 1.12006 0
M  V30 13634 C 1285.3 3.29514 2.91734 0
M  V30 13635 H 1282.42 0.636015 0.372362 0
M  V30 13636 H 1285.06 1.87583 0.302069 0
M  V30 13637 H 1283.21 2.9344 2.54608 0
M  V30 13638 H 1284.88 4.58323 0.52319 0
M  V30 13639 H 1283.13 4.31733 0.42298 0
M  V30 13640 H 1283.8 5.22454 1.78172 0
M  V30 13641 H 1286.27 3.39941 2.39957 0
M  V30 13642 H 1285.15 4.21352 3.51786 0
M  V30 13643 H 1285.41 2.48216 3.65843 0
M  V30 13644 O 1284.51 -0.438338 1.55438 0
M  V30 13645 H 1285.2 -1.0919 1.59992 0
M  V30 END ATOM
M  V30 BEGIN BOND
M  V30 END BOND
M  V30 END CTAB
M  END
$$$$
