drugbank_target|O15239 NADH dehydrogenase [ubiquinone] 1 alpha subcomplex subunit 1 (DB00157)
 OpenBabel12092119273D

  0  0  0     0  0            999 V3000
M  V30 BEGIN CTAB
M  V30 COUNTS 1136 1151 0 0 0
M  V30 BEGIN ATOM
M  V30 1 H -0.908 1.98254 -0.117106 0
M  V30 2 N 0 1.576 0 0
M  V30 3 C 0.933 2.03868 1.02534 0
M  V30 4 C 1.911 0.928543 1.3348 0
M  V30 5 O 3.095 1.19667 1.45644 0
M  V30 6 C 0.222 2.43627 2.35294 0
M  V30 7 C -0.732 3.65373 2.2001 0
M  V30 8 S 0.101 5.13292 1.52614 0
M  V30 9 C 1.257 5.56322 2.86805 0
M  V30 10 H 1.49 2.90518 0.631377 0
M  V30 11 H -0.977 1.52953 0.210867 0
M  V30 12 H 0.981 2.67203 3.11629 0
M  V30 13 H -0.358 1.57376 2.7183 0
M  V30 14 H -1.165 3.90944 3.18086 0
M  V30 15 H -1.563 3.418 1.51819 0
M  V30 16 H 0.729 5.58782 3.83104 0
M  V30 17 H 1.672 6.56266 2.65933 0
M  V30 18 H 2.08 4.83886 2.90714 0
M  V30 19 N 1.4781 -0.272755 1.55222 0
M  V30 20 C 2.7241 -1.00172 1.77023 0
M  V30 21 C 3.0791 -1.83928 0.564633 0
M  V30 22 O 2.3721 -1.86416 -0.442674 0
M  V30 23 C 2.5661 -1.91642 3.01675 0
M  V30 24 C 2.3951 -1.16888 4.34243 0
M  V30 25 C 1.1651 -0.884464 4.97499 0
M  V30 26 C 3.3631 -0.55919 5.11251 0
M  V30 27 N 1.3451 -0.11015 6.13801 0
M  V30 28 C 2.7161 0.0809469 6.19947 0
M  V30 29 C 4.7711 -0.467058 4.95705 0
M  V30 30 C 3.4741 0.804335 7.14789 0
M  V30 31 C 5.5001 0.242739 5.90902 0
M  V30 32 C 4.8621 0.871613 6.98987 0
M  V30 33 H 0.9611 -0.348529 0.700037 0
M  V30 34 H 3.5451 -0.277365 1.92714 0
M  V30 35 H 1.7161 -2.61303 2.87359 0
M  V30 36 H 3.4481 -2.57901 3.1188 0
M  V30 37 H 0.2031 -1.18979 4.58411 0
M  V30 38 H 0.6271 0.264344 6.76484 0
M  V30 39 H 5.2691 -0.93894 4.12242 0
M  V30 40 H 2.9871 1.2879 7.97771 0
M  V30 41 H 6.5731 0.314347 5.8095 0
M  V30 42 H 5.4531 1.4121 7.71381 0
M  V30 43 N 2.9562 -1.48159 -0.537278 0
M  V30 44 C 4.2032 -1.55804 -1.29349 0
M  V30 45 C 4.5312 -0.228802 -1.9315 0
M  V30 46 O 3.7862 0.780242 -1.79473 0
M  V30 47 C 4.0852 -2.63956 -2.40961 0
M  V30 48 C 3.7512 -4.0662 -1.94861 0
M  V30 49 C 2.4132 -4.45452 -1.82006 0
M  V30 50 C 4.7652 -4.96055 -1.59933 0
M  V30 51 C 2.0932 -5.71531 -1.32547 0
M  V30 52 C 4.4452 -6.22617 -1.11939 0
M  V30 53 C 3.1092 -6.60312 -0.976951 0
M  V30 54 H 2.3792 -0.570129 -0.473322 0
M  V30 55 H 5.0262 -1.81845 -0.600372 0
M  V30 56 H 3.3312 -2.31747 -3.15912 0
M  V30 57 H 5.0282 -2.67089 -2.99107 0
M  V30 58 H 1.6182 -3.75949 -2.05815 0
M  V30 59 H 5.8022 -4.66738 -1.68728 0
M  V30 60 H 1.0582 -5.99468 -1.202 0
M  V30 61 H 5.2322 -6.91318 -0.839811 0
M  V30 62 H 2.8592 -7.57895 -0.591501 0
M  V30 63 N 4.4343 0.785586 -1.36625 0
M  V30 64 C 5.3443 1.92964 -1.33425 0
M  V30 65 C 6.3603 1.72394 -0.235851 0
M  V30 66 O 7.5363 1.95866 -0.468878 0
M  V30 67 C 4.6013 3.27884 -1.12662 0
M  V30 68 C 3.6623 3.61204 -2.32013 0
M  V30 69 C 2.8953 4.89687 -2.12231 0
M  V30 70 O 3.1183 5.59704 -1.09945 0
M  V30 71 O 2.0523 5.21752 -3.00098 0
M  V30 72 H 5.8783 1.98613 -2.29753 0
M  V30 73 H 3.4633 0.926384 -1.17211 0
M  V30 74 H 5.3453 4.08614 -1.03016 0
M  V30 75 H 4.0203 3.23118 -0.193991 0
M  V30 76 H 2.9273 2.80765 -2.47228 0
M  V30 77 H 4.2603 3.70698 -3.23796 0
M  V30 78 N 5.9124 1.20967 1.01018 0
M  V30 79 C 7.1614 1.01796 1.74128 0
M  V30 80 C 7.4744 -0.449691 1.90361 0
M  V30 81 O 8.6804 -0.76068 2.60626 0
M  V30 82 C 7.1364 1.7727 3.13215 0
M  V30 83 C 6.7444 3.28171 3.04972 0
M  V30 84 C 8.4884 1.66489 3.90489 0
M  V30 85 C 6.3954 3.96156 4.39107 0
M  V30 86 H 5.3254 0.377276 0.652824 0
M  V30 87 H 7.9764 1.44651 1.12909 0
M  V30 88 H 6.3584 1.27205 3.75013 0
M  V30 89 H 7.5324 3.85499 2.52443 0
M  V30 90 H 5.8474 3.39437 2.41188 0
M  V30 91 H 8.4444 2.14617 4.89738 0
M  V30 92 H 8.7874 0.6222 4.11624 0
M  V30 93 H 9.3204 2.14003 3.35332 0
M  V30 94 H 6.0594 5.00604 4.23174 0
M  V30 95 H 5.5794 3.43617 4.91617 0
M  V30 96 H 7.2584 4.00774 5.07926 0
M  V30 97 N 7.3905 -1.2043 1.01659 0
M  V30 98 C 8.3205 -2.25466 0.607226 0
M  V30 99 C 9.3015 -1.65853 -0.377716 0
M  V30 100 O 10.4865 -1.92409 -0.263149 0
M  V30 101 C 7.6165 -3.47256 -0.0552949 0
M  V30 102 C 6.5705 -4.19462 0.850632 0
M  V30 103 C 5.8965 -5.34673 0.0538859 0
M  V30 104 C 7.1965 -4.75603 2.15868 0
M  V30 105 H 8.8905 -2.59962 1.48526 0
M  V30 106 H 6.4365 -1.2496 0.715605 0
M  V30 107 H 8.3895 -4.19917 -0.353233 0
M  V30 108 H 7.1135 -3.11924 -0.968045 0
M  V30 109 H 5.7725 -3.48667 1.13257 0
M  V30 110 H 5.4205 -4.95585 -0.860514 0
M  V30 111 H 5.1205 -5.83913 0.657192 0
M  V30 112 H 6.6445 -6.10138 -0.237598 0
M  V30 113 H 8.0585 -5.40083 1.92311 0
M  V30 114 H 6.4555 -5.3528 2.71284 0
M  V30 115 H 7.5255 -3.94346 2.82169 0
M  V30 116 N 8.8686 -0.792821 -1.36206 0
M  V30 117 C 10.2796 -0.429513 -1.81692 0
M  V30 118 C 10.6306 1.04695 -1.65932 0
M  V30 119 O 9.7556 1.81256 -1.18218 0
M  V30 120 C 10.3506 -0.772831 -3.29868 0
M  V30 121 C 8.9096 -0.462307 -3.7355 0
M  V30 122 C 8.0566 -1.00569 -2.5842 0
M  V30 123 H 11.0076 -0.985672 -1.24379 0
M  V30 124 H 11.0286 -0.0651928 -3.80444 0
M  V30 125 H 10.5406 -1.84747 -3.41307 0
M  V30 126 H 8.6416 0.604158 -3.67669 0
M  V30 127 H 8.7546 -0.985299 -4.68859 0
M  V30 128 H 7.1186 -0.428734 -2.51066 0
M  V30 129 H 7.9016 -2.08616 -2.72643 0
M  V30 130 N 10.3467 1.47872 -0.545128 0
M  V30 131 C 11.5947 2.02093 -0.016553 0
M  V30 132 C 11.9157 1.42305 1.3332 0
M  V30 133 O 11.1857 0.593853 1.86682 0
M  V30 134 H 9.7657 0.746993 -0.00313038 0
M  V30 135 H 12.4277 1.81414 -0.712397 0
M  V30 136 H 11.5237 3.11996 0.0805422 0
M  V30 137 N 11.8248 0.280983 1.55075 0
M  V30 138 C 12.7548 -0.597469 2.25727 0
M  V30 139 C 13.7358 -1.15417 1.24952 0
M  V30 140 O 14.9208 -1.18722 1.53684 0
M  V30 141 C 12.0508 -1.7789 2.98283 0
M  V30 142 C 11.0048 -1.35347 4.06036 0
M  V30 143 C 10.3308 -2.61846 4.66198 0
M  V30 144 C 11.6308 -0.499354 5.19907 0
M  V30 145 H 13.3248 -0.00824265 2.99399 0
M  V30 146 H 10.8708 -0.0025244 1.44 0
M  V30 147 H 12.8238 -2.39937 3.46422 0
M  V30 148 H 11.5478 -2.39405 2.22155 0
M  V30 149 H 10.2068 -0.756156 3.58717 0
M  V30 150 H 9.8548 -3.21632 3.86732 0
M  V30 151 H 9.5548 -2.3409 5.38958 0
M  V30 152 H 11.0788 -3.24732 5.1709 0
M  V30 153 H 12.4928 -1.02498 5.64063 0
M  V30 154 H 10.8898 -0.316424 5.99265 0
M  V30 155 H 11.9598 0.480459 4.82514 0
M  V30 156 N 13.3029 -1.57598 0.00835791 0
M  V30 157 C 14.5279 -1.95617 -0.689103 0
M  V30 158 C 14.9529 -0.883753 -1.66046 0
M  V30 159 O 14.3109 0.157352 -1.80616 0
M  V30 160 C 14.3589 -3.32736 -1.38994 0
M  V30 161 O 13.4629 -3.27631 -2.50463 0
M  V30 162 H 12.8039 -0.638379 -0.182668 0
M  V30 163 H 15.3339 -2.045 0.064036 0
M  V30 164 H 15.3439 -3.68494 -1.75147 0
M  V30 165 H 14.0189 -4.1034 -0.677778 0
M  V30 166 H 12.5959 -3.03561 -2.16576 0
M  V30 167 N 14.781 0.264519 -1.55364 0
M  V30 168 C 16.027 0.99646 -1.76631 0
M  V30 169 C 16.36 1.85632 -0.570478 0
M  V30 170 O 15.635 1.89647 0.43175 0
M  V30 171 C 15.918 1.87187 -3.07625 0
M  V30 172 C 15.771 1.04138 -4.37579 0
M  V30 173 C 17.09 2.85749 -3.34717 0
M  V30 174 H 14.209 0.360841 -0.642622 0
M  V30 175 H 16.851 0.268218 -1.88097 0
M  V30 176 H 15.001 2.49279 -2.9798 0
M  V30 177 H 16.673 0.440517 -4.59192 0
M  V30 178 H 14.916 0.345115 -4.32425 0
M  V30 179 H 15.587 1.68729 -5.2558 0
M  V30 180 H 18.063 2.33793 -3.4421 0
M  V30 181 H 16.939 3.44136 -4.27623 0
M  V30 182 H 17.2 3.61311 -2.54768 0
M  V30 183 N 16.2591 1.48442 0.529413 0
M  V30 184 C 17.1921 1.57577 1.65059 0
M  V30 185 C 18.1701 0.426198 1.56915 0
M  V30 186 O 19.3541 0.637877 1.77379 0
M  V30 187 C 16.4811 1.5043 3.03461 0
M  V30 188 C 15.5271 2.70235 3.29962 0
M  V30 189 S 16.3601 4.32198 3.16172 0
M  V30 190 C 17.5161 4.2765 4.57019 0
M  V30 191 H 17.7491 2.52427 1.5706 0
M  V30 192 H 15.2821 1.36982 0.712417 0
M  V30 193 H 17.2401 1.46992 3.8328 0
M  V30 194 H 15.9011 0.569167 3.089 0
M  V30 195 H 15.0941 2.61374 4.30929 0
M  V30 196 H 14.6961 2.70938 2.57815 0
M  V30 197 H 16.9881 3.97618 5.48549 0
M  V30 198 H 17.9311 5.28797 4.70934 0
M  V30 199 H 18.3391 3.5811 4.36368 0
M  V30 200 N 17.7372 -0.778329 1.37039 0
M  V30 201 C 18.9852 -1.53361 1.31623 0
M  V30 202 C 19.3062 -1.94739 -0.100831 0
M  V30 203 O 18.5762 -1.65797 -1.04347 0
M  V30 204 H 17.1562 -0.568794 0.484234 0
M  V30 205 H 19.8182 -0.926742 1.71457 0
M  V30 206 H 18.9142 -2.43606 1.95096 0
M  V30 207 N 19.2153 -1.21501 -1.00376 0
M  V30 208 C 20.4613 -1.03452 -1.74429 0
M  V30 209 C 20.7943 0.430764 -1.89362 0
M  V30 210 O 20.0693 1.31962 -1.42886 0
M  V30 211 C 20.3523 -1.73375 -3.15615 0
M  V30 212 C 20.2053 -3.27431 -3.08397 0
M  V30 213 C 21.5243 -1.47732 -4.14564 0
M  V30 214 H 18.6433 -0.377226 -0.633143 0
M  V30 215 H 21.2853 -1.49693 -1.17013 0
M  V30 216 H 19.4353 -1.34064 -3.64636 0
M  V30 217 H 21.1073 -3.76119 -2.67081 0
M  V30 218 H 19.3503 -3.5767 -2.45468 0
M  V30 219 H 20.0213 -3.71524 -4.08258 0
M  V30 220 H 22.4973 -1.8186 -3.74254 0
M  V30 221 H 21.3733 -1.99169 -5.11491 0
M  V30 222 H 21.6343 -0.407589 -4.40217 0
M  V30 223 N 20.6934 1.19889 -1.02296 0
M  V30 224 C 21.9334 1.91125 -0.724602 0
M  V30 225 C 22.2974 1.77464 0.732835 0
M  V30 226 O 23.4984 2.43241 1.144 0
M  V30 227 C 21.7694 3.38187 -1.15604 0
M  V30 228 S 23.3284 4.27702 -0.980621 0
M  V30 229 H 20.1464 0.66018 -0.263976 0
M  V30 230 H 22.7484 1.44978 -1.31155 0
M  V30 231 H 21.4524 3.45653 -2.21251 0
M  V30 232 H 20.9834 3.89363 -0.562131 0
M  V30 233 H 22.9984 4.96073 0.112225 0
M  V30 234 N 22.1715 0.800033 1.35784 0
M  V30 235 C 23.1015 0.220184 2.3246 0
M  V30 236 C 24.0825 -0.65073 1.57161 0
M  V30 237 O 25.2675 -0.582359 1.85263 0
M  V30 238 C 22.3975 -0.637353 3.41402 0
M  V30 239 C 21.3515 0.134531 4.27789 0
M  V30 240 C 20.6775 -0.844285 5.27992 0
M  V30 241 C 21.9775 1.32979 5.05088 0
M  V30 242 H 23.6715 1.02787 2.81203 0
M  V30 243 H 21.2175 0.495717 1.35199 0
M  V30 244 H 23.1705 -1.05302 4.08031 0
M  V30 245 H 21.8945 -1.47785 2.91251 0
M  V30 246 H 20.5535 0.531296 3.6273 0
M  V30 247 H 20.2015 -1.68011 4.74111 0
M  V30 248 H 19.9015 -0.332184 5.8666 0
M  V30 249 H 21.4255 -1.2583 5.97494 0
M  V30 250 H 22.8395 0.98934 5.64699 0
M  V30 251 H 21.2365 1.77593 5.7322 0
M  V30 252 H 22.3065 2.11978 4.36111 0
M  V30 253 N 23.6496 -1.47581 0.552962 0
M  V30 254 C 24.5796 -2.32762 -0.185451 0
M  V30 255 C 25.5606 -1.43527 -0.912905 0
M  V30 256 O 26.7456 -1.72388 -0.894201 0
M  V30 257 C 23.8756 -3.25219 -1.21859 0
M  V30 258 C 22.8296 -4.23661 -0.607864 0
M  V30 259 C 22.1556 -5.05413 -1.74533 0
M  V30 260 C 23.4556 -5.20481 0.435582 0
M  V30 261 H 25.1496 -2.94749 0.525684 0
M  V30 262 H 22.6956 -1.41738 0.254251 0
M  V30 263 H 24.6486 -3.8365 -1.7433 0
M  V30 264 H 23.3726 -2.61279 -1.95961 0
M  V30 265 H 22.0316 -3.66451 -0.104489 0
M  V30 266 H 21.6796 -4.3788 -2.47529 0
M  V30 267 H 21.3796 -5.72059 -1.34249 0
M  V30 268 H 22.9036 -5.66701 -2.27338 0
M  V30 269 H 24.3176 -5.733 -0.00290157 0
M  V30 270 H 22.7146 -5.95305 0.757067 0
M  V30 271 H 23.7846 -4.66217 1.33303 0
M  V30 272 N 25.1277 -0.289203 -1.54924 0
M  V30 273 C 26.3767 0.324231 -1.99077 0
M  V30 274 C 26.6897 1.5591 -1.18117 0
M  V30 275 O 27.8957 2.24637 -1.52481 0
M  V30 276 C 26.3517 0.628209 -3.54375 0
M  V30 277 C 25.9597 -0.587647 -4.44129 0
M  V30 278 C 27.7037 1.20349 -4.07083 0
M  V30 279 C 25.6107 -0.257475 -5.90839 0
M  V30 280 H 24.5407 0.124924 -0.743579 0
M  V30 281 H 27.1917 -0.396063 -1.79175 0
M  V30 282 H 25.5737 1.40778 -3.70132 0
M  V30 283 H 26.7477 -1.36418 -4.40144 0
M  V30 284 H 25.0627 -1.08074 -4.0213 0
M  V30 285 H 27.6597 1.46456 -5.14252 0
M  V30 286 H 28.0027 2.14195 -3.56968 0
M  V30 287 H 28.5357 0.485889 -3.94821 0
M  V30 288 H 25.2747 -1.16419 -6.45079 0
M  V30 289 H 24.7947 0.482018 -5.9786 0
M  V30 290 H 26.4737 0.145238 -6.46837 0
M  V30 291 N 26.6058 1.57591 -0.0167156 0
M  V30 292 C 28.0168 1.79201 0.523834 0
M  V30 293 C 28.3678 0.925796 1.72984 0
M  V30 294 O 27.4928 0.132792 2.15992 0
M  V30 295 C 28.0878 3.25 0.957091 0
M  V30 296 C 26.6468 3.47648 1.44283 0
M  V30 297 C 25.7938 2.74374 0.401757 0
M  V30 298 H 28.7448 1.56831 -0.242816 0
M  V30 299 H 28.7658 3.34031 1.82219 0
M  V30 300 H 28.2778 3.88019 0.0791415 0
M  V30 301 H 26.3788 2.89866 2.34113 0
M  V30 302 H 26.4918 4.56352 1.45877 0
M  V30 303 H 24.8558 2.39485 0.867121 0
M  V30 304 H 25.6388 3.40102 -0.467513 0
M  V30 305 N 28.0839 -0.256276 1.55502 0
M  V30 306 C 29.3319 -0.983672 1.76545 0
M  V30 307 C 29.6529 -1.86206 0.578982 0
M  V30 308 O 28.9229 -1.91656 -0.405577 0
M  V30 309 H 27.5029 -0.366191 0.651086 0
M  V30 310 H 30.1649 -0.276479 1.92929 0
M  V30 311 H 29.2609 -1.61087 2.67315 0
M  V30 312 N 29.562 -1.4872 -0.521534 0
M  V30 313 C 30.492 -1.66771 -1.63431 0
M  V30 314 C 31.473 -0.516499 -1.62069 0
M  V30 315 O 32.658 -0.750013 -1.79132 0
M  V30 316 C 29.788 -1.71515 -3.01993 0
M  V30 317 C 28.742 -2.86222 -3.18216 0
M  V30 318 C 28.068 -2.76061 -4.57924 0
M  V30 319 C 29.368 -4.27419 -3.00184 0
M  V30 320 H 31.062 -2.59932 -1.48579 0
M  V30 321 H 28.608 -1.25089 -0.713358 0
M  V30 322 H 30.561 -1.82731 -3.7972 0
M  V30 323 H 29.285 -0.749393 -3.17886 0
M  V30 324 H 27.944 -2.74575 -2.42908 0
M  V30 325 H 27.592 -1.77437 -4.70665 0
M  V30 326 H 27.292 -3.53037 -4.69722 0
M  V30 327 H 28.816 -2.89256 -5.37739 0
M  V30 328 H 30.23 -4.39855 -3.67697 0
M  V30 329 H 28.627 -5.05458 -3.2347 0
M  V30 330 H 29.697 -4.43293 -1.96518 0
M  V30 331 N 31.0401 0.771051 -1.3745 0
M  V30 332 C 32.0031 1.86598 -1.33093 0
M  V30 333 C 33.0031 1.59076 -0.234845 0
M  V30 334 O 34.1931 1.67145 -0.490732 0
M  V30 335 C 31.3251 3.23747 -1.06773 0
M  V30 336 H 32.5181 1.91873 -2.30488 0
M  V30 337 H 30.0711 0.970876 -1.2249 0
M  V30 338 H 30.8061 3.24148 -0.099129 0
M  V30 339 H 30.5911 3.45115 -1.86112 0
M  V30 340 H 32.0811 4.03824 -1.06377 0
M  V30 341 N 32.5182 1.22032 0.997298 0
M  V30 342 C 33.7462 1.06841 1.7718 0
M  V30 343 C 34.1612 -0.381325 1.84909 0
M  V30 344 O 33.5182 -1.26437 1.31605 0
M  V30 345 C 33.5692 1.66814 3.20711 0
M  V30 346 O 33.2902 3.06116 3.13408 0
M  V30 347 C 34.7912 1.56838 4.14628 0
M  V30 348 H 32.0112 0.374782 0.556578 0
M  V30 349 H 34.5552 1.61532 1.2541 0
M  V30 350 H 32.7102 1.16196 3.69564 0
M  V30 351 H 33.1242 3.34926 4.0364 0
M  V30 352 H 34.5982 2.03532 5.13107 0
M  V30 353 H 35.0752 0.524155 4.36061 0
M  V30 354 H 35.6812 2.06741 3.7167 0
M  V30 355 N 33.9963 -1.19345 1.0293 0
M  V30 356 C 34.9593 -2.20793 0.615069 0
M  V30 357 C 35.9593 -1.57553 -0.321533 0
M  V30 358 O 37.1493 -1.73862 -0.108483 0
M  V30 359 C 34.2813 -3.40754 -0.0999222 0
M  V30 360 H 35.4743 -2.58955 1.51269 0
M  V30 361 H 33.0273 -1.3303 0.820534 0
M  V30 362 H 33.7623 -3.0811 -1.01187 0
M  V30 363 H 33.5473 -3.87889 0.57309 0
M  V30 364 H 35.0373 -4.15898 -0.376645 0
M  V30 365 N 35.4744 -0.807222 -1.35358 0
M  V30 366 C 36.7044 -0.399796 -2.02695 0
M  V30 367 C 37.1124 0.994176 -1.60974 0
M  V30 368 O 36.4554 1.65209 -0.803226 0
M  V30 369 C 36.5174 -0.404445 -3.57218 0
M  V30 370 C 36.1814 -1.74904 -4.22206 0
M  V30 371 C 37.1784 -2.70743 -4.4384 0
M  V30 372 C 34.8634 -2.03322 -4.5931 0
M  V30 373 C 36.8574 -3.93183 -5.01683 0
M  V30 374 C 34.5444 -3.26026 -5.16866 0
M  V30 375 C 35.5424 -4.20774 -5.37994 0
M  V30 376 O 35.2304 -5.41312 -5.94337 0
M  V30 377 H 34.9624 -0.160517 -0.656666 0
M  V30 378 H 37.5164 -1.09235 -1.73945 0
M  V30 379 H 35.7464 0.344707 -3.85161 0
M  V30 380 H 37.4354 -0.0192429 -4.05895 0
M  V30 381 H 38.2014 -2.5008 -4.15554 0
M  V30 382 H 34.0804 -1.30384 -4.42178 0
M  V30 383 H 37.6244 -4.6715 -5.1809 0
M  V30 384 H 33.5214 -3.46559 -5.44579 0
M  V30 385 H 34.2894 -5.42618 -6.12787 0
M  V30 386 N 36.9525 1.47285 -0.560781 0
M  V30 387 C 38.2015 2.01668 -0.035895 0
M  V30 388 C 38.5145 1.44021 1.32353 0
M  V30 389 O 39.7205 1.90088 1.93853 0
M  V30 390 C 38.1765 3.59897 -0.0136659 0
M  V30 391 C 37.7845 4.26536 -1.37006 0
M  V30 392 C 39.5285 4.22017 0.458425 0
M  V30 393 C 37.4355 5.76782 -1.30675 0
M  V30 394 H 36.3655 0.753938 -0.00964879 0
M  V30 395 H 39.0165 1.69243 -0.709166 0
M  V30 396 H 37.3985 3.89301 0.725325 0
M  V30 397 H 38.5725 4.0877 -2.12705 0
M  V30 398 H 36.8875 3.76419 -1.78038 0
M  V30 399 H 39.4845 5.32124 0.524247 0
M  V30 400 H 39.8275 3.89437 1.4712 0
M  V30 401 H 40.3605 3.97159 -0.225818 0
M  V30 402 H 37.0995 6.13988 -2.29564 0
M  V30 403 H 36.6195 5.96875 -0.591622 0
M  V30 404 H 38.2985 6.39063 -1.01033 0
M  V30 405 N 38.4306 0.297415 1.54768 0
M  V30 406 C 39.3806 -0.595275 2.20092 0
M  V30 407 C 40.3646 -1.10163 1.17273 0
M  V30 408 O 41.5566 -1.043 1.43006 0
M  V30 409 C 38.6856 -1.7684 2.94249 0
M  V30 410 C 37.7716 -1.27818 4.0438 0
M  V30 411 N 38.1626 -0.505695 5.03266 0
M  V30 412 C 36.4606 -1.55923 4.17857 0
M  V30 413 C 37.1616 -0.245094 5.81183 0
M  V30 414 N 36.1376 -0.823881 5.3732 0
M  V30 415 H 39.9396 0.00250837 2.939 0
M  V30 416 H 37.4536 0.102007 1.62079 0
M  V30 417 H 39.4506 -2.41944 3.39513 0
M  V30 418 H 38.1106 -2.36992 2.21957 0
M  V30 419 H 39.1216 -0.150928 5.1768 0
M  V30 420 H 35.7986 -2.16849 3.56767 0
M  V30 421 H 37.1886 0.375084 6.70852 0
M  V30 422 N 39.9087 -1.5758 0.0250728 0
M  V30 423 C 41.3247 -1.56124 -0.331282 0
M  V30 424 C 41.5247 -1.03029 -1.73169 0
M  V30 425 O 40.5807 -0.675215 -2.43305 0
M  V30 426 C 41.8937 -3.00139 -0.183584 0
M  V30 427 C 43.4417 -3.11946 -0.256654 0
M  V30 428 C 43.9167 -4.57793 -0.137792 0
M  V30 429 N 45.4077 -4.6279 -0.194904 0
M  V30 430 C 46.1427 -5.7326 -0.126655 0
M  V30 431 N 45.6387 -6.928 -0.00755288 0
M  V30 432 N 47.4317 -5.61811 -0.180348 0
M  V30 433 H 39.5827 -1.90424 0.94087 0
M  V30 434 H 41.8457 -0.875761 0.362968 0
M  V30 435 H 41.5517 -3.4292 0.780927 0
M  V30 436 H 41.4257 -3.64899 -0.955448 0
M  V30 437 H 43.8127 -2.69079 -1.21162 0
M  V30 438 H 43.8937 -2.49915 0.545517 0
M  V30 439 H 43.5377 -5.01339 0.813739 0
M  V30 440 H 43.4677 -5.17798 -0.958775 0
M  V30 441 H 45.9587 -3.76807 -0.287267 0
M  V30 442 H 46.2717 -7.72791 0.0379428 0
M  V30 443 H 44.6167 -6.94995 0.0271731 0
M  V30 444 H 47.8077 -4.6731 -0.271767 0
M  V30 445 H 47.9807 -6.47882 -0.123697 0
M  V30 446 N 41.3868 0.248026 -1.55636 0
M  V30 447 C 42.6338 0.976224 -1.77415 0
M  V30 448 C 42.9618 1.85361 -0.589193 0
M  V30 449 O 42.2168 1.90973 0.427529 0
M  V30 450 C 42.5158 1.86819 -3.04686 0
M  V30 451 C 42.1818 1.14625 -4.36087 0
M  V30 452 C 40.8438 0.946723 -4.71795 0
M  V30 453 C 43.1958 0.634463 -5.17324 0
M  V30 454 C 40.5238 0.223091 -5.86276 0
M  V30 455 C 42.8758 -0.0756959 -6.32555 0
M  V30 456 C 41.5398 -0.286711 -6.66884 0
M  V30 457 H 40.8098 0.357226 -0.649208 0
M  V30 458 H 43.4568 0.246415 -1.89908 0
M  V30 459 H 41.7618 2.66502 -2.872 0
M  V30 460 H 43.4588 2.43329 -3.18735 0
M  V30 461 H 40.0488 1.3117 -4.08035 0
M  V30 462 H 44.2328 0.77616 -4.90193 0
M  V30 463 H 39.4888 0.0491185 -6.1138 0
M  V30 464 H 43.6628 -0.479899 -6.94745 0
M  V30 465 H 41.2898 -0.849389 -7.5544 0
M  V30 466 N 42.8649 1.48995 0.513639 0
M  V30 467 C 44.0929 1.61531 1.29288 0
M  V30 468 C 44.5079 0.281801 1.86685 0
M  V30 469 O 43.8649 -0.731111 1.67215 0
M  V30 470 C 43.9159 2.67449 2.43215 0
M  V30 471 O 43.6369 3.95626 1.88179 0
M  V30 472 C 45.1379 2.90575 3.34785 0
M  V30 473 H 42.3579 0.544165 0.392588 0
M  V30 474 H 44.9019 1.9494 0.617956 0
M  V30 475 H 43.0569 2.36853 3.0656 0
M  V30 476 H 43.4709 4.53868 2.62876 0
M  V30 477 H 44.9449 3.68449 4.11035 0
M  V30 478 H 45.4219 2.00011 3.91015 0
M  V30 479 H 46.0279 3.22538 2.77218 0
M  V30 480 N 44.343 -0.763751 1.37857 0
M  V30 481 C 45.291 -1.89864 1.34367 0
M  V30 482 C 46.285 -1.67816 0.231143 0
M  V30 483 O 47.491 -1.75508 0.399617 0
M  V30 484 H 43.866 -0.624501 0.41893 0
M  V30 485 H 45.837 -1.89925 2.30155 0
M  V30 486 C 44.586 -3.27227 1.1755 0
M  V30 487 H 43.909 -3.44773 2.02414 0
M  V30 488 H 45.349 -4.06911 1.1916 0
M  V30 489 C 43.808 -3.36692 -0.118311 0
M  V30 490 O 44.338 -3.86374 -1.09902 0
M  V30 491 N 42.544 -2.90092 -0.171717 0
M  V30 492 H 42.091 -2.49853 0.627012 0
M  V30 493 H 42.049 -2.96806 -1.03699 0
M  V30 494 N 45.8211 -1.22559 -0.990812 0
M  V30 495 C 47.0691 -1.04933 -1.72724 0
M  V30 496 C 47.3901 0.416158 -1.90508 0
M  V30 497 O 46.6601 1.29918 -1.46622 0
M  V30 498 H 45.2401 -0.385296 -0.639965 0
M  V30 499 H 47.9021 -1.54105 -1.19322 0
M  V30 500 H 46.9981 -1.52886 -2.72089 0
M  V30 501 N 47.2992 1.18797 -1.03562 0
M  V30 502 C 48.5472 1.88278 -0.734569 0
M  V30 503 C 48.8682 1.8043 0.739586 0
M  V30 504 O 48.1382 1.21925 1.53333 0
M  V30 505 H 46.7182 0.696991 -0.268725 0
M  V30 506 H 49.3802 1.44192 -1.31129 0
M  V30 507 H 48.4762 2.94443 -1.03489 0
M  V30 508 N 48.7773 0.814389 1.34928 0
M  V30 509 C 49.7243 0.22822 2.29669 0
M  V30 510 C 50.6943 -0.642164 1.53184 0
M  V30 511 O 51.8793 -0.585605 1.81591 0
M  V30 512 C 49.0193 -0.61089 3.3965 0
M  V30 513 C 48.1323 0.280792 4.31086 0
M  V30 514 C 47.2673 -0.567067 5.28165 0
M  V30 515 C 46.3063 0.324531 6.11239 0
M  V30 516 N 45.4433 -0.483756 7.00431 0
M  V30 517 H 50.2833 1.04153 2.79206 0
M  V30 518 H 47.8203 0.525133 1.37407 0
M  V30 519 H 49.7783 -1.11263 4.0209 0
M  V30 520 H 48.4083 -1.38939 2.91369 0
M  V30 521 H 47.4603 0.900688 3.69583 0
M  V30 522 H 48.7723 0.966723 4.89342 0
M  V30 523 H 47.9263 -1.13363 5.96015 0
M  V30 524 H 46.6653 -1.28654 4.70425 0
M  V30 525 H 45.6703 0.903298 5.42329 0
M  V30 526 H 46.8953 1.04198 6.71059 0
M  V30 527 H 44.8413 -1.18706 6.45171 0
M  V30 528 H 44.7583 0.143965 7.55863 0
M  V30 529 H 46.0263 -1.03334 7.7262 0
M  V30 530 N 50.2554 -1.46986 0.568584 0
M  V30 531 C 51.1654 -2.33942 -0.17555 0
M  V30 532 C 52.1814 -1.48891 -0.90041 0
M  V30 533 O 53.3574 -1.81794 -0.86676 0
M  V30 534 C 50.4224 -3.25811 -1.18524 0
M  V30 535 C 49.4834 -4.26757 -0.466582 0
M  V30 536 C 48.7164 -5.14236 -1.42817 0
M  V30 537 O 48.9394 -5.04379 -2.66379 0
M  V30 538 O 47.8734 -5.94412 -0.946453 0
M  V30 539 H 51.6994 -2.98896 0.538036 0
M  V30 540 H 49.2844 -1.4573 0.329097 0
M  V30 541 H 51.1664 -3.82527 -1.76779 0
M  V30 542 H 49.8414 -2.63471 -1.88055 0
M  V30 543 H 48.7484 -3.73769 0.157451 0
M  V30 544 H 50.0814 -4.91843 0.187485 0
M  V30 545 N 51.7335 -0.305618 -1.54608 0
M  V30 546 C 52.6805 0.568421 -2.23691 0
M  V30 547 C 53.6505 1.12592 -1.22116 0
M  V30 548 O 54.8355 1.16959 -1.50749 0
M  V30 549 C 51.9755 1.7322 -2.98477 0
M  V30 550 C 51.0885 1.20566 -4.14835 0
M  V30 551 C 50.2235 2.33368 -4.77193 0
M  V30 552 C 49.2625 1.7787 -5.85686 0
M  V30 553 N 48.3995 2.84263 -6.4198 0
M  V30 554 H 53.2395 -0.0272867 -2.97988 0
M  V30 555 H 50.7765 -0.0252363 -1.47078 0
M  V30 556 H 52.7345 2.41675 -3.40072 0
M  V30 557 H 51.3645 2.29947 -2.26548 0
M  V30 558 H 50.4165 0.413223 -3.78149 0
M  V30 559 H 51.7285 0.759417 -4.92985 0
M  V30 560 H 50.8825 3.09761 -5.21664 0
M  V30 561 H 49.6215 2.8132 -3.98385 0
M  V30 562 H 48.6265 0.99968 -5.40635 0
M  V30 563 H 49.8515 1.30816 -6.66381 0
M  V30 564 H 47.7975 3.31541 -5.66053 0
M  V30 565 H 47.7145 2.44149 -7.15491 0
M  V30 566 H 48.9825 3.6054 -6.91109 0
M  V30 567 N 53.2116 1.57565 -0.0334293 0
M  V30 568 C 54.6276 1.56297 0.322997 0
M  V30 569 C 54.8276 1.03945 1.7262 0
M  V30 570 O 53.8836 0.688109 2.42943 0
M  V30 571 C 55.1966 3.00232 0.167664 0
M  V30 572 C 56.7446 3.12078 0.240107 0
M  V30 573 C 57.2196 4.57859 0.113513 0
M  V30 574 N 58.7106 4.62887 0.170359 0
M  V30 575 C 59.4456 5.73319 0.0962517 0
M  V30 576 N 58.9416 6.92794 -0.0291881 0
M  V30 577 N 60.7346 5.61898 0.150551 0
M  V30 578 H 52.8856 1.89923 -0.950956 0
M  V30 579 H 55.1486 0.873824 -0.367608 0
M  V30 580 H 54.8546 3.42501 -0.799102 0
M  V30 581 H 54.7286 3.654 0.936083 0
M  V30 582 H 57.1156 2.69718 1.19733 0
M  V30 583 H 57.1966 2.49623 -0.558763 0
M  V30 584 H 56.8406 5.009 -0.840314 0
M  V30 585 H 56.7706 5.18299 0.931302 0
M  V30 586 H 59.2616 3.76954 0.26728 0
M  V30 587 H 59.5746 7.7276 -0.0789252 0
M  V30 588 H 57.9196 6.94971 -0.0640299 0
M  V30 589 H 61.1106 4.67448 0.246981 0
M  V30 590 H 61.2836 6.47938 0.0893365 0
M  V30 591 N 54.6897 -0.239769 1.55765 0
M  V30 592 C 55.9357 -0.968234 1.78194 0
M  V30 593 C 56.2687 -1.84701 0.599938 0
M  V30 594 O 55.5437 -1.9031 -0.401524 0
M  V30 595 C 55.8267 -1.8227 3.10564 0
M  V30 596 C 55.6797 -0.971633 4.3918 0
M  V30 597 C 56.9987 -2.80388 3.39221 0
M  V30 598 H 54.1177 -0.350572 0.648281 0
M  V30 599 H 56.7597 -0.238259 1.885 0
M  V30 600 H 54.9097 -2.44507 3.01908 0
M  V30 601 H 56.5817 -0.367408 4.59835 0
M  V30 602 H 54.8247 -0.276276 4.32919 0
M  V30 603 H 55.4957 -1.60346 5.28198 0
M  V30 604 H 57.9717 -2.28287 3.47885 0
M  V30 605 H 56.8477 -3.3729 4.33044 0
M  V30 606 H 57.1087 -3.57212 2.60484 0
M  V30 607 N 56.1678 -1.49265 -0.50573 0
M  V30 608 C 57.1308 -1.65075 -1.59006 0
M  V30 609 C 58.1308 -0.522768 -1.52065 0
M  V30 610 O 59.3208 -0.789117 -1.55302 0
M  V30 611 C 56.4528 -1.64369 -2.98656 0
M  V30 612 H 57.6458 -2.61784 -1.46319 0
M  V30 613 H 55.1988 -1.38226 -0.729616 0
M  V30 614 H 55.9338 -0.692272 -3.16825 0
M  V30 615 H 55.7188 -2.46282 -3.05103 0
M  V30 616 H 57.2088 -1.78674 -3.77446 0
M  V30 617 N 57.6459 0.756429 -1.3826 0
M  V30 618 C 58.5959 1.86069 -1.31766 0
M  V30 619 C 59.5799 1.59621 -0.202483 0
M  V30 620 O 60.7719 1.7149 -0.438211 0
M  V30 621 C 57.9009 3.23742 -1.1422 0
M  V30 622 C 56.9869 3.56091 -2.30348 0
M  V30 623 N 57.3779 3.59517 -3.55783 0
M  V30 624 C 55.6759 3.86341 -2.22838 0
M  V30 625 C 56.3769 3.89052 -4.32451 0
M  V30 626 N 55.3529 4.05736 -3.61772 0
M  V30 627 H 59.1549 1.86992 -2.26741 0
M  V30 628 H 56.6689 0.953643 -1.31451 0
M  V30 629 H 58.6659 4.02761 -1.07652 0
M  V30 630 H 57.3259 3.24073 -0.201763 0
M  V30 631 H 58.3369 3.41347 -3.89491 0
M  V30 632 H 55.0139 3.94404 -1.36937 0
M  V30 633 H 56.4039 3.98349 -5.4108 0
M  V30 634 N 59.124 1.23083 0.984299 0
M  V30 635 C 60.371 1.06057 1.72505 0
M  V30 636 C 60.699 -0.403105 1.90277 0
M  V30 637 O 59.954 -1.3149 1.44944 0
M  V30 638 C 60.253 1.72673 3.1292 0
M  V30 639 C 59.919 3.22586 3.15038 0
M  V30 640 C 58.581 3.63489 3.15324 0
M  V30 641 C 60.933 4.185 3.10657 0
M  V30 642 C 58.261 4.98772 3.08939 0
M  V30 643 C 60.613 5.53769 3.05814 0
M  V30 644 C 59.277 5.94041 3.04419 0
M  V30 645 H 58.547 0.388091 0.631242 0
M  V30 646 H 61.194 1.52963 1.15215 0
M  V30 647 H 59.499 1.18116 3.73572 0
M  V30 648 H 61.196 1.56982 3.68996 0
M  V30 649 H 57.786 2.90022 3.15571 0
M  V30 650 H 61.97 3.87911 3.09579 0
M  V30 651 H 57.226 5.29193 3.0621 0
M  V30 652 H 61.4 6.27808 3.0138 0
M  V30 653 H 59.027 6.98833 2.99227 0
M  V30 654 N 60.6021 -1.18246 1.0419 0
M  V30 655 C 61.8501 -1.87886 0.744543 0
M  V30 656 C 62.1711 -1.8082 -0.730006 0
M  V30 657 O 61.4411 -1.22736 -1.52685 0
M  V30 658 H 60.0211 -0.695556 0.272417 0
M  V30 659 H 62.6831 -1.43494 1.31892 0
M  V30 660 H 61.7791 -2.9389 1.05049 0
M  V30 661 N 62.0802 -0.821533 -1.34494 0
M  V30 662 C 63.3102 -0.421272 -2.02259 0
M  V30 663 C 63.7182 0.977047 -1.6202 0
M  V30 664 O 63.0612 1.64348 -0.820703 0
M  V30 665 C 63.1232 -0.44231 -3.56769 0
M  V30 666 C 62.7872 -1.79372 -4.20327 0
M  V30 667 C 63.7842 -2.75435 -4.40944 0
M  V30 668 C 61.4692 -2.08182 -4.57127 0
M  V30 669 C 63.4632 -3.98482 -4.97484 0
M  V30 670 C 61.1502 -3.31489 -5.13379 0
M  V30 671 C 62.1482 -4.26457 -5.33501 0
M  V30 672 O 61.8362 -5.47585 -5.88562 0
M  V30 673 H 61.5682 -0.167473 -0.654927 0
M  V30 674 H 64.1222 -1.11073 -1.72777 0
M  V30 675 H 62.3522 0.303836 -3.85505 0
M  V30 676 H 64.0412 -0.0622925 -4.05852 0
M  V30 677 H 64.8072 -2.54473 -4.12878 0
M  V30 678 H 60.6862 -1.35066 -4.4077 0
M  V30 679 H 64.2302 -4.72618 -5.13106 0
M  V30 680 H 60.1272 -3.52316 -5.40873 0
M  V30 681 H 60.8952 -5.49086 -6.06998 0
M  V30 682 N 63.5583 1.46682 -0.576371 0
M  V30 683 C 64.5083 2.27278 0.181288 0
M  V30 684 C 65.4923 1.35497 0.867721 0
M  V30 685 O 66.6843 1.59717 0.762863 0
M  V30 686 C 63.8133 3.21703 1.19841 0
M  V30 687 C 62.8993 4.20969 0.51442 0
M  V30 688 N 63.2903 5.03999 -0.426407 0
M  V30 689 C 61.5883 4.39373 0.765963 0
M  V30 690 C 62.2893 5.75812 -0.825565 0
M  V30 691 N 61.2653 5.43315 -0.176116 0
M  V30 692 H 65.0673 2.88863 -0.541785 0
M  V30 693 H 62.5813 1.57455 -0.397697 0
M  V30 694 H 64.5783 3.78145 1.75533 0
M  V30 695 H 63.2383 2.61677 1.92238 0
M  V30 696 H 64.2493 5.11659 -0.8016 0
M  V30 697 H 60.9263 3.90502 1.47698 0
M  V30 698 H 62.3163 6.52577 -1.59976 0
M  V30 699 N 65.0364 0.313813 1.54444 0
M  V30 700 C 66.2824 -0.284918 2.01395 0
M  V30 701 C 66.6374 -1.50537 1.19818 0
M  V30 702 O 65.9304 -1.89692 0.269748 0
M  V30 703 C 66.1244 -0.680386 3.50864 0
M  V30 704 C 65.9534 0.500198 4.4691 0
M  V30 705 C 64.7234 0.996248 4.95382 0
M  V30 706 C 66.9214 1.34928 4.96285 0
M  V30 707 N 64.9034 2.14226 5.75309 0
M  V30 708 C 66.2744 2.3426 5.7404 0
M  V30 709 C 68.3294 1.37818 4.78446 0
M  V30 710 C 67.0324 3.36272 6.35856 0
M  V30 711 C 69.0584 2.38695 5.4109 0
M  V30 712 C 68.4204 3.36755 6.18688 0
M  V30 713 H 64.5194 -0.0683689 0.779006 0
M  V30 714 H 67.1034 0.44664 1.89508 0
M  V30 715 H 65.2744 -1.38109 3.63016 0
M  V30 716 H 67.0064 -1.25975 3.84594 0
M  V30 717 H 63.7614 0.56912 4.70168 0
M  V30 718 H 64.1854 2.72005 6.19953 0
M  V30 719 H 68.8274 0.633747 4.18023 0
M  V30 720 H 66.5454 4.11627 6.95405 0
M  V30 721 H 70.1314 2.41721 5.29209 0
M  V30 722 H 69.0114 4.13535 6.66302 0
M  V30 723 N 66.5145 -1.57545 0.0417849 0
M  V30 724 C 67.7395 -1.97035 -0.647455 0
M  V30 725 C 68.1645 -0.918775 -1.64135 0
M  V30 726 O 67.5225 0.119006 -1.80909 0
M  V30 727 C 67.5705 -3.35609 -1.31905 0
M  V30 728 O 66.6745 -3.3287 -2.43457 0
M  V30 729 H 66.0155 -0.64211 -0.169086 0
M  V30 730 H 68.5455 -2.04318 0.107399 0
M  V30 731 H 68.5555 -3.72126 -1.67291 0
M  V30 732 H 67.2305 -4.11685 -0.590586 0
M  V30 733 H 65.8075 -3.08087 -2.10088 0
M  V30 734 N 67.9926 0.231505 -1.5589 0
M  V30 735 C 68.9226 1.29022 -1.94617 0
M  V30 736 C 69.9036 1.4941 -0.813067 0
M  V30 737 O 71.0886 1.6176 -1.07459 0
M  V30 738 C 68.2186 2.64199 -2.25424 0
M  V30 739 C 67.1726 2.58484 -3.41131 0
M  V30 740 C 66.4986 3.97599 -3.57518 0
M  V30 741 C 67.7986 2.1413 -4.76388 0
M  V30 742 H 69.4926 0.968563 -2.83301 0
M  V30 743 H 67.0386 0.464479 -1.36303 0
M  V30 744 H 68.9916 3.38413 -2.51107 0
M  V30 745 H 67.7156 2.98032 -1.33583 0
M  V30 746 H 66.3746 1.86727 -3.15481 0
M  V30 747 H 66.0226 4.28723 -2.6307 0
M  V30 748 H 65.7226 3.94659 -4.35337 0
M  V30 749 H 67.2466 4.7349 -3.85538 0
M  V30 750 H 68.6606 2.78083 -5.01341 0
M  V30 751 H 67.0576 2.2227 -5.57419 0
M  V30 752 H 68.1276 1.09331 -4.72414 0
M  V30 753 N 69.4707 1.49531 0.497807 0
M  V30 754 C 70.4037 1.61043 1.6168 0
M  V30 755 C 71.3817 0.459386 1.55976 0
M  V30 756 O 72.5657 0.675358 1.75986 0
M  V30 757 C 69.6927 1.56833 3.00202 0
M  V30 758 C 68.7387 2.77173 3.24156 0
M  V30 759 S 69.5717 4.38808 3.06933 0
M  V30 760 C 70.7277 4.37248 4.47845 0
M  V30 761 H 70.9607 2.55702 1.51671 0
M  V30 762 H 68.4937 1.38462 0.683201 0
M  V30 763 H 70.4517 1.55089 3.80076 0
M  V30 764 H 69.1127 0.634561 3.07623 0
M  V30 765 H 68.3057 2.70456 4.25288 0
M  V30 766 H 67.9077 2.76346 2.5201 0
M  V30 767 H 70.1997 4.09164 5.39992 0
M  V30 768 H 71.1427 5.38668 4.59612 0
M  V30 769 H 71.5507 3.67286 4.28674 0
M  V30 770 N 70.9488 -0.749086 1.3866 0
M  V30 771 C 71.8588 -1.89358 1.38494 0
M  V30 772 C 72.8748 -1.71708 0.281476 0
M  V30 773 O 74.0508 -1.94554 0.520643 0
M  V30 774 C 71.1158 -3.24782 1.21316 0
M  V30 775 C 70.1768 -3.54926 2.41508 0
M  V30 776 C 69.4098 -4.83888 2.2514 0
M  V30 777 O 69.6328 -5.56592 1.24746 0
M  V30 778 O 68.5668 -5.13612 3.13826 0
M  V30 779 H 72.3928 -1.92452 2.34938 0
M  V30 780 H 69.9778 -0.894981 1.19626 0
M  V30 781 H 71.8598 -4.05739 1.13814 0
M  V30 782 H 70.5348 -3.2249 0.279592 0
M  V30 783 H 69.4418 -2.74112 2.54585 0
M  V30 784 H 70.7748 -3.61983 3.3351 0
M  V30 785 N 72.4269 -1.23603 -0.977757 0
M  V30 786 C 73.8429 -0.999251 -1.24447 0
M  V30 787 C 74.0429 0.298053 -1.99283 0
M  V30 788 O 73.0989 1.01681 -2.31122 0
M  V30 789 C 74.4119 -2.20784 -2.04144 0
M  V30 790 C 75.9599 -2.25303 -2.17273 0
M  V30 791 C 76.4349 -3.45755 -3.00362 0
M  V30 792 N 77.9259 -3.4601 -3.07947 0
M  V30 793 C 78.6609 -4.35868 -3.72568 0
M  V30 794 N 78.1569 -5.35966 -4.38991 0
M  V30 795 N 79.9499 -4.23605 -3.6948 0
M  V30 796 H 72.1009 -2.06986 -0.476483 0
M  V30 797 H 74.3639 -0.907801 -0.273134 0
M  V30 798 H 74.0699 -3.14945 -1.56533 0
M  V30 799 H 73.9439 -2.22085 -3.04891 0
M  V30 800 H 76.3309 -1.3168 -2.64092 0
M  V30 801 H 76.4119 -2.28033 -1.15907 0
M  V30 802 H 76.0559 -4.39687 -2.5424 0
M  V30 803 H 75.9859 -3.40266 -4.01904 0
M  V30 804 H 78.4769 -2.73588 -2.60688 0
M  V30 805 H 78.7899 -6.00783 -4.86086 0
M  V30 806 H 77.1349 -5.39863 -4.37691 0
M  V30 807 H 80.3259 -3.44647 -3.16759 0
M  V30 808 H 80.4989 -4.93836 -4.1956 0
M  V30 809 N 73.905 1.17692 -1.04816 0
M  V30 810 C 75.182 1.83768 -0.669963 0
M  V30 811 C 75.562 1.93232 0.849986 0
M  V30 812 O 74.91 1.46397 1.75443 0
M  V30 813 C 75.12 3.21641 -1.35455 0
M  V30 814 C 76.468 3.97592 -1.49017 0
M  V30 815 O 77.492 3.31107 -1.31326 0
M  V30 816 O 76.351 5.16729 -1.77914 0
M  V30 817 H 73.445 0.792799 -0.235368 0
M  V30 818 H 75.991 1.25021 -1.14751 0
M  V30 819 H 74.763 3.097 -2.39168 0
M  V30 820 H 74.386 3.88052 -0.866107 0
M  V30 821 N 75.3831 0.828654 1.34056 0
M  V30 822 C 76.7991 0.515135 1.51058 0
M  V30 823 C 76.9991 -0.959581 1.77184 0
M  V30 824 O 76.0551 -1.74382 1.82612 0
M  V30 825 C 77.3681 1.37963 2.67183 0
M  V30 826 C 78.9161 1.37735 2.81066 0
M  V30 827 C 79.3911 2.22645 4.00241 0
M  V30 828 N 80.8821 2.203 4.07458 0
M  V30 829 C 81.6171 2.82744 4.98842 0
M  V30 830 N 81.1131 3.54201 5.9541 0
M  V30 831 N 82.9061 2.72268 4.91759 0
M  V30 832 H 75.0571 1.78343 1.15358 0
M  V30 833 H 77.3201 0.760304 0.566252 0
M  V30 834 H 77.0261 2.42714 2.54525 0
M  V30 835 H 76.9001 1.0484 3.62338 0
M  V30 836 H 79.2871 0.337593 2.93163 0
M  V30 837 H 79.3681 1.74859 1.86703 0
M  V30 838 H 79.0121 3.26674 3.88905 0
M  V30 839 H 78.9421 1.82869 4.93829 0
M  V30 840 H 81.4331 1.68327 3.38341 0
M  V30 841 H 81.7461 3.9908 6.61782 0
M  V30 842 H 80.0911 3.58308 5.95517 0
M  V30 843 H 83.2821 2.16014 4.15278 0
M  V30 844 H 83.4551 3.21219 5.62781 0
M  V30 845 N 76.8612 -1.46375 0.584142 0
M  V30 846 C 78.2772 -1.57694 0.245929 0
M  V30 847 C 78.4772 -1.57903 -1.25175 0
M  V30 848 O 77.5332 -1.49676 -2.03355 0
M  V30 849 C 78.8462 -2.87028 0.896402 0
M  V30 850 C 80.3942 -3.00662 0.870127 0
M  V30 851 C 80.8692 -4.32734 1.50017 0
M  V30 852 N 82.3602 -4.39436 1.46458 0
M  V30 853 C 83.0952 -5.40248 1.92144 0
M  V30 854 N 82.5912 -6.47726 2.4581 0
M  V30 855 N 84.3842 -5.31459 1.83052 0
M  V30 856 H 76.5352 -1.44483 1.55687 0
M  V30 857 H 78.7982 -0.689291 0.650831 0
M  V30 858 H 78.5042 -2.9269 1.95002 0
M  V30 859 H 78.3782 -3.75014 0.405486 0
M  V30 860 H 80.7652 -2.94581 -0.174871 0
M  V30 861 H 80.8462 -2.14148 1.39908 0
M  V30 862 H 80.4902 -4.39573 2.54437 0
M  V30 863 H 80.4202 -5.18025 0.946432 0
M  V30 864 H 82.9112 -3.62367 1.07231 0
M  V30 865 H 83.2242 -7.20863 2.78525 0
M  V30 866 H 81.5692 -6.48542 2.49836 0
M  V30 867 H 84.7602 -4.46396 1.40883 0
M  V30 868 H 84.9332 -6.09881 2.18973 0
M  V30 869 N 78.3393 -0.321999 -1.54275 0
M  V30 870 C 79.5883 0.281931 -1.9972 0
M  V30 871 C 79.9013 1.53369 -1.21397 0
M  V30 872 O 81.1073 2.21352 -1.57211 0
M  V30 873 C 79.5633 0.5529 -3.55628 0
M  V30 874 C 79.1713 -0.681721 -4.42783 0
M  V30 875 C 80.9153 1.11687 -4.09544 0
M  V30 876 C 78.8223 -0.382742 -5.9016 0
M  V30 877 H 77.7523 0.109124 -0.746062 0
M  V30 878 H 80.4033 -0.43398 -1.78294 0
M  V30 879 H 78.7853 1.32896 -3.73035 0
M  V30 880 H 79.9593 -1.45723 -4.37151 0
M  V30 881 H 78.2743 -1.1658 -3.99748 0
M  V30 882 H 80.8713 1.35515 -5.17242 0
M  V30 883 H 81.2143 2.06575 -3.61431 0
M  V30 884 H 81.7473 0.402032 -3.95763 0
M  V30 885 H 78.4863 -1.30076 -6.42464 0
M  V30 886 H 78.0063 0.355094 -5.98748 0
M  V30 887 H 79.6853 0.00800157 -6.47 0
M  V30 888 N 79.8174 1.5752 -0.0501392 0
M  V30 889 C 81.0424 1.97376 0.636997 0
M  V30 890 C 81.4674 0.927466 1.63645 0
M  V30 891 O 80.8254 -0.10941 1.8097 0
M  V30 892 C 80.8734 3.36304 1.30123 0
M  V30 893 O 79.9774 3.34156 2.41689 0
M  V30 894 H 79.3184 0.642998 0.165679 0
M  V30 895 H 81.8484 2.04258 -0.118233 0
M  V30 896 H 81.8584 3.73008 1.65315 0
M  V30 897 H 80.5334 4.11993 0.568746 0
M  V30 898 H 79.1104 3.09196 2.08451 0
M  V30 899 N 81.2955 -0.223234 1.56011 0
M  V30 900 C 82.5435 -0.946003 1.78592 0
M  V30 901 C 82.8645 -1.84936 0.618349 0
M  V30 902 O 82.1345 -1.92473 -0.364833 0
M  V30 903 H 80.7145 -0.352298 0.658707 0
M  V30 904 H 83.3765 -0.235494 1.93472 0
M  V30 905 H 82.4725 -1.55381 2.70672 0
M  V30 906 N 82.7736 -1.49793 -0.48987 0
M  V30 907 C 84.0196 -1.60078 -1.24511 0
M  V30 908 C 84.3526 -0.291608 -1.91998 0
M  V30 909 O 83.6276 0.705647 -1.81248 0
M  V30 910 C 83.9106 -2.76791 -2.30345 0
M  V30 911 C 83.7636 -4.17535 -1.67286 0
M  V30 912 C 85.0826 -2.89111 -3.31817 0
M  V30 913 H 82.2016 -0.582645 -0.451324 0
M  V30 914 H 84.8436 -1.82117 -0.541612 0
M  V30 915 H 82.9936 -2.5813 -2.90346 0
M  V30 916 H 84.6656 -4.4774 -1.11026 0
M  V30 917 H 82.9086 -4.22665 -0.976577 0
M  V30 918 H 83.5796 -4.95094 -2.44103 0
M  V30 919 H 86.0556 -3.06133 -2.81819 0
M  V30 920 H 84.9316 -3.72433 -4.03219 0
M  V30 921 H 85.1926 -1.9893 -3.94815 0
M  V30 922 N 84.2517 0.741722 -1.39055 0
M  V30 923 C 85.5287 1.49252 -1.26425 0
M  V30 924 C 85.9087 2.10705 0.129144 0
M  V30 925 O 85.2567 1.98045 1.13976 0
M  V30 926 C 85.4667 2.54934 -2.38347 0
M  V30 927 C 86.8147 3.21506 -2.77343 0
M  V30 928 O 87.8387 2.65245 -2.37747 0
M  V30 929 O 86.6977 4.23294 -3.45665 0
M  V30 930 H 83.7917 0.662451 -0.495064 0
M  V30 931 H 86.3377 0.776121 -1.50912 0
M  V30 932 H 85.1097 2.07857 -3.31529 0
M  V30 933 H 84.7327 3.34141 -2.15489 0
M  V30 934 N 85.7298 1.2412 0.971189 0
M  V30 935 C 87.1458 1.00584 1.23916 0
M  V30 936 C 87.3458 -0.287481 1.99439 0
M  V30 937 O 86.4018 -1.00454 2.31658 0
M  V30 938 C 87.7148 2.21864 2.0297 0
M  V30 939 C 89.2628 2.26452 2.16076 0
M  V30 940 C 89.7378 3.47343 2.98524 0
M  V30 941 N 91.2288 3.47639 3.06107 0
M  V30 942 C 91.9638 4.37837 3.70251 0
M  V30 943 N 91.4598 5.38286 4.36142 0
M  V30 944 N 93.2528 4.25558 3.67228 0
M  V30 945 H 85.4038 2.07236 0.465499 0
M  V30 946 H 87.6668 0.909236 0.268315 0
M  V30 947 H 87.3728 3.15771 1.54861 0
M  V30 948 H 87.2468 2.23698 3.03709 0
M  V30 949 H 89.6338 1.33078 2.6339 0
M  V30 950 H 89.7148 2.28645 1.14696 0
M  V30 951 H 89.3588 4.41029 2.51905 0
M  V30 952 H 89.2888 3.42393 4.00093 0
M  V30 953 H 91.7798 2.74966 2.59233 0
M  V30 954 H 92.0928 6.03352 4.82894 0
M  V30 955 H 90.4378 5.42176 4.34822 0
M  V30 956 H 93.6288 3.46322 3.14927 0
M  V30 957 H 93.8018 4.96054 4.16935 0
M  V30 958 N 87.2079 -1.17134 1.05439 0
M  V30 959 C 88.4379 -1.91094 0.785274 0
M  V30 960 C 88.8459 -1.77198 -0.663142 0
M  V30 961 O 88.1889 -1.10835 -1.46497 0
M  V30 962 C 88.2509 -3.42594 1.08949 0
M  V30 963 C 87.9149 -3.80274 2.53458 0
M  V30 964 C 88.9119 -3.82912 3.51673 0
M  V30 965 C 86.5969 -4.11162 2.88532 0
M  V30 966 C 88.5909 -4.15913 4.83006 0
M  V30 967 C 86.2779 -4.43831 4.20068 0
M  V30 968 C 87.2759 -4.46185 5.17115 0
M  V30 969 O 86.9639 -4.78083 6.46291 0
M  V30 970 H 86.6959 -0.613073 0.284811 0
M  V30 971 H 89.2499 -1.49461 1.40893 0
M  V30 972 H 87.4799 -3.84534 0.408741 0
M  V30 973 H 89.1689 -3.97817 0.805991 0
M  V30 974 H 89.9349 -3.5917 3.25917 0
M  V30 975 H 85.8139 -4.085 2.13656 0
M  V30 976 H 89.3579 -4.17665 5.5875 0
M  V30 977 H 85.2549 -4.67037 4.45586 0
M  V30 978 H 86.0229 -4.9593 6.51149 0
M  V30 979 N 88.686 -0.835752 -1.33615 0
M  V30 980 C 89.916 -0.442701 -2.01801 0
M  V30 981 C 90.324 0.959807 -1.63047 0
M  V30 982 O 89.667 1.63468 -0.838088 0
M  V30 983 C 89.729 -0.480125 -3.56279 0
M  V30 984 C 89.393 -1.8382 -4.18401 0
M  V30 985 C 90.39 -2.80097 -4.37998 0
M  V30 986 C 88.075 -2.13019 -4.54894 0
M  V30 987 C 90.069 -4.03736 -4.9323 0
M  V30 988 C 87.756 -3.36916 -5.09834 0
M  V30 989 C 88.754 -4.32091 -5.28948 0
M  V30 990 O 88.442 -5.53797 -5.82721 0
M  V30 991 H 88.174 -0.17441 -0.653114 0
M  V30 992 H 90.728 -1.129 -1.71589 0
M  V30 993 H 88.958 0.262931 -3.85805 0
M  V30 994 H 90.647 -0.105335 -4.05763 0
M  V30 995 H 91.413 -2.58838 -4.10156 0
M  V30 996 H 87.292 -1.39733 -4.39313 0
M  V30 997 H 90.836 -4.78034 -5.08064 0
M  V30 998 H 86.733 -3.58033 -5.37106 0
M  V30 999 H 87.501 -5.55494 -6.0114 0
M  V30 1000 N 90.1641 1.46063 -0.591896 0
M  V30 1001 C 91.4101 2.02638 -0.0811191 0
M  V30 1002 C 91.7431 1.4613 1.27905 0
M  V30 1003 O 91.0181 0.629908 1.84017 0
M  V30 1004 C 91.3011 3.60091 -0.0252436 0
M  V30 1005 C 91.1541 4.26965 -1.41496 0
M  V30 1006 C 92.4731 4.3496 0.670685 0
M  V30 1007 H 89.5921 0.73635 -0.0309524 0
M  V30 1008 H 92.2341 1.741 -0.760859 0
M  V30 1009 H 90.3841 3.84535 0.553624 0
M  V30 1010 H 92.0561 4.13756 -2.0397 0
M  V30 1011 H 90.2991 3.85971 -1.98011 0
M  V30 1012 H 90.9701 5.35781 -1.32825 0
M  V30 1013 H 93.4461 4.15716 0.178825 0
M  V30 1014 H 92.3221 5.44686 0.678837 0
M  V30 1015 H 92.5831 4.06685 1.73379 0
M  V30 1016 N 91.6422 0.330177 1.54103 0
M  V30 1017 C 92.8672 -0.274893 2.0557 0
M  V30 1018 C 93.2922 -1.44487 1.20437 0
M  V30 1019 O 92.6502 -1.80021 0.214991 0
M  V30 1020 C 92.6982 -0.68079 3.54115 0
M  V30 1021 O 91.8022 -1.7824 3.71893 0
M  V30 1022 H 91.1432 -0.0483849 0.662235 0
M  V30 1023 H 93.6732 0.480508 1.98878 0
M  V30 1024 H 93.6832 -0.961635 3.96505 0
M  V30 1025 H 92.3582 0.174903 4.15532 0
M  V30 1026 H 90.9352 -1.49985 3.41407 0
M  V30 1027 N 93.1203 -1.57491 0.0584922 0
M  V30 1028 C 94.0673 -2.11958 -0.913376 0
M  V30 1029 C 95.0373 -1.02875 -1.30407 0
M  V30 1030 O 96.2223 -1.30464 -1.39226 0
M  V30 1031 C 93.3623 -2.67497 -2.18035 0
M  V30 1032 C 92.4753 -3.90691 -1.84349 0
M  V30 1033 C 91.6103 -4.3452 -3.05559 0
M  V30 1034 C 90.6493 -5.50395 -2.67827 0
M  V30 1035 N 89.7863 -5.89244 -3.81754 0
M  V30 1036 H 94.6263 -2.94704 -0.442017 0
M  V30 1037 H 92.1633 -1.45643 -0.206545 0
M  V30 1038 H 94.1213 -2.978 -2.92183 0
M  V30 1039 H 92.7513 -1.87537 -2.62735 0
M  V30 1040 H 91.8033 -3.66934 -1.00319 0
M  V30 1041 H 93.1153 -4.7489 -1.5258 0
M  V30 1042 H 92.2693 -4.66414 -3.87998 0
M  V30 1043 H 91.0083 -3.49147 -3.40511 0
M  V30 1044 H 90.0133 -5.18165 -1.83806 0
M  V30 1045 H 91.2383 -6.3749 -2.34059 0
M  V30 1046 H 89.1843 -5.06823 -4.16493 0
M  V30 1047 H 89.1013 -6.68151 -3.53708 0
M  V30 1048 H 90.3693 -6.25756 -4.64811 0
M  V30 1049 N 94.5984 0.214957 -1.56127 0
M  V30 1050 C 95.8464 0.936518 -1.79091 0
M  V30 1051 C 96.1674 1.84606 -0.628148 0
M  V30 1052 O 95.4374 1.92664 0.35462 0
M  V30 1053 H 94.0174 0.3488 -0.660566 0
M  V30 1054 H 96.6794 0.22523 -1.93594 0
M  V30 1055 H 95.7754 1.53943 -2.71492 0
M  V30 1056 N 96.0765 1.50051 0.48192 0
M  V30 1057 C 97.0065 1.71046 1.58951 0
M  V30 1058 C 97.9875 0.559288 1.60642 0
M  V30 1059 O 99.1725 0.797243 1.77081 0
M  V30 1060 C 96.3025 1.79462 2.97339 0
M  V30 1061 C 95.2565 2.94558 3.10515 0
M  V30 1062 C 94.5825 2.88105 4.50444 0
M  V30 1063 C 95.8825 4.35227 2.88747 0
M  V30 1064 H 97.5765 2.6378 1.41635 0
M  V30 1065 H 95.1225 1.26936 0.679942 0
M  V30 1066 H 97.0755 1.92734 3.74742 0
M  V30 1067 H 95.7995 0.833412 3.15788 0
M  V30 1068 H 94.4585 2.80918 2.35543 0
M  V30 1069 H 94.1065 1.89853 4.65795 0
M  V30 1070 H 93.8065 3.65366 4.60197 0
M  V30 1071 H 95.3305 3.03412 5.29881 0
M  V30 1072 H 96.7445 4.49449 3.55905 0
M  V30 1073 H 95.1415 5.13856 3.09955 0
M  V30 1074 H 96.2115 4.48347 1.84696 0
M  V30 1075 N 97.5546 -0.734337 1.39446 0
M  V30 1076 C 98.4646 -1.87879 1.40495 0
M  V30 1077 C 99.4806 -1.714 0.299672 0
M  V30 1078 O 100.657 -1.93991 0.541249 0
M  V30 1079 C 97.7216 -3.23477 1.24754 0
M  V30 1080 C 96.7826 -3.52344 2.45259 0
M  V30 1081 C 96.0156 -4.81473 2.30259 0
M  V30 1082 O 96.2386 -5.55237 1.30643 0
M  V30 1083 O 95.1726 -5.10254 3.19256 0
M  V30 1084 H 98.9986 -1.89949 2.36966 0
M  V30 1085 H 96.5836 -0.882243 1.20569 0
M  V30 1086 H 98.4656 -4.04509 1.18111 0
M  V30 1087 H 97.1406 -3.22176 0.313781 0
M  V30 1088 H 96.0476 -2.71396 2.57478 0
M  V30 1089 H 97.3806 -3.58426 3.37331 0
M  V30 1090 N 99.0327 -1.24633 -0.964593 0
M  V30 1091 C 99.9807 -1.03917 -2.08096 0
M  V30 1092 C 100.975 0.0268581 -1.69379 0
M  V30 1093 O 102.181 -0.127952 -1.79545 0
M  V30 1094 H 98.5557 -0.319044 -0.680966 0
M  V30 1095 H 100.527 -1.98581 -2.22729 0
M  V30 1096 C 99.2757 -0.663983 -3.41301 0
M  V30 1097 H 98.5987 -1.47605 -3.71555 0
M  V30 1098 H 100.039 -0.558663 -4.20303 0
M  V30 1099 C 98.4977 0.629169 -3.30973 0
M  V30 1100 O 99.0277 1.67404 -3.65156 0
M  V30 1101 N 97.2337 0.611057 -2.84103 0
M  V30 1102 H 96.7807 -0.239593 -2.56483 0
M  V30 1103 H 96.7387 1.47647 -2.77575 0
M  V30 1104 N 100.511 1.16574 -1.06058 0
M  V30 1105 C 101.76 1.86385 -0.770944 0
M  V30 1106 C 102.073 1.82448 0.705129 0
M  V30 1107 O 103.279 2.47815 1.10905 0
M  V30 1108 C 101.735 3.34466 -1.32893 0
M  V30 1109 C 101.343 3.46883 -2.83507 0
M  V30 1110 C 103.087 4.09548 -1.11672 0
M  V30 1111 C 100.994 4.89036 -3.32562 0
M  V30 1112 H 99.9238 0.698181 -0.284709 0
M  V30 1113 H 102.575 1.31583 -1.27899 0
M  V30 1114 H 100.957 3.88859 -0.748662 0
M  V30 1115 H 102.131 3.02663 -3.47465 0
M  V30 1116 H 100.446 2.85232 -3.03368 0
M  V30 1117 H 103.043 5.14434 -1.45814 0
M  V30 1118 H 103.386 4.16264 -0.0549535 0
M  V30 1119 H 103.919 3.61387 -1.66265 0
M  V30 1120 H 100.658 4.87499 -4.38207 0
M  V30 1121 H 100.178 5.3389 -2.73351 0
M  V30 1122 H 101.857 5.57843 -3.2775 0
M  V30 1123 N 101.989 0.842826 1.3317 0
M  V30 1124 C 103.266 0.362216 1.92217 0
M  V30 1125 C 103.646 -1.15289 1.76838 0
M  V30 1126 O 102.994 -1.96914 1.15919 0
M  V30 1127 C 103.204 0.813495 3.39387 0
M  V30 1128 C 104.552 0.823804 4.16532 0
M  V30 1129 O 105.576 0.757358 3.48055 0
M  V30 1130 O 104.435 0.915193 5.38782 0
M  V30 1131 H 101.529 0.103317 0.820521 0
M  V30 1132 H 104.075 0.928942 1.42017 0
M  V30 1133 H 102.847 1.85624 3.4447 0
M  V30 1134 H 102.47 0.223561 3.96971 0
M  V30 1135 O 103.506 -1.43543 0.740114 0
M  V30 1136 H 104.197 -1.91465 0.293394 0
M  V30 END ATOM
M  V30 BEGIN BOND
M  V30 END BOND
M  V30 END CTAB
M  END
$$$$
